
     RDKit          3D

 39 42  0  0  0  0  0  0  0  0999 V2000
    8.6600    1.5680    4.2260 C   0  0  0  0  0  0  0  0  0  0  0  0
    7.2740    1.7500    4.0990 O   0  0  0  0  0  0  0  0  0  0  0  0
    6.5390    0.8510    3.3030 C   0  0  0  0  0  0  0  0  0  0  0  0
    6.9680   -0.2150    2.5990 C   0  0  0  0  0  0  0  0  0  0  0  0
    6.0600   -0.9230    1.9120 C   0  0  0  0  0  0  0  0  0  0  0  0
    4.7900   -0.5300    1.9650 C   0  0  0  0  0  0  0  0  0  0  0  0
    3.5380   -1.1320    1.3370 C   0  0  2  0  0  0  0  0  0  0  0  0
    3.5930   -2.4850    1.7700 O   0  0  0  0  0  0  0  0  0  0  0  0
    3.5750   -1.1470   -0.1390 C   0  0  0  0  0  0  0  0  0  0  0  0
    3.6920    0.1260   -0.8740 C   0  0  1  0  0  0  0  0  0  0  0  0
    2.5860    1.0870   -0.5880 C   0  0  0  0  0  0  0  0  0  0  0  0
    2.8010    2.2980   -0.4210 O   0  0  0  0  0  0  0  0  0  0  0  0
    1.2410    0.6050   -0.5040 N   0  0  0  0  0  0  0  0  0  0  0  0
    0.2000    1.5180   -0.2500 C   0  0  0  0  0  0  0  0  0  0  0  0
    0.4590    2.9890   -0.1320 C   0  0  0  0  0  0  0  0  0  0  0  0
   -1.0520    1.0860   -0.1450 C   0  0  0  0  0  0  0  0  0  0  0  0
   -2.1960    2.0230    0.1220 C   0  0  0  0  0  0  0  0  0  0  0  0
   -3.3650    1.2910    0.6450 C   0  0  0  0  0  0  0  0  0  0  0  0
   -3.8170    0.0590   -0.0370 C   0  0  1  0  0  0  0  0  0  0  0  0
   -5.0370    0.1770   -0.7920 N   0  0  0  0  0  0  0  0  0  0  0  0
   -6.1970   -0.5980   -0.4210 C   0  0  0  0  0  0  0  0  0  0  0  0
   -6.0290   -1.3460    0.5880 O   0  0  0  0  0  0  0  0  0  0  0  0
   -7.4160   -0.5300   -1.1210 N   0  0  0  0  0  0  0  0  0  0  0  0
   -8.5550   -1.2730   -0.7530 C   0  0  0  0  0  0  0  0  0  0  0  0
   -9.5740   -1.3910   -1.6920 C   0  0  0  0  0  0  0  0  0  0  0  0
  -10.7440   -2.0770   -1.4580 C   0  0  0  0  0  0  0  0  0  0  0  0
  -10.9620   -2.6940   -0.2460 C   0  0  0  0  0  0  0  0  0  0  0  0
  -12.1420   -3.3860   -0.0110 O   0  0  0  0  0  0  0  0  0  0  0  0
   -9.9670   -2.5900    0.6990 C   0  0  0  0  0  0  0  0  0  0  0  0
   -8.7810   -1.8890    0.4500 C   0  0  0  0  0  0  0  0  0  0  0  0
   -2.7520   -0.5550   -0.9270 C   0  0  0  0  0  0  0  0  0  0  0  0
   -1.4250   -0.3180   -0.2540 C   0  0  0  0  0  0  0  0  0  0  0  0
   -0.7110   -1.2190    0.1740 O   0  0  0  0  0  0  0  0  0  0  0  0
    4.9880    0.8510   -0.8080 C   0  0  1  0  0  0  0  0  0  0  0  0
    6.1740    0.1000   -1.3270 C   0  0  0  0  0  0  0  0  0  0  0  0
    6.0810    0.2690   -2.8200 C   0  0  0  0  0  0  0  0  0  0  0  0
    5.0950    1.3920   -2.9890 C   0  0  0  0  0  0  0  0  0  0  0  0
    4.8880    1.9280   -1.7220 O   0  0  0  0  0  0  0  0  0  0  0  0
    4.8320    0.8740    3.0030 S   0  0  0  0  0  0  0  0  0  0  0  0
  1  2  1  0
  2  3  1  0
  3  4  2  0
  3 39  1  0
  4  5  1  0
  5  6  2  0
  6  7  1  0
  6 39  1  0
  7  8  1  1
  7  9  1  0
 10  9  1  1
 10 11  1  0
 10 34  1  0
 11 12  2  0
 11 13  1  0
 13 14  1  0
 14 15  1  0
 14 16  2  3
 16 17  1  0
 16 32  1  0
 17 18  1  0
 18 19  1  0
 19 20  1  6
 19 31  1  0
 20 21  1  0
 21 22  2  0
 21 23  1  0
 23 24  1  0
 24 25  2  0
 24 30  1  0
 25 26  1  0
 26 27  2  0
 27 28  1  0
 27 29  1  0
 29 30  2  0
 31 32  1  0
 32 33  2  0
 34 35  1  6
 34 38  1  0
 35 36  1  0
 36 37  1  0
 37 38  1  0
M  END
