
     RDKit          3D

 39 42  0  0  0  0  0  0  0  0999 V2000
   12.3820    0.6820   -0.0730 C   0  0  0  0  0  0  0  0  0  0  0  0
   11.4600   -0.1190   -0.9540 C   0  0  2  0  0  0  0  0  0  0  0  0
   11.7540   -1.6000   -0.7800 C   0  0  0  0  0  0  0  0  0  0  0  0
   11.6200    0.2950   -2.3870 C   0  0  0  0  0  0  0  0  0  0  0  0
   10.2860    0.4640   -2.9390 N   0  0  0  0  0  0  0  0  0  0  0  0
    9.2950    0.1830   -1.9180 C   0  0  0  0  0  0  0  0  0  0  0  0
    8.0390   -0.0130   -2.1930 C   0  0  0  0  0  0  0  0  0  0  0  0
    7.0850   -0.2930   -1.1200 C   0  0  0  0  0  0  0  0  0  0  0  0
    5.8470    0.1870   -0.9050 C   0  0  0  0  0  0  0  0  0  0  0  0
    5.1420   -0.2320    0.1580 C   0  0  0  0  0  0  0  0  0  0  0  0
    3.7970    0.1960    0.5190 N   0  0  0  0  0  0  0  0  0  0  0  0
    2.9760    0.8930   -0.3420 C   0  0  0  0  0  0  0  0  0  0  0  0
    3.3190    1.2250   -1.5120 O   0  0  0  0  0  0  0  0  0  0  0  0
    1.5920    1.3300    0.0360 C   0  0  0  0  0  0  0  0  0  0  0  0
    1.0870    0.7610    1.1640 O   0  0  0  0  0  0  0  0  0  0  0  0
    0.8090   -0.5740    1.1280 C   0  0  0  0  0  0  0  0  0  0  0  0
   -0.2870   -0.9510    0.1510 C   0  0  0  0  0  0  0  0  0  0  0  0
   -1.6310   -0.3100    0.5220 C   0  0  0  0  0  0  0  0  0  0  0  0
   -2.0450   -0.7060    1.7460 O   0  0  0  0  0  0  0  0  0  0  0  0
   -3.2090   -0.1970    2.1910 C   0  0  0  0  0  0  0  0  0  0  0  0
   -4.4380   -0.4420    1.4210 C   0  0  0  0  0  0  0  0  0  0  0  0
   -5.4380   -1.1000    2.0130 C   0  0  0  0  0  0  0  0  0  0  0  0
   -6.7170   -1.4120    1.3590 C   0  0  0  0  0  0  0  0  0  0  0  0
   -7.0810   -0.4900    0.2550 C   0  0  1  0  0  0  0  0  0  0  0  0
   -8.3850    0.0990    0.4620 N   0  0  0  0  0  0  0  0  0  0  0  0
   -9.4040    0.1980   -0.4960 C   0  0  0  0  0  0  0  0  0  0  0  0
   -9.1840   -0.2490   -1.6460 O   0  0  0  0  0  0  0  0  0  0  0  0
  -10.7490    0.8190   -0.1970 C   0  0  1  0  0  0  0  0  0  0  0  0
  -11.8460   -0.0980   -0.6170 C   0  0  0  0  0  0  0  0  0  0  0  0
  -13.0830    0.4480   -0.3720 O   0  0  0  0  0  0  0  0  0  0  0  0
  -13.0450    1.7000    0.2270 C   0  0  0  0  0  0  0  0  0  0  0  0
  -12.0730    1.7350    1.3870 C   0  0  0  0  0  0  0  0  0  0  0  0
  -10.8600    1.1620    1.1200 O   0  0  0  0  0  0  0  0  0  0  0  0
   -6.0880    0.6430    0.0730 C   0  0  0  0  0  0  0  0  0  0  0  0
   -4.6690    0.0420    0.0460 C   0  0  0  0  0  0  0  0  0  0  0  0
    5.7470   -1.1590    0.9920 C   0  0  0  0  0  0  0  0  0  0  0  0
    7.3450   -1.3960    0.1930 S   0  0  0  0  0  0  0  0  0  0  0  0
   10.0080    0.1970   -0.6230 C   0  0  2  0  0  0  0  0  0  0  0  0
    9.9460    1.4540   -0.0180 O   0  0  0  0  0  0  0  0  0  0  0  0
  2  1  1  1
  2  3  1  0
  2  4  1  0
  2 38  1  0
  4  5  1  0
  5  6  1  0
  6  7  2  3
  6 38  1  0
  7  8  1  0
  8  9  2  0
  8 37  1  0
  9 10  1  0
 10 11  1  0
 10 36  2  0
 11 12  1  0
 12 13  2  0
 12 14  1  0
 14 15  1  0
 15 16  1  0
 16 17  1  0
 17 18  1  0
 18 19  1  0
 19 20  1  0
 20 21  1  0
 21 22  2  0
 21 35  1  0
 22 23  1  0
 23 24  1  0
 24 25  1  1
 24 34  1  0
 25 26  1  0
 26 27  2  0
 28 26  1  1
 28 29  1  0
 28 33  1  0
 29 30  1  0
 30 31  1  0
 31 32  1  0
 32 33  1  0
 34 35  1  0
 36 37  1  0
 38 39  1  6
M  END
