
     RDKit          3D

 39 42  0  0  0  0  0  0  0  0999 V2000
   -8.4330   -0.9150   -1.8620 C   0  0  0  0  0  0  0  0  0  0  0  0
   -7.7330   -1.8940   -1.1570 O   0  0  0  0  0  0  0  0  0  0  0  0
   -6.5050   -1.7710   -0.5580 C   0  0  0  0  0  0  0  0  0  0  0  0
   -5.8870   -2.8270    0.1320 C   0  0  0  0  0  0  0  0  0  0  0  0
   -4.7510   -2.4150    0.5840 O   0  0  0  0  0  0  0  0  0  0  0  0
   -4.5220   -1.1420    0.2600 C   0  0  0  0  0  0  0  0  0  0  0  0
   -3.2730   -0.4030    0.6490 C   0  0  0  0  0  0  0  0  0  0  0  0
   -2.1190   -0.8740   -0.0710 C   0  0  0  0  0  0  0  0  0  0  0  0
   -2.2270   -1.8830   -0.8880 O   0  0  0  0  0  0  0  0  0  0  0  0
   -0.8080   -0.3470    0.0070 N   0  0  0  0  0  0  0  0  0  0  0  0
    0.2980   -0.9270   -0.8030 C   0  0  1  0  0  0  0  0  0  0  0  0
    1.5680   -0.2310   -0.4810 C   0  0  0  0  0  0  0  0  0  0  0  0
    2.6730   -0.7620   -1.2370 N   0  0  0  0  0  0  0  0  0  0  0  0
    4.0110   -0.2260   -0.9880 C   0  0  0  0  0  0  0  0  0  0  0  0
    4.0740    0.6600   -0.1150 O   0  0  0  0  0  0  0  0  0  0  0  0
    5.1360   -0.6730   -1.6630 N   0  0  0  0  0  0  0  0  0  0  0  0
    6.4840   -0.2510   -1.5440 C   0  0  0  0  0  0  0  0  0  0  0  0
    6.8210    1.1230   -1.9950 C   0  0  1  0  0  0  0  0  0  0  0  0
    6.1250    2.2000   -1.2340 C   0  0  0  0  0  0  0  0  0  0  0  0
    6.9480    3.5000   -1.5090 C   0  0  0  0  0  0  0  0  0  0  0  0
    8.1340    3.3390   -0.5640 C   0  0  0  0  0  0  0  0  0  0  0  0
    8.5670    1.8780   -0.6400 C   0  0  0  0  0  0  0  0  0  0  0  0
    8.2380    1.3210   -1.8600 O   0  0  0  0  0  0  0  0  0  0  0  0
    0.3590   -2.3880   -0.4570 C   0  0  0  0  0  0  0  0  0  0  0  0
    0.1400   -3.4870   -1.1830 C   0  0  0  0  0  0  0  0  0  0  0  0
    0.2920   -4.7080   -0.6150 C   0  0  0  0  0  0  0  0  0  0  0  0
    0.6690   -4.7600    0.6850 C   0  0  0  0  0  0  0  0  0  0  0  0
    0.9200   -5.9390    1.5760 C   0  0  0  0  0  0  0  0  0  0  0  0
    0.8240   -3.0780    1.1670 S   0  0  0  0  0  0  0  0  0  0  0  0
   -3.3920    0.5600    1.4860 C   0  0  0  0  0  0  0  0  0  0  0  0
   -2.3320    1.4390    2.0370 C   0  0  0  0  0  0  0  0  0  0  0  0
   -1.4480    0.8990    2.7100 O   0  0  0  0  0  0  0  0  0  0  0  0
   -2.4950    2.8770    1.7060 C   0  0  0  0  0  0  0  0  0  0  0  0
   -3.9950    3.1330    1.6880 C   0  0  2  0  0  0  0  0  0  0  0  0
   -4.2250    4.5940    1.9930 C   0  0  0  0  0  0  0  0  0  0  0  0
   -4.7430    2.2710    2.4450 O   0  0  0  0  0  0  0  0  0  0  0  0
   -4.7410    0.9550    2.0330 C   0  0  2  0  0  0  0  0  0  0  0  0
   -5.1580    0.0660    3.1670 C   0  0  0  0  0  0  0  0  0  0  0  0
   -5.6030   -0.7260   -0.4520 C   0  0  0  0  0  0  0  0  0  0  0  0
  1  2  1  0
  2  3  1  0
  3  4  2  0
  3 39  1  0
  4  5  1  0
  5  6  1  0
  6  7  1  0
  6 39  2  0
  7  8  1  0
  7 30  2  3
  8  9  2  0
  8 10  1  0
 10 11  1  0
 11 12  1  1
 11 24  1  0
 12 13  1  0
 13 14  1  0
 14 15  2  0
 14 16  1  0
 16 17  1  0
 18 17  1  1
 18 19  1  0
 18 23  1  0
 19 20  1  0
 20 21  1  0
 21 22  1  0
 22 23  1  0
 24 25  2  0
 24 29  1  0
 25 26  1  0
 26 27  2  0
 27 28  1  0
 27 29  1  0
 30 31  1  0
 30 37  1  0
 31 32  2  0
 31 33  1  0
 33 34  1  0
 34 35  1  1
 34 36  1  0
 36 37  1  0
 37 38  1  1
M  END
