
     RDKit          3D

 39 43  0  0  0  0  0  0  0  0999 V2000
   -5.8560    0.7710   -2.0960 C   0  0  0  0  0  0  0  0  0  0  0  0
   -6.1870   -0.4040   -1.2020 C   0  0  0  0  0  0  0  0  0  0  0  0
   -5.6270   -0.3260    0.0690 O   0  0  0  0  0  0  0  0  0  0  0  0
   -4.2750   -0.2520    0.3720 C   0  0  0  0  0  0  0  0  0  0  0  0
   -3.7420    0.8300    0.8920 C   0  0  0  0  0  0  0  0  0  0  0  0
   -4.5830    1.9850    1.1710 C   0  0  0  0  0  0  0  0  0  0  0  0
   -5.8330    1.9750    0.9190 O   0  0  0  0  0  0  0  0  0  0  0  0
   -4.0970    3.1610    1.7220 O   0  0  0  0  0  0  0  0  0  0  0  0
   -4.8690    4.3010    2.0100 C   0  0  0  0  0  0  0  0  0  0  0  0
   -2.2730    0.9940    1.1400 C   0  0  2  0  0  0  0  0  0  0  0  0
   -1.7790    2.0870    0.3160 N   0  0  0  0  0  0  0  0  0  0  0  0
   -0.7250    1.8220   -0.5850 C   0  0  0  0  0  0  0  0  0  0  0  0
   -0.7110    2.3140   -1.7460 O   0  0  0  0  0  0  0  0  0  0  0  0
    0.3680    0.9520   -0.1340 C   0  0  2  0  0  0  0  0  0  0  0  0
    1.1210    0.4730   -1.3550 C   0  0  0  0  0  0  0  0  0  0  0  0
    1.8180    1.8150   -2.3110 S   0  0  0  0  0  0  0  0  0  0  0  0
    3.0950    2.6330   -1.3260 C   0  0  0  0  0  0  0  0  0  0  0  0
    4.2500    1.7580   -1.0700 C   0  0  0  0  0  0  0  0  0  0  0  0
    5.3040    1.7490   -1.9710 C   0  0  0  0  0  0  0  0  0  0  0  0
    6.3620    0.9190   -1.6940 C   0  0  0  0  0  0  0  0  0  0  0  0
    6.3920    0.1230   -0.5750 C   0  0  0  0  0  0  0  0  0  0  0  0
    5.3370    0.1400    0.3150 C   0  0  0  0  0  0  0  0  0  0  0  0
    5.3530   -0.6540    1.4430 O   0  0  0  0  0  0  0  0  0  0  0  0
    4.2650   -0.6140    2.3340 C   0  0  0  0  0  0  0  0  0  0  0  0
    4.2870    0.9580    0.0490 C   0  0  0  0  0  0  0  0  0  0  0  0
    7.5660   -0.6220   -0.5210 O   0  0  0  0  0  0  0  0  0  0  0  0
    8.1090   -0.6350   -1.8210 C   0  0  0  0  0  0  0  0  0  0  0  0
    7.6220    0.6650   -2.4220 C   0  0  0  0  0  0  0  0  0  0  0  0
   -0.1220   -0.2720    0.5880 C   0  0  2  0  0  0  0  0  0  0  0  0
    0.0430   -1.4550   -0.2360 N   0  0  0  0  0  0  0  0  0  0  0  0
   -0.9890   -2.3750    0.2790 C   0  0  1  0  0  0  0  0  0  0  0  0
   -0.5580   -2.9940    1.5630 C   0  0  0  0  0  0  0  0  0  0  0  0
   -1.5710   -3.9130    2.1180 C   0  0  0  0  0  0  0  0  0  0  0  0
   -1.2880   -5.2790    2.3820 N   0  0  0  0  0  0  0  0  0  0  0  0
   -2.7540   -3.5340    2.3880 O   0  0  0  0  0  0  0  0  0  0  0  0
   -2.1120   -1.3940    0.4150 C   0  0  0  0  0  0  0  0  0  0  0  0
   -3.3850   -1.3820    0.1360 C   0  0  0  0  0  0  0  0  0  0  0  0
   -3.9310   -2.6520   -0.4900 C   0  0  0  0  0  0  0  0  0  0  0  0
   -1.4850   -0.2260    1.1350 C   0  0  2  0  0  0  0  0  0  0  0  0
  1  2  1  0
  2  3  1  0
  3  4  1  0
  4  5  2  0
  4 37  1  0
  5  6  1  0
  5 10  1  0
  6  7  2  0
  6  8  1  0
  8  9  1  0
 10 11  1  6
 10 39  1  0
 11 12  1  0
 12 13  2  0
 12 14  1  0
 14 15  1  6
 14 29  1  0
 15 16  1  0
 16 17  1  0
 17 18  1  0
 18 19  2  0
 18 25  1  0
 19 20  1  0
 20 21  2  0
 20 28  1  0
 21 22  1  0
 21 26  1  0
 22 23  1  0
 22 25  2  0
 23 24  1  0
 26 27  1  0
 27 28  1  0
 29 30  1  6
 29 39  1  0
 30 31  1  0
 31 32  1  1
 31 36  1  0
 32 33  1  0
 33 34  1  0
 33 35  2  0
 36 37  2  0
 39 36  1  6
 37 38  1  0
M  END
