
     RDKit          3D

 39 42  0  0  0  0  0  0  0  0999 V2000
   -7.7230   -0.3200    0.8100 C   0  0  0  0  0  0  0  0  0  0  0  0
   -7.3440   -0.2490   -0.6350 C   0  0  0  0  0  0  0  0  0  0  0  0
   -7.0520    1.1590   -1.0870 C   0  0  1  0  0  0  0  0  0  0  0  0
   -8.2530    2.0230   -0.8910 C   0  0  0  0  0  0  0  0  0  0  0  0
   -8.6240    2.0680    0.4530 O   0  0  0  0  0  0  0  0  0  0  0  0
   -5.8670    1.7580   -0.4040 C   0  0  2  0  0  0  0  0  0  0  0  0
   -5.6570    3.1630   -0.9300 C   0  0  0  0  0  0  0  0  0  0  0  0
   -5.4850    3.2240   -2.2970 O   0  0  0  0  0  0  0  0  0  0  0  0
   -4.7270    0.9110   -0.7020 N   0  0  0  0  0  0  0  0  0  0  0  0
   -3.9250    0.3970    0.3380 C   0  0  0  0  0  0  0  0  0  0  0  0
   -4.1780    0.6590    1.5370 O   0  0  0  0  0  0  0  0  0  0  0  0
   -2.7390   -0.4810    0.0620 C   0  0  2  0  0  0  0  0  0  0  0  0
   -2.1190   -0.8410    1.3140 N   0  0  0  0  0  0  0  0  0  0  0  0
   -0.9590   -1.6590    1.2990 C   0  0  0  0  0  0  0  0  0  0  0  0
   -0.5230   -2.0330    0.1820 O   0  0  0  0  0  0  0  0  0  0  0  0
   -0.3020   -2.0450    2.5900 C   0  0  0  0  0  0  0  0  0  0  0  0
    0.8780   -2.9330    2.2040 C   0  0  1  0  0  0  0  0  0  0  0  0
    0.2910   -4.1390    1.4600 C   0  0  0  0  0  0  0  0  0  0  0  0
    1.6810   -2.1720    1.3660 O   0  0  0  0  0  0  0  0  0  0  0  0
    3.0250   -2.0060    1.5310 C   0  0  0  0  0  0  0  0  0  0  0  0
    3.7370   -2.5890    2.5460 C   0  0  0  0  0  0  0  0  0  0  0  0
    5.1160   -2.3980    2.6870 C   0  0  0  0  0  0  0  0  0  0  0  0
    5.7960   -1.6120    1.7970 C   0  0  0  0  0  0  0  0  0  0  0  0
    5.1000   -1.0110    0.7620 C   0  0  0  0  0  0  0  0  0  0  0  0
    5.7880   -0.1700   -0.2080 C   0  0  0  0  0  0  0  0  0  0  0  0
    5.2800    0.5480   -1.3070 C   0  0  0  0  0  0  0  0  0  0  0  0
    6.1440    1.2150   -1.9900 N   0  0  0  0  0  0  0  0  0  0  0  0
    7.3380    1.3210   -1.8310 C   0  0  0  0  0  0  0  0  0  0  0  0
    8.5460    1.9620   -2.3900 C   0  0  1  0  0  0  0  0  0  0  0  0
    9.1080    3.0460   -1.5080 C   0  0  0  0  0  0  0  0  0  0  0  0
    9.8720    2.2130   -0.4800 C   0  0  0  0  0  0  0  0  0  0  0  0
   10.2430    0.9930   -1.2750 C   0  0  0  0  0  0  0  0  0  0  0  0
    9.6140    1.0790   -2.5080 O   0  0  0  0  0  0  0  0  0  0  0  0
    7.5160    0.2220   -0.3000 S   0  0  0  0  0  0  0  0  0  0  0  0
    3.7660   -1.2110    0.6470 C   0  0  0  0  0  0  0  0  0  0  0  0
   -1.8480    0.2770   -0.8520 C   0  0  0  0  0  0  0  0  0  0  0  0
   -2.1270   -0.3300   -2.1980 C   0  0  0  0  0  0  0  0  0  0  0  0
   -3.0410   -1.3340   -2.0760 O   0  0  0  0  0  0  0  0  0  0  0  0
   -3.1710   -1.6570   -0.7460 C   0  0  0  0  0  0  0  0  0  0  0  0
  1  2  1  0
  3  2  1  1
  3  4  1  0
  3  6  1  0
  4  5  1  0
  6  7  1  6
  6  9  1  0
  7  8  1  0
  9 10  1  0
 10 11  2  0
 10 12  1  0
 12 13  1  1
 12 36  1  0
 12 39  1  0
 13 14  1  0
 14 15  2  0
 14 16  1  0
 16 17  1  0
 17 18  1  6
 17 19  1  0
 19 20  1  0
 20 21  2  0
 20 35  1  0
 21 22  1  0
 22 23  2  0
 23 24  1  0
 24 25  1  0
 24 35  2  0
 25 26  2  0
 25 34  1  0
 26 27  1  0
 27 28  2  0
 29 28  1  1
 28 34  1  0
 29 30  1  0
 29 33  1  0
 30 31  1  0
 31 32  1  0
 32 33  1  0
 36 37  1  0
 37 38  1  0
 38 39  1  0
M  END
