
     RDKit          3D

 21 24  0  0  0  0  0  0  0  0999 V2000
    5.5340    0.9100   -0.2780 C   0  0  0  0  0  0  0  0  0  0  0  0
    4.4330   -0.0690   -0.1030 C   0  0  0  0  0  0  0  0  0  0  0  0
    4.7550   -1.4040    0.0010 C   0  0  0  0  0  0  0  0  0  0  0  0
    3.7180   -2.2980    0.1590 C   0  0  0  0  0  0  0  0  0  0  0  0
    2.3940   -1.8470    0.2090 C   0  0  0  0  0  0  0  0  0  0  0  0
    2.0710   -0.5100    0.1060 C   0  0  0  0  0  0  0  0  0  0  0  0
    0.7010   -0.0090    0.1510 C   0  0  0  0  0  0  0  0  0  0  0  0
    0.4630    1.2410    0.6830 C   0  0  0  0  0  0  0  0  0  0  0  0
   -0.7960    1.7930    0.7580 C   0  0  0  0  0  0  0  0  0  0  0  0
   -1.8520    1.0440    0.2720 C   0  0  0  0  0  0  0  0  0  0  0  0
   -3.1100    1.6040    0.3490 C   0  0  0  0  0  0  0  0  0  0  0  0
   -4.1990    0.8680   -0.1360 C   0  0  0  0  0  0  0  0  0  0  0  0
   -4.0260   -0.3780   -0.6760 C   0  0  0  0  0  0  0  0  0  0  0  0
   -2.7380   -0.9170   -0.7390 C   0  0  0  0  0  0  0  0  0  0  0  0
   -1.6550   -0.2100   -0.2680 C   0  0  0  0  0  0  0  0  0  0  0  0
   -0.3710   -0.7130   -0.3160 C   0  0  0  0  0  0  0  0  0  0  0  0
   -5.3350   -0.9170   -1.1050 C   0  0  0  0  0  0  0  0  0  0  0  0
   -6.2550    0.0980   -0.7700 O   0  0  0  0  0  0  0  0  0  0  0  0
   -5.6200    1.1700   -0.1960 C   0  0  0  0  0  0  0  0  0  0  0  0
   -6.1160    2.2710    0.2320 O   0  0  0  0  0  0  0  0  0  0  0  0
    3.1270    0.3730   -0.0520 C   0  0  0  0  0  0  0  0  0  0  0  0
  1  2  1  0
  2  3  2  0
  2 21  1  0
  3  4  1  0
  4  5  2  0
  5  6  1  0
  6  7  1  0
  6 21  2  0
  7  8  2  0
  7 16  1  0
  8  9  1  0
  9 10  2  0
 10 11  1  0
 10 15  1  0
 11 12  2  0
 12 13  1  0
 12 19  1  0
 13 14  2  0
 13 17  1  0
 14 15  1  0
 15 16  2  0
 17 18  1  0
 18 19  1  0
 19 20  2  0
M  END
