
     RDKit          3D

 21 24  0  0  0  0  0  0  0  0999 V2000
    5.8720    0.7580   -0.5970 C   0  0  0  0  0  0  0  0  0  0  0  0
    5.3130    0.6690    0.8060 C   0  0  0  0  0  0  0  0  0  0  0  0
    3.8030    0.5590    0.8030 C   0  0  0  0  0  0  0  0  0  0  0  0
    3.3230   -0.6560    0.0670 C   0  0  0  0  0  0  0  0  0  0  0  0
    1.8270   -0.6480    0.1370 C   0  0  0  0  0  0  0  0  0  0  0  0
    1.0880   -1.5980    0.6820 C   0  0  0  0  0  0  0  0  0  0  0  0
   -0.3130   -1.2720    0.5770 C   0  0  0  0  0  0  0  0  0  0  0  0
   -1.4490   -1.9640    1.0030 C   0  0  0  0  0  0  0  0  0  0  0  0
   -2.7050   -1.4400    0.7850 C   0  0  0  0  0  0  0  0  0  0  0  0
   -2.8110   -0.2260    0.1410 C   0  0  0  0  0  0  0  0  0  0  0  0
   -4.0640    0.3040   -0.0800 C   0  0  0  0  0  0  0  0  0  0  0  0
   -4.1720    1.5260   -0.7280 C   0  0  0  0  0  0  0  0  0  0  0  0
   -5.5280    2.0870   -0.9610 C   0  0  0  0  0  0  0  0  0  0  0  0
   -3.0330    2.2050   -1.1470 C   0  0  0  0  0  0  0  0  0  0  0  0
   -1.7690    1.6650   -0.9210 C   0  0  0  0  0  0  0  0  0  0  0  0
   -1.6850    0.4520   -0.2770 C   0  0  0  0  0  0  0  0  0  0  0  0
   -0.3990   -0.0580   -0.0680 C   0  0  0  0  0  0  0  0  0  0  0  0
    0.9570    0.4390   -0.4000 C   0  0  0  0  0  0  0  0  0  0  0  0
   -3.6390   -2.3360    1.3100 O   0  0  0  0  0  0  0  0  0  0  0  0
   -2.9950   -3.5610    1.6110 C   0  0  0  0  0  0  0  0  0  0  0  0
   -1.6330   -3.1760    1.6600 O   0  0  0  0  0  0  0  0  0  0  0  0
  1  2  1  0
  2  3  1  0
  3  4  1  0
  4  5  1  0
  5  6  2  0
  5 18  1  0
  6  7  1  0
  7  8  2  0
  7 17  1  0
  8  9  1  0
  8 21  1  0
  9 10  2  0
  9 19  1  0
 10 11  1  0
 10 16  1  0
 11 12  2  0
 12 13  1  0
 12 14  1  0
 14 15  2  0
 15 16  1  0
 16 17  2  0
 17 18  1  0
 19 20  1  0
 20 21  1  0
M  END
