
     RDKit          3D

 21 24  0  0  0  0  0  0  0  0999 V2000
   -6.4950    0.1340   -0.6080 C   0  0  0  0  0  0  0  0  0  0  0  0
   -5.0490   -0.1390   -0.3450 C   0  0  0  0  0  0  0  0  0  0  0  0
   -4.4530   -1.3320   -0.7150 C   0  0  0  0  0  0  0  0  0  0  0  0
   -3.1210   -1.5750   -0.4700 C   0  0  0  0  0  0  0  0  0  0  0  0
   -2.3240   -0.6330    0.1590 C   0  0  0  0  0  0  0  0  0  0  0  0
   -0.9240   -0.9020    0.4510 C   0  0  0  0  0  0  0  0  0  0  0  0
    0.0600   -0.0720    0.1820 C   0  0  0  0  0  0  0  0  0  0  0  0
   -0.0880    1.2690   -0.4670 C   0  0  0  0  0  0  0  0  0  0  0  0
    1.2630    1.3720   -1.1050 C   0  0  0  0  0  0  0  0  0  0  0  0
    1.5110    2.0380   -2.1220 O   0  0  0  0  0  0  0  0  0  0  0  0
    2.1860    0.5720   -0.3270 C   0  0  0  0  0  0  0  0  0  0  0  0
    1.4750   -0.3050    0.4580 C   0  0  0  0  0  0  0  0  0  0  0  0
    2.1380   -1.1900    1.2980 C   0  0  0  0  0  0  0  0  0  0  0  0
    3.5040   -1.1930    1.3480 C   0  0  0  0  0  0  0  0  0  0  0  0
    4.2650   -0.3300    0.5750 C   0  0  0  0  0  0  0  0  0  0  0  0
    3.5960    0.5380   -0.2510 C   0  0  0  0  0  0  0  0  0  0  0  0
    4.5040    1.3190   -0.9470 O   0  0  0  0  0  0  0  0  0  0  0  0
    5.8230    0.9030   -0.6670 C   0  0  0  0  0  0  0  0  0  0  0  0
    5.7240   -0.1140    0.4230 C   0  0  0  0  0  0  0  0  0  0  0  0
   -2.9210    0.5640    0.5300 C   0  0  0  0  0  0  0  0  0  0  0  0
   -4.2730    0.8180    0.2840 C   0  0  0  0  0  0  0  0  0  0  0  0
  1  2  1  0
  2  3  2  0
  2 21  1  0
  3  4  1  0
  4  5  2  0
  5  6  1  0
  5 20  1  0
  6  7  2  3
  7  8  1  0
  7 12  1  0
  8  9  1  0
  9 10  2  0
  9 11  1  0
 11 12  2  0
 11 16  1  0
 12 13  1  0
 13 14  2  0
 14 15  1  0
 15 16  2  0
 15 19  1  0
 16 17  1  0
 17 18  1  0
 18 19  1  0
 20 21  2  0
M  END
