
     RDKit          3D

 21 24  0  0  0  0  0  0  0  0999 V2000
    6.0090    1.0510   -0.4340 C   0  0  0  0  0  0  0  0  0  0  0  0
    5.1960    2.0330   -0.9610 C   0  0  0  0  0  0  0  0  0  0  0  0
    3.8440    1.8840   -0.8710 C   0  0  0  0  0  0  0  0  0  0  0  0
    3.2820    0.7550   -0.2560 C   0  0  0  0  0  0  0  0  0  0  0  0
    1.9180    0.6320   -0.1800 C   0  0  0  0  0  0  0  0  0  0  0  0
    1.3510   -0.4600    0.4160 C   0  0  0  0  0  0  0  0  0  0  0  0
   -0.1160   -0.6160    0.5110 C   0  0  0  0  0  0  0  0  0  0  0  0
   -0.6730   -1.2840    1.5750 C   0  0  0  0  0  0  0  0  0  0  0  0
   -2.0420   -1.4560    1.7100 C   0  0  0  0  0  0  0  0  0  0  0  0
   -2.8770   -0.9380    0.7410 C   0  0  0  0  0  0  0  0  0  0  0  0
   -2.3180   -0.2660   -0.3280 C   0  0  0  0  0  0  0  0  0  0  0  0
   -0.9530   -0.1020   -0.4510 C   0  0  0  0  0  0  0  0  0  0  0  0
   -3.0580    0.2960   -1.3590 O   0  0  0  0  0  0  0  0  0  0  0  0
   -4.3110    0.9480   -1.3960 C   0  0  0  0  0  0  0  0  0  0  0  0
   -5.2520    0.5900   -0.3130 C   0  0  0  0  0  0  0  0  0  0  0  0
   -5.2780   -0.8290    0.1240 C   0  0  0  0  0  0  0  0  0  0  0  0
   -4.2330   -1.1850    1.0060 O   0  0  0  0  0  0  0  0  0  0  0  0
    2.1880   -1.4320    0.9360 C   0  0  0  0  0  0  0  0  0  0  0  0
    3.5550   -1.3340    0.8730 C   0  0  0  0  0  0  0  0  0  0  0  0
    4.0990   -0.2250    0.2690 C   0  0  0  0  0  0  0  0  0  0  0  0
    5.4600   -0.0560    0.1690 C   0  0  0  0  0  0  0  0  0  0  0  0
  1  2  2  0
  1 21  1  0
  2  3  1  0
  3  4  2  0
  4  5  1  0
  4 20  1  0
  5  6  2  0
  6  7  1  0
  6 18  1  0
  7  8  2  0
  7 12  1  0
  8  9  1  0
  9 10  2  0
 10 11  1  0
 10 17  1  0
 11 12  2  0
 11 13  1  0
 13 14  1  0
 14 15  1  0
 15 16  1  0
 16 17  1  0
 18 19  2  0
 19 20  1  0
 20 21  2  0
M  END
