
     RDKit          3D

 26 27  0  0  0  0  0  0  0  0999 V2000
   -4.3570    3.0820    0.7590 C   0  0  0  0  0  0  0  0  0  0  0  0
   -4.6380    1.8100    1.4970 C   0  0  0  0  0  0  0  0  0  0  0  0
   -3.9260    0.7410    1.4320 C   0  0  0  0  0  0  0  0  0  0  0  0
   -4.3050   -0.4820    2.2360 C   0  0  0  0  0  0  0  0  0  0  0  0
   -4.5410   -1.5930    1.4090 O   0  0  0  0  0  0  0  0  0  0  0  0
   -2.8490    0.5350    0.4830 C   0  0  0  0  0  0  0  0  0  0  0  0
   -1.4810    0.5430    0.7590 C   0  0  0  0  0  0  0  0  0  0  0  0
   -0.5380    0.1180   -0.1710 C   0  0  0  0  0  0  0  0  0  0  0  0
    0.9010    0.3650   -0.1110 C   0  0  0  0  0  0  0  0  0  0  0  0
    1.7500   -0.2080    0.8350 N   0  0  0  0  0  0  0  0  0  0  0  0
    2.8270   -0.8860    0.0540 C   0  0  1  0  0  0  0  0  0  0  0  0
    3.3020   -0.0950   -1.1120 C   0  0  0  0  0  0  0  0  0  0  0  0
    4.0330    1.1530   -0.7250 C   0  0  0  0  0  0  0  0  0  0  0  0
    3.4520    1.9380    0.2450 O   0  0  0  0  0  0  0  0  0  0  0  0
    4.4330    2.9220    0.5520 C   0  0  0  0  0  0  0  0  0  0  0  0
    4.0320   -0.9020    1.0210 C   0  0  0  0  0  0  0  0  0  0  0  0
    4.3850   -2.3660    1.0590 C   0  0  0  0  0  0  0  0  0  0  0  0
    3.2020   -3.0340    0.7940 O   0  0  0  0  0  0  0  0  0  0  0  0
    2.6210   -2.2800   -0.2420 C   0  0  0  0  0  0  0  0  0  0  0  0
   -1.0210   -0.3370   -1.4170 C   0  0  0  0  0  0  0  0  0  0  0  0
   -0.2120   -0.8270   -2.4230 O   0  0  0  0  0  0  0  0  0  0  0  0
   -2.3500   -0.3400   -1.6630 C   0  0  0  0  0  0  0  0  0  0  0  0
   -2.7660   -0.8580   -2.9530 O   0  0  0  0  0  0  0  0  0  0  0  0
   -2.9010   -2.3150   -2.7600 C   0  0  0  0  0  0  0  0  0  0  0  0
   -3.2610    0.0900   -0.7520 C   0  0  0  0  0  0  0  0  0  0  0  0
   -4.6430    0.1360   -1.1010 N   0  0  0  0  0  0  0  0  0  0  0  0
  1  2  1  0
  2  3  2  3
  3  4  1  0
  3  6  1  0
  4  5  1  0
  6  7  2  0
  6 25  1  0
  7  8  1  0
  8  9  1  0
  8 20  2  0
  9 10  1  0
 10 11  1  0
 11 12  1  6
 11 16  1  0
 11 19  1  0
 12 13  1  0
 13 14  1  0
 14 15  1  0
 16 17  1  0
 17 18  1  0
 18 19  1  0
 20 21  1  0
 20 22  1  0
 22 23  1  0
 22 25  2  0
 23 24  1  0
 25 26  1  0
M  CHG  1  10   1
M  END
