
     RDKit          3D

 26 27  0  0  0  0  0  0  0  0999 V2000
   -4.4990   -5.0730    0.3060 C   0  0  0  0  0  0  0  0  0  0  0  0
   -3.3010   -4.3290    0.1980 O   0  0  0  0  0  0  0  0  0  0  0  0
   -3.3480   -2.9450    0.2610 C   0  0  0  0  0  0  0  0  0  0  0  0
   -4.5480   -2.2790    0.4270 C   0  0  0  0  0  0  0  0  0  0  0  0
   -4.6420   -0.9200    0.4950 C   0  0  0  0  0  0  0  0  0  0  0  0
   -3.4490   -0.1290    0.3900 C   0  0  0  0  0  0  0  0  0  0  0  0
   -3.6250    1.1600    0.4650 O   0  0  0  0  0  0  0  0  0  0  0  0
   -3.0640    2.3480    0.4630 C   0  0  2  0  0  0  0  0  0  0  0  0
   -3.3960    3.2140    1.7010 C   0  0  0  0  0  0  0  0  0  0  0  0
   -3.4750    3.2390   -0.7390 C   0  0  0  0  0  0  0  0  0  0  0  0
   -4.8540    3.4450   -0.7340 O   0  0  0  0  0  0  0  0  0  0  0  0
   -2.2540   -0.7720    0.2240 C   0  0  0  0  0  0  0  0  0  0  0  0
   -1.0010   -0.0340    0.0930 C   0  0  0  0  0  0  0  0  0  0  0  0
    0.1080   -0.9580   -0.0600 O   0  0  0  0  0  0  0  0  0  0  0  0
    1.4290   -0.4090   -0.2030 C   0  0  0  0  0  0  0  0  0  0  0  0
    1.4180    0.8230   -0.1730 O   0  0  0  0  0  0  0  0  0  0  0  0
    2.5420   -1.2910   -0.3560 C   0  0  0  0  0  0  0  0  0  0  0  0
    3.7990   -1.1370   -0.5000 C   0  0  0  0  0  0  0  0  0  0  0  0
    4.7520   -0.0800   -0.5840 C   0  0  0  0  0  0  0  0  0  0  0  0
    4.5300    1.2630   -0.5020 C   0  0  0  0  0  0  0  0  0  0  0  0
    5.5850    2.1640   -0.6130 C   0  0  0  0  0  0  0  0  0  0  0  0
    6.8300    1.7830   -0.8000 N   0  0  0  0  0  0  0  0  0  0  0  0
    7.0990    0.4880   -0.8870 C   0  0  0  0  0  0  0  0  0  0  0  0
    8.4640    0.1030   -1.0910 N   0  0  0  0  0  0  0  0  0  0  0  0
    6.0980   -0.4420   -0.7850 C   0  0  0  0  0  0  0  0  0  0  0  0
   -2.2200   -2.1720    0.1620 C   0  0  0  0  0  0  0  0  0  0  0  0
  1  2  1  0
  2  3  1  0
  3  4  2  0
  3 26  1  0
  4  5  1  0
  5  6  2  0
  6  7  1  0
  6 12  1  0
  7  8  1  0
  8  9  1  1
  8 10  1  0
 10 11  1  0
 12 13  1  0
 12 26  2  0
 13 14  1  0
 14 15  1  0
 15 16  2  0
 15 17  1  0
 17 18  2  3
 18 19  1  0
 19 20  2  0
 19 25  1  0
 20 21  1  0
 21 22  2  0
 22 23  1  0
 23 24  1  0
 23 25  2  0
M  CHG  1  22   1
M  END
