
     RDKit          3D

 25 26  0  0  0  0  0  0  0  0999 V2000
    1.8670   -0.2160    1.4550 C   0  0  0  0  0  0  0  0  0  0  0  0
    2.0540    1.0670    0.7380 C   0  0  1  0  0  0  0  0  0  0  0  0
    2.8400    1.0630   -0.4960 C   0  0  0  0  0  0  0  0  0  0  0  0
    4.2660    0.6760   -0.4290 C   0  0  0  0  0  0  0  0  0  0  0  0
    4.5140   -0.6910    0.0590 C   0  0  0  0  0  0  0  0  0  0  0  0
    6.0060   -1.0480    0.0350 C   0  0  2  0  0  0  0  0  0  0  0  0
    6.2120   -2.4580    0.5440 C   0  0  0  0  0  0  0  0  0  0  0  0
    6.8200   -0.0940    0.8370 C   0  0  0  0  0  0  0  0  0  0  0  0
    6.4160   -1.0200   -1.2950 O   0  0  0  0  0  0  0  0  0  0  0  0
    0.7450    1.7200    0.4710 N   0  0  0  0  0  0  0  0  0  0  0  0
   -0.0140    0.8380   -0.3520 C   0  0  0  0  0  0  0  0  0  0  0  0
   -1.5000    1.0940   -0.3650 C   0  0  0  0  0  0  0  0  0  0  0  0
   -2.1360    0.9760    0.9730 C   0  0  0  0  0  0  0  0  0  0  0  0
   -3.5000    1.2000    0.9790 O   0  0  0  0  0  0  0  0  0  0  0  0
   -4.5250    0.5360    0.4010 C   0  0  0  0  0  0  0  0  0  0  0  0
   -4.4100   -0.6030   -0.3530 C   0  0  0  0  0  0  0  0  0  0  0  0
   -5.5620   -1.1940   -0.8940 C   0  0  0  0  0  0  0  0  0  0  0  0
   -6.8220   -0.6980   -0.7150 C   0  0  0  0  0  0  0  0  0  0  0  0
   -6.9340    0.4590    0.0510 C   0  0  0  0  0  0  0  0  0  0  0  0
   -5.8130    1.0500    0.5890 C   0  0  0  0  0  0  0  0  0  0  0  0
   -5.9290    2.2270    1.3680 N   0  0  0  0  0  0  0  0  0  0  0  0
   -7.8120   -1.5480   -1.4120 C   0  0  0  0  0  0  0  0  0  0  0  0
   -7.0600   -2.5660   -2.0060 O   0  0  0  0  0  0  0  0  0  0  0  0
   -5.7240   -2.3820   -1.7160 C   0  0  0  0  0  0  0  0  0  0  0  0
   -4.7540   -3.1090   -2.0860 O   0  0  0  0  0  0  0  0  0  0  0  0
  2  1  1  6
  2  3  1  0
  2 10  1  0
  3  4  1  0
  4  5  1  0
  5  6  1  0
  6  7  1  1
  6  8  1  0
  6  9  1  0
 10 11  1  0
 11 12  1  0
 12 13  1  0
 13 14  1  0
 14 15  1  0
 15 16  2  0
 15 20  1  0
 16 17  1  0
 17 18  2  0
 17 24  1  0
 18 19  1  0
 18 22  1  0
 19 20  2  0
 20 21  1  0
 22 23  1  0
 23 24  1  0
 24 25  2  0
M  CHG  1  10   1
M  END
