
     RDKit          3D

 26 27  0  0  0  0  0  0  0  0999 V2000
    9.3680    1.5620    0.5930 C   0  0  0  0  0  0  0  0  0  0  0  0
    8.1490    2.1040    0.1720 O   0  0  0  0  0  0  0  0  0  0  0  0
    6.9910    1.3190    0.3350 C   0  0  0  0  0  0  0  0  0  0  0  0
    7.0720    0.0610    0.8930 C   0  0  0  0  0  0  0  0  0  0  0  0
    5.9240   -0.7100    1.0510 C   0  0  0  0  0  0  0  0  0  0  0  0
    4.6860   -0.2550    0.6610 C   0  0  0  0  0  0  0  0  0  0  0  0
    3.5680   -1.0380    0.8280 O   0  0  0  0  0  0  0  0  0  0  0  0
    2.3120   -0.4780    0.3900 C   0  0  0  0  0  0  0  0  0  0  0  0
    1.1900   -1.4280    0.6210 C   0  0  0  0  0  0  0  0  0  0  0  0
   -0.1110   -0.7850    0.1590 C   0  0  1  0  0  0  0  0  0  0  0  0
   -0.0230   -0.4770   -1.2280 N   0  0  0  0  0  0  0  0  0  0  0  0
   -1.2850   -1.6360    0.4960 C   0  0  1  0  0  0  0  0  0  0  0  0
   -1.3710   -1.8480    2.0240 C   0  0  0  0  0  0  0  0  0  0  0  0
   -2.5450   -1.3860    0.0020 N   0  0  0  0  0  0  0  0  0  0  0  0
   -2.9170   -1.4980   -1.3340 C   0  0  0  0  0  0  0  0  0  0  0  0
   -3.6730   -0.3200   -1.8970 C   0  0  0  0  0  0  0  0  0  0  0  0
   -3.9140    0.6640   -0.9820 O   0  0  0  0  0  0  0  0  0  0  0  0
   -4.2910    0.2870    0.2680 C   0  0  1  0  0  0  0  0  0  0  0  0
   -5.7740    0.0860    0.3360 C   0  0  0  0  0  0  0  0  0  0  0  0
   -6.5670    1.3130    0.0340 C   0  0  0  0  0  0  0  0  0  0  0  0
   -6.3700    1.8910   -1.3360 C   0  0  0  0  0  0  0  0  0  0  0  0
   -6.7250    0.9600   -2.3190 O   0  0  0  0  0  0  0  0  0  0  0  0
   -3.5220   -0.8380    0.8870 C   0  0  0  0  0  0  0  0  0  0  0  0
    4.6470    1.0060    0.1080 C   0  0  0  0  0  0  0  0  0  0  0  0
    5.7610    1.7840   -0.0570 C   0  0  0  0  0  0  0  0  0  0  0  0
    5.6580    3.0340   -0.6150 O   0  0  0  0  0  0  0  0  0  0  0  0
  1  2  1  0
  2  3  1  0
  3  4  2  0
  3 25  1  0
  4  5  1  0
  5  6  2  0
  6  7  1  0
  6 24  1  0
  7  8  1  0
  8  9  1  0
  9 10  1  0
 10 11  1  6
 10 12  1  0
 12 13  1  1
 12 14  1  0
 14 15  1  0
 14 23  1  0
 15 16  1  0
 16 17  1  0
 17 18  1  0
 18 19  1  6
 18 23  1  0
 19 20  1  0
 20 21  1  0
 21 22  1  0
 24 25  2  0
 25 26  1  0
M  CHG  1  11   1
M  END
