
     RDKit          3D

 11 11  0  0  0  0  0  0  0  0999 V2000
    3.0940    0.7300   -0.2570 N   0  0  0  0  0  0  0  0  0  0  0  0
    2.2820   -0.3440   -0.6630 C   0  0  0  0  0  0  0  0  0  0  0  0
    0.8370   -0.1690   -0.4620 C   0  0  0  0  0  0  0  0  0  0  0  0
    0.0190   -1.2260   -0.8600 C   0  0  0  0  0  0  0  0  0  0  0  0
   -1.3450   -1.1350   -0.7030 C   0  0  0  0  0  0  0  0  0  0  0  0
   -1.9430   -0.0120   -0.1570 C   0  0  0  0  0  0  0  0  0  0  0  0
   -3.3580    0.0110   -0.0260 N   0  0  0  0  0  0  0  0  0  0  0  0
   -4.0620   -0.9430   -0.3880 O   0  0  0  0  0  0  0  0  0  0  0  0
   -3.9570    1.1180    0.5140 O   0  0  0  0  0  0  0  0  0  0  0  0
   -1.1480    1.0400    0.2400 C   0  0  0  0  0  0  0  0  0  0  0  0
    0.2280    0.9220    0.0710 C   0  0  0  0  0  0  0  0  0  0  0  0
  1  2  1  0
  2  3  1  0
  3  4  2  0
  3 11  1  0
  4  5  1  0
  5  6  2  0
  6  7  1  0
  6 10  1  0
  7  8  2  0
  7  9  1  0
 10 11  2  0
M  CHG  2   7   1   9  -1
M  END
