
     RDKit          3D

 26 27  0  0  0  0  0  0  0  0999 V2000
   -1.7940    4.4400   -1.8940 C   0  0  0  0  0  0  0  0  0  0  0  0
   -1.0430    4.9350   -0.6540 C   0  0  0  0  0  0  0  0  0  0  0  0
   -1.6120    4.2020    0.5340 C   0  0  0  0  0  0  0  0  0  0  0  0
   -1.4630    2.8620    0.4310 O   0  0  0  0  0  0  0  0  0  0  0  0
   -0.4670    1.9600    0.3760 C   0  0  0  0  0  0  0  0  0  0  0  0
    0.8600    2.3240    0.4540 C   0  0  0  0  0  0  0  0  0  0  0  0
    1.8520    1.3320    0.3930 C   0  0  0  0  0  0  0  0  0  0  0  0
    1.5490    0.0080    0.2610 C   0  0  0  0  0  0  0  0  0  0  0  0
    2.4430   -1.0220    0.2000 O   0  0  0  0  0  0  0  0  0  0  0  0
    3.8210   -0.9890    0.2910 C   0  0  0  0  0  0  0  0  0  0  0  0
    4.2710   -0.5490    1.6410 C   0  0  1  0  0  0  0  0  0  0  0  0
    3.6950   -1.4570    2.6110 O   0  0  0  0  0  0  0  0  0  0  0  0
    5.7430   -0.6690    1.8590 C   0  0  0  0  0  0  0  0  0  0  0  0
    6.6670    0.0870    0.9930 C   0  0  0  0  0  0  0  0  0  0  0  0
    6.6940   -0.2290   -0.4030 N   0  0  0  0  0  0  0  0  0  0  0  0
    0.1690   -0.3220    0.1860 C   0  0  0  0  0  0  0  0  0  0  0  0
   -0.8230    0.6040    0.2390 C   0  0  0  0  0  0  0  0  0  0  0  0
   -2.1920    0.3050    0.1670 N   0  0  0  0  0  0  0  0  0  0  0  0
   -2.7590   -0.9850    0.0300 C   0  0  0  0  0  0  0  0  0  0  0  0
   -2.0490   -1.9900   -0.0390 O   0  0  0  0  0  0  0  0  0  0  0  0
   -4.2370   -1.1130   -0.0310 C   0  0  0  0  0  0  0  0  0  0  0  0
   -4.6660   -2.5460   -0.1850 C   0  0  2  0  0  0  0  0  0  0  0  0
   -4.1570   -3.2170   -1.4170 C   0  0  0  0  0  0  0  0  0  0  0  0
   -5.0750   -4.4480   -1.4480 C   0  0  0  0  0  0  0  0  0  0  0  0
   -6.3070   -3.9190   -0.7850 C   0  0  0  0  0  0  0  0  0  0  0  0
   -6.0510   -2.6400   -0.3580 O   0  0  0  0  0  0  0  0  0  0  0  0
  1  2  1  0
  2  3  1  0
  3  4  1  0
  4  5  1  0
  5  6  2  0
  5 17  1  0
  6  7  1  0
  7  8  2  0
  8  9  1  0
  8 16  1  0
  9 10  1  0
 10 11  1  0
 11 12  1  1
 11 13  1  0
 13 14  1  0
 14 15  1  0
 16 17  2  0
 17 18  1  0
 18 19  1  0
 19 20  2  0
 19 21  1  0
 22 21  1  6
 22 23  1  0
 22 26  1  0
 23 24  1  0
 24 25  1  0
 25 26  1  0
M  CHG  1  15   1
M  END
