
     RDKit          3D

 26 27  0  0  0  0  0  0  0  0999 V2000
    9.7760    1.6160    1.0890 C   0  0  0  0  0  0  0  0  0  0  0  0
    9.3750    0.7520    0.0360 O   0  0  0  0  0  0  0  0  0  0  0  0
    8.0190    0.4560   -0.0910 C   0  0  0  0  0  0  0  0  0  0  0  0
    7.5700   -0.3770   -1.0950 C   0  0  0  0  0  0  0  0  0  0  0  0
    6.2200   -0.6910   -1.2460 C   0  0  0  0  0  0  0  0  0  0  0  0
    5.2810   -0.1670   -0.3810 C   0  0  0  0  0  0  0  0  0  0  0  0
    3.9530   -0.5050   -0.5670 O   0  0  0  0  0  0  0  0  0  0  0  0
    2.9270   -0.0120    0.2750 C   0  0  0  0  0  0  0  0  0  0  0  0
    1.6470   -0.5580   -0.1930 C   0  0  0  0  0  0  0  0  0  0  0  0
    1.5620   -1.3220   -1.1760 O   0  0  0  0  0  0  0  0  0  0  0  0
    0.4560   -0.1910    0.5160 N   0  0  0  0  0  0  0  0  0  0  0  0
   -0.8230   -0.6850    0.1160 C   0  0  0  0  0  0  0  0  0  0  0  0
   -0.8240   -1.4500   -0.8840 O   0  0  0  0  0  0  0  0  0  0  0  0
   -2.0330   -0.2940    0.8590 C   0  0  0  0  0  0  0  0  0  0  0  0
   -3.2870   -0.8850    0.3140 C   0  0  2  0  0  0  0  0  0  0  0  0
   -3.2950   -2.3250    0.3170 N   0  0  0  0  0  0  0  0  0  0  0  0
   -3.5740   -0.3800   -1.0650 C   0  0  0  0  0  0  0  0  0  0  0  0
   -4.8350   -0.8050   -1.5480 O   0  0  0  0  0  0  0  0  0  0  0  0
   -5.9790   -0.4430   -0.8500 C   0  0  0  0  0  0  0  0  0  0  0  0
   -6.8000   -1.2780   -0.2750 C   0  0  0  0  0  0  0  0  0  0  0  0
   -7.8900   -0.5070    0.3610 C   0  0  0  0  0  0  0  0  0  0  0  0
   -7.5600    0.8980    0.0570 C   0  0  0  0  0  0  0  0  0  0  0  0
   -6.4530    0.9160   -0.6420 C   0  0  0  0  0  0  0  0  0  0  0  0
   -5.8060    2.1730   -1.1360 C   0  0  0  0  0  0  0  0  0  0  0  0
    5.7310    0.6630    0.6200 C   0  0  0  0  0  0  0  0  0  0  0  0
    7.0710    0.9740    0.7680 C   0  0  0  0  0  0  0  0  0  0  0  0
  1  2  1  0
  2  3  1  0
  3  4  2  0
  3 26  1  0
  4  5  1  0
  5  6  2  0
  6  7  1  0
  6 25  1  0
  7  8  1  0
  8  9  1  0
  9 10  2  0
  9 11  1  0
 11 12  1  0
 12 13  2  0
 12 14  1  0
 14 15  1  0
 15 16  1  6
 15 17  1  0
 17 18  1  0
 18 19  1  0
 19 20  2  0
 19 23  1  0
 20 21  1  0
 21 22  1  0
 22 23  2  0
 23 24  1  0
 25 26  2  0
M  CHG  1  16   1
M  END
