
     RDKit          3D

 19 20  0  0  0  0  0  0  0  0999 V2000
    5.4040   -0.2370    1.2670 C   0  0  0  0  0  0  0  0  0  0  0  0
    4.1020   -0.1980    0.7560 O   0  0  0  0  0  0  0  0  0  0  0  0
    3.7880   -0.3960   -0.5690 C   0  0  0  0  0  0  0  0  0  0  0  0
    4.7620   -0.6250   -1.3420 O   0  0  0  0  0  0  0  0  0  0  0  0
    2.4250   -0.3420   -1.0260 C   0  0  0  0  0  0  0  0  0  0  0  0
    1.9250   -0.5140   -2.2790 C   0  0  0  0  0  0  0  0  0  0  0  0
    0.6020   -0.3820   -2.2540 N   0  0  0  0  0  0  0  0  0  0  0  0
    0.1750   -0.1150   -0.9550 C   0  0  0  0  0  0  0  0  0  0  0  0
   -1.2300    0.1190   -0.6710 C   0  0  0  0  0  0  0  0  0  0  0  0
   -2.0320    0.7250   -1.6610 C   0  0  0  0  0  0  0  0  0  0  0  0
   -3.3750    0.9150   -1.5480 C   0  0  0  0  0  0  0  0  0  0  0  0
   -4.0290    0.5020   -0.4070 C   0  0  0  0  0  0  0  0  0  0  0  0
   -5.3940    0.6720   -0.2410 O   0  0  0  0  0  0  0  0  0  0  0  0
   -3.2980   -0.0980    0.5910 C   0  0  0  0  0  0  0  0  0  0  0  0
   -3.9990   -0.5450    1.8220 C   0  0  0  0  0  0  0  0  0  0  0  0
   -1.9030   -0.2830    0.4450 C   0  0  0  0  0  0  0  0  0  0  0  0
    1.2960   -0.0860   -0.1970 C   0  0  0  0  0  0  0  0  0  0  0  0
    1.4680    0.2200    1.2350 C   0  0  0  0  0  0  0  0  0  0  0  0
    0.3620    0.5260    1.9500 O   0  0  0  0  0  0  0  0  0  0  0  0
  1  2  1  0
  2  3  1  0
  3  4  2  0
  3  5  1  0
  5  6  2  0
  5 17  1  0
  6  7  1  0
  7  8  1  0
  8  9  1  0
  8 17  2  0
  9 10  2  0
  9 16  1  0
 10 11  1  0
 11 12  2  0
 12 13  1  0
 12 14  1  0
 14 15  1  0
 14 16  2  0
 17 18  1  0
 18 19  1  0
M  END
