
     RDKit          3D

 19 20  0  0  0  0  0  0  0  0999 V2000
   -2.9270    3.0500   -0.6530 C   0  0  0  0  0  0  0  0  0  0  0  0
   -2.1460    1.9560   -0.4460 O   0  0  0  0  0  0  0  0  0  0  0  0
   -2.5770    0.6570   -0.3620 C   0  0  0  0  0  0  0  0  0  0  0  0
   -3.9000    0.2980   -0.5190 C   0  0  0  0  0  0  0  0  0  0  0  0
   -4.2870   -1.0350   -0.4380 C   0  0  0  0  0  0  0  0  0  0  0  0
   -3.3170   -1.9660   -0.1860 C   0  0  0  0  0  0  0  0  0  0  0  0
   -3.7340   -3.3000   -0.1190 O   0  0  0  0  0  0  0  0  0  0  0  0
   -1.9980   -1.6360   -0.0170 C   0  0  0  0  0  0  0  0  0  0  0  0
   -1.5940   -0.2760   -0.1130 C   0  0  0  0  0  0  0  0  0  0  0  0
   -0.1680    0.0880   -0.2890 C   0  0  0  0  0  0  0  0  0  0  0  0
    0.7250   -0.2140    0.6650 O   0  0  0  0  0  0  0  0  0  0  0  0
    2.1160   -0.1340    0.4600 C   0  0  0  0  0  0  0  0  0  0  0  0
    2.6800    0.0410   -0.7570 C   0  0  0  0  0  0  0  0  0  0  0  0
    4.0520    0.0790   -0.9620 C   0  0  0  0  0  0  0  0  0  0  0  0
    4.6170    0.2420   -2.2510 O   0  0  0  0  0  0  0  0  0  0  0  0
    4.9080   -0.0570    0.1180 C   0  0  0  0  0  0  0  0  0  0  0  0
    4.3360   -0.2220    1.3560 C   0  0  0  0  0  0  0  0  0  0  0  0
    2.9790   -0.2650    1.5570 C   0  0  0  0  0  0  0  0  0  0  0  0
    2.4690   -0.3190    2.8720 N   0  0  0  0  0  0  0  0  0  0  0  0
  1  2  1  0
  2  3  1  0
  3  4  2  0
  3  9  1  0
  4  5  1  0
  5  6  2  0
  6  7  1  0
  6  8  1  0
  8  9  2  0
  9 10  1  0
 10 11  1  0
 11 12  1  0
 12 13  2  0
 12 18  1  0
 13 14  1  0
 14 15  1  0
 14 16  2  0
 16 17  1  0
 17 18  2  0
 18 19  1  0
M  END
