
     RDKit          3D

 19 20  0  0  0  0  0  0  0  0999 V2000
   -3.6610    0.6520   -2.8130 C   0  0  0  0  0  0  0  0  0  0  0  0
   -4.3030    0.3210   -1.5960 O   0  0  0  0  0  0  0  0  0  0  0  0
   -3.5490    0.0250   -0.4630 C   0  0  0  0  0  0  0  0  0  0  0  0
   -2.1490    0.0510   -0.5140 C   0  0  0  0  0  0  0  0  0  0  0  0
   -1.3730   -0.2390    0.5980 C   0  0  0  0  0  0  0  0  0  0  0  0
    0.0700   -0.2250    0.5910 C   0  0  0  0  0  0  0  0  0  0  0  0
    0.8110    0.0610   -0.4520 C   0  0  0  0  0  0  0  0  0  0  0  0
    2.2700    0.0500   -0.3600 C   0  0  0  0  0  0  0  0  0  0  0  0
    3.0120   -0.2450    0.7650 C   0  0  0  0  0  0  0  0  0  0  0  0
    4.3580   -0.1500    0.4570 C   0  0  0  0  0  0  0  0  0  0  0  0
    4.3700    0.2060   -0.8750 C   0  0  0  0  0  0  0  0  0  0  0  0
    5.6320    0.4210   -1.6370 C   0  0  0  0  0  0  0  0  0  0  0  0
    5.3730    0.7720   -2.9570 O   0  0  0  0  0  0  0  0  0  0  0  0
    3.1380    0.3100   -1.3060 O   0  0  0  0  0  0  0  0  0  0  0  0
   -2.0410   -0.5560    1.7590 C   0  0  0  0  0  0  0  0  0  0  0  0
   -1.2730   -0.8580    2.9140 N   0  0  0  0  0  0  0  0  0  0  0  0
   -3.4310   -0.5900    1.8420 C   0  0  0  0  0  0  0  0  0  0  0  0
   -4.1720   -0.2970    0.7210 C   0  0  0  0  0  0  0  0  0  0  0  0
   -5.5600   -0.3110    0.7270 O   0  0  0  0  0  0  0  0  0  0  0  0
  1  2  1  0
  2  3  1  0
  3  4  2  0
  3 18  1  0
  4  5  1  0
  5  6  1  0
  5 15  2  0
  6  7  2  3
  7  8  1  0
  8  9  2  0
  8 14  1  0
  9 10  1  0
 10 11  2  0
 11 12  1  0
 11 14  1  0
 12 13  1  0
 15 16  1  0
 15 17  1  0
 17 18  2  0
 18 19  1  0
M  END
