
     RDKit          3D

 18 19  0  0  0  0  0  0  0  0999 V2000
   -5.1590   -2.4000    0.7730 O   0  0  0  0  0  0  0  0  0  0  0  0
   -3.9480   -2.9980    0.4270 C   0  0  0  0  0  0  0  0  0  0  0  0
   -2.8180   -2.0210    0.6800 C   0  0  0  0  0  0  0  0  0  0  0  0
   -2.0800   -1.6590   -0.2850 C   0  0  0  0  0  0  0  0  0  0  0  0
   -0.9400   -0.7130   -0.1880 C   0  0  0  0  0  0  0  0  0  0  0  0
   -0.2640   -0.4270   -1.2680 C   0  0  0  0  0  0  0  0  0  0  0  0
    0.8750    0.4280   -1.4740 C   0  0  0  0  0  0  0  0  0  0  0  0
    0.9280    1.4850   -2.3850 C   0  0  0  0  0  0  0  0  0  0  0  0
    2.1850    2.0190   -2.2620 C   0  0  0  0  0  0  0  0  0  0  0  0
    2.8690    1.3000   -1.3030 C   0  0  0  0  0  0  0  0  0  0  0  0
    4.2840    1.5840   -0.8850 C   0  0  0  0  0  0  0  0  0  0  0  0
    5.1630    0.9570   -1.7640 O   0  0  0  0  0  0  0  0  0  0  0  0
    2.0610    0.3800   -0.8700 O   0  0  0  0  0  0  0  0  0  0  0  0
   -0.6670   -0.0310    1.0590 C   0  0  0  0  0  0  0  0  0  0  0  0
    0.0610    1.1010    1.2770 C   0  0  0  0  0  0  0  0  0  0  0  0
    0.0470    1.3680    2.6540 C   0  0  0  0  0  0  0  0  0  0  0  0
   -0.7050    0.3620    3.2050 C   0  0  0  0  0  0  0  0  0  0  0  0
   -1.0860   -0.4070    2.2360 O   0  0  0  0  0  0  0  0  0  0  0  0
  1  2  1  0
  2  3  1  0
  3  4  2  3
  4  5  1  0
  5  6  2  3
  5 14  1  0
  6  7  1  0
  7  8  2  0
  7 13  1  0
  8  9  1  0
  9 10  2  0
 10 11  1  0
 10 13  1  0
 11 12  1  0
 14 15  2  0
 14 18  1  0
 15 16  1  0
 16 17  2  0
 17 18  1  0
M  END
