
     RDKit          3D

 10 10  0  0  0  0  0  0  0  0999 V2000
    3.7830   -0.1790    0.6790 C   0  0  0  0  0  0  0  0  0  0  0  0
    3.0280   -0.1680   -0.5020 O   0  0  0  0  0  0  0  0  0  0  0  0
    1.6430    0.0160   -0.4610 C   0  0  0  0  0  0  0  0  0  0  0  0
    0.8800    0.0310   -1.6070 C   0  0  0  0  0  0  0  0  0  0  0  0
   -0.4930    0.2130   -1.5740 C   0  0  0  0  0  0  0  0  0  0  0  0
   -1.0930    0.3820   -0.3440 C   0  0  0  0  0  0  0  0  0  0  0  0
   -2.5780    0.5840   -0.2430 C   0  0  0  0  0  0  0  0  0  0  0  0
   -3.1950   -0.7230   -0.1130 N   0  0  0  0  0  0  0  0  0  0  0  0
   -0.3430    0.3710    0.8270 C   0  0  0  0  0  0  0  0  0  0  0  0
    1.0220    0.1870    0.7580 C   0  0  0  0  0  0  0  0  0  0  0  0
  1  2  1  0
  2  3  1  0
  3  4  2  0
  3 10  1  0
  4  5  1  0
  5  6  2  0
  6  7  1  0
  6  9  1  0
  7  8  1  0
  9 10  2  0
M  CHG  1   8   1
M  END
