
     RDKit          3D

 30 30  0  0  0  0  0  0  0  0999 V2000
   -4.3880   -1.9920    1.5980 C   0  0  0  0  0  0  0  0  0  0  0  0
   -3.0220   -1.6830    1.0240 C   0  0  0  0  0  0  0  0  0  0  0  0
   -3.1780   -1.2900   -0.3900 C   0  0  2  0  0  0  0  0  0  0  0  0
   -4.0400   -0.0960   -0.4160 N   0  0  0  0  0  0  0  0  0  0  0  0
   -3.9790   -2.4140   -1.0710 C   0  0  0  0  0  0  0  0  0  0  0  0
   -3.2090   -3.5800   -1.0780 O   0  0  0  0  0  0  0  0  0  0  0  0
   -2.0210   -1.1000   -1.1750 N   0  0  0  0  0  0  0  0  0  0  0  0
   -1.2470   -0.1200   -0.9320 C   0  0  0  0  0  0  0  0  0  0  0  0
   -0.6200    0.9380   -0.3900 C   0  0  0  0  0  0  0  0  0  0  0  0
   -1.2890    2.4980   -0.8280 S   0  0  0  0  0  0  0  0  0  0  0  0
   -0.5380    3.9500   -0.1700 C   0  0  1  0  0  0  0  0  0  0  0  0
    0.7090    4.1730   -0.7350 O   0  0  0  0  0  0  0  0  0  0  0  0
   -1.4070    5.1590   -0.4230 C   0  0  0  0  0  0  0  0  0  0  0  0
   -0.9350    6.1400   -1.0630 O   0  0  0  0  0  0  0  0  0  0  0  0
   -2.7070    5.2400    0.0180 O   0  0  0  0  0  0  0  0  0  0  0  0
    0.4970    0.6050    0.4730 C   0  0  1  0  0  0  0  0  0  0  0  0
    0.3600    1.3570    1.6460 F   0  0  0  0  0  0  0  0  0  0  0  0
    0.4980   -0.8250    0.9050 C   0  0  0  0  0  0  0  0  0  0  0  0
    0.0680   -1.2250    2.0190 N   0  0  0  0  0  0  0  0  0  0  0  0
    1.0540   -1.7890   -0.0660 C   0  0  2  0  0  0  0  0  0  0  0  0
    0.7500   -3.1070    0.2630 O   0  0  0  0  0  0  0  0  0  0  0  0
    2.5390   -1.5310   -0.0640 C   0  0  0  0  0  0  0  0  0  0  0  0
    2.8790   -0.0990   -0.1080 C   0  0  1  0  0  0  0  0  0  0  0  0
    3.6420    0.0970   -1.2760 O   0  0  0  0  0  0  0  0  0  0  0  0
    4.9290    0.4860   -1.0620 C   0  0  0  0  0  0  0  0  0  0  0  0
    5.8030   -0.4500   -0.3030 C   0  0  0  0  0  0  0  0  0  0  0  0
    7.0730    0.1720   -0.2170 O   0  0  0  0  0  0  0  0  0  0  0  0
    1.7910    0.9170   -0.1640 C   0  0  1  0  0  0  0  0  0  0  0  0
    1.5550    1.3240   -1.4950 O   0  0  0  0  0  0  0  0  0  0  0  0
    2.3190    2.0560    0.4740 F   0  0  0  0  0  0  0  0  0  0  0  0
  1  2  1  0
  2  3  1  0
  3  4  1  1
  3  5  1  0
  3  7  1  0
  5  6  1  0
  7  8  2  0
  8  9  2  0
  9 10  1  0
  9 16  1  0
 10 11  1  0
 11 12  1  6
 11 13  1  0
 13 14  2  0
 13 15  1  0
 16 17  1  1
 16 18  1  0
 16 28  1  0
 18 19  2  0
 18 20  1  0
 20 21  1  1
 20 22  1  0
 22 23  1  0
 23 24  1  6
 23 28  1  0
 24 25  1  0
 25 26  1  0
 26 27  1  0
 28 29  1  6
 28 30  1  0
M  CHG  1  29  -1
M  END
