
     RDKit          3D

 32 35  0  0  0  0  0  0  0  0999 V2000
    5.3770   -0.0790    1.4180 C   0  0  0  0  0  0  0  0  0  0  0  0
    4.8640   -0.2350    0.0080 C   0  0  0  0  0  0  0  0  0  0  0  0
    4.4260   -1.5440   -0.3000 N   0  0  0  0  0  0  0  0  0  0  0  0
    4.0820   -1.6540   -1.7360 C   0  0  0  0  0  0  0  0  0  0  0  0
    5.3930   -1.5280   -2.4840 C   0  0  0  0  0  0  0  0  0  0  0  0
    3.4630   -2.1930    0.4940 C   0  0  0  0  0  0  0  0  0  0  0  0
    2.0550   -1.7740    0.4610 C   0  0  0  0  0  0  0  0  0  0  0  0
    1.8160   -0.4420    0.8910 N   0  0  0  0  0  0  0  0  0  0  0  0
    0.4910    0.1420    0.8260 C   0  0  0  0  0  0  0  0  0  0  0  0
   -0.6010   -0.5820    0.3430 C   0  0  0  0  0  0  0  0  0  0  0  0
   -1.8560   -0.0450    0.2740 C   0  0  0  0  0  0  0  0  0  0  0  0
   -3.0090   -0.7150   -0.1330 N   0  0  0  0  0  0  0  0  0  0  0  0
   -3.2800   -2.0600   -0.3540 C   0  0  0  0  0  0  0  0  0  0  0  0
   -2.5890   -3.0950    0.2220 C   0  0  0  0  0  0  0  0  0  0  0  0
   -2.9770   -4.4340    0.0020 C   0  0  0  0  0  0  0  0  0  0  0  0
   -2.2630   -5.4440    0.5920 O   0  0  0  0  0  0  0  0  0  0  0  0
   -4.0530   -4.7540   -0.7900 C   0  0  0  0  0  0  0  0  0  0  0  0
   -4.7530   -3.7220   -1.3700 C   0  0  0  0  0  0  0  0  0  0  0  0
   -4.3770   -2.4130   -1.1580 C   0  0  0  0  0  0  0  0  0  0  0  0
   -5.1230   -1.2920   -1.7870 C   0  0  0  0  0  0  0  0  0  0  0  0
   -1.9580    1.2410    0.7060 N   0  0  0  0  0  0  0  0  0  0  0  0
   -0.9400    1.9690    1.1750 C   0  0  0  0  0  0  0  0  0  0  0  0
   -1.1720    3.3000    1.6010 N   0  0  0  0  0  0  0  0  0  0  0  0
   -1.0670    3.6500    2.9170 C   0  0  0  0  0  0  0  0  0  0  0  0
   -1.3340    4.9640    3.0630 N   0  0  0  0  0  0  0  0  0  0  0  0
   -1.6040    5.4200    1.8280 C   0  0  0  0  0  0  0  0  0  0  0  0
   -1.9400    6.7110    1.4370 C   0  0  0  0  0  0  0  0  0  0  0  0
   -2.1710    6.9130    0.0850 C   0  0  0  0  0  0  0  0  0  0  0  0
   -2.0730    5.8770   -0.8430 C   0  0  0  0  0  0  0  0  0  0  0  0
   -1.7330    4.5900   -0.4140 C   0  0  0  0  0  0  0  0  0  0  0  0
   -1.5060    4.3950    0.9150 C   0  0  0  0  0  0  0  0  0  0  0  0
    0.3010    1.3980    1.2310 N   0  0  0  0  0  0  0  0  0  0  0  0
  1  2  1  0
  2  3  1  0
  3  4  1  0
  3  6  1  0
  4  5  1  0
  6  7  1  0
  7  8  1  0
  8  9  1  0
  9 10  2  0
  9 32  1  0
 10 11  1  0
 11 12  1  0
 11 21  2  0
 12 13  1  0
 13 14  2  0
 13 19  1  0
 14 15  1  0
 15 16  1  0
 15 17  2  0
 17 18  1  0
 18 19  2  0
 19 20  1  0
 21 22  1  0
 22 23  1  0
 22 32  2  0
 23 24  1  0
 23 31  1  0
 24 25  2  0
 25 26  1  0
 26 27  2  0
 26 31  1  0
 27 28  1  0
 28 29  2  0
 29 30  1  0
 30 31  2  0
M  END
