
     RDKit          3D

 32 35  0  0  0  0  0  0  0  0999 V2000
   -3.0150    2.3090   -1.7450 C   0  0  0  0  0  0  0  0  0  0  0  0
   -2.0720    2.0940   -0.6160 C   0  0  0  0  0  0  0  0  0  0  0  0
   -1.4720    3.1340    0.0520 C   0  0  0  0  0  0  0  0  0  0  0  0
   -0.6170    2.8170    1.0820 C   0  0  0  0  0  0  0  0  0  0  0  0
   -0.3390    1.5270    1.4680 C   0  0  0  0  0  0  0  0  0  0  0  0
   -0.9270    0.4630    0.8110 C   0  0  0  0  0  0  0  0  0  0  0  0
   -0.6270   -0.9230    1.1540 C   0  0  2  0  0  0  0  0  0  0  0  0
   -1.1870   -1.0130    2.4670 O   0  0  0  0  0  0  0  0  0  0  0  0
    0.7830   -1.3650    1.3060 C   0  0  0  0  0  0  0  0  0  0  0  0
    1.6570   -1.4990    0.2060 N   0  0  0  0  0  0  0  0  0  0  0  0
    2.0990   -0.5040   -0.6830 C   0  0  0  0  0  0  0  0  0  0  0  0
    1.7250    0.6500   -0.5410 O   0  0  0  0  0  0  0  0  0  0  0  0
    2.9880   -0.7690   -1.7750 N   0  0  0  0  0  0  0  0  0  0  0  0
    3.3760    0.3390   -2.6240 C   0  0  0  0  0  0  0  0  0  0  0  0
    4.3990    1.1970   -1.9540 C   0  0  0  0  0  0  0  0  0  0  0  0
    4.8670    2.3310   -2.5670 C   0  0  0  0  0  0  0  0  0  0  0  0
    5.8120    3.0880   -1.9120 C   0  0  0  0  0  0  0  0  0  0  0  0
    6.2790    2.7350   -0.6910 N   0  0  0  0  0  0  0  0  0  0  0  0
    5.7980    1.6110   -0.1110 C   0  0  0  0  0  0  0  0  0  0  0  0
    4.8520    0.8090   -0.7120 C   0  0  0  0  0  0  0  0  0  0  0  0
   -1.4270   -1.9060    0.3800 C   0  0  0  0  0  0  0  0  0  0  0  0
   -1.1690   -2.1150   -0.9470 C   0  0  0  0  0  0  0  0  0  0  0  0
   -1.8770   -3.0270   -1.7130 C   0  0  0  0  0  0  0  0  0  0  0  0
   -2.8760   -3.7510   -1.1260 C   0  0  0  0  0  0  0  0  0  0  0  0
   -3.1650   -3.5710    0.2000 C   0  0  0  0  0  0  0  0  0  0  0  0
   -4.2350   -4.3510    0.8320 C   0  0  0  0  0  0  0  0  0  0  0  0
   -5.4930   -3.6290    0.5900 N   0  0  0  0  0  0  0  0  0  0  0  0
   -2.4440   -2.6590    0.9300 C   0  0  0  0  0  0  0  0  0  0  0  0
   -1.7930    0.7990   -0.2310 C   0  0  0  0  0  0  0  0  0  0  0  0
    0.5570    1.5740    2.5990 C   0  0  0  0  0  0  0  0  0  0  0  0
    0.4620    2.8990    3.1200 N   0  0  0  0  0  0  0  0  0  0  0  0
    0.1870    3.7330    1.9760 C   0  0  0  0  0  0  0  0  0  0  0  0
  1  2  1  0
  2  3  2  0
  2 29  1  0
  3  4  1  0
  4  5  2  0
  4 32  1  0
  5  6  1  0
  5 30  1  0
  6  7  1  0
  6 29  2  0
  7  8  1  1
  7  9  1  0
  7 21  1  0
  9 10  1  0
 10 11  1  0
 11 12  2  0
 11 13  1  0
 13 14  1  0
 14 15  1  0
 15 16  2  0
 15 20  1  0
 16 17  1  0
 17 18  2  0
 18 19  1  0
 19 20  2  0
 21 22  2  0
 21 28  1  0
 22 23  1  0
 23 24  2  0
 24 25  1  0
 25 26  1  0
 25 28  2  0
 26 27  1  0
 30 31  1  0
 31 32  1  0
M  CHG  2  27   1  31   1
M  END
