
     RDKit          3D

 30 33  0  0  0  0  0  0  0  0999 V2000
   -0.4960    1.7370   -2.1870 C   0  0  0  0  0  0  0  0  0  0  0  0
   -0.8120    1.5870   -0.8260 N   0  0  0  0  0  0  0  0  0  0  0  0
   -1.2480    0.3390   -0.3280 C   0  0  2  0  0  0  0  0  0  0  0  0
   -1.3630    0.4970    1.0570 O   0  0  0  0  0  0  0  0  0  0  0  0
    0.0180    0.7050    1.3460 C   0  0  2  0  0  0  0  0  0  0  0  0
    0.1490    1.0100    2.7840 C   0  0  0  0  0  0  0  0  0  0  0  0
    1.0070    2.1670    2.3180 C   0  0  1  0  0  0  0  0  0  0  0  0
    2.3650    2.0050    2.4270 O   0  0  0  0  0  0  0  0  0  0  0  0
    0.4620    1.9510    1.0380 O   0  0  0  0  0  0  0  0  0  0  0  0
    0.6160   -0.4350    0.7600 N   0  0  0  0  0  0  0  0  0  0  0  0
    2.0070   -0.3830    0.4920 C   0  0  2  0  0  0  0  0  0  0  0  0
    2.6670    0.5230   -0.4970 C   0  0  2  0  0  0  0  0  0  0  0  0
    2.2170    0.2190   -1.8300 N   0  0  0  0  0  0  0  0  0  0  0  0
    4.1530    0.5570   -0.5050 C   0  0  0  0  0  0  0  0  0  0  0  0
    4.4890    1.4760   -1.5490 O   0  0  0  0  0  0  0  0  0  0  0  0
    2.6140   -2.1080    0.1640 S   0  0  0  0  0  0  0  0  0  0  0  0
    2.9010   -1.0620    1.5300 C   0  0  2  0  0  0  0  0  0  0  0  0
    2.3800   -1.4500    2.7410 F   0  0  0  0  0  0  0  0  0  0  0  0
    4.2100   -0.6280    1.6850 F   0  0  0  0  0  0  0  0  0  0  0  0
   -0.2610   -0.7990   -0.3510 C   0  0  1  0  0  0  0  0  0  0  0  0
   -0.9170   -2.0880    0.0010 C   0  0  1  0  0  0  0  0  0  0  0  0
   -0.8920   -2.4770    1.4320 C   0  0  0  0  0  0  0  0  0  0  0  0
    0.1010   -3.2190    2.0750 N   0  0  0  0  0  0  0  0  0  0  0  0
   -1.8730   -2.1100    2.1840 O   0  0  0  0  0  0  0  0  0  0  0  0
   -2.3290   -2.2370   -0.4170 C   0  0  0  0  0  0  0  0  0  0  0  0
   -2.7680   -3.2050   -0.9400 O   0  0  0  0  0  0  0  0  0  0  0  0
   -3.2330   -1.0640   -0.1440 C   0  0  0  0  0  0  0  0  0  0  0  0
   -2.5810    0.0270   -0.9840 C   0  0  1  0  0  0  0  0  0  0  0  0
   -3.4290    1.2610   -1.0020 C   0  0  0  0  0  0  0  0  0  0  0  0
   -2.4260   -0.5500   -2.3540 C   0  0  0  0  0  0  0  0  0  0  0  0
  1  2  1  0
  3  2  1  6
  3  4  1  0
  3 20  1  0
  3 28  1  0
  4  5  1  0
  5  6  1  1
  5  9  1  0
  5 10  1  0
  6  7  1  0
  7  8  1  6
  7  9  1  0
 11 10  1  1
 20 10  1  1
 11 12  1  0
 11 16  1  0
 11 17  1  0
 12 13  1  6
 12 14  1  0
 14 15  1  0
 16 17  1  0
 17 18  1  1
 17 19  1  0
 20 21  1  0
 21 22  1  1
 21 25  1  0
 22 23  1  0
 22 24  2  0
 25 26  2  0
 25 27  1  0
 27 28  1  0
 28 29  1  6
 28 30  1  0
M  CHG  1  15  -1
M  END
