
     RDKit          3D

 32 35  0  0  0  0  0  0  0  0999 V2000
   -5.3100    3.5750    0.5670 C   0  0  0  0  0  0  0  0  0  0  0  0
   -5.6430    2.7070   -0.6230 C   0  0  0  0  0  0  0  0  0  0  0  0
   -6.2710    1.4030   -0.1750 C   0  0  0  0  0  0  0  0  0  0  0  0
   -5.3800    0.6500    0.6870 N   0  0  0  0  0  0  0  0  0  0  0  0
   -4.4830   -0.1940   -0.1180 C   0  0  2  0  0  0  0  0  0  0  0  0
   -5.2280   -1.4700   -0.3880 C   0  0  0  0  0  0  0  0  0  0  0  0
   -4.3760   -2.5890   -0.8660 C   0  0  0  0  0  0  0  0  0  0  0  0
   -2.9130   -2.3150   -0.8140 C   0  0  0  0  0  0  0  0  0  0  0  0
   -2.1150   -3.1340   -1.5460 C   0  0  0  0  0  0  0  0  0  0  0  0
   -0.7150   -2.9980   -1.5940 C   0  0  0  0  0  0  0  0  0  0  0  0
    0.0420   -3.9440   -2.3830 C   0  0  0  0  0  0  0  0  0  0  0  0
    1.2580   -3.9960   -2.5050 O   0  0  0  0  0  0  0  0  0  0  0  0
   -0.1370   -1.9610   -0.8460 C   0  0  0  0  0  0  0  0  0  0  0  0
    1.2580   -1.7650   -0.9020 N   0  0  0  0  0  0  0  0  0  0  0  0
    2.0340   -0.8760   -0.0890 C   0  0  0  0  0  0  0  0  0  0  0  0
    1.4310   -0.2010    0.7660 O   0  0  0  0  0  0  0  0  0  0  0  0
    3.4380   -0.7710   -0.2570 N   0  0  0  0  0  0  0  0  0  0  0  0
    4.2880    0.0680    0.4990 C   0  0  0  0  0  0  0  0  0  0  0  0
    3.8900    0.5880    1.6930 C   0  0  0  0  0  0  0  0  0  0  0  0
    4.7470    1.4240    2.3940 C   0  0  0  0  0  0  0  0  0  0  0  0
    5.9820    1.7250    1.8970 C   0  0  0  0  0  0  0  0  0  0  0  0
    6.3960    1.2050    0.6920 C   0  0  0  0  0  0  0  0  0  0  0  0
    7.7080    1.5350    0.1800 N   0  0  0  0  0  0  0  0  0  0  0  0
    8.7190    0.6610    0.0740 C   0  0  0  0  0  0  0  0  0  0  0  0
    9.8370    1.3010   -0.4530 C   0  0  0  0  0  0  0  0  0  0  0  0
    9.4740    2.6100   -0.6700 C   0  0  0  0  0  0  0  0  0  0  0  0
    8.1500    2.7230   -0.2670 C   0  0  0  0  0  0  0  0  0  0  0  0
    5.5500    0.3830    0.0040 C   0  0  0  0  0  0  0  0  0  0  0  0
   -0.9830   -1.1500   -0.1150 C   0  0  0  0  0  0  0  0  0  0  0  0
   -2.3490   -1.3240   -0.0990 C   0  0  0  0  0  0  0  0  0  0  0  0
   -3.2430   -0.4280    0.7050 C   0  0  2  0  0  0  0  0  0  0  0  0
   -3.6050   -1.1440    1.8960 N   0  0  0  0  0  0  0  0  0  0  0  0
  1  2  1  0
  2  3  1  0
  3  4  1  0
  5  4  1  1
  5  6  1  0
  5 31  1  0
  6  7  1  0
  7  8  1  0
  8  9  2  0
  8 30  1  0
  9 10  1  0
 10 11  1  0
 10 13  2  0
 11 12  2  0
 13 14  1  0
 13 29  1  0
 14 15  1  0
 15 16  2  0
 15 17  1  0
 17 18  1  0
 18 19  2  0
 18 28  1  0
 19 20  1  0
 20 21  2  0
 21 22  1  0
 22 23  1  0
 22 28  2  0
 23 24  1  0
 23 27  1  0
 24 25  2  0
 25 26  1  0
 26 27  2  0
 29 30  2  0
 30 31  1  0
 31 32  1  1
M  CHG  2   4   1  32   1
M  END
