
     RDKit          3D

 32 34  0  0  0  0  0  0  0  0999 V2000
    5.0230   -1.4510    1.3290 C   0  0  0  0  0  0  0  0  0  0  0  0
    4.9930   -0.1230    0.7000 C   0  0  0  0  0  0  0  0  0  0  0  0
    6.2380    0.4460    0.4180 C   0  0  0  0  0  0  0  0  0  0  0  0
    7.3980   -0.2740    0.7620 N   0  0  0  0  0  0  0  0  0  0  0  0
    8.6670    0.2080    0.3760 C   0  0  0  0  0  0  0  0  0  0  0  0
    8.9030    0.5600   -0.8440 N   0  0  0  0  0  0  0  0  0  0  0  0
    6.2510    1.6920   -0.1640 C   0  0  0  0  0  0  0  0  0  0  0  0
    5.0940    2.3660   -0.4660 C   0  0  0  0  0  0  0  0  0  0  0  0
    3.8650    1.7540   -0.1650 C   0  0  0  0  0  0  0  0  0  0  0  0
    3.7970    0.5120    0.4170 C   0  0  0  0  0  0  0  0  0  0  0  0
    2.5650   -0.0900    0.6930 N   0  0  0  0  0  0  0  0  0  0  0  0
    1.2520    0.4520    0.5410 C   0  0  0  0  0  0  0  0  0  0  0  0
    1.1930    1.6120    0.1090 O   0  0  0  0  0  0  0  0  0  0  0  0
    0.0770   -0.3410    0.8920 C   0  0  0  0  0  0  0  0  0  0  0  0
   -1.1810   -0.1010    0.8050 C   0  0  0  0  0  0  0  0  0  0  0  0
   -2.0810   -1.2370    1.3210 C   0  0  0  0  0  0  0  0  0  0  0  0
   -2.9470   -1.6850    0.2560 N   0  0  0  0  0  0  0  0  0  0  0  0
   -3.8540   -2.7270    0.5440 C   0  0  0  0  0  0  0  0  0  0  0  0
   -3.9360   -3.3280    1.7900 C   0  0  0  0  0  0  0  0  0  0  0  0
   -4.8290   -4.3440    2.0540 C   0  0  0  0  0  0  0  0  0  0  0  0
   -5.6660   -4.7890    1.0770 C   0  0  0  0  0  0  0  0  0  0  0  0
   -5.5990   -4.2060   -0.1580 C   0  0  0  0  0  0  0  0  0  0  0  0
   -4.6980   -3.1730   -0.4430 C   0  0  0  0  0  0  0  0  0  0  0  0
   -4.7310   -2.6760   -1.7200 O   0  0  0  0  0  0  0  0  0  0  0  0
   -1.9200    0.9570    0.1560 C   0  0  0  0  0  0  0  0  0  0  0  0
   -3.1950    1.2590    0.6170 C   0  0  0  0  0  0  0  0  0  0  0  0
   -3.9860    2.1870   -0.0060 C   0  0  0  0  0  0  0  0  0  0  0  0
   -3.5530    2.8590   -1.1150 C   0  0  0  0  0  0  0  0  0  0  0  0
   -4.4030    3.8490   -1.7760 C   0  0  0  0  0  0  0  0  0  0  0  0
   -5.1930    3.2620   -2.8400 N   0  0  0  0  0  0  0  0  0  0  0  0
   -2.3060    2.5720   -1.5800 C   0  0  0  0  0  0  0  0  0  0  0  0
   -1.4950    1.6270   -0.9500 C   0  0  0  0  0  0  0  0  0  0  0  0
  1  2  1  0
  2  3  2  0
  2 10  1  0
  3  4  1  0
  3  7  1  0
  4  5  1  0
  5  6  2  0
  7  8  2  0
  8  9  1  0
  9 10  2  0
 10 11  1  0
 11 12  1  0
 12 13  2  0
 12 14  1  0
 14 15  2  3
 15 16  1  0
 15 25  1  0
 16 17  1  0
 17 18  1  0
 18 19  2  0
 18 23  1  0
 19 20  1  0
 20 21  2  0
 21 22  1  0
 22 23  2  0
 23 24  1  0
 25 26  2  0
 25 32  1  0
 26 27  1  0
 27 28  2  0
 28 29  1  0
 28 31  1  0
 29 30  1  0
 31 32  2  0
M  CHG  2   6   1  30   1
M  END
