
     RDKit          3D

 25 27  0  0  0  0  0  0  0  0999 V2000
   -2.0520    2.7350    0.5770 C   0  0  0  0  0  0  0  0  0  0  0  0
   -1.9820    1.6990   -0.5130 C   0  0  2  0  0  0  0  0  0  0  0  0
   -3.1500    0.7640   -0.4090 C   0  0  0  0  0  0  0  0  0  0  0  0
   -4.2560    1.0760    0.3530 C   0  0  0  0  0  0  0  0  0  0  0  0
   -5.3410    0.2330    0.4640 C   0  0  0  0  0  0  0  0  0  0  0  0
   -5.2980   -0.9610   -0.2210 C   0  0  0  0  0  0  0  0  0  0  0  0
   -4.1880   -1.2720   -0.9840 C   0  0  0  0  0  0  0  0  0  0  0  0
   -4.1680   -2.5150   -1.6840 N   0  0  0  0  0  0  0  0  0  0  0  0
   -3.1530   -0.4130   -1.0600 N   0  0  0  0  0  0  0  0  0  0  0  0
   -0.7320    0.9740   -0.3680 N   0  0  0  0  0  0  0  0  0  0  0  0
   -0.5240    0.2180    0.8440 C   0  0  0  0  0  0  0  0  0  0  0  0
    0.6900    0.5980    1.6230 C   0  0  0  0  0  0  0  0  0  0  0  0
    1.9320    0.3840    0.7060 C   0  0  0  0  0  0  0  0  0  0  0  0
    2.5300   -0.7120    0.9580 C   0  0  0  0  0  0  0  0  0  0  0  0
    3.6950   -1.3740    0.4150 C   0  0  0  0  0  0  0  0  0  0  0  0
    4.1550   -2.5640    0.8760 C   0  0  0  0  0  0  0  0  0  0  0  0
    5.3530   -3.0050    0.1390 C   0  0  0  0  0  0  0  0  0  0  0  0
    5.5550   -1.9310   -0.8380 C   0  0  0  0  0  0  0  0  0  0  0  0
    4.5910   -1.0040   -0.6590 C   0  0  0  0  0  0  0  0  0  0  0  0
    4.5930    0.0740   -1.4770 F   0  0  0  0  0  0  0  0  0  0  0  0
    2.2520    1.4110   -0.2760 C   0  0  2  0  0  0  0  0  0  0  0  0
    1.5450    2.6340    0.0330 O   0  0  0  0  0  0  0  0  0  0  0  0
    1.6240    0.9940   -1.6000 C   0  0  0  0  0  0  0  0  0  0  0  0
    0.1410    1.1110   -1.4800 C   0  0  0  0  0  0  0  0  0  0  0  0
   -0.4200    1.3830   -2.5860 O   0  0  0  0  0  0  0  0  0  0  0  0
  2  1  1  1
  2  3  1  0
  2 10  1  0
  3  4  2  0
  3  9  1  0
  4  5  1  0
  5  6  2  0
  6  7  1  0
  7  8  1  0
  7  9  2  0
 10 11  1  0
 10 24  1  0
 11 12  1  0
 12 13  1  0
 13 14  2  3
 13 21  1  0
 14 15  1  0
 15 16  2  0
 15 19  1  0
 16 17  1  0
 17 18  1  0
 18 19  2  0
 19 20  1  0
 21 22  1  1
 21 23  1  0
 23 24  1  0
 24 25  2  0
M  CHG  1   9   1
M  END
