
     RDKit          3D

 24 27  0  0  0  0  0  0  0  0999 V2000
    3.4720   -1.2790   -2.5610 O   0  0  0  0  0  0  0  0  0  0  0  0
    3.6420   -0.6350   -1.4470 C   0  0  0  0  0  0  0  0  0  0  0  0
    2.4600   -0.4780   -0.6290 C   0  0  0  0  0  0  0  0  0  0  0  0
    2.3350    0.1620    0.5840 C   0  0  0  0  0  0  0  0  0  0  0  0
    0.9870    0.0260    0.9390 C   0  0  0  0  0  0  0  0  0  0  0  0
    0.3260    0.4820    2.0560 C   0  0  0  0  0  0  0  0  0  0  0  0
   -1.0210    0.2100    2.1640 C   0  0  0  0  0  0  0  0  0  0  0  0
   -1.6870   -0.4960    1.1840 C   0  0  0  0  0  0  0  0  0  0  0  0
   -3.1480   -0.7930    1.2970 C   0  0  1  0  0  0  0  0  0  0  0  0
   -3.4680   -1.2390    2.5780 O   0  0  0  0  0  0  0  0  0  0  0  0
   -3.8930    0.4890    1.0550 C   0  0  1  0  0  0  0  0  0  0  0  0
   -3.5730    1.0390   -0.3190 C   0  0  0  0  0  0  0  0  0  0  0  0
   -4.1790    0.2010   -1.4080 C   0  0  0  0  0  0  0  0  0  0  0  0
   -5.6660    0.1100   -1.1840 C   0  0  0  0  0  0  0  0  0  0  0  0
   -6.0810    0.8080    0.1020 C   0  0  0  0  0  0  0  0  0  0  0  0
   -5.3000    0.2180    1.1670 N   0  0  0  0  0  0  0  0  0  0  0  0
   -1.0280   -0.9520    0.0660 C   0  0  0  0  0  0  0  0  0  0  0  0
    0.3410   -0.6740   -0.0400 C   0  0  0  0  0  0  0  0  0  0  0  0
    1.2380   -0.9770   -0.9870 N   0  0  0  0  0  0  0  0  0  0  0  0
    4.9240   -0.1550   -1.1350 N   0  0  0  0  0  0  0  0  0  0  0  0
    6.0670   -0.3620   -2.0450 C   0  0  0  0  0  0  0  0  0  0  0  0
    7.1970   -0.5200   -1.0520 C   0  0  0  0  0  0  0  0  0  0  0  0
    6.9140    0.6910   -0.1590 C   0  0  0  0  0  0  0  0  0  0  0  0
    5.3970    0.5630   -0.0000 C   0  0  0  0  0  0  0  0  0  0  0  0
  1  2  2  0
  2  3  1  0
  2 20  1  0
  3  4  2  0
  3 19  1  0
  4  5  1  0
  5  6  2  0
  5 18  1  0
  6  7  1  0
  7  8  2  0
  8  9  1  0
  8 17  1  0
  9 10  1  1
  9 11  1  0
 11 12  1  6
 11 16  1  0
 12 13  1  0
 13 14  1  0
 14 15  1  0
 15 16  1  0
 17 18  2  0
 18 19  1  0
 20 21  1  0
 20 24  1  0
 21 22  1  0
 22 23  1  0
 23 24  1  0
M  CHG  1  16   1
M  END
