
     RDKit          3D

 22 23  0  0  0  0  0  0  0  0999 V2000
    6.3640   -0.1080   -0.5400 N   0  0  0  0  0  0  0  0  0  0  0  0
    5.3670   -0.9870    0.5700 S   0  0  1  0  0  0  0  0  0  0  0  0
    5.7680   -2.4290    0.6430 O   0  0  0  0  0  0  0  0  0  0  0  0
    5.5480   -0.3840    1.9380 O   0  0  0  0  0  0  0  0  0  0  0  0
    3.6970   -0.8160    0.0580 C   0  0  0  0  0  0  0  0  0  0  0  0
    3.1590   -1.7300   -0.8180 C   0  0  0  0  0  0  0  0  0  0  0  0
    1.8620   -1.5950   -1.2150 C   0  0  0  0  0  0  0  0  0  0  0  0
    1.0970   -0.5620   -0.7490 C   0  0  0  0  0  0  0  0  0  0  0  0
   -0.2550   -0.3770   -1.1340 N   0  0  0  0  0  0  0  0  0  0  0  0
   -1.0520    0.6960   -0.5810 C   0  0  2  0  0  0  0  0  0  0  0  0
   -1.1660    0.5430    0.7690 O   0  0  0  0  0  0  0  0  0  0  0  0
   -2.3490    0.0920    1.2580 C   0  0  2  0  0  0  0  0  0  0  0  0
   -2.5300   -1.4220    1.1080 C   0  0  0  0  0  0  0  0  0  0  0  0
   -1.5160   -2.0870    1.7940 O   0  0  0  0  0  0  0  0  0  0  0  0
   -3.5650    0.8380    0.7970 C   0  0  1  0  0  0  0  0  0  0  0  0
   -4.0320    1.7490    1.7670 O   0  0  0  0  0  0  0  0  0  0  0  0
   -3.2720    1.6800   -0.4440 C   0  0  2  0  0  0  0  0  0  0  0  0
   -4.4560    2.0110   -1.0990 O   0  0  0  0  0  0  0  0  0  0  0  0
   -2.3640    0.8520   -1.3130 C   0  0  1  0  0  0  0  0  0  0  0  0
   -2.0990    1.5790   -2.4850 O   0  0  0  0  0  0  0  0  0  0  0  0
    1.6460    0.3460    0.1270 C   0  0  0  0  0  0  0  0  0  0  0  0
    2.9390    0.2220    0.5300 C   0  0  0  0  0  0  0  0  0  0  0  0
  2  1  1  6
  2  3  2  0
  2  4  2  0
  2  5  1  0
  5  6  2  0
  5 22  1  0
  6  7  1  0
  7  8  2  0
  8  9  1  0
  8 21  1  0
 10  9  1  6
 10 11  1  0
 10 19  1  0
 11 12  1  0
 12 13  1  6
 12 15  1  0
 13 14  1  0
 15 16  1  1
 15 17  1  0
 17 18  1  6
 17 19  1  0
 19 20  1  6
 21 22  2  0
M  END
