
     RDKit          3D

 25 28  0  0  0  0  0  0  0  0999 V2000
   -1.7640   -2.1170   -0.5180 C   0  0  0  0  0  0  0  0  0  0  0  0
   -1.5750   -0.6770   -0.8630 C   0  0  2  0  0  0  0  0  0  0  0  0
   -2.1750   -0.2550   -2.1590 C   0  0  0  0  0  0  0  0  0  0  0  0
   -0.0800   -0.3030   -0.9600 C   0  0  2  0  0  0  0  0  0  0  0  0
    0.6610   -0.8650    0.1130 N   0  0  0  0  0  0  0  0  0  0  0  0
    2.0620   -0.7780    0.1580 C   0  0  0  0  0  0  0  0  0  0  0  0
    2.8190   -0.3440   -0.9030 C   0  0  0  0  0  0  0  0  0  0  0  0
    4.2050   -0.2600   -0.8170 C   0  0  0  0  0  0  0  0  0  0  0  0
    4.8670   -0.6050    0.3230 C   0  0  0  0  0  0  0  0  0  0  0  0
    4.1390   -1.0400    1.3950 C   0  0  0  0  0  0  0  0  0  0  0  0
    2.7680   -1.1240    1.3120 C   0  0  0  0  0  0  0  0  0  0  0  0
    5.0680   -1.3180    2.4070 O   0  0  0  0  0  0  0  0  0  0  0  0
    6.3460   -0.8760    2.0150 C   0  0  0  0  0  0  0  0  0  0  0  0
    6.2340   -0.6020    0.6370 O   0  0  0  0  0  0  0  0  0  0  0  0
   -0.2100    1.1970   -0.8140 C   0  0  0  0  0  0  0  0  0  0  0  0
    0.5380    2.2340   -1.2700 C   0  0  0  0  0  0  0  0  0  0  0  0
    0.1790    3.5370   -0.9690 C   0  0  0  0  0  0  0  0  0  0  0  0
    0.9600    4.5510   -1.4480 F   0  0  0  0  0  0  0  0  0  0  0  0
   -0.9310    3.8270   -0.2080 C   0  0  0  0  0  0  0  0  0  0  0  0
   -1.6820    2.7580    0.2480 C   0  0  0  0  0  0  0  0  0  0  0  0
   -1.3320    1.4690   -0.0470 C   0  0  0  0  0  0  0  0  0  0  0  0
   -1.9740    0.1720    0.3110 C   0  0  1  0  0  0  0  0  0  0  0  0
   -3.3740    0.2620    0.5330 N   0  0  0  0  0  0  0  0  0  0  0  0
   -3.8320   -0.5040    1.6760 C   0  0  0  0  0  0  0  0  0  0  0  0
   -4.8520   -1.4590    1.2860 N   0  0  0  0  0  0  0  0  0  0  0  0
  2  1  1  1
  2  3  1  0
  2  4  1  0
  2 22  1  0
  4  5  1  1
  4 15  1  0
  5  6  1  0
  6  7  2  0
  6 11  1  0
  7  8  1  0
  8  9  2  0
  9 10  1  0
  9 14  1  0
 10 11  2  0
 10 12  1  0
 12 13  1  0
 13 14  1  0
 15 16  2  0
 15 21  1  0
 16 17  1  0
 17 18  1  0
 17 19  2  0
 19 20  1  0
 20 21  2  0
 21 22  1  0
 22 23  1  6
 23 24  1  0
 24 25  1  0
M  CHG  1  23   1
M  END
