
     RDKit          3D

 25 28  0  0  0  0  0  0  0  0999 V2000
    7.8280   -1.5550   -0.7250 C   0  0  0  0  0  0  0  0  0  0  0  0
    7.3070   -1.1150    0.6120 C   0  0  0  0  0  0  0  0  0  0  0  0
    6.0150   -0.3970    0.4990 C   0  0  0  0  0  0  0  0  0  0  0  0
    5.9060    0.9700    0.6120 C   0  0  0  0  0  0  0  0  0  0  0  0
    4.6830    1.5930    0.4980 C   0  0  0  0  0  0  0  0  0  0  0  0
    3.4910    0.8920    0.2660 C   0  0  0  0  0  0  0  0  0  0  0  0
    2.2970    1.6310    0.1530 N   0  0  0  0  0  0  0  0  0  0  0  0
    0.9940    1.0650    0.1300 C   0  0  0  0  0  0  0  0  0  0  0  0
    0.8590   -0.1710    0.2200 O   0  0  0  0  0  0  0  0  0  0  0  0
   -0.1470    1.9320    0.0050 N   0  0  0  0  0  0  0  0  0  0  0  0
   -1.4730    1.4940   -0.0250 C   0  0  0  0  0  0  0  0  0  0  0  0
   -2.4440    2.4470   -0.3620 C   0  0  0  0  0  0  0  0  0  0  0  0
   -3.7840    2.1710   -0.4230 C   0  0  0  0  0  0  0  0  0  0  0  0
   -4.1800    0.8870   -0.1360 C   0  0  0  0  0  0  0  0  0  0  0  0
   -3.2890   -0.0950    0.2020 C   0  0  0  0  0  0  0  0  0  0  0  0
   -1.9310    0.2410    0.2490 C   0  0  0  0  0  0  0  0  0  0  0  0
   -3.9810   -1.3000    0.4410 O   0  0  0  0  0  0  0  0  0  0  0  0
   -5.3070   -0.9290    0.8080 C   0  0  2  0  0  0  0  0  0  0  0  0
   -6.3360   -1.9060    0.3390 C   0  0  0  0  0  0  0  0  0  0  0  0
   -6.4080   -1.7350   -1.0810 N   0  0  0  0  0  0  0  0  0  0  0  0
   -5.8690   -0.4390   -1.4110 C   0  0  0  0  0  0  0  0  0  0  0  0
   -5.5330    0.2590   -0.1120 C   0  0  2  0  0  0  0  0  0  0  0  0
    3.6340   -0.4610    0.1600 C   0  0  0  0  0  0  0  0  0  0  0  0
    4.8700   -1.1100    0.2720 C   0  0  0  0  0  0  0  0  0  0  0  0
    4.9480   -2.4490    0.1590 F   0  0  0  0  0  0  0  0  0  0  0  0
  1  2  1  0
  2  3  1  0
  3  4  2  0
  3 24  1  0
  4  5  1  0
  5  6  2  0
  6  7  1  0
  6 23  1  0
  7  8  1  0
  8  9  2  0
  8 10  1  0
 10 11  1  0
 11 12  2  0
 11 16  1  0
 12 13  1  0
 13 14  2  0
 14 15  1  0
 14 22  1  0
 15 16  2  0
 15 17  1  0
 17 18  1  0
 18 19  1  6
 18 22  1  0
 19 20  1  0
 20 21  1  0
 22 21  1  6
 23 24  2  0
 24 25  1  0
M  CHG  1  20   1
M  END
