
     RDKit          3D

 20 21  0  0  0  0  0  0  0  0999 V2000
   -0.9580    0.4270   -1.8010 O   0  0  0  0  0  0  0  0  0  0  0  0
   -1.9360    0.2660   -1.0510 C   0  0  0  0  0  0  0  0  0  0  0  0
   -3.2490    0.6880   -1.4370 N   0  0  0  0  0  0  0  0  0  0  0  0
   -4.3890    0.0010   -0.8710 C   0  0  0  0  0  0  0  0  0  0  0  0
   -4.1350   -0.2590    0.5950 C   0  0  2  0  0  0  0  0  0  0  0  0
   -3.7700    0.9130    1.2530 O   0  0  0  0  0  0  0  0  0  0  0  0
   -2.9260   -1.1990    0.6780 C   0  0  0  0  0  0  0  0  0  0  0  0
   -1.8020   -0.3430    0.2160 N   0  0  0  0  0  0  0  0  0  0  0  0
   -0.7060   -0.2240    1.0560 C   0  0  0  0  0  0  0  0  0  0  0  0
   -0.7330   -0.8900    2.1480 O   0  0  0  0  0  0  0  0  0  0  0  0
    0.4660    0.6160    0.7640 C   0  0  0  0  0  0  0  0  0  0  0  0
    1.5330    0.7230    1.5840 C   0  0  0  0  0  0  0  0  0  0  0  0
    2.4640    1.5950    1.0120 O   0  0  0  0  0  0  0  0  0  0  0  0
    2.1540    1.5790   -0.3830 C   0  0  1  0  0  0  0  0  0  0  0  0
    2.7060    0.2810   -0.9470 C   0  0  0  0  0  0  0  0  0  0  0  0
    4.0880    0.3010   -0.7170 O   0  0  0  0  0  0  0  0  0  0  0  0
    4.8750   -1.1090   -1.3000 P   0  0  0  0  0  0  0  0  0  0  0  0
    6.5470   -0.6980   -1.6360 O   0  0  0  0  0  0  0  0  0  0  0  0
    4.8980   -2.3010   -0.0370 O   0  0  0  0  0  0  0  0  0  0  0  0
    0.7510    1.4310   -0.3100 O   0  0  0  0  0  0  0  0  0  0  0  0
  1  2  2  0
  2  3  1  0
  2  8  1  0
  3  4  1  0
  4  5  1  0
  5  6  1  1
  5  7  1  0
  7  8  1  0
  8  9  1  0
  9 10  2  0
  9 11  1  0
 11 12  2  0
 11 20  1  0
 12 13  1  0
 13 14  1  0
 14 15  1  6
 14 20  1  0
 15 16  1  0
 16 17  1  0
 17 18  1  0
 17 19  1  0
M  END
