
     RDKit          3D

 20 21  0  0  0  0  0  0  0  0999 V2000
   -2.6570   -0.4450    3.3860 N   0  0  0  0  0  0  0  0  0  0  0  0
   -2.4000   -0.3330    2.1450 C   0  0  0  0  0  0  0  0  0  0  0  0
   -1.1430   -0.8060    1.6930 N   0  0  0  0  0  0  0  0  0  0  0  0
   -0.6410   -0.8120    0.5010 C   0  0  0  0  0  0  0  0  0  0  0  0
    0.6850   -1.3670    0.3320 C   0  0  0  0  0  0  0  0  0  0  0  0
    1.4360   -1.8710    1.2830 C   0  0  0  0  0  0  0  0  0  0  0  0
    2.6400   -2.3070    0.7500 O   0  0  0  0  0  0  0  0  0  0  0  0
    2.7310   -1.8560   -0.5840 C   0  0  2  0  0  0  0  0  0  0  0  0
    3.6410   -0.6400   -0.6940 C   0  0  0  0  0  0  0  0  0  0  0  0
    3.6810   -0.2540   -2.0330 O   0  0  0  0  0  0  0  0  0  0  0  0
    4.6990    1.1320   -2.2570 P   0  0  0  0  0  0  0  0  0  0  0  0
    6.1930    0.9540   -1.3710 O   0  0  0  0  0  0  0  0  0  0  0  0
    3.9030    2.5660   -1.6410 O   0  0  0  0  0  0  0  0  0  0  0  0
    1.3850   -1.4600   -0.8560 O   0  0  0  0  0  0  0  0  0  0  0  0
   -1.3000   -0.3160   -0.6240 O   0  0  0  0  0  0  0  0  0  0  0  0
   -2.6840   -0.1730   -0.8760 C   0  0  0  0  0  0  0  0  0  0  0  0
   -3.2510    0.8360    0.0800 C   0  0  1  0  0  0  0  0  0  0  0  0
   -4.6100    1.3360   -0.3530 C   0  0  0  0  0  0  0  0  0  0  0  0
   -5.0080    2.2810    0.6120 O   0  0  0  0  0  0  0  0  0  0  0  0
   -3.4020    0.2530    1.3620 O   0  0  0  0  0  0  0  0  0  0  0  0
  1  2  2  0
  2  3  1  0
  2 20  1  0
  3  4  2  0
  4  5  1  0
  4 15  1  0
  5  6  2  0
  5 14  1  0
  6  7  1  0
  7  8  1  0
  8  9  1  1
  8 14  1  0
  9 10  1  0
 10 11  1  0
 11 12  1  0
 11 13  1  0
 15 16  1  0
 16 17  1  0
 17 18  1  6
 17 20  1  0
 18 19  1  0
M  END
