
     RDKit          3D

 21 22  0  0  0  0  0  0  0  0999 V2000
    1.3410   -1.7140    0.3710 O   0  0  0  0  0  0  0  0  0  0  0  0
    0.6660   -0.6540    0.4640 C   0  0  0  0  0  0  0  0  0  0  0  0
    1.3600    0.4640    0.9100 O   0  0  0  0  0  0  0  0  0  0  0  0
    2.7090    0.4960    1.2510 C   0  0  0  0  0  0  0  0  0  0  0  0
    3.6380    0.1170    0.1190 C   0  0  0  0  0  0  0  0  0  0  0  0
    4.9320    0.1820    0.5650 O   0  0  0  0  0  0  0  0  0  0  0  0
    6.1210   -0.2160   -0.5860 P   0  0  0  0  0  0  0  0  0  0  0  0
    5.6370    0.0320   -2.2150 O   0  0  0  0  0  0  0  0  0  0  0  0
    7.5590    0.7060   -0.2870 O   0  0  0  0  0  0  0  0  0  0  0  0
   -0.7200   -0.6110    0.1320 N   0  0  0  0  0  0  0  0  0  0  0  0
   -1.3420   -1.8360   -0.3220 C   0  0  0  0  0  0  0  0  0  0  0  0
   -2.8300   -1.8480   -0.1490 C   0  0  0  0  0  0  0  0  0  0  0  0
   -3.3710   -0.5070   -0.5990 C   0  0  1  0  0  0  0  0  0  0  0  0
   -4.7210   -0.5820   -0.7490 O   0  0  0  0  0  0  0  0  0  0  0  0
   -5.4380    0.4010   -0.3420 O   0  0  0  0  0  0  0  0  0  0  0  0
   -4.8680    1.6280   -0.4960 N   0  0  0  0  0  0  0  0  0  0  0  0
   -3.5840    1.7770    0.0970 C   0  0  0  0  0  0  0  0  0  0  0  0
   -3.1320    2.9250    0.3120 O   0  0  0  0  0  0  0  0  0  0  0  0
   -2.8860    0.5070    0.4110 C   0  0  1  0  0  0  0  0  0  0  0  0
   -3.2000    0.0500    1.6730 O   0  0  0  0  0  0  0  0  0  0  0  0
   -1.4020    0.6450    0.2710 C   0  0  0  0  0  0  0  0  0  0  0  0
  1  2  2  0
  2  3  1  0
  2 10  1  0
  3  4  1  0
  4  5  1  0
  5  6  1  0
  6  7  1  0
  7  8  1  0
  7  9  1  0
 10 11  1  0
 10 21  1  0
 11 12  1  0
 13 12  1  1
 13 14  1  0
 13 19  1  0
 14 15  1  0
 15 16  1  0
 16 17  1  0
 17 18  2  0
 17 19  1  0
 19 20  1  1
 19 21  1  0
M  END
