
     RDKit          3D

 20 20  0  0  0  0  0  0  0  0999 V2000
    2.2970   -1.8190   -0.7590 N   0  0  0  0  0  0  0  0  0  0  0  0
    2.4590   -0.3680   -0.7640 C   0  0  2  0  0  0  0  0  0  0  0  0
    3.8440   -0.0390   -0.2280 C   0  0  0  0  0  0  0  0  0  0  0  0
    4.1350   -0.9880    0.7360 O   0  0  0  0  0  0  0  0  0  0  0  0
    3.3990   -0.5760    2.2140 P   0  0  0  0  0  0  0  0  0  0  0  0
    3.8340    0.9660    2.8220 O   0  0  0  0  0  0  0  0  0  0  0  0
    1.7400   -0.8730    2.3200 O   0  0  0  0  0  0  0  0  0  0  0  0
    1.0300   -0.8200    1.1580 C   0  0  0  0  0  0  0  0  0  0  0  0
    1.4620    0.2450    0.1990 C   0  0  1  0  0  0  0  0  0  0  0  0
    2.0260    1.2810    0.9310 O   0  0  0  0  0  0  0  0  0  0  0  0
    0.2980    0.8080   -0.5780 C   0  0  0  0  0  0  0  0  0  0  0  0
   -0.0020    2.0280   -0.4860 O   0  0  0  0  0  0  0  0  0  0  0  0
   -0.4880   -0.0030   -1.4260 N   0  0  0  0  0  0  0  0  0  0  0  0
   -1.6170    0.4760   -2.1980 C   0  0  0  0  0  0  0  0  0  0  0  0
   -2.6990    1.0500   -1.3360 C   0  0  0  0  0  0  0  0  0  0  0  0
   -3.2320    0.0100   -0.3620 C   0  0  0  0  0  0  0  0  0  0  0  0
   -4.2520    0.5650    0.4460 O   0  0  0  0  0  0  0  0  0  0  0  0
   -4.9030   -0.1620    1.4100 C   0  0  0  0  0  0  0  0  0  0  0  0
   -4.5660   -1.3640    1.5660 O   0  0  0  0  0  0  0  0  0  0  0  0
   -5.9010    0.3350    2.2180 O   0  0  0  0  0  0  0  0  0  0  0  0
  2  1  1  1
  2  3  1  0
  2  9  1  0
  3  4  1  0
  4  5  1  0
  5  6  1  0
  5  7  1  0
  7  8  1  0
  8  9  1  0
  9 10  1  1
  9 11  1  0
 11 12  2  0
 11 13  1  0
 13 14  1  0
 14 15  1  0
 15 16  1  0
 16 17  1  0
 17 18  1  0
 18 19  2  0
 18 20  1  0
M  END
