
     RDKit          3D

 27 29  0  0  0  0  0  0  0  0999 V2000
   -7.4230   -0.8840    0.3860 N   0  0  0  0  0  0  0  0  0  0  0  0
   -6.2640   -0.0910    0.3070 C   0  0  0  0  0  0  0  0  0  0  0  0
   -6.4300    1.1880   -0.1430 N   0  0  0  0  0  0  0  0  0  0  0  0
   -5.3250    1.9690   -0.3140 C   0  0  0  0  0  0  0  0  0  0  0  0
   -4.0690    1.4900   -0.0560 N   0  0  0  0  0  0  0  0  0  0  0  0
   -3.9090    0.2540    0.3750 C   0  0  0  0  0  0  0  0  0  0  0  0
   -5.0040   -0.5440    0.5630 C   0  0  0  0  0  0  0  0  0  0  0  0
   -4.5500   -1.7210    0.9770 N   0  0  0  0  0  0  0  0  0  0  0  0
   -3.1980   -1.6670    1.0400 C   0  0  0  0  0  0  0  0  0  0  0  0
   -2.7850   -0.4630    0.6660 N   0  0  0  0  0  0  0  0  0  0  0  0
   -1.4960   -0.0310    0.3740 C   0  0  2  0  0  0  0  0  0  0  0  0
   -0.4970    0.4090    1.1400 O   0  0  0  0  0  0  0  0  0  0  0  0
    0.4890    0.4360    0.1360 C   0  0  2  0  0  0  0  0  0  0  0  0
    1.8820    0.7500    0.4120 C   0  0  0  0  0  0  0  0  0  0  0  0
    2.3820   -0.1990    1.3230 O   0  0  0  0  0  0  0  0  0  0  0  0
    3.4810   -1.2370    0.6960 P   0  0  0  0  0  0  0  0  0  0  0  0
    3.4070   -0.7050   -0.7000 O   0  0  0  0  0  0  0  0  0  0  0  0
    2.7390   -2.7420    0.3040 O   0  0  0  0  0  0  0  0  0  0  0  0
    5.0740   -1.1670    0.7700 O   0  0  0  0  0  0  0  0  0  0  0  0
    5.8720    0.0280    0.0360 P   0  0  0  0  0  0  0  0  0  0  0  0
    7.4040   -0.2260   -0.5510 O   0  0  0  0  0  0  0  0  0  0  0  0
    6.3740    0.6200    1.3450 O   0  0  0  0  0  0  0  0  0  0  0  0
    5.1240    1.4640   -0.3590 O   0  0  0  0  0  0  0  0  0  0  0  0
   -0.0590    1.1380   -1.0650 C   0  0  1  0  0  0  0  0  0  0  0  0
    0.0560    0.3870   -2.2500 O   0  0  0  0  0  0  0  0  0  0  0  0
   -1.5540    1.1470   -0.6820 C   0  0  1  0  0  0  0  0  0  0  0  0
   -2.3520    0.7210   -1.7450 O   0  0  0  0  0  0  0  0  0  0  0  0
  1  2  1  0
  2  3  2  0
  2  7  1  0
  3  4  1  0
  4  5  2  0
  5  6  1  0
  6  7  2  0
  6 10  1  0
  7  8  1  0
  8  9  2  0
  9 10  1  0
 11 10  1  1
 11 12  1  0
 11 26  1  0
 12 13  1  0
 13 14  1  1
 13 24  1  0
 14 15  1  0
 15 16  1  0
 16 17  1  0
 16 18  1  0
 16 19  1  0
 19 20  1  0
 20 21  1  0
 20 22  1  0
 20 23  1  0
 24 25  1  6
 24 26  1  0
 26 27  1  6
M  END
