
     RDKit          3D

 20 20  0  0  0  0  0  0  0  0999 V2000
    6.4770   -0.4780   -0.1440 C   0  0  0  0  0  0  0  0  0  0  0  0
    5.1820    0.0260   -0.2840 O   0  0  0  0  0  0  0  0  0  0  0  0
    4.0210   -0.6500    0.0200 C   0  0  0  0  0  0  0  0  0  0  0  0
    4.1460   -1.8290    0.4640 O   0  0  0  0  0  0  0  0  0  0  0  0
    2.7480   -0.1060   -0.1360 O   0  0  0  0  0  0  0  0  0  0  0  0
    1.5930   -0.8390    0.1900 C   0  0  0  0  0  0  0  0  0  0  0  0
    1.7990   -2.0000    0.6230 O   0  0  0  0  0  0  0  0  0  0  0  0
    0.2940   -0.2890    0.0330 N   0  0  0  0  0  0  0  0  0  0  0  0
   -0.0480    1.0330   -0.4560 C   0  0  0  0  0  0  0  0  0  0  0  0
   -1.3950    1.2490    0.2450 C   0  0  1  0  0  0  0  0  0  0  0  0
   -2.3170    2.6660   -0.4820 P   0  0  0  0  0  0  0  0  0  0  0  0
   -1.4170    4.1070   -0.2360 O   0  0  0  0  0  0  0  0  0  0  0  0
   -2.7590    2.4130   -2.1240 O   0  0  0  0  0  0  0  0  0  0  0  0
   -2.0520   -0.0830   -0.0530 C   0  0  2  0  0  0  0  0  0  0  0  0
   -3.2800   -0.3100    0.7930 C   0  0  0  0  0  0  0  0  0  0  0  0
   -4.2090    0.7620    0.4960 N   0  0  0  0  0  0  0  0  0  0  0  0
   -0.9110   -1.0230    0.3610 C   0  0  1  0  0  0  0  0  0  0  0  0
   -1.0020   -2.3190   -0.3020 C   0  0  0  0  0  0  0  0  0  0  0  0
   -0.1320   -2.7720   -1.0850 O   0  0  0  0  0  0  0  0  0  0  0  0
   -2.1160   -3.1080   -0.0600 O   0  0  0  0  0  0  0  0  0  0  0  0
  1  2  1  0
  2  3  1  0
  3  4  2  0
  3  5  1  0
  5  6  1  0
  6  7  2  0
  6  8  1  0
  8  9  1  0
  8 17  1  0
  9 10  1  0
 10 11  1  6
 10 14  1  0
 11 12  1  0
 11 13  1  0
 14 15  1  1
 14 17  1  0
 15 16  1  0
 17 18  1  6
 18 19  2  0
 18 20  1  0
M  END
