
     RDKit          3D

 20 21  0  0  0  0  0  0  0  0999 V2000
    4.9450    0.3300    2.7390 O   0  0  0  0  0  0  0  0  0  0  0  0
    4.6540    0.4190    1.5010 C   0  0  0  0  0  0  0  0  0  0  0  0
    5.3550   -0.2960    0.5010 N   0  0  0  0  0  0  0  0  0  0  0  0
    4.4940   -0.3240   -0.6530 C   0  0  0  0  0  0  0  0  0  0  0  0
    3.5400    0.8320   -0.4740 C   0  0  1  0  0  0  0  0  0  0  0  0
    2.1550    0.3670   -0.7480 C   0  0  0  0  0  0  0  0  0  0  0  0
    1.8910    0.0340   -1.9310 O   0  0  0  0  0  0  0  0  0  0  0  0
    1.1620    0.2780    0.1890 O   0  0  0  0  0  0  0  0  0  0  0  0
   -0.1170   -0.1760   -0.1760 C   0  0  1  0  0  0  0  0  0  0  0  0
   -0.5760   -1.3290    0.6140 C   0  0  0  0  0  0  0  0  0  0  0  0
    0.1080   -2.1070    1.2120 O   0  0  0  0  0  0  0  0  0  0  0  0
   -2.0460   -1.3380    0.5230 C   0  0  0  0  0  0  0  0  0  0  0  0
   -2.3570    0.0760    0.4620 N   0  0  0  0  0  0  0  0  0  0  0  0
   -3.6670    0.6190    0.7480 C   0  0  0  0  0  0  0  0  0  0  0  0
   -4.7150    0.7020   -0.7850 P   0  0  0  0  0  0  0  0  0  0  0  0
   -6.3160    1.1400   -0.3310 O   0  0  0  0  0  0  0  0  0  0  0  0
   -4.7670   -0.8010   -1.6210 O   0  0  0  0  0  0  0  0  0  0  0  0
   -1.1840    0.8190    0.0810 C   0  0  0  0  0  0  0  0  0  0  0  0
   -1.1300    2.0620   -0.0010 O   0  0  0  0  0  0  0  0  0  0  0  0
    3.6750    1.1650    0.8840 O   0  0  0  0  0  0  0  0  0  0  0  0
  1  2  2  0
  2  3  1  0
  2 20  1  0
  3  4  1  0
  4  5  1  0
  5  6  1  1
  5 20  1  0
  6  7  2  0
  6  8  1  0
  9  8  1  1
  9 10  1  0
  9 18  1  0
 10 11  2  0
 10 12  1  0
 12 13  1  0
 13 14  1  0
 13 18  1  0
 14 15  1  0
 15 16  1  0
 15 17  1  0
 18 19  2  0
M  END
