
     RDKit          3D

 21 21  0  0  0  0  0  0  0  0999 V2000
    0.4550   -1.3940    0.8650 O   0  0  0  0  0  0  0  0  0  0  0  0
    0.7690   -0.3440    0.2350 C   0  0  0  0  0  0  0  0  0  0  0  0
    2.1340    0.1190    0.1870 N   0  0  0  0  0  0  0  0  0  0  0  0
    3.1430   -0.6580    0.8840 C   0  0  0  0  0  0  0  0  0  0  0  0
    4.4700    0.0420    0.6730 C   0  0  0  0  0  0  0  0  0  0  0  0
    5.5230   -0.6080    1.2960 O   0  0  0  0  0  0  0  0  0  0  0  0
    6.9620    0.3010    0.9690 P   0  0  0  0  0  0  0  0  0  0  0  0
    8.3130   -0.5700    1.6010 O   0  0  0  0  0  0  0  0  0  0  0  0
    7.1370    0.6100   -0.7130 O   0  0  0  0  0  0  0  0  0  0  0  0
   -0.2710    0.3500   -0.4150 N   0  0  0  0  0  0  0  0  0  0  0  0
   -1.6640   -0.0770   -0.3940 C   0  0  2  0  0  0  0  0  0  0  0  0
   -2.0660   -0.4080   -1.7820 C   0  0  0  0  0  0  0  0  0  0  0  0
   -3.4150   -0.3940   -2.0440 O   0  0  0  0  0  0  0  0  0  0  0  0
   -4.1880   -1.0090   -1.0810 C   0  0  0  0  0  0  0  0  0  0  0  0
   -4.8690    0.1090   -0.3140 C   0  0  1  0  0  0  0  0  0  0  0  0
   -5.8830    0.6460   -1.1010 O   0  0  0  0  0  0  0  0  0  0  0  0
   -5.3330   -0.3040    0.9270 O   0  0  0  0  0  0  0  0  0  0  0  0
   -4.3990   -0.7440    1.7070 O   0  0  0  0  0  0  0  0  0  0  0  0
   -3.8170    1.1760   -0.1750 C   0  0  0  0  0  0  0  0  0  0  0  0
   -4.1140    2.3070   -0.4910 O   0  0  0  0  0  0  0  0  0  0  0  0
   -2.4580    0.9600    0.3140 C   0  0  0  0  0  0  0  0  0  0  0  0
  1  2  2  0
  2  3  1  0
  2 10  1  0
  3  4  1  0
  4  5  1  0
  5  6  1  0
  6  7  1  0
  7  8  1  0
  7  9  1  0
 11 10  1  6
 11 12  1  0
 11 21  1  0
 12 13  1  0
 13 14  1  0
 14 15  1  0
 15 16  1  6
 15 17  1  0
 15 19  1  0
 17 18  1  0
 19 20  2  0
 19 21  1  0
M  END
