
     RDKit          3D

 10  9  0  0  0  0  0  0  0  0999 V2000
   -3.2890   -0.1650   -0.4660 N   0  0  0  0  0  0  0  0  0  0  0  0
   -2.2590   -0.6770    0.2550 O   0  0  0  0  0  0  0  0  0  0  0  0
   -1.3090    0.2510    0.4950 N   0  0  0  0  0  0  0  0  0  0  0  0
   -0.0180    0.1140   -0.1040 C   0  0  0  0  0  0  0  0  0  0  0  0
    0.1570   -0.8960   -0.8410 O   0  0  0  0  0  0  0  0  0  0  0  0
    1.0150    1.0530    0.1110 N   0  0  0  0  0  0  0  0  0  0  0  0
    2.2700    0.8940   -0.4860 N   0  0  0  0  0  0  0  0  0  0  0  0
    3.0330   -0.2950   -0.3570 C   0  0  0  0  0  0  0  0  0  0  0  0
    4.4800   -0.3740   -1.0950 S   0  0  0  0  0  0  0  0  0  0  0  0
    2.4890   -1.7100    0.5750 S   0  0  0  0  0  0  0  0  0  0  0  0
  1  2  1  0
  2  3  1  0
  3  4  1  0
  4  5  2  0
  4  6  1  0
  6  7  1  0
  7  8  1  0
  8  9  2  0
  8 10  1  0
M  CHG  1   1   1
M  END
