
     RDKit          3D

  9  8  0  0  0  0  0  0  0  0999 V2000
   -1.2440    1.6500   -0.2490 N   0  0  0  0  0  0  0  0  0  0  0  0
   -1.4960    0.3130    0.1540 C   0  0  0  0  0  0  0  0  0  0  0  0
   -2.8540   -0.0600    0.4430 N   0  0  0  0  0  0  0  0  0  0  0  0
   -0.5630   -0.5750    0.2710 N   0  0  0  0  0  0  0  0  0  0  0  0
    0.7920   -0.3560    0.0250 C   0  0  0  0  0  0  0  0  0  0  0  0
    1.2930    0.7250   -0.4300 O   0  0  0  0  0  0  0  0  0  0  0  0
    1.7220   -1.4030    0.2880 N   0  0  0  0  0  0  0  0  0  0  0  0
    3.0510   -1.2980    0.0740 O   0  0  0  0  0  0  0  0  0  0  0  0
    3.6070    0.2250    0.6360 S   0  0  0  0  0  0  0  0  0  0  0  0
  1  2  1  0
  2  3  1  0
  2  4  2  3
  4  5  1  0
  5  6  2  0
  5  7  1  0
  7  8  1  0
  8  9  1  0
M  CHG  1   4   1
M  END
