
     RDKit          3D

 10 10  0  0  0  0  0  0  0  0999 V2000
    3.2550    0.3450    0.6630 N   0  0  0  0  0  0  0  0  0  0  0  0
    1.9700    0.1100    0.1600 C   0  0  0  0  0  0  0  0  0  0  0  0
    1.4780   -0.8060   -0.6640 N   0  0  0  0  0  0  0  0  0  0  0  0
    0.2390   -0.7850   -0.9590 N   0  0  0  0  0  0  0  0  0  0  0  0
   -0.5910    0.0450   -0.5350 C   0  0  0  0  0  0  0  0  0  0  0  0
   -2.2730    0.4160   -0.6700 S   0  0  1  0  0  0  0  0  0  0  0  0
   -3.1180   -0.4170    0.5560 N   0  0  0  0  0  0  0  0  0  0  0  0
   -2.4540    1.8950   -0.5230 O   0  0  0  0  0  0  0  0  0  0  0  0
   -2.7810    0.0390   -2.0540 O   0  0  0  0  0  0  0  0  0  0  0  0
    0.4860    1.0690    0.5190 S   0  0  0  0  0  0  0  0  0  0  0  0
  1  2  1  0
  2  3  2  0
  2 10  1  0
  3  4  1  0
  4  5  2  0
  5  6  1  0
  5 10  1  0
  6  7  1  1
  6  8  2  0
  6  9  2  0
M  CHG  1   3   1
M  END
