
     RDKit          3D

 18 18  0  0  0  0  0  0  0  0999 V2000
   -3.2030    0.6840   -2.2460 C   0  0  0  0  0  0  0  0  0  0  0  0
   -2.2940   -0.4860   -1.9180 C   0  0  0  0  0  0  0  0  0  0  0  0
   -1.9350   -0.4500   -0.4350 C   0  0  1  0  0  0  0  0  0  0  0  0
   -3.3400   -0.5590    0.2130 C   0  0  0  0  0  0  0  0  0  0  0  0
   -3.2800   -0.5450    1.7030 C   0  0  0  0  0  0  0  0  0  0  0  0
   -1.2460   -1.6670    0.0430 C   0  0  0  0  0  0  0  0  0  0  0  0
    0.1480   -1.9460   -0.2020 C   0  0  0  0  0  0  0  0  0  0  0  0
    0.9830   -1.1950   -1.1360 C   0  0  0  0  0  0  0  0  0  0  0  0
    1.1720    0.2510   -1.0420 C   0  0  0  0  0  0  0  0  0  0  0  0
    1.0610    0.9400    0.2350 C   0  0  2  0  0  0  0  0  0  0  0  0
    1.0210    2.3300   -0.1340 O   0  0  0  0  0  0  0  0  0  0  0  0
    2.2190    0.8630    1.1720 C   0  0  0  0  0  0  0  0  0  0  0  0
    3.5270    1.4210    0.7640 C   0  0  0  0  0  0  0  0  0  0  0  0
    4.2170    0.8710   -0.3990 C   0  0  0  0  0  0  0  0  0  0  0  0
    4.5950   -0.5720   -0.4630 C   0  0  0  0  0  0  0  0  0  0  0  0
    4.5350    1.5400   -1.3980 O   0  0  0  0  0  0  0  0  0  0  0  0
   -0.2550    0.7720    0.9700 C   0  0  0  0  0  0  0  0  0  0  0  0
   -1.3890    0.8590    0.0230 C   0  0  0  0  0  0  0  0  0  0  0  0
  1  2  1  0
  3  2  1  6
  3  4  1  0
  3  6  1  0
  3 18  1  0
  4  5  1  0
  6  7  1  0
  7  8  1  0
  8  9  1  0
  9 10  1  0
 10 11  1  6
 10 12  1  0
 10 17  1  0
 12 13  1  0
 13 14  1  0
 14 15  1  0
 14 16  2  0
 17 18  1  0
M  END
