
     RDKit          3D

 18 18  0  0  0  0  0  0  0  0999 V2000
   -6.3800    1.1650    0.0450 C   0  0  0  0  0  0  0  0  0  0  0  0
   -5.4160    0.5580   -0.6070 C   0  0  0  0  0  0  0  0  0  0  0  0
   -4.7130   -0.6230    0.0040 C   0  0  0  0  0  0  0  0  0  0  0  0
   -3.2510   -0.2400    0.1130 C   0  0  0  0  0  0  0  0  0  0  0  0
   -2.4530   -1.3480    0.7120 C   0  0  0  0  0  0  0  0  0  0  0  0
   -1.0110   -0.9970    0.8310 C   0  0  0  0  0  0  0  0  0  0  0  0
   -0.3400   -0.7220   -0.4490 C   0  0  0  0  0  0  0  0  0  0  0  0
   -0.9890   -0.8540   -1.5090 O   0  0  0  0  0  0  0  0  0  0  0  0
    1.0530   -0.2990   -0.5290 C   0  0  0  0  0  0  0  0  0  0  0  0
    1.8180   -0.1430    0.6280 C   0  0  0  0  0  0  0  0  0  0  0  0
    3.1400    0.2560    0.5770 C   0  0  0  0  0  0  0  0  0  0  0  0
    3.8430    0.3870    1.8630 C   0  0  0  0  0  0  0  0  0  0  0  0
    5.2540    0.8320    1.7960 C   0  0  0  0  0  0  0  0  0  0  0  0
    3.7320    0.5070   -0.6170 C   0  0  0  0  0  0  0  0  0  0  0  0
    5.0790    0.9130   -0.6590 O   0  0  0  0  0  0  0  0  0  0  0  0
    3.0100    0.3640   -1.7780 C   0  0  0  0  0  0  0  0  0  0  0  0
    1.6810   -0.0380   -1.7160 C   0  0  0  0  0  0  0  0  0  0  0  0
    0.9560   -0.1740   -3.0070 C   0  0  0  0  0  0  0  0  0  0  0  0
  1  2  2  0
  2  3  1  0
  3  4  1  0
  4  5  1  0
  5  6  1  0
  6  7  1  0
  7  8  2  0
  7  9  1  0
  9 10  2  0
  9 17  1  0
 10 11  1  0
 11 12  1  0
 11 14  2  0
 12 13  1  0
 14 15  1  0
 14 16  1  0
 16 17  2  0
 17 18  1  0
M  END
