
     RDKit          3D

 18 18  0  0  0  0  0  0  0  0999 V2000
   -4.5470    2.6110    1.3660 C   0  0  0  0  0  0  0  0  0  0  0  0
   -4.9070    1.5400    0.6890 C   0  0  0  0  0  0  0  0  0  0  0  0
   -3.9700    0.5070    0.3300 C   0  0  0  0  0  0  0  0  0  0  0  0
   -2.6310    0.5470    0.6580 C   0  0  0  0  0  0  0  0  0  0  0  0
   -1.8040   -0.4860    0.2740 C   0  0  0  0  0  0  0  0  0  0  0  0
   -0.3640   -0.4010    0.6490 C   0  0  0  0  0  0  0  0  0  0  0  0
    0.4260    0.2960   -0.4230 C   0  0  0  0  0  0  0  0  0  0  0  0
    1.8660    0.4000   -0.0200 C   0  0  1  0  0  0  0  0  0  0  0  0
    1.9180    1.1290    1.1710 O   0  0  0  0  0  0  0  0  0  0  0  0
    2.4530   -0.9520    0.1820 C   0  0  0  0  0  0  0  0  0  0  0  0
    3.9230   -0.8860    0.5760 C   0  0  0  0  0  0  0  0  0  0  0  0
    4.7470   -0.2010   -0.4800 C   0  0  0  0  0  0  0  0  0  0  0  0
    6.0730   -0.1980   -0.0140 O   0  0  0  0  0  0  0  0  0  0  0  0
    6.8650    0.4280   -0.9640 C   0  0  0  0  0  0  0  0  0  0  0  0
   -2.2610   -1.5630   -0.4280 C   0  0  0  0  0  0  0  0  0  0  0  0
   -3.6210   -1.6030   -0.7610 C   0  0  0  0  0  0  0  0  0  0  0  0
   -4.4500   -0.5900   -0.3890 C   0  0  0  0  0  0  0  0  0  0  0  0
   -5.8920   -0.6290   -0.7390 C   0  0  0  0  0  0  0  0  0  0  0  0
  1  2  2  0
  2  3  1  0
  3  4  2  0
  3 17  1  0
  4  5  1  0
  5  6  1  0
  5 15  2  0
  6  7  1  0
  7  8  1  0
  8  9  1  1
  8 10  1  0
 10 11  1  0
 11 12  1  0
 12 13  1  0
 13 14  1  0
 15 16  1  0
 16 17  2  0
 17 18  1  0
M  END
