
     RDKit          3D

 18 18  0  0  0  0  0  0  0  0999 V2000
   -4.6620   -1.9580    0.1770 C   0  0  0  0  0  0  0  0  0  0  0  0
   -3.9930   -1.0000    1.1070 C   0  0  0  0  0  0  0  0  0  0  0  0
   -3.8340    0.3930    0.6380 C   0  0  0  0  0  0  0  0  0  0  0  0
   -3.0250    0.6360   -0.5800 C   0  0  2  0  0  0  0  0  0  0  0  0
   -3.5260   -0.0190   -1.8250 C   0  0  0  0  0  0  0  0  0  0  0  0
   -1.6680    0.3620   -0.3520 O   0  0  0  0  0  0  0  0  0  0  0  0
   -0.9120    1.5010   -0.4410 C   0  0  0  0  0  0  0  0  0  0  0  0
    0.5320    1.2600   -0.2080 C   0  0  0  0  0  0  0  0  0  0  0  0
    1.4390    2.2960   -0.2600 C   0  0  0  0  0  0  0  0  0  0  0  0
    2.7910    2.1100   -0.0480 C   0  0  0  0  0  0  0  0  0  0  0  0
    3.7350    3.2420   -0.1100 C   0  0  0  0  0  0  0  0  0  0  0  0
    3.2770    0.8490    0.2270 C   0  0  0  0  0  0  0  0  0  0  0  0
    4.6250    0.6570    0.4400 O   0  0  0  0  0  0  0  0  0  0  0  0
    2.3900   -0.2080    0.2850 C   0  0  0  0  0  0  0  0  0  0  0  0
    2.9600   -1.5460    0.5830 C   0  0  1  0  0  0  0  0  0  0  0  0
    1.8860   -2.6090    0.6590 C   0  0  0  0  0  0  0  0  0  0  0  0
    3.9900   -1.9870   -0.4060 C   0  0  0  0  0  0  0  0  0  0  0  0
    1.0400    0.0090    0.0680 C   0  0  0  0  0  0  0  0  0  0  0  0
  1  2  1  0
  2  3  1  0
  3  4  1  0
  4  5  1  6
  4  6  1  0
  6  7  1  0
  7  8  1  0
  8  9  2  0
  8 18  1  0
  9 10  1  0
 10 11  1  0
 10 12  2  0
 12 13  1  0
 12 14  1  0
 14 15  1  0
 14 18  2  0
 15 16  1  6
 15 17  1  0
M  END
