
     RDKit          3D

 21 21  0  0  0  0  0  0  0  0999 V2000
   -3.5970    1.0180   -2.8490 N   0  0  0  0  0  0  0  0  0  0  0  0
   -2.7480    1.2310   -1.7300 C   0  0  0  0  0  0  0  0  0  0  0  0
   -2.1020    2.2880   -1.6930 O   0  0  0  0  0  0  0  0  0  0  0  0
   -2.6690    0.2010   -0.6710 C   0  0  0  0  0  0  0  0  0  0  0  0
   -1.7860    0.5570    0.3780 O   0  0  0  0  0  0  0  0  0  0  0  0
   -1.6580   -0.3120    1.4140 N   0  0  0  0  0  0  0  0  0  0  0  0
   -0.8190   -1.2410    1.5930 C   0  0  0  0  0  0  0  0  0  0  0  0
    0.1770   -1.5110    0.6530 N   0  0  0  0  0  0  0  0  0  0  0  0
    0.9400   -0.4500    0.0760 N   0  0  0  0  0  0  0  0  0  0  0  0
    2.3240   -0.4800    0.0590 C   0  0  0  0  0  0  0  0  0  0  0  0
    2.8950   -1.4730    0.5680 O   0  0  0  0  0  0  0  0  0  0  0  0
    3.2040    0.5920   -0.5250 C   0  0  0  0  0  0  0  0  0  0  0  0
    4.9880    0.3840   -0.4720 S   0  0  0  0  0  0  0  0  0  0  0  0
    5.6500    1.7060   -1.1750 C   0  0  0  0  0  0  0  0  0  0  0  0
    7.2610    2.1490   -1.4520 S   0  0  0  0  0  0  0  0  0  0  0  0
    4.2630    2.6990   -1.6480 S   0  0  0  0  0  0  0  0  0  0  0  0
    2.9310    1.6770   -1.0780 C   0  0  0  0  0  0  0  0  0  0  0  0
    1.2100    2.3260   -1.3610 Cl  0  0  0  0  0  0  0  0  0  0  0  0
   -0.9080   -2.0590    2.8090 C   0  0  0  0  0  0  0  0  0  0  0  0
   -1.9160   -1.8140    3.7710 N   0  0  0  0  0  0  0  0  0  0  0  0
   -0.1140   -2.9900    3.0480 O   0  0  0  0  0  0  0  0  0  0  0  0
  1  2  1  0
  2  3  2  0
  2  4  1  0
  4  5  1  0
  5  6  1  0
  6  7  2  3
  7  8  1  0
  7 19  1  0
  8  9  1  0
  9 10  1  0
 10 11  2  0
 10 12  1  0
 12 13  1  0
 12 17  2  0
 13 14  1  0
 14 15  2  0
 14 16  1  0
 16 17  1  0
 17 18  1  0
 19 20  1  0
 19 21  2  0
M  END
