
     RDKit          3D

 22 22  0  0  0  0  0  0  0  0999 V2000
    4.8700   -0.6550    2.8700 N   0  0  0  0  0  0  0  0  0  0  0  0
    4.2560    0.1820    1.9050 C   0  0  0  0  0  0  0  0  0  0  0  0
    5.0470    1.5410    1.4700 S   0  0  0  0  0  0  0  0  0  0  0  0
    2.9620   -0.1430    1.3110 C   0  0  0  0  0  0  0  0  0  0  0  0
    2.2590   -1.5020    1.8020 S   0  0  0  0  0  0  0  0  0  0  0  0
    2.4030    0.7150    0.3670 N   0  0  0  0  0  0  0  0  0  0  0  0
    1.1850    0.6250   -0.3420 C   0  0  0  0  0  0  0  0  0  0  0  0
    0.2620   -0.3820   -0.2400 C   0  0  0  0  0  0  0  0  0  0  0  0
   -0.8990   -0.3510   -0.9950 C   0  0  0  0  0  0  0  0  0  0  0  0
   -1.8410   -1.3910   -0.9140 N   0  0  0  0  0  0  0  0  0  0  0  0
   -2.3420   -2.0890    0.5680 S   0  0  2  0  0  0  0  0  0  0  0  0
   -1.3100   -1.9700    1.6320 O   0  0  0  0  0  0  0  0  0  0  0  0
   -2.7190   -3.5330    0.3760 O   0  0  0  0  0  0  0  0  0  0  0  0
   -3.7600   -1.2350    1.1260 N   0  0  0  0  0  0  0  0  0  0  0  0
   -3.4000   -0.1930    1.9090 O   0  0  0  0  0  0  0  0  0  0  0  0
   -1.1270    0.7000   -1.8550 C   0  0  0  0  0  0  0  0  0  0  0  0
   -2.3590    0.7330   -2.6440 C   0  0  2  0  0  0  0  0  0  0  0  0
   -2.0780    0.7880   -4.0180 F   0  0  0  0  0  0  0  0  0  0  0  0
   -3.2320    2.2690   -2.2980 Cl  0  0  0  0  0  0  0  0  0  0  0  0
   -0.2290    1.7090   -1.9750 N   0  0  0  0  0  0  0  0  0  0  0  0
    0.8900    1.6650   -1.2370 C   0  0  0  0  0  0  0  0  0  0  0  0
    1.7340    2.6090   -1.3460 O   0  0  0  0  0  0  0  0  0  0  0  0
  1  2  1  0
  2  3  2  0
  2  4  1  0
  4  5  2  0
  4  6  1  0
  6  7  1  0
  7  8  2  0
  7 21  1  0
  8  9  1  0
  9 10  1  0
  9 16  2  0
 11 10  1  6
 11 12  2  0
 11 13  2  0
 11 14  1  0
 14 15  1  0
 16 17  1  0
 16 20  1  0
 17 18  1  6
 17 19  1  0
 20 21  1  0
 21 22  2  0
M  END
