
     RDKit          3D

 21 21  0  0  0  0  0  0  0  0999 V2000
    5.4390    1.0820   -0.9310 N   0  0  0  0  0  0  0  0  0  0  0  0
    4.5310    0.0520   -0.5860 C   0  0  0  0  0  0  0  0  0  0  0  0
    4.9430   -1.1330   -0.3710 N   0  0  0  0  0  0  0  0  0  0  0  0
    6.2700   -1.4210   -0.4710 F   0  0  0  0  0  0  0  0  0  0  0  0
    2.8100    0.4490   -0.4700 S   0  0  0  0  0  0  0  0  0  0  0  0
    1.8260   -0.9340    0.0380 C   0  0  0  0  0  0  0  0  0  0  0  0
    2.4520   -2.1690    0.3560 S   0  0  0  0  0  0  0  0  0  0  0  0
    0.3580   -0.7940    0.1300 C   0  0  0  0  0  0  0  0  0  0  0  0
   -0.0520    0.2540    1.1800 C   0  0  0  0  0  0  0  0  0  0  0  0
    0.8410    0.8630    1.9310 N   0  0  0  0  0  0  0  0  0  0  0  0
    0.4590    1.7640    2.8380 C   0  0  0  0  0  0  0  0  0  0  0  0
    1.1260    2.4500    3.6440 O   0  0  0  0  0  0  0  0  0  0  0  0
   -1.3220    1.7990    2.6620 S   0  0  0  0  0  0  0  0  0  0  0  0
   -1.3600    0.5440    1.3300 C   0  0  0  0  0  0  0  0  0  0  0  0
   -2.6170    0.1280    0.7500 C   0  0  0  0  0  0  0  0  0  0  0  0
   -3.6850    0.6690    1.2160 O   0  0  0  0  0  0  0  0  0  0  0  0
   -2.8450   -0.8010   -0.2700 N   0  0  0  0  0  0  0  0  0  0  0  0
   -4.1390   -1.1250   -0.7480 N   0  0  0  0  0  0  0  0  0  0  0  0
   -4.8190   -0.2910   -1.6740 C   0  0  0  0  0  0  0  0  0  0  0  0
   -4.2140    0.7550   -2.0480 O   0  0  0  0  0  0  0  0  0  0  0  0
   -6.0760   -0.5890   -2.1510 O   0  0  0  0  0  0  0  0  0  0  0  0
  1  2  1  0
  2  3  2  3
  2  5  1  0
  3  4  1  0
  5  6  1  0
  6  7  2  0
  6  8  1  0
  8  9  1  0
  9 10  1  0
  9 14  2  0
 10 11  1  0
 11 12  2  0
 11 13  1  0
 13 14  1  0
 14 15  1  0
 15 16  2  0
 15 17  1  0
 17 18  1  0
 18 19  1  0
 19 20  2  0
 19 21  1  0
M  END
