
     RDKit          3D

 21 21  0  0  0  0  0  0  0  0999 V2000
    6.7910   -1.1690    0.2170 N   0  0  0  0  0  0  0  0  0  0  0  0
    5.4480   -0.9510   -0.2080 C   0  0  0  0  0  0  0  0  0  0  0  0
    5.1830    0.4810   -0.2190 N   0  0  0  0  0  0  0  0  0  0  0  0
    3.8360    0.6500   -0.6400 N   0  0  0  0  0  0  0  0  0  0  0  0
    2.8220    0.3200    0.2920 C   0  0  0  0  0  0  0  0  0  0  0  0
    3.1230   -0.0820    1.4410 O   0  0  0  0  0  0  0  0  0  0  0  0
    1.4210    0.4400   -0.0750 N   0  0  0  0  0  0  0  0  0  0  0  0
    0.4670    0.0920    0.8890 C   0  0  0  0  0  0  0  0  0  0  0  0
    0.9440   -0.4280    2.3880 S   0  0  0  0  0  0  0  0  0  0  0  0
   -0.9240    0.1240    0.6760 N   0  0  0  0  0  0  0  0  0  0  0  0
   -1.5770    0.5280   -0.5090 C   0  0  0  0  0  0  0  0  0  0  0  0
   -0.9260    0.9100   -1.4930 O   0  0  0  0  0  0  0  0  0  0  0  0
   -3.0340    0.4830   -0.5530 C   0  0  0  0  0  0  0  0  0  0  0  0
   -3.9660    0.0910    0.3540 C   0  0  0  0  0  0  0  0  0  0  0  0
   -5.2670    0.1280    0.0790 C   0  0  0  0  0  0  0  0  0  0  0  0
   -6.5630   -0.3620    1.1780 S   0  0  2  0  0  0  0  0  0  0  0  0
   -7.6630    0.6440    1.1650 O   0  0  0  0  0  0  0  0  0  0  0  0
   -5.9910   -0.4280    2.5530 O   0  0  0  0  0  0  0  0  0  0  0  0
   -5.6170    0.5970   -1.2120 C   0  0  0  0  0  0  0  0  0  0  0  0
   -7.2290    0.7900   -1.9520 Cl  0  0  0  0  0  0  0  0  0  0  0  0
   -4.0130    0.9690   -1.9710 S   0  0  0  0  0  0  0  0  0  0  0  0
  1  2  1  0
  2  3  1  0
  3  4  1  0
  4  5  1  0
  5  6  2  0
  5  7  1  0
  7  8  1  0
  8  9  2  0
  8 10  1  0
 10 11  1  0
 11 12  2  0
 11 13  1  0
 13 14  2  0
 13 21  1  0
 14 15  1  0
 16 15  1  6
 15 19  2  0
 16 17  2  0
 16 18  2  0
 19 20  1  0
 19 21  1  0
M  END
