
     RDKit          3D

 21 21  0  0  0  0  0  0  0  0999 V2000
    4.7020   -1.0560    1.8060 N   0  0  0  0  0  0  0  0  0  0  0  0
    4.8230   -0.7450    0.4360 C   0  0  0  0  0  0  0  0  0  0  0  0
    4.9370   -1.6230   -0.4610 O   0  0  0  0  0  0  0  0  0  0  0  0
    4.8210    0.6780   -0.0150 C   0  0  0  0  0  0  0  0  0  0  0  0
    3.1190    1.1660   -0.3380 S   0  0  0  0  0  0  0  0  0  0  0  0
    2.4040    0.3120   -1.7120 C   0  0  0  0  0  0  0  0  0  0  0  0
    3.2520   -0.7800   -2.5790 S   0  0  0  0  0  0  0  0  0  0  0  0
    1.0650    0.5780   -2.0760 N   0  0  0  0  0  0  0  0  0  0  0  0
    0.1700    1.7280   -1.1710 S   0  0  1  0  0  0  0  0  0  0  0  0
    1.0670    2.8460   -0.6630 O   0  0  0  0  0  0  0  0  0  0  0  0
   -0.7930    2.4220   -2.1160 O   0  0  0  0  0  0  0  0  0  0  0  0
   -0.6370    0.9980    0.1620 N   0  0  0  0  0  0  0  0  0  0  0  0
   -1.9340    0.4520   -0.0010 C   0  0  0  0  0  0  0  0  0  0  0  0
   -2.7260    0.3680   -1.1280 C   0  0  0  0  0  0  0  0  0  0  0  0
   -3.8830   -0.2280   -0.8380 N   0  0  0  0  0  0  0  0  0  0  0  0
   -3.9000   -0.5550    0.4630 C   0  0  0  0  0  0  0  0  0  0  0  0
   -5.0110   -1.2360    1.1730 C   0  0  0  0  0  0  0  0  0  0  0  0
   -4.9340   -1.5100    2.4230 N   0  0  0  0  0  0  0  0  0  0  0  0
   -6.1850   -2.2990    3.3130 Cl  0  0  0  0  0  0  0  0  0  0  0  0
   -2.7080   -0.1470    1.0050 C   0  0  0  0  0  0  0  0  0  0  0  0
   -2.2660   -0.2660    2.3080 O   0  0  0  0  0  0  0  0  0  0  0  0
  1  2  1  0
  2  3  2  0
  2  4  1  0
  4  5  1  0
  5  6  1  0
  6  7  2  0
  6  8  1  0
  9  8  1  6
  9 10  2  0
  9 11  2  0
  9 12  1  0
 12 13  1  0
 13 14  2  0
 13 20  1  0
 14 15  1  0
 15 16  1  0
 16 17  1  0
 16 20  2  0
 17 18  2  3
 18 19  1  0
 20 21  1  0
M  END
