
     RDKit          3D

 38 42  0  0  0  0  0  0  0  0999 V2000
    9.6670    1.1170   -0.4430 C   0  0  0  0  0  0  0  0  0  0  0  0
   10.3270   -0.1190   -0.1680 N   0  0  0  0  0  0  0  0  0  0  0  0
    9.5140   -1.2190   -0.6090 C   0  0  0  0  0  0  0  0  0  0  0  0
    8.1490   -1.0640   -0.0660 C   0  0  0  0  0  0  0  0  0  0  0  0
    7.0970   -0.7230   -0.8670 C   0  0  0  0  0  0  0  0  0  0  0  0
    5.8550   -0.5940   -0.2950 C   0  0  0  0  0  0  0  0  0  0  0  0
    5.5990   -0.7860    1.0450 C   0  0  0  0  0  0  0  0  0  0  0  0
    4.3420   -0.6520    1.6090 O   0  0  0  0  0  0  0  0  0  0  0  0
    3.2780   -0.3470    0.7920 C   0  0  0  0  0  0  0  0  0  0  0  0
    2.9690    0.9650    0.5500 C   0  0  0  0  0  0  0  0  0  0  0  0
    1.9060    1.2810   -0.2650 C   0  0  0  0  0  0  0  0  0  0  0  0
    1.1210    0.2940   -0.8590 C   0  0  0  0  0  0  0  0  0  0  0  0
    0.0720    0.6210   -1.6660 O   0  0  0  0  0  0  0  0  0  0  0  0
   -1.2310    0.3890   -1.3280 C   0  0  0  0  0  0  0  0  0  0  0  0
   -2.1840    0.6840   -2.2440 N   0  0  0  0  0  0  0  0  0  0  0  0
   -3.4370    0.4820   -1.9600 N   0  0  0  0  0  0  0  0  0  0  0  0
   -3.8610   -0.0180   -0.7770 C   0  0  0  0  0  0  0  0  0  0  0  0
   -5.2540   -0.2110   -0.6010 N   0  0  0  0  0  0  0  0  0  0  0  0
   -5.9550    0.6730    0.0100 C   0  0  0  0  0  0  0  0  0  0  0  0
   -5.1960    1.8340    0.4790 C   0  0  0  0  0  0  0  0  0  0  0  0
   -4.0780    2.0110   -0.0290 O   0  0  0  0  0  0  0  0  0  0  0  0
   -5.6240    2.7640    1.4530 O   0  0  0  0  0  0  0  0  0  0  0  0
   -6.9210    3.2910    1.6720 C   0  0  0  0  0  0  0  0  0  0  0  0
   -7.9080    2.8210    0.6240 C   0  0  0  0  0  0  0  0  0  0  0  0
   -8.3620    1.4050    0.8770 C   0  0  0  0  0  0  0  0  0  0  0  0
   -7.4110    0.4910    0.1970 C   0  0  0  0  0  0  0  0  0  0  0  0
   -7.9620   -0.6020   -0.2830 C   0  0  0  0  0  0  0  0  0  0  0  0
   -7.2320   -1.6670   -0.9970 C   0  0  0  0  0  0  0  0  0  0  0  0
   -5.7770   -1.4550   -1.1400 C   0  0  2  0  0  0  0  0  0  0  0  0
   -4.9800   -2.5860   -0.4950 C   0  0  0  0  0  0  0  0  0  0  0  0
   -2.9580   -0.3190    0.1460 N   0  0  0  0  0  0  0  0  0  0  0  0
   -1.6410   -0.1170   -0.1250 C   0  0  0  0  0  0  0  0  0  0  0  0
   -0.8460   -0.4180    0.7930 O   0  0  0  0  0  0  0  0  0  0  0  0
    1.4400   -1.0170   -0.6110 C   0  0  0  0  0  0  0  0  0  0  0  0
    0.5160   -2.2960   -1.3940 Cl  0  0  0  0  0  0  0  0  0  0  0  0
    2.5220   -1.3400    0.2190 C   0  0  0  0  0  0  0  0  0  0  0  0
    6.6740   -1.1300    1.8420 C   0  0  0  0  0  0  0  0  0  0  0  0
    7.9380   -1.2650    1.2780 C   0  0  0  0  0  0  0  0  0  0  0  0
  1  2  1  0
  2  3  1  0
  3  4  1  0
  4  5  2  0
  4 38  1  0
  5  6  1  0
  6  7  2  0
  7  8  1  0
  7 37  1  0
  8  9  1  0
  9 10  2  0
  9 36  1  0
 10 11  1  0
 11 12  2  0
 12 13  1  0
 12 34  1  0
 13 14  1  0
 14 15  2  0
 14 32  1  0
 15 16  1  0
 16 17  2  0
 17 18  1  0
 17 31  1  0
 18 19  2  0
 18 29  1  0
 19 20  1  0
 19 26  1  0
 20 21  2  0
 20 22  1  0
 22 23  1  0
 23 24  1  0
 24 25  1  0
 25 26  1  0
 26 27  2  0
 27 28  1  0
 28 29  1  0
 29 30  1  1
 31 32  1  0
 32 33  2  0
 34 35  1  0
 34 36  2  0
 37 38  2  0
M  CHG  2   2   1  18   1
M  END
