
     RDKit          3D

 38 42  0  0  0  0  0  0  0  0999 V2000
    3.5120   -0.9650   -1.3420 C   0  0  0  0  0  0  0  0  0  0  0  0
    3.9560   -1.9960   -0.5160 O   0  0  0  0  0  0  0  0  0  0  0  0
    5.1120   -1.6390    0.1720 C   0  0  2  0  0  0  0  0  0  0  0  0
    6.2280   -2.5460   -0.3450 C   0  0  0  0  0  0  0  0  0  0  0  0
    5.0020   -1.8850    1.6450 C   0  0  0  0  0  0  0  0  0  0  0  0
    3.9570   -1.1720    2.2670 O   0  0  0  0  0  0  0  0  0  0  0  0
    3.8710    0.2110    2.2590 C   0  0  0  0  0  0  0  0  0  0  0  0
    4.8160    0.8160    1.6410 O   0  0  0  0  0  0  0  0  0  0  0  0
    2.7870    0.9940    2.9000 C   0  0  0  0  0  0  0  0  0  0  0  0
    1.6460    1.1540    2.0350 N   0  0  0  0  0  0  0  0  0  0  0  0
    0.6390    0.3230    2.0200 C   0  0  0  0  0  0  0  0  0  0  0  0
    0.6560   -0.6720    2.8120 O   0  0  0  0  0  0  0  0  0  0  0  0
   -0.4890    0.4910    1.1410 C   0  0  0  0  0  0  0  0  0  0  0  0
   -1.4710   -0.5260    1.3010 C   0  0  0  0  0  0  0  0  0  0  0  0
   -2.6820   -0.7870    0.7190 N   0  0  2  0  0  0  0  0  0  0  0  0
   -3.5300   -1.6180    1.6800 C   0  0  0  0  0  0  0  0  0  0  0  0
   -4.8970   -1.6280    1.1030 C   0  0  0  0  0  0  0  0  0  0  0  0
   -4.9450   -2.0940   -0.2640 N   0  0  0  0  0  0  0  0  0  0  0  0
   -5.7030   -3.3300   -0.3780 C   0  0  0  0  0  0  0  0  0  0  0  0
   -4.7390   -4.3790   -0.0900 N   0  0  0  0  0  0  0  0  0  0  0  0
   -3.4760   -3.9220   -0.5840 C   0  0  0  0  0  0  0  0  0  0  0  0
   -3.6890   -2.4420   -0.8370 C   0  0  1  0  0  0  0  0  0  0  0  0
   -3.8770   -2.3290   -2.3600 C   0  0  0  0  0  0  0  0  0  0  0  0
   -2.5200   -1.6110   -0.4660 C   0  0  0  0  0  0  0  0  0  0  0  0
   -0.4310    1.5770    0.3270 C   0  0  0  0  0  0  0  0  0  0  0  0
   -1.4770    1.8040   -0.5510 C   0  0  0  0  0  0  0  0  0  0  0  0
   -1.4570    2.8780   -1.3880 C   0  0  0  0  0  0  0  0  0  0  0  0
   -0.3840    3.7250   -1.3410 C   0  0  0  0  0  0  0  0  0  0  0  0
   -0.3560    4.8260   -2.1940 C   0  0  0  0  0  0  0  0  0  0  0  0
    0.7000    5.6980   -2.1780 C   0  0  0  0  0  0  0  0  0  0  0  0
    0.6880    7.0820   -3.2840 Cl  0  0  0  0  0  0  0  0  0  0  0  0
    1.7420    5.4840   -1.3140 C   0  0  0  0  0  0  0  0  0  0  0  0
    2.8630    6.4600   -1.3400 C   0  0  0  0  0  0  0  0  0  0  0  0
    1.7410    4.3850   -0.4440 C   0  0  0  0  0  0  0  0  0  0  0  0
    0.6800    3.5180   -0.4660 C   0  0  0  0  0  0  0  0  0  0  0  0
    0.6320    2.4270    0.3640 N   0  0  0  0  0  0  0  0  0  0  0  0
    1.6550    2.2340    1.1940 C   0  0  0  0  0  0  0  0  0  0  0  0
    2.6290    2.9940    1.2440 O   0  0  0  0  0  0  0  0  0  0  0  0
  1  2  1  0
  2  3  1  0
  3  4  1  6
  3  5  1  0
  5  6  1  0
  6  7  1  0
  7  8  2  0
  7  9  1  0
  9 10  1  0
 10 11  1  0
 10 37  1  0
 11 12  2  0
 11 13  1  0
 13 14  1  0
 13 25  2  0
 15 14  1  1
 15 16  1  0
 15 24  1  0
 16 17  1  0
 17 18  1  0
 18 19  1  0
 18 22  1  0
 19 20  1  0
 20 21  1  0
 21 22  1  0
 22 23  1  6
 22 24  1  0
 25 26  1  0
 25 36  1  0
 26 27  2  0
 27 28  1  0
 28 29  2  0
 28 35  1  0
 29 30  1  0
 30 31  1  0
 30 32  2  0
 32 33  1  0
 32 34  1  0
 34 35  2  0
 35 36  1  0
 36 37  1  0
 37 38  2  0
M  CHG  2  15   1  20   1
M  END
