
     RDKit          3D

 38 42  0  0  0  0  0  0  0  0999 V2000
    8.1150    2.8830    0.4560 C   0  0  0  0  0  0  0  0  0  0  0  0
    7.0710    1.9730    0.2860 O   0  0  0  0  0  0  0  0  0  0  0  0
    7.0520    0.9000   -0.5540 C   0  0  0  0  0  0  0  0  0  0  0  0
    8.1180    0.5510   -1.3560 C   0  0  0  0  0  0  0  0  0  0  0  0
    8.0610   -0.5450   -2.1890 C   0  0  0  0  0  0  0  0  0  0  0  0
    6.9360   -1.3220   -2.2430 C   0  0  0  0  0  0  0  0  0  0  0  0
    5.8470   -0.9890   -1.4430 C   0  0  0  0  0  0  0  0  0  0  0  0
    5.9010    0.0970   -0.6180 C   0  0  0  0  0  0  0  0  0  0  0  0
    4.8270    0.5050    0.1990 N   0  0  0  0  0  0  0  0  0  0  0  0
    3.5300   -0.0650    0.2680 C   0  0  0  0  0  0  0  0  0  0  0  0
    3.2510   -1.0440   -0.4460 O   0  0  0  0  0  0  0  0  0  0  0  0
    2.5010    0.5080    1.1870 C   0  0  0  0  0  0  0  0  0  0  0  0
    1.2400   -0.0820    1.0850 O   0  0  0  0  0  0  0  0  0  0  0  0
    0.4930   -0.1370   -0.0780 C   0  0  0  0  0  0  0  0  0  0  0  0
    1.0520    0.3860   -1.1160 O   0  0  0  0  0  0  0  0  0  0  0  0
   -0.8440   -0.7290   -0.1860 C   0  0  0  0  0  0  0  0  0  0  0  0
   -0.9090   -2.0820   -0.5730 C   0  0  0  0  0  0  0  0  0  0  0  0
    0.3870   -2.7980   -0.8590 C   0  0  0  0  0  0  0  0  0  0  0  0
    0.9310   -2.2640   -2.4660 Cl  0  0  0  0  0  0  0  0  0  0  0  0
   -2.0790   -2.6950   -0.6860 N   0  0  0  0  0  0  0  0  0  0  0  0
   -3.2380   -2.0760   -0.4470 C   0  0  0  0  0  0  0  0  0  0  0  0
   -4.4510   -2.7940   -0.5910 N   0  0  0  0  0  0  0  0  0  0  0  0
   -5.1860   -2.8800   -1.8320 C   0  0  0  0  0  0  0  0  0  0  0  0
   -6.4710   -3.6050   -1.5190 C   0  0  0  0  0  0  0  0  0  0  0  0
   -6.4620   -3.9090   -0.0400 C   0  0  0  0  0  0  0  0  0  0  0  0
   -5.0970   -3.5190    0.4700 C   0  0  0  0  0  0  0  0  0  0  0  0
   -3.1800   -0.7960   -0.0810 N   0  0  0  0  0  0  0  0  0  0  0  0
   -2.0170   -0.0800    0.0660 C   0  0  0  0  0  0  0  0  0  0  0  0
   -2.1190    1.2860    0.5590 C   0  0  0  0  0  0  0  0  0  0  0  0
   -1.1360    2.2250    0.5770 C   0  0  0  0  0  0  0  0  0  0  0  0
   -1.2930    3.5180    1.1190 C   0  0  0  0  0  0  0  0  0  0  0  0
   -2.4820    3.8960    1.6680 C   0  0  0  0  0  0  0  0  0  0  0  0
   -3.4980    2.9760    1.6660 C   0  0  0  0  0  0  0  0  0  0  0  0
   -3.3290    1.7060    1.1310 C   0  0  0  0  0  0  0  0  0  0  0  0
   -4.6370    3.6290    2.2890 C   0  0  0  0  0  0  0  0  0  0  0  0
   -5.6860    3.0690    2.6750 O   0  0  0  0  0  0  0  0  0  0  0  0
   -4.3750    5.0910    2.4060 C   0  0  0  0  0  0  0  0  0  0  0  0
   -2.9290    5.1120    2.2830 N   0  0  0  0  0  0  0  0  0  0  0  0
  1  2  1  0
  2  3  1  0
  3  4  2  0
  3  8  1  0
  4  5  1  0
  5  6  2  0
  6  7  1  0
  7  8  2  0
  8  9  1  0
  9 10  1  0
 10 11  2  0
 10 12  1  0
 12 13  1  0
 13 14  1  0
 14 15  2  0
 14 16  1  0
 16 17  2  0
 16 28  1  0
 17 18  1  0
 17 20  1  0
 18 19  1  0
 20 21  2  0
 21 22  1  0
 21 27  1  0
 22 23  1  0
 22 26  1  0
 23 24  1  0
 24 25  1  0
 25 26  1  0
 27 28  2  0
 28 29  1  0
 29 30  2  0
 29 34  1  0
 30 31  1  0
 31 32  2  0
 32 33  1  0
 32 38  1  0
 33 34  2  0
 33 35  1  0
 35 36  2  0
 35 37  1  0
 37 38  1  0
M  CHG  2  20   1  27   1
M  END
