
     RDKit          3D

 38 42  0  0  0  0  0  0  0  0999 V2000
   -7.3760   -2.7150   -0.9600 C   0  0  0  0  0  0  0  0  0  0  0  0
   -7.8430   -1.7080    0.0610 C   0  0  0  0  0  0  0  0  0  0  0  0
   -6.9990   -0.4940   -0.0380 C   0  0  0  0  0  0  0  0  0  0  0  0
   -5.8440   -0.4120    0.6370 N   0  0  0  0  0  0  0  0  0  0  0  0
   -5.0390    0.6660    0.5780 C   0  0  0  0  0  0  0  0  0  0  0  0
   -5.4540    1.7120   -0.2090 C   0  0  0  0  0  0  0  0  0  0  0  0
   -6.6360    1.5840   -0.8690 C   0  0  0  0  0  0  0  0  0  0  0  0
   -7.0320    2.5650   -1.6070 O   0  0  0  0  0  0  0  0  0  0  0  0
   -7.3910    0.5310   -0.8020 O   0  0  0  0  0  0  0  0  0  0  0  0
   -4.6700    2.9290   -0.3760 C   0  0  0  0  0  0  0  0  0  0  0  0
   -3.2310    2.8020    0.0450 C   0  0  0  0  0  0  0  0  0  0  0  0
   -2.8070    1.5620    0.4370 N   0  0  2  0  0  0  0  0  0  0  0  0
   -2.2920    0.5810   -0.5240 C   0  0  0  0  0  0  0  0  0  0  0  0
   -0.8570    0.3530   -0.2440 C   0  0  0  0  0  0  0  0  0  0  0  0
    0.1670    1.2710   -0.3340 N   0  0  0  0  0  0  0  0  0  0  0  0
    1.3370    0.6440   -0.1460 C   0  0  0  0  0  0  0  0  0  0  0  0
    2.7300    1.0410   -0.1130 C   0  0  2  0  0  0  0  0  0  0  0  0
    3.0370    2.4530    0.2450 C   0  0  0  0  0  0  0  0  0  0  0  0
    4.5240    2.4550    0.6270 C   0  0  0  0  0  0  0  0  0  0  0  0
    5.3930    1.7070   -0.3830 C   0  0  0  0  0  0  0  0  0  0  0  0
    4.8950    0.4710   -0.8130 N   0  0  0  0  0  0  0  0  0  0  0  0
    5.0960   -0.8840   -0.7880 C   0  0  0  0  0  0  0  0  0  0  0  0
    4.2680   -1.5650   -1.5390 O   0  0  0  0  0  0  0  0  0  0  0  0
    6.0410   -1.7240   -0.1010 C   0  0  0  0  0  0  0  0  0  0  0  0
    5.9750   -3.0860   -0.2890 O   0  0  0  0  0  0  0  0  0  0  0  0
    6.8890   -3.7100    0.3870 C   0  0  0  0  0  0  0  0  0  0  0  0
    7.6300   -2.8030    1.0830 C   0  0  0  0  0  0  0  0  0  0  0  0
    7.0610   -1.5390    0.7530 C   0  0  0  0  0  0  0  0  0  0  0  0
    7.5840   -0.2790    1.2980 C   0  0  0  0  0  0  0  0  0  0  0  0
    3.4540    0.7520   -1.4240 C   0  0  0  0  0  0  0  0  0  0  0  0
    1.0100   -0.6660    0.0630 N   0  0  0  0  0  0  0  0  0  0  0  0
   -0.2960   -0.8560    0.0130 C   0  0  0  0  0  0  0  0  0  0  0  0
   -0.8570   -2.2020    0.1230 C   0  0  0  0  0  0  0  0  0  0  0  0
   -0.4700   -3.0390    1.0540 C   0  0  0  0  0  0  0  0  0  0  0  0
    0.4760   -2.8390    2.0930 C   0  0  0  0  0  0  0  0  0  0  0  0
    0.8600   -3.8330    2.8570 O   0  0  0  0  0  0  0  0  0  0  0  0
    1.2140   -1.3370    2.5210 Cl  0  0  0  0  0  0  0  0  0  0  0  0
   -3.7630    0.7880    1.2850 C   0  0  0  0  0  0  0  0  0  0  0  0
  1  2  1  0
  2  3  1  0
  3  4  2  0
  3  9  1  0
  4  5  1  0
  5  6  2  0
  5 38  1  0
  6  7  1  0
  6 10  1  0
  7  8  2  0
  7  9  1  0
 10 11  1  0
 11 12  1  0
 12 13  1  6
 12 38  1  0
 13 14  1  0
 14 15  1  0
 14 32  2  0
 15 16  1  0
 17 16  1  6
 16 31  2  0
 17 18  1  0
 17 30  1  0
 18 19  1  0
 19 20  1  0
 20 21  1  0
 21 22  1  0
 21 30  1  0
 22 23  2  0
 22 24  1  0
 24 25  1  0
 24 28  2  0
 25 26  1  0
 26 27  2  0
 27 28  1  0
 28 29  1  0
 31 32  1  0
 32 33  1  0
 33 34  2  3
 34 35  1  0
 35 36  2  0
 35 37  1  0
M  CHG  2   4   1  12   1
M  END
