
     RDKit          3D

 38 42  0  0  0  0  0  0  0  0999 V2000
   -9.5070    1.5490    1.4760 C   0  0  0  0  0  0  0  0  0  0  0  0
   -8.5670    1.0290    0.4910 N   0  0  2  0  0  0  0  0  0  0  0  0
   -9.3120    0.2150   -0.4480 C   0  0  0  0  0  0  0  0  0  0  0  0
   -8.4750   -0.5080   -1.4430 C   0  0  0  0  0  0  0  0  0  0  0  0
   -7.0040   -0.5090   -1.1890 C   0  0  0  0  0  0  0  0  0  0  0  0
   -6.5880   -0.3100    0.2260 C   0  0  1  0  0  0  0  0  0  0  0  0
   -5.4500    0.6760    0.2220 C   0  0  0  0  0  0  0  0  0  0  0  0
   -5.6060    1.8710    0.6490 O   0  0  0  0  0  0  0  0  0  0  0  0
   -4.1980    0.2740   -0.2630 N   0  0  0  0  0  0  0  0  0  0  0  0
   -3.8460   -1.0330   -0.7580 C   0  0  0  0  0  0  0  0  0  0  0  0
   -2.4840   -1.1800   -0.0380 C   0  0  0  0  0  0  0  0  0  0  0  0
   -1.8620    0.0800   -0.3360 N   0  0  2  0  0  0  0  0  0  0  0  0
   -0.9990    0.5860    0.6640 C   0  0  0  0  0  0  0  0  0  0  0  0
    0.2990   -0.0100    0.9720 C   0  0  0  0  0  0  0  0  0  0  0  0
    1.2380   -0.0520   -0.0260 O   0  0  0  0  0  0  0  0  0  0  0  0
    1.2670   -0.8410   -1.1210 C   0  0  0  0  0  0  0  0  0  0  0  0
    0.4300   -1.6900   -1.3840 O   0  0  0  0  0  0  0  0  0  0  0  0
    2.4030   -0.6890   -2.1040 C   0  0  0  0  0  0  0  0  0  0  0  0
    3.5550   -1.4270   -1.5760 N   0  0  0  0  0  0  0  0  0  0  0  0
    3.8690   -2.6930   -1.7330 N   0  0  0  0  0  0  0  0  0  0  0  0
    5.0060   -2.9770   -1.0720 C   0  0  0  0  0  0  0  0  0  0  0  0
    5.4510   -1.8240   -0.4510 C   0  0  0  0  0  0  0  0  0  0  0  0
    6.5380   -1.5340    0.3330 C   0  0  0  0  0  0  0  0  0  0  0  0
    6.7300   -0.2720    0.8100 C   0  0  0  0  0  0  0  0  0  0  0  0
    7.8320    0.0460    1.6080 O   0  0  0  0  0  0  0  0  0  0  0  0
    9.0360    0.4530    1.0170 C   0  0  0  0  0  0  0  0  0  0  0  0
    9.9920   -0.4880    0.6830 C   0  0  0  0  0  0  0  0  0  0  0  0
   11.1860   -0.0870    0.0950 C   0  0  0  0  0  0  0  0  0  0  0  0
   11.4560    1.2370   -0.1700 C   0  0  0  0  0  0  0  0  0  0  0  0
   12.6620    1.6530   -0.7650 O   0  0  0  0  0  0  0  0  0  0  0  0
   10.5010    2.1740    0.1640 C   0  0  0  0  0  0  0  0  0  0  0  0
   10.8250    3.8570   -0.1570 Cl  0  0  0  0  0  0  0  0  0  0  0  0
    9.2950    1.7760    0.7570 C   0  0  0  0  0  0  0  0  0  0  0  0
    5.8210    0.7120    0.4980 C   0  0  0  0  0  0  0  0  0  0  0  0
    4.7250    0.4200   -0.2920 C   0  0  0  0  0  0  0  0  0  0  0  0
    4.5120   -0.8590   -0.7880 C   0  0  0  0  0  0  0  0  0  0  0  0
   -3.0000    1.0520   -0.3740 C   0  0  0  0  0  0  0  0  0  0  0  0
   -7.6280    0.1670    1.1710 C   0  0  0  0  0  0  0  0  0  0  0  0
  2  1  1  1
  2  3  1  0
  2 38  1  0
  3  4  1  0
  4  5  1  0
  5  6  1  0
  6  7  1  6
  6 38  1  0
  7  8  2  0
  7  9  1  0
  9 10  1  0
  9 37  1  0
 10 11  1  0
 11 12  1  0
 12 13  1  1
 12 37  1  0
 13 14  1  0
 14 15  1  0
 15 16  1  0
 16 17  2  0
 16 18  1  0
 18 19  1  0
 19 20  1  0
 19 36  1  0
 20 21  2  0
 21 22  1  0
 22 23  2  0
 22 36  1  0
 23 24  1  0
 24 25  1  0
 24 34  2  0
 25 26  1  0
 26 27  2  0
 26 33  1  0
 27 28  1  0
 28 29  2  0
 29 30  1  0
 29 31  1  0
 31 32  1  0
 31 33  2  0
 34 35  1  0
 35 36  2  0
M  CHG  2   2   1  12   1
M  END
