
     RDKit          3D

 38 41  0  0  0  0  0  0  0  0999 V2000
   -2.7960   -2.3910   -2.6400 C   0  0  0  0  0  0  0  0  0  0  0  0
   -3.9250   -1.5950   -2.0480 C   0  0  2  0  0  0  0  0  0  0  0  0
   -4.9690   -1.3360   -3.1520 C   0  0  0  0  0  0  0  0  0  0  0  0
   -3.5160   -0.3170   -1.4070 C   0  0  0  0  0  0  0  0  0  0  0  0
   -2.5820   -0.5710   -0.3040 N   0  0  0  0  0  0  0  0  0  0  0  0
   -1.7540    0.6040   -0.1080 C   0  0  0  0  0  0  0  0  0  0  0  0
   -0.3920    0.3220    0.3930 C   0  0  1  0  0  0  0  0  0  0  0  0
   -0.3380   -0.3770    1.5790 O   0  0  0  0  0  0  0  0  0  0  0  0
    0.6430   -0.1480   -0.5590 C   0  0  2  0  0  0  0  0  0  0  0  0
    0.6290   -1.6140   -0.9000 C   0  0  0  0  0  0  0  0  0  0  0  0
    0.8180   -2.5230    0.2250 C   0  0  0  0  0  0  0  0  0  0  0  0
   -0.2600   -3.0620    0.8870 C   0  0  0  0  0  0  0  0  0  0  0  0
   -0.1070   -3.9160    1.9630 C   0  0  0  0  0  0  0  0  0  0  0  0
    1.1420   -4.2650    2.4210 C   0  0  0  0  0  0  0  0  0  0  0  0
    2.2390   -3.7370    1.7730 C   0  0  0  0  0  0  0  0  0  0  0  0
    2.0660   -2.8790    0.6910 C   0  0  0  0  0  0  0  0  0  0  0  0
    1.9960    0.1050   -0.0050 N   0  0  0  0  0  0  0  0  0  0  0  0
    2.9410    0.9130   -0.6860 C   0  0  0  0  0  0  0  0  0  0  0  0
    2.6180    1.4220   -1.7810 O   0  0  0  0  0  0  0  0  0  0  0  0
    4.2090    1.1640   -0.1910 O   0  0  0  0  0  0  0  0  0  0  0  0
    5.0830    1.9700   -0.9200 C   0  0  1  0  0  0  0  0  0  0  0  0
    5.6140    3.1510   -0.1730 C   0  0  0  0  0  0  0  0  0  0  0  0
    6.9200    3.3520   -0.5220 O   0  0  0  0  0  0  0  0  0  0  0  0
    7.2730    2.4780   -1.5150 C   0  0  1  0  0  0  0  0  0  0  0  0
    8.5250    1.9090   -1.3360 O   0  0  0  0  0  0  0  0  0  0  0  0
    8.4190    1.1140   -0.1960 C   0  0  0  0  0  0  0  0  0  0  0  0
    7.0250    0.5510   -0.1930 C   0  0  0  0  0  0  0  0  0  0  0  0
    6.3600    1.2600   -1.3260 C   0  0  1  0  0  0  0  0  0  0  0  0
   -3.5110   -0.8670    1.1480 S   0  0  1  0  0  0  0  0  0  0  0  0
   -4.4190   -2.0220    0.8720 O   0  0  0  0  0  0  0  0  0  0  0  0
   -2.6300   -1.2570    2.2740 O   0  0  0  0  0  0  0  0  0  0  0  0
   -4.4890    0.5440    1.5630 C   0  0  0  0  0  0  0  0  0  0  0  0
   -4.0430    1.5410    2.4020 C   0  0  0  0  0  0  0  0  0  0  0  0
   -4.8230    2.6410    2.7160 C   0  0  0  0  0  0  0  0  0  0  0  0
   -6.0830    2.7720    2.1930 C   0  0  0  0  0  0  0  0  0  0  0  0
   -6.8610    3.9280    2.5430 N   0  0  0  0  0  0  0  0  0  0  0  0
   -6.5510    1.8000    1.3590 C   0  0  0  0  0  0  0  0  0  0  0  0
   -5.7680    0.7030    1.0490 C   0  0  0  0  0  0  0  0  0  0  0  0
  2  1  1  6
  2  3  1  0
  2  4  1  0
  4  5  1  0
  5  6  1  0
 29  5  1  6
  6  7  1  0
  7  8  1  1
  7  9  1  0
  9 10  1  1
  9 17  1  0
 10 11  1  0
 11 12  2  0
 11 16  1  0
 12 13  1  0
 13 14  2  0
 14 15  1  0
 15 16  2  0
 17 18  1  0
 18 19  2  0
 18 20  1  0
 21 20  1  1
 21 22  1  0
 21 28  1  0
 22 23  1  0
 24 23  1  1
 24 25  1  0
 24 28  1  0
 25 26  1  0
 26 27  1  0
 28 27  1  1
 29 30  2  0
 29 31  2  0
 29 32  1  0
 32 33  2  0
 32 38  1  0
 33 34  1  0
 34 35  2  0
 35 36  1  0
 35 37  1  0
 37 38  2  0
M  END
