
     RDKit          3D

 38 43  0  0  0  0  0  0  0  0999 V2000
    9.7890    1.5060    0.6720 C   0  0  0  0  0  0  0  0  0  0  0  0
    8.3170    1.9270    0.7730 C   0  0  0  0  0  0  0  0  0  0  0  0
    8.0300    2.6520   -0.3470 O   0  0  0  0  0  0  0  0  0  0  0  0
    6.7650    3.1360   -0.4760 C   0  0  0  0  0  0  0  0  0  0  0  0
    5.6950    2.1180   -0.5130 C   0  0  0  0  0  0  0  0  0  0  0  0
    5.8370    0.8270   -0.4400 O   0  0  0  0  0  0  0  0  0  0  0  0
    4.6780    0.2020   -0.5040 C   0  0  0  0  0  0  0  0  0  0  0  0
    4.4710   -1.1720   -0.4550 O   0  0  0  0  0  0  0  0  0  0  0  0
    4.1670   -1.7500    0.7970 C   0  0  0  0  0  0  0  0  0  0  0  0
    3.6690    1.1540   -0.6300 C   0  0  0  0  0  0  0  0  0  0  0  0
    2.2320    0.8720   -0.7390 C   0  0  0  0  0  0  0  0  0  0  0  0
    1.6310   -0.3320   -0.7520 N   0  0  0  0  0  0  0  0  0  0  0  0
    0.3000   -0.1870   -0.8700 C   0  0  0  0  0  0  0  0  0  0  0  0
   -0.7680   -1.0790   -0.9320 C   0  0  0  0  0  0  0  0  0  0  0  0
   -2.0330   -0.5470   -1.0570 C   0  0  0  0  0  0  0  0  0  0  0  0
   -2.2560    0.7880   -1.1180 N   0  0  0  0  0  0  0  0  0  0  0  0
   -1.2580    1.6670   -1.0610 C   0  0  0  0  0  0  0  0  0  0  0  0
    0.0320    1.1610   -0.9350 C   0  0  0  0  0  0  0  0  0  0  0  0
    1.2410    1.7710   -0.8520 N   0  0  0  0  0  0  0  0  0  0  0  0
   -3.0440   -1.6330   -1.1090 C   0  0  2  0  0  0  0  0  0  0  0  0
   -3.8440   -1.5890    0.0780 N   0  0  0  0  0  0  0  0  0  0  0  0
   -5.2110   -1.9970   -0.1770 C   0  0  0  0  0  0  0  0  0  0  0  0
   -6.1820   -0.8530   -0.1100 C   0  0  1  0  0  0  0  0  0  0  0  0
   -6.1850   -0.2270    1.1620 O   0  0  0  0  0  0  0  0  0  0  0  0
   -6.6920    1.0520    0.9150 C   0  0  0  0  0  0  0  0  0  0  0  0
   -7.3100    2.0190    1.6870 C   0  0  0  0  0  0  0  0  0  0  0  0
   -7.7150    3.2240    1.1580 C   0  0  0  0  0  0  0  0  0  0  0  0
   -7.5150    3.5130   -0.1750 C   0  0  0  0  0  0  0  0  0  0  0  0
   -6.8930    2.5460   -0.9620 C   0  0  0  0  0  0  0  0  0  0  0  0
   -6.4900    1.3400   -0.4260 C   0  0  0  0  0  0  0  0  0  0  0  0
   -5.8580    0.2100   -0.9600 O   0  0  0  0  0  0  0  0  0  0  0  0
   -2.2490   -2.8880   -1.2630 C   0  0  0  0  0  0  0  0  0  0  0  0
   -0.8060   -2.5430   -0.8890 C   0  0  2  0  0  0  0  0  0  0  0  0
   -0.5100   -3.1160    0.3880 N   0  0  1  0  0  0  0  0  0  0  0  0
    0.7920   -3.7900    0.3440 C   0  0  0  0  0  0  0  0  0  0  0  0
   -0.5980   -2.1940    1.4850 C   0  0  0  0  0  0  0  0  0  0  0  0
    4.3420    2.3550   -0.6330 C   0  0  0  0  0  0  0  0  0  0  0  0
    3.5760    3.9220   -0.7690 Cl  0  0  0  0  0  0  0  0  0  0  0  0
  1  2  1  0
  2  3  1  0
  3  4  1  0
  4  5  1  0
  5  6  1  0
  5 37  2  0
  6  7  1  0
  7  8  1  0
  7 10  2  0
  8  9  1  0
 10 11  1  0
 10 37  1  0
 11 12  2  0
 11 19  1  0
 12 13  1  0
 13 14  2  0
 13 18  1  0
 14 15  1  0
 14 33  1  0
 15 16  2  0
 15 20  1  0
 16 17  1  0
 17 18  2  0
 18 19  1  0
 20 21  1  1
 20 32  1  0
 21 22  1  0
 23 22  1  1
 23 24  1  0
 23 31  1  0
 24 25  1  0
 25 26  2  0
 25 30  1  0
 26 27  1  0
 27 28  2  0
 28 29  1  0
 29 30  2  0
 30 31  1  0
 33 32  1  1
 33 34  1  0
 34 35  1  6
 34 36  1  0
 37 38  1  0
M  CHG  2  21   1  34   1
M  END
