
     RDKit          3D

 11 11  0  0  0  0  0  0  0  0999 V2000
   -1.5850    1.5960   -0.3070 N   0  0  0  0  0  0  0  0  0  0  0  0
   -1.1440    0.3870    0.3140 C   0  0  1  0  0  0  0  0  0  0  0  0
   -2.1540   -0.6910    0.0220 C   0  0  0  0  0  0  0  0  0  0  0  0
   -2.3070   -0.9250   -1.3350 O   0  0  0  0  0  0  0  0  0  0  0  0
    0.2310   -0.0210   -0.1760 C   0  0  2  0  0  0  0  0  0  0  0  0
    0.6720   -1.1790    0.4070 O   0  0  0  0  0  0  0  0  0  0  0  0
    1.9600   -1.1580    0.8790 C   0  0  0  0  0  0  0  0  0  0  0  0
    2.9520   -0.5910   -0.1460 C   0  0  0  0  0  0  0  0  0  0  0  0
    2.5360    0.7760   -0.3130 O   0  0  0  0  0  0  0  0  0  0  0  0
    1.2060    1.0610    0.0680 C   0  0  0  0  0  0  0  0  0  0  0  0
    0.9120    2.1770    0.5780 O   0  0  0  0  0  0  0  0  0  0  0  0
  2  1  1  6
  2  3  1  0
  2  5  1  0
  3  4  1  0
  5  6  1  1
  5 10  1  0
  6  7  1  0
  7  8  1  0
  8  9  1  0
  9 10  1  0
 10 11  2  0
M  CHG  1   1   1
M  END
