
     RDKit          3D

 11 10  0  0  0  0  0  0  0  0999 V2000
    3.2280   -0.5500    0.5550 C   0  0  0  0  0  0  0  0  0  0  0  0
    2.1780   -1.3130    0.0960 O   0  0  0  0  0  0  0  0  0  0  0  0
    1.5060   -0.7580   -0.9640 C   0  0  0  0  0  0  0  0  0  0  0  0
    0.8880    0.5870   -0.6760 C   0  0  1  0  0  0  0  0  0  0  0  0
    0.2410    1.0380   -1.8270 O   0  0  0  0  0  0  0  0  0  0  0  0
   -0.0180    0.5820    0.5120 C   0  0  1  0  0  0  0  0  0  0  0  0
   -0.4670    1.8780    0.7320 O   0  0  0  0  0  0  0  0  0  0  0  0
   -1.1870   -0.3350    0.4180 C   0  0  1  0  0  0  0  0  0  0  0  0
   -1.8990   -0.2320    1.7050 N   0  0  0  0  0  0  0  0  0  0  0  0
   -2.1930    0.0460   -0.6350 C   0  0  0  0  0  0  0  0  0  0  0  0
   -3.2520   -0.8850   -0.5170 O   0  0  0  0  0  0  0  0  0  0  0  0
  1  2  1  0
  2  3  1  0
  3  4  1  0
  4  5  1  6
  4  6  1  0
  6  7  1  6
  6  8  1  0
  8  9  1  1
  8 10  1  0
 10 11  1  0
M  CHG  1   9   1
M  END
