
     RDKit          3D

 24 27  0  0  0  0  0  0  0  0999 V2000
    3.3510   -1.4970   -0.1720 C   0  0  0  0  0  0  0  0  0  0  0  0
    2.1610   -1.2220    0.2010 C   0  0  0  0  0  0  0  0  0  0  0  0
    1.4130   -0.1720    0.8160 C   0  0  0  0  0  0  0  0  0  0  0  0
    1.9290    0.8220    1.5880 C   0  0  0  0  0  0  0  0  0  0  0  0
    1.1220    1.8420    2.0810 C   0  0  0  0  0  0  0  0  0  0  0  0
   -0.1700    1.8120    1.7760 N   0  0  0  0  0  0  0  0  0  0  0  0
   -0.7310    0.8540    1.0210 C   0  0  0  0  0  0  0  0  0  0  0  0
   -2.1590    0.8620    0.7110 C   0  0  0  0  0  0  0  0  0  0  0  0
   -2.9800    1.8680    1.1940 C   0  0  0  0  0  0  0  0  0  0  0  0
   -4.3310    1.8790    0.9030 C   0  0  0  0  0  0  0  0  0  0  0  0
   -4.8990    0.8890    0.1250 C   0  0  0  0  0  0  0  0  0  0  0  0
   -4.1080   -0.1230   -0.3680 C   0  0  0  0  0  0  0  0  0  0  0  0
   -2.7480   -0.1130   -0.0620 C   0  0  0  0  0  0  0  0  0  0  0  0
   -4.7280   -1.1620   -1.1920 C   0  0  0  0  0  0  0  0  0  0  0  0
   -6.1220   -1.5230   -0.7520 C   0  0  0  0  0  0  0  0  0  0  0  0
   -6.9990   -0.3520   -0.4980 C   0  0  0  0  0  0  0  0  0  0  0  0
   -6.2810    0.8660   -0.1950 N   0  0  0  0  0  0  0  0  0  0  0  0
    0.0450   -0.1190    0.5500 N   0  0  0  0  0  0  0  0  0  0  0  0
    4.6310   -0.8570   -0.1870 C   0  0  0  0  0  0  0  0  0  0  0  0
    5.7130   -1.5440   -0.6280 C   0  0  0  0  0  0  0  0  0  0  0  0
    7.0300   -0.8980   -0.6400 C   0  0  0  0  0  0  0  0  0  0  0  0
    7.0330    0.5690   -0.8960 C   0  0  0  0  0  0  0  0  0  0  0  0
    5.7940    1.1340   -0.8390 O   0  0  0  0  0  0  0  0  0  0  0  0
    4.9310    0.5640    0.1130 C   0  0  0  0  0  0  0  0  0  0  0  0
  1  2  2  3
  1 19  1  0
  2  3  1  0
  3  4  2  0
  3 18  1  0
  4  5  1  0
  5  6  2  0
  6  7  1  0
  7  8  1  0
  7 18  2  0
  8  9  2  0
  8 13  1  0
  9 10  1  0
 10 11  2  0
 11 12  1  0
 11 17  1  0
 12 13  2  0
 12 14  1  0
 14 15  1  0
 15 16  1  0
 16 17  1  0
 19 20  2  0
 19 24  1  0
 20 21  1  0
 21 22  1  0
 22 23  1  0
 23 24  1  0
M  END
