
     RDKit          3D

 24 27  0  0  0  0  0  0  0  0999 V2000
    0.1700   -4.9030    0.1800 C   0  0  0  0  0  0  0  0  0  0  0  0
   -0.6470   -3.7600    0.2950 O   0  0  0  0  0  0  0  0  0  0  0  0
   -0.0830   -2.5160    0.3270 C   0  0  0  0  0  0  0  0  0  0  0  0
    1.2800   -2.3880    0.2460 C   0  0  0  0  0  0  0  0  0  0  0  0
    1.8830   -1.1390    0.2750 C   0  0  0  0  0  0  0  0  0  0  0  0
    3.2510   -1.0310    0.1930 C   0  0  0  0  0  0  0  0  0  0  0  0
    3.8430    0.2410    0.2240 C   0  0  0  0  0  0  0  0  0  0  0  0
    3.0430    1.3420    0.3360 C   0  0  0  0  0  0  0  0  0  0  0  0
    1.6510    1.2020    0.4190 C   0  0  0  0  0  0  0  0  0  0  0  0
    1.0730   -0.0340    0.3890 C   0  0  0  0  0  0  0  0  0  0  0  0
   -0.3170   -0.1750    0.4710 C   0  0  0  0  0  0  0  0  0  0  0  0
   -0.9220   -1.4090    0.4420 C   0  0  0  0  0  0  0  0  0  0  0  0
   -2.3950   -1.5980    0.5280 C   0  0  0  0  0  0  0  0  0  0  0  0
   -3.1090   -0.3730    0.6410 N   0  0  0  0  0  0  0  0  0  0  0  0
   -3.4580    0.2970   -0.3860 C   0  0  0  0  0  0  0  0  0  0  0  0
   -3.1060   -0.2220   -1.7310 C   0  0  0  0  0  0  0  0  0  0  0  0
   -4.1990    1.5690   -0.2760 C   0  0  0  0  0  0  0  0  0  0  0  0
   -4.5980    2.3260   -1.3120 N   0  0  0  0  0  0  0  0  0  0  0  0
   -5.2530    3.4240   -0.8410 C   0  0  0  0  0  0  0  0  0  0  0  0
   -5.2560    3.3380    0.5370 C   0  0  0  0  0  0  0  0  0  0  0  0
   -4.6040    2.1940    0.8290 N   0  0  0  0  0  0  0  0  0  0  0  0
    3.8780    2.5680    0.3480 C   0  0  0  0  0  0  0  0  0  0  0  0
    5.2480    2.0620    0.6590 C   0  0  0  0  0  0  0  0  0  0  0  0
    5.2900    0.6340    0.1530 C   0  0  0  0  0  0  0  0  0  0  0  0
  1  2  1  0
  2  3  1  0
  3  4  2  0
  3 12  1  0
  4  5  1  0
  5  6  2  0
  5 10  1  0
  6  7  1  0
  7  8  2  0
  7 24  1  0
  8  9  1  0
  8 22  1  0
  9 10  2  0
 10 11  1  0
 11 12  2  0
 12 13  1  0
 13 14  1  0
 14 15  2  3
 15 16  1  0
 15 17  1  0
 17 18  2  0
 17 21  1  0
 18 19  1  0
 19 20  2  0
 20 21  1  0
 22 23  1  0
 23 24  1  0
M  END
