
     RDKit          3D

 24 27  0  0  0  0  0  0  0  0999 V2000
   -2.3990   -2.3850    0.7790 C   0  0  0  0  0  0  0  0  0  0  0  0
   -1.9300   -1.0040    1.1820 C   0  0  1  0  0  0  0  0  0  0  0  0
   -0.5030   -0.8350    0.8790 C   0  0  0  0  0  0  0  0  0  0  0  0
    0.2300   -1.9300    0.4760 C   0  0  0  0  0  0  0  0  0  0  0  0
    1.5810   -1.8280    0.1760 C   0  0  0  0  0  0  0  0  0  0  0  0
    2.2450   -0.6060    0.2730 C   0  0  0  0  0  0  0  0  0  0  0  0
    3.6580   -0.5370   -0.0480 C   0  0  0  0  0  0  0  0  0  0  0  0
    4.3720    0.5560    0.0070 C   0  0  0  0  0  0  0  0  0  0  0  0
    5.7910    0.5760   -0.3260 C   0  0  0  0  0  0  0  0  0  0  0  0
    6.5250   -0.5340   -0.7280 C   0  0  0  0  0  0  0  0  0  0  0  0
    7.8340   -0.0920   -0.9480 C   0  0  0  0  0  0  0  0  0  0  0  0
    7.8050    1.2530   -0.6660 C   0  0  0  0  0  0  0  0  0  0  0  0
    6.6090    1.5990   -0.3110 O   0  0  0  0  0  0  0  0  0  0  0  0
    1.4790    0.4550    0.6770 C   0  0  0  0  0  0  0  0  0  0  0  0
    0.1290    0.3830    0.9830 C   0  0  0  0  0  0  0  0  0  0  0  0
   -2.7310    0.0380    0.6090 N   0  0  0  0  0  0  0  0  0  0  0  0
   -4.0850   -0.0420    1.0640 C   0  0  0  0  0  0  0  0  0  0  0  0
   -4.7140    1.3270    0.8810 C   0  0  0  0  0  0  0  0  0  0  0  0
   -4.5830    1.6730   -0.5630 C   0  0  0  0  0  0  0  0  0  0  0  0
   -5.2890    2.5190   -1.3470 N   0  0  0  0  0  0  0  0  0  0  0  0
   -4.8160    2.5090   -2.5810 N   0  0  0  0  0  0  0  0  0  0  0  0
   -3.7880    1.6460   -2.6040 C   0  0  0  0  0  0  0  0  0  0  0  0
   -3.6080    1.0960   -1.3500 C   0  0  0  0  0  0  0  0  0  0  0  0
   -2.6240    0.1010   -0.8350 C   0  0  0  0  0  0  0  0  0  0  0  0
  2  1  1  6
  2  3  1  0
  2 16  1  0
  3  4  2  0
  3 15  1  0
  4  5  1  0
  5  6  2  0
  6  7  1  0
  6 14  1  0
  7  8  2  3
  8  9  1  0
  9 10  2  0
  9 13  1  0
 10 11  1  0
 11 12  2  0
 12 13  1  0
 14 15  2  0
 16 17  1  0
 16 24  1  0
 17 18  1  0
 18 19  1  0
 19 20  1  0
 19 23  2  0
 20 21  1  0
 21 22  2  0
 22 23  1  0
 23 24  1  0
M  END
