
     RDKit          3D

 24 27  0  0  0  0  0  0  0  0999 V2000
    4.2960   -1.7420    0.4290 C   0  0  0  0  0  0  0  0  0  0  0  0
    4.3440   -0.2670    0.2500 C   0  0  0  0  0  0  0  0  0  0  0  0
    4.2210    0.2860   -0.9330 N   0  0  0  0  0  0  0  0  0  0  0  0
    4.0410   -0.7000   -1.9800 C   0  0  0  0  0  0  0  0  0  0  0  0
    5.1060   -1.1380   -2.6980 C   0  0  0  0  0  0  0  0  0  0  0  0
    4.9940   -2.0970   -3.6220 N   0  0  0  0  0  0  0  0  0  0  0  0
    3.7710   -2.6450   -3.8440 C   0  0  0  0  0  0  0  0  0  0  0  0
    2.6520   -2.2220   -3.1270 C   0  0  0  0  0  0  0  0  0  0  0  0
    2.7810   -1.2210   -2.1680 C   0  0  0  0  0  0  0  0  0  0  0  0
    1.6250   -0.6790   -1.4660 C   0  0  0  0  0  0  0  0  0  0  0  0
    0.4710   -1.3140   -1.3980 C   0  0  0  0  0  0  0  0  0  0  0  0
   -0.6740   -0.7050   -0.6770 C   0  0  0  0  0  0  0  0  0  0  0  0
   -1.8360   -1.3640   -0.5560 C   0  0  0  0  0  0  0  0  0  0  0  0
   -2.7160   -0.5130    0.1730 N   0  0  0  0  0  0  0  0  0  0  0  0
   -2.1370    0.6480    0.4970 C   0  0  0  0  0  0  0  0  0  0  0  0
   -2.7810    1.6330    1.2280 C   0  0  0  0  0  0  0  0  0  0  0  0
   -4.0720    1.3880    1.6290 C   0  0  0  0  0  0  0  0  0  0  0  0
   -4.6880    0.1910    1.3030 C   0  0  0  0  0  0  0  0  0  0  0  0
   -3.9920   -0.7410    0.5760 C   0  0  0  0  0  0  0  0  0  0  0  0
   -4.5290   -1.8430    0.2620 O   0  0  0  0  0  0  0  0  0  0  0  0
   -4.5920    2.5670    2.3890 C   0  0  0  0  0  0  0  0  0  0  0  0
   -3.7820    3.6730    1.6930 C   0  0  0  0  0  0  0  0  0  0  0  0
   -2.4010    2.9910    1.7150 C   0  0  0  0  0  0  0  0  0  0  0  0
   -0.7790    0.6240   -0.1050 C   0  0  0  0  0  0  0  0  0  0  0  0
  1  2  1  0
  2  3  2  3
  3  4  1  0
  4  5  2  0
  4  9  1  0
  5  6  1  0
  6  7  2  0
  7  8  1  0
  8  9  2  0
  9 10  1  0
 10 11  2  3
 11 12  1  0
 12 13  2  0
 12 24  1  0
 13 14  1  0
 14 15  1  0
 14 19  1  0
 15 16  2  0
 15 24  1  0
 16 17  1  0
 16 23  1  0
 17 18  2  0
 17 21  1  0
 18 19  1  0
 19 20  2  0
 21 22  1  0
 22 23  1  0
M  END
