
     RDKit          3D

 33 37  0  0  0  0  0  0  0  0999 V2000
   -2.5000   -0.1620   -1.0350 O   0  0  0  0  0  0  0  0  0  0  0  0
   -2.3600   -0.7630    0.0340 C   0  0  0  0  0  0  0  0  0  0  0  0
   -1.3050   -0.5640    0.9860 C   0  0  0  0  0  0  0  0  0  0  0  0
   -0.2920    0.4950    0.8210 C   0  0  2  0  0  0  0  0  0  0  0  0
   -0.7140    1.9190    0.8090 C   0  0  0  0  0  0  0  0  0  0  0  0
   -1.2020    2.5170   -0.3630 N   0  0  1  0  0  0  0  0  0  0  0  0
   -2.6030    2.8960   -0.1630 C   0  0  0  0  0  0  0  0  0  0  0  0
   -3.1860    3.5260   -1.3940 C   0  0  0  0  0  0  0  0  0  0  0  0
   -2.4510    4.8570   -1.5920 C   0  0  1  0  0  0  0  0  0  0  0  0
   -2.6300    5.9150   -0.1890 Cl  0  0  0  0  0  0  0  0  0  0  0  0
   -0.9950    4.5170   -1.7680 C   0  0  0  0  0  0  0  0  0  0  0  0
   -0.5210    3.8340   -0.5110 C   0  0  0  0  0  0  0  0  0  0  0  0
    0.6750    0.1570   -0.0950 O   0  0  0  0  0  0  0  0  0  0  0  0
    1.9810   -0.1920    0.0160 C   0  0  0  0  0  0  0  0  0  0  0  0
    2.6110   -0.2650    1.2270 C   0  0  0  0  0  0  0  0  0  0  0  0
    3.9550   -0.6240    1.3430 C   0  0  0  0  0  0  0  0  0  0  0  0
    4.6410   -0.9060    0.2010 C   0  0  0  0  0  0  0  0  0  0  0  0
    5.9710   -1.2670    0.2500 C   0  0  0  0  0  0  0  0  0  0  0  0
    6.7400   -1.5670   -0.8380 C   0  0  0  0  0  0  0  0  0  0  0  0
    6.1200   -1.4980   -2.0680 N   0  0  0  0  0  0  0  0  0  0  0  0
    4.8390   -1.1510   -2.1240 C   0  0  0  0  0  0  0  0  0  0  0  0
    4.0520   -0.8470   -1.0540 C   0  0  0  0  0  0  0  0  0  0  0  0
    2.7440   -0.4940   -1.1200 C   0  0  0  0  0  0  0  0  0  0  0  0
    2.0880   -0.4110   -2.3100 O   0  0  0  0  0  0  0  0  0  0  0  0
    8.1420   -1.9100   -0.5670 C   0  0  0  0  0  0  0  0  0  0  0  0
    8.2650   -2.5590    0.7920 C   0  0  0  0  0  0  0  0  0  0  0  0
    7.0510   -1.4770    1.6770 S   0  0  0  0  0  0  0  0  0  0  0  0
   -3.3570   -1.7520    0.3370 N   0  0  0  0  0  0  0  0  0  0  0  0
   -4.4660   -2.0020   -0.5770 C   0  0  0  0  0  0  0  0  0  0  0  0
   -5.2410   -3.1930   -0.0730 C   0  0  0  0  0  0  0  0  0  0  0  0
   -5.7180   -3.0200    1.3520 C   0  0  0  0  0  0  0  0  0  0  0  0
   -4.6900   -2.3250    2.2220 C   0  0  0  0  0  0  0  0  0  0  0  0
   -3.3430   -2.5640    1.5350 C   0  0  0  0  0  0  0  0  0  0  0  0
  1  2  2  0
  2  3  1  0
  2 28  1  0
  4  3  1  6
  4  5  1  0
  4 13  1  0
  6  5  1  1
  6  7  1  0
  6 12  1  0
  7  8  1  0
  8  9  1  0
  9 10  1  1
  9 11  1  0
 11 12  1  0
 13 14  1  0
 14 15  2  0
 14 23  1  0
 15 16  1  0
 16 17  2  0
 17 18  1  0
 17 22  1  0
 18 19  2  0
 18 27  1  0
 19 20  1  0
 19 25  1  0
 20 21  2  0
 21 22  1  0
 22 23  2  0
 23 24  1  0
 25 26  1  0
 26 27  1  0
 28 29  1  0
 28 33  1  0
 29 30  1  0
 30 31  1  0
 31 32  1  0
 32 33  1  0
M  CHG  1   6   1
M  END
