
     RDKit          3D

 32 34  0  0  0  0  0  0  0  0999 V2000
    3.5920   -2.5740    2.9800 C   0  0  0  0  0  0  0  0  0  0  0  0
    2.7260   -2.9960    2.1510 C   0  0  0  0  0  0  0  0  0  0  0  0
    1.7260   -2.5960    1.2390 C   0  0  0  0  0  0  0  0  0  0  0  0
    1.1800   -3.7780    0.6700 C   0  0  0  0  0  0  0  0  0  0  0  0
    1.5960   -5.1280    0.9960 C   0  0  0  0  0  0  0  0  0  0  0  0
    1.0130   -1.3940    0.7950 C   0  0  0  0  0  0  0  0  0  0  0  0
    1.3940   -0.1850    1.0790 C   0  0  0  0  0  0  0  0  0  0  0  0
    2.6500    0.0270    1.9220 C   0  0  0  0  0  0  0  0  0  0  0  0
    0.8500    1.1680    0.6880 C   0  0  1  0  0  0  0  0  0  0  0  0
    1.4690    1.7200   -0.5520 C   0  0  1  0  0  0  0  0  0  0  0  0
    0.9800    3.0990   -0.9320 C   0  0  0  0  0  0  0  0  0  0  0  0
    2.8580    1.6630   -0.7420 N   0  0  1  0  0  0  0  0  0  0  0  0
    3.1150    1.5690   -2.2060 C   0  0  0  0  0  0  0  0  0  0  0  0
    3.6100    2.8210   -0.3200 C   0  0  0  0  0  0  0  0  0  0  0  0
   -0.5560    1.1770    0.7000 N   0  0  0  0  0  0  0  0  0  0  0  0
   -1.3140    2.4140    0.7190 C   0  0  0  0  0  0  0  0  0  0  0  0
   -2.7370    1.9390    1.0470 C   0  0  0  0  0  0  0  0  0  0  0  0
   -3.4790    2.2260    2.1780 C   0  0  0  0  0  0  0  0  0  0  0  0
   -3.0230    3.1200    3.3080 C   0  0  0  0  0  0  0  0  0  0  0  0
   -3.1440    4.5440    2.7930 C   0  0  0  0  0  0  0  0  0  0  0  0
   -4.6890    1.5770    2.0830 C   0  0  0  0  0  0  0  0  0  0  0  0
   -4.6450    0.9300    0.9180 N   0  0  0  0  0  0  0  0  0  0  0  0
   -3.4590    1.1500    0.2860 N   0  0  0  0  0  0  0  0  0  0  0  0
   -3.1770    0.5870   -1.0180 C   0  0  0  0  0  0  0  0  0  0  0  0
   -2.8950   -0.9110   -1.0140 C   0  0  0  0  0  0  0  0  0  0  0  0
   -1.6840   -1.1640   -1.8350 C   0  0  2  0  0  0  0  0  0  0  0  0
   -2.0290   -1.9430   -3.1030 C   0  0  0  0  0  0  0  0  0  0  0  0
   -1.0540   -3.0220   -3.4140 C   0  0  0  0  0  0  0  0  0  0  0  0
    0.3880   -2.6970   -3.2150 C   0  0  0  0  0  0  0  0  0  0  0  0
    0.5570   -1.6690   -2.1230 C   0  0  0  0  0  0  0  0  0  0  0  0
   -0.5510   -1.8250   -1.1800 N   0  0  1  0  0  0  0  0  0  0  0  0
   -0.3250   -1.7050    0.1510 C   0  0  0  0  0  0  0  0  0  0  0  0
  1  2  2  0
  2  3  1  0
  3  4  2  3
  3  6  1  0
  4  5  1  0
  6  7  2  0
  6 32  1  0
  7  8  1  0
  7  9  1  0
  9 10  1  0
  9 15  1  6
 10 11  1  1
 10 12  1  0
 12 13  1  6
 12 14  1  0
 15 16  1  0
 16 17  1  0
 17 18  2  0
 17 23  1  0
 18 19  1  0
 18 21  1  0
 19 20  1  0
 21 22  2  0
 22 23  1  0
 23 24  1  0
 24 25  1  0
 26 25  1  1
 26 27  1  0
 26 31  1  0
 27 28  1  0
 28 29  1  0
 29 30  1  0
 31 30  1  6
 31 32  1  0
M  CHG  3  12   1  15   1  31   1
M  END
