
     RDKit          3D

 33 37  0  0  0  0  0  0  0  0999 V2000
   -6.9740    3.3190    0.5900 C   0  0  0  0  0  0  0  0  0  0  0  0
   -6.1420    2.6640   -0.8380 S   0  0  2  0  0  0  0  0  0  0  0  0
   -5.1380    3.5910   -1.4120 O   0  0  0  0  0  0  0  0  0  0  0  0
   -7.2340    2.4910   -1.8910 O   0  0  0  0  0  0  0  0  0  0  0  0
   -5.5100    1.0780   -0.5190 C   0  0  0  0  0  0  0  0  0  0  0  0
   -6.2740   -0.0450   -0.7870 C   0  0  0  0  0  0  0  0  0  0  0  0
   -5.7620   -1.3210   -0.5230 C   0  0  0  0  0  0  0  0  0  0  0  0
   -4.5330   -1.2840   -0.0140 C   0  0  0  0  0  0  0  0  0  0  0  0
   -3.6730   -0.2940    0.2920 C   0  0  0  0  0  0  0  0  0  0  0  0
   -4.2190    0.9720    0.0150 C   0  0  0  0  0  0  0  0  0  0  0  0
   -2.4110   -0.9510    0.7060 C   0  0  2  0  0  0  0  0  0  0  0  0
   -1.2910   -0.2700    0.0970 N   0  0  0  0  0  0  0  0  0  0  0  0
   -0.0340   -0.7960    0.5500 C   0  0  0  0  0  0  0  0  0  0  0  0
    1.1380   -0.1720    0.1650 N   0  0  0  0  0  0  0  0  0  0  0  0
    1.4170    1.1730    0.4660 C   0  0  0  0  0  0  0  0  0  0  0  0
    2.7920    1.2670    1.1310 C   0  0  0  0  0  0  0  0  0  0  0  0
    3.3980   -0.1140    1.2740 C   0  0  0  0  0  0  0  0  0  0  0  0
    3.7920   -0.7170    0.0460 N   0  0  0  0  0  0  0  0  0  0  0  0
    4.9800   -0.5720   -0.6380 C   0  0  0  0  0  0  0  0  0  0  0  0
    5.0270   -1.2930   -1.7410 O   0  0  0  0  0  0  0  0  0  0  0  0
    6.1800    0.1860   -0.4190 C   0  0  0  0  0  0  0  0  0  0  0  0
    7.2590    0.0040   -1.3050 C   0  0  0  0  0  0  0  0  0  0  0  0
    8.4140    0.7140   -1.1430 C   0  0  0  0  0  0  0  0  0  0  0  0
    8.5900    1.6250   -0.1340 C   0  0  0  0  0  0  0  0  0  0  0  0
   10.1070    2.5160    0.0300 Cl  0  0  0  0  0  0  0  0  0  0  0  0
    7.5480    1.8120    0.7340 C   0  0  0  0  0  0  0  0  0  0  0  0
    6.3560    1.0970    0.5880 C   0  0  0  0  0  0  0  0  0  0  0  0
    2.8360   -1.6380   -0.6540 C   0  0  0  0  0  0  0  0  0  0  0  0
    1.6710   -0.7140   -1.0440 C   0  0  0  0  0  0  0  0  0  0  0  0
   -2.6000   -2.3650   -0.0460 C   0  0  0  0  0  0  0  0  0  0  0  0
   -3.9810   -2.6320    0.3080 C   0  0  2  0  0  0  0  0  0  0  0  0
   -5.0200   -3.4690   -0.2110 C   0  0  0  0  0  0  0  0  0  0  0  0
   -6.0880   -2.7320   -0.6810 C   0  0  0  0  0  0  0  0  0  0  0  0
  2  1  1  1
  2  3  2  0
  2  4  2  0
  2  5  1  0
  5  6  2  0
  5 10  1  0
  6  7  1  0
  7  8  2  0
  7 33  1  0
  8  9  1  0
  8 31  1  0
  9 10  2  0
  9 11  1  0
 11 12  1  6
 11 30  1  0
 12 13  1  0
 13 14  1  0
 14 15  1  0
 14 29  1  0
 15 16  1  0
 16 17  1  0
 17 18  1  0
 18 19  1  0
 18 28  1  0
 19 20  2  0
 19 21  1  0
 21 22  2  0
 21 27  1  0
 22 23  1  0
 23 24  2  0
 24 25  1  0
 24 26  1  0
 26 27  2  0
 28 29  1  0
 31 30  1  6
 31 32  1  0
 32 33  2  0
M  CHG  1  12   1
M  END
