
     RDKit          3D

 33 36  0  0  0  0  0  0  0  0999 V2000
   -8.4140   -2.2690   -1.2910 C   0  0  0  0  0  0  0  0  0  0  0  0
   -7.6430   -1.9270    0.0400 C   0  0  0  0  0  0  0  0  0  0  0  0
   -6.2400   -2.0450   -0.3120 C   0  0  0  0  0  0  0  0  0  0  0  0
   -5.1740   -1.3400   -0.0780 C   0  0  0  0  0  0  0  0  0  0  0  0
   -3.9210   -1.7880   -0.6230 N   0  0  0  0  0  0  0  0  0  0  0  0
   -2.6220   -1.4160   -0.1110 C   0  0  0  0  0  0  0  0  0  0  0  0
   -2.6770   -0.0430    0.3600 N   0  0  0  0  0  0  0  0  0  0  0  0
   -1.5470    0.8520    0.3650 C   0  0  2  0  0  0  0  0  0  0  0  0
   -1.9880    2.2690    0.2970 C   0  0  0  0  0  0  0  0  0  0  0  0
   -1.1640    3.1860    0.6000 O   0  0  0  0  0  0  0  0  0  0  0  0
   -3.2530    2.6650   -0.0810 O   0  0  0  0  0  0  0  0  0  0  0  0
   -3.7020    3.9970   -0.1620 C   0  0  0  0  0  0  0  0  0  0  0  0
   -0.4890    0.4980   -0.6320 C   0  0  0  0  0  0  0  0  0  0  0  0
    0.7340    1.3650   -0.5010 C   0  0  0  0  0  0  0  0  0  0  0  0
    1.4390    1.2390    0.7220 N   0  0  2  0  0  0  0  0  0  0  0  0
    2.8830    1.1490    0.5440 C   0  0  0  0  0  0  0  0  0  0  0  0
    3.3110   -0.0300   -0.2000 C   0  0  0  0  0  0  0  0  0  0  0  0
    2.5220   -0.9060   -0.6460 O   0  0  0  0  0  0  0  0  0  0  0  0
    4.7230   -0.2340   -0.4610 C   0  0  0  0  0  0  0  0  0  0  0  0
    5.1340   -0.1450   -1.7790 C   0  0  0  0  0  0  0  0  0  0  0  0
    6.4750   -0.3340   -2.0870 C   0  0  0  0  0  0  0  0  0  0  0  0
    7.3680   -0.6060   -1.0670 C   0  0  0  0  0  0  0  0  0  0  0  0
    6.9560   -0.6930    0.2390 C   0  0  0  0  0  0  0  0  0  0  0  0
    5.6100   -0.5030    0.5350 C   0  0  0  0  0  0  0  0  0  0  0  0
    5.0510   -0.6050    2.1940 Cl  0  0  0  0  0  0  0  0  0  0  0  0
    8.0760   -0.9870    1.1510 C   0  0  0  0  0  0  0  0  0  0  0  0
    9.3060   -0.8930    0.2710 C   0  0  0  0  0  0  0  0  0  0  0  0
    8.8210   -0.8470   -1.1420 C   0  0  0  0  0  0  0  0  0  0  0  0
    0.9860    0.2100    1.6020 C   0  0  0  0  0  0  0  0  0  0  0  0
   -0.7460    0.5640    2.0110 S   0  0  0  0  0  0  0  0  0  0  0  0
   -3.9000    0.4140    0.9070 C   0  0  0  0  0  0  0  0  0  0  0  0
   -5.0930   -0.1520    0.7350 C   0  0  0  0  0  0  0  0  0  0  0  0
   -6.2850    0.4340    1.4310 C   0  0  0  0  0  0  0  0  0  0  0  0
  1  2  1  0
  2  3  1  0
  3  4  2  3
  4  5  1  0
  4 32  1  0
  5  6  1  0
  6  7  1  0
  8  7  1  6
  7 31  1  0
  8  9  1  0
  8 13  1  0
  8 30  1  0
  9 10  2  0
  9 11  1  0
 11 12  1  0
 13 14  1  0
 14 15  1  0
 15 16  1  6
 15 29  1  0
 16 17  1  0
 17 18  2  0
 17 19  1  0
 19 20  2  0
 19 24  1  0
 20 21  1  0
 21 22  2  0
 22 23  1  0
 22 28  1  0
 23 24  2  0
 23 26  1  0
 24 25  1  0
 26 27  1  0
 27 28  1  0
 29 30  1  0
 31 32  2  0
 32 33  1  0
M  CHG  1  15   1
M  END
