
     RDKit          3D

 33 37  0  0  0  0  0  0  0  0999 V2000
    7.3830   -0.7310    0.9640 C   0  0  0  0  0  0  0  0  0  0  0  0
    6.5500   -0.2600    2.1400 C   0  0  0  0  0  0  0  0  0  0  0  0
    5.3770    0.4740    1.7330 N   0  0  2  0  0  0  0  0  0  0  0  0
    4.2240   -0.3400    1.6180 C   0  0  0  0  0  0  0  0  0  0  0  0
    3.6230   -0.3940    0.2170 C   0  0  0  0  0  0  0  0  0  0  0  0
    3.3900    1.0290   -0.2950 C   0  0  0  0  0  0  0  0  0  0  0  0
    4.4610    1.8290   -0.0660 C   0  0  0  0  0  0  0  0  0  0  0  0
    4.3540    3.1450   -0.4420 C   0  0  0  0  0  0  0  0  0  0  0  0
    2.7280    3.2420   -1.1250 S   0  0  0  0  0  0  0  0  0  0  0  0
    2.2930    1.5160   -0.8650 C   0  0  0  0  0  0  0  0  0  0  0  0
    0.9790    1.0210   -1.2780 C   0  0  0  0  0  0  0  0  0  0  0  0
    0.1740    1.9000   -1.7480 O   0  0  0  0  0  0  0  0  0  0  0  0
    0.4900   -0.2840   -1.2290 N   0  0  0  0  0  0  0  0  0  0  0  0
   -0.8690   -0.6300   -1.6720 C   0  0  0  0  0  0  0  0  0  0  0  0
   -1.8440    0.1230   -0.8300 C   0  0  0  0  0  0  0  0  0  0  0  0
   -1.3940    0.8640    0.0530 O   0  0  0  0  0  0  0  0  0  0  0  0
   -3.1950   -0.0590   -1.0960 N   0  0  0  0  0  0  0  0  0  0  0  0
   -3.6490   -0.9860   -2.1550 C   0  0  0  0  0  0  0  0  0  0  0  0
   -4.5470   -1.9380   -1.4870 C   0  0  0  0  0  0  0  0  0  0  0  0
   -4.8130   -3.1740   -2.1030 C   0  0  0  0  0  0  0  0  0  0  0  0
   -5.6330   -4.1120   -1.5490 C   0  0  0  0  0  0  0  0  0  0  0  0
   -5.9570   -5.6410   -2.3170 Cl  0  0  0  0  0  0  0  0  0  0  0  0
   -6.2300   -3.8530   -0.3450 C   0  0  0  0  0  0  0  0  0  0  0  0
   -5.9910   -2.6660    0.2720 C   0  0  0  0  0  0  0  0  0  0  0  0
   -5.1470   -1.7030   -0.2980 C   0  0  0  0  0  0  0  0  0  0  0  0
   -4.9610   -0.4510    0.4590 C   0  0  0  0  0  0  0  0  0  0  0  0
   -4.2460    0.5940   -0.3800 C   0  0  1  0  0  0  0  0  0  0  0  0
   -3.8300    1.7460    0.4270 C   0  0  0  0  0  0  0  0  0  0  0  0
   -3.1170    2.8680    0.0150 C   0  0  0  0  0  0  0  0  0  0  0  0
   -2.9650    3.6740    1.1190 C   0  0  0  0  0  0  0  0  0  0  0  0
   -3.5780    3.0380    2.1650 C   0  0  0  0  0  0  0  0  0  0  0  0
   -4.0670    1.9210    1.7200 O   0  0  0  0  0  0  0  0  0  0  0  0
    5.6870    1.2190    0.5460 C   0  0  0  0  0  0  0  0  0  0  0  0
  1  2  1  0
  3  2  1  6
  3  4  1  0
  3 33  1  0
  4  5  1  0
  5  6  1  0
  6  7  1  0
  6 10  2  0
  7  8  2  0
  7 33  1  0
  8  9  1  0
  9 10  1  0
 10 11  1  0
 11 12  2  0
 11 13  1  0
 13 14  1  0
 14 15  1  0
 15 16  2  0
 15 17  1  0
 17 18  1  0
 17 27  1  0
 18 19  1  0
 19 20  2  0
 19 25  1  0
 20 21  1  0
 21 22  1  0
 21 23  2  0
 23 24  1  0
 24 25  2  0
 25 26  1  0
 26 27  1  0
 27 28  1  1
 28 29  2  0
 28 32  1  0
 29 30  1  0
 30 31  2  0
 31 32  1  0
M  CHG  1   3   1
M  END
