
     RDKit          3D

 23 26  0  0  0  0  0  0  0  0999 V2000
    6.8520    0.8000    1.1100 O   0  0  0  0  0  0  0  0  0  0  0  0
    6.1460    1.5770    0.1700 C   0  0  0  0  0  0  0  0  0  0  0  0
    4.9890    0.7880   -0.2870 C   0  0  0  0  0  0  0  0  0  0  0  0
    5.0180   -0.0460   -1.3400 N   0  0  0  0  0  0  0  0  0  0  0  0
    3.8370   -0.5710   -1.4550 N   0  0  0  0  0  0  0  0  0  0  0  0
    3.0370   -0.1080   -0.5120 N   0  0  0  0  0  0  0  0  0  0  0  0
    1.6570   -0.4970   -0.3660 C   0  0  0  0  0  0  0  0  0  0  0  0
    0.9560   -0.2220    0.7890 C   0  0  0  0  0  0  0  0  0  0  0  0
   -0.3670   -0.6130    0.8860 C   0  0  0  0  0  0  0  0  0  0  0  0
   -1.0160   -1.2710   -0.1300 C   0  0  0  0  0  0  0  0  0  0  0  0
   -2.4110   -1.6770   -0.0090 C   0  0  0  0  0  0  0  0  0  0  0  0
   -2.9060   -2.9600   -0.0250 C   0  0  0  0  0  0  0  0  0  0  0  0
   -4.2350   -2.9170    0.1130 N   0  0  0  0  0  0  0  0  0  0  0  0
   -4.5820   -1.6540    0.2140 N   0  0  0  0  0  0  0  0  0  0  0  0
   -3.5190   -0.8510    0.1480 C   0  0  0  0  0  0  0  0  0  0  0  0
   -3.4910    0.5860    0.2190 C   0  0  0  0  0  0  0  0  0  0  0  0
   -3.0570    1.4050   -0.8220 C   0  0  0  0  0  0  0  0  0  0  0  0
   -3.1880    2.6900   -0.3530 C   0  0  0  0  0  0  0  0  0  0  0  0
   -3.6730    2.6740    0.9010 N   0  0  0  0  0  0  0  0  0  0  0  0
   -3.8660    1.3950    1.2710 C   0  0  0  0  0  0  0  0  0  0  0  0
   -0.3330   -1.5530   -1.2860 C   0  0  0  0  0  0  0  0  0  0  0  0
    0.9940   -1.1580   -1.3780 C   0  0  0  0  0  0  0  0  0  0  0  0
    3.7370    0.7230    0.2050 N   0  0  0  0  0  0  0  0  0  0  0  0
  1  2  1  0
  2  3  1  0
  3  4  1  0
  3 23  2  0
  4  5  2  0
  5  6  1  0
  6  7  1  0
  6 23  1  0
  7  8  2  0
  7 22  1  0
  8  9  1  0
  9 10  2  0
 10 11  1  0
 10 21  1  0
 11 12  2  0
 11 15  1  0
 12 13  1  0
 13 14  1  0
 14 15  2  0
 15 16  1  0
 16 17  1  0
 16 20  2  0
 17 18  2  0
 18 19  1  0
 19 20  1  0
 21 22  2  0
M  END
