
     RDKit          3D

 23 26  0  0  0  0  0  0  0  0999 V2000
    7.0360    0.3930    0.6190 C   0  0  0  0  0  0  0  0  0  0  0  0
    5.7230    0.4260    0.7290 C   0  0  0  0  0  0  0  0  0  0  0  0
    4.8420    0.2550   -0.4310 C   0  0  0  0  0  0  0  0  0  0  0  0
    3.5390    0.2840   -0.3400 C   0  0  0  0  0  0  0  0  0  0  0  0
    2.7510    0.4850    0.8910 C   0  0  0  0  0  0  0  0  0  0  0  0
    1.5160   -0.3420    0.5800 C   0  0  0  0  0  0  0  0  0  0  0  0
    1.2810   -0.0240   -0.8010 N   0  0  0  0  0  0  0  0  0  0  0  0
    0.0150    0.1260   -1.4590 C   0  0  0  0  0  0  0  0  0  0  0  0
    0.0020    0.4050   -2.6660 O   0  0  0  0  0  0  0  0  0  0  0  0
   -1.1860   -0.0420   -0.7450 N   0  0  0  0  0  0  0  0  0  0  0  0
   -2.4800    0.0790   -1.2760 C   0  0  0  0  0  0  0  0  0  0  0  0
   -2.7080    0.3850   -2.5990 C   0  0  0  0  0  0  0  0  0  0  0  0
   -4.0030    0.4780   -3.0120 N   0  0  0  0  0  0  0  0  0  0  0  0
   -5.0390    0.2980   -2.2440 N   0  0  0  0  0  0  0  0  0  0  0  0
   -4.8250   -0.0020   -0.9470 C   0  0  0  0  0  0  0  0  0  0  0  0
   -5.7280   -0.2320    0.0410 N   0  0  0  0  0  0  0  0  0  0  0  0
   -5.0780   -0.4950    1.1800 C   0  0  0  0  0  0  0  0  0  0  0  0
   -5.2190   -0.7940    2.4730 N   0  0  0  0  0  0  0  0  0  0  0  0
   -4.0410   -0.9170    3.0150 N   0  0  0  0  0  0  0  0  0  0  0  0
   -3.0520   -0.7020    2.0950 C   0  0  0  0  0  0  0  0  0  0  0  0
   -3.7180   -0.4320    0.9210 C   0  0  0  0  0  0  0  0  0  0  0  0
   -3.5680   -0.1230   -0.4110 C   0  0  0  0  0  0  0  0  0  0  0  0
    2.5760    0.1250   -1.4350 C   0  0  0  0  0  0  0  0  0  0  0  0
  1  2  2  0
  2  3  1  0
  3  4  2  3
  4  5  1  0
  4 23  1  0
  5  6  1  0
  6  7  1  0
  7  8  1  0
  7 23  1  0
  8  9  2  0
  8 10  1  0
 10 11  1  0
 11 12  2  0
 11 22  1  0
 12 13  1  0
 13 14  2  0
 14 15  1  0
 15 16  1  0
 15 22  2  0
 16 17  1  0
 17 18  1  0
 17 21  2  0
 18 19  1  0
 19 20  2  0
 20 21  1  0
 21 22  1  0
M  END
