
     RDKit          3D

 23 26  0  0  0  0  0  0  0  0999 V2000
    3.8160   -2.4540   -1.7870 N   0  0  0  0  0  0  0  0  0  0  0  0
    3.2650   -1.4590   -0.9090 C   0  0  0  0  0  0  0  0  0  0  0  0
    1.9420   -1.1950   -0.8940 N   0  0  0  0  0  0  0  0  0  0  0  0
    1.4120   -0.2680   -0.0790 C   0  0  0  0  0  0  0  0  0  0  0  0
    0.0370    0.0120   -0.0560 C   0  0  0  0  0  0  0  0  0  0  0  0
   -0.4680    0.9680    0.7920 C   0  0  0  0  0  0  0  0  0  0  0  0
   -1.7910    1.2540    0.8300 O   0  0  0  0  0  0  0  0  0  0  0  0
   -2.8530    0.7280    0.1180 C   0  0  2  0  0  0  0  0  0  0  0  0
   -3.6460    1.7780   -0.6380 C   0  0  0  0  0  0  0  0  0  0  0  0
   -4.5870    1.0320   -1.5670 C   0  0  0  0  0  0  0  0  0  0  0  0
   -5.1990   -0.1730   -0.8700 C   0  0  0  0  0  0  0  0  0  0  0  0
   -5.2480    0.1520    0.6070 C   0  0  0  0  0  0  0  0  0  0  0  0
   -3.8360    0.1450    1.1440 C   0  0  0  0  0  0  0  0  0  0  0  0
    0.3780    1.6300    1.6010 N   0  0  0  0  0  0  0  0  0  0  0  0
    1.7190    1.3670    1.5900 C   0  0  0  0  0  0  0  0  0  0  0  0
    2.2720    0.4150    0.7530 C   0  0  0  0  0  0  0  0  0  0  0  0
    3.6320    0.1910    0.7840 C   0  0  0  0  0  0  0  0  0  0  0  0
    4.1300   -0.7800   -0.0800 C   0  0  0  0  0  0  0  0  0  0  0  0
    5.5690   -1.0490   -0.0790 C   0  0  0  0  0  0  0  0  0  0  0  0
    6.1940   -1.9480   -0.8470 N   0  0  0  0  0  0  0  0  0  0  0  0
    7.4790   -1.8880   -0.5510 N   0  0  0  0  0  0  0  0  0  0  0  0
    7.6580   -0.9770    0.3780 N   0  0  0  0  0  0  0  0  0  0  0  0
    6.4960   -0.4520    0.6800 N   0  0  0  0  0  0  0  0  0  0  0  0
  1  2  1  0
  2  3  2  0
  2 18  1  0
  3  4  1  0
  4  5  2  0
  4 16  1  0
  5  6  1  0
  6  7  1  0
  6 14  2  0
  8  7  1  1
  8  9  1  0
  8 13  1  0
  9 10  1  0
 10 11  1  0
 11 12  1  0
 12 13  1  0
 14 15  1  0
 15 16  2  0
 16 17  1  0
 17 18  2  0
 18 19  1  0
 19 20  2  0
 19 23  1  0
 20 21  1  0
 21 22  2  0
 22 23  1  0
M  END
