
     RDKit          3D

 23 26  0  0  0  0  0  0  0  0999 V2000
    0.6190   -0.6730    0.5730 C   0  0  0  0  0  0  0  0  0  0  0  0
   -0.5980   -0.1950    0.4370 C   0  0  0  0  0  0  0  0  0  0  0  0
   -1.7780   -1.0400    0.7670 C   0  0  0  0  0  0  0  0  0  0  0  0
   -3.0630   -0.6750    0.6720 N   0  0  0  0  0  0  0  0  0  0  0  0
   -3.8390   -1.7220    1.0620 C   0  0  0  0  0  0  0  0  0  0  0  0
   -5.2880   -1.6970    1.0920 C   0  0  0  0  0  0  0  0  0  0  0  0
   -6.0810   -2.7470    1.4830 C   0  0  0  0  0  0  0  0  0  0  0  0
   -7.3640   -2.3540    1.3790 N   0  0  0  0  0  0  0  0  0  0  0  0
   -7.3980   -1.0850    0.9330 C   0  0  0  0  0  0  0  0  0  0  0  0
   -6.1030   -0.6880    0.7580 N   0  0  0  0  0  0  0  0  0  0  0  0
   -2.9860   -2.7000    1.3840 N   0  0  0  0  0  0  0  0  0  0  0  0
   -1.7790   -2.2720    1.2010 O   0  0  0  0  0  0  0  0  0  0  0  0
   -0.8390    1.1670   -0.0470 C   0  0  0  0  0  0  0  0  0  0  0  0
    0.3900    1.8600   -0.3060 N   0  0  0  0  0  0  0  0  0  0  0  0
    1.6600    1.2750   -0.1370 C   0  0  0  0  0  0  0  0  0  0  0  0
    2.8720    1.9870   -0.4110 N   0  0  0  0  0  0  0  0  0  0  0  0
    3.9740    1.3480   -1.0200 C   0  0  0  0  0  0  0  0  0  0  0  0
    5.1650    2.0940   -1.0490 C   0  0  0  0  0  0  0  0  0  0  0  0
    6.3150    1.6020   -1.6190 C   0  0  0  0  0  0  0  0  0  0  0  0
    6.2820    0.3420   -2.1730 C   0  0  0  0  0  0  0  0  0  0  0  0
    5.1190   -0.3880   -2.1460 C   0  0  0  0  0  0  0  0  0  0  0  0
    3.9520    0.0960   -1.5740 C   0  0  0  0  0  0  0  0  0  0  0  0
    1.7910    0.0680    0.2820 N   0  0  0  0  0  0  0  0  0  0  0  0
  1  2  2  0
  1 23  1  0
  2  3  1  0
  2 13  1  0
  3  4  2  0
  3 12  1  0
  4  5  1  0
  5  6  1  0
  5 11  2  0
  6  7  2  0
  6 10  1  0
  7  8  1  0
  8  9  2  0
  9 10  1  0
 11 12  1  0
 13 14  1  0
 14 15  1  0
 15 16  1  0
 15 23  2  0
 16 17  1  0
 17 18  2  0
 17 22  1  0
 18 19  1  0
 19 20  2  0
 20 21  1  0
 21 22  2  0
M  END
