
     RDKit          3D

 23 24  0  0  0  0  0  0  0  0999 V2000
   -1.0190    0.4670   -2.4960 O   0  0  0  0  0  0  0  0  0  0  0  0
   -2.1970    0.7310   -1.7750 C   0  0  0  0  0  0  0  0  0  0  0  0
   -2.5850   -0.5830   -1.1180 C   0  0  1  0  0  0  0  0  0  0  0  0
   -1.6400   -1.0680   -0.2740 O   0  0  0  0  0  0  0  0  0  0  0  0
   -1.3660   -0.2600    0.8280 C   0  0  2  0  0  0  0  0  0  0  0  0
   -0.3490   -0.8940    1.4840 O   0  0  0  0  0  0  0  0  0  0  0  0
    0.8320   -0.2630    1.6090 C   0  0  0  0  0  0  0  0  0  0  0  0
    1.5290    0.1040    0.3150 C   0  0  2  0  0  0  0  0  0  0  0  0
    1.7610   -1.0680   -0.3780 O   0  0  0  0  0  0  0  0  0  0  0  0
    2.6350   -0.9130   -1.4410 C   0  0  1  0  0  0  0  0  0  0  0  0
    2.2350    0.0410   -2.3500 O   0  0  0  0  0  0  0  0  0  0  0  0
    4.0170   -0.6320   -0.9020 C   0  0  1  0  0  0  0  0  0  0  0  0
    4.5890    0.4200   -1.6040 O   0  0  0  0  0  0  0  0  0  0  0  0
    3.9390   -0.2110    0.5560 C   0  0  2  0  0  0  0  0  0  0  0  0
    3.7340   -1.3150    1.3720 O   0  0  0  0  0  0  0  0  0  0  0  0
    2.8360    0.7910    0.7100 C   0  0  2  0  0  0  0  0  0  0  0  0
    2.8030    1.2130    2.0380 O   0  0  0  0  0  0  0  0  0  0  0  0
   -2.5860   -0.0300    1.6820 C   0  0  1  0  0  0  0  0  0  0  0  0
   -2.4120    1.1430    2.4470 O   0  0  0  0  0  0  0  0  0  0  0  0
   -3.8460    0.1470    0.9230 C   0  0  2  0  0  0  0  0  0  0  0  0
   -4.8990   -0.3780    1.7040 O   0  0  0  0  0  0  0  0  0  0  0  0
   -3.9060   -0.4900   -0.4080 C   0  0  1  0  0  0  0  0  0  0  0  0
   -4.8240    0.1800   -1.2190 O   0  0  0  0  0  0  0  0  0  0  0  0
  1  2  1  0
  3  2  1  1
  3  4  1  0
  3 22  1  0
  4  5  1  0
  5  6  1  1
  5 18  1  0
  6  7  1  0
  8  7  1  1
  8  9  1  0
  8 16  1  0
  9 10  1  0
 10 11  1  6
 10 12  1  0
 12 13  1  6
 12 14  1  0
 14 15  1  1
 14 16  1  0
 16 17  1  1
 18 19  1  6
 18 20  1  0
 20 21  1  1
 20 22  1  0
 22 23  1  6
M  END
