
     RDKit          3D

 20 20  0  0  0  0  0  0  0  0999 V2000
    6.8330   -0.1790    0.4990 C   0  0  0  0  0  0  0  0  0  0  0  0
    6.1380    0.9920    0.4200 O   0  0  0  0  0  0  0  0  0  0  0  0
    4.7850    0.8320    0.2340 C   0  0  0  0  0  0  0  0  0  0  0  0
    4.5050    0.1100   -1.0290 C   0  0  0  0  0  0  0  0  0  0  0  0
    3.0800   -0.0670   -1.2790 N   0  0  1  0  0  0  0  0  0  0  0  0
    2.5520   -1.0780   -0.4070 C   0  0  0  0  0  0  0  0  0  0  0  0
    1.0170   -1.0940   -0.4940 C   0  0  0  0  0  0  0  0  0  0  0  0
    0.5600    0.1560   -0.0930 N   0  0  0  0  0  0  0  0  0  0  0  0
   -0.8090    0.4580   -0.0180 C   0  0  0  0  0  0  0  0  0  0  0  0
   -1.4020   -0.3660    1.1080 C   0  0  0  0  0  0  0  0  0  0  0  0
   -2.8320   -0.0220    1.2400 C   0  0  0  0  0  0  0  0  0  0  0  0
   -3.2460    0.5520    2.2790 O   0  0  0  0  0  0  0  0  0  0  0  0
   -3.7330   -0.3140    0.2440 O   0  0  0  0  0  0  0  0  0  0  0  0
   -5.0910    0.0220    0.4080 C   0  0  1  0  0  0  0  0  0  0  0  0
   -5.4300    1.0800   -0.6320 C   0  0  0  0  0  0  0  0  0  0  0  0
   -5.9470   -1.1590    0.3130 C   0  0  0  0  0  0  0  0  0  0  0  0
   -7.4010   -1.1900    0.4740 C   0  0  0  0  0  0  0  0  0  0  0  0
   -5.3790   -2.2390    0.0710 O   0  0  0  0  0  0  0  0  0  0  0  0
    1.4850    1.2290    0.0000 C   0  0  0  0  0  0  0  0  0  0  0  0
    2.3560    1.1640   -1.2480 C   0  0  0  0  0  0  0  0  0  0  0  0
  1  2  1  0
  2  3  1  0
  3  4  1  0
  5  4  1  1
  5  6  1  0
  5 20  1  0
  6  7  1  0
  7  8  1  0
  8  9  1  0
  8 19  1  0
  9 10  1  0
 10 11  1  0
 11 12  2  0
 11 13  1  0
 13 14  1  0
 14 15  1  6
 14 16  1  0
 16 17  1  0
 16 18  2  0
 19 20  1  0
M  CHG  1   5   1
M  END
