
     RDKit          3D

  6  5  0  0  0  0  0  0  0  0999 V2000
   -1.4150   -0.3750   -0.2980 C   0  0  0  0  0  0  0  0  0  0  0  0
   -0.3160    0.4390    0.2520 C   0  0  0  0  0  0  0  0  0  0  0  0
   -0.5710    1.4510    0.9320 O   0  0  0  0  0  0  0  0  0  0  0  0
    1.0440    0.0590   -0.0000 C   0  0  0  0  0  0  0  0  0  0  0  0
    1.2970   -0.9480   -0.6770 O   0  0  0  0  0  0  0  0  0  0  0  0
    2.0670    0.8150    0.5110 O   0  0  0  0  0  0  0  0  0  0  0  0
  1  2  1  0
  2  3  2  0
  2  4  1  0
  4  5  2  0
  4  6  1  0
M  END
