
     RDKit          3D

 20 20  0  0  0  0  0  0  0  0999 V2000
    7.1680   -0.2110    0.7530 C   0  0  0  0  0  0  0  0  0  0  0  0
    5.8770    0.0540    1.5390 C   0  0  0  0  0  0  0  0  0  0  0  0
    4.8590    0.3340    0.5450 N   0  0  1  0  0  0  0  0  0  0  0  0
    4.4860   -0.9520   -0.0520 C   0  0  0  0  0  0  0  0  0  0  0  0
    3.4950   -0.8060   -1.1430 C   0  0  0  0  0  0  0  0  0  0  0  0
    2.3700    0.0610   -0.8670 N   0  0  0  0  0  0  0  0  0  0  0  0
    1.2220   -0.7200   -0.5500 C   0  0  0  0  0  0  0  0  0  0  0  0
   -0.0360    0.0080   -0.3700 C   0  0  0  0  0  0  0  0  0  0  0  0
   -0.2020    1.2400   -0.5710 O   0  0  0  0  0  0  0  0  0  0  0  0
   -1.1300   -0.7190    0.0550 O   0  0  0  0  0  0  0  0  0  0  0  0
   -2.4320   -0.1940    0.2800 C   0  0  0  0  0  0  0  0  0  0  0  0
   -3.0570    0.3730   -0.9550 C   0  0  0  0  0  0  0  0  0  0  0  0
   -4.2590    0.9070   -0.8530 O   0  0  0  0  0  0  0  0  0  0  0  0
   -5.3880    0.3830   -0.4330 C   0  0  2  0  0  0  0  0  0  0  0  0
   -5.7640   -0.9500   -1.0710 C   0  0  0  0  0  0  0  0  0  0  0  0
   -6.5020    1.3440   -1.1110 C   0  0  0  0  0  0  0  0  0  0  0  0
   -5.8050    0.4180    0.9930 C   0  0  0  0  0  0  0  0  0  0  0  0
   -4.9630   -0.2050    1.8480 O   0  0  0  0  0  0  0  0  0  0  0  0
    2.6780    1.1410    0.0010 C   0  0  0  0  0  0  0  0  0  0  0  0
    3.6260    0.8280    1.1310 C   0  0  0  0  0  0  0  0  0  0  0  0
  1  2  1  0
  3  2  1  1
  3  4  1  0
  3 20  1  0
  4  5  1  0
  5  6  1  0
  6  7  1  0
  6 19  1  0
  7  8  1  0
  8  9  2  0
  8 10  1  0
 10 11  1  0
 11 12  1  0
 12 13  1  0
 13 14  1  0
 14 15  1  6
 14 16  1  0
 14 17  1  0
 17 18  1  0
 19 20  1  0
M  CHG  1   3   1
M  END
