
     RDKit          3D

 20 19  0  0  0  0  0  0  0  0999 V2000
    6.4670    1.7360   -0.4210 C   0  0  0  0  0  0  0  0  0  0  0  0
    5.9160    1.4320   -1.8160 C   0  0  0  0  0  0  0  0  0  0  0  0
    5.6070    0.1000   -1.9510 O   0  0  0  0  0  0  0  0  0  0  0  0
    4.6700   -0.2990   -1.0240 C   0  0  0  0  0  0  0  0  0  0  0  0
    3.3500    0.4260   -1.1140 C   0  0  0  0  0  0  0  0  0  0  0  0
    2.4870   -0.0750   -0.1270 O   0  0  0  0  0  0  0  0  0  0  0  0
    2.7570    0.0380    1.2080 C   0  0  0  0  0  0  0  0  0  0  0  0
    3.8070    0.6110    1.5830 O   0  0  0  0  0  0  0  0  0  0  0  0
    1.8280   -0.5090    2.2630 C   0  0  0  0  0  0  0  0  0  0  0  0
    0.7040   -1.1140    1.5670 N   0  0  0  0  0  0  0  0  0  0  0  0
    0.7130   -2.5100    1.1710 C   0  0  0  0  0  0  0  0  0  0  0  0
   -0.4140   -0.3260    1.2720 C   0  0  0  0  0  0  0  0  0  0  0  0
   -0.4330    0.8900    1.6130 O   0  0  0  0  0  0  0  0  0  0  0  0
   -1.5850   -0.9250    0.5560 C   0  0  0  0  0  0  0  0  0  0  0  0
   -2.6140    0.1420    0.3850 C   0  0  0  0  0  0  0  0  0  0  0  0
   -3.8500   -0.3210   -0.3230 C   0  0  1  0  0  0  0  0  0  0  0  0
   -4.5150   -1.4390    0.4350 C   0  0  0  0  0  0  0  0  0  0  0  0
   -4.7090    0.7770   -0.6100 N   0  0  2  0  0  0  0  0  0  0  0  0
   -6.1080    0.5160   -0.3560 C   0  0  0  0  0  0  0  0  0  0  0  0
   -4.5210    1.2560   -1.9670 C   0  0  0  0  0  0  0  0  0  0  0  0
  1  2  1  0
  2  3  1  0
  3  4  1  0
  4  5  1  0
  5  6  1  0
  6  7  1  0
  7  8  2  0
  7  9  1  0
  9 10  1  0
 10 11  1  0
 10 12  1  0
 12 13  2  0
 12 14  1  0
 14 15  1  0
 15 16  1  0
 16 17  1  1
 16 18  1  0
 18 19  1  6
 18 20  1  0
M  CHG  1  18   1
M  END
