
     RDKit          3D

 20 20  0  0  0  0  0  0  0  0999 V2000
    7.3090    1.0010   -1.7880 C   0  0  0  0  0  0  0  0  0  0  0  0
    6.3730   -0.2090   -1.7840 C   0  0  0  0  0  0  0  0  0  0  0  0
    5.1740    0.1960   -1.1560 O   0  0  0  0  0  0  0  0  0  0  0  0
    4.0790   -0.6160   -0.9600 C   0  0  0  0  0  0  0  0  0  0  0  0
    4.1400   -1.8040   -1.3660 O   0  0  0  0  0  0  0  0  0  0  0  0
    2.8320   -0.1710   -0.2990 C   0  0  0  0  0  0  0  0  0  0  0  0
    1.8090   -1.2970   -0.2350 C   0  0  0  0  0  0  0  0  0  0  0  0
    0.6370   -0.8050    0.4080 N   0  0  1  0  0  0  0  0  0  0  0  0
   -0.5150   -1.6760    0.2360 C   0  0  0  0  0  0  0  0  0  0  0  0
   -1.6750   -1.0900    1.0020 C   0  0  0  0  0  0  0  0  0  0  0  0
   -1.4790    0.2660    1.3840 N   0  0  0  0  0  0  0  0  0  0  0  0
   -2.5410    0.8680    2.0860 C   0  0  0  0  0  0  0  0  0  0  0  0
   -3.7740    1.1130    1.3520 C   0  0  0  0  0  0  0  0  0  0  0  0
   -4.8090    1.6160    1.8450 O   0  0  0  0  0  0  0  0  0  0  0  0
   -3.8050    0.7670    0.0160 O   0  0  0  0  0  0  0  0  0  0  0  0
   -4.8870    0.9240   -0.8450 C   0  0  2  0  0  0  0  0  0  0  0  0
   -5.4170   -0.4280   -1.2990 C   0  0  0  0  0  0  0  0  0  0  0  0
   -4.6200    1.8240   -2.0270 C   0  0  0  0  0  0  0  0  0  0  0  0
   -0.2660    0.4480    2.1940 C   0  0  0  0  0  0  0  0  0  0  0  0
    0.7620   -0.6050    1.8370 C   0  0  0  0  0  0  0  0  0  0  0  0
  1  2  1  0
  2  3  1  0
  3  4  1  0
  4  5  2  0
  4  6  1  0
  6  7  1  0
  8  7  1  1
  8  9  1  0
  8 20  1  0
  9 10  1  0
 10 11  1  0
 11 12  1  0
 11 19  1  0
 12 13  1  0
 13 14  2  0
 13 15  1  0
 15 16  1  0
 16 17  1  6
 16 18  1  0
 19 20  1  0
M  CHG  1   8   1
M  END
