
     RDKit          3D

 20 20  0  0  0  0  0  0  0  0999 V2000
    6.4350    0.4190    1.4150 C   0  0  0  0  0  0  0  0  0  0  0  0
    4.9620    0.5690    1.0100 C   0  0  0  0  0  0  0  0  0  0  0  0
    4.4310   -0.6620    0.7340 O   0  0  0  0  0  0  0  0  0  0  0  0
    3.0990   -0.6480    0.3750 C   0  0  0  0  0  0  0  0  0  0  0  0
    2.8330    0.1570   -0.8520 C   0  0  0  0  0  0  0  0  0  0  0  0
    1.4100    0.1520   -1.2350 N   0  0  0  0  0  0  0  0  0  0  0  0
    1.3190    0.9510   -2.4130 C   0  0  0  0  0  0  0  0  0  0  0  0
    0.0250    1.6520   -2.6320 C   0  0  0  0  0  0  0  0  0  0  0  0
   -0.5020    2.2020   -1.4640 O   0  0  0  0  0  0  0  0  0  0  0  0
   -0.6630    1.2670   -0.4680 C   0  0  1  0  0  0  0  0  0  0  0  0
   -1.7090    0.2640   -0.8380 C   0  0  0  0  0  0  0  0  0  0  0  0
   -1.9180   -0.7400    0.1730 N   0  0  2  0  0  0  0  0  0  0  0  0
   -1.1830   -1.9570   -0.0940 C   0  0  0  0  0  0  0  0  0  0  0  0
   -2.0840   -3.1390   -0.3580 C   0  0  0  0  0  0  0  0  0  0  0  0
   -3.3300   -1.0580    0.2390 C   0  0  0  0  0  0  0  0  0  0  0  0
   -4.0850    0.0480    0.9160 C   0  0  0  0  0  0  0  0  0  0  0  0
   -3.5140    1.0840    1.3450 O   0  0  0  0  0  0  0  0  0  0  0  0
   -5.4590   -0.0270    1.0990 O   0  0  0  0  0  0  0  0  0  0  0  0
   -6.2120    0.9940    1.7330 C   0  0  0  0  0  0  0  0  0  0  0  0
    0.6710    0.6690   -0.1320 C   0  0  0  0  0  0  0  0  0  0  0  0
  1  2  1  0
  2  3  1  0
  3  4  1  0
  4  5  1  0
  5  6  1  0
  6  7  1  0
  6 20  1  0
  7  8  1  0
  8  9  1  0
  9 10  1  0
 10 11  1  6
 10 20  1  0
 12 11  1  6
 12 13  1  0
 12 15  1  0
 13 14  1  0
 15 16  1  0
 16 17  2  0
 16 18  1  0
 18 19  1  0
M  CHG  1  12   1
M  END
