
     RDKit          3D

 20 19  0  0  0  0  0  0  0  0999 V2000
   -6.2730    1.8620    0.6860 C   0  0  0  0  0  0  0  0  0  0  0  0
   -5.3070    2.5900   -0.0160 O   0  0  0  0  0  0  0  0  0  0  0  0
   -4.0510    2.2180   -0.3230 C   0  0  0  0  0  0  0  0  0  0  0  0
   -3.4880    1.0100    0.0290 C   0  0  0  0  0  0  0  0  0  0  0  0
   -4.2860    0.2210    0.7070 O   0  0  0  0  0  0  0  0  0  0  0  0
   -4.6300   -0.9050    1.3030 C   0  0  0  0  0  0  0  0  0  0  0  0
   -2.1090    0.8330   -0.4170 C   0  0  0  0  0  0  0  0  0  0  0  0
   -1.6230    1.8400   -1.0810 O   0  0  0  0  0  0  0  0  0  0  0  0
   -1.2350   -0.2290   -0.2490 N   0  0  0  0  0  0  0  0  0  0  0  0
   -1.5840   -1.4600    0.4260 C   0  0  0  0  0  0  0  0  0  0  0  0
    0.1490   -0.1650   -0.7500 C   0  0  0  0  0  0  0  0  0  0  0  0
    1.1360    0.3290    0.2390 C   0  0  2  0  0  0  0  0  0  0  0  0
    1.2140   -0.5350    1.4860 C   0  0  0  0  0  0  0  0  0  0  0  0
    0.8280    1.7400    0.6560 C   0  0  0  0  0  0  0  0  0  0  0  0
    2.5330    0.3470   -0.3380 C   0  0  0  0  0  0  0  0  0  0  0  0
    3.1790    1.3760   -0.4300 O   0  0  0  0  0  0  0  0  0  0  0  0
    3.1580   -0.9010   -0.8100 C   0  0  0  0  0  0  0  0  0  0  0  0
    4.4860   -0.7050   -1.3260 N   0  0  1  0  0  0  0  0  0  0  0  0
    5.3980   -0.0930   -0.4120 C   0  0  0  0  0  0  0  0  0  0  0  0
    5.0670   -1.9360   -1.8240 C   0  0  0  0  0  0  0  0  0  0  0  0
  1  2  1  0
  2  3  1  0
  3  4  2  3
  4  5  1  0
  4  7  1  0
  5  6  1  0
  7  8  2  0
  7  9  1  0
  9 10  1  0
  9 11  1  0
 11 12  1  0
 12 13  1  1
 12 14  1  0
 12 15  1  0
 15 16  2  0
 15 17  1  0
 17 18  1  0
 18 19  1  1
 18 20  1  0
M  CHG  1  18   1
M  END
