
     RDKit          3D

 23 26  0  0  0  0  0  0  0  0999 V2000
    5.2130   -1.6340   -0.1470 C   0  0  0  0  0  0  0  0  0  0  0  0
    4.0450   -1.4100   -1.1130 C   0  0  0  0  0  0  0  0  0  0  0  0
    3.1710   -0.3920   -0.4610 C   0  0  0  0  0  0  0  0  0  0  0  0
    3.1240    0.7030   -0.9970 O   0  0  0  0  0  0  0  0  0  0  0  0
    2.4550   -0.7940    0.7580 C   0  0  2  0  0  0  0  0  0  0  0  0
    1.6280   -2.0340    0.3860 C   0  0  0  0  0  0  0  0  0  0  0  0
    0.7670   -1.3930   -0.6790 C   0  0  0  0  0  0  0  0  0  0  0  0
    0.2040   -0.1770    0.0860 C   0  0  2  0  0  0  0  0  0  0  0  0
   -1.0610   -0.7110    0.6980 C   0  0  1  0  0  0  0  0  0  0  0  0
   -1.8500    0.2440    1.5150 C   0  0  0  0  0  0  0  0  0  0  0  0
   -2.8300   -0.6240    2.3260 C   0  0  0  0  0  0  0  0  0  0  0  0
   -3.8500   -1.1200    1.3240 C   0  0  0  0  0  0  0  0  0  0  0  0
   -3.4240   -0.9730   -0.0980 C   0  0  2  0  0  0  0  0  0  0  0  0
   -4.2350   -1.9880   -0.9150 C   0  0  0  0  0  0  0  0  0  0  0  0
   -1.9720   -1.3160   -0.3420 C   0  0  0  0  0  0  0  0  0  0  0  0
   -0.0780    0.9440   -0.8720 C   0  0  0  0  0  0  0  0  0  0  0  0
    0.3240    2.2850   -0.4010 C   0  0  1  0  0  0  0  0  0  0  0  0
    0.2700    3.3090   -1.5380 C   0  0  0  0  0  0  0  0  0  0  0  0
   -0.1240    4.3270   -0.4570 C   0  0  0  0  0  0  0  0  0  0  0  0
   -0.7150    3.1260    0.2980 C   0  0  0  0  0  0  0  0  0  0  0  0
    1.5280    2.3730    0.2370 O   0  0  0  0  0  0  0  0  0  0  0  0
    1.6090    1.5230    1.3060 C   0  0  0  0  0  0  0  0  0  0  0  0
    1.2640    0.1180    1.0860 C   0  0  2  0  0  0  0  0  0  0  0  0
  1  2  1  0
  2  3  1  0
  3  4  2  0
  5  3  1  6
  5  6  1  0
  5 23  1  0
  6  7  1  0
  8  7  1  6
  8  9  1  0
  8 16  1  0
  8 23  1  0
  9 10  1  6
  9 15  1  0
 10 11  1  0
 11 12  1  0
 12 13  1  0
 13 14  1  6
 13 15  1  0
 17 16  1  6
 17 18  1  0
 17 20  1  0
 17 21  1  0
 18 19  1  0
 19 20  1  0
 21 22  1  0
 23 22  1  6
M  END
