
     RDKit          3D

 23 26  0  0  0  0  0  0  0  0999 V2000
    5.6180   -0.5530   -1.4520 C   0  0  0  0  0  0  0  0  0  0  0  0
    5.0670    0.3060   -0.3350 C   0  0  2  0  0  0  0  0  0  0  0  0
    6.0390    0.4210    0.8100 C   0  0  0  0  0  0  0  0  0  0  0  0
    3.7350   -0.2650    0.1030 C   0  0  1  0  0  0  0  0  0  0  0  0
    3.1080    0.5190    1.2090 C   0  0  0  0  0  0  0  0  0  0  0  0
    1.7540   -0.0880    1.5080 C   0  0  0  0  0  0  0  0  0  0  0  0
    0.8330    0.0190    0.2860 C   0  0  1  0  0  0  0  0  0  0  0  0
    1.4590   -0.8340   -0.7890 C   0  0  0  0  0  0  0  0  0  0  0  0
    2.8220   -0.2480   -1.0920 C   0  0  0  0  0  0  0  0  0  0  0  0
   -0.5170   -0.4450    0.7150 C   0  0  0  0  0  0  0  0  0  0  0  0
   -1.6070    0.1290   -0.1400 C   0  0  1  0  0  0  0  0  0  0  0  0
   -1.5020    1.6130   -0.1840 C   0  0  0  0  0  0  0  0  0  0  0  0
   -0.1660    2.0950    0.3730 C   0  0  0  0  0  0  0  0  0  0  0  0
    0.8860    1.3320   -0.1300 O   0  0  0  0  0  0  0  0  0  0  0  0
   -1.4910   -0.4610   -1.4210 O   0  0  0  0  0  0  0  0  0  0  0  0
   -1.8020   -1.7840   -1.2300 C   0  0  0  0  0  0  0  0  0  0  0  0
   -2.8040   -1.8610   -0.0910 C   0  0  0  0  0  0  0  0  0  0  0  0
   -2.9590   -0.3800    0.2490 C   0  0  1  0  0  0  0  0  0  0  0  0
   -3.3600   -0.1300    1.6440 C   0  0  0  0  0  0  0  0  0  0  0  0
   -4.4350    0.9430    1.6490 C   0  0  0  0  0  0  0  0  0  0  0  0
   -4.7830    1.2190    0.2200 C   0  0  0  0  0  0  0  0  0  0  0  0
   -4.0090    0.2590   -0.6300 C   0  0  2  0  0  0  0  0  0  0  0  0
   -4.9910   -0.7590   -1.1810 C   0  0  0  0  0  0  0  0  0  0  0  0
  2  1  1  6
  2  3  1  0
  2  4  1  0
  4  5  1  1
  4  9  1  0
  5  6  1  0
  7  6  1  1
  7  8  1  0
  7 10  1  0
  7 14  1  0
  8  9  1  0
 11 10  1  1
 11 12  1  0
 11 15  1  0
 11 18  1  0
 12 13  1  0
 13 14  1  0
 15 16  1  0
 16 17  1  0
 18 17  1  1
 18 19  1  0
 18 22  1  0
 19 20  1  0
 20 21  1  0
 21 22  1  0
 22 23  1  1
M  END
