
     RDKit          3D

 23 26  0  0  0  0  0  0  0  0999 V2000
   -3.6990   -0.8100   -0.5010 C   0  0  0  0  0  0  0  0  0  0  0  0
   -2.3290   -1.2650   -0.0830 C   0  0  1  0  0  0  0  0  0  0  0  0
   -2.4240   -1.9290    1.2440 C   0  0  0  0  0  0  0  0  0  0  0  0
   -1.7990   -2.1830   -1.1600 C   0  0  0  0  0  0  0  0  0  0  0  0
   -0.5040   -1.9410   -1.4080 O   0  0  0  0  0  0  0  0  0  0  0  0
   -0.0960   -0.7110   -0.8310 C   0  0  2  0  0  0  0  0  0  0  0  0
    0.3660    0.0540   -2.0690 C   0  0  0  0  0  0  0  0  0  0  0  0
    1.0890    1.3100   -1.7810 C   0  0  0  0  0  0  0  0  0  0  0  0
    2.3780    0.9370   -1.0890 C   0  0  1  0  0  0  0  0  0  0  0  0
    3.0050    2.1870   -0.5540 C   0  0  0  0  0  0  0  0  0  0  0  0
    2.8940    2.1570    0.9440 C   0  0  0  0  0  0  0  0  0  0  0  0
    2.0010    0.9570    1.2700 C   0  0  0  0  0  0  0  0  0  0  0  0
    2.1690    0.0310    0.0960 C   0  0  2  0  0  0  0  0  0  0  0  0
    3.5270   -0.6250    0.2900 C   0  0  0  0  0  0  0  0  0  0  0  0
    1.1400   -1.0170   -0.0370 C   0  0  2  0  0  0  0  0  0  0  0  0
    1.8470   -2.1640   -0.7930 C   0  0  0  0  0  0  0  0  0  0  0  0
    0.8810   -1.5910    1.3330 C   0  0  0  0  0  0  0  0  0  0  0  0
   -1.2710   -0.1740   -0.1480 C   0  0  1  0  0  0  0  0  0  0  0  0
   -1.9190    1.0330   -0.6400 C   0  0  0  0  0  0  0  0  0  0  0  0
   -1.8380    1.3990   -1.8290 O   0  0  0  0  0  0  0  0  0  0  0  0
   -2.7290    1.9220    0.2130 C   0  0  2  0  0  0  0  0  0  0  0  0
   -2.1480    2.4230    1.5000 C   0  0  0  0  0  0  0  0  0  0  0  0
   -3.4120    1.5760    1.4470 C   0  0  0  0  0  0  0  0  0  0  0  0
  2  1  1  6
  2  3  1  0
  2  4  1  0
  2 18  1  0
  4  5  1  0
  5  6  1  0
  6  7  1  6
  6 15  1  0
  6 18  1  0
  7  8  1  0
  9  8  1  1
  9 10  1  0
  9 13  1  0
 10 11  1  0
 11 12  1  0
 12 13  1  0
 13 14  1  1
 13 15  1  0
 15 16  1  6
 15 17  1  0
 18 19  1  6
 19 20  2  0
 21 19  1  1
 21 22  1  0
 21 23  1  0
 22 23  1  0
M  END
