
     RDKit          3D

 23 24  0  0  0  0  0  0  0  0999 V2000
   -4.6130   -2.7640    1.5650 C   0  0  0  0  0  0  0  0  0  0  0  0
   -4.2080   -2.3950    0.2210 N   0  0  0  0  0  0  0  0  0  0  0  0
   -3.2280   -1.3670    0.0220 C   0  0  0  0  0  0  0  0  0  0  0  0
   -3.5920   -0.2540   -0.5630 C   0  0  0  0  0  0  0  0  0  0  0  0
   -2.6490    0.8420   -0.8020 C   0  0  0  0  0  0  0  0  0  0  0  0
   -1.4510    0.8240    0.0910 C   0  0  2  0  0  0  0  0  0  0  0  0
   -0.4470    1.7080   -0.5020 N   0  0  0  0  0  0  0  0  0  0  0  0
    0.0850    2.8290    0.1930 C   0  0  0  0  0  0  0  0  0  0  0  0
   -0.3640    3.0190    1.3660 O   0  0  0  0  0  0  0  0  0  0  0  0
    1.0310    3.6790   -0.3410 O   0  0  0  0  0  0  0  0  0  0  0  0
   -0.9250   -0.5180    0.2480 N   0  0  0  0  0  0  0  0  0  0  0  0
    0.4620   -0.8050    0.1950 C   0  0  0  0  0  0  0  0  0  0  0  0
    0.8400   -1.9930    0.3400 O   0  0  0  0  0  0  0  0  0  0  0  0
    1.4300    0.1600   -0.0090 O   0  0  0  0  0  0  0  0  0  0  0  0
    2.7860   -0.2150   -0.0470 C   0  0  0  0  0  0  0  0  0  0  0  0
    3.6950    0.9720   -0.2790 C   0  0  0  0  0  0  0  0  0  0  0  0
    5.1130    0.5310   -0.3110 C   0  0  0  0  0  0  0  0  0  0  0  0
    6.1030    0.8750    0.4420 N   0  0  0  0  0  0  0  0  0  0  0  0
    7.2420    0.2180    0.0540 O   0  0  0  0  0  0  0  0  0  0  0  0
    6.9310   -0.6040   -0.9510 O   0  0  0  0  0  0  0  0  0  0  0  0
    5.6260   -0.3830   -1.2200 O   0  0  0  0  0  0  0  0  0  0  0  0
   -1.8660   -1.5590    0.4610 C   0  0  0  0  0  0  0  0  0  0  0  0
   -1.5240   -2.6480    1.0300 O   0  0  0  0  0  0  0  0  0  0  0  0
  1  2  1  0
  2  3  1  0
  3  4  2  0
  3 22  1  0
  4  5  1  0
  5  6  1  0
  6  7  1  6
  6 11  1  0
  7  8  1  0
  8  9  2  0
  8 10  1  0
 11 12  1  0
 11 22  1  0
 12 13  2  0
 12 14  1  0
 14 15  1  0
 15 16  1  0
 16 17  1  0
 17 18  2  0
 17 21  1  0
 18 19  1  0
 19 20  1  0
 20 21  1  0
 22 23  2  0
M  END
