
     RDKit          3D

 23 25  0  0  0  0  0  0  0  0999 V2000
   -0.3130   -1.4780    2.1310 C   0  0  0  0  0  0  0  0  0  0  0  0
    0.2130   -1.4100    0.7070 C   0  0  2  0  0  0  0  0  0  0  0  0
   -0.8840   -1.3190   -0.2780 C   0  0  0  0  0  0  0  0  0  0  0  0
   -2.0130   -0.6460   -0.0210 C   0  0  0  0  0  0  0  0  0  0  0  0
   -3.1240   -0.4960   -0.8950 N   0  0  0  0  0  0  0  0  0  0  0  0
   -4.0350    0.2180   -0.3110 C   0  0  0  0  0  0  0  0  0  0  0  0
   -5.3270    0.6550   -0.7490 N   0  0  0  0  0  0  0  0  0  0  0  0
   -6.1230    1.4390    0.1130 C   0  0  0  0  0  0  0  0  0  0  0  0
   -7.2600    1.8170   -0.2880 O   0  0  0  0  0  0  0  0  0  0  0  0
   -5.7100    1.8270    1.4120 N   0  0  0  0  0  0  0  0  0  0  0  0
   -4.4300    1.3930    1.8420 C   0  0  0  0  0  0  0  0  0  0  0  0
   -4.0480    1.7260    2.9890 O   0  0  0  0  0  0  0  0  0  0  0  0
   -3.6040    0.6000    0.9950 N   0  0  0  0  0  0  0  0  0  0  0  0
   -2.3430    0.0430    1.1350 O   0  0  0  0  0  0  0  0  0  0  0  0
    0.9630   -2.5430    0.4910 O   0  0  0  0  0  0  0  0  0  0  0  0
    2.3030   -2.1550    0.4860 C   0  0  0  0  0  0  0  0  0  0  0  0
    2.1680   -0.7770   -0.1780 C   0  0  2  0  0  0  0  0  0  0  0  0
    3.2720    0.0060    0.0110 O   0  0  0  0  0  0  0  0  0  0  0  0
    3.8000    0.5160   -1.1720 C   0  0  0  0  0  0  0  0  0  0  0  0
    5.0010    1.3610   -0.8940 C   0  0  0  0  0  0  0  0  0  0  0  0
    5.9910    0.6100   -0.2610 O   0  0  0  0  0  0  0  0  0  0  0  0
    7.0210    1.3950   -0.0390 O   0  0  0  0  0  0  0  0  0  0  0  0
    1.0350   -0.3060    0.5200 O   0  0  0  0  0  0  0  0  0  0  0  0
  2  1  1  1
  2  3  1  0
  2 15  1  0
  2 23  1  0
  3  4  2  3
  4  5  1  0
  4 14  1  0
  5  6  2  0
  6  7  1  0
  6 13  1  0
  7  8  1  0
  8  9  2  0
  8 10  1  0
 10 11  1  0
 11 12  2  0
 11 13  1  0
 13 14  1  0
 15 16  1  0
 16 17  1  0
 17 18  1  1
 17 23  1  0
 18 19  1  0
 19 20  1  0
 20 21  1  0
 21 22  1  0
M  END
