
     RDKit          3D

 23 24  0  0  0  0  0  0  0  0999 V2000
    6.4790   -1.7070    0.4460 O   0  0  0  0  0  0  0  0  0  0  0  0
    5.4380   -1.1290    0.0260 C   0  0  0  0  0  0  0  0  0  0  0  0
    4.5550   -1.7380   -0.9810 C   0  0  0  0  0  0  0  0  0  0  0  0
    3.3980   -1.0030   -1.2440 O   0  0  0  0  0  0  0  0  0  0  0  0
    2.4180   -0.7440   -0.3040 C   0  0  0  0  0  0  0  0  0  0  0  0
    2.5240   -1.1750    0.8630 O   0  0  0  0  0  0  0  0  0  0  0  0
    1.2790    0.0030   -0.6140 O   0  0  0  0  0  0  0  0  0  0  0  0
    0.3080    0.2390    0.3840 C   0  0  1  0  0  0  0  0  0  0  0  0
    0.0850    1.7340    0.4740 C   0  0  0  0  0  0  0  0  0  0  0  0
   -0.9640    1.9370   -0.6060 C   0  0  0  0  0  0  0  0  0  0  0  0
   -1.8830    0.8700   -0.2830 N   0  0  0  0  0  0  0  0  0  0  0  0
   -3.2910    0.9740   -0.2030 C   0  0  0  0  0  0  0  0  0  0  0  0
   -4.0090    1.8500    0.4120 N   0  0  0  0  0  0  0  0  0  0  0  0
   -5.3820    1.6380    0.2710 C   0  0  0  0  0  0  0  0  0  0  0  0
   -6.2800    2.3520    0.7740 O   0  0  0  0  0  0  0  0  0  0  0  0
   -5.5520    0.4830   -0.5320 N   0  0  0  0  0  0  0  0  0  0  0  0
   -4.2130    0.0330   -0.8530 C   0  0  2  0  0  0  0  0  0  0  0  0
   -4.0700   -1.3800   -0.3500 C   0  0  0  0  0  0  0  0  0  0  0  0
   -4.2520   -1.5020    1.0110 O   0  0  0  0  0  0  0  0  0  0  0  0
   -1.0600   -0.2950   -0.0660 C   0  0  0  0  0  0  0  0  0  0  0  0
    5.1530    0.1470    0.5690 N   0  0  0  0  0  0  0  0  0  0  0  0
    5.9960    0.6880    1.5080 O   0  0  0  0  0  0  0  0  0  0  0  0
    7.2000    0.1670    1.3610 O   0  0  0  0  0  0  0  0  0  0  0  0
  1  2  2  0
  2  3  1  0
  2 21  1  0
  3  4  1  0
  4  5  1  0
  5  6  2  0
  5  7  1  0
  8  7  1  6
  8  9  1  0
  8 20  1  0
  9 10  1  0
 10 11  1  0
 11 12  1  0
 11 20  1  0
 12 13  2  0
 12 17  1  0
 13 14  1  0
 14 15  2  0
 14 16  1  0
 16 17  1  0
 17 18  1  1
 18 19  1  0
 21 22  1  0
 22 23  1  0
M  END
