
     RDKit          3D

 23 25  0  0  0  0  0  0  0  0999 V2000
    3.9450   -2.0930   -0.8440 O   0  0  0  0  0  0  0  0  0  0  0  0
    4.5240   -1.5190    0.1060 C   0  0  0  0  0  0  0  0  0  0  0  0
    5.3800   -2.2110    0.9460 O   0  0  0  0  0  0  0  0  0  0  0  0
    4.3000   -0.1870    0.3100 O   0  0  0  0  0  0  0  0  0  0  0  0
    3.4520    0.6250   -0.4760 C   0  0  2  0  0  0  0  0  0  0  0  0
    4.2480    1.6200   -1.0700 O   0  0  0  0  0  0  0  0  0  0  0  0
    3.7470    2.8450   -0.6800 C   0  0  0  0  0  0  0  0  0  0  0  0
    4.1910    3.9950   -1.0060 O   0  0  0  0  0  0  0  0  0  0  0  0
    2.6440    2.6110    0.1540 N   0  0  0  0  0  0  0  0  0  0  0  0
    2.4350    1.3310    0.3010 C   0  0  0  0  0  0  0  0  0  0  0  0
    1.3700    0.8550    1.1030 N   0  0  0  0  0  0  0  0  0  0  0  0
    0.2070    0.5480    0.5930 C   0  0  0  0  0  0  0  0  0  0  0  0
   -0.7970    0.0970    1.3650 N   0  0  0  0  0  0  0  0  0  0  0  0
   -1.9830   -0.2100    0.8110 C   0  0  0  0  0  0  0  0  0  0  0  0
   -2.1530   -0.0560   -0.5560 C   0  0  0  0  0  0  0  0  0  0  0  0
   -1.1120    0.4080   -1.3320 C   0  0  0  0  0  0  0  0  0  0  0  0
    0.0560    0.7030   -0.7350 N   0  0  0  0  0  0  0  0  0  0  0  0
   -3.3150   -0.3320   -1.2560 O   0  0  0  0  0  0  0  0  0  0  0  0
   -4.5990   -0.7620   -0.7800 C   0  0  0  0  0  0  0  0  0  0  0  0
   -4.5020   -1.5830    0.3180 O   0  0  0  0  0  0  0  0  0  0  0  0
   -4.4170   -0.8760    1.5270 C   0  0  0  0  0  0  0  0  0  0  0  0
   -2.9670   -0.6880    1.7970 C   0  0  0  0  0  0  0  0  0  0  0  0
   -2.5190   -0.9450    2.9370 O   0  0  0  0  0  0  0  0  0  0  0  0
  1  2  2  0
  2  3  1  0
  2  4  1  0
  5  4  1  1
  5  6  1  0
  5 10  1  0
  6  7  1  0
  7  8  2  0
  7  9  1  0
  9 10  2  0
 10 11  1  0
 11 12  2  3
 12 13  1  0
 12 17  1  0
 13 14  2  0
 14 15  1  0
 14 22  1  0
 15 16  2  0
 15 18  1  0
 16 17  1  0
 18 19  1  0
 19 20  1  0
 20 21  1  0
 21 22  1  0
 22 23  2  0
M  END
