
     RDKit          3D

 23 24  0  0  0  0  0  0  0  0999 V2000
    4.5310    2.6810   -1.5340 O   0  0  0  0  0  0  0  0  0  0  0  0
    4.7670    1.9250   -0.5650 C   0  0  0  0  0  0  0  0  0  0  0  0
    5.8930    2.1470    0.2190 O   0  0  0  0  0  0  0  0  0  0  0  0
    3.8670    0.8590   -0.3000 N   0  0  0  0  0  0  0  0  0  0  0  0
    2.7010    0.6260   -1.1070 C   0  0  0  0  0  0  0  0  0  0  0  0
    2.4770    1.3810   -2.0660 O   0  0  0  0  0  0  0  0  0  0  0  0
    1.8850   -0.4680   -0.7390 N   0  0  0  0  0  0  0  0  0  0  0  0
    0.6810   -0.1900   -0.3120 C   0  0  0  0  0  0  0  0  0  0  0  0
    0.2020    1.1240   -0.2170 N   0  0  0  0  0  0  0  0  0  0  0  0
   -1.1430    1.3510    0.2670 C   0  0  0  0  0  0  0  0  0  0  0  0
   -1.5500    2.7700    0.3260 C   0  0  0  0  0  0  0  0  0  0  0  0
   -2.6190    3.2120    0.6940 O   0  0  0  0  0  0  0  0  0  0  0  0
   -0.6220    3.7470   -0.0820 O   0  0  0  0  0  0  0  0  0  0  0  0
   -1.9190    0.3700    0.6180 C   0  0  0  0  0  0  0  0  0  0  0  0
   -3.2950    0.5700    1.1130 C   0  0  0  0  0  0  0  0  0  0  0  0
   -3.9210    1.6080    1.2750 O   0  0  0  0  0  0  0  0  0  0  0  0
   -4.0300   -0.5970    1.4630 O   0  0  0  0  0  0  0  0  0  0  0  0
   -1.4370   -1.0510    0.5540 C   0  0  1  0  0  0  0  0  0  0  0  0
   -2.4610   -1.9330   -0.1410 C   0  0  0  0  0  0  0  0  0  0  0  0
   -1.8570   -2.7530   -1.0920 O   0  0  0  0  0  0  0  0  0  0  0  0
   -0.8060   -3.4920   -0.5620 C   0  0  0  0  0  0  0  0  0  0  0  0
    0.3400   -2.6410   -0.0790 C   0  0  0  0  0  0  0  0  0  0  0  0
   -0.1490   -1.2530    0.0590 N   0  0  0  0  0  0  0  0  0  0  0  0
  1  2  2  0
  2  3  1  0
  2  4  1  0
  4  5  1  0
  5  6  2  0
  5  7  1  0
  7  8  2  3
  8  9  1  0
  8 23  1  0
  9 10  1  0
 10 11  1  0
 10 14  2  0
 11 12  2  0
 11 13  1  0
 14 15  1  0
 14 18  1  0
 15 16  2  0
 15 17  1  0
 18 19  1  6
 18 23  1  0
 19 20  1  0
 20 21  1  0
 21 22  1  0
 22 23  1  0
M  END
