
     RDKit          3D

 23 25  0  0  0  0  0  0  0  0999 V2000
   -0.3560   -0.6580   -3.0350 O   0  0  0  0  0  0  0  0  0  0  0  0
   -0.4010   -0.9080   -1.8030 C   0  0  0  0  0  0  0  0  0  0  0  0
    0.7230   -1.1670   -1.0910 O   0  0  0  0  0  0  0  0  0  0  0  0
    1.0130   -2.2370   -0.2470 C   0  0  0  0  0  0  0  0  0  0  0  0
    2.4310   -1.9960    0.2930 C   0  0  2  0  0  0  0  0  0  0  0  0
    2.7410   -2.8490    1.3210 O   0  0  0  0  0  0  0  0  0  0  0  0
    2.5960   -0.5610    0.6390 C   0  0  0  0  0  0  0  0  0  0  0  0
    1.5750    0.2580    0.4620 N   0  0  0  0  0  0  0  0  0  0  0  0
    1.9000    1.5060    0.8240 C   0  0  0  0  0  0  0  0  0  0  0  0
    3.1680    1.4540    1.2390 N   0  0  0  0  0  0  0  0  0  0  0  0
    3.5960    0.1850    1.1260 N   0  0  0  0  0  0  0  0  0  0  0  0
    0.9490    2.6260    0.7320 C   0  0  0  0  0  0  0  0  0  0  0  0
   -0.4340    2.2040    0.6970 N   0  0  0  0  0  0  0  0  0  0  0  0
   -1.2160    2.7530   -0.4490 C   0  0  0  0  0  0  0  0  0  0  0  0
   -1.4730    1.5750   -1.3360 C   0  0  0  0  0  0  0  0  0  0  0  0
   -2.1050    0.4630   -0.5970 C   0  0  2  0  0  0  0  0  0  0  0  0
   -1.9330    0.3970    0.7700 O   0  0  0  0  0  0  0  0  0  0  0  0
   -1.1680    1.3590    1.5080 C   0  0  0  0  0  0  0  0  0  0  0  0
   -1.3600    1.1930    2.7350 O   0  0  0  0  0  0  0  0  0  0  0  0
   -1.7360   -0.9090   -1.1590 C   0  0  2  0  0  0  0  0  0  0  0  0
   -1.8010   -1.8750   -0.1330 O   0  0  0  0  0  0  0  0  0  0  0  0
   -2.6490   -2.8250   -0.3810 O   0  0  0  0  0  0  0  0  0  0  0  0
   -3.7070   -2.8140    0.3690 O   0  0  0  0  0  0  0  0  0  0  0  0
  1  2  2  0
  2  3  1  0
  2 20  1  0
  3  4  1  0
  4  5  1  0
  5  6  1  1
  5  7  1  0
  7  8  2  0
  7 11  1  0
  8  9  1  0
  9 10  2  0
  9 12  1  0
 10 11  1  0
 12 13  1  0
 13 14  1  0
 13 18  1  0
 14 15  1  0
 15 16  1  0
 16 17  1  1
 16 20  1  0
 17 18  1  0
 18 19  2  0
 20 21  1  1
 21 22  1  0
 22 23  1  0
M  END
