
     RDKit          3D

 44 48  0  0  0  0  0  0  0  0999 V2000
   -6.8500   -4.3030    4.3480 C   0  0  0  0  0  0  0  0  0  0  0  0
   -5.9910   -3.5600    3.3420 C   0  0  0  0  0  0  0  0  0  0  0  0
   -6.7750   -3.0780    2.2850 O   0  0  0  0  0  0  0  0  0  0  0  0
   -6.2190   -2.3430    1.2490 C   0  0  0  0  0  0  0  0  0  0  0  0
   -4.8730   -2.0550    1.2060 C   0  0  0  0  0  0  0  0  0  0  0  0
   -4.2930   -1.3250    0.1950 C   0  0  0  0  0  0  0  0  0  0  0  0
   -2.8710   -1.1650    0.1600 C   0  0  0  0  0  0  0  0  0  0  0  0
   -2.2310   -2.0710    0.8630 O   0  0  0  0  0  0  0  0  0  0  0  0
   -2.0600   -0.2300   -0.4810 N   0  0  0  0  0  0  0  0  0  0  0  0
   -0.6100   -0.4460   -0.4170 C   0  0  0  0  0  0  0  0  0  0  0  0
    0.0470    0.1050    0.7920 C   0  0  0  0  0  0  0  0  0  0  0  0
    1.5700   -0.1470    0.7770 C   0  0  1  0  0  0  0  0  0  0  0  0
    2.2390    0.5180   -0.3620 C   0  0  0  0  0  0  0  0  0  0  0  0
    3.6280    0.3280   -0.5590 N   0  0  2  0  0  0  0  0  0  0  0  0
    3.9320   -1.0730   -0.8830 C   0  0  0  0  0  0  0  0  0  0  0  0
    5.2840   -1.0570   -1.5790 C   0  0  2  0  0  0  0  0  0  0  0  0
    5.5060   -2.1850   -2.5130 C   0  0  0  0  0  0  0  0  0  0  0  0
    5.4430   -3.4900   -1.9340 N   0  0  0  0  0  0  0  0  0  0  0  0
    6.3010   -0.9440   -0.4570 C   0  0  0  0  0  0  0  0  0  0  0  0
    5.5960   -0.1890    0.6510 C   0  0  0  0  0  0  0  0  0  0  0  0
    5.8540   -0.4490    1.8010 O   0  0  0  0  0  0  0  0  0  0  0  0
    4.5790    0.8790    0.3140 C   0  0  1  0  0  0  0  0  0  0  0  0
    5.4300    1.9640   -0.4050 C   0  0  0  0  0  0  0  0  0  0  0  0
    2.0480    0.4100    2.0650 C   0  0  0  0  0  0  0  0  0  0  0  0
    2.7100   -0.3430    3.0020 C   0  0  0  0  0  0  0  0  0  0  0  0
    3.1000    0.2420    4.1790 C   0  0  0  0  0  0  0  0  0  0  0  0
    2.8430    1.5770    4.4490 C   0  0  0  0  0  0  0  0  0  0  0  0
    2.1740    2.3510    3.5120 C   0  0  0  0  0  0  0  0  0  0  0  0
    1.8870    3.7820    3.7630 C   0  0  0  0  0  0  0  0  0  0  0  0
    1.7930    1.7370    2.3350 C   0  0  0  0  0  0  0  0  0  0  0  0
   -2.5060    0.9460   -1.0900 C   0  0  1  0  0  0  0  0  0  0  0  0
   -1.7540    2.2170   -0.7660 C   0  0  0  0  0  0  0  0  0  0  0  0
   -2.4820    3.0980   -1.7290 N   0  0  1  0  0  0  0  0  0  0  0  0
   -1.8350    4.3550   -1.8560 C   0  0  0  0  0  0  0  0  0  0  0  0
   -2.3110    2.2970   -2.9350 C   0  0  0  0  0  0  0  0  0  0  0  0
   -2.1670    2.6720   -4.2380 C   0  0  0  0  0  0  0  0  0  0  0  0
   -2.0090    1.6780   -5.2120 C   0  0  0  0  0  0  0  0  0  0  0  0
   -2.0040    0.3410   -4.8330 C   0  0  0  0  0  0  0  0  0  0  0  0
   -2.1510   -0.0290   -3.5090 C   0  0  0  0  0  0  0  0  0  0  0  0
   -2.3030    0.9640   -2.5820 C   0  0  0  0  0  0  0  0  0  0  0  0
   -5.1350   -0.8820   -0.8020 C   0  0  0  0  0  0  0  0  0  0  0  0
   -6.5110   -1.1650   -0.7780 C   0  0  0  0  0  0  0  0  0  0  0  0
   -7.0620   -1.8950    0.2430 C   0  0  0  0  0  0  0  0  0  0  0  0
   -8.4230   -2.1990    0.3030 O   0  0  0  0  0  0  0  0  0  0  0  0
  1  2  1  0
  2  3  1  0
  3  4  1  0
  4  5  2  0
  4 43  1  0
  5  6  1  0
  6  7  1  0
  6 41  2  0
  7  8  2  0
  7  9  1  0
  9 10  1  0
 31  9  1  1
 10 11  1  0
 12 11  1  6
 12 13  1  0
 12 24  1  0
 14 13  1  1
 14 15  1  0
 14 22  1  0
 15 16  1  0
 16 17  1  1
 16 19  1  0
 17 18  1  0
 19 20  1  0
 20 21  2  0
 20 22  1  0
 22 23  1  6
 24 25  2  0
 24 30  1  0
 25 26  1  0
 26 27  2  0
 27 28  1  0
 28 29  1  0
 28 30  2  0
 31 32  1  0
 31 40  1  0
 32 33  1  0
 33 34  1  6
 33 35  1  0
 35 36  2  0
 35 40  1  0
 36 37  1  0
 37 38  2  0
 38 39  1  0
 39 40  2  0
 41 42  1  0
 42 43  2  0
 43 44  1  0
M  CHG  3  14   1  18   1  33   1
M  END
