
     RDKit          3D

 45 48  0  0  0  0  0  0  0  0999 V2000
    9.7950    2.4010   -2.5440 C   0  0  0  0  0  0  0  0  0  0  0  0
    8.8710    1.2160   -2.5930 C   0  0  0  0  0  0  0  0  0  0  0  0
    9.1100    0.0200   -2.0000 C   0  0  0  0  0  0  0  0  0  0  0  0
    8.1600   -1.0280   -2.0030 C   0  0  0  0  0  0  0  0  0  0  0  0
    6.9660   -0.8270   -2.6160 C   0  0  0  0  0  0  0  0  0  0  0  0
    5.7990   -1.8250   -2.5290 C   0  0  0  0  0  0  0  0  0  0  0  0
    5.0850   -1.5170   -1.4650 O   0  0  0  0  0  0  0  0  0  0  0  0
    4.3480   -1.2590   -0.4520 C   0  0  0  0  0  0  0  0  0  0  0  0
    3.0990   -1.7450   -0.2310 C   0  0  0  0  0  0  0  0  0  0  0  0
    2.3310   -1.3960    0.8920 C   0  0  0  0  0  0  0  0  0  0  0  0
    1.0170   -2.0450    1.0470 C   0  0  0  0  0  0  0  0  0  0  0  0
    2.8310   -0.5430    1.8030 C   0  0  0  0  0  0  0  0  0  0  0  0
    2.0760    0.0600    2.9110 C   0  0  0  0  0  0  0  0  0  0  0  0
    1.3310    1.3050    2.3970 C   0  0  0  0  0  0  0  0  0  0  0  0
    0.2890    0.9670    1.5200 N   0  0  0  0  0  0  0  0  0  0  0  0
   -0.9450    0.3560    1.8720 C   0  0  0  0  0  0  0  0  0  0  0  0
   -1.0860    0.1560    3.1250 O   0  0  0  0  0  0  0  0  0  0  0  0
   -1.9720   -0.0070    0.9620 N   0  0  0  0  0  0  0  0  0  0  0  0
   -3.2160   -0.5210    1.4860 C   0  0  0  0  0  0  0  0  0  0  0  0
   -4.2340   -0.8960    0.4530 C   0  0  1  0  0  0  0  0  0  0  0  0
   -4.6010    0.1930   -0.4610 C   0  0  0  0  0  0  0  0  0  0  0  0
   -5.1010    1.5010   -0.0840 C   0  0  2  0  0  0  0  0  0  0  0  0
   -6.3360    1.7290    0.6710 C   0  0  0  0  0  0  0  0  0  0  0  0
   -7.5000    1.7170   -0.2160 N   0  0  0  0  0  0  0  0  0  0  0  0
   -7.5320    3.0620   -0.8060 C   0  0  0  0  0  0  0  0  0  0  0  0
   -6.2160    3.3500   -1.4510 C   0  0  1  0  0  0  0  0  0  0  0  0
   -5.5870    4.6730   -0.9910 C   0  0  0  0  0  0  0  0  0  0  0  0
   -5.2310    2.2550   -1.4490 C   0  0  0  0  0  0  0  0  0  0  0  0
   -3.5390   -2.0110   -0.3800 C   0  0  0  0  0  0  0  0  0  0  0  0
   -3.7550   -3.3800    0.1210 C   0  0  0  0  0  0  0  0  0  0  0  0
   -4.9900   -3.9950   -0.5400 C   0  0  0  0  0  0  0  0  0  0  0  0
   -6.1880   -3.6790    0.1950 N   0  0  2  0  0  0  0  0  0  0  0  0
   -7.3200   -4.2810   -0.4500 C   0  0  0  0  0  0  0  0  0  0  0  0
   -6.3440   -2.2160    0.0590 C   0  0  0  0  0  0  0  0  0  0  0  0
   -5.4270   -1.5590    1.0620 C   0  0  0  0  0  0  0  0  0  0  0  0
    4.1240   -0.0500    1.5850 C   0  0  0  0  0  0  0  0  0  0  0  0
    4.9290   -0.3470    0.5250 C   0  0  0  0  0  0  0  0  0  0  0  0
    6.1740    0.0950    0.3120 O   0  0  0  0  0  0  0  0  0  0  0  0
    7.0690    0.9390    0.9360 C   0  0  2  0  0  0  0  0  0  0  0  0
    8.3830    0.1920    1.2570 C   0  0  0  0  0  0  0  0  0  0  0  0
    6.6550    1.7220    2.0370 C   0  0  0  0  0  0  0  0  0  0  0  0
    6.2670    2.4610    3.0770 N   0  0  0  0  0  0  0  0  0  0  0  0
    8.1550    2.3090    2.2410 O   0  0  0  0  0  0  0  0  0  0  0  0
    6.7180    0.3850   -3.2260 C   0  0  0  0  0  0  0  0  0  0  0  0
    7.6380    1.4080   -3.2270 C   0  0  0  0  0  0  0  0  0  0  0  0
  1  2  1  0
  2  3  2  0
  2 45  1  0
  3  4  1  0
  4  5  2  0
  5  6  1  0
  5 44  1  0
  6  7  1  0
  7  8  1  0
  8  9  2  0
  8 37  1  0
  9 10  1  0
 10 11  1  0
 10 12  2  0
 12 13  1  0
 12 36  1  0
 13 14  1  0
 14 15  1  0
 15 16  1  0
 16 17  2  0
 16 18  1  0
 18 19  1  0
 20 19  1  1
 20 21  1  0
 20 29  1  0
 20 35  1  0
 22 21  1  6
 22 23  1  0
 22 28  1  0
 23 24  1  0
 24 25  1  0
 25 26  1  0
 26 27  1  1
 26 28  1  0
 29 30  1  0
 30 31  1  0
 31 32  1  0
 32 33  1  6
 32 34  1  0
 34 35  1  0
 36 37  2  0
 37 38  1  0
 38 39  1  0
 39 40  1  1
 39 41  1  0
 41 42  1  0
 41 43  2  0
 44 45  2  0
M  CHG  2  24   1  32   1
M  END
