
     RDKit          3D

 45 50  0  0  0  0  0  0  0  0999 V2000
  -10.2100    1.5990   -2.0040 C   0  0  0  0  0  0  0  0  0  0  0  0
   -9.3490    1.3380   -0.7620 C   0  0  1  0  0  0  0  0  0  0  0  0
   -9.7030    2.4160    0.2700 C   0  0  0  0  0  0  0  0  0  0  0  0
   -9.7800    0.0220   -0.2000 C   0  0  0  0  0  0  0  0  0  0  0  0
   -8.8820   -0.2960    0.9660 C   0  0  0  0  0  0  0  0  0  0  0  0
   -9.3090   -0.6220    2.0860 O   0  0  0  0  0  0  0  0  0  0  0  0
   -7.4470   -0.2090    0.7370 C   0  0  0  0  0  0  0  0  0  0  0  0
   -6.5310   -0.9240    1.5070 C   0  0  0  0  0  0  0  0  0  0  0  0
   -5.1740   -0.8280    1.2700 C   0  0  0  0  0  0  0  0  0  0  0  0
   -4.2450   -1.5910    2.1370 C   0  0  0  0  0  0  0  0  0  0  0  0
   -2.8950   -1.6290    1.6900 N   0  0  0  0  0  0  0  0  0  0  0  0
   -2.5450   -2.3170    0.5010 C   0  0  0  0  0  0  0  0  0  0  0  0
   -3.4430   -2.9610   -0.2610 N   0  0  0  0  0  0  0  0  0  0  0  0
   -3.1240   -3.6150   -1.3770 C   0  0  0  0  0  0  0  0  0  0  0  0
   -1.8280   -3.6690   -1.8230 C   0  0  0  0  0  0  0  0  0  0  0  0
   -0.8480   -3.0210   -1.0780 C   0  0  0  0  0  0  0  0  0  0  0  0
   -1.2110   -2.3600    0.0610 C   0  0  0  0  0  0  0  0  0  0  0  0
   -0.2790   -1.6740    0.9120 N   0  0  0  0  0  0  0  0  0  0  0  0
    0.2170   -0.4900    0.5180 C   0  0  0  0  0  0  0  0  0  0  0  0
    1.0660    0.1890    1.3490 C   0  0  0  0  0  0  0  0  0  0  0  0
    1.7580    1.7420    0.8940 S   0  0  0  0  0  0  0  0  0  0  0  0
    3.4170    1.5450    0.3250 C   0  0  0  0  0  0  0  0  0  0  0  0
    4.0660    2.5390    0.0650 O   0  0  0  0  0  0  0  0  0  0  0  0
    4.0160    0.2080    0.1720 C   0  0  0  0  0  0  0  0  0  0  0  0
    5.4800    0.3460   -0.1330 C   0  0  0  0  0  0  0  0  0  0  0  0
    6.3990    0.2180    0.9210 C   0  0  0  0  0  0  0  0  0  0  0  0
    7.7470    0.3450    0.6800 C   0  0  0  0  0  0  0  0  0  0  0  0
    8.2730    0.5990   -0.5790 C   0  0  0  0  0  0  0  0  0  0  0  0
    9.6730    0.7140   -0.7340 N   0  0  0  0  0  0  0  0  0  0  0  0
   10.5250    0.6110    0.4250 C   0  0  0  0  0  0  0  0  0  0  0  0
   11.9210    1.1040    0.0220 C   0  0  0  0  0  0  0  0  0  0  0  0
   12.3450    0.2650   -0.9870 O   0  0  0  0  0  0  0  0  0  0  0  0
   11.6610    0.3870   -2.1670 C   0  0  0  0  0  0  0  0  0  0  0  0
   10.2530    0.9270   -2.0270 C   0  0  0  0  0  0  0  0  0  0  0  0
    7.3500    0.7210   -1.6020 C   0  0  0  0  0  0  0  0  0  0  0  0
    5.9740    0.5950   -1.3750 C   0  0  0  0  0  0  0  0  0  0  0  0
    1.3790   -0.3820    2.5690 C   0  0  0  0  0  0  0  0  0  0  0  0
    2.1700    0.2650    3.3300 O   0  0  0  0  0  0  0  0  0  0  0  0
    0.8560   -1.5810    2.9280 N   0  0  0  0  0  0  0  0  0  0  0  0
    0.0220   -2.2240    2.0840 C   0  0  0  0  0  0  0  0  0  0  0  0
   -0.6190   -3.6850    2.4940 S   0  0  0  0  0  0  0  0  0  0  0  0
   -4.7570   -0.0080    0.2500 C   0  0  0  0  0  0  0  0  0  0  0  0
   -5.6580    0.7080   -0.5240 C   0  0  0  0  0  0  0  0  0  0  0  0
   -7.0150    0.6110   -0.2820 C   0  0  0  0  0  0  0  0  0  0  0  0
   -7.9120    1.4140   -1.1370 C   0  0  0  0  0  0  0  0  0  0  0  0
  2  1  1  6
  2  3  1  0
  2  4  1  0
  2 45  1  0
  4  5  1  0
  5  6  2  0
  5  7  1  0
  7  8  2  0
  7 44  1  0
  8  9  1  0
  9 10  1  0
  9 42  2  0
 10 11  1  0
 11 12  1  0
 12 13  2  0
 12 17  1  0
 13 14  1  0
 14 15  2  0
 15 16  1  0
 16 17  2  0
 17 18  1  0
 18 19  1  0
 18 40  1  0
 19 20  2  0
 20 21  1  0
 20 37  1  0
 21 22  1  0
 22 23  2  0
 22 24  1  0
 24 25  1  0
 25 26  2  0
 25 36  1  0
 26 27  1  0
 27 28  2  0
 28 29  1  0
 28 35  1  0
 29 30  1  0
 29 34  1  0
 30 31  1  0
 31 32  1  0
 32 33  1  0
 33 34  1  0
 35 36  2  0
 37 38  2  0
 37 39  1  0
 39 40  1  0
 40 41  2  0
 42 43  1  0
 43 44  2  0
 44 45  1  0
M  END
