
     RDKit          3D

 45 49  0  0  0  0  0  0  0  0999 V2000
   -7.0650   -0.9240   -1.4780 C   0  0  0  0  0  0  0  0  0  0  0  0
   -5.5630   -1.0800   -1.2390 C   0  0  0  0  0  0  0  0  0  0  0  0
   -5.3190   -1.7810   -0.0170 N   0  0  0  0  0  0  0  0  0  0  0  0
   -4.1030   -2.5350    0.0140 C   0  0  2  0  0  0  0  0  0  0  0  0
   -2.8940   -1.6950   -0.4190 C   0  0  0  0  0  0  0  0  0  0  0  0
   -2.7050   -0.5610    0.4340 N   0  0  0  0  0  0  0  0  0  0  0  0
   -1.3300   -0.3560    0.8480 C   0  0  2  0  0  0  0  0  0  0  0  0
   -1.1730   -0.7760    2.2570 C   0  0  0  0  0  0  0  0  0  0  0  0
   -1.2730    0.1180    3.2940 C   0  0  0  0  0  0  0  0  0  0  0  0
   -1.1160   -0.2780    4.6170 C   0  0  0  0  0  0  0  0  0  0  0  0
   -0.8580   -1.5880    4.8790 C   0  0  0  0  0  0  0  0  0  0  0  0
   -0.6800   -2.0720    6.2680 C   0  0  0  0  0  0  0  0  0  0  0  0
   -0.7470   -2.5300    3.8630 C   0  0  0  0  0  0  0  0  0  0  0  0
   -0.9070   -2.1120    2.5570 C   0  0  0  0  0  0  0  0  0  0  0  0
   -0.8740    1.0500    0.6130 C   0  0  1  0  0  0  0  0  0  0  0  0
    0.5690    1.2660    1.0390 C   0  0  0  0  0  0  0  0  0  0  0  0
    1.5060    0.3760    0.2830 C   0  0  0  0  0  0  0  0  0  0  0  0
    2.8900    0.6010    0.7180 N   0  0  0  0  0  0  0  0  0  0  0  0
    3.1150    1.5460    1.7330 C   0  0  0  0  0  0  0  0  0  0  0  0
    4.3220    1.7560    2.2740 C   0  0  0  0  0  0  0  0  0  0  0  0
    5.4310    0.9690    1.7730 C   0  0  0  0  0  0  0  0  0  0  0  0
    5.2500    0.0930    0.8170 C   0  0  0  0  0  0  0  0  0  0  0  0
    6.4450   -0.6890    0.3600 C   0  0  0  0  0  0  0  0  0  0  0  0
    7.7510   -0.1080    0.2680 C   0  0  0  0  0  0  0  0  0  0  0  0
    7.9870    1.0720    0.5480 O   0  0  0  0  0  0  0  0  0  0  0  0
    8.8420   -0.8840   -0.1560 O   0  0  0  0  0  0  0  0  0  0  0  0
   10.1240   -0.2960   -0.2420 C   0  0  0  0  0  0  0  0  0  0  0  0
    6.2100   -1.9620    0.0580 C   0  0  0  0  0  0  0  0  0  0  0  0
    4.8860   -2.4330    0.2010 N   0  0  0  0  0  0  0  0  0  0  0  0
    3.7660   -1.5790   -0.0300 C   0  0  0  0  0  0  0  0  0  0  0  0
    3.9700   -0.1190    0.1350 C   0  0  1  0  0  0  0  0  0  0  0  0
   -0.9300    1.4300   -0.8300 C   0  0  0  0  0  0  0  0  0  0  0  0
   -1.2520    0.6460   -1.7300 O   0  0  0  0  0  0  0  0  0  0  0  0
   -0.5910    2.7630   -1.1420 N   0  0  0  0  0  0  0  0  0  0  0  0
   -0.5630    3.3440   -2.4140 C   0  0  0  0  0  0  0  0  0  0  0  0
   -0.6200    2.6250   -3.5640 C   0  0  0  0  0  0  0  0  0  0  0  0
   -0.6070    3.2370   -4.8280 C   0  0  0  0  0  0  0  0  0  0  0  0
   -0.5340    4.6060   -4.9130 C   0  0  0  0  0  0  0  0  0  0  0  0
   -0.5190    5.2490   -6.1580 O   0  0  0  0  0  0  0  0  0  0  0  0
   -0.4730    5.3630   -3.7500 C   0  0  0  0  0  0  0  0  0  0  0  0
   -0.3950    6.8380   -3.9110 C   0  0  0  0  0  0  0  0  0  0  0  0
   -0.4890    4.7230   -2.5410 C   0  0  0  0  0  0  0  0  0  0  0  0
   -4.1500   -3.8400   -0.7010 C   0  0  1  0  0  0  0  0  0  0  0  0
   -5.1210   -4.8540   -0.2640 C   0  0  0  0  0  0  0  0  0  0  0  0
   -5.2100   -4.2150   -1.6430 C   0  0  0  0  0  0  0  0  0  0  0  0
  1  2  1  0
  2  3  1  0
  3  4  1  0
  4  5  1  6
  4 43  1  0
  5  6  1  0
  7  6  1  1
  7  8  1  0
  7 15  1  0
  8  9  2  0
  8 14  1  0
  9 10  1  0
 10 11  2  0
 11 12  1  0
 11 13  1  0
 13 14  2  0
 15 16  1  6
 15 32  1  0
 16 17  1  0
 17 18  1  0
 18 19  1  0
 18 31  1  0
 19 20  2  0
 20 21  1  0
 21 22  2  0
 22 23  1  0
 22 31  1  0
 23 24  1  0
 23 28  2  0
 24 25  2  0
 24 26  1  0
 26 27  1  0
 28 29  1  0
 29 30  1  0
 31 30  1  1
 32 33  2  0
 32 34  1  0
 34 35  1  0
 35 36  2  0
 35 42  1  0
 36 37  1  0
 37 38  2  0
 38 39  1  0
 38 40  1  0
 40 41  1  0
 40 42  2  0
 43 44  1  1
 43 45  1  0
 44 45  1  0
M  CHG  2   3   1   6   1
M  END
