
     RDKit          3D

 19 20  0  0  0  0  0  0  0  0999 V2000
   -3.1270   -0.8320   -1.6980 C   0  0  0  0  0  0  0  0  0  0  0  0
   -3.0300    0.4780   -1.3030 O   0  0  0  0  0  0  0  0  0  0  0  0
   -1.8840    0.8390   -0.6580 C   0  0  0  0  0  0  0  0  0  0  0  0
   -1.6790    0.3220    0.7010 C   0  0  0  0  0  0  0  0  0  0  0  0
   -2.6370   -0.3500    1.3510 N   0  0  0  0  0  0  0  0  0  0  0  0
   -2.4490   -0.7770    2.6280 C   0  0  0  0  0  0  0  0  0  0  0  0
   -3.4010   -1.4120    3.1890 O   0  0  0  0  0  0  0  0  0  0  0  0
   -1.2960   -0.5270    3.2510 N   0  0  0  0  0  0  0  0  0  0  0  0
   -0.3010    0.1580    2.6130 C   0  0  0  0  0  0  0  0  0  0  0  0
    0.7740    0.3790    3.2280 O   0  0  0  0  0  0  0  0  0  0  0  0
   -0.4550    0.6010    1.3320 C   0  0  0  0  0  0  0  0  0  0  0  0
    0.5370    1.3050    0.6360 N   0  0  0  0  0  0  0  0  0  0  0  0
    1.5380    0.6490   -0.1800 C   0  0  0  0  0  0  0  0  0  0  0  0
    1.5940   -0.6760   -0.3210 C   0  0  0  0  0  0  0  0  0  0  0  0
    2.5620   -1.2250   -1.1050 C   0  0  0  0  0  0  0  0  0  0  0  0
    2.8860   -2.6370   -1.4620 C   0  0  0  0  0  0  0  0  0  0  0  0
    3.4650    0.1810   -1.6960 S   0  0  0  0  0  0  0  0  0  0  0  0
    2.4810    1.4000   -0.8490 C   0  0  0  0  0  0  0  0  0  0  0  0
    2.6800    2.8600   -0.8950 C   0  0  0  0  0  0  0  0  0  0  0  0
  1  2  1  0
  2  3  1  0
  3  4  1  0
  4  5  1  0
  4 11  2  0
  5  6  1  0
  6  7  2  0
  6  8  1  0
  8  9  1  0
  9 10  2  0
  9 11  1  0
 11 12  1  0
 12 13  1  0
 13 14  1  0
 13 18  2  0
 14 15  2  0
 15 16  1  0
 15 17  1  0
 17 18  1  0
 18 19  1  0
M  END
