
     RDKit          3D

 20 21  0  0  0  0  0  0  0  0999 V2000
   -7.0880    0.4970   -0.0630 C   0  0  0  0  0  0  0  0  0  0  0  0
   -5.7730    0.5080    0.6770 C   0  0  0  0  0  0  0  0  0  0  0  0
   -5.6900    0.6810    1.9020 O   0  0  0  0  0  0  0  0  0  0  0  0
   -4.5270    0.3070   -0.0860 C   0  0  0  0  0  0  0  0  0  0  0  0
   -4.5450    0.1300   -1.3260 O   0  0  0  0  0  0  0  0  0  0  0  0
   -3.2720    0.3120    0.5820 N   0  0  0  0  0  0  0  0  0  0  0  0
   -2.0170    0.1010   -0.1050 C   0  0  0  0  0  0  0  0  0  0  0  0
   -0.8780    0.0190    0.0650 N   0  0  0  0  0  0  0  0  0  0  0  0
    0.1100   -0.1960   -0.7720 C   0  0  0  0  0  0  0  0  0  0  0  0
    1.5540   -0.2880   -0.4100 C   0  0  0  0  0  0  0  0  0  0  0  0
    2.4800   -0.5680   -1.3760 C   0  0  0  0  0  0  0  0  0  0  0  0
    3.8310   -0.6910   -1.0940 C   0  0  0  0  0  0  0  0  0  0  0  0
    4.2850   -0.5280    0.2230 C   0  0  0  0  0  0  0  0  0  0  0  0
    5.6730   -0.6900    0.4780 N   0  0  0  0  0  0  0  0  0  0  0  0
    6.8390    0.4710   -0.0980 S   0  0  0  0  0  0  0  0  0  0  0  0
    7.0300    1.6110    0.8820 O   0  0  0  0  0  0  0  0  0  0  0  0
    3.3500   -0.2450    1.1900 C   0  0  0  0  0  0  0  0  0  0  0  0
    2.0110   -0.1290    0.8720 C   0  0  0  0  0  0  0  0  0  0  0  0
   -0.3130   -0.3480   -2.0830 C   0  0  0  0  0  0  0  0  0  0  0  0
   -2.0920   -0.1650   -1.9750 S   0  0  0  0  0  0  0  0  0  0  0  0
  1  2  1  0
  2  3  2  0
  2  4  1  0
  4  5  2  0
  4  6  1  0
  6  7  1  0
  7  8  2  0
  7 20  1  0
  8  9  1  0
  9 10  1  0
  9 19  2  0
 10 11  2  0
 10 18  1  0
 11 12  1  0
 12 13  2  0
 13 14  1  0
 13 17  1  0
 14 15  1  0
 15 16  2  0
 17 18  2  0
 19 20  1  0
M  END
