
     RDKit          3D

 20 21  0  0  0  0  0  0  0  0999 V2000
   -6.2450   -1.6380   -0.4150 C   0  0  0  0  0  0  0  0  0  0  0  0
   -4.9070   -1.0270   -0.2300 C   0  0  0  0  0  0  0  0  0  0  0  0
   -3.4020   -1.6860   -0.9550 S   0  0  0  0  0  0  0  0  0  0  0  0
   -2.3280   -0.3510   -0.2250 C   0  0  0  0  0  0  0  0  0  0  0  0
   -0.9400   -0.3430   -0.4740 N   0  0  0  0  0  0  0  0  0  0  0  0
   -0.1090    0.6410    0.1030 C   0  0  0  0  0  0  0  0  0  0  0  0
   -0.6210    1.5030    0.8450 O   0  0  0  0  0  0  0  0  0  0  0  0
    1.3350    0.6390   -0.1700 C   0  0  0  0  0  0  0  0  0  0  0  0
    2.1820   -0.5760    0.8520 S   0  0  0  0  0  0  0  0  0  0  0  0
    3.9340   -0.5860    0.5330 C   0  0  0  0  0  0  0  0  0  0  0  0
    4.7990   -1.4420    1.0250 N   0  0  0  0  0  0  0  0  0  0  0  0
    6.1320   -1.1450    0.5480 C   0  0  0  0  0  0  0  0  0  0  0  0
    5.8070   -0.4260   -0.7680 C   0  0  0  0  0  0  0  0  0  0  0  0
    4.6310    0.3320   -0.3060 N   0  0  0  0  0  0  0  0  0  0  0  0
    4.3160    1.6850   -0.6420 C   0  0  0  0  0  0  0  0  0  0  0  0
   -3.1950    0.3850    0.4380 C   0  0  0  0  0  0  0  0  0  0  0  0
   -4.5120    0.0850    0.4660 C   0  0  0  0  0  0  0  0  0  0  0  0
   -5.5630    0.8570    1.2070 C   0  0  0  0  0  0  0  0  0  0  0  0
   -5.2380    1.9470    1.7270 O   0  0  0  0  0  0  0  0  0  0  0  0
   -6.8460    0.4320    1.3400 O   0  0  0  0  0  0  0  0  0  0  0  0
  1  2  1  0
  2  3  1  0
  2 17  2  0
  3  4  1  0
  4  5  1  0
  4 16  2  0
  5  6  1  0
  6  7  2  0
  6  8  1  0
  8  9  1  0
  9 10  1  0
 10 11  2  0
 10 14  1  0
 11 12  1  0
 12 13  1  0
 13 14  1  0
 14 15  1  0
 16 17  1  0
 17 18  1  0
 18 19  2  0
 18 20  1  0
M  END
