
     RDKit          3D

 20 21  0  0  0  0  0  0  0  0999 V2000
   -3.8020    3.8300   -0.3620 O   0  0  0  0  0  0  0  0  0  0  0  0
   -3.0720    2.8690   -0.0550 C   0  0  0  0  0  0  0  0  0  0  0  0
   -1.6440    3.0280    0.2500 C   0  0  0  0  0  0  0  0  0  0  0  0
   -0.9340    2.0010    0.5630 N   0  0  0  0  0  0  0  0  0  0  0  0
   -1.4580    0.6840    0.6340 C   0  0  0  0  0  0  0  0  0  0  0  0
   -1.1470   -0.3070   -0.2620 C   0  0  0  0  0  0  0  0  0  0  0  0
   -0.0360    0.0250   -1.5940 S   0  0  0  0  0  0  0  0  0  0  0  0
    1.6590   -0.2930   -1.1550 C   0  0  0  0  0  0  0  0  0  0  0  0
    2.6520   -0.0850   -2.0810 C   0  0  0  0  0  0  0  0  0  0  0  0
    3.9880   -0.3090   -1.8130 C   0  0  0  0  0  0  0  0  0  0  0  0
    4.3380   -0.7680   -0.5410 C   0  0  0  0  0  0  0  0  0  0  0  0
    3.3590   -0.9810    0.3950 C   0  0  0  0  0  0  0  0  0  0  0  0
    3.7040   -1.4340    1.6500 O   0  0  0  0  0  0  0  0  0  0  0  0
    2.0430   -0.7500    0.0990 C   0  0  0  0  0  0  0  0  0  0  0  0
   -1.6830   -1.5260   -0.1280 N   0  0  0  0  0  0  0  0  0  0  0  0
   -2.5420   -1.8120    0.8880 C   0  0  0  0  0  0  0  0  0  0  0  0
   -3.2610   -3.4180    1.0800 S   0  0  0  0  0  0  0  0  0  0  0  0
   -2.8450   -0.8410    1.7630 N   0  0  0  0  0  0  0  0  0  0  0  0
   -2.3400    0.4020    1.6830 C   0  0  0  0  0  0  0  0  0  0  0  0
   -2.6350    1.2860    2.5050 O   0  0  0  0  0  0  0  0  0  0  0  0
  1  2  2  0
  2  3  1  0
  3  4  2  3
  4  5  1  0
  5  6  2  0
  5 19  1  0
  6  7  1  0
  6 15  1  0
  7  8  1  0
  8  9  2  0
  8 14  1  0
  9 10  1  0
 10 11  2  0
 11 12  1  0
 12 13  1  0
 12 14  2  0
 15 16  2  0
 16 17  1  0
 16 18  1  0
 18 19  1  0
 19 20  2  0
M  END
