
     RDKit          3D

 20 21  0  0  0  0  0  0  0  0999 V2000
   -2.7550    1.8630    0.3290 C   0  0  0  0  0  0  0  0  0  0  0  0
   -3.2340    0.5270   -0.1260 C   0  0  0  0  0  0  0  0  0  0  0  0
   -4.5090    0.2500    0.0040 C   0  0  0  0  0  0  0  0  0  0  0  0
   -5.5900    1.5340    0.7370 S   0  0  0  0  0  0  0  0  0  0  0  0
   -5.1020   -1.0220   -0.4130 C   0  0  0  0  0  0  0  0  0  0  0  0
   -4.1710   -2.0190   -0.9680 C   0  0  0  0  0  0  0  0  0  0  0  0
   -2.7680   -1.5950   -1.0660 C   0  0  0  0  0  0  0  0  0  0  0  0
   -2.3010   -0.4250   -0.6860 C   0  0  0  0  0  0  0  0  0  0  0  0
   -0.9580   -0.1180   -0.8180 O   0  0  0  0  0  0  0  0  0  0  0  0
    0.0170   -0.7660   -0.0390 C   0  0  0  0  0  0  0  0  0  0  0  0
    1.3330   -0.2890   -0.3470 C   0  0  0  0  0  0  0  0  0  0  0  0
    2.2790   -0.6980   -1.2280 N   0  0  0  0  0  0  0  0  0  0  0  0
    3.3680   -0.1170   -1.3210 N   0  0  0  0  0  0  0  0  0  0  0  0
    3.7630    0.8870   -0.6590 C   0  0  0  0  0  0  0  0  0  0  0  0
    4.8590    1.7270   -0.5290 O   0  0  0  0  0  0  0  0  0  0  0  0
    5.8180    1.4770    0.4510 C   0  0  0  0  0  0  0  0  0  0  0  0
    6.4790    0.1560    0.3100 C   0  0  0  0  0  0  0  0  0  0  0  0
    6.1160   -0.6990   -0.7410 N   0  0  0  0  0  0  0  0  0  0  0  0
    7.3530   -0.1790    1.1330 O   0  0  0  0  0  0  0  0  0  0  0  0
    2.2140    1.1000    0.3830 S   0  0  0  0  0  0  0  0  0  0  0  0
  1  2  1  0
  2  3  2  0
  2  8  1  0
  3  4  1  0
  3  5  1  0
  5  6  1  0
  6  7  1  0
  7  8  2  0
  8  9  1  0
  9 10  1  0
 10 11  1  0
 11 12  2  0
 11 20  1  0
 12 13  1  0
 13 14  2  0
 14 15  1  0
 14 20  1  0
 15 16  1  0
 16 17  1  0
 17 18  1  0
 17 19  2  0
M  END
