
     RDKit          3D

 20 21  0  0  0  0  0  0  0  0999 V2000
   -5.2560    0.7810    1.6280 C   0  0  0  0  0  0  0  0  0  0  0  0
   -4.2470    0.2560    0.5930 C   0  0  0  0  0  0  0  0  0  0  0  0
   -3.0460    0.8460    0.3830 C   0  0  0  0  0  0  0  0  0  0  0  0
   -2.2220    0.3330   -0.5330 C   0  0  0  0  0  0  0  0  0  0  0  0
   -0.8620    0.7480   -0.9840 C   0  0  0  0  0  0  0  0  0  0  0  0
    0.2080    0.1150   -0.2170 C   0  0  0  0  0  0  0  0  0  0  0  0
   -0.0200   -0.6850    0.7140 O   0  0  0  0  0  0  0  0  0  0  0  0
    1.5570    0.4170   -0.5370 N   0  0  0  0  0  0  0  0  0  0  0  0
    2.6810   -0.1510    0.1570 C   0  0  0  0  0  0  0  0  0  0  0  0
    3.9750    0.3230   -0.3660 C   0  0  0  0  0  0  0  0  0  0  0  0
    4.2290    1.2050   -1.3920 C   0  0  0  0  0  0  0  0  0  0  0  0
    5.5750    1.3520   -1.5300 N   0  0  0  0  0  0  0  0  0  0  0  0
    6.1420    0.5840   -0.6170 N   0  0  0  0  0  0  0  0  0  0  0  0
    5.2330   -0.0550    0.1090 C   0  0  0  0  0  0  0  0  0  0  0  0
    5.4330   -1.0090    1.2320 C   0  0  0  0  0  0  0  0  0  0  0  0
   -3.0950   -1.0570   -1.1890 S   0  0  0  0  0  0  0  0  0  0  0  0
   -4.5630   -0.8390   -0.1420 C   0  0  0  0  0  0  0  0  0  0  0  0
   -5.9700   -1.8510   -0.1660 S   0  0  1  0  0  0  0  0  0  0  0  0
   -5.5970   -3.1430   -0.8540 O   0  0  0  0  0  0  0  0  0  0  0  0
   -6.3320   -2.2100    1.2480 O   0  0  0  0  0  0  0  0  0  0  0  0
  1  2  1  0
  2  3  1  0
  2 17  2  0
  3  4  2  0
  4  5  1  0
  4 16  1  0
  5  6  1  0
  6  7  2  0
  6  8  1  0
  8  9  1  0
  9 10  1  0
 10 11  1  0
 10 14  2  0
 11 12  2  0
 12 13  1  0
 13 14  1  0
 14 15  1  0
 16 17  1  0
 18 17  1  1
 18 19  2  0
 18 20  2  0
M  END
