
     RDKit          3D

 20 21  0  0  0  0  0  0  0  0999 V2000
   -6.6660    0.3440    0.0630 C   0  0  0  0  0  0  0  0  0  0  0  0
   -5.7330    1.2260    0.8280 C   0  0  0  0  0  0  0  0  0  0  0  0
   -4.4060    1.1490    0.4170 O   0  0  0  0  0  0  0  0  0  0  0  0
   -3.5780    0.0640    0.3830 C   0  0  0  0  0  0  0  0  0  0  0  0
   -4.0370   -1.0400    0.7610 O   0  0  0  0  0  0  0  0  0  0  0  0
   -2.1900    0.1130   -0.0670 C   0  0  0  0  0  0  0  0  0  0  0  0
   -1.5060    1.1700   -0.5060 N   0  0  0  0  0  0  0  0  0  0  0  0
   -0.2610    0.7390   -0.8130 C   0  0  0  0  0  0  0  0  0  0  0  0
    1.0820    1.7360   -1.4330 S   0  0  0  0  0  0  0  0  0  0  0  0
    2.6020    0.8450   -1.7110 C   0  0  0  0  0  0  0  0  0  0  0  0
    3.2170    0.2850   -0.4900 C   0  0  0  0  0  0  0  0  0  0  0  0
    2.4890   -0.1540    0.4360 O   0  0  0  0  0  0  0  0  0  0  0  0
    4.6230    0.2470   -0.3630 N   0  0  0  0  0  0  0  0  0  0  0  0
    5.3010   -0.2870    0.8020 C   0  0  0  0  0  0  0  0  0  0  0  0
    6.7830   -0.1350    0.6650 C   0  0  0  0  0  0  0  0  0  0  0  0
    7.9900   -0.8220    0.6080 C   0  0  0  0  0  0  0  0  0  0  0  0
    8.1740    0.9590    0.4700 S   0  0  0  0  0  0  0  0  0  0  0  0
   -0.1650   -0.5770   -0.5700 N   0  0  0  0  0  0  0  0  0  0  0  0
   -1.3580   -0.9880   -0.1020 C   0  0  0  0  0  0  0  0  0  0  0  0
   -1.6770   -2.3810    0.2960 C   0  0  0  0  0  0  0  0  0  0  0  0
  1  2  1  0
  2  3  1  0
  3  4  1  0
  4  5  2  0
  4  6  1  0
  6  7  1  0
  6 19  2  0
  7  8  1  0
  8  9  1  0
  8 18  2  0
  9 10  1  0
 10 11  1  0
 11 12  2  0
 11 13  1  0
 13 14  1  0
 14 15  1  0
 15 16  2  0
 15 17  1  0
 16 17  1  0
 18 19  1  0
 19 20  1  0
M  END
