
     RDKit          3D

 17 17  0  0  0  0  0  0  0  0999 V2000
   -1.5540    0.2530    2.6590 O   0  0  0  0  0  0  0  0  0  0  0  0
   -2.0690    0.9680    1.3220 P   0  0  0  0  0  0  0  0  0  0  0  0
   -1.0440    2.1020    1.4890 O   0  0  0  0  0  0  0  0  0  0  0  0
   -3.2620    2.2110    1.4750 O   0  0  0  0  0  0  0  0  0  0  0  0
   -1.6280    0.4670   -0.3010 C   0  0  1  0  0  0  0  0  0  0  0  0
   -0.1280    0.5280   -0.5050 C   0  0  0  0  0  0  0  0  0  0  0  0
    0.6540   -0.2850    0.3460 N   0  0  0  0  0  0  0  0  0  0  0  0
    2.0700   -0.2720    0.2430 C   0  0  0  0  0  0  0  0  0  0  0  0
    2.8810   -1.0430    1.0460 C   0  0  0  0  0  0  0  0  0  0  0  0
    4.2550   -1.0320    0.9480 C   0  0  0  0  0  0  0  0  0  0  0  0
    4.8260   -0.2070    0.0010 C   0  0  0  0  0  0  0  0  0  0  0  0
    4.0230    0.5730   -0.8120 C   0  0  0  0  0  0  0  0  0  0  0  0
    2.7030    0.5200   -0.6720 N   0  0  0  0  0  0  0  0  0  0  0  0
   -2.4400   -0.9120   -1.0290 P   0  0  0  0  0  0  0  0  0  0  0  0
   -2.5860   -2.3460   -0.2070 O   0  0  0  0  0  0  0  0  0  0  0  0
   -1.3120   -1.4680   -1.8750 O   0  0  0  0  0  0  0  0  0  0  0  0
   -3.3540   -0.7090   -2.4150 O   0  0  0  0  0  0  0  0  0  0  0  0
  1  2  1  0
  2  3  1  0
  2  4  1  0
  2  5  1  0
  5  6  1  1
  5 14  1  0
  6  7  1  0
  7  8  1  0
  8  9  2  0
  8 13  1  0
  9 10  1  0
 10 11  2  0
 11 12  1  0
 12 13  2  0
 14 15  1  0
 14 16  1  0
 14 17  1  0
M  END
