
     RDKit          3D

 22 22  0  0  0  0  0  0  0  0999 V2000
    3.5470    1.6130   -2.0080 C   0  0  0  0  0  0  0  0  0  0  0  0
    2.6910    0.6720   -2.3530 C   0  0  0  0  0  0  0  0  0  0  0  0
    1.5420    0.4200   -1.5650 N   0  0  0  0  0  0  0  0  0  0  0  0
    1.5330   -0.5500   -0.7100 C   0  0  0  0  0  0  0  0  0  0  0  0
    2.7070   -1.4200   -0.5270 C   0  0  0  0  0  0  0  0  0  0  0  0
    3.3290   -1.3290    1.2320 P   0  0  0  0  0  0  0  0  0  0  0  0
    4.6340   -0.1970    1.3710 O   0  0  0  0  0  0  0  0  0  0  0  0
    3.8320   -2.9270    1.6850 O   0  0  0  0  0  0  0  0  0  0  0  0
    0.3550   -0.7240    0.0240 O   0  0  0  0  0  0  0  0  0  0  0  0
   -0.6830    0.2070   -0.0390 C   0  0  0  0  0  0  0  0  0  0  0  0
   -0.2740    1.3300   -0.4530 N   0  0  0  0  0  0  0  0  0  0  0  0
   -0.9410    2.9810   -0.8030 P   0  0  0  0  0  0  0  0  0  0  0  0
   -2.0150    3.4360    0.5970 C   0  0  0  0  0  0  0  0  0  0  0  0
   -1.6580    4.9440    1.1900 P   0  0  0  0  0  0  0  0  0  0  0  0
   -3.0700    2.7940    1.2800 N   0  0  0  0  0  0  0  0  0  0  0  0
   -3.6150    1.4790    1.2680 C   0  0  0  0  0  0  0  0  0  0  0  0
   -4.8240    1.4450    1.6840 O   0  0  0  0  0  0  0  0  0  0  0  0
   -3.0820    0.1950    0.8850 C   0  0  0  0  0  0  0  0  0  0  0  0
   -1.9790   -0.3400    0.3850 C   0  0  0  0  0  0  0  0  0  0  0  0
   -2.0500   -1.7500    0.2200 N   0  0  0  0  0  0  0  0  0  0  0  0
   -1.5480   -2.5970    1.2820 C   0  0  0  0  0  0  0  0  0  0  0  0
   -2.5940   -2.4110   -0.9470 C   0  0  0  0  0  0  0  0  0  0  0  0
  1  2  2  0
  2  3  1  0
  3  4  2  3
  4  5  1  0
  4  9  1  0
  5  6  1  0
  6  7  1  0
  6  8  1  0
  9 10  1  0
 10 11  2  0
 10 19  1  0
 11 12  1  0
 12 13  1  0
 13 14  2  0
 13 15  1  0
 15 16  1  0
 16 17  2  0
 16 18  1  0
 18 19  2  0
 19 20  1  0
 20 21  1  0
 20 22  1  0
M  END
