
     RDKit          3D

 22 22  0  0  0  0  0  0  0  0999 V2000
   -4.5150   -1.3930   -0.6400 C   0  0  0  0  0  0  0  0  0  0  0  0
   -3.5360   -1.9420    0.3760 C   0  0  0  0  0  0  0  0  0  0  0  0
   -2.1800   -1.4840    0.0460 C   0  0  0  0  0  0  0  0  0  0  0  0
   -1.2360   -2.3220   -0.1380 N   0  0  0  0  0  0  0  0  0  0  0  0
   -1.9010   -0.0970   -0.0790 N   0  0  0  0  0  0  0  0  0  0  0  0
   -1.1140    0.6660    0.8460 C   0  0  0  0  0  0  0  0  0  0  0  0
    0.3300    0.3100    0.8650 C   0  0  0  0  0  0  0  0  0  0  0  0
    0.7480   -0.8830    1.0000 N   0  0  0  0  0  0  0  0  0  0  0  0
    2.5000   -1.2030    1.0090 P   0  0  0  0  0  0  0  0  0  0  0  0
    2.8360   -2.8760    1.1820 O   0  0  0  0  0  0  0  0  0  0  0  0
    4.0910   -3.1710    0.9390 O   0  0  0  0  0  0  0  0  0  0  0  0
    4.0720   -3.8600   -0.2950 C   0  0  0  0  0  0  0  0  0  0  0  0
    3.3220   -0.4570   -0.3960 N   0  0  0  0  0  0  0  0  0  0  0  0
    4.9720    0.0060    0.1380 P   0  0  0  0  0  0  0  0  0  0  0  0
    5.4640    1.4860    0.1670 O   0  0  0  0  0  0  0  0  0  0  0  0
    2.4390    1.0890   -0.7500 P   0  0  0  0  0  0  0  0  0  0  0  0
    3.5440    2.3850   -0.9130 O   0  0  0  0  0  0  0  0  0  0  0  0
    3.0870    3.5760   -0.4050 C   0  0  0  0  0  0  0  0  0  0  0  0
    1.3590    1.4030    0.7280 C   0  0  0  0  0  0  0  0  0  0  0  0
   -2.4410    0.5110   -1.1630 O   0  0  0  0  0  0  0  0  0  0  0  0
   -2.3950    1.8470   -1.0790 N   0  0  0  0  0  0  0  0  0  0  0  0
   -3.5110    2.4020   -0.3450 C   0  0  0  0  0  0  0  0  0  0  0  0
  1  2  1  0
  2  3  1  0
  3  4  2  0
  3  5  1  0
  5  6  1  0
  5 20  1  0
  6  7  1  0
  7  8  2  0
  7 19  1  0
  8  9  1  0
  9 10  1  0
  9 13  1  0
 10 11  1  0
 11 12  1  0
 13 14  1  0
 13 16  1  0
 14 15  2  0
 16 17  1  0
 16 19  1  0
 17 18  1  0
 20 21  1  0
 21 22  1  0
M  END
