
     RDKit          3D

 38 40  0  0  0  0  0  0  0  0999 V2000
    7.1590   -2.7080   -0.2000 C   0  0  0  0  0  0  0  0  0  0  0  0
    5.6970   -2.3730   -0.1020 C   0  0  0  0  0  0  0  0  0  0  0  0
    5.3630   -1.0030   -0.6240 C   0  0  1  0  0  0  0  0  0  0  0  0
    5.7770   -0.9790   -2.0920 C   0  0  0  0  0  0  0  0  0  0  0  0
    3.9310   -0.8290   -0.5060 N   0  0  0  0  0  0  0  0  0  0  0  0
    3.2850    0.3840   -0.1570 C   0  0  0  0  0  0  0  0  0  0  0  0
    3.9910    1.4030    0.0610 O   0  0  0  0  0  0  0  0  0  0  0  0
    1.8160    0.4060   -0.0610 C   0  0  1  0  0  0  0  0  0  0  0  0
    1.3190   -0.3650    1.1400 C   0  0  0  0  0  0  0  0  0  0  0  0
   -0.1080   -0.6860    0.8950 C   0  0  0  0  0  0  0  0  0  0  0  0
   -0.8950    0.5320    0.4170 C   0  0  0  0  0  0  0  0  0  0  0  0
   -2.3800    0.3850    0.5160 C   0  0  0  0  0  0  0  0  0  0  0  0
   -2.7610   -0.8790    0.8040 C   0  0  0  0  0  0  0  0  0  0  0  0
   -4.0670   -1.3760    0.9730 C   0  0  0  0  0  0  0  0  0  0  0  0
   -4.3560   -2.6110    1.2320 C   0  0  0  0  0  0  0  0  0  0  0  0
   -5.7570   -2.8350    1.3610 F   0  0  0  0  0  0  0  0  0  0  0  0
   -3.5750   -3.8190    1.3330 C   0  0  0  0  0  0  0  0  0  0  0  0
   -2.2930   -4.1400    1.0230 C   0  0  0  0  0  0  0  0  0  0  0  0
   -2.0570   -5.4880    1.3450 C   0  0  0  0  0  0  0  0  0  0  0  0
   -3.2460   -5.9280    1.8460 C   0  0  0  0  0  0  0  0  0  0  0  0
   -3.5180   -7.2980    2.3330 C   0  0  0  0  0  0  0  0  0  0  0  0
   -2.4820   -8.2470    2.2580 N   0  0  0  0  0  0  0  0  0  0  0  0
   -4.6410   -7.5790    2.7880 O   0  0  0  0  0  0  0  0  0  0  0  0
   -4.0910   -4.9600    1.8280 O   0  0  0  0  0  0  0  0  0  0  0  0
   -3.2930    1.3090    0.3710 O   0  0  0  0  0  0  0  0  0  0  0  0
   -4.6200    1.5640    0.4280 C   0  0  0  0  0  0  0  0  0  0  0  0
   -0.2910    1.6320    0.0830 C   0  0  0  0  0  0  0  0  0  0  0  0
   -0.9680    2.8060   -0.3790 C   0  0  0  0  0  0  0  0  0  0  0  0
   -2.1730    2.8940   -0.5510 O   0  0  0  0  0  0  0  0  0  0  0  0
   -0.2650    4.0290   -0.6880 N   0  0  0  0  0  0  0  0  0  0  0  0
   -0.9300    5.1960   -1.1300 C   0  0  0  0  0  0  0  0  0  0  0  0
   -0.2400    6.0460   -2.0080 C   0  0  0  0  0  0  0  0  0  0  0  0
   -0.8450    7.2080   -2.4580 C   0  0  0  0  0  0  0  0  0  0  0  0
   -2.1110    7.5700   -2.0750 C   0  0  0  0  0  0  0  0  0  0  0  0
   -2.6970    8.7450   -2.5450 O   0  0  0  0  0  0  0  0  0  0  0  0
   -2.8030    6.7490   -1.2110 C   0  0  0  0  0  0  0  0  0  0  0  0
   -2.1790    5.5900   -0.7710 C   0  0  0  0  0  0  0  0  0  0  0  0
    1.2280    1.7850    0.1030 C   0  0  0  0  0  0  0  0  0  0  0  0
  1  2  1  0
  2  3  1  0
  3  4  1  6
  3  5  1  0
  5  6  1  0
  6  7  2  0
  8  6  1  1
  8  9  1  0
  8 38  1  0
  9 10  1  0
 10 11  1  0
 11 12  1  0
 11 27  2  0
 12 13  2  3
 12 25  1  0
 13 14  1  0
 14 15  2  3
 15 16  1  0
 15 17  1  0
 17 18  2  0
 17 24  1  0
 18 19  1  0
 19 20  2  0
 20 21  1  0
 20 24  1  0
 21 22  1  0
 21 23  2  0
 25 26  1  0
 27 28  1  0
 27 38  1  0
 28 29  2  0
 28 30  1  0
 30 31  1  0
 31 32  2  0
 31 37  1  0
 32 33  1  0
 33 34  2  0
 34 35  1  0
 34 36  1  0
 36 37  2  0
M  END
