
     RDKit          3D

 38 40  0  0  0  0  0  0  0  0999 V2000
   -3.9710   -4.0140   -0.1300 C   0  0  0  0  0  0  0  0  0  0  0  0
   -4.3790   -2.6540   -0.6140 C   0  0  1  0  0  0  0  0  0  0  0  0
   -5.7680   -2.6700   -0.7690 F   0  0  0  0  0  0  0  0  0  0  0  0
   -4.0120   -1.6700    0.5080 C   0  0  1  0  0  0  0  0  0  0  0  0
   -2.6200   -1.6980    0.7330 N   0  0  0  0  0  0  0  0  0  0  0  0
   -1.5860   -2.2650   -0.0180 C   0  0  0  0  0  0  0  0  0  0  0  0
   -1.7580   -2.8050   -1.1440 O   0  0  0  0  0  0  0  0  0  0  0  0
   -0.2470   -2.2310    0.5380 N   0  0  0  0  0  0  0  0  0  0  0  0
    0.8350   -2.7590   -0.1790 C   0  0  0  0  0  0  0  0  0  0  0  0
    1.9310   -1.9840   -0.3470 C   0  0  0  0  0  0  0  0  0  0  0  0
    1.9420   -0.6640    0.2110 C   0  0  0  0  0  0  0  0  0  0  0  0
    2.9200    0.2240    0.2010 C   0  0  0  0  0  0  0  0  0  0  0  0
    2.6020    1.5170    0.8550 C   0  0  0  0  0  0  0  0  0  0  0  0
    3.5290    2.5490    0.9590 N   0  0  0  0  0  0  0  0  0  0  0  0
    1.4280    1.6860    1.3390 O   0  0  0  0  0  0  0  0  0  0  0  0
    4.2450   -0.0780   -0.2140 N   0  0  0  0  0  0  0  0  0  0  0  0
    4.8400   -1.2810   -0.1840 N   0  0  0  0  0  0  0  0  0  0  0  0
    6.0680   -1.2220   -0.7240 C   0  0  0  0  0  0  0  0  0  0  0  0
    7.1780   -1.9160   -1.0290 N   0  0  0  0  0  0  0  0  0  0  0  0
    8.0620   -1.0600   -1.6040 C   0  0  0  0  0  0  0  0  0  0  0  0
    9.1990   -1.4180   -1.9990 O   0  0  0  0  0  0  0  0  0  0  0  0
    7.5110    0.1660   -1.6590 N   0  0  0  0  0  0  0  0  0  0  0  0
    8.2540    1.5970   -2.2820 S   0  0  1  0  0  0  0  0  0  0  0  0
    9.7190    1.9640   -1.3050 C   0  0  0  0  0  0  0  0  0  0  0  0
    8.6770    1.3880   -3.7270 O   0  0  0  0  0  0  0  0  0  0  0  0
    7.2660    2.7230   -2.1790 O   0  0  0  0  0  0  0  0  0  0  0  0
    6.2870    0.0620   -1.1190 C   0  0  0  0  0  0  0  0  0  0  0  0
    5.1320    0.7580   -0.7910 C   0  0  0  0  0  0  0  0  0  0  0  0
    5.0140    1.9860   -1.0360 O   0  0  0  0  0  0  0  0  0  0  0  0
   -4.5750   -0.3400    0.2130 C   0  0  0  0  0  0  0  0  0  0  0  0
   -4.0030    0.3730   -0.6400 O   0  0  0  0  0  0  0  0  0  0  0  0
   -5.7150    0.1160    0.8770 N   0  0  0  0  0  0  0  0  0  0  0  0
   -6.3560    1.4070    0.6420 C   0  0  1  0  0  0  0  0  0  0  0  0
   -7.7750    1.2800    0.9620 C   0  0  0  0  0  0  0  0  0  0  0  0
   -8.4140    2.6110    1.2420 C   0  0  0  0  0  0  0  0  0  0  0  0
   -7.0430    3.5310    1.9730 S   0  0  0  0  0  0  0  0  0  0  0  0
   -5.6700    2.4960    1.4010 C   0  0  2  0  0  0  0  0  0  0  0  0
   -4.8210    3.3470    0.4820 C   0  0  0  0  0  0  0  0  0  0  0  0
  2  1  1  1
  2  3  1  0
  2  4  1  0
  4  5  1  6
  4 30  1  0
  5  6  1  0
  6  7  2  0
  6  8  1  0
  8  9  1  0
  9 10  2  3
 10 11  1  0
 11 12  2  3
 12 13  1  0
 12 16  1  0
 13 14  1  0
 13 15  2  0
 16 17  1  0
 16 28  1  0
 17 18  1  0
 18 19  1  0
 18 27  2  0
 19 20  1  0
 20 21  2  0
 20 22  1  0
 22 23  1  0
 22 27  1  0
 23 24  1  1
 23 25  2  0
 23 26  2  0
 27 28  1  0
 28 29  2  0
 30 31  2  0
 30 32  1  0
 33 32  1  1
 33 34  1  0
 33 37  1  0
 34 35  1  0
 35 36  1  0
 36 37  1  0
 37 38  1  6
M  END
