
     RDKit          3D

 34 37  0  0  0  0  0  0  0  0999 V2000
   -5.2700   -3.6140    1.4810 C   0  0  0  0  0  0  0  0  0  0  0  0
   -4.4250   -2.6210    0.7290 C   0  0  0  0  0  0  0  0  0  0  0  0
   -5.2760   -1.4830    0.3760 N   0  0  0  0  0  0  0  0  0  0  0  0
   -4.7400   -0.3820   -0.3450 C   0  0  0  0  0  0  0  0  0  0  0  0
   -3.3890   -0.3950   -0.7170 C   0  0  0  0  0  0  0  0  0  0  0  0
   -2.8030    0.6270   -1.4120 C   0  0  0  0  0  0  0  0  0  0  0  0
   -1.3850    0.6050   -1.7980 C   0  0  0  0  0  0  0  0  0  0  0  0
   -0.9020    1.5660   -2.4320 O   0  0  0  0  0  0  0  0  0  0  0  0
   -0.5530   -0.4450   -1.4870 O   0  0  0  0  0  0  0  0  0  0  0  0
    0.7800   -0.4290   -1.8690 C   0  0  0  0  0  0  0  0  0  0  0  0
    1.5660    0.6850   -1.3340 C   0  0  0  0  0  0  0  0  0  0  0  0
    2.7810    0.7590   -1.6410 O   0  0  0  0  0  0  0  0  0  0  0  0
    1.0490    1.6630   -0.5070 O   0  0  0  0  0  0  0  0  0  0  0  0
    1.7030    2.7430    0.0560 C   0  0  0  0  0  0  0  0  0  0  0  0
    2.7660    2.4400    1.0370 C   0  0  0  0  0  0  0  0  0  0  0  0
    3.4000    3.4190    1.4450 O   0  0  0  0  0  0  0  0  0  0  0  0
    3.0130    1.1280    1.4590 N   0  0  0  0  0  0  0  0  0  0  0  0
    4.2970    0.6120    1.1790 C   0  0  0  0  0  0  0  0  0  0  0  0
    5.4730    1.3220    1.2960 C   0  0  0  0  0  0  0  0  0  0  0  0
    6.6780    0.7000    0.9930 C   0  0  0  0  0  0  0  0  0  0  0  0
    6.7480   -0.6100    0.5770 C   0  0  0  0  0  0  0  0  0  0  0  0
    5.5640   -1.3320    0.4580 C   0  0  0  0  0  0  0  0  0  0  0  0
    4.3950   -0.7060    0.7590 C   0  0  0  0  0  0  0  0  0  0  0  0
    5.8680   -2.6880    0.0080 C   0  0  0  0  0  0  0  0  0  0  0  0
    5.0300   -3.4980   -0.4910 O   0  0  0  0  0  0  0  0  0  0  0  0
    7.3190   -2.8860    0.2590 C   0  0  0  0  0  0  0  0  0  0  0  0
    7.8660   -1.4960    0.2000 C   0  0  0  0  0  0  0  0  0  0  0  0
   -3.5880    1.7070   -1.7520 C   0  0  0  0  0  0  0  0  0  0  0  0
   -4.9230    1.7750   -1.4130 C   0  0  0  0  0  0  0  0  0  0  0  0
   -5.7220    2.8430   -1.7430 C   0  0  0  0  0  0  0  0  0  0  0  0
   -7.0510    2.9100   -1.4050 C   0  0  0  0  0  0  0  0  0  0  0  0
   -7.5730    1.8940   -0.7320 N   0  0  0  0  0  0  0  0  0  0  0  0
   -6.8050    0.8200   -0.3900 C   0  0  0  0  0  0  0  0  0  0  0  0
   -5.4880    0.7110   -0.7020 C   0  0  0  0  0  0  0  0  0  0  0  0
  1  2  1  0
  2  3  1  0
  3  4  1  0
  4  5  2  0
  4 34  1  0
  5  6  1  0
  6  7  1  0
  6 28  2  0
  7  8  2  0
  7  9  1  0
  9 10  1  0
 10 11  1  0
 11 12  2  0
 11 13  1  0
 13 14  1  0
 14 15  1  0
 15 16  2  0
 15 17  1  0
 17 18  1  0
 18 19  2  0
 18 23  1  0
 19 20  1  0
 20 21  2  0
 21 22  1  0
 21 27  1  0
 22 23  2  0
 22 24  1  0
 24 25  2  0
 24 26  1  0
 26 27  1  0
 28 29  1  0
 29 30  2  0
 29 34  1  0
 30 31  1  0
 31 32  2  0
 32 33  1  0
 33 34  2  0
M  CHG  2  17   1  32   1
M  END
