
     RDKit          3D

 34 36  0  0  0  0  0  0  0  0999 V2000
   -8.1610    4.0440   -0.1420 C   0  0  0  0  0  0  0  0  0  0  0  0
   -7.6340    2.7270   -0.1710 O   0  0  0  0  0  0  0  0  0  0  0  0
   -8.3840    1.6230   -0.5650 C   0  0  0  0  0  0  0  0  0  0  0  0
   -9.5530    1.8040   -0.9010 O   0  0  0  0  0  0  0  0  0  0  0  0
   -7.8450    0.2880   -0.5930 C   0  0  0  0  0  0  0  0  0  0  0  0
   -6.5660    0.0770   -0.2280 C   0  0  0  0  0  0  0  0  0  0  0  0
   -6.0480   -1.2540   -0.2620 C   0  0  0  0  0  0  0  0  0  0  0  0
   -4.8210   -1.5410    0.0790 C   0  0  0  0  0  0  0  0  0  0  0  0
   -3.7810   -0.6800    0.5330 C   0  0  0  0  0  0  0  0  0  0  0  0
   -2.6340   -1.3040    0.7360 O   0  0  0  0  0  0  0  0  0  0  0  0
   -3.7130    0.6820    0.8150 N   0  0  0  0  0  0  0  0  0  0  0  0
   -2.4470    1.2770    1.2700 C   0  0  0  0  0  0  0  0  0  0  0  0
   -1.4610    1.0590    0.1710 C   0  0  0  0  0  0  0  0  0  0  0  0
   -1.3310    1.8720   -0.9410 C   0  0  0  0  0  0  0  0  0  0  0  0
   -0.3260    1.3730   -1.7410 C   0  0  0  0  0  0  0  0  0  0  0  0
    0.1300    0.2460   -1.0690 C   0  0  0  0  0  0  0  0  0  0  0  0
    1.2380   -0.6420   -1.5650 C   0  0  0  0  0  0  0  0  0  0  0  0
    1.4160   -1.6930   -0.6040 N   0  0  0  0  0  0  0  0  0  0  0  0
    2.1330   -1.1970    0.5250 C   0  0  0  0  0  0  0  0  0  0  0  0
    3.4940   -0.7390    0.2490 C   0  0  0  0  0  0  0  0  0  0  0  0
    4.4950   -1.7130    0.1920 C   0  0  0  0  0  0  0  0  0  0  0  0
    5.7990   -1.3430   -0.0620 C   0  0  0  0  0  0  0  0  0  0  0  0
    6.1740   -0.0310   -0.2670 C   0  0  0  0  0  0  0  0  0  0  0  0
    7.6040    0.2970   -0.5380 C   0  0  0  0  0  0  0  0  0  0  0  0
    8.2830    0.5410    0.7200 N   0  0  2  0  0  0  0  0  0  0  0  0
    8.3170    1.9890    0.9160 C   0  0  0  0  0  0  0  0  0  0  0  0
    9.6560    0.0270    0.6860 C   0  0  0  0  0  0  0  0  0  0  0  0
    5.1920    0.9270   -0.2120 C   0  0  0  0  0  0  0  0  0  0  0  0
    3.8820    0.5580    0.0430 C   0  0  0  0  0  0  0  0  0  0  0  0
   -0.5640    0.1130    0.0310 O   0  0  0  0  0  0  0  0  0  0  0  0
   -4.5430   -2.9430   -0.0430 O   0  0  0  0  0  0  0  0  0  0  0  0
   -5.4980   -3.9190    0.3540 C   0  0  0  0  0  0  0  0  0  0  0  0
   -6.8720   -3.5810   -0.1250 C   0  0  0  0  0  0  0  0  0  0  0  0
   -6.9290   -2.2920   -0.6920 O   0  0  0  0  0  0  0  0  0  0  0  0
  1  2  1  0
  2  3  1  0
  3  4  2  0
  3  5  1  0
  5  6  2  3
  6  7  1  0
  7  8  2  0
  7 34  1  0
  8  9  1  0
  8 31  1  0
  9 10  2  0
  9 11  1  0
 11 12  1  0
 12 13  1  0
 13 14  2  0
 13 30  1  0
 14 15  1  0
 15 16  2  0
 16 17  1  0
 16 30  1  0
 17 18  1  0
 18 19  1  0
 19 20  1  0
 20 21  2  0
 20 29  1  0
 21 22  1  0
 22 23  2  0
 23 24  1  0
 23 28  1  0
 24 25  1  0
 25 26  1  6
 25 27  1  0
 28 29  2  0
 31 32  1  0
 32 33  1  0
 33 34  1  0
M  CHG  2  18   1  25   1
M  END
