
     RDKit          3D

 34 36  0  0  0  0  0  0  0  0999 V2000
   -9.3540   -3.4210    1.9290 C   0  0  0  0  0  0  0  0  0  0  0  0
   -8.0080   -3.2700    1.3310 C   0  0  0  0  0  0  0  0  0  0  0  0
   -7.4670   -2.0810    1.1680 C   0  0  0  0  0  0  0  0  0  0  0  0
   -6.1520   -1.8990    0.5860 C   0  0  0  0  0  0  0  0  0  0  0  0
   -5.5860   -0.7270    0.4090 C   0  0  0  0  0  0  0  0  0  0  0  0
   -6.2930    0.5290    0.8140 C   0  0  0  0  0  0  0  0  0  0  0  0
   -5.6790    1.6840    0.1720 N   0  0  0  0  0  0  0  0  0  0  0  0
   -5.4160    1.4190   -1.2320 C   0  0  0  0  0  0  0  0  0  0  0  0
   -4.4250    0.3170   -1.4280 C   0  0  0  0  0  0  0  0  0  0  0  0
   -4.2340   -0.5430   -0.1940 C   0  0  1  0  0  0  0  0  0  0  0  0
   -3.3610    0.1180    0.6760 O   0  0  0  0  0  0  0  0  0  0  0  0
   -2.1670   -0.4290    1.1420 C   0  0  0  0  0  0  0  0  0  0  0  0
   -1.8980   -1.6060    0.7090 O   0  0  0  0  0  0  0  0  0  0  0  0
   -1.2810    0.2870    2.0650 C   0  0  0  0  0  0  0  0  0  0  0  0
   -0.4860    1.3670    1.4430 C   0  0  0  0  0  0  0  0  0  0  0  0
    0.4060    1.0970    0.4500 O   0  0  0  0  0  0  0  0  0  0  0  0
    0.2960    0.6300   -0.8150 C   0  0  0  0  0  0  0  0  0  0  0  0
   -0.8570    0.3740   -1.2410 O   0  0  0  0  0  0  0  0  0  0  0  0
    1.4300    0.4350   -1.6290 N   0  0  0  0  0  0  0  0  0  0  0  0
    1.2790   -0.0830   -2.9580 C   0  0  0  0  0  0  0  0  0  0  0  0
    2.7130    0.7490   -1.1380 C   0  0  0  0  0  0  0  0  0  0  0  0
    2.8690    1.9910   -0.5450 C   0  0  0  0  0  0  0  0  0  0  0  0
    4.0860    2.3480   -0.0580 C   0  0  0  0  0  0  0  0  0  0  0  0
    5.2280    1.5310   -0.1100 C   0  0  0  0  0  0  0  0  0  0  0  0
    5.0290    0.3100   -0.7060 C   0  0  0  0  0  0  0  0  0  0  0  0
    3.7940   -0.0880   -1.2160 C   0  0  0  0  0  0  0  0  0  0  0  0
    6.2010   -0.5430   -0.7920 C   0  0  0  0  0  0  0  0  0  0  0  0
    7.3570   -0.1450   -0.3270 C   0  0  0  0  0  0  0  0  0  0  0  0
    8.4990   -1.0890   -0.4570 C   0  0  0  0  0  0  0  0  0  0  0  0
    8.3090   -2.1930   -0.9940 O   0  0  0  0  0  0  0  0  0  0  0  0
    9.7480   -0.7370    0.0140 O   0  0  0  0  0  0  0  0  0  0  0  0
   10.8660   -1.6060   -0.0880 C   0  0  0  0  0  0  0  0  0  0  0  0
    7.5650    1.1670    0.2770 C   0  0  0  0  0  0  0  0  0  0  0  0
    6.4350    1.9810    0.4380 N   0  0  0  0  0  0  0  0  0  0  0  0
  1  2  1  0
  2  3  2  3
  3  4  1  0
  4  5  2  3
  5  6  1  0
  5 10  1  0
  6  7  1  0
  7  8  1  0
  8  9  1  0
  9 10  1  0
 10 11  1  1
 11 12  1  0
 12 13  2  0
 12 14  1  0
 14 15  1  0
 15 16  1  0
 16 17  1  0
 17 18  2  0
 17 19  1  0
 19 20  1  0
 19 21  1  0
 21 22  2  0
 21 26  1  0
 22 23  1  0
 23 24  2  0
 24 25  1  0
 24 34  1  0
 25 26  2  0
 25 27  1  0
 27 28  2  0
 28 29  1  0
 28 33  1  0
 29 30  2  0
 29 31  1  0
 31 32  1  0
 33 34  1  0
M  CHG  2   7   1  34   1
M  END
