
     RDKit          3D

 31 35  0  0  0  0  0  0  0  0999 V2000
   -4.2040    0.3060    1.7930 N   0  0  0  0  0  0  0  0  0  0  0  0
   -3.1010    0.3240    0.7430 C   0  0  2  0  0  0  0  0  0  0  0  0
   -2.8640   -1.1410    0.5390 C   0  0  0  0  0  0  0  0  0  0  0  0
   -1.8860   -1.5260   -0.5230 C   0  0  1  0  0  0  0  0  0  0  0  0
   -1.6580   -3.0040   -0.6700 C   0  0  0  0  0  0  0  0  0  0  0  0
   -2.4680   -2.3280   -1.7000 C   0  0  0  0  0  0  0  0  0  0  0  0
   -2.0280    1.1500    1.3380 C   0  0  0  0  0  0  0  0  0  0  0  0
   -0.7970    1.4250    0.7280 N   0  0  0  0  0  0  0  0  0  0  0  0
    0.2860    0.5180    1.0480 C   0  0  0  0  0  0  0  0  0  0  0  0
    0.0820    0.0610    2.2270 O   0  0  0  0  0  0  0  0  0  0  0  0
    1.4990   -0.0320    0.4830 C   0  0  0  0  0  0  0  0  0  0  0  0
    1.6900   -1.2180    1.0760 C   0  0  0  0  0  0  0  0  0  0  0  0
    2.7940   -2.0960    0.7940 C   0  0  0  0  0  0  0  0  0  0  0  0
    2.9750   -3.3170    1.4320 C   0  0  0  0  0  0  0  0  0  0  0  0
    4.0690   -4.0850    1.1010 C   0  0  0  0  0  0  0  0  0  0  0  0
    4.9960   -3.6960    0.1610 C   0  0  0  0  0  0  0  0  0  0  0  0
    6.0760   -4.4420   -0.1730 F   0  0  0  0  0  0  0  0  0  0  0  0
    4.8150   -2.4850   -0.4710 C   0  0  0  0  0  0  0  0  0  0  0  0
    3.7170   -1.6860   -0.1570 C   0  0  0  0  0  0  0  0  0  0  0  0
    3.6050   -0.4210   -0.8910 C   0  0  0  0  0  0  0  0  0  0  0  0
    2.4430    0.4120   -0.4870 C   0  0  0  0  0  0  0  0  0  0  0  0
    2.5940    1.4680   -1.1940 N   0  0  0  0  0  0  0  0  0  0  0  0
    1.8610    2.9510   -1.4630 S   0  0  2  0  0  0  0  0  0  0  0  0
    1.9040    3.2160   -2.9670 O   0  0  0  0  0  0  0  0  0  0  0  0
    2.7800    4.0250   -0.8850 O   0  0  0  0  0  0  0  0  0  0  0  0
    0.2340    3.1550   -0.9710 C   0  0  0  0  0  0  0  0  0  0  0  0
   -0.1400    4.3060   -1.6770 C   0  0  0  0  0  0  0  0  0  0  0  0
   -1.3960    4.8550   -1.5810 C   0  0  0  0  0  0  0  0  0  0  0  0
   -2.3230    4.2600   -0.7650 C   0  0  0  0  0  0  0  0  0  0  0  0
   -1.9570    3.1150   -0.0600 C   0  0  0  0  0  0  0  0  0  0  0  0
   -0.7210    2.5740   -0.1540 C   0  0  0  0  0  0  0  0  0  0  0  0
  2  1  1  1
  2  3  1  0
  2  7  1  0
  4  3  1  1
  4  5  1  0
  4  6  1  0
  5  6  1  0
  7  8  1  0
  8  9  1  0
  8 31  1  0
  9 10  2  0
  9 11  1  0
 11 12  2  0
 11 21  1  0
 12 13  1  0
 13 14  2  0
 13 19  1  0
 14 15  1  0
 15 16  2  0
 16 17  1  0
 16 18  1  0
 18 19  2  0
 19 20  1  0
 20 21  1  0
 21 22  2  0
 23 22  1  6
 23 24  2  0
 23 25  2  0
 23 26  1  0
 26 27  2  0
 26 31  1  0
 27 28  1  0
 28 29  2  0
 29 30  1  0
 30 31  2  0
M  CHG  1   1   1
M  END
