
     RDKit          3D

 32 35  0  0  0  0  0  0  0  0999 V2000
   -5.9760   -2.1200    0.0370 C   0  0  0  0  0  0  0  0  0  0  0  0
   -5.7200   -0.6050    0.2290 C   0  0  1  0  0  0  0  0  0  0  0  0
   -6.7620   -0.0780    1.2350 C   0  0  0  0  0  0  0  0  0  0  0  0
   -8.1040   -0.4330    0.8010 N   0  0  0  0  0  0  0  0  0  0  0  0
   -4.4600   -0.3180    0.5600 O   0  0  0  0  0  0  0  0  0  0  0  0
   -3.3720    0.3380    0.1270 C   0  0  0  0  0  0  0  0  0  0  0  0
   -2.2000    0.3480    0.8910 C   0  0  0  0  0  0  0  0  0  0  0  0
   -1.0030    0.9830    0.5660 C   0  0  0  0  0  0  0  0  0  0  0  0
   -0.9960    1.6660   -0.6250 C   0  0  0  0  0  0  0  0  0  0  0  0
   -2.1460    1.6870   -1.4300 C   0  0  0  0  0  0  0  0  0  0  0  0
   -3.3190    1.0260   -1.0510 C   0  0  0  0  0  0  0  0  0  0  0  0
   -4.7110    1.1120   -2.1420 Cl  0  0  0  0  0  0  0  0  0  0  0  0
    0.3050    2.6720   -1.2640 S   0  0  0  0  0  0  0  0  0  0  0  0
    1.7320    1.8520   -1.9340 C   0  0  0  0  0  0  0  0  0  0  0  0
    2.9190    2.5790   -1.4130 C   0  0  0  0  0  0  0  0  0  0  0  0
    3.2420    3.5490   -2.2510 O   0  0  0  0  0  0  0  0  0  0  0  0
    3.6820    2.4110   -0.2560 N   0  0  0  0  0  0  0  0  0  0  0  0
    4.5970    1.4380    0.2040 C   0  0  0  0  0  0  0  0  0  0  0  0
    5.8450    1.9660    0.6290 C   0  0  0  0  0  0  0  0  0  0  0  0
    6.8700    1.2440    1.0610 N   0  0  0  0  0  0  0  0  0  0  0  0
    6.8090   -0.0820    1.1320 C   0  0  0  0  0  0  0  0  0  0  0  0
    7.8580   -0.8430    1.5780 F   0  0  0  0  0  0  0  0  0  0  0  0
    5.6330   -0.6770    0.7400 C   0  0  0  0  0  0  0  0  0  0  0  0
    4.4920    0.0560    0.2710 C   0  0  0  0  0  0  0  0  0  0  0  0
    3.2350   -0.7060    0.0090 C   0  0  0  0  0  0  0  0  0  0  0  0
    2.0180   -0.5880    0.5110 C   0  0  0  0  0  0  0  0  0  0  0  0
    1.2990    0.2160    1.4490 C   0  0  0  0  0  0  0  0  0  0  0  0
    0.1380    0.8290    1.4870 C   0  0  0  0  0  0  0  0  0  0  0  0
    3.2920   -1.7830   -0.9570 O   0  0  0  0  0  0  0  0  0  0  0  0
    4.3300   -2.7480   -1.1900 C   0  0  0  0  0  0  0  0  0  0  0  0
    5.2180   -2.9750   -0.0470 C   0  0  0  0  0  0  0  0  0  0  0  0
    5.8260   -2.1520    0.8370 C   0  0  0  0  0  0  0  0  0  0  0  0
  2  1  1  1
  2  3  1  0
  2  5  1  0
  3  4  1  0
  5  6  1  0
  6  7  2  0
  6 11  1  0
  7  8  1  0
  8  9  2  0
  8 28  1  0
  9 10  1  0
  9 13  1  0
 10 11  2  0
 11 12  1  0
 13 14  1  0
 14 15  1  0
 15 16  2  0
 15 17  1  0
 17 18  1  0
 18 19  2  0
 18 24  1  0
 19 20  1  0
 20 21  2  0
 21 22  1  0
 21 23  1  0
 23 24  2  0
 23 32  1  0
 24 25  1  0
 25 26  2  0
 25 29  1  0
 26 27  1  0
 27 28  2  0
 29 30  1  0
 30 31  1  0
 31 32  2  0
M  CHG  1   4   1
M  END
