
     RDKit          3D

 32 35  0  0  0  0  0  0  0  0999 V2000
    6.7210    0.4660   -0.3710 C   0  0  0  0  0  0  0  0  0  0  0  0
    6.2920   -0.5980    0.5030 N   0  0  0  0  0  0  0  0  0  0  0  0
    5.4430   -1.5500   -0.1730 C   0  0  0  0  0  0  0  0  0  0  0  0
    4.0410   -1.1210   -0.3090 C   0  0  0  0  0  0  0  0  0  0  0  0
    3.5550    0.0750    0.1720 C   0  0  0  0  0  0  0  0  0  0  0  0
    2.2090    0.4200    0.0060 C   0  0  0  0  0  0  0  0  0  0  0  0
    1.3440   -0.4230   -0.6400 C   0  0  0  0  0  0  0  0  0  0  0  0
    1.8180   -1.6180   -1.1230 C   0  0  0  0  0  0  0  0  0  0  0  0
    3.1440   -1.9540   -0.9570 C   0  0  0  0  0  0  0  0  0  0  0  0
    3.7160   -3.4800   -1.5810 Cl  0  0  0  0  0  0  0  0  0  0  0  0
   -0.0600   -0.0010   -0.8090 C   0  0  0  0  0  0  0  0  0  0  0  0
   -0.6400    0.7430    0.3350 C   0  0  1  0  0  0  0  0  0  0  0  0
   -1.7350    1.5030   -0.1910 O   0  0  0  0  0  0  0  0  0  0  0  0
   -1.2870   -0.1760    1.3390 C   0  0  0  0  0  0  0  0  0  0  0  0
   -2.2550   -1.0700    0.8020 N   0  0  0  0  0  0  0  0  0  0  0  0
   -3.6480   -0.7370    0.5820 C   0  0  0  0  0  0  0  0  0  0  0  0
   -4.1440    0.4010    0.8240 O   0  0  0  0  0  0  0  0  0  0  0  0
   -4.3590   -1.8850    0.0550 C   0  0  0  0  0  0  0  0  0  0  0  0
   -5.6340   -2.0210   -0.2820 C   0  0  0  0  0  0  0  0  0  0  0  0
   -6.6280   -0.9760   -0.1750 C   0  0  0  0  0  0  0  0  0  0  0  0
   -6.9010   -0.2210    0.9380 C   0  0  0  0  0  0  0  0  0  0  0  0
   -7.9140    0.6460    0.5810 C   0  0  0  0  0  0  0  0  0  0  0  0
   -8.2090    0.3760   -0.7340 C   0  0  0  0  0  0  0  0  0  0  0  0
   -7.4260   -0.5850   -1.1270 O   0  0  0  0  0  0  0  0  0  0  0  0
   -3.3730   -2.9120   -0.0380 N   0  0  0  0  0  0  0  0  0  0  0  0
   -2.1060   -2.4100    0.4170 C   0  0  0  0  0  0  0  0  0  0  0  0
   -0.7390   -3.3230    0.4890 S   0  0  0  0  0  0  0  0  0  0  0  0
    0.2820    1.7310    0.9820 C   0  0  0  0  0  0  0  0  0  0  0  0
    1.6730    1.6960    0.5260 C   0  0  0  0  0  0  0  0  0  0  0  0
    2.5150    2.7010    0.5370 C   0  0  0  0  0  0  0  0  0  0  0  0
    2.1230    4.0290    1.0280 C   0  0  0  0  0  0  0  0  0  0  0  0
    2.9110    4.4330    2.1010 F   0  0  0  0  0  0  0  0  0  0  0  0
  1  2  1  0
  2  3  1  0
  3  4  1  0
  4  5  2  0
  4  9  1  0
  5  6  1  0
  6  7  2  0
  6 29  1  0
  7  8  1  0
  7 11  1  0
  8  9  2  0
  9 10  1  0
 11 12  1  0
 12 13  1  6
 12 14  1  0
 12 28  1  0
 14 15  1  0
 15 16  1  0
 15 26  1  0
 16 17  2  0
 16 18  1  0
 18 19  2  3
 18 25  1  0
 19 20  1  0
 20 21  2  0
 20 24  1  0
 21 22  1  0
 22 23  2  0
 23 24  1  0
 25 26  1  0
 26 27  2  0
 28 29  1  0
 29 30  2  3
 30 31  1  0
 31 32  1  0
M  CHG  1   2   1
M  END
