
     RDKit          3D

 32 34  0  0  0  0  0  0  0  0999 V2000
   -8.0900    1.3530   -0.1690 C   0  0  0  0  0  0  0  0  0  0  0  0
   -6.6370    1.5000   -0.4940 C   0  0  0  0  0  0  0  0  0  0  0  0
   -5.6550    0.6430   -0.0840 N   0  0  0  0  0  0  0  0  0  0  0  0
   -4.4660    1.0560   -0.5430 C   0  0  0  0  0  0  0  0  0  0  0  0
   -3.1990    0.3840   -0.2940 C   0  0  0  0  0  0  0  0  0  0  0  0
   -3.1260   -0.7120    0.4150 C   0  0  0  0  0  0  0  0  0  0  0  0
   -2.0010   -1.5090    0.7700 C   0  0  0  0  0  0  0  0  0  0  0  0
   -2.2210   -2.5720    1.4260 O   0  0  0  0  0  0  0  0  0  0  0  0
   -0.6420   -1.1680    0.4180 C   0  0  0  0  0  0  0  0  0  0  0  0
   -0.1240    0.1430    0.3990 C   0  0  0  0  0  0  0  0  0  0  0  0
    1.1920    0.0080    0.0290 C   0  0  0  0  0  0  0  0  0  0  0  0
    2.1970    1.0770   -0.1410 C   0  0  0  0  0  0  0  0  0  0  0  0
    1.8180    2.2500    0.0750 O   0  0  0  0  0  0  0  0  0  0  0  0
    3.5780    0.7030   -0.5490 C   0  0  0  0  0  0  0  0  0  0  0  0
    4.5130    1.8620   -0.5550 C   0  0  2  0  0  0  0  0  0  0  0  0
    4.5960    2.4490    0.8160 C   0  0  0  0  0  0  0  0  0  0  0  0
    3.9500    2.9180   -1.4860 C   0  0  0  0  0  0  0  0  0  0  0  0
    5.8530    1.4620   -1.1280 C   0  0  1  0  0  0  0  0  0  0  0  0
    6.8810    2.5740   -1.1720 C   0  0  0  0  0  0  0  0  0  0  0  0
    7.0660    1.3470   -0.3280 C   0  0  0  0  0  0  0  0  0  0  0  0
    1.4730   -1.2530   -0.1630 O   0  0  0  0  0  0  0  0  0  0  0  0
    0.3830   -2.0090    0.0650 C   0  0  0  0  0  0  0  0  0  0  0  0
    0.4390   -3.4730   -0.0700 C   0  0  0  0  0  0  0  0  0  0  0  0
    0.8880   -4.2560    1.0990 C   0  0  1  0  0  0  0  0  0  0  0  0
    0.8380   -5.7580    0.7400 C   0  0  0  0  0  0  0  0  0  0  0  0
    2.3920   -3.9370    1.2720 C   0  0  0  0  0  0  0  0  0  0  0  0
    0.2290   -4.0810    2.4030 C   0  0  0  0  0  0  0  0  0  0  0  0
   -4.7110    2.2130   -1.2660 C   0  0  0  0  0  0  0  0  0  0  0  0
   -6.0570    2.5000   -1.2430 C   0  0  0  0  0  0  0  0  0  0  0  0
   -6.7450    3.6390   -1.8850 C   0  0  0  0  0  0  0  0  0  0  0  0
   -8.1530    3.8010   -1.7370 N   0  0  0  0  0  0  0  0  0  0  0  0
   -6.1300    4.4860   -2.5660 O   0  0  0  0  0  0  0  0  0  0  0  0
  1  2  1  0
  2  3  1  0
  2 29  2  0
  3  4  1  0
  4  5  1  0
  4 28  2  0
  5  6  2  3
  6  7  1  0
  7  8  2  0
  7  9  1  0
  9 10  1  0
  9 22  2  0
 10 11  2  0
 11 12  1  0
 11 21  1  0
 12 13  2  0
 12 14  1  0
 14 15  1  0
 15 16  1  1
 15 17  1  0
 15 18  1  0
 18 19  1  6
 18 20  1  0
 19 20  1  0
 21 22  1  0
 22 23  1  0
 23 24  1  0
 24 25  1  6
 24 26  1  0
 24 27  1  0
 28 29  1  0
 29 30  1  0
 30 31  1  0
 30 32  2  0
M  END
