
     RDKit          3D

 39 42  0  0  0  0  0  0  0  0999 V2000
    2.0390   -2.8140   -1.9250 C   0  0  0  0  0  0  0  0  0  0  0  0
    3.2640   -2.5320   -2.2860 C   0  0  0  0  0  0  0  0  0  0  0  0
    4.1990   -3.5850   -2.2880 O   0  0  0  0  0  0  0  0  0  0  0  0
    5.5180   -3.4120   -2.6510 C   0  0  0  0  0  0  0  0  0  0  0  0
    5.9190   -2.2060   -3.0110 C   0  0  0  0  0  0  0  0  0  0  0  0
    5.0110   -1.0780   -3.0310 C   0  0  0  0  0  0  0  0  0  0  0  0
    3.7250   -1.2230   -2.6820 C   0  0  0  0  0  0  0  0  0  0  0  0
    2.7960   -0.0720   -2.7090 C   0  0  0  0  0  0  0  0  0  0  0  0
    2.2960    0.1520   -1.3620 N   0  0  0  0  0  0  0  0  0  0  0  0
    3.1640    0.4390   -0.2740 C   0  0  0  0  0  0  0  0  0  0  0  0
    4.4020    0.4810   -0.5530 O   0  0  0  0  0  0  0  0  0  0  0  0
    2.6820    0.6720    1.0990 C   0  0  1  0  0  0  0  0  0  0  0  0
    3.5940    1.7690    1.6720 C   0  0  0  0  0  0  0  0  0  0  0  0
    5.0540    1.3080    1.6760 C   0  0  0  0  0  0  0  0  0  0  0  0
    1.3300    1.0830    1.2320 N   0  0  0  0  0  0  0  0  0  0  0  0
    0.9320    2.4430    0.9640 C   0  0  0  0  0  0  0  0  0  0  0  0
    0.6380    2.9520   -0.2470 C   0  0  0  0  0  0  0  0  0  0  0  0
    0.2580    4.2970   -0.3430 C   0  0  0  0  0  0  0  0  0  0  0  0
    0.1850    5.0880    0.7810 C   0  0  0  0  0  0  0  0  0  0  0  0
   -0.2090    6.4650    0.6450 N   0  0  0  0  0  0  0  0  0  0  0  0
    0.4850    4.5690    2.0220 C   0  0  0  0  0  0  0  0  0  0  0  0
    0.8580    3.2470    2.1100 C   0  0  0  0  0  0  0  0  0  0  0  0
    0.2650    0.2320    1.6400 C   0  0  0  0  0  0  0  0  0  0  0  0
   -0.8130   -0.0390    0.8410 C   0  0  0  0  0  0  0  0  0  0  0  0
   -1.8690   -0.8900    1.2310 C   0  0  0  0  0  0  0  0  0  0  0  0
   -2.9460   -1.0860    0.3260 N   0  0  0  0  0  0  0  0  0  0  0  0
   -3.8960   -2.1260    0.3760 C   0  0  0  0  0  0  0  0  0  0  0  0
   -3.7990   -2.9760    1.3000 O   0  0  0  0  0  0  0  0  0  0  0  0
   -5.0110   -2.3160   -0.5640 C   0  0  1  0  0  0  0  0  0  0  0  0
   -5.8340   -1.0270   -0.7550 C   0  0  2  0  0  0  0  0  0  0  0  0
   -7.3160   -1.1100   -0.5790 C   0  0  0  0  0  0  0  0  0  0  0  0
   -5.1560   -1.7600   -1.8910 C   0  0  2  0  0  0  0  0  0  0  0  0
   -6.1990   -2.4730   -2.7820 C   0  0  0  0  0  0  0  0  0  0  0  0
   -4.1640   -0.9700   -2.6590 C   0  0  0  0  0  0  0  0  0  0  0  0
   -1.7510   -1.4370    2.4760 C   0  0  0  0  0  0  0  0  0  0  0  0
   -0.6690   -1.1940    3.3370 C   0  0  0  0  0  0  0  0  0  0  0  0
    0.3390   -0.3430    2.8850 C   0  0  0  0  0  0  0  0  0  0  0  0
    1.4440   -0.0460    3.6670 O   0  0  0  0  0  0  0  0  0  0  0  0
    1.5190   -0.6380    4.9500 C   0  0  0  0  0  0  0  0  0  0  0  0
  1  2  2  0
  2  3  1  0
  2  7  1  0
  3  4  1  0
  4  5  2  0
  5  6  1  0
  6  7  2  0
  7  8  1  0
  8  9  1  0
  9 10  1  0
 10 11  2  0
 10 12  1  0
 12 13  1  6
 12 15  1  0
 13 14  1  0
 15 16  1  0
 15 23  1  0
 16 17  2  0
 16 22  1  0
 17 18  1  0
 18 19  2  0
 19 20  1  0
 19 21  1  0
 21 22  2  0
 23 24  2  0
 23 37  1  0
 24 25  1  0
 25 26  1  0
 25 35  2  0
 26 27  1  0
 27 28  2  0
 29 27  1  1
 29 30  1  0
 29 32  1  0
 30 31  1  6
 30 32  1  0
 32 33  1  6
 32 34  1  0
 35 36  1  0
 36 37  2  0
 37 38  1  0
 38 39  1  0
M  END
