
     RDKit          3D

 39 42  0  0  0  0  0  0  0  0999 V2000
    6.5820   -4.9450   -1.0950 C   0  0  0  0  0  0  0  0  0  0  0  0
    5.2260   -4.6840   -1.4460 O   0  0  0  0  0  0  0  0  0  0  0  0
    4.8290   -3.3540   -1.4790 C   0  0  0  0  0  0  0  0  0  0  0  0
    5.7000   -2.3070   -1.1860 C   0  0  0  0  0  0  0  0  0  0  0  0
    5.3180   -0.9890   -1.2150 C   0  0  0  0  0  0  0  0  0  0  0  0
    4.0280   -0.6400   -1.5430 C   0  0  0  0  0  0  0  0  0  0  0  0
    3.5100    1.0420   -1.5880 S   0  0  1  0  0  0  0  0  0  0  0  0
    4.6000    1.9230   -2.1630 O   0  0  0  0  0  0  0  0  0  0  0  0
    2.3970    1.0810   -2.6290 O   0  0  0  0  0  0  0  0  0  0  0  0
    2.8840    1.5780   -0.1390 N   0  0  0  0  0  0  0  0  0  0  0  0
    3.6440    1.6040    1.0220 C   0  0  0  0  0  0  0  0  0  0  0  0
    4.4760    2.7860    1.3380 C   0  0  2  0  0  0  0  0  0  0  0  0
    5.1850    2.5020    2.6720 C   0  0  0  0  0  0  0  0  0  0  0  0
    3.6570    4.0340    1.5830 C   0  0  0  0  0  0  0  0  0  0  0  0
    1.5510    2.0710   -0.1230 C   0  0  0  0  0  0  0  0  0  0  0  0
    0.6200    0.9220    0.0940 C   0  0  1  0  0  0  0  0  0  0  0  0
    0.9290    0.3230    1.3200 O   0  0  0  0  0  0  0  0  0  0  0  0
   -0.8350    1.2550    0.0780 C   0  0  2  0  0  0  0  0  0  0  0  0
   -1.1430    2.1620    1.2510 C   0  0  0  0  0  0  0  0  0  0  0  0
   -2.5750    2.5290    1.3030 C   0  0  0  0  0  0  0  0  0  0  0  0
   -3.0360    3.6440    0.6420 C   0  0  0  0  0  0  0  0  0  0  0  0
   -4.3890    4.0030    0.6880 C   0  0  0  0  0  0  0  0  0  0  0  0
   -5.2810    3.2360    1.4010 C   0  0  0  0  0  0  0  0  0  0  0  0
   -4.8330    2.1230    2.0620 C   0  0  0  0  0  0  0  0  0  0  0  0
   -3.4890    1.7790    2.0080 C   0  0  0  0  0  0  0  0  0  0  0  0
   -1.5610   -0.0170    0.2220 N   0  0  0  0  0  0  0  0  0  0  0  0
   -2.4800   -0.3910   -0.7960 C   0  0  0  0  0  0  0  0  0  0  0  0
   -2.6740    0.3500   -1.8060 O   0  0  0  0  0  0  0  0  0  0  0  0
   -3.2200   -1.5650   -0.7660 O   0  0  0  0  0  0  0  0  0  0  0  0
   -4.1190   -1.9010   -1.7870 C   0  0  1  0  0  0  0  0  0  0  0  0
   -3.8830   -3.1920   -2.4700 C   0  0  0  0  0  0  0  0  0  0  0  0
   -4.7600   -4.0970   -1.9100 O   0  0  0  0  0  0  0  0  0  0  0  0
   -5.9490   -3.3720   -1.7900 C   0  0  1  0  0  0  0  0  0  0  0  0
   -6.8110   -3.8900   -0.8620 O   0  0  0  0  0  0  0  0  0  0  0  0
   -6.8020   -3.1330    0.2760 C   0  0  0  0  0  0  0  0  0  0  0  0
   -5.6840   -2.1190    0.1610 C   0  0  0  0  0  0  0  0  0  0  0  0
   -5.5460   -1.9930   -1.3230 C   0  0  1  0  0  0  0  0  0  0  0  0
    3.1470   -1.6570   -1.8370 C   0  0  0  0  0  0  0  0  0  0  0  0
    3.5430   -2.9770   -1.8040 C   0  0  0  0  0  0  0  0  0  0  0  0
  1  2  1  0
  2  3  1  0
  3  4  2  0
  3 39  1  0
  4  5  1  0
  5  6  2  0
  6  7  1  0
  6 38  1  0
  7  8  2  0
  7  9  2  0
  7 10  1  1
 10 11  1  0
 10 15  1  0
 11 12  1  0
 12 13  1  1
 12 14  1  0
 15 16  1  0
 16 17  1  1
 16 18  1  0
 18 19  1  1
 18 26  1  0
 19 20  1  0
 20 21  2  0
 20 25  1  0
 21 22  1  0
 22 23  2  0
 23 24  1  0
 24 25  2  0
 26 27  1  0
 27 28  2  0
 27 29  1  0
 30 29  1  1
 30 31  1  0
 30 37  1  0
 31 32  1  0
 33 32  1  1
 33 34  1  0
 33 37  1  0
 34 35  1  0
 35 36  1  0
 37 36  1  1
 38 39  2  0
M  END
