
     RDKit          3D

 39 42  0  0  0  0  0  0  0  0999 V2000
    9.3180   -1.3580    0.6460 C   0  0  0  0  0  0  0  0  0  0  0  0
    7.8890   -0.9230    0.4620 C   0  0  0  0  0  0  0  0  0  0  0  0
    7.8380    0.1490   -0.6020 C   0  0  0  0  0  0  0  0  0  0  0  0
    6.4560    0.6240   -0.8360 C   0  0  0  0  0  0  0  0  0  0  0  0
    6.1260    1.6080   -1.7350 C   0  0  0  0  0  0  0  0  0  0  0  0
    4.7410    1.7460   -1.6430 C   0  0  0  0  0  0  0  0  0  0  0  0
    4.3600    0.8140   -0.6800 C   0  0  0  0  0  0  0  0  0  0  0  0
    3.0510    0.5800   -0.2420 N   0  0  0  0  0  0  0  0  0  0  0  0
    2.1640   -0.0250   -1.0090 C   0  0  0  0  0  0  0  0  0  0  0  0
    2.5990   -0.4530   -2.3610 C   0  0  0  0  0  0  0  0  0  0  0  0
    0.8540   -0.1990   -0.4860 C   0  0  0  0  0  0  0  0  0  0  0  0
    0.5230    0.2490    0.7340 C   0  0  0  0  0  0  0  0  0  0  0  0
    1.4640    0.9400    1.6230 C   0  0  0  0  0  0  0  0  0  0  0  0
   -0.8590    0.0200    1.0880 N   0  0  0  0  0  0  0  0  0  0  0  0
   -1.9360    0.1140    0.1580 C   0  0  1  0  0  0  0  0  0  0  0  0
   -3.0460   -0.8250    0.5070 C   0  0  0  0  0  0  0  0  0  0  0  0
   -4.2000   -1.0870   -0.3450 C   0  0  0  0  0  0  0  0  0  0  0  0
   -2.9580   -1.4030    1.6390 N   0  0  0  0  0  0  0  0  0  0  0  0
   -3.8220   -2.3230    2.2450 C   0  0  2  0  0  0  0  0  0  0  0  0
   -4.9820   -1.5620    2.8960 C   0  0  0  0  0  0  0  0  0  0  0  0
   -3.0690   -3.0940    3.3440 C   0  0  0  0  0  0  0  0  0  0  0  0
   -3.9540   -3.9970    3.9250 O   0  0  0  0  0  0  0  0  0  0  0  0
   -2.4740    1.5210    0.0950 C   0  0  0  0  0  0  0  0  0  0  0  0
   -1.8590    2.4680    0.9060 C   0  0  0  0  0  0  0  0  0  0  0  0
   -2.3290    3.7590    0.8220 C   0  0  0  0  0  0  0  0  0  0  0  0
   -3.3730    4.1210   -0.0290 C   0  0  0  0  0  0  0  0  0  0  0  0
   -3.9830    3.1900   -0.8310 C   0  0  0  0  0  0  0  0  0  0  0  0
   -3.5010    1.8790   -0.7440 C   0  0  0  0  0  0  0  0  0  0  0  0
   -5.1020    3.5230   -1.7570 C   0  0  0  0  0  0  0  0  0  0  0  0
   -5.6250    4.8950   -1.4170 C   0  0  0  0  0  0  0  0  0  0  0  0
   -4.5180    5.8870   -1.1780 C   0  0  0  0  0  0  0  0  0  0  0  0
   -3.7890    5.4550   -0.0500 O   0  0  0  0  0  0  0  0  0  0  0  0
   -1.4520   -0.1430   -1.1830 N   0  0  0  0  0  0  0  0  0  0  0  0
   -0.2190   -0.9100   -1.2410 C   0  0  2  0  0  0  0  0  0  0  0  0
   -0.3870   -2.2790   -0.6690 C   0  0  0  0  0  0  0  0  0  0  0  0
    0.8330   -3.1580   -0.7420 C   0  0  1  0  0  0  0  0  0  0  0  0
    0.5500   -4.5190   -0.1090 C   0  0  0  0  0  0  0  0  0  0  0  0
    1.2160   -3.3780   -2.0760 O   0  0  0  0  0  0  0  0  0  0  0  0
    5.4060    0.1700   -0.2260 O   0  0  0  0  0  0  0  0  0  0  0  0
  1  2  1  0
  2  3  1  0
  3  4  1  0
  4  5  2  0
  4 39  1  0
  5  6  1  0
  6  7  2  0
  7  8  1  0
  7 39  1  0
  8  9  2  3
  9 10  1  0
  9 11  1  0
 11 12  2  0
 11 34  1  0
 12 13  1  0
 12 14  1  0
 14 15  1  0
 15 16  1  1
 15 23  1  0
 15 33  1  0
 16 17  1  0
 16 18  2  3
 18 19  1  0
 19 20  1  1
 19 21  1  0
 21 22  1  0
 23 24  2  0
 23 28  1  0
 24 25  1  0
 25 26  2  0
 26 27  1  0
 26 32  1  0
 27 28  2  0
 27 29  1  0
 29 30  1  0
 30 31  1  0
 31 32  1  0
 33 34  1  0
 34 35  1  1
 35 36  1  0
 36 37  1  6
 36 38  1  0
M  END
