
     RDKit          3D

 39 41  0  0  0  0  0  0  0  0999 V2000
  -11.2480    0.9520    1.6430 C   0  0  0  0  0  0  0  0  0  0  0  0
  -10.5540    2.0000    0.8340 C   0  0  0  0  0  0  0  0  0  0  0  0
   -9.1510    1.7160    0.5760 N   0  0  0  0  0  0  0  0  0  0  0  0
   -8.7930    0.7150   -0.1310 C   0  0  0  0  0  0  0  0  0  0  0  0
   -9.8090   -0.1970   -0.7110 C   0  0  0  0  0  0  0  0  0  0  0  0
   -7.3280    0.5090   -0.3840 C   0  0  0  0  0  0  0  0  0  0  0  0
   -6.3920    1.3610    0.0930 C   0  0  0  0  0  0  0  0  0  0  0  0
   -5.0590    1.1040   -0.2190 C   0  0  0  0  0  0  0  0  0  0  0  0
   -3.8760    1.8970    0.1610 C   0  0  0  0  0  0  0  0  0  0  0  0
   -2.7590    1.1380    0.6730 N   0  0  0  0  0  0  0  0  0  0  0  0
   -2.1840    0.2930   -0.3020 C   0  0  0  0  0  0  0  0  0  0  0  0
   -1.2690   -0.7680    0.1210 C   0  0  0  0  0  0  0  0  0  0  0  0
   -0.0890   -0.9620   -0.5750 C   0  0  0  0  0  0  0  0  0  0  0  0
    0.7870   -2.0030   -0.3510 C   0  0  0  0  0  0  0  0  0  0  0  0
    1.9770   -2.2580   -1.1800 C   0  0  0  0  0  0  0  0  0  0  0  0
    2.5380   -1.0820   -1.7520 N   0  0  0  0  0  0  0  0  0  0  0  0
    3.4820   -0.2890   -1.0740 C   0  0  0  0  0  0  0  0  0  0  0  0
    3.8550   -0.6140    0.0720 O   0  0  0  0  0  0  0  0  0  0  0  0
    4.0430    0.9340   -1.7100 C   0  0  0  0  0  0  0  0  0  0  0  0
    5.0680    1.5380   -0.8960 N   0  0  0  0  0  0  0  0  0  0  0  0
    6.2320    0.7750   -0.6070 C   0  0  0  0  0  0  0  0  0  0  0  0
    6.2300   -0.3980   -1.1100 O   0  0  0  0  0  0  0  0  0  0  0  0
    7.3290    1.2390    0.1690 N   0  0  0  0  0  0  0  0  0  0  0  0
    8.4420    0.4010    0.4140 C   0  0  0  0  0  0  0  0  0  0  0  0
    8.3700   -0.9680    0.4330 C   0  0  0  0  0  0  0  0  0  0  0  0
    9.5440   -1.7180    0.6310 C   0  0  0  0  0  0  0  0  0  0  0  0
   10.7650   -1.1070    0.8060 C   0  0  0  0  0  0  0  0  0  0  0  0
   11.9390   -1.8710    0.9920 N   0  0  0  0  0  0  0  0  0  0  0  0
   10.8470    0.2900    0.7900 C   0  0  0  0  0  0  0  0  0  0  0  0
   12.0980    0.8720    0.9700 O   0  0  0  0  0  0  0  0  0  0  0  0
   12.2350    2.2800    0.9520 C   0  0  0  0  0  0  0  0  0  0  0  0
    9.6860    1.0050    0.5950 C   0  0  0  0  0  0  0  0  0  0  0  0
    0.4330   -2.9040    0.6580 C   0  0  0  0  0  0  0  0  0  0  0  0
   -0.7320   -2.7190    1.3520 C   0  0  0  0  0  0  0  0  0  0  0  0
   -1.6000   -1.6750    1.1130 C   0  0  0  0  0  0  0  0  0  0  0  0
   -2.8190   -1.5530    1.8830 N   0  0  0  0  0  0  0  0  0  0  0  0
   -5.1410   -0.3130   -1.1620 S   0  0  0  0  0  0  0  0  0  0  0  0
   -6.9160   -0.5520   -1.1380 C   0  0  0  0  0  0  0  0  0  0  0  0
   -7.5450   -1.6850   -1.8460 C   0  0  0  0  0  0  0  0  0  0  0  0
  1  2  1  0
  2  3  1  0
  3  4  2  3
  4  5  1  0
  4  6  1  0
  6  7  1  0
  6 38  2  0
  7  8  2  0
  8  9  1  0
  8 37  1  0
  9 10  1  0
 10 11  1  0
 11 12  1  0
 12 13  2  0
 12 35  1  0
 13 14  1  0
 14 15  1  0
 14 33  2  0
 15 16  1  0
 16 17  1  0
 17 18  2  0
 17 19  1  0
 19 20  1  0
 20 21  1  0
 21 22  2  0
 21 23  1  0
 23 24  1  0
 24 25  2  0
 24 32  1  0
 25 26  1  0
 26 27  2  0
 27 28  1  0
 27 29  1  0
 29 30  1  0
 29 32  2  0
 30 31  1  0
 33 34  1  0
 34 35  2  0
 35 36  1  0
 37 38  1  0
 38 39  1  0
M  CHG  2   3   1  10   1
M  END
