
     RDKit          3D

 39 42  0  0  0  0  0  0  0  0999 V2000
    3.2750    4.7220    3.2750 C   0  0  0  0  0  0  0  0  0  0  0  0
    4.3830    4.0140    3.4140 C   0  0  0  0  0  0  0  0  0  0  0  0
    5.5000    4.4920    4.0570 O   0  0  0  0  0  0  0  0  0  0  0  0
    6.6610    3.7500    4.2010 C   0  0  0  0  0  0  0  0  0  0  0  0
    6.6680    2.5420    3.6940 C   0  0  0  0  0  0  0  0  0  0  0  0
    5.5190    1.9370    2.9860 C   0  0  0  0  0  0  0  0  0  0  0  0
    4.4240    2.6480    2.8550 C   0  0  0  0  0  0  0  0  0  0  0  0
    3.2290    2.1450    2.1820 C   0  0  0  0  0  0  0  0  0  0  0  0
    3.2880    0.8300    1.6690 N   0  0  0  0  0  0  0  0  0  0  0  0
    2.1280    0.2940    1.0070 C   0  0  0  0  0  0  0  0  0  0  0  0
    1.0870    0.9710    0.8680 O   0  0  0  0  0  0  0  0  0  0  0  0
    2.1730   -1.0840    0.4800 C   0  0  1  0  0  0  0  0  0  0  0  0
    1.8730   -2.0250    1.6420 C   0  0  0  0  0  0  0  0  0  0  0  0
    2.8800   -1.8870    2.7550 C   0  0  0  0  0  0  0  0  0  0  0  0
    1.1900   -1.3060   -0.5700 N   0  0  0  0  0  0  0  0  0  0  0  0
    1.0880   -2.6700   -1.0370 C   0  0  0  0  0  0  0  0  0  0  0  0
    0.2030   -3.4900   -0.4090 C   0  0  0  0  0  0  0  0  0  0  0  0
    0.0670   -4.7850   -0.8200 C   0  0  0  0  0  0  0  0  0  0  0  0
    0.8070   -5.2760   -1.8570 C   0  0  0  0  0  0  0  0  0  0  0  0
    0.6670   -6.6250   -2.2900 N   0  0  0  0  0  0  0  0  0  0  0  0
    1.7010   -4.4360   -2.4860 C   0  0  0  0  0  0  0  0  0  0  0  0
    1.8460   -3.1440   -2.0850 C   0  0  0  0  0  0  0  0  0  0  0  0
    0.3760   -0.3000   -1.1500 C   0  0  0  0  0  0  0  0  0  0  0  0
   -1.0120   -0.3450   -1.0330 C   0  0  0  0  0  0  0  0  0  0  0  0
   -1.8300    0.6250   -1.6140 C   0  0  0  0  0  0  0  0  0  0  0  0
   -3.2330    0.4840   -1.4120 N   0  0  0  0  0  0  0  0  0  0  0  0
   -4.2530    1.0790   -2.1640 C   0  0  0  0  0  0  0  0  0  0  0  0
   -3.8850    1.8160   -3.1400 O   0  0  0  0  0  0  0  0  0  0  0  0
   -5.6690    0.8700   -1.8540 C   0  0  1  0  0  0  0  0  0  0  0  0
   -6.0350   -0.4080   -1.1450 C   0  0  2  0  0  0  0  0  0  0  0  0
   -7.2310   -1.1100   -1.7590 C   0  0  0  0  0  0  0  0  0  0  0  0
   -6.1890    0.8920   -0.4670 C   0  0  2  0  0  0  0  0  0  0  0  0
   -7.6180    1.3720   -0.2790 C   0  0  0  0  0  0  0  0  0  0  0  0
   -5.2860    1.3070    0.6730 C   0  0  0  0  0  0  0  0  0  0  0  0
   -1.2090    1.6130   -2.2980 C   0  0  0  0  0  0  0  0  0  0  0  0
    0.1860    1.6700   -2.4230 C   0  0  0  0  0  0  0  0  0  0  0  0
    0.9900    0.7110   -1.8470 C   0  0  0  0  0  0  0  0  0  0  0  0
    2.3850    0.7740   -1.9770 O   0  0  0  0  0  0  0  0  0  0  0  0
    2.9340    1.8540   -2.7150 C   0  0  0  0  0  0  0  0  0  0  0  0
  1  2  2  0
  2  3  1  0
  2  7  1  0
  3  4  1  0
  4  5  2  0
  5  6  1  0
  6  7  2  0
  7  8  1  0
  8  9  1  0
  9 10  1  0
 10 11  2  0
 10 12  1  0
 12 13  1  1
 12 15  1  0
 13 14  1  0
 15 16  1  0
 15 23  1  0
 16 17  2  0
 16 22  1  0
 17 18  1  0
 18 19  2  0
 19 20  1  0
 19 21  1  0
 21 22  2  0
 23 24  2  0
 23 37  1  0
 24 25  1  0
 25 26  1  0
 25 35  2  0
 26 27  1  0
 27 28  2  0
 29 27  1  1
 29 30  1  0
 29 32  1  0
 30 31  1  6
 30 32  1  0
 32 33  1  6
 32 34  1  0
 35 36  1  0
 36 37  2  0
 37 38  1  0
 38 39  1  0
M  END
