
     RDKit          3D

 39 41  0  0  0  0  0  0  0  0999 V2000
   -9.2010   -1.4920    2.5130 C   0  0  0  0  0  0  0  0  0  0  0  0
   -8.2470   -0.3450    2.5690 C   0  0  0  0  0  0  0  0  0  0  0  0
   -6.8230   -0.7560    2.0830 C   0  0  2  0  0  0  0  0  0  0  0  0
   -6.1020    0.4190    2.2120 O   0  0  0  0  0  0  0  0  0  0  0  0
   -6.8830   -1.2310    0.6910 C   0  0  0  0  0  0  0  0  0  0  0  0
   -5.6900   -1.7120   -0.0140 C   0  0  2  0  0  0  0  0  0  0  0  0
   -4.9990   -2.8790    0.6790 C   0  0  0  0  0  0  0  0  0  0  0  0
   -4.8350   -0.8030   -0.7700 C   0  0  0  0  0  0  0  0  0  0  0  0
   -4.1080    0.3260   -0.1730 C   0  0  1  0  0  0  0  0  0  0  0  0
   -3.1660   -0.1970    0.8690 C   0  0  0  0  0  0  0  0  0  0  0  0
   -1.9950    0.7060    1.1780 C   0  0  0  0  0  0  0  0  0  0  0  0
   -1.2080    0.7730   -0.0420 N   0  0  0  0  0  0  0  0  0  0  0  0
    0.1510    0.4520   -0.0840 C   0  0  0  0  0  0  0  0  0  0  0  0
    0.9040    0.4430   -1.0730 O   0  0  0  0  0  0  0  0  0  0  0  0
    0.7910    0.0680    1.2290 C   0  0  0  0  0  0  0  0  0  0  0  0
    2.2340   -0.2170    1.0110 N   0  0  0  0  0  0  0  0  0  0  0  0
    2.5330   -1.5760    0.6840 C   0  0  0  0  0  0  0  0  0  0  0  0
    3.0890    0.8770    1.1480 C   0  0  0  0  0  0  0  0  0  0  0  0
    2.5370    2.0090    1.4550 O   0  0  0  0  0  0  0  0  0  0  0  0
    4.5030    0.9090    0.9930 C   0  0  0  0  0  0  0  0  0  0  0  0
    5.2770   -0.0710    0.6950 C   0  0  0  0  0  0  0  0  0  0  0  0
    6.7270    0.1100    0.5660 C   0  0  0  0  0  0  0  0  0  0  0  0
    7.3500    1.3170    0.7410 C   0  0  0  0  0  0  0  0  0  0  0  0
    8.7140    1.4530    0.6120 C   0  0  0  0  0  0  0  0  0  0  0  0
    9.5470    0.3790    0.2960 C   0  0  0  0  0  0  0  0  0  0  0  0
   10.9340    0.5560    0.1750 N   0  0  0  0  0  0  0  0  0  0  0  0
   11.9060   -0.3960   -0.1490 C   0  0  0  0  0  0  0  0  0  0  0  0
   13.3600   -0.0190   -0.2330 C   0  0  0  0  0  0  0  0  0  0  0  0
   11.5890   -1.5800   -0.3750 O   0  0  0  0  0  0  0  0  0  0  0  0
    8.9280   -0.8190    0.1230 C   0  0  0  0  0  0  0  0  0  0  0  0
    7.5450   -0.9650    0.2520 C   0  0  0  0  0  0  0  0  0  0  0  0
   -1.9480    1.1910   -1.2000 C   0  0  0  0  0  0  0  0  0  0  0  0
   -1.2810    1.8120   -2.2420 C   0  0  0  0  0  0  0  0  0  0  0  0
   -1.9270    2.2450   -3.3760 C   0  0  0  0  0  0  0  0  0  0  0  0
   -1.2350    2.8840   -4.4470 N   0  0  0  0  0  0  0  0  0  0  0  0
   -3.2900    2.0330   -3.4390 C   0  0  0  0  0  0  0  0  0  0  0  0
   -4.0350    2.4870   -4.6530 C   0  0  0  0  0  0  0  0  0  0  0  0
   -3.9660    1.4040   -2.3830 C   0  0  0  0  0  0  0  0  0  0  0  0
   -3.2810    0.9880   -1.2700 C   0  0  0  0  0  0  0  0  0  0  0  0
  1  2  1  0
  2  3  1  0
  3  4  1  6
  3  5  1  0
  5  6  1  0
  6  7  1  1
  6  8  1  0
  9  8  1  6
  9 10  1  0
  9 39  1  0
 10 11  1  0
 11 12  1  0
 12 13  1  0
 12 32  1  0
 13 14  2  0
 13 15  1  0
 15 16  1  0
 16 17  1  0
 16 18  1  0
 18 19  2  0
 18 20  1  0
 20 21  2  3
 21 22  1  0
 22 23  2  0
 22 31  1  0
 23 24  1  0
 24 25  2  0
 25 26  1  0
 25 30  1  0
 26 27  1  0
 27 28  1  0
 27 29  2  0
 30 31  2  0
 32 33  2  0
 32 39  1  0
 33 34  1  0
 34 35  1  0
 34 36  2  0
 36 37  1  0
 36 38  1  0
 38 39  2  0
M  END
