
     RDKit          3D

 39 43  0  0  0  0  0  0  0  0999 V2000
   -7.0640    2.2620    3.4460 C   0  0  0  0  0  0  0  0  0  0  0  0
   -6.4910    1.2800    2.5000 C   0  0  0  0  0  0  0  0  0  0  0  0
   -5.3690    1.5860    1.7690 C   0  0  0  0  0  0  0  0  0  0  0  0
   -4.7820    0.6860    0.8640 C   0  0  0  0  0  0  0  0  0  0  0  0
   -3.6120    1.0350    0.1670 N   0  0  0  0  0  0  0  0  0  0  0  0
   -3.0900    2.3600    0.2310 C   0  0  0  0  0  0  0  0  0  0  0  0
   -1.7430    2.5110   -0.4510 C   0  0  1  0  0  0  0  0  0  0  0  0
   -0.7790    1.6540    0.1970 N   0  0  0  0  0  0  0  0  0  0  0  0
    0.2720    1.0850   -0.5550 C   0  0  0  0  0  0  0  0  0  0  0  0
    1.0060    0.2670    0.1200 O   0  0  0  0  0  0  0  0  0  0  0  0
    0.5810    1.3330   -1.9570 C   0  0  2  0  0  0  0  0  0  0  0  0
    1.7610    2.1520   -2.2980 C   0  0  0  0  0  0  0  0  0  0  0  0
    3.0730    1.6440   -1.8550 C   0  0  0  0  0  0  0  0  0  0  0  0
    3.2180    0.6830   -1.0370 O   0  0  0  0  0  0  0  0  0  0  0  0
    4.3200    2.2100   -2.3320 N   0  0  0  0  0  0  0  0  0  0  0  0
    5.5510    1.6560   -1.8600 C   0  0  0  0  0  0  0  0  0  0  0  0
    5.7620    1.3050   -0.5490 C   0  0  0  0  0  0  0  0  0  0  0  0
    6.9460    0.6710   -0.1580 C   0  0  0  0  0  0  0  0  0  0  0  0
    7.9400    0.3730   -1.0620 C   0  0  0  0  0  0  0  0  0  0  0  0
    9.1900   -0.3570   -0.6390 C   0  0  0  0  0  0  0  0  0  0  0  0
    8.7120   -1.7050   -0.2230 C   0  0  0  0  0  0  0  0  0  0  0  0
    8.5760   -2.1230    1.0260 N   0  0  0  0  0  0  0  0  0  0  0  0
    8.0480   -3.3920    1.0800 C   0  0  0  0  0  0  0  0  0  0  0  0
    7.8120   -3.9950    2.1380 N   0  0  0  0  0  0  0  0  0  0  0  0
    7.8830   -3.7030   -0.2180 N   0  0  0  0  0  0  0  0  0  0  0  0
    8.2750   -2.7050   -0.9870 N   0  0  0  0  0  0  0  0  0  0  0  0
    7.7290    0.7330   -2.4010 C   0  0  0  0  0  0  0  0  0  0  0  0
    6.5480    1.3580   -2.7400 C   0  0  0  0  0  0  0  0  0  0  0  0
   -0.5820    1.9750   -2.5770 N   0  0  0  0  0  0  0  0  0  0  0  0
   -1.7980    2.1450   -1.8770 C   0  0  0  0  0  0  0  0  0  0  0  0
   -2.8700    1.9650   -2.5340 O   0  0  0  0  0  0  0  0  0  0  0  0
   -5.4210   -0.5240    0.7690 C   0  0  0  0  0  0  0  0  0  0  0  0
   -6.5440   -0.8510    1.4880 C   0  0  0  0  0  0  0  0  0  0  0  0
   -7.1120    0.0370    2.3740 C   0  0  0  0  0  0  0  0  0  0  0  0
   -7.1210   -2.1980    1.2570 C   0  0  1  0  0  0  0  0  0  0  0  0
   -8.4320   -2.3960    1.9770 C   0  0  0  0  0  0  0  0  0  0  0  0
   -7.3510   -2.2850   -0.2510 C   0  0  0  0  0  0  0  0  0  0  0  0
   -6.1130   -1.9620   -1.0170 C   0  0  0  0  0  0  0  0  0  0  0  0
   -4.9260   -1.5790   -0.1470 C   0  0  0  0  0  0  0  0  0  0  0  0
  1  2  1  0
  2  3  2  0
  2 34  1  0
  3  4  1  0
  4  5  1  0
  4 32  2  0
  5  6  1  0
  7  6  1  1
  7  8  1  0
  7 30  1  0
  8  9  1  0
  9 10  2  0
  9 11  1  0
 11 12  1  1
 11 29  1  0
 12 13  1  0
 13 14  2  0
 13 15  1  0
 15 16  1  0
 16 17  2  0
 16 28  1  0
 17 18  1  0
 18 19  2  0
 19 20  1  0
 19 27  1  0
 20 21  1  0
 21 22  1  0
 21 26  2  0
 22 23  1  0
 23 24  2  0
 23 25  1  0
 25 26  1  0
 27 28  2  0
 29 30  1  0
 30 31  2  0
 32 33  1  0
 32 39  1  0
 33 34  2  0
 33 35  1  0
 35 36  1  1
 35 37  1  0
 37 38  1  0
 38 39  1  0
M  CHG  2  24   1  26   1
M  END
