
     RDKit          3D

 33 35  0  0  0  0  0  0  0  0999 V2000
   -6.9550    0.1310   -0.6340 C   0  0  0  0  0  0  0  0  0  0  0  0
   -7.1150    1.4950   -0.0840 C   0  0  0  0  0  0  0  0  0  0  0  0
   -5.9800    2.0640    0.6530 C   0  0  0  0  0  0  0  0  0  0  0  0
   -4.7430    2.3300   -0.0840 C   0  0  0  0  0  0  0  0  0  0  0  0
   -4.0900    1.1360   -0.6920 C   0  0  0  0  0  0  0  0  0  0  0  0
   -2.7550    1.5320   -1.3590 C   0  0  0  0  0  0  0  0  0  0  0  0
   -1.8270    2.1100   -0.3520 C   0  0  0  0  0  0  0  0  0  0  0  0
   -1.4350    1.2650    0.7260 N   0  0  0  0  0  0  0  0  0  0  0  0
   -0.9020    1.7380    1.9730 C   0  0  0  0  0  0  0  0  0  0  0  0
    0.4300    2.3620    1.9520 C   0  0  0  0  0  0  0  0  0  0  0  0
    1.5500    1.5190    1.4940 C   0  0  0  0  0  0  0  0  0  0  0  0
    2.2670    0.7100    2.3730 C   0  0  0  0  0  0  0  0  0  0  0  0
    3.3310   -0.0450    1.9680 C   0  0  0  0  0  0  0  0  0  0  0  0
    3.7760   -0.0610    0.6490 C   0  0  0  0  0  0  0  0  0  0  0  0
    4.8480   -0.8250    0.2700 O   0  0  0  0  0  0  0  0  0  0  0  0
    5.4880   -0.9900   -0.9250 C   0  0  1  0  0  0  0  0  0  0  0  0
    4.6460   -1.5040   -2.0700 C   0  0  0  0  0  0  0  0  0  0  0  0
    6.2520    0.2670   -1.2730 C   0  0  0  0  0  0  0  0  0  0  0  0
    7.2490    0.4910   -0.1380 C   0  0  0  0  0  0  0  0  0  0  0  0
    6.5420   -2.0510   -0.7140 C   0  0  0  0  0  0  0  0  0  0  0  0
    7.3200   -2.4130   -1.6350 O   0  0  0  0  0  0  0  0  0  0  0  0
    6.6760   -2.6550    0.5180 O   0  0  0  0  0  0  0  0  0  0  0  0
    3.0570    0.7500   -0.2360 C   0  0  0  0  0  0  0  0  0  0  0  0
    1.9830    1.5050    0.1950 C   0  0  0  0  0  0  0  0  0  0  0  0
   -1.4770   -0.1640    0.5380 C   0  0  0  0  0  0  0  0  0  0  0  0
   -1.6170   -0.8970   -0.5600 N   0  0  0  0  0  0  0  0  0  0  0  0
   -1.6020   -2.2020   -0.2670 C   0  0  0  0  0  0  0  0  0  0  0  0
   -1.7040   -3.3670   -1.0330 C   0  0  0  0  0  0  0  0  0  0  0  0
   -1.6500   -4.6000   -0.4430 C   0  0  0  0  0  0  0  0  0  0  0  0
   -1.4940   -4.6700    0.9180 C   0  0  0  0  0  0  0  0  0  0  0  0
   -1.3920   -3.5260    1.6730 C   0  0  0  0  0  0  0  0  0  0  0  0
   -1.4420   -2.2690    1.1030 C   0  0  0  0  0  0  0  0  0  0  0  0
   -1.3720   -1.0490    1.5380 O   0  0  0  0  0  0  0  0  0  0  0  0
  1  2  1  0
  2  3  1  0
  3  4  1  0
  4  5  1  0
  5  6  1  0
  6  7  1  0
  7  8  1  0
  8  9  1  0
  8 25  1  0
  9 10  1  0
 10 11  1  0
 11 12  2  0
 11 24  1  0
 12 13  1  0
 13 14  2  0
 14 15  1  0
 14 23  1  0
 15 16  1  0
 16 17  1  6
 16 18  1  0
 16 20  1  0
 18 19  1  0
 20 21  2  0
 20 22  1  0
 23 24  2  0
 25 26  2  0
 25 33  1  0
 26 27  1  0
 27 28  2  0
 27 32  1  0
 28 29  1  0
 29 30  2  0
 30 31  1  0
 31 32  2  0
 32 33  1  0
M  END
