
     RDKit          3D

 32 36  0  0  0  0  0  0  0  0999 V2000
   -0.5450   -2.0020   -3.2790 C   0  0  0  0  0  0  0  0  0  0  0  0
   -0.4340   -2.1180   -1.7390 C   0  0  0  0  0  0  0  0  0  0  0  0
   -0.0280   -0.9020   -1.1750 N   0  0  0  0  0  0  0  0  0  0  0  0
    0.1060   -0.6930    0.2020 C   0  0  2  0  0  0  0  0  0  0  0  0
    0.9620   -1.7930    0.7340 C   0  0  0  0  0  0  0  0  0  0  0  0
    0.3700   -2.8410    1.3660 C   0  0  0  0  0  0  0  0  0  0  0  0
    1.1720   -3.9050    1.8150 C   0  0  0  0  0  0  0  0  0  0  0  0
    2.5250   -3.9210    1.6350 C   0  0  0  0  0  0  0  0  0  0  0  0
    3.0900   -2.8430    0.9900 C   0  0  0  0  0  0  0  0  0  0  0  0
    2.3260   -1.8050    0.5530 C   0  0  0  0  0  0  0  0  0  0  0  0
    3.2440   -0.8530   -0.0790 C   0  0  0  0  0  0  0  0  0  0  0  0
    3.1850    0.4360   -0.0920 C   0  0  0  0  0  0  0  0  0  0  0  0
    4.2100    1.2120   -0.8000 C   0  0  0  0  0  0  0  0  0  0  0  0
    4.1550    2.5470   -0.8080 C   0  0  0  0  0  0  0  0  0  0  0  0
    3.1600    3.4460   -0.1730 C   0  0  0  0  0  0  0  0  0  0  0  0
    4.0500    4.6550    0.1220 C   0  0  0  0  0  0  0  0  0  0  0  0
    4.8120    4.7490   -1.0570 O   0  0  0  0  0  0  0  0  0  0  0  0
    5.0900    3.4280   -1.4730 C   0  0  0  0  0  0  0  0  0  0  0  0
    6.0060    3.1580   -2.2820 O   0  0  0  0  0  0  0  0  0  0  0  0
    4.3350   -1.7290   -0.6420 C   0  0  0  0  0  0  0  0  0  0  0  0
    4.5260   -2.6200    0.6190 C   0  0  0  0  0  0  0  0  0  0  0  0
   -1.0570   -3.0050    1.6220 C   0  0  0  0  0  0  0  0  0  0  0  0
   -1.9020   -1.8540    1.1730 C   0  0  0  0  0  0  0  0  0  0  0  0
   -1.1510   -0.6490    0.9750 C   0  0  2  0  0  0  0  0  0  0  0  0
   -1.9570    0.5380    0.5940 N   0  0  1  0  0  0  0  0  0  0  0  0
   -2.5270    0.4080   -0.6810 C   0  0  0  0  0  0  0  0  0  0  0  0
   -3.8150    1.1220   -0.9350 C   0  0  0  0  0  0  0  0  0  0  0  0
   -4.6890    1.3920    0.2240 C   0  0  2  0  0  0  0  0  0  0  0  0
   -4.9060    2.8130    0.4500 N   0  0  0  0  0  0  0  0  0  0  0  0
   -5.5960    3.4470   -0.6560 C   0  0  0  0  0  0  0  0  0  0  0  0
   -4.2650    0.6520    1.4310 C   0  0  0  0  0  0  0  0  0  0  0  0
   -2.8100    0.8430    1.6830 C   0  0  0  0  0  0  0  0  0  0  0  0
  1  2  1  0
  2  3  1  0
  4  3  1  6
  4  5  1  0
  4 24  1  0
  5  6  2  0
  5 10  1  0
  6  7  1  0
  6 22  1  0
  7  8  2  0
  8  9  1  0
  9 10  2  0
  9 21  1  0
 10 11  1  0
 11 12  2  3
 11 20  1  0
 12 13  1  0
 13 14  2  3
 14 15  1  0
 14 18  1  0
 15 16  1  0
 16 17  1  0
 17 18  1  0
 18 19  2  0
 20 21  1  0
 22 23  1  0
 24 23  1  6
 24 25  1  0
 25 26  1  6
 25 32  1  0
 26 27  1  0
 27 28  1  0
 28 29  1  1
 28 31  1  0
 29 30  1  0
 31 32  1  0
M  CHG  1  25   1
M  END
