
     RDKit          3D

 32 36  0  0  0  0  0  0  0  0999 V2000
   -1.8110   -4.7090    1.2030 O   0  0  0  0  0  0  0  0  0  0  0  0
   -2.7850   -3.9030    1.2960 C   0  0  0  0  0  0  0  0  0  0  0  0
   -4.1170   -4.3430    0.7930 C   0  0  0  0  0  0  0  0  0  0  0  0
   -4.7000   -3.1400    0.0560 C   0  0  0  0  0  0  0  0  0  0  0  0
   -4.8480   -1.9990    1.0320 C   0  0  0  0  0  0  0  0  0  0  0  0
   -3.5930   -1.6060    1.7070 C   0  0  2  0  0  0  0  0  0  0  0  0
   -2.8190   -0.4680    1.0220 C   0  0  0  0  0  0  0  0  0  0  0  0
   -3.2310   -0.0980   -0.0890 N   0  0  0  0  0  0  0  0  0  0  0  0
   -2.7470    0.9260   -0.9450 C   0  0  0  0  0  0  0  0  0  0  0  0
   -2.7570    0.7630   -2.3380 C   0  0  0  0  0  0  0  0  0  0  0  0
   -2.3270    1.7690   -3.1740 C   0  0  0  0  0  0  0  0  0  0  0  0
   -1.8810    2.9480   -2.6510 C   0  0  0  0  0  0  0  0  0  0  0  0
   -1.8590    3.1410   -1.2660 C   0  0  0  0  0  0  0  0  0  0  0  0
   -2.2950    2.1190   -0.4510 C   0  0  0  0  0  0  0  0  0  0  0  0
   -1.5840   -0.1820    1.7040 C   0  0  0  0  0  0  0  0  0  0  0  0
   -1.7000    0.0190    3.1020 C   0  0  0  0  0  0  0  0  0  0  0  0
   -0.6870    0.5670    3.8560 C   0  0  0  0  0  0  0  0  0  0  0  0
    0.4840    0.9430    3.2780 C   0  0  0  0  0  0  0  0  0  0  0  0
    0.6280    0.7570    1.9250 C   0  0  0  0  0  0  0  0  0  0  0  0
   -0.4060    0.1940    1.1660 C   0  0  0  0  0  0  0  0  0  0  0  0
    0.0070   -0.2860   -0.2060 C   0  0  0  0  0  0  0  0  0  0  0  0
    1.1710    0.3190   -0.6310 N   0  0  0  0  0  0  0  0  0  0  0  0
    1.2660    1.6780   -0.9210 C   0  0  0  0  0  0  0  0  0  0  0  0
    2.7480    1.9940   -0.9330 C   0  0  0  0  0  0  0  0  0  0  0  0
    3.4970    0.6980   -0.7290 C   0  0  1  0  0  0  0  0  0  0  0  0
    4.2520    0.3950   -1.9790 C   0  0  0  0  0  0  0  0  0  0  0  0
    5.6580   -0.0600   -1.8170 C   0  0  0  0  0  0  0  0  0  0  0  0
    6.2770    0.8370   -0.7340 C   0  0  0  0  0  0  0  0  0  0  0  0
    5.6510    0.3990    0.4870 N   0  0  0  0  0  0  0  0  0  0  0  0
    4.3010    0.8260    0.5090 C   0  0  0  0  0  0  0  0  0  0  0  0
    2.4080   -0.3340   -0.5690 C   0  0  0  0  0  0  0  0  0  0  0  0
   -2.6630   -2.6550    1.8370 O   0  0  0  0  0  0  0  0  0  0  0  0
  1  2  2  0
  2  3  1  0
  2 32  1  0
  3  4  1  0
  4  5  1  0
  5  6  1  0
  6  7  1  6
  6 32  1  0
  7  8  2  3
  7 15  1  0
  8  9  1  0
  9 10  2  0
  9 14  1  0
 10 11  1  0
 11 12  2  0
 12 13  1  0
 13 14  2  0
 15 16  2  0
 15 20  1  0
 16 17  1  0
 17 18  2  0
 18 19  1  0
 19 20  2  0
 20 21  1  0
 21 22  1  0
 22 23  1  0
 22 31  1  0
 23 24  1  0
 25 24  1  6
 25 26  1  0
 25 30  1  0
 25 31  1  0
 26 27  1  0
 27 28  1  0
 28 29  1  0
 29 30  1  0
M  CHG  1   8   1
M  END
