
     RDKit          3D

 27 28  0  0  0  0  0  0  0  0999 V2000
    8.1600    1.8410    1.0070 C   0  0  0  0  0  0  0  0  0  0  0  0
    6.8740    1.3250    0.4830 C   0  0  0  0  0  0  0  0  0  0  0  0
    5.8730    2.0080    0.4760 O   0  0  0  0  0  0  0  0  0  0  0  0
    6.7990   -0.0550   -0.0460 C   0  0  0  0  0  0  0  0  0  0  0  0
    5.5050   -0.3760   -0.5000 O   0  0  0  0  0  0  0  0  0  0  0  0
    4.3730   -0.3680    0.2860 C   0  0  0  0  0  0  0  0  0  0  0  0
    4.5080   -0.0490    1.5000 O   0  0  0  0  0  0  0  0  0  0  0  0
    3.0680   -0.7150   -0.2610 C   0  0  0  0  0  0  0  0  0  0  0  0
    2.9680   -1.0250   -1.4650 O   0  0  0  0  0  0  0  0  0  0  0  0
    1.9340   -0.6900    0.5950 N   0  0  0  0  0  0  0  0  0  0  0  0
    0.6450   -1.0160    0.1190 C   0  0  0  0  0  0  0  0  0  0  0  0
    0.1830   -2.3220    0.1590 C   0  0  0  0  0  0  0  0  0  0  0  0
    1.0700   -3.3580    0.7100 C   0  0  0  0  0  0  0  0  0  0  0  0
   -1.0490   -2.5660   -0.3070 N   0  0  0  0  0  0  0  0  0  0  0  0
   -1.8620   -1.6200   -0.8120 C   0  0  0  0  0  0  0  0  0  0  0  0
   -3.1630   -1.9190   -1.2970 N   0  0  0  0  0  0  0  0  0  0  0  0
   -4.1400   -0.6490   -1.9260 S   0  0  2  0  0  0  0  0  0  0  0  0
   -5.4660   -1.2450   -2.3370 O   0  0  0  0  0  0  0  0  0  0  0  0
   -3.5170   -0.0370   -3.1230 O   0  0  0  0  0  0  0  0  0  0  0  0
   -4.4170    0.5130   -0.6260 C   0  0  1  0  0  0  0  0  0  0  0  0
   -5.2660    1.6900   -1.0860 C   0  0  0  0  0  0  0  0  0  0  0  0
   -5.5440    2.3440    0.2760 C   0  0  0  0  0  0  0  0  0  0  0  0
   -5.7240    1.1740    1.2200 C   0  0  0  0  0  0  0  0  0  0  0  0
   -5.2880   -0.0610    0.4700 C   0  0  0  0  0  0  0  0  0  0  0  0
   -1.3860   -0.3610   -0.8380 N   0  0  0  0  0  0  0  0  0  0  0  0
   -0.1640   -0.0180   -0.3930 C   0  0  0  0  0  0  0  0  0  0  0  0
    0.3930    1.6580   -0.4590 Cl  0  0  0  0  0  0  0  0  0  0  0  0
  1  2  1  0
  2  3  2  0
  2  4  1  0
  4  5  1  0
  5  6  1  0
  6  7  2  0
  6  8  1  0
  8  9  2  0
  8 10  1  0
 10 11  1  0
 11 12  2  0
 11 26  1  0
 12 13  1  0
 12 14  1  0
 14 15  2  0
 15 16  1  0
 15 25  1  0
 17 16  1  1
 17 18  2  0
 17 19  2  0
 17 20  1  0
 20 21  1  6
 20 24  1  0
 21 22  1  0
 22 23  1  0
 23 24  1  0
 25 26  2  0
 26 27  1  0
M  END
