
     RDKit          3D

 27 28  0  0  0  0  0  0  0  0999 V2000
   -7.9660    0.5100    1.3790 C   0  0  0  0  0  0  0  0  0  0  0  0
   -7.0170    0.7120    0.3630 O   0  0  0  0  0  0  0  0  0  0  0  0
   -5.7810    0.0810    0.3270 C   0  0  0  0  0  0  0  0  0  0  0  0
   -5.4920   -0.7180    1.2580 O   0  0  0  0  0  0  0  0  0  0  0  0
   -4.8840    0.3860   -0.7960 C   0  0  2  0  0  0  0  0  0  0  0  0
   -5.6490    0.1820   -2.0810 C   0  0  0  0  0  0  0  0  0  0  0  0
   -3.6680   -0.2880   -0.7550 O   0  0  0  0  0  0  0  0  0  0  0  0
   -2.4220    0.3040   -0.6720 C   0  0  0  0  0  0  0  0  0  0  0  0
   -2.4210    1.5800   -0.6310 O   0  0  0  0  0  0  0  0  0  0  0  0
   -1.1790   -0.4300   -0.6320 C   0  0  0  0  0  0  0  0  0  0  0  0
    0.0780    0.1190   -0.5490 C   0  0  0  0  0  0  0  0  0  0  0  0
    1.0190   -0.8940   -0.5330 C   0  0  0  0  0  0  0  0  0  0  0  0
    2.4170   -0.8250   -0.4590 N   0  0  0  0  0  0  0  0  0  0  0  0
    3.1510    0.3710   -0.3830 C   0  0  0  0  0  0  0  0  0  0  0  0
    2.5780    1.4690   -0.3770 O   0  0  0  0  0  0  0  0  0  0  0  0
    4.5720    0.3630   -0.3100 N   0  0  0  0  0  0  0  0  0  0  0  0
    5.2910    1.6430   -0.2320 C   0  0  0  0  0  0  0  0  0  0  0  0
    6.7490    1.4250   -0.1640 C   0  0  0  0  0  0  0  0  0  0  0  0
    7.6310    1.2430    0.8590 C   0  0  0  0  0  0  0  0  0  0  0  0
    8.9170    1.0670    0.6340 C   0  0  0  0  0  0  0  0  0  0  0  0
    9.3780    1.0690   -0.6800 C   0  0  0  0  0  0  0  0  0  0  0  0
   10.9690    0.8700   -1.3310 Cl  0  0  0  0  0  0  0  0  0  0  0  0
    7.8500    1.3420   -1.6350 S   0  0  0  0  0  0  0  0  0  0  0  0
    0.2920   -2.0340   -0.6070 N   0  0  0  0  0  0  0  0  0  0  0  0
   -1.0120   -1.7500   -0.6650 N   0  0  0  0  0  0  0  0  0  0  0  0
   -2.0370   -2.6720   -0.7480 O   0  0  0  0  0  0  0  0  0  0  0  0
   -2.4270   -3.4360    0.3750 C   0  0  0  0  0  0  0  0  0  0  0  0
  1  2  1  0
  2  3  1  0
  3  4  2  0
  3  5  1  0
  5  6  1  6
  5  7  1  0
  7  8  1  0
  8  9  2  0
  8 10  1  0
 10 11  2  0
 10 25  1  0
 11 12  1  0
 12 13  1  0
 12 24  2  0
 13 14  1  0
 14 15  2  0
 14 16  1  0
 16 17  1  0
 17 18  1  0
 18 19  2  0
 18 23  1  0
 19 20  1  0
 20 21  2  0
 21 22  1  0
 21 23  1  0
 24 25  1  0
 25 26  1  0
 26 27  1  0
M  END
