
     RDKit          3D

 14 14  0  0  0  0  0  0  0  0999 V2000
    4.3550    0.6910    0.6290 C   0  0  0  0  0  0  0  0  0  0  0  0
    3.2740   -0.3150    0.4940 C   0  0  0  0  0  0  0  0  0  0  0  0
    3.4620   -1.5060    0.8610 O   0  0  0  0  0  0  0  0  0  0  0  0
    2.0040    0.1290   -0.0720 C   0  0  0  0  0  0  0  0  0  0  0  0
    1.6950    1.3590   -0.4920 N   0  0  0  0  0  0  0  0  0  0  0  0
    0.4280    1.3190   -0.9360 C   0  0  0  0  0  0  0  0  0  0  0  0
   -0.1470    2.3390   -1.3980 O   0  0  0  0  0  0  0  0  0  0  0  0
   -0.0970    0.0900   -0.8150 N   0  0  0  0  0  0  0  0  0  0  0  0
   -1.4490   -0.3350   -1.1910 C   0  0  0  0  0  0  0  0  0  0  0  0
   -2.3780   -0.1580   -0.0150 C   0  0  1  0  0  0  0  0  0  0  0  0
   -2.4480    1.2790    0.4410 C   0  0  0  0  0  0  0  0  0  0  0  0
   -3.7650   -0.6410   -0.2890 C   0  0  0  0  0  0  0  0  0  0  0  0
    0.8720   -0.6680   -0.2770 C   0  0  0  0  0  0  0  0  0  0  0  0
    0.7500   -2.1140    0.0430 C   0  0  0  0  0  0  0  0  0  0  0  0
  1  2  1  0
  2  3  2  0
  2  4  1  0
  4  5  1  0
  4 13  2  0
  5  6  1  0
  6  7  2  0
  6  8  1  0
  8  9  1  0
  8 13  1  0
  9 10  1  0
 10 11  1  6
 10 12  1  0
 13 14  1  0
M  END
