
     RDKit          3D

 27 28  0  0  0  0  0  0  0  0999 V2000
   -4.8710    0.1690    3.7110 C   0  0  0  0  0  0  0  0  0  0  0  0
   -5.2140    0.1900    2.3730 O   0  0  0  0  0  0  0  0  0  0  0  0
   -4.4930    0.0680    1.2280 C   0  0  0  0  0  0  0  0  0  0  0  0
   -3.1310   -0.1000    1.1630 C   0  0  0  0  0  0  0  0  0  0  0  0
   -2.4650   -0.2250   -0.0480 C   0  0  0  0  0  0  0  0  0  0  0  0
   -1.0330   -0.3780   -0.0130 C   0  0  0  0  0  0  0  0  0  0  0  0
   -0.3630    0.0080    1.0140 O   0  0  0  0  0  0  0  0  0  0  0  0
   -0.2580   -0.9680   -1.0970 N   0  0  0  0  0  0  0  0  0  0  0  0
    1.1750   -0.9700   -0.7910 C   0  0  0  0  0  0  0  0  0  0  0  0
    1.8500    0.1830   -1.2090 C   0  0  0  0  0  0  0  0  0  0  0  0
    1.3540    1.0300   -2.0370 O   0  0  0  0  0  0  0  0  0  0  0  0
    0.8560    1.8830   -2.8860 C   0  0  0  0  0  0  0  0  0  0  0  0
    3.0560    0.3050   -0.6470 O   0  0  0  0  0  0  0  0  0  0  0  0
    3.5650   -0.5290    0.1910 C   0  0  0  0  0  0  0  0  0  0  0  0
    4.7500   -0.3080    0.7200 N   0  0  0  0  0  0  0  0  0  0  0  0
    5.5200    0.8410    0.4120 C   0  0  0  0  0  0  0  0  0  0  0  0
    7.2360    0.5700   -0.0200 S   0  0  0  0  0  0  0  0  0  0  0  0
    8.1400    0.2760    1.5240 C   0  0  0  0  0  0  0  0  0  0  0  0
    2.8920   -1.6270    0.5550 N   0  0  0  0  0  0  0  0  0  0  0  0
    1.6440   -1.8930    0.0620 C   0  0  0  0  0  0  0  0  0  0  0  0
    0.9950   -2.9350    0.3930 O   0  0  0  0  0  0  0  0  0  0  0  0
   -3.2290   -0.1680   -1.1810 C   0  0  0  0  0  0  0  0  0  0  0  0
   -2.6940   -0.2660   -2.3260 O   0  0  0  0  0  0  0  0  0  0  0  0
   -4.5470    0.0030   -1.1660 N   0  0  0  0  0  0  0  0  0  0  0  0
   -5.3190    0.0990   -2.3680 C   0  0  0  0  0  0  0  0  0  0  0  0
   -5.1640    0.1170    0.0210 C   0  0  0  0  0  0  0  0  0  0  0  0
   -6.9200    0.3440    0.0810 Cl  0  0  0  0  0  0  0  0  0  0  0  0
  1  2  1  0
  2  3  1  0
  3  4  1  0
  3 26  2  0
  4  5  2  0
  5  6  1  0
  5 22  1  0
  6  7  2  0
  6  8  1  0
  8  9  1  0
  9 10  2  0
  9 20  1  0
 10 11  1  0
 10 13  1  0
 11 12  1  0
 13 14  1  0
 14 15  2  3
 14 19  1  0
 15 16  1  0
 16 17  1  0
 17 18  1  0
 19 20  1  0
 20 21  2  0
 22 23  2  0
 22 24  1  0
 24 25  1  0
 24 26  1  0
 26 27  1  0
M  END
