
     RDKit          3D

 27 28  0  0  0  0  0  0  0  0999 V2000
   -0.6400   -4.3580    1.1540 C   0  0  0  0  0  0  0  0  0  0  0  0
   -0.7800   -3.4070    0.1400 O   0  0  0  0  0  0  0  0  0  0  0  0
    0.0890   -2.3500    0.3890 C   0  0  0  0  0  0  0  0  0  0  0  0
   -0.1260   -1.1270   -0.9610 S   0  0  0  0  0  0  0  0  0  0  0  0
    1.0200    0.2110   -0.6730 C   0  0  0  0  0  0  0  0  0  0  0  0
    2.3020    0.0890   -1.2100 C   0  0  0  0  0  0  0  0  0  0  0  0
    3.2210    1.0860   -1.0150 C   0  0  0  0  0  0  0  0  0  0  0  0
    4.5210    1.0170   -1.5300 O   0  0  0  0  0  0  0  0  0  0  0  0
    5.5620    0.4640   -0.8390 C   0  0  0  0  0  0  0  0  0  0  0  0
    5.3570   -0.0040    0.3070 O   0  0  0  0  0  0  0  0  0  0  0  0
    6.9290    0.3840   -1.3660 C   0  0  0  0  0  0  0  0  0  0  0  0
    7.1610    0.8460   -2.5120 O   0  0  0  0  0  0  0  0  0  0  0  0
    7.9630   -0.1730   -0.6610 O   0  0  0  0  0  0  0  0  0  0  0  0
    2.8350    2.1850   -0.2860 C   0  0  0  0  0  0  0  0  0  0  0  0
    1.5630    2.2950    0.2400 C   0  0  0  0  0  0  0  0  0  0  0  0
    0.6170    1.3030    0.0580 C   0  0  0  0  0  0  0  0  0  0  0  0
   -0.6850    1.4640    0.6040 N   0  0  0  0  0  0  0  0  0  0  0  0
   -1.7030    0.5000    0.3860 N   0  0  0  0  0  0  0  0  0  0  0  0
   -2.9650    0.8210    0.4030 C   0  0  0  0  0  0  0  0  0  0  0  0
   -4.0760   -0.1240    0.1840 C   0  0  2  0  0  0  0  0  0  0  0  0
   -3.6090   -1.5250   -0.0580 C   0  0  0  0  0  0  0  0  0  0  0  0
   -4.9490    0.3010   -0.9910 C   0  0  0  0  0  0  0  0  0  0  0  0
   -5.1190   -0.0560    1.6310 Cl  0  0  0  0  0  0  0  0  0  0  0  0
   -3.3240    2.2210    0.6730 C   0  0  0  0  0  0  0  0  0  0  0  0
   -4.5170    2.5960    0.7020 O   0  0  0  0  0  0  0  0  0  0  0  0
   -2.2200    3.1200    0.8990 N   0  0  0  0  0  0  0  0  0  0  0  0
   -1.0690    2.5380    1.3670 N   0  0  0  0  0  0  0  0  0  0  0  0
  1  2  1  0
  2  3  1  0
  3  4  1  0
  4  5  1  0
  5  6  2  0
  5 16  1  0
  6  7  1  0
  7  8  1  0
  7 14  2  0
  8  9  1  0
  9 10  2  0
  9 11  1  0
 11 12  2  0
 11 13  1  0
 14 15  1  0
 15 16  2  0
 16 17  1  0
 17 18  1  0
 17 27  1  0
 18 19  2  0
 19 20  1  0
 19 24  1  0
 20 21  1  6
 20 22  1  0
 20 23  1  0
 24 25  2  0
 24 26  1  0
 26 27  1  0
M  END
