
     RDKit          3D

 27 28  0  0  0  0  0  0  0  0999 V2000
    5.6670    0.4230    1.2100 C   0  0  0  0  0  0  0  0  0  0  0  0
    5.2090    0.2200   -0.1430 N   0  0  0  0  0  0  0  0  0  0  0  0
    6.0510   -0.3040   -1.0450 C   0  0  0  0  0  0  0  0  0  0  0  0
    7.2590   -0.5460   -0.6870 O   0  0  0  0  0  0  0  0  0  0  0  0
    5.6100   -0.5530   -2.2800 N   0  0  0  0  0  0  0  0  0  0  0  0
    4.3160   -0.2660   -2.5810 C   0  0  0  0  0  0  0  0  0  0  0  0
    3.9660   -0.5310   -3.7790 O   0  0  0  0  0  0  0  0  0  0  0  0
    3.4820    0.2500   -1.6960 N   0  0  0  0  0  0  0  0  0  0  0  0
    2.0600    0.3920   -2.0500 C   0  0  0  0  0  0  0  0  0  0  0  0
    1.2350    0.3150   -0.8440 C   0  0  0  0  0  0  0  0  0  0  0  0
    0.5700    1.4010   -0.5890 O   0  0  0  0  0  0  0  0  0  0  0  0
    1.0850   -0.7390    0.0790 N   0  0  0  0  0  0  0  0  0  0  0  0
    0.3020   -0.5410    1.2290 C   0  0  0  0  0  0  0  0  0  0  0  0
   -1.1040   -0.4620    1.4290 C   0  0  0  0  0  0  0  0  0  0  0  0
   -1.7010   -1.4550    2.0290 O   0  0  0  0  0  0  0  0  0  0  0  0
   -1.9960    0.5780    1.0930 O   0  0  0  0  0  0  0  0  0  0  0  0
   -3.2840    0.7330    1.2950 C   0  0  0  0  0  0  0  0  0  0  0  0
   -4.6010    0.3600    0.8740 C   0  0  0  0  0  0  0  0  0  0  0  0
   -5.4350    1.3740    0.4820 C   0  0  0  0  0  0  0  0  0  0  0  0
   -6.7880    1.2350    0.0710 C   0  0  0  0  0  0  0  0  0  0  0  0
   -7.5080    0.1560    0.0100 C   0  0  0  0  0  0  0  0  0  0  0  0
   -6.7870   -1.3880    0.4980 S   0  0  0  0  0  0  0  0  0  0  0  0
   -5.0260   -0.9960    0.6370 C   0  0  0  0  0  0  0  0  0  0  0  0
   -4.2380   -1.9890    0.4130 C   0  0  0  0  0  0  0  0  0  0  0  0
   -4.9390   -3.6140    0.1580 Cl  0  0  0  0  0  0  0  0  0  0  0  0
    3.9250    0.4950   -0.4720 C   0  0  0  0  0  0  0  0  0  0  0  0
    3.1260    0.9890    0.3730 O   0  0  0  0  0  0  0  0  0  0  0  0
  1  2  1  0
  2  3  1  0
  2 26  1  0
  3  4  2  0
  3  5  1  0
  5  6  1  0
  6  7  2  0
  6  8  1  0
  8  9  1  0
  8 26  1  0
  9 10  1  0
 10 11  2  0
 10 12  1  0
 12 13  1  0
 13 14  1  0
 14 15  2  0
 14 16  1  0
 16 17  1  0
 17 18  1  0
 18 19  2  0
 18 23  1  0
 19 20  1  0
 20 21  2  0
 21 22  1  0
 22 23  1  0
 23 24  2  3
 24 25  1  0
 26 27  2  0
M  END
