
     RDKit          3D

 14 14  0  0  0  0  0  0  0  0999 V2000
   -3.8740    1.1930   -0.0490 C   0  0  0  0  0  0  0  0  0  0  0  0
   -3.1420    0.1620    0.7680 C   0  0  0  0  0  0  0  0  0  0  0  0
   -1.8250   -0.2070    0.2200 C   0  0  0  0  0  0  0  0  0  0  0  0
   -1.7480   -0.8030   -1.1320 C   0  0  0  0  0  0  0  0  0  0  0  0
   -0.7290    0.0020    0.9020 C   0  0  0  0  0  0  0  0  0  0  0  0
    0.6080   -0.3370    0.4330 C   0  0  0  0  0  0  0  0  0  0  0  0
    1.6210    0.6060    0.5320 C   0  0  0  0  0  0  0  0  0  0  0  0
    2.8770    0.3440    0.1220 N   0  0  0  0  0  0  0  0  0  0  0  0
    3.9370    1.3460    0.2160 C   0  0  0  0  0  0  0  0  0  0  0  0
    3.2090   -0.8510   -0.4050 C   0  0  0  0  0  0  0  0  0  0  0  0
    4.3840   -1.0740   -0.7800 O   0  0  0  0  0  0  0  0  0  0  0  0
    2.2090   -1.7910   -0.5050 C   0  0  0  0  0  0  0  0  0  0  0  0
    2.4800   -2.9190   -0.9910 O   0  0  0  0  0  0  0  0  0  0  0  0
    0.9450   -1.5310   -0.0940 N   0  0  0  0  0  0  0  0  0  0  0  0
  1  2  1  0
  2  3  1  0
  3  4  1  0
  3  5  2  3
  5  6  1  0
  6  7  2  0
  6 14  1  0
  7  8  1  0
  8  9  1  0
  8 10  1  0
 10 11  2  0
 10 12  1  0
 12 13  2  0
 12 14  1  0
M  END
