
     RDKit          3D

 14 14  0  0  0  0  0  0  0  0999 V2000
   -4.0260    1.6510   -0.7250 C   0  0  0  0  0  0  0  0  0  0  0  0
   -2.6320    1.2910   -0.4430 C   0  0  0  0  0  0  0  0  0  0  0  0
   -2.2880    0.6140    0.6300 C   0  0  0  0  0  0  0  0  0  0  0  0
   -3.1970    0.1560    1.6240 N   0  0  0  0  0  0  0  0  0  0  0  0
   -2.5650   -0.4830    2.5650 C   0  0  0  0  0  0  0  0  0  0  0  0
   -1.1530   -0.4700    2.2080 C   0  0  0  0  0  0  0  0  0  0  0  0
   -0.9810    0.1720    1.0740 C   0  0  0  0  0  0  0  0  0  0  0  0
    0.2620    0.3850    0.4190 N   0  0  0  0  0  0  0  0  0  0  0  0
    0.4760   -0.1140   -0.8840 C   0  0  0  0  0  0  0  0  0  0  0  0
   -0.4540   -0.7520   -1.4890 O   0  0  0  0  0  0  0  0  0  0  0  0
    1.7310    0.0570   -1.6220 C   0  0  0  0  0  0  0  0  0  0  0  0
    2.8180    0.4900   -0.9270 O   0  0  0  0  0  0  0  0  0  0  0  0
    3.3300   -0.3600    0.0110 C   0  0  0  0  0  0  0  0  0  0  0  0
    3.8150   -1.6720   -0.6120 C   0  0  0  0  0  0  0  0  0  0  0  0
  1  2  1  0
  2  3  2  3
  3  4  1  0
  3  7  1  0
  4  5  2  0
  5  6  1  0
  6  7  2  0
  7  8  1  0
  8  9  1  0
  9 10  2  0
  9 11  1  0
 11 12  1  0
 12 13  1  0
 13 14  1  0
M  END
