
     RDKit          3D

 14 14  0  0  0  0  0  0  0  0999 V2000
    4.1520    0.3030    0.3610 C   0  0  0  0  0  0  0  0  0  0  0  0
    3.4770   -0.3220   -0.8150 C   0  0  0  0  0  0  0  0  0  0  0  0
    2.1860   -0.9320   -0.4130 C   0  0  0  0  0  0  0  0  0  0  0  0
    2.1090   -2.1580   -0.1590 O   0  0  0  0  0  0  0  0  0  0  0  0
    0.9860   -0.1050   -0.3070 C   0  0  0  0  0  0  0  0  0  0  0  0
   -0.1690   -0.6110    0.0440 C   0  0  0  0  0  0  0  0  0  0  0  0
   -1.4010    0.1610    0.1680 C   0  0  0  0  0  0  0  0  0  0  0  0
   -1.4800    1.4810   -0.0650 N   0  0  0  0  0  0  0  0  0  0  0  0
   -2.6020    2.1930    0.0480 C   0  0  0  0  0  0  0  0  0  0  0  0
   -2.7000    3.4260   -0.1650 O   0  0  0  0  0  0  0  0  0  0  0  0
   -3.7580    1.5370    0.4300 C   0  0  0  0  0  0  0  0  0  0  0  0
   -3.7290    0.2140    0.6760 N   0  0  0  0  0  0  0  0  0  0  0  0
   -2.5710   -0.4730    0.5490 C   0  0  0  0  0  0  0  0  0  0  0  0
   -2.5680   -1.9310    0.8300 C   0  0  0  0  0  0  0  0  0  0  0  0
  1  2  1  0
  2  3  1  0
  3  4  2  0
  3  5  1  0
  5  6  2  3
  6  7  1  0
  7  8  1  0
  7 13  2  0
  8  9  1  0
  9 10  2  0
  9 11  1  0
 11 12  2  0
 12 13  1  0
 13 14  1  0
M  END
