
     RDKit          3D

 30 33  0  0  0  0  0  0  0  0999 V2000
   -5.6710    2.2250   -1.3310 C   0  0  0  0  0  0  0  0  0  0  0  0
   -5.1560    1.9360    0.0050 N   0  0  0  0  0  0  0  0  0  0  0  0
   -5.5130    2.7640    1.0940 C   0  0  0  0  0  0  0  0  0  0  0  0
   -4.3570    0.7500    0.1860 C   0  0  0  0  0  0  0  0  0  0  0  0
   -4.2770    0.0710    1.3520 C   0  0  0  0  0  0  0  0  0  0  0  0
   -3.6120   -1.1580    1.4340 C   0  0  0  0  0  0  0  0  0  0  0  0
   -2.9920   -1.7160    0.2180 C   0  0  0  0  0  0  0  0  0  0  0  0
   -2.4760   -3.0480    0.5320 C   0  0  0  0  0  0  0  0  0  0  0  0
   -3.3720   -4.0740    0.5890 C   0  0  0  0  0  0  0  0  0  0  0  0
   -4.6590   -3.8210    0.0340 N   0  0  0  0  0  0  0  0  0  0  0  0
   -3.0120   -5.2800    1.0320 N   0  0  0  0  0  0  0  0  0  0  0  0
   -1.7240   -5.4670    1.4130 C   0  0  0  0  0  0  0  0  0  0  0  0
   -0.8210   -4.4900    1.3630 N   0  0  0  0  0  0  0  0  0  0  0  0
   -1.1480   -3.1980    0.9100 C   0  0  0  0  0  0  0  0  0  0  0  0
   -0.2400   -2.4180    0.5100 C   0  0  0  0  0  0  0  0  0  0  0  0
    0.8490   -1.4950    0.0520 C   0  0  0  0  0  0  0  0  0  0  0  0
    1.7770   -0.7090   -0.3380 C   0  0  0  0  0  0  0  0  0  0  0  0
    3.1290   -1.1550   -0.0100 C   0  0  0  0  0  0  0  0  0  0  0  0
    4.1840   -0.3870   -0.2210 C   0  0  0  0  0  0  0  0  0  0  0  0
    4.0640    0.8190   -0.7390 C   0  0  0  0  0  0  0  0  0  0  0  0
    5.2290    1.6480   -0.9320 N   0  0  0  0  0  0  0  0  0  0  0  0
    6.4640    1.1140   -1.4360 C   0  0  0  0  0  0  0  0  0  0  0  0
    7.4520    1.3370   -0.2380 C   0  0  0  0  0  0  0  0  0  0  0  0
    7.5410    2.6750   -0.0240 O   0  0  0  0  0  0  0  0  0  0  0  0
    6.3940    3.2550    0.4330 C   0  0  0  0  0  0  0  0  0  0  0  0
    5.1770    3.0330   -0.5040 C   0  0  0  0  0  0  0  0  0  0  0  0
    2.8090    1.3700   -1.1250 N   0  0  0  0  0  0  0  0  0  0  0  0
    1.7310    0.5380   -0.8830 C   0  0  0  0  0  0  0  0  0  0  0  0
   -3.0840   -1.0180   -0.9040 C   0  0  0  0  0  0  0  0  0  0  0  0
   -3.7450    0.1880   -0.9320 C   0  0  0  0  0  0  0  0  0  0  0  0
  1  2  1  0
  2  3  1  0
  2  4  1  0
  4  5  2  0
  4 30  1  0
  5  6  1  0
  6  7  2  0
  7  8  1  0
  7 29  1  0
  8  9  2  0
  8 14  1  0
  9 10  1  0
  9 11  1  0
 11 12  2  0
 12 13  1  0
 13 14  2  0
 14 15  1  0
 15 16  3  0
 16 17  1  0
 17 18  2  0
 17 28  1  0
 18 19  1  0
 19 20  2  0
 20 21  1  0
 20 27  1  0
 21 22  1  0
 21 26  1  0
 22 23  1  0
 23 24  1  0
 24 25  1  0
 25 26  1  0
 27 28  2  0
 29 30  2  0
M  END
