
     RDKit          3D

 31 33  0  0  0  0  0  0  0  0999 V2000
   -4.9850    4.4330    0.1490 C   0  0  0  0  0  0  0  0  0  0  0  0
   -4.5820    3.0150    0.3200 C   0  0  0  0  0  0  0  0  0  0  0  0
   -5.4710    2.0290   -0.0350 C   0  0  0  0  0  0  0  0  0  0  0  0
   -5.0870    0.7220    0.1280 C   0  0  0  0  0  0  0  0  0  0  0  0
   -3.8450    0.3380    0.6340 C   0  0  0  0  0  0  0  0  0  0  0  0
   -3.5690   -1.0680    0.7380 C   0  0  0  0  0  0  0  0  0  0  0  0
   -2.5970   -1.7790    1.1860 C   0  0  0  0  0  0  0  0  0  0  0  0
   -1.3150   -1.5540    1.8000 C   0  0  0  0  0  0  0  0  0  0  0  0
   -0.2230   -2.0840    1.0530 O   0  0  0  0  0  0  0  0  0  0  0  0
    0.0000   -3.3640    0.7160 C   0  0  0  0  0  0  0  0  0  0  0  0
   -0.8860   -4.2050    1.1240 O   0  0  0  0  0  0  0  0  0  0  0  0
    1.1100   -3.8830   -0.0450 C   0  0  0  0  0  0  0  0  0  0  0  0
    1.1230   -5.2730   -0.3370 C   0  0  0  0  0  0  0  0  0  0  0  0
    2.1040   -5.8560   -1.0810 C   0  0  0  0  0  0  0  0  0  0  0  0
    3.1000   -5.0540   -1.5500 C   0  0  0  0  0  0  0  0  0  0  0  0
    3.1090   -3.6820   -1.2740 C   0  0  0  0  0  0  0  0  0  0  0  0
    2.1260   -3.0720   -0.5230 C   0  0  0  0  0  0  0  0  0  0  0  0
    2.1690   -1.6990   -0.1940 N   0  0  0  0  0  0  0  0  0  0  0  0
    3.0240   -0.7420   -0.7990 C   0  0  0  0  0  0  0  0  0  0  0  0
    3.8210   -1.0430   -1.6990 O   0  0  0  0  0  0  0  0  0  0  0  0
    2.9860    0.7000   -0.3550 C   0  0  2  0  0  0  0  0  0  0  0  0
    2.0250    0.8720    0.6750 O   0  0  0  0  0  0  0  0  0  0  0  0
    1.7820    2.2000    1.0460 C   0  0  0  0  0  0  0  0  0  0  0  0
    1.2040    2.5380    2.0920 O   0  0  0  0  0  0  0  0  0  0  0  0
    2.2680    3.2330    0.0930 C   0  0  1  0  0  0  0  0  0  0  0  0
    3.6790    3.6670    0.4200 C   0  0  0  0  0  0  0  0  0  0  0  0
    2.1100    2.7960   -1.1970 O   0  0  0  0  0  0  0  0  0  0  0  0
    2.7300    1.6140   -1.5050 C   0  0  1  0  0  0  0  0  0  0  0  0
    3.9230    1.9230   -2.1840 O   0  0  0  0  0  0  0  0  0  0  0  0
   -3.0050    1.3540    0.9680 C   0  0  0  0  0  0  0  0  0  0  0  0
   -3.3470    2.6920    0.8220 C   0  0  0  0  0  0  0  0  0  0  0  0
  1  2  1  0
  2  3  2  0
  2 31  1  0
  3  4  1  0
  4  5  2  0
  5  6  1  0
  5 30  1  0
  6  7  2  3
  7  8  1  0
  8  9  1  0
  9 10  1  0
 10 11  2  0
 10 12  1  0
 12 13  2  0
 12 17  1  0
 13 14  1  0
 14 15  2  0
 15 16  1  0
 16 17  2  0
 17 18  1  0
 18 19  1  0
 19 20  2  0
 21 19  1  6
 21 22  1  0
 21 28  1  0
 22 23  1  0
 23 24  2  0
 23 25  1  0
 25 26  1  1
 25 27  1  0
 27 28  1  0
 28 29  1  1
 30 31  2  0
M  END
