
     RDKit          3D

 31 33  0  0  0  0  0  0  0  0999 V2000
    9.5420   -0.1290   -0.8560 C   0  0  0  0  0  0  0  0  0  0  0  0
    8.2980   -0.3650   -0.3990 C   0  0  0  0  0  0  0  0  0  0  0  0
    8.0680   -0.2250    1.0610 C   0  0  0  0  0  0  0  0  0  0  0  0
    7.1150    0.7370    1.3400 O   0  0  0  0  0  0  0  0  0  0  0  0
    5.7960    0.7080    1.0030 C   0  0  0  0  0  0  0  0  0  0  0  0
    4.9810    1.7970    1.3410 C   0  0  0  0  0  0  0  0  0  0  0  0
    3.6640    1.7690    1.0100 C   0  0  0  0  0  0  0  0  0  0  0  0
    3.0390    0.7340    0.3520 C   0  0  0  0  0  0  0  0  0  0  0  0
    3.8500   -0.3350    0.0190 C   0  0  0  0  0  0  0  0  0  0  0  0
    5.2110   -0.3480    0.3430 C   0  0  0  0  0  0  0  0  0  0  0  0
    3.2400   -1.4060   -0.7430 C   0  0  0  0  0  0  0  0  0  0  0  0
    1.9920   -1.4200   -1.1360 C   0  0  0  0  0  0  0  0  0  0  0  0
    1.0680   -0.3240   -0.8380 C   0  0  1  0  0  0  0  0  0  0  0  0
    0.5660    0.3250   -2.1220 C   0  0  0  0  0  0  0  0  0  0  0  0
   -0.0680   -0.9520   -0.2490 O   0  0  0  0  0  0  0  0  0  0  0  0
    1.6030    0.7140    0.0590 C   0  0  0  0  0  0  0  0  0  0  0  0
    0.8110    1.5960    0.6140 C   0  0  0  0  0  0  0  0  0  0  0  0
   -0.6060    1.7740    0.4800 C   0  0  0  0  0  0  0  0  0  0  0  0
   -1.1550    2.7380    1.1540 O   0  0  0  0  0  0  0  0  0  0  0  0
   -1.5030    1.0670   -0.2710 O   0  0  0  0  0  0  0  0  0  0  0  0
   -2.8720    1.3210   -0.3360 C   0  0  1  0  0  0  0  0  0  0  0  0
   -3.1990    1.7150   -1.7710 C   0  0  0  0  0  0  0  0  0  0  0  0
   -3.6920    0.1610    0.0990 C   0  0  0  0  0  0  0  0  0  0  0  0
   -3.0900   -0.8800    0.4630 O   0  0  0  0  0  0  0  0  0  0  0  0
   -5.1030    0.1650    0.1250 N   0  0  0  0  0  0  0  0  0  0  0  0
   -5.8820   -0.9920    0.5590 C   0  0  0  0  0  0  0  0  0  0  0  0
   -7.3500   -0.7420    0.4970 C   0  0  2  0  0  0  0  0  0  0  0  0
   -8.1050   -2.0380    0.7040 C   0  0  0  0  0  0  0  0  0  0  0  0
   -8.0310   -2.6340   -0.5380 O   0  0  0  0  0  0  0  0  0  0  0  0
   -7.8370   -1.6570   -1.4810 C   0  0  0  0  0  0  0  0  0  0  0  0
   -7.6970   -0.4430   -0.8330 O   0  0  0  0  0  0  0  0  0  0  0  0
  1  2  2  0
  2  3  1  0
  3  4  1  0
  4  5  1  0
  5  6  2  0
  5 10  1  0
  6  7  1  0
  7  8  2  0
  8  9  1  0
  8 16  1  0
  9 10  2  0
  9 11  1  0
 11 12  2  0
 12 13  1  0
 13 14  1  6
 13 15  1  0
 13 16  1  0
 16 17  2  3
 17 18  1  0
 18 19  2  0
 18 20  1  0
 20 21  1  0
 21 22  1  6
 21 23  1  0
 23 24  2  0
 23 25  1  0
 25 26  1  0
 27 26  1  6
 27 28  1  0
 27 31  1  0
 28 29  1  0
 29 30  1  0
 30 31  1  0
M  END
