
     RDKit          3D

 29 31  0  0  0  0  0  0  0  0999 V2000
   -3.4620    4.4600   -1.8580 C   0  0  0  0  0  0  0  0  0  0  0  0
   -2.0510    4.3450   -1.3380 C   0  0  0  0  0  0  0  0  0  0  0  0
   -1.1230    5.0160   -1.8260 O   0  0  0  0  0  0  0  0  0  0  0  0
   -1.8320    3.4450   -0.2790 N   0  0  0  0  0  0  0  0  0  0  0  0
   -0.9930    2.4380   -0.4290 C   0  0  0  0  0  0  0  0  0  0  0  0
   -0.2840    2.2500   -1.7000 C   0  0  0  0  0  0  0  0  0  0  0  0
    0.6250    1.0940   -1.6860 C   0  0  0  0  0  0  0  0  0  0  0  0
    0.7860    0.2700   -0.6620 C   0  0  0  0  0  0  0  0  0  0  0  0
    1.7300   -0.8650   -0.7650 C   0  0  0  0  0  0  0  0  0  0  0  0
    2.3520   -1.9800   -0.2730 C   0  0  0  0  0  0  0  0  0  0  0  0
    2.7030   -3.0510    0.6740 C   0  0  2  0  0  0  0  0  0  0  0  0
    4.0510   -2.6730    1.2620 C   0  0  0  0  0  0  0  0  0  0  0  0
    2.9330   -4.5770   -0.2900 Cl  0  0  0  0  0  0  0  0  0  0  0  0
    1.4500   -3.3870    2.0680 Br  0  0  0  0  0  0  0  0  0  0  0  0
    2.7150   -1.4530   -1.5540 C   0  0  2  0  0  0  0  0  0  0  0  0
    3.9850   -0.9970   -1.8400 N   0  0  0  0  0  0  0  0  0  0  0  0
    4.0300   -1.5860   -2.9420 C   0  0  0  0  0  0  0  0  0  0  0  0
    2.6850   -2.1660   -2.8130 C   0  0  1  0  0  0  0  0  0  0  0  0
    2.6620   -3.5570   -2.8050 F   0  0  0  0  0  0  0  0  0  0  0  0
    1.6630   -1.5050   -4.1410 Cl  0  0  0  0  0  0  0  0  0  0  0  0
    0.0380    0.5310    0.5450 C   0  0  0  0  0  0  0  0  0  0  0  0
    0.2190   -0.2710    1.7120 N   0  0  0  0  0  0  0  0  0  0  0  0
   -0.8380   -0.6960    2.5250 C   0  0  0  0  0  0  0  0  0  0  0  0
   -2.0760   -0.3300    2.4380 C   0  0  0  0  0  0  0  0  0  0  0  0
   -3.1150   -0.8380    3.3420 C   0  0  0  0  0  0  0  0  0  0  0  0
   -4.3400   -0.4340    3.2160 C   0  0  0  0  0  0  0  0  0  0  0  0
   -5.3160   -0.9280    4.0850 O   0  0  0  0  0  0  0  0  0  0  0  0
   -4.7720    0.4560    2.2860 F   0  0  0  0  0  0  0  0  0  0  0  0
   -0.7890    1.5470    0.6390 N   0  0  0  0  0  0  0  0  0  0  0  0
  1  2  1  0
  2  3  2  0
  2  4  1  0
  4  5  2  3
  5  6  1  0
  5 29  1  0
  6  7  1  0
  7  8  2  0
  8  9  1  0
  8 21  1  0
  9 10  2  0
  9 15  1  0
 10 11  1  0
 10 15  1  0
 11 12  1  1
 11 13  1  0
 11 14  1  0
 15 16  1  1
 15 18  1  0
 16 17  2  0
 17 18  1  0
 18 19  1  1
 18 20  1  0
 21 22  1  0
 21 29  2  0
 22 23  1  0
 23 24  2  3
 24 25  1  0
 25 26  2  3
 26 27  1  0
 26 28  1  0
M  END
