
     RDKit          3D

  9  9  0  0  0  0  0  0  0  0999 V2000
    3.6580   -0.0180   -0.1990 N   0  0  0  0  0  0  0  0  0  0  0  0
    2.5630   -0.7870    0.0600 O   0  0  0  0  0  0  0  0  0  0  0  0
    1.5480    0.0890    0.3970 C   0  0  0  0  0  0  0  0  0  0  0  0
    0.1780   -0.5800    0.3520 C   0  0  1  0  0  0  0  0  0  0  0  0
   -0.6920    0.2070    1.2750 C   0  0  0  0  0  0  0  0  0  0  0  0
   -2.1240   -0.0480    0.9030 C   0  0  0  0  0  0  0  0  0  0  0  0
   -2.3250    0.5510   -0.3860 N   0  0  0  0  0  0  0  0  0  0  0  0
   -1.5130    0.0240   -1.4340 C   0  0  0  0  0  0  0  0  0  0  0  0
   -0.3130   -0.7460   -1.0340 C   0  0  0  0  0  0  0  0  0  0  0  0
  1  2  1  0
  2  3  1  0
  4  3  1  6
  4  5  1  0
  4  9  1  0
  5  6  1  0
  6  7  1  0
  7  8  1  0
  8  9  1  0
M  END
