
     RDKit          3D

  9  9  0  0  0  0  0  0  0  0999 V2000
    3.0090   -0.5720   -0.4330 C   0  0  0  0  0  0  0  0  0  0  0  0
    1.5360   -0.3160   -0.3610 C   0  0  0  0  0  0  0  0  0  0  0  0
    0.5220   -1.2420   -0.3060 N   0  0  0  0  0  0  0  0  0  0  0  0
   -0.6520   -0.5790   -0.0310 C   0  0  0  0  0  0  0  0  0  0  0  0
   -1.9600   -1.1470    0.4070 C   0  0  0  0  0  0  0  0  0  0  0  0
   -2.7100   -1.6270   -0.6720 O   0  0  0  0  0  0  0  0  0  0  0  0
   -0.3190    0.7650    0.0710 C   0  0  0  0  0  0  0  0  0  0  0  0
   -1.2830    1.8770    0.3960 C   0  0  0  0  0  0  0  0  0  0  0  0
    0.9760    0.8820   -0.1290 N   0  0  0  0  0  0  0  0  0  0  0  0
  1  2  1  0
  2  3  2  0
  2  9  1  0
  3  4  1  0
  4  5  1  0
  4  7  2  0
  5  6  1  0
  7  8  1  0
  7  9  1  0
M  END
