
     RDKit          3D

  9  9  0  0  0  0  0  0  0  0999 V2000
    2.5590   -0.2520   -0.4680 C   0  0  0  0  0  0  0  0  0  0  0  0
    1.1820    0.2890   -0.6360 C   0  0  0  0  0  0  0  0  0  0  0  0
    0.2860   -0.0130    0.4810 C   0  0  0  0  0  0  0  0  0  0  0  0
    0.4450   -0.5140    1.7400 C   0  0  0  0  0  0  0  0  0  0  0  0
   -0.6950   -0.5880    2.3060 N   0  0  0  0  0  0  0  0  0  0  0  0
   -1.6630   -0.2080    1.5440 N   0  0  0  0  0  0  0  0  0  0  0  0
   -1.1170    0.1760    0.3670 C   0  0  0  0  0  0  0  0  0  0  0  0
   -1.7510    0.7570   -0.8340 C   0  0  0  0  0  0  0  0  0  0  0  0
   -2.2720   -0.2920   -1.6340 O   0  0  0  0  0  0  0  0  0  0  0  0
  1  2  1  0
  2  3  1  0
  3  4  1  0
  3  7  2  0
  4  5  2  0
  5  6  1  0
  6  7  1  0
  7  8  1  0
  8  9  1  0
M  END
