
     RDKit          3D

  9  9  0  0  0  0  0  0  0  0999 V2000
   -1.5070    0.8850    0.8170 C   0  0  0  0  0  0  0  0  0  0  0  0
   -0.8350   -0.0390   -0.2160 C   0  0  1  0  0  0  0  0  0  0  0  0
   -1.3450   -1.4390   -0.1150 C   0  0  0  0  0  0  0  0  0  0  0  0
   -1.1660    0.4760   -1.4650 O   0  0  0  0  0  0  0  0  0  0  0  0
    0.6390   -0.0110   -0.0530 C   0  0  0  0  0  0  0  0  0  0  0  0
    1.3320   -0.4550    1.0470 C   0  0  0  0  0  0  0  0  0  0  0  0
    2.6400   -0.2160    0.8120 N   0  0  0  0  0  0  0  0  0  0  0  0
    2.8130    0.3510   -0.3760 C   0  0  0  0  0  0  0  0  0  0  0  0
    1.5690    0.4770   -0.9100 N   0  0  0  0  0  0  0  0  0  0  0  0
  2  1  1  1
  2  3  1  0
  2  4  1  0
  2  5  1  0
  5  6  2  0
  5  9  1  0
  6  7  1  0
  7  8  2  0
  8  9  1  0
M  END
