
     RDKit          3D

 38 42  0  0  0  0  0  0  0  0999 V2000
    8.4790    1.3530   -0.5840 C   0  0  0  0  0  0  0  0  0  0  0  0
    7.2030    1.1070   -0.0730 O   0  0  0  0  0  0  0  0  0  0  0  0
    6.8160    1.2400    1.2420 C   0  0  0  0  0  0  0  0  0  0  0  0
    7.7100    1.6530    2.2060 C   0  0  0  0  0  0  0  0  0  0  0  0
    7.3110    1.7840    3.5230 C   0  0  0  0  0  0  0  0  0  0  0  0
    6.0090    1.4930    3.8440 C   0  0  0  0  0  0  0  0  0  0  0  0
    5.1030    1.0720    2.8460 C   0  0  0  0  0  0  0  0  0  0  0  0
    5.4800    0.9380    1.5470 C   0  0  0  0  0  0  0  0  0  0  0  0
    4.6270    0.5320    0.5210 N   0  0  0  0  0  0  0  0  0  0  0  0
    3.2680    0.1690    0.6410 C   0  0  0  0  0  0  0  0  0  0  0  0
    2.6950    0.1840    1.7420 O   0  0  0  0  0  0  0  0  0  0  0  0
    2.4770   -0.2480   -0.5760 C   0  0  0  0  0  0  0  0  0  0  0  0
    1.1870   -0.5580   -0.1560 O   0  0  0  0  0  0  0  0  0  0  0  0
    0.1760   -0.9780   -1.0410 C   0  0  0  0  0  0  0  0  0  0  0  0
    0.5030   -1.0590   -2.2530 O   0  0  0  0  0  0  0  0  0  0  0  0
   -1.1650   -1.3130   -0.5970 C   0  0  0  0  0  0  0  0  0  0  0  0
   -1.3750   -2.6360   -0.1510 C   0  0  0  0  0  0  0  0  0  0  0  0
   -0.1870   -3.5200   -0.1500 C   0  0  0  0  0  0  0  0  0  0  0  0
    0.9050   -3.1600    1.2050 Cl  0  0  0  0  0  0  0  0  0  0  0  0
   -2.5860   -3.0430    0.2430 N   0  0  0  0  0  0  0  0  0  0  0  0
   -3.6490   -2.2350    0.2380 C   0  0  0  0  0  0  0  0  0  0  0  0
   -4.9410   -2.7020    0.6670 N   0  0  0  0  0  0  0  0  0  0  0  0
   -5.2650   -4.0320    1.1360 C   0  0  0  0  0  0  0  0  0  0  0  0
   -6.6120   -4.2790    0.4400 C   0  0  0  0  0  0  0  0  0  0  0  0
   -7.2780   -2.9330    0.4030 C   0  0  0  0  0  0  0  0  0  0  0  0
   -6.1560   -1.9350    0.7140 C   0  0  0  0  0  0  0  0  0  0  0  0
   -3.4670   -0.9780   -0.1820 N   0  0  0  0  0  0  0  0  0  0  0  0
   -2.2490   -0.4850   -0.6050 C   0  0  0  0  0  0  0  0  0  0  0  0
   -2.2340    0.8620   -1.1350 C   0  0  0  0  0  0  0  0  0  0  0  0
   -3.4640    1.4340   -1.4930 C   0  0  0  0  0  0  0  0  0  0  0  0
   -3.5530    2.7320   -1.9700 C   0  0  0  0  0  0  0  0  0  0  0  0
   -2.4130    3.4830   -2.0980 C   0  0  0  0  0  0  0  0  0  0  0  0
   -1.1990    2.9630   -1.7610 C   0  0  0  0  0  0  0  0  0  0  0  0
   -1.1380    1.6400   -1.2780 C   0  0  0  0  0  0  0  0  0  0  0  0
   -0.1620    3.9530   -1.9910 C   0  0  0  0  0  0  0  0  0  0  0  0
    1.0750    3.7590   -1.9620 O   0  0  0  0  0  0  0  0  0  0  0  0
   -0.8470    5.2400   -2.2680 C   0  0  0  0  0  0  0  0  0  0  0  0
   -2.2320    4.8360   -2.5610 N   0  0  0  0  0  0  0  0  0  0  0  0
  1  2  1  0
  2  3  1  0
  3  4  2  0
  3  8  1  0
  4  5  1  0
  5  6  2  0
  6  7  1  0
  7  8  2  0
  8  9  1  0
  9 10  1  0
 10 11  2  0
 10 12  1  0
 12 13  1  0
 13 14  1  0
 14 15  2  0
 14 16  1  0
 16 17  2  0
 16 28  1  0
 17 18  1  0
 17 20  1  0
 18 19  1  0
 20 21  2  0
 21 22  1  0
 21 27  1  0
 22 23  1  0
 22 26  1  0
 23 24  1  0
 24 25  1  0
 25 26  1  0
 27 28  2  0
 28 29  1  0
 29 30  2  0
 29 34  1  0
 30 31  1  0
 31 32  2  0
 32 33  1  0
 32 38  1  0
 33 34  2  0
 33 35  1  0
 35 36  2  0
 35 37  1  0
 37 38  1  0
M  CHG  2  20   1  27   1
M  END
