
     RDKit          3D

 38 42  0  0  0  0  0  0  0  0999 V2000
   -7.7840   -1.8470    1.6060 C   0  0  0  0  0  0  0  0  0  0  0  0
   -7.6270   -0.5420    1.0050 N   0  0  2  0  0  0  0  0  0  0  0  0
   -8.5160   -0.3420   -0.1110 C   0  0  0  0  0  0  0  0  0  0  0  0
   -8.5790    1.1350   -0.4050 C   0  0  0  0  0  0  0  0  0  0  0  0
   -7.2430    1.7820   -0.2400 C   0  0  0  0  0  0  0  0  0  0  0  0
   -6.0810    0.8210   -0.3200 C   0  0  1  0  0  0  0  0  0  0  0  0
   -4.8210    1.5270    0.0220 C   0  0  0  0  0  0  0  0  0  0  0  0
   -4.8850    2.7540    0.2990 O   0  0  0  0  0  0  0  0  0  0  0  0
   -3.5620    0.8930    0.0510 N   0  0  0  0  0  0  0  0  0  0  0  0
   -2.3000    1.5050    0.3660 C   0  0  0  0  0  0  0  0  0  0  0  0
   -1.3550    0.7130   -0.5530 C   0  0  0  0  0  0  0  0  0  0  0  0
   -1.8630   -0.6070   -0.4370 N   0  0  2  0  0  0  0  0  0  0  0  0
   -1.5640   -1.4940   -1.5440 C   0  0  0  0  0  0  0  0  0  0  0  0
   -0.2150   -2.1080   -1.3190 C   0  0  0  0  0  0  0  0  0  0  0  0
    0.7740   -1.1220   -1.2720 O   0  0  0  0  0  0  0  0  0  0  0  0
    1.0640   -0.3560   -2.3740 C   0  0  0  0  0  0  0  0  0  0  0  0
    0.4440   -0.5380   -3.4430 O   0  0  0  0  0  0  0  0  0  0  0  0
    2.1160    0.7200   -2.3640 C   0  0  0  0  0  0  0  0  0  0  0  0
    2.7540    0.8620   -1.0890 N   0  0  0  0  0  0  0  0  0  0  0  0
    2.3470    1.6790   -0.1120 N   0  0  0  0  0  0  0  0  0  0  0  0
    3.1640    1.5700    0.9370 C   0  0  0  0  0  0  0  0  0  0  0  0
    4.1320    0.6440    0.6130 C   0  0  0  0  0  0  0  0  0  0  0  0
    5.2300    0.1070    1.2510 C   0  0  0  0  0  0  0  0  0  0  0  0
    6.0400   -0.8330    0.6520 C   0  0  0  0  0  0  0  0  0  0  0  0
    7.1380   -1.3410    1.3490 O   0  0  0  0  0  0  0  0  0  0  0  0
    8.3370   -0.6630    1.1960 C   0  0  0  0  0  0  0  0  0  0  0  0
    8.4990    0.4570    0.4110 C   0  0  0  0  0  0  0  0  0  0  0  0
    9.7440    1.0870    0.3070 C   0  0  0  0  0  0  0  0  0  0  0  0
   10.8380    0.5980    0.9910 C   0  0  0  0  0  0  0  0  0  0  0  0
   12.0940    1.2270    0.8910 O   0  0  0  0  0  0  0  0  0  0  0  0
   10.6650   -0.5210    1.7710 C   0  0  0  0  0  0  0  0  0  0  0  0
   12.0690   -1.1440    2.6450 Cl  0  0  0  0  0  0  0  0  0  0  0  0
    9.4380   -1.1410    1.8730 C   0  0  0  0  0  0  0  0  0  0  0  0
    5.7150   -1.2300   -0.6300 C   0  0  0  0  0  0  0  0  0  0  0  0
    4.6280   -0.7260   -1.3170 C   0  0  0  0  0  0  0  0  0  0  0  0
    3.8470    0.2190   -0.6660 C   0  0  0  0  0  0  0  0  0  0  0  0
   -3.2940   -0.4900   -0.2260 C   0  0  0  0  0  0  0  0  0  0  0  0
   -6.2410   -0.3440    0.6120 C   0  0  0  0  0  0  0  0  0  0  0  0
  2  1  1  6
  2  3  1  0
  2 38  1  0
  3  4  1  0
  4  5  1  0
  5  6  1  0
  6  7  1  1
  6 38  1  0
  7  8  2  0
  7  9  1  0
  9 10  1  0
  9 37  1  0
 10 11  1  0
 11 12  1  0
 12 13  1  6
 12 37  1  0
 13 14  1  0
 14 15  1  0
 15 16  1  0
 16 17  2  0
 16 18  1  0
 18 19  1  0
 19 20  1  0
 19 36  1  0
 20 21  2  0
 21 22  1  0
 22 23  2  0
 22 36  1  0
 23 24  1  0
 24 25  1  0
 24 34  2  0
 25 26  1  0
 26 27  2  0
 26 33  1  0
 27 28  1  0
 28 29  2  0
 29 30  1  0
 29 31  1  0
 31 32  1  0
 31 33  2  0
 34 35  1  0
 35 36  2  0
M  CHG  2   2   1  12   1
M  END
