
     RDKit          3D

 38 41  0  0  0  0  0  0  0  0999 V2000
   -2.0810    1.1170   -4.0620 C   0  0  0  0  0  0  0  0  0  0  0  0
   -3.2830    0.8190   -3.2050 C   0  0  2  0  0  0  0  0  0  0  0  0
   -4.2810    1.9570   -3.4660 C   0  0  0  0  0  0  0  0  0  0  0  0
   -3.0130    0.8130   -1.7370 C   0  0  0  0  0  0  0  0  0  0  0  0
   -2.0810   -0.0960   -1.2400 N   0  0  0  0  0  0  0  0  0  0  0  0
   -0.7260    0.3260   -1.2440 C   0  0  0  0  0  0  0  0  0  0  0  0
   -0.3320    0.7790    0.1430 C   0  0  1  0  0  0  0  0  0  0  0  0
   -0.4900   -0.2950    1.0490 O   0  0  0  0  0  0  0  0  0  0  0  0
    1.1050    1.1770    0.2510 C   0  0  2  0  0  0  0  0  0  0  0  0
    1.4730    2.4780   -0.3800 C   0  0  0  0  0  0  0  0  0  0  0  0
    0.7140    3.5710    0.2360 C   0  0  0  0  0  0  0  0  0  0  0  0
    1.2270    4.2130    1.3410 C   0  0  0  0  0  0  0  0  0  0  0  0
    0.5510    5.2590    1.9650 C   0  0  0  0  0  0  0  0  0  0  0  0
   -0.6600    5.6520    1.4530 C   0  0  0  0  0  0  0  0  0  0  0  0
   -1.1700    5.0120    0.3540 C   0  0  0  0  0  0  0  0  0  0  0  0
   -0.5020    3.9690   -0.2740 C   0  0  0  0  0  0  0  0  0  0  0  0
    2.0080    0.0900   -0.1010 N   0  0  0  0  0  0  0  0  0  0  0  0
    2.8680   -0.5630    0.8040 C   0  0  0  0  0  0  0  0  0  0  0  0
    2.8490   -0.1700    2.0170 O   0  0  0  0  0  0  0  0  0  0  0  0
    3.7210   -1.5980    0.4440 O   0  0  0  0  0  0  0  0  0  0  0  0
    4.5310   -2.1720    1.4290 C   0  0  1  0  0  0  0  0  0  0  0  0
    4.3390   -3.6590    1.5590 C   0  0  0  0  0  0  0  0  0  0  0  0
    5.4560   -4.2550    0.9780 O   0  0  0  0  0  0  0  0  0  0  0  0
    6.5370   -3.4200    1.2840 C   0  0  1  0  0  0  0  0  0  0  0  0
    7.5050   -3.6280    0.3420 O   0  0  0  0  0  0  0  0  0  0  0  0
    7.4830   -2.6230   -0.5820 C   0  0  0  0  0  0  0  0  0  0  0  0
    6.2460   -1.7950   -0.3690 C   0  0  0  0  0  0  0  0  0  0  0  0
    6.0050   -2.0330    1.1280 C   0  0  1  0  0  0  0  0  0  0  0  0
   -2.4680   -1.6580   -0.8710 S   0  0  2  0  0  0  0  0  0  0  0  0
   -1.2130   -2.3810   -0.3910 O   0  0  0  0  0  0  0  0  0  0  0  0
   -2.9660   -2.3650   -2.1200 O   0  0  0  0  0  0  0  0  0  0  0  0
   -3.6630   -1.8970    0.3670 C   0  0  0  0  0  0  0  0  0  0  0  0
   -5.0020   -1.9320    0.0110 C   0  0  0  0  0  0  0  0  0  0  0  0
   -6.0070   -2.1190    0.9320 C   0  0  0  0  0  0  0  0  0  0  0  0
   -5.7240   -2.2850    2.2730 C   0  0  0  0  0  0  0  0  0  0  0  0
   -6.7660   -2.4800    3.2380 N   0  0  0  0  0  0  0  0  0  0  0  0
   -4.3950   -2.2520    2.6390 C   0  0  0  0  0  0  0  0  0  0  0  0
   -3.3830   -2.0630    1.7050 C   0  0  0  0  0  0  0  0  0  0  0  0
  2  1  1  6
  2  3  1  0
  2  4  1  0
  4  5  1  0
  5  6  1  0
 29  5  1  6
  6  7  1  0
  7  8  1  1
  7  9  1  0
  9 10  1  6
  9 17  1  0
 10 11  1  0
 11 12  2  0
 11 16  1  0
 12 13  1  0
 13 14  2  0
 14 15  1  0
 15 16  2  0
 17 18  1  0
 18 19  2  0
 18 20  1  0
 21 20  1  6
 21 22  1  0
 21 28  1  0
 22 23  1  0
 24 23  1  6
 24 25  1  0
 24 28  1  0
 25 26  1  0
 26 27  1  0
 28 27  1  6
 29 30  2  0
 29 31  2  0
 29 32  1  0
 32 33  2  0
 32 38  1  0
 33 34  1  0
 34 35  2  0
 35 36  1  0
 35 37  1  0
 37 38  2  0
M  END
