
     RDKit          3D

 18 18  0  0  0  0  0  0  0  0999 V2000
    5.6370   -0.0220    1.5420 C   0  0  0  0  0  0  0  0  0  0  0  0
    4.8090   -0.9550    0.7240 C   0  0  0  0  0  0  0  0  0  0  0  0
    4.0950   -0.3630   -0.4300 C   0  0  0  0  0  0  0  0  0  0  0  0
    3.0720    0.6820   -0.1570 C   0  0  2  0  0  0  0  0  0  0  0  0
    3.5340    1.9030    0.5490 C   0  0  0  0  0  0  0  0  0  0  0  0
    1.8810    0.2030    0.4110 O   0  0  0  0  0  0  0  0  0  0  0  0
    0.9320    0.3000   -0.5960 C   0  0  0  0  0  0  0  0  0  0  0  0
   -0.4180   -0.1600   -0.3620 C   0  0  0  0  0  0  0  0  0  0  0  0
   -0.7450   -1.5090   -0.4910 C   0  0  0  0  0  0  0  0  0  0  0  0
   -2.0300   -1.9340   -0.3790 C   0  0  0  0  0  0  0  0  0  0  0  0
   -2.4030   -3.3850   -0.5180 C   0  0  0  0  0  0  0  0  0  0  0  0
   -3.0150   -1.0260   -0.1370 C   0  0  0  0  0  0  0  0  0  0  0  0
   -4.3020   -1.4840   -0.0100 O   0  0  0  0  0  0  0  0  0  0  0  0
   -2.7780    0.3240   -0.0010 C   0  0  0  0  0  0  0  0  0  0  0  0
   -3.8240    1.3340    0.0240 C   0  0  2  0  0  0  0  0  0  0  0  0
   -4.2340    1.8910    1.3480 C   0  0  0  0  0  0  0  0  0  0  0  0
   -4.9590    1.0460   -0.8940 C   0  0  0  0  0  0  0  0  0  0  0  0
   -1.4550    0.7430   -0.1130 C   0  0  0  0  0  0  0  0  0  0  0  0
  1  2  1  0
  2  3  1  0
  3  4  1  0
  4  5  1  1
  4  6  1  0
  6  7  1  0
  7  8  1  0
  8  9  2  0
  8 18  1  0
  9 10  1  0
 10 11  1  0
 10 12  2  0
 12 13  1  0
 12 14  1  0
 14 15  1  0
 14 18  2  0
 15 16  1  1
 15 17  1  0
M  END
