
     RDKit          3D

 18 18  0  0  0  0  0  0  0  0999 V2000
    5.3290    1.3810    0.5490 C   0  0  0  0  0  0  0  0  0  0  0  0
    4.1290    0.6370    1.0890 C   0  0  0  0  0  0  0  0  0  0  0  0
    3.2620    0.1490   -0.0800 C   0  0  0  0  0  0  0  0  0  0  0  0
    2.0860   -0.5870    0.5260 C   0  0  0  0  0  0  0  0  0  0  0  0
    1.1650   -1.1110   -0.5010 C   0  0  0  0  0  0  0  0  0  0  0  0
    1.3790   -2.2510   -1.2740 C   0  0  0  0  0  0  0  0  0  0  0  0
    2.5630   -3.1420   -1.2050 C   0  0  0  0  0  0  0  0  0  0  0  0
    0.3580   -2.3890   -2.0630 O   0  0  0  0  0  0  0  0  0  0  0  0
   -0.5260   -1.3990   -1.8550 C   0  0  0  0  0  0  0  0  0  0  0  0
   -1.7980   -1.3060   -2.6240 C   0  0  0  0  0  0  0  0  0  0  0  0
   -0.0670   -0.5620   -0.8780 C   0  0  0  0  0  0  0  0  0  0  0  0
   -0.6970    0.6290   -0.3480 C   0  0  0  0  0  0  0  0  0  0  0  0
   -0.0720    1.2740    0.5800 O   0  0  0  0  0  0  0  0  0  0  0  0
   -1.9750    1.2100   -0.7320 C   0  0  0  0  0  0  0  0  0  0  0  0
   -3.1190    0.8150    0.1710 C   0  0  2  0  0  0  0  0  0  0  0  0
   -4.4000    1.4620   -0.3050 C   0  0  0  0  0  0  0  0  0  0  0  0
   -2.8280    1.1380    1.6150 C   0  0  0  0  0  0  0  0  0  0  0  0
   -3.9720    0.7420    2.5150 C   0  0  0  0  0  0  0  0  0  0  0  0
  1  2  1  0
  2  3  1  0
  3  4  1  0
  4  5  1  0
  5  6  2  0
  5 11  1  0
  6  7  1  0
  6  8  1  0
  8  9  1  0
  9 10  1  0
  9 11  2  0
 11 12  1  0
 12 13  2  0
 12 14  1  0
 14 15  1  0
 15 16  1  6
 15 17  1  0
 17 18  1  0
M  END
