
     RDKit          3D

 41 42  0  0  0  0  0  0  0  0999 V2000
    3.0320   -3.4280   -0.1050 C   0  0  0  0  0  0  0  0  0  0  0  0
    1.6450   -2.9540   -0.4730 C   0  0  1  0  0  0  0  0  0  0  0  0
    1.6900   -2.6200   -1.9580 C   0  0  0  0  0  0  0  0  0  0  0  0
    0.7410   -4.1570   -0.2000 C   0  0  0  0  0  0  0  0  0  0  0  0
   -0.6140   -4.0180   -0.8040 C   0  0  0  0  0  0  0  0  0  0  0  0
   -1.4170   -2.8380   -0.2270 C   0  0  0  0  0  0  0  0  0  0  0  0
   -2.7290   -3.0810   -0.6420 O   0  0  0  0  0  0  0  0  0  0  0  0
   -3.7050   -2.1030   -0.8790 C   0  0  0  0  0  0  0  0  0  0  0  0
   -4.4540   -2.2840   -1.8730 O   0  0  0  0  0  0  0  0  0  0  0  0
   -3.7700   -0.9580    0.0580 C   0  0  2  0  0  0  0  0  0  0  0  0
   -5.1790   -0.5960    0.3410 C   0  0  0  0  0  0  0  0  0  0  0  0
   -5.4230   -0.3110    1.7420 O   0  0  0  0  0  0  0  0  0  0  0  0
   -5.2790   -1.4590    2.5430 C   0  0  0  0  0  0  0  0  0  0  0  0
   -4.9740   -2.5960    2.0230 O   0  0  0  0  0  0  0  0  0  0  0  0
   -5.4660   -1.3790    3.9040 O   0  0  0  0  0  0  0  0  0  0  0  0
   -2.8300   -0.0490   -0.1450 O   0  0  0  0  0  0  0  0  0  0  0  0
   -2.7250    1.1550    0.4220 C   0  0  1  0  0  0  0  0  0  0  0  0
   -3.9100    1.6000    1.1040 O   0  0  0  0  0  0  0  0  0  0  0  0
   -1.7190    1.1840    1.4800 N   0  0  0  0  0  0  0  0  0  0  0  0
   -0.6210    2.0530    1.1450 C   0  0  0  0  0  0  0  0  0  0  0  0
   -0.2120    1.7260   -0.2740 C   0  0  2  0  0  0  0  0  0  0  0  0
    1.1540    2.0480   -0.6110 N   0  0  0  0  0  0  0  0  0  0  0  0
    2.3150    1.5100   -0.0340 C   0  0  0  0  0  0  0  0  0  0  0  0
    3.1270    2.3460    0.5280 O   0  0  0  0  0  0  0  0  0  0  0  0
    2.7270    0.0920   -0.0010 C   0  0  1  0  0  0  0  0  0  0  0  0
    4.1240   -0.0290    0.5870 C   0  0  0  0  0  0  0  0  0  0  0  0
    5.0600    0.6380   -0.1380 O   0  0  0  0  0  0  0  0  0  0  0  0
    6.6160    0.4880    0.5930 P   0  0  0  0  0  0  0  0  0  0  0  0
    7.8910    1.1410   -0.3900 O   0  0  0  0  0  0  0  0  0  0  0  0
    6.6640    1.1310    2.2060 O   0  0  0  0  0  0  0  0  0  0  0  0
    7.7070    1.9170    2.3090 O   0  0  0  0  0  0  0  0  0  0  0  0
    1.8510   -0.8010    0.7750 C   0  0  0  0  0  0  0  0  0  0  0  0
    1.7230   -0.4920    2.0120 O   0  0  0  0  0  0  0  0  0  0  0  0
    1.1830   -1.8920    0.3000 O   0  0  0  0  0  0  0  0  0  0  0  0
   -1.2470    2.2650   -1.1770 C   0  0  2  0  0  0  0  0  0  0  0  0
   -1.1290    3.5760   -1.8120 C   0  0  0  0  0  0  0  0  0  0  0  0
   -0.8770    3.6450   -3.0500 O   0  0  0  0  0  0  0  0  0  0  0  0
   -1.2920    4.8030   -1.1410 N   0  0  0  0  0  0  0  0  0  0  0  0
   -1.1570    6.0860   -1.8610 C   0  0  0  0  0  0  0  0  0  0  0  0
   -1.7780    6.0640   -3.0890 F   0  0  0  0  0  0  0  0  0  0  0  0
   -2.5550    2.1390   -0.6050 N   0  0  0  0  0  0  0  0  0  0  0  0
  2  1  1  1
  2  3  1  0
  2  4  1  0
  2 34  1  0
  4  5  1  0
  5  6  1  0
  6  7  1  0
  7  8  1  0
  8  9  2  0
  8 10  1  0
 10 11  1  6
 10 16  1  0
 11 12  1  0
 12 13  1  0
 13 14  2  0
 13 15  1  0
 16 17  1  0
 17 18  1  1
 17 19  1  0
 17 41  1  0
 19 20  1  0
 20 21  1  0
 21 22  1  6
 21 35  1  0
 22 23  1  0
 23 24  2  0
 23 25  1  0
 25 26  1  1
 25 32  1  0
 26 27  1  0
 27 28  1  0
 28 29  1  0
 28 30  1  0
 30 31  1  0
 32 33  2  0
 32 34  1  0
 35 36  1  1
 35 41  1  0
 36 37  2  0
 36 38  1  0
 38 39  1  0
 39 40  1  0
M  END
