
     RDKit          3D

 41 42  0  0  0  0  0  0  0  0999 V2000
   -4.9570   -3.7600    1.0530 O   0  0  0  0  0  0  0  0  0  0  0  0
   -4.4070   -4.6420    0.3600 C   0  0  0  0  0  0  0  0  0  0  0  0
   -5.1700   -5.5110   -0.4300 O   0  0  0  0  0  0  0  0  0  0  0  0
   -2.9290   -4.8540    0.3030 C   0  0  0  0  0  0  0  0  0  0  0  0
   -2.2520   -3.8970    1.1450 N   0  0  0  0  0  0  0  0  0  0  0  0
   -2.2080   -2.5120    0.8640 C   0  0  0  0  0  0  0  0  0  0  0  0
   -0.9930   -1.8940    0.8220 C   0  0  0  0  0  0  0  0  0  0  0  0
    0.0740   -2.7410    1.0720 N   0  0  0  0  0  0  0  0  0  0  0  0
    0.7010   -3.6340    0.1850 C   0  0  0  0  0  0  0  0  0  0  0  0
    0.2870   -3.7420   -0.9970 O   0  0  0  0  0  0  0  0  0  0  0  0
    1.8720   -4.4930    0.5840 C   0  0  0  0  0  0  0  0  0  0  0  0
    3.0390   -3.8420    0.2980 F   0  0  0  0  0  0  0  0  0  0  0  0
   -1.0730   -0.4720    0.6320 C   0  0  0  0  0  0  0  0  0  0  0  0
   -2.2790    0.1170    0.5220 N   0  0  0  0  0  0  0  0  0  0  0  0
   -2.2410    1.5470    0.3340 C   0  0  0  0  0  0  0  0  0  0  0  0
   -2.9450    2.1870   -0.5750 C   0  0  0  0  0  0  0  0  0  0  0  0
   -3.8530    1.5450   -1.5080 C   0  0  0  0  0  0  0  0  0  0  0  0
   -4.5110    2.2580   -2.3770 C   0  0  0  0  0  0  0  0  0  0  0  0
   -5.3930    1.6710   -3.2900 O   0  0  0  0  0  0  0  0  0  0  0  0
   -4.3470    3.6410   -2.4150 O   0  0  0  0  0  0  0  0  0  0  0  0
   -1.3620    2.3130    1.2340 C   0  0  2  0  0  0  0  0  0  0  0  0
   -0.0650    1.5970    1.4240 C   0  0  0  0  0  0  0  0  0  0  0  0
    0.0220    0.4360    0.5640 N   0  0  0  0  0  0  0  0  0  0  0  0
    1.0890    0.1350   -0.3020 C   0  0  0  0  0  0  0  0  0  0  0  0
    1.0820   -0.8910   -1.0070 O   0  0  0  0  0  0  0  0  0  0  0  0
    2.2890    1.0460   -0.4080 C   0  0  1  0  0  0  0  0  0  0  0  0
    3.3330    0.3370   -1.0120 O   0  0  0  0  0  0  0  0  0  0  0  0
    4.4730    0.2950   -0.2610 C   0  0  0  0  0  0  0  0  0  0  0  0
    5.0810    1.6270    0.0640 C   0  0  2  0  0  0  0  0  0  0  0  0
    5.4450    2.3620   -1.0360 O   0  0  0  0  0  0  0  0  0  0  0  0
    6.6530    1.2990    1.0410 P   0  0  0  0  0  0  0  0  0  0  0  0
    7.9930    2.1710    0.3660 O   0  0  0  0  0  0  0  0  0  0  0  0
    7.0560   -0.3860    0.9890 O   0  0  0  0  0  0  0  0  0  0  0  0
    1.9770    2.1190   -1.4270 C   0  0  0  0  0  0  0  0  0  0  0  0
    1.0730    2.9450   -1.2570 O   0  0  0  0  0  0  0  0  0  0  0  0
    2.7270    2.2060   -2.6230 O   0  0  0  0  0  0  0  0  0  0  0  0
   -2.0620    2.4430    2.4480 O   0  0  0  0  0  0  0  0  0  0  0  0
   -2.8420    3.5760    2.2720 C   0  0  0  0  0  0  0  0  0  0  0  0
   -1.8420    4.4790    1.6030 C   0  0  0  0  0  0  0  0  0  0  0  0
   -1.6670    5.7010    1.7580 O   0  0  0  0  0  0  0  0  0  0  0  0
   -1.1460    3.6360    0.7600 O   0  0  0  0  0  0  0  0  0  0  0  0
  1  2  2  0
  2  3  1  0
  2  4  1  0
  4  5  1  0
  5  6  1  0
  6  7  2  3
  7  8  1  0
  7 13  1  0
  8  9  1  0
  9 10  2  0
  9 11  1  0
 11 12  1  0
 13 14  2  0
 13 23  1  0
 14 15  1  0
 15 16  2  3
 15 21  1  0
 16 17  1  0
 17 18  2  3
 18 19  1  0
 18 20  1  0
 21 22  1  1
 21 37  1  0
 21 41  1  0
 22 23  1  0
 23 24  1  0
 24 25  2  0
 24 26  1  0
 26 27  1  6
 26 34  1  0
 27 28  1  0
 28 29  1  0
 29 30  1  6
 29 31  1  0
 31 32  1  0
 31 33  1  0
 34 35  2  0
 34 36  1  0
 37 38  1  0
 38 39  1  0
 39 40  2  0
 39 41  1  0
M  END
