
     RDKit          3D

 41 43  0  0  0  0  0  0  0  0999 V2000
    5.9090   -2.1170   -0.9220 C   0  0  0  0  0  0  0  0  0  0  0  0
    4.7020   -1.8000   -0.0820 C   0  0  1  0  0  0  0  0  0  0  0  0
    5.1050   -1.3620    1.3120 C   0  0  0  0  0  0  0  0  0  0  0  0
    3.9900   -1.1850    2.1230 O   0  0  0  0  0  0  0  0  0  0  0  0
    4.3380   -0.8110    3.3170 O   0  0  0  0  0  0  0  0  0  0  0  0
    3.8700   -0.8380   -0.6960 O   0  0  0  0  0  0  0  0  0  0  0  0
    4.2790    0.4310   -1.0240 C   0  0  0  0  0  0  0  0  0  0  0  0
    5.4860    0.7240   -0.7430 O   0  0  0  0  0  0  0  0  0  0  0  0
    3.4520    1.4730   -1.6640 C   0  0  0  0  0  0  0  0  0  0  0  0
    2.1360    1.0400   -1.9310 O   0  0  0  0  0  0  0  0  0  0  0  0
    1.3420    0.6370   -0.8820 C   0  0  0  0  0  0  0  0  0  0  0  0
    1.7550    0.6410    0.3000 O   0  0  0  0  0  0  0  0  0  0  0  0
   -0.0440    0.1800   -1.1380 C   0  0  2  0  0  0  0  0  0  0  0  0
   -0.2360   -1.1440   -0.5140 C   0  0  0  0  0  0  0  0  0  0  0  0
   -0.4160   -2.2900   -1.3930 C   0  0  0  0  0  0  0  0  0  0  0  0
   -0.4060   -3.4060   -0.8840 O   0  0  0  0  0  0  0  0  0  0  0  0
   -0.6120   -2.2310   -2.8560 C   0  0  0  0  0  0  0  0  0  0  0  0
   -0.6790   -0.8260   -3.3370 C   0  0  0  0  0  0  0  0  0  0  0  0
   -0.9850   -0.6870   -4.5660 O   0  0  0  0  0  0  0  0  0  0  0  0
   -0.4260    0.2900   -2.5140 N   0  0  0  0  0  0  0  0  0  0  0  0
   -0.4740    1.7040   -2.7900 C   0  0  0  0  0  0  0  0  0  0  0  0
   -0.5590    2.4060   -1.4550 C   0  0  2  0  0  0  0  0  0  0  0  0
   -1.5020    3.4180   -1.4440 O   0  0  0  0  0  0  0  0  0  0  0  0
    0.6220    2.9040   -1.0080 F   0  0  0  0  0  0  0  0  0  0  0  0
   -0.9900    1.2440   -0.5380 C   0  0  1  0  0  0  0  0  0  0  0  0
   -2.2970    0.9730   -0.8450 O   0  0  0  0  0  0  0  0  0  0  0  0
   -3.4430    0.8960   -0.1270 C   0  0  0  0  0  0  0  0  0  0  0  0
   -4.6640    0.5830   -0.7620 C   0  0  0  0  0  0  0  0  0  0  0  0
   -5.8100    0.4970   -0.0900 N   0  0  0  0  0  0  0  0  0  0  0  0
   -5.8980    0.7000    1.2320 C   0  0  0  0  0  0  0  0  0  0  0  0
   -7.1240    0.6100    1.9570 N   0  0  0  0  0  0  0  0  0  0  0  0
   -7.9510    1.7230    2.1410 N   0  0  0  0  0  0  0  0  0  0  0  0
   -4.7360    1.0080    1.8950 C   0  0  0  0  0  0  0  0  0  0  0  0
   -3.5220    1.1060    1.2320 C   0  0  0  0  0  0  0  0  0  0  0  0
   -2.3950    1.4220    1.9790 O   0  0  0  0  0  0  0  0  0  0  0  0
   -2.4860    1.6920    3.7070 P   0  0  0  0  0  0  0  0  0  0  0  0
   -0.8610    1.8370    4.3080 O   0  0  0  0  0  0  0  0  0  0  0  0
   -3.1790    0.2580    4.4270 O   0  0  0  0  0  0  0  0  0  0  0  0
    3.9340   -3.0610    0.0730 C   0  0  0  0  0  0  0  0  0  0  0  0
    4.5090   -4.0570    0.6090 O   0  0  0  0  0  0  0  0  0  0  0  0
    2.6340   -3.2240   -0.3250 O   0  0  0  0  0  0  0  0  0  0  0  0
  2  1  1  6
  2  3  1  0
  2  6  1  0
  2 39  1  0
  3  4  1  0
  4  5  1  0
  6  7  1  0
  7  8  2  0
  7  9  1  0
  9 10  1  0
 10 11  1  0
 11 12  2  0
 13 11  1  6
 13 14  1  0
 13 20  1  0
 13 25  1  0
 14 15  1  0
 15 16  2  0
 15 17  1  0
 17 18  1  0
 18 19  2  0
 18 20  1  0
 20 21  1  0
 21 22  1  0
 22 23  1  6
 22 24  1  0
 22 25  1  0
 25 26  1  6
 26 27  1  0
 27 28  2  0
 27 34  1  0
 28 29  1  0
 29 30  2  0
 30 31  1  0
 30 33  1  0
 31 32  1  0
 33 34  2  0
 34 35  1  0
 35 36  1  0
 36 37  1  0
 36 38  1  0
 39 40  2  0
 39 41  1  0
M  END
