
     RDKit          3D

 42 44  0  0  0  0  0  0  0  0999 V2000
   -0.4070    5.5230   -0.8970 O   0  0  0  0  0  0  0  0  0  0  0  0
   -1.2380    5.0730   -0.0580 C   0  0  0  0  0  0  0  0  0  0  0  0
   -1.7260    5.9280    0.9230 O   0  0  0  0  0  0  0  0  0  0  0  0
   -1.6120    3.7500   -0.1680 O   0  0  0  0  0  0  0  0  0  0  0  0
   -1.0800    2.9290   -1.1890 C   0  0  2  0  0  0  0  0  0  0  0  0
   -2.1480    2.4270   -2.0910 C   0  0  0  0  0  0  0  0  0  0  0  0
   -2.7970    3.2130   -2.8200 O   0  0  0  0  0  0  0  0  0  0  0  0
   -2.4370    1.0840   -2.1370 O   0  0  0  0  0  0  0  0  0  0  0  0
   -2.2180    0.2830   -0.9960 C   0  0  1  0  0  0  0  0  0  0  0  0
   -3.1580    0.7320   -0.0410 O   0  0  0  0  0  0  0  0  0  0  0  0
   -4.4270    0.5290   -0.6280 C   0  0  0  0  0  0  0  0  0  0  0  0
   -5.4890    0.9980    0.3450 C   0  0  0  0  0  0  0  0  0  0  0  0
   -5.3070   -0.0010    1.8870 P   0  0  0  0  0  0  0  0  0  0  0  0
   -4.6120    0.9230    3.1780 O   0  0  0  0  0  0  0  0  0  0  0  0
   -6.7730   -0.7820    2.3550 O   0  0  0  0  0  0  0  0  0  0  0  0
   -7.8350   -0.1430    1.9300 O   0  0  0  0  0  0  0  0  0  0  0  0
   -2.5100   -1.1410   -1.3190 C   0  0  0  0  0  0  0  0  0  0  0  0
   -2.9160   -1.3990   -2.4700 O   0  0  0  0  0  0  0  0  0  0  0  0
   -2.3590   -2.1620   -0.4300 O   0  0  0  0  0  0  0  0  0  0  0  0
   -2.5850   -3.5110   -0.5840 C   0  0  0  0  0  0  0  0  0  0  0  0
   -1.7030   -4.1450   -1.6130 C   0  0  0  0  0  0  0  0  0  0  0  0
   -1.8430   -3.6270   -2.8740 O   0  0  0  0  0  0  0  0  0  0  0  0
   -0.8590    0.5180   -0.5020 C   0  0  0  0  0  0  0  0  0  0  0  0
   -0.0750   -0.4200    0.0560 N   0  0  0  0  0  0  0  0  0  0  0  0
    1.1680   -0.1840    0.5030 C   0  0  0  0  0  0  0  0  0  0  0  0
    2.0590   -1.1680    1.1350 C   0  0  2  0  0  0  0  0  0  0  0  0
    3.3460   -1.0830    0.4630 N   0  0  0  0  0  0  0  0  0  0  0  0
    4.5550   -0.4870    0.9620 C   0  0  0  0  0  0  0  0  0  0  0  0
    4.5790    0.0410    2.1010 O   0  0  0  0  0  0  0  0  0  0  0  0
    5.7490   -0.4690    0.2110 N   0  0  0  0  0  0  0  0  0  0  0  0
    6.9910    0.1190    0.6710 C   0  0  0  0  0  0  0  0  0  0  0  0
    6.8710    1.5900    0.9690 C   0  0  0  0  0  0  0  0  0  0  0  0
    8.1440    2.0200    1.4020 O   0  0  0  0  0  0  0  0  0  0  0  0
    3.1530   -1.7300   -0.8200 C   0  0  0  0  0  0  0  0  0  0  0  0
    2.3080   -2.9010   -0.4830 C   0  0  0  0  0  0  0  0  0  0  0  0
    2.1500   -3.9070   -1.1390 O   0  0  0  0  0  0  0  0  0  0  0  0
    1.6830   -2.6070    0.8310 C   0  0  1  0  0  0  0  0  0  0  0  0
    2.2800   -3.4080    1.8180 O   0  0  0  0  0  0  0  0  0  0  0  0
    0.3280   -2.7990    0.8450 F   0  0  0  0  0  0  0  0  0  0  0  0
    1.6620    1.0770    0.3840 N   0  0  0  0  0  0  0  0  0  0  0  0
    0.9500    2.0630   -0.1560 C   0  0  0  0  0  0  0  0  0  0  0  0
   -0.3170    1.7800   -0.6000 C   0  0  0  0  0  0  0  0  0  0  0  0
  1  2  2  0
  2  3  1  0
  2  4  1  0
  5  4  1  1
  5  6  1  0
  5 42  1  0
  6  7  2  0
  6  8  1  0
  8  9  1  0
  9 10  1  1
  9 17  1  0
  9 23  1  0
 10 11  1  0
 11 12  1  0
 12 13  1  0
 13 14  1  0
 13 15  1  0
 15 16  1  0
 17 18  2  0
 17 19  1  0
 19 20  1  0
 20 21  1  0
 21 22  1  0
 23 24  2  0
 23 42  1  0
 24 25  1  0
 26 25  1  6
 25 40  2  0
 26 27  1  0
 26 37  1  0
 27 28  1  0
 27 34  1  0
 28 29  2  0
 28 30  1  0
 30 31  1  0
 31 32  1  0
 32 33  1  0
 34 35  1  0
 35 36  2  0
 35 37  1  0
 37 38  1  1
 37 39  1  0
 40 41  1  0
 41 42  2  0
M  END
