
     RDKit          3D

 42 43  0  0  0  0  0  0  0  0999 V2000
   -6.8710   -1.9130   -1.5470 C   0  0  0  0  0  0  0  0  0  0  0  0
   -5.5080   -1.5320   -1.5440 O   0  0  0  0  0  0  0  0  0  0  0  0
   -5.0540   -0.3740   -0.9560 C   0  0  0  0  0  0  0  0  0  0  0  0
   -5.8790    0.3810   -0.3960 O   0  0  0  0  0  0  0  0  0  0  0  0
   -3.6230    0.0570   -0.9350 C   0  0  2  0  0  0  0  0  0  0  0  0
   -3.6050    1.4100   -1.5410 C   0  0  0  0  0  0  0  0  0  0  0  0
   -4.2170    2.3350   -0.9520 O   0  0  0  0  0  0  0  0  0  0  0  0
   -2.9600    1.7290   -2.7150 O   0  0  0  0  0  0  0  0  0  0  0  0
   -2.9300   -0.9170   -1.6030 O   0  0  0  0  0  0  0  0  0  0  0  0
   -1.7130   -1.0270   -2.1640 C   0  0  0  0  0  0  0  0  0  0  0  0
   -1.4870   -1.2160   -3.3850 O   0  0  0  0  0  0  0  0  0  0  0  0
   -0.5140   -0.9250   -1.3060 C   0  0  0  0  0  0  0  0  0  0  0  0
    0.7360   -0.4850   -1.9620 C   0  0  1  0  0  0  0  0  0  0  0  0
    0.7150    0.7790   -2.7050 C   0  0  0  0  0  0  0  0  0  0  0  0
   -0.1200    0.9600   -3.6170 O   0  0  0  0  0  0  0  0  0  0  0  0
    1.6290    1.8720   -2.4470 N   0  0  0  0  0  0  0  0  0  0  0  0
    2.0500    2.0490   -1.0710 C   0  0  0  0  0  0  0  0  0  0  0  0
    2.8240    2.9110   -0.6760 O   0  0  0  0  0  0  0  0  0  0  0  0
    1.3930    1.0120   -0.1800 C   0  0  2  0  0  0  0  0  0  0  0  0
    1.6620    1.1850    1.2540 C   0  0  0  0  0  0  0  0  0  0  0  0
    0.9260    2.3660    1.7320 N   0  0  0  0  0  0  0  0  0  0  0  0
   -0.4610    2.4190    1.6690 C   0  0  0  0  0  0  0  0  0  0  0  0
   -0.9910    3.5570    1.4080 O   0  0  0  0  0  0  0  0  0  0  0  0
   -1.4220    1.3140    1.8690 C   0  0  0  0  0  0  0  0  0  0  0  0
   -2.5150    1.4910    0.8120 C   0  0  0  0  0  0  0  0  0  0  0  0
   -3.2770    0.2380    0.5310 C   0  0  1  0  0  0  0  0  0  0  0  0
   -4.4500    0.3200    1.3240 O   0  0  0  0  0  0  0  0  0  0  0  0
   -4.5310   -0.9240    2.4970 P   0  0  0  0  0  0  0  0  0  0  0  0
   -3.7280   -2.3730    1.9920 O   0  0  0  0  0  0  0  0  0  0  0  0
   -6.1170   -1.3200    2.9870 O   0  0  0  0  0  0  0  0  0  0  0  0
    1.6740   -0.2300   -0.7960 N   0  0  0  0  0  0  0  0  0  0  0  0
    2.6210   -1.2090   -0.5980 C   0  0  0  0  0  0  0  0  0  0  0  0
    2.5080   -2.2750   -1.3740 O   0  0  0  0  0  0  0  0  0  0  0  0
    3.7350   -1.2670    0.3250 C   0  0  2  0  0  0  0  0  0  0  0  0
    4.3790   -2.5390    0.1250 O   0  0  0  0  0  0  0  0  0  0  0  0
    3.3410   -1.1930    1.6250 F   0  0  0  0  0  0  0  0  0  0  0  0
    4.8250   -0.2540   -0.0140 C   0  0  0  0  0  0  0  0  0  0  0  0
    5.9680   -0.4260    0.8390 N   0  0  0  0  0  0  0  0  0  0  0  0
    7.0350   -1.3440    0.4170 C   0  0  0  0  0  0  0  0  0  0  0  0
    6.0710    0.2660    2.0510 C   0  0  0  0  0  0  0  0  0  0  0  0
    5.2220    1.0600    2.4830 O   0  0  0  0  0  0  0  0  0  0  0  0
    7.2090    0.0600    2.8510 O   0  0  0  0  0  0  0  0  0  0  0  0
  1  2  1  0
  2  3  1  0
  3  4  2  0
  5  3  1  1
  5  6  1  0
  5  9  1  0
  5 26  1  0
  6  7  2  0
  6  8  1  0
  9 10  1  0
 10 11  2  0
 10 12  1  0
 13 12  1  1
 13 14  1  0
 13 31  1  0
 14 15  2  0
 14 16  1  0
 16 17  1  0
 17 18  2  0
 17 19  1  0
 19 20  1  1
 19 31  1  0
 20 21  1  0
 21 22  1  0
 22 23  2  0
 22 24  1  0
 24 25  1  0
 25 26  1  0
 26 27  1  1
 27 28  1  0
 28 29  1  0
 28 30  1  0
 31 32  1  0
 32 33  2  0
 32 34  1  0
 34 35  1  1
 34 36  1  0
 34 37  1  0
 37 38  1  0
 38 39  1  0
 38 40  1  0
 40 41  2  0
 40 42  1  0
M  END
