
     RDKit          3D

 41 42  0  0  0  0  0  0  0  0999 V2000
    8.0570    1.3750    1.0060 C   0  0  0  0  0  0  0  0  0  0  0  0
    6.9980    0.7270    0.1340 C   0  0  1  0  0  0  0  0  0  0  0  0
    7.1380    1.1780   -1.2730 C   0  0  0  0  0  0  0  0  0  0  0  0
    7.1550   -0.7880    0.3070 C   0  0  0  0  0  0  0  0  0  0  0  0
    5.7370    1.0430    0.7430 O   0  0  0  0  0  0  0  0  0  0  0  0
    4.5660    0.6020    0.2390 C   0  0  0  0  0  0  0  0  0  0  0  0
    4.3130   -0.0230   -0.6760 O   0  0  0  0  0  0  0  0  0  0  0  0
    3.1940    1.0900    1.2030 N   0  0  0  0  0  0  0  0  0  0  0  0
    2.2420    0.4250    0.4740 C   0  0  0  0  0  0  0  0  0  0  0  0
    2.2160   -0.1260   -0.5770 O   0  0  0  0  0  0  0  0  0  0  0  0
    0.9550    0.4060    1.2570 N   0  0  0  0  0  0  0  0  0  0  0  0
   -0.1440   -0.3430    0.8540 C   0  0  2  0  0  0  0  0  0  0  0  0
    0.2840   -1.7580    0.3930 C   0  0  0  0  0  0  0  0  0  0  0  0
    1.4670   -2.0250    0.8350 O   0  0  0  0  0  0  0  0  0  0  0  0
   -0.6980   -2.3620   -0.3600 N   0  0  0  0  0  0  0  0  0  0  0  0
   -1.0400   -1.6500   -1.5770 C   0  0  0  0  0  0  0  0  0  0  0  0
   -1.6450   -0.3130   -1.2160 C   0  0  0  0  0  0  0  0  0  0  0  0
   -1.2360    0.2460    0.1230 C   0  0  2  0  0  0  0  0  0  0  0  0
   -1.1090    1.7130   -0.1020 C   0  0  0  0  0  0  0  0  0  0  0  0
   -0.1490    2.4280    0.2100 O   0  0  0  0  0  0  0  0  0  0  0  0
   -2.2330    2.3110   -0.7480 N   0  0  0  0  0  0  0  0  0  0  0  0
   -2.3480    3.6980   -1.0500 C   0  0  0  0  0  0  0  0  0  0  0  0
   -1.4030    4.4530   -0.7800 O   0  0  0  0  0  0  0  0  0  0  0  0
   -3.6000    4.2210   -1.6840 C   0  0  0  0  0  0  0  0  0  0  0  0
   -3.4980    6.0160   -2.0210 P   0  0  0  0  0  0  0  0  0  0  0  0
   -2.7790    6.9130   -0.7540 O   0  0  0  0  0  0  0  0  0  0  0  0
   -2.9500    6.4350   -3.5810 O   0  0  0  0  0  0  0  0  0  0  0  0
   -2.5210    0.1870    1.0340 C   0  0  0  0  0  0  0  0  0  0  0  0
   -2.4670   -0.9210    1.8540 O   0  0  0  0  0  0  0  0  0  0  0  0
   -3.3900   -1.6480    2.5210 C   0  0  0  0  0  0  0  0  0  0  0  0
   -3.6610   -1.6090    3.7450 O   0  0  0  0  0  0  0  0  0  0  0  0
   -4.2020   -2.6310    1.7220 C   0  0  2  0  0  0  0  0  0  0  0  0
   -4.6330   -1.9860    0.5840 O   0  0  0  0  0  0  0  0  0  0  0  0
   -5.3670   -2.9890    2.4260 O   0  0  0  0  0  0  0  0  0  0  0  0
   -6.0770   -1.8920    2.6280 O   0  0  0  0  0  0  0  0  0  0  0  0
   -3.4720   -3.7720    1.5410 O   0  0  0  0  0  0  0  0  0  0  0  0
   -3.6010   -4.4530    0.3700 C   0  0  0  0  0  0  0  0  0  0  0  0
   -2.6770   -3.9080   -0.7510 C   0  0  1  0  0  0  0  0  0  0  0  0
   -2.3980   -4.9710   -1.6550 O   0  0  0  0  0  0  0  0  0  0  0  0
   -3.4560   -3.0470   -1.3930 F   0  0  0  0  0  0  0  0  0  0  0  0
   -1.4430   -3.5360   -0.0630 C   0  0  0  0  0  0  0  0  0  0  0  0
  2  1  1  1
  2  3  1  0
  2  4  1  0
  2  5  1  0
  5  6  1  0
  6  7  2  0
  6  8  1  0
  8  9  1  0
  9 10  2  0
  9 11  1  0
 12 11  1  6
 12 13  1  0
 12 18  1  0
 13 14  2  0
 13 15  1  0
 15 16  1  0
 15 41  1  0
 16 17  1  0
 17 18  1  0
 18 19  1  6
 18 28  1  0
 19 20  2  0
 19 21  1  0
 21 22  1  0
 22 23  2  0
 22 24  1  0
 24 25  1  0
 25 26  1  0
 25 27  1  0
 28 29  1  0
 29 30  1  0
 30 31  2  0
 30 32  1  0
 32 33  1  6
 32 34  1  0
 32 36  1  0
 34 35  1  0
 36 37  1  0
 37 38  1  0
 38 39  1  6
 38 40  1  0
 38 41  1  0
M  END
