
     RDKit          3D

 41 43  0  0  0  0  0  0  0  0999 V2000
    2.1300   -5.2010    2.0320 C   0  0  0  0  0  0  0  0  0  0  0  0
    3.1800   -4.0990    1.8920 C   0  0  1  0  0  0  0  0  0  0  0  0
    4.3480   -4.7710    1.5000 O   0  0  0  0  0  0  0  0  0  0  0  0
    2.8270   -3.0870    0.8830 C   0  0  0  0  0  0  0  0  0  0  0  0
    3.5240   -3.1020   -0.2000 O   0  0  0  0  0  0  0  0  0  0  0  0
    1.8290   -2.1070    0.9950 N   0  0  0  0  0  0  0  0  0  0  0  0
    1.6310   -1.1390   -0.1000 C   0  0  2  0  0  0  0  0  0  0  0  0
    3.0300   -0.6550   -0.4430 C   0  0  0  0  0  0  0  0  0  0  0  0
    3.4930   -0.9590   -1.5470 O   0  0  0  0  0  0  0  0  0  0  0  0
    3.7890    0.0860    0.4490 N   0  0  0  0  0  0  0  0  0  0  0  0
    5.0910    0.6120    0.3450 C   0  0  0  0  0  0  0  0  0  0  0  0
    5.3670    1.6950   -0.6310 C   0  0  0  0  0  0  0  0  0  0  0  0
    6.7410    2.0360   -0.5160 O   0  0  0  0  0  0  0  0  0  0  0  0
    7.2070    3.3430   -1.5150 P   0  0  0  0  0  0  0  0  0  0  0  0
    6.1000    4.6850   -1.3730 O   0  0  0  0  0  0  0  0  0  0  0  0
    8.7810    3.9540   -1.0620 O   0  0  0  0  0  0  0  0  0  0  0  0
    0.8840    0.0660    0.3890 C   0  0  0  0  0  0  0  0  0  0  0  0
    0.5660    0.8330   -0.7570 O   0  0  0  0  0  0  0  0  0  0  0  0
   -0.6590    0.2630   -1.2400 C   0  0  2  0  0  0  0  0  0  0  0  0
   -0.9850    1.0550   -2.3770 O   0  0  0  0  0  0  0  0  0  0  0  0
   -1.6370    0.4910   -0.1770 C   0  0  0  0  0  0  0  0  0  0  0  0
   -2.7520   -0.0820    0.1730 C   0  0  0  0  0  0  0  0  0  0  0  0
   -3.4740   -1.1930   -0.3700 N   0  0  0  0  0  0  0  0  0  0  0  0
   -4.7780   -1.0490   -1.0160 C   0  0  0  0  0  0  0  0  0  0  0  0
   -5.8510   -0.6160   -0.0500 C   0  0  0  0  0  0  0  0  0  0  0  0
   -7.0680   -0.5030   -0.7050 O   0  0  0  0  0  0  0  0  0  0  0  0
   -7.3570    0.3570   -1.7720 C   0  0  0  0  0  0  0  0  0  0  0  0
   -6.4900    1.1050   -2.2060 O   0  0  0  0  0  0  0  0  0  0  0  0
   -8.6730    0.3120   -2.2960 O   0  0  0  0  0  0  0  0  0  0  0  0
   -3.2870    0.5860    1.3280 O   0  0  0  0  0  0  0  0  0  0  0  0
   -2.7310    1.8800    1.2460 C   0  0  2  0  0  0  0  0  0  0  0  0
   -2.7210    2.6210    2.5320 C   0  0  0  0  0  0  0  0  0  0  0  0
   -3.5800    3.8130    2.2420 C   0  0  0  0  0  0  0  0  0  0  0  0
   -4.3290    3.5190    1.1050 O   0  0  0  0  0  0  0  0  0  0  0  0
   -3.5200    2.7450    0.2910 C   0  0  0  0  0  0  0  0  0  0  0  0
   -1.4500    1.5670    0.7630 O   0  0  0  0  0  0  0  0  0  0  0  0
   -0.3160   -1.0490   -1.6370 N   0  0  0  0  0  0  0  0  0  0  0  0
   -1.1340   -1.7600   -2.5600 C   0  0  0  0  0  0  0  0  0  0  0  0
   -2.1260   -1.1790   -3.0470 O   0  0  0  0  0  0  0  0  0  0  0  0
   -0.8720   -2.9980   -2.9100 F   0  0  0  0  0  0  0  0  0  0  0  0
    0.8810   -1.7310   -1.2230 C   0  0  0  0  0  0  0  0  0  0  0  0
  2  1  1  6
  2  3  1  0
  2  4  1  0
  4  5  2  0
  4  6  1  0
  7  6  1  1
  7  8  1  0
  7 17  1  0
  7 41  1  0
  8  9  2  0
  8 10  1  0
 10 11  1  0
 11 12  1  0
 12 13  1  0
 13 14  1  0
 14 15  1  0
 14 16  1  0
 17 18  1  0
 18 19  1  0
 19 20  1  6
 19 21  1  0
 19 37  1  0
 21 22  2  0
 21 36  1  0
 22 23  1  0
 22 30  1  0
 23 24  1  0
 24 25  1  0
 25 26  1  0
 26 27  1  0
 27 28  2  0
 27 29  1  0
 30 31  1  0
 31 32  1  1
 31 35  1  0
 31 36  1  0
 32 33  1  0
 33 34  1  0
 34 35  1  0
 37 38  1  0
 37 41  1  0
 38 39  2  0
 38 40  1  0
M  END
