
     RDKit          3D

 42 43  0  0  0  0  0  0  0  0999 V2000
   -4.5530   -5.3700    1.2840 O   0  0  0  0  0  0  0  0  0  0  0  0
   -5.1470   -5.0810    2.3640 C   0  0  0  0  0  0  0  0  0  0  0  0
   -6.2060   -5.8800    2.7670 O   0  0  0  0  0  0  0  0  0  0  0  0
   -4.7070   -3.9560    3.1140 N   0  0  0  0  0  0  0  0  0  0  0  0
   -3.6100   -3.1660    2.6520 C   0  0  0  0  0  0  0  0  0  0  0  0
   -3.0730   -3.5180    1.5690 O   0  0  0  0  0  0  0  0  0  0  0  0
   -3.1310   -2.0760    3.3120 O   0  0  0  0  0  0  0  0  0  0  0  0
   -2.0680   -1.2920    2.8770 C   0  0  0  0  0  0  0  0  0  0  0  0
   -2.3840   -0.5830    1.5400 C   0  0  2  0  0  0  0  0  0  0  0  0
   -1.1900    0.0870    1.2760 O   0  0  0  0  0  0  0  0  0  0  0  0
   -0.7120   -0.0550   -0.0450 C   0  0  2  0  0  0  0  0  0  0  0  0
    0.4300    0.9700   -0.1010 C   0  0  2  0  0  0  0  0  0  0  0  0
    1.2510    0.8690   -1.3580 C   0  0  0  0  0  0  0  0  0  0  0  0
    2.7030    1.1620   -0.9060 C   0  0  2  0  0  0  0  0  0  0  0  0
    3.2510    0.0250   -0.2830 O   0  0  0  0  0  0  0  0  0  0  0  0
    4.4420   -0.5710   -0.6860 C   0  0  0  0  0  0  0  0  0  0  0  0
    5.0350   -0.0440   -1.6580 O   0  0  0  0  0  0  0  0  0  0  0  0
    4.9820   -1.7040   -0.0590 N   0  0  0  0  0  0  0  0  0  0  0  0
    6.2190   -2.3070   -0.4930 C   0  0  0  0  0  0  0  0  0  0  0  0
    7.3770   -1.3580   -0.4060 C   0  0  0  0  0  0  0  0  0  0  0  0
    8.5120   -2.0520   -0.8490 O   0  0  0  0  0  0  0  0  0  0  0  0
    9.9370   -1.0890   -0.8080 P   0  0  0  0  0  0  0  0  0  0  0  0
    9.6530    0.5240   -1.3440 O   0  0  0  0  0  0  0  0  0  0  0  0
   10.5760   -1.1170    0.7950 O   0  0  0  0  0  0  0  0  0  0  0  0
    2.6290    2.2670    0.1530 C   0  0  0  0  0  0  0  0  0  0  0  0
    1.9430    1.7910    1.2800 O   0  0  0  0  0  0  0  0  0  0  0  0
    1.3600    0.6540    0.9380 O   0  0  0  0  0  0  0  0  0  0  0  0
   -1.8170    0.3820   -0.9070 C   0  0  0  0  0  0  0  0  0  0  0  0
   -1.6990    0.6140   -2.3430 C   0  0  0  0  0  0  0  0  0  0  0  0
   -2.1540    2.0040   -2.7010 C   0  0  0  0  0  0  0  0  0  0  0  0
   -1.7710    2.3470   -3.8610 O   0  0  0  0  0  0  0  0  0  0  0  0
   -2.9040    2.9070   -1.9490 N   0  0  0  0  0  0  0  0  0  0  0  0
   -2.4540    4.2720   -1.8680 C   0  0  0  0  0  0  0  0  0  0  0  0
   -1.4160    4.6010   -2.4730 O   0  0  0  0  0  0  0  0  0  0  0  0
   -3.1040    5.2540   -1.1560 O   0  0  0  0  0  0  0  0  0  0  0  0
   -4.1210    2.7140   -1.2020 C   0  0  0  0  0  0  0  0  0  0  0  0
   -4.8740    1.4640   -1.2810 C   0  0  0  0  0  0  0  0  0  0  0  0
   -5.3280    1.0000    0.0130 N   0  0  0  0  0  0  0  0  0  0  0  0
   -4.7250    0.2170    0.9890 C   0  0  0  0  0  0  0  0  0  0  0  0
   -5.3250   -0.8960    1.2600 O   0  0  0  0  0  0  0  0  0  0  0  0
   -3.5060    0.4240    1.7910 C   0  0  1  0  0  0  0  0  0  0  0  0
   -3.8300    0.3840    3.1690 F   0  0  0  0  0  0  0  0  0  0  0  0
  1  2  2  0
  2  3  1  0
  2  4  1  0
  4  5  1  0
  5  6  2  0
  5  7  1  0
  7  8  1  0
  9  8  1  1
  9 10  1  0
  9 41  1  0
 10 11  1  0
 11 12  1  0
 11 28  1  6
 12 13  1  6
 12 27  1  0
 13 14  1  0
 14 15  1  1
 14 25  1  0
 15 16  1  0
 16 17  2  0
 16 18  1  0
 18 19  1  0
 19 20  1  0
 20 21  1  0
 21 22  1  0
 22 23  1  0
 22 24  1  0
 25 26  1  0
 26 27  1  0
 28 29  1  0
 29 30  1  0
 30 31  2  0
 30 32  1  0
 32 33  1  0
 32 36  1  0
 33 34  2  0
 33 35  1  0
 36 37  1  0
 37 38  1  0
 38 39  1  0
 39 40  2  0
 39 41  1  0
 41 42  1  1
M  END
