
     RDKit          3D

 13 15  0  0  0  0  0  0  0  0999 V2000
    2.1920   -1.1190   -0.3290 C   0  0  0  0  0  0  0  0  0  0  0  0
    1.0570   -1.7810   -0.4800 C   0  0  0  0  0  0  0  0  0  0  0  0
   -0.3680   -1.5420   -0.2250 C   0  0  0  0  0  0  0  0  0  0  0  0
   -1.1170   -0.4410   -0.0140 C   0  0  0  0  0  0  0  0  0  0  0  0
   -2.5450   -0.7780    0.1970 C   0  0  0  0  0  0  0  0  0  0  0  0
   -3.2950    0.8250   -0.3240 S   0  0  0  0  0  0  0  0  0  0  0  0
   -1.8050    1.7690   -0.1060 C   0  0  0  0  0  0  0  0  0  0  0  0
   -1.3240    2.9990   -0.0320 N   0  0  0  0  0  0  0  0  0  0  0  0
   -0.0180    2.9300    0.1620 N   0  0  0  0  0  0  0  0  0  0  0  0
    0.3050    1.6360    0.2070 C   0  0  0  0  0  0  0  0  0  0  0  0
   -0.8080    0.9160    0.0400 N   0  0  0  0  0  0  0  0  0  0  0  0
    1.7230    1.3110    0.4160 C   0  0  0  0  0  0  0  0  0  0  0  0
    2.4570    0.2350    0.2060 C   0  0  0  0  0  0  0  0  0  0  0  0
  1  2  2  0
  1 13  1  0
  2  3  1  0
  3  4  2  0
  4  5  1  0
  4 11  1  0
  5  6  1  0
  6  7  1  0
  7  8  2  0
  7 11  1  0
  8  9  1  0
  9 10  2  0
 10 11  1  0
 10 12  1  0
 12 13  2  0
M  END
