
     RDKit          3D

 24 26  0  0  0  0  0  0  0  0999 V2000
   -0.7610   -2.8170    1.6490 C   0  0  0  0  0  0  0  0  0  0  0  0
   -2.1700   -3.0380    1.2530 C   0  0  0  0  0  0  0  0  0  0  0  0
   -2.6260   -2.4340    0.1820 N   0  0  0  0  0  0  0  0  0  0  0  0
   -3.9120   -2.5240   -0.3340 N   0  0  0  0  0  0  0  0  0  0  0  0
   -3.9700   -1.7140   -1.4930 C   0  0  0  0  0  0  0  0  0  0  0  0
   -4.9770   -1.5260   -2.2580 O   0  0  0  0  0  0  0  0  0  0  0  0
   -2.6520   -1.1220   -1.6610 C   0  0  0  0  0  0  0  0  0  0  0  0
   -1.8950   -1.5620   -0.6690 C   0  0  0  0  0  0  0  0  0  0  0  0
   -0.5330   -1.2370   -0.4410 N   0  0  0  0  0  0  0  0  0  0  0  0
   -0.0640   -0.0610   -0.3950 C   0  0  0  0  0  0  0  0  0  0  0  0
    1.3610    0.1250   -0.1510 C   0  0  0  0  0  0  0  0  0  0  0  0
    1.8880    1.2730   -0.0930 O   0  0  0  0  0  0  0  0  0  0  0  0
    2.2260   -0.9870    0.0330 N   0  0  0  0  0  0  0  0  0  0  0  0
    3.5970   -0.7820    0.2660 C   0  0  0  0  0  0  0  0  0  0  0  0
    4.2710   -1.1670    1.3290 C   0  0  0  0  0  0  0  0  0  0  0  0
    5.6760   -0.7430    1.1490 C   0  0  0  0  0  0  0  0  0  0  0  0
    5.7220   -0.0670   -0.1500 C   0  0  0  0  0  0  0  0  0  0  0  0
    4.4980   -0.1020   -0.6460 C   0  0  0  0  0  0  0  0  0  0  0  0
   -0.9330    1.0250   -0.5790 N   0  0  0  0  0  0  0  0  0  0  0  0
   -2.1000    1.2300    0.2910 C   0  0  0  0  0  0  0  0  0  0  0  0
   -1.7850    2.5260    1.0190 C   0  0  0  0  0  0  0  0  0  0  0  0
   -1.7760    3.6320    0.0200 C   0  0  0  0  0  0  0  0  0  0  0  0
   -0.9140    3.4160   -1.1690 C   0  0  0  0  0  0  0  0  0  0  0  0
   -0.7470    2.0080   -1.6190 C   0  0  0  0  0  0  0  0  0  0  0  0
  1  2  1  0
  2  3  2  3
  3  4  1  0
  3  8  1  0
  4  5  1  0
  5  6  2  0
  5  7  1  0
  7  8  2  0
  8  9  1  0
  9 10  2  3
 10 11  1  0
 10 19  1  0
 11 12  2  0
 11 13  1  0
 13 14  1  0
 14 15  2  0
 14 18  1  0
 15 16  1  0
 16 17  1  0
 17 18  2  0
 19 20  1  0
 19 24  1  0
 20 21  1  0
 21 22  1  0
 22 23  1  0
 23 24  1  0
M  CHG  1   3   1
M  END
