
     RDKit          3D

 23 26  0  0  0  0  0  0  0  0999 V2000
    5.2740    2.2340   -3.1670 N   0  0  0  0  0  0  0  0  0  0  0  0
    4.3220    1.9080   -2.5770 C   0  0  0  0  0  0  0  0  0  0  0  0
    3.1560    1.5170   -1.8460 C   0  0  0  0  0  0  0  0  0  0  0  0
    2.2480    2.4700   -1.4370 C   0  0  0  0  0  0  0  0  0  0  0  0
    1.1060    2.1140   -0.7250 C   0  0  0  0  0  0  0  0  0  0  0  0
    0.8590    0.7930   -0.4130 C   0  0  0  0  0  0  0  0  0  0  0  0
   -0.3150    0.4290    0.3160 N   0  0  0  0  0  0  0  0  0  0  0  0
   -1.3700   -0.4300   -0.0830 C   0  0  0  0  0  0  0  0  0  0  0  0
   -1.6210   -0.8200   -1.2300 O   0  0  0  0  0  0  0  0  0  0  0  0
   -2.1390   -0.7910    1.1370 C   0  0  2  0  0  0  0  0  0  0  0  0
   -3.6240   -0.7410    0.9650 C   0  0  2  0  0  0  0  0  0  0  0  0
   -4.0000   -0.4460   -0.3420 O   0  0  0  0  0  0  0  0  0  0  0  0
   -4.1480    0.2760    1.9590 C   0  0  0  0  0  0  0  0  0  0  0  0
   -2.9700    0.3820    2.9380 C   0  0  0  0  0  0  0  0  0  0  0  0
   -1.8650    0.3380    2.0400 N   0  0  0  0  0  0  0  0  0  0  0  0
   -0.6440    0.8940    1.6380 C   0  0  0  0  0  0  0  0  0  0  0  0
    0.1150    1.6950    2.2870 O   0  0  0  0  0  0  0  0  0  0  0  0
    1.7810   -0.1450   -0.8320 C   0  0  0  0  0  0  0  0  0  0  0  0
    1.5500   -1.4700   -0.5280 C   0  0  0  0  0  0  0  0  0  0  0  0
    2.4270   -2.4420   -0.9170 C   0  0  0  0  0  0  0  0  0  0  0  0
    3.5680   -2.1330   -1.6230 C   0  0  0  0  0  0  0  0  0  0  0  0
    3.7840   -0.8010   -1.9180 C   0  0  0  0  0  0  0  0  0  0  0  0
    2.9160    0.1930   -1.5380 C   0  0  0  0  0  0  0  0  0  0  0  0
  1  2  3  0
  2  3  1  0
  3  4  2  0
  3 23  1  0
  4  5  1  0
  5  6  2  0
  6  7  1  0
  6 18  1  0
  7  8  1  0
  7 16  1  0
  8  9  2  0
 10  8  1  6
 10 11  1  0
 10 15  1  0
 11 12  1  6
 11 13  1  0
 13 14  1  0
 14 15  1  0
 15 16  1  0
 16 17  2  0
 18 19  2  0
 18 23  1  0
 19 20  1  0
 20 21  2  0
 21 22  1  0
 22 23  2  0
M  END
