
     RDKit          3D

 13 15  0  0  0  0  0  0  0  0999 V2000
   -2.7660   -0.6020    0.3960 C   0  0  0  0  0  0  0  0  0  0  0  0
   -1.4690   -0.4110    0.7780 C   0  0  0  0  0  0  0  0  0  0  0  0
   -0.4750   -0.0660   -0.1630 C   0  0  0  0  0  0  0  0  0  0  0  0
   -0.9490    0.0460   -1.4280 C   0  0  0  0  0  0  0  0  0  0  0  0
   -2.2820   -0.1530   -1.7960 C   0  0  0  0  0  0  0  0  0  0  0  0
   -3.1910   -0.4800   -0.8680 N   0  0  0  0  0  0  0  0  0  0  0  0
    0.4490    0.4710   -2.3730 S   0  0  0  0  0  0  0  0  0  0  0  0
    1.6370    0.4790   -0.9930 C   0  0  0  0  0  0  0  0  0  0  0  0
    2.9430    0.7250   -0.9490 N   0  0  0  0  0  0  0  0  0  0  0  0
    3.6210    0.6710    0.2020 N   0  0  0  0  0  0  0  0  0  0  0  0
    2.8950    0.3550    1.2880 C   0  0  0  0  0  0  0  0  0  0  0  0
    1.5550    0.0960    1.2770 C   0  0  0  0  0  0  0  0  0  0  0  0
    0.8300    0.1510    0.0620 C   0  0  0  0  0  0  0  0  0  0  0  0
  1  2  2  0
  1  6  1  0
  2  3  1  0
  3  4  2  0
  3 13  1  0
  4  5  1  0
  4  7  1  0
  5  6  2  0
  7  8  1  0
  8  9  2  0
  8 13  1  0
  9 10  1  0
 10 11  2  0
 11 12  1  0
 12 13  2  0
M  END
