
     RDKit          3D

 25 27  0  0  0  0  0  0  0  0999 V2000
    7.4060   -0.4450   -0.2680 N   0  0  0  0  0  0  0  0  0  0  0  0
    6.0670   -0.2830   -0.7220 C   0  0  0  0  0  0  0  0  0  0  0  0
    5.7490   -0.5250   -2.0160 N   0  0  0  0  0  0  0  0  0  0  0  0
    4.4820   -0.3760   -2.4660 C   0  0  0  0  0  0  0  0  0  0  0  0
    3.4450    0.0260   -1.6450 C   0  0  0  0  0  0  0  0  0  0  0  0
    3.7200    0.2820   -0.3310 C   0  0  0  0  0  0  0  0  0  0  0  0
    5.0420    0.1180    0.1010 C   0  0  0  0  0  0  0  0  0  0  0  0
    5.3000    0.3790    1.4300 O   0  0  0  0  0  0  0  0  0  0  0  0
    4.2650    0.0630    2.3610 C   0  0  0  0  0  0  0  0  0  0  0  0
    2.9910    0.7090    1.9690 C   0  0  0  0  0  0  0  0  0  0  0  0
    2.7000    0.7020    0.5570 N   0  0  0  0  0  0  0  0  0  0  0  0
    1.3970    1.1110    0.1030 C   0  0  0  0  0  0  0  0  0  0  0  0
    0.3170    0.1200    0.4850 C   0  0  0  0  0  0  0  0  0  0  0  0
   -1.0470    0.5870   -0.0080 C   0  0  0  0  0  0  0  0  0  0  0  0
   -2.0700   -0.3800    0.3580 N   0  0  0  0  0  0  0  0  0  0  0  0
   -3.4240   -0.1290   -0.0130 C   0  0  0  0  0  0  0  0  0  0  0  0
   -3.6970    0.9240   -0.6450 O   0  0  0  0  0  0  0  0  0  0  0  0
   -4.5020   -1.1130    0.3490 C   0  0  0  0  0  0  0  0  0  0  0  0
   -5.7780   -0.6030   -0.1480 N   0  0  0  0  0  0  0  0  0  0  0  0
   -6.3560   -0.8420   -1.4160 C   0  0  0  0  0  0  0  0  0  0  0  0
   -5.8050   -1.4100   -2.3870 O   0  0  0  0  0  0  0  0  0  0  0  0
   -7.7310   -0.3070   -1.4040 C   0  0  0  0  0  0  0  0  0  0  0  0
   -7.8030    0.5220   -0.2270 N   0  0  0  0  0  0  0  0  0  0  0  0
   -6.6800    0.2410    0.5760 C   0  0  0  0  0  0  0  0  0  0  0  0
   -6.4220    0.6250    1.7560 O   0  0  0  0  0  0  0  0  0  0  0  0
  1  2  1  0
  2  3  2  0
  2  7  1  0
  3  4  1  0
  4  5  2  0
  5  6  1  0
  6  7  2  0
  6 11  1  0
  7  8  1  0
  8  9  1  0
  9 10  1  0
 10 11  1  0
 11 12  1  0
 12 13  1  0
 13 14  1  0
 14 15  1  0
 15 16  1  0
 16 17  2  0
 16 18  1  0
 18 19  1  0
 19 20  1  0
 19 24  1  0
 20 21  2  0
 20 22  1  0
 22 23  1  0
 23 24  1  0
 24 25  2  0
M  CHG  1   3   1
M  END
