
     RDKit          3D

 15 16  0  0  0  0  0  0  0  0999 V2000
    4.8160    1.3620   -0.3660 C   0  0  0  0  0  0  0  0  0  0  0  0
    3.8690    0.2630   -0.3720 N   0  0  0  0  0  0  0  0  0  0  0  0
    2.5610    0.8230   -0.1420 C   0  0  0  0  0  0  0  0  0  0  0  0
    1.5050   -0.2390   -0.1300 C   0  0  0  0  0  0  0  0  0  0  0  0
    1.7840   -1.5540   -0.3160 C   0  0  0  0  0  0  0  0  0  0  0  0
    0.7600   -2.4720   -0.2910 C   0  0  0  0  0  0  0  0  0  0  0  0
   -0.5370   -2.0000   -0.0730 C   0  0  0  0  0  0  0  0  0  0  0  0
   -0.8190   -0.6630    0.1160 C   0  0  0  0  0  0  0  0  0  0  0  0
   -2.1830   -0.1940    0.3430 C   0  0  0  0  0  0  0  0  0  0  0  0
   -2.4830    1.1290    0.5320 C   0  0  0  0  0  0  0  0  0  0  0  0
   -3.7740    1.6010    0.7490 C   0  0  0  0  0  0  0  0  0  0  0  0
   -4.7980    0.6860    0.7750 C   0  0  0  0  0  0  0  0  0  0  0  0
   -4.5270   -0.6320    0.5900 C   0  0  0  0  0  0  0  0  0  0  0  0
   -3.2160   -1.0880    0.3710 C   0  0  0  0  0  0  0  0  0  0  0  0
    0.2430    0.1660    0.0760 N   0  0  0  0  0  0  0  0  0  0  0  0
  1  2  1  0
  2  3  1  0
  3  4  1  0
  4  5  2  0
  4 15  1  0
  5  6  1  0
  6  7  2  0
  7  8  1  0
  8  9  1  0
  8 15  2  0
  9 10  2  0
  9 14  1  0
 10 11  1  0
 11 12  2  0
 12 13  1  0
 13 14  2  0
M  CHG  1  15   1
M  END
