
     RDKit          3D

 25 27  0  0  0  0  0  0  0  0999 V2000
   -5.4250    0.9410    0.0260 C   0  0  0  0  0  0  0  0  0  0  0  0
   -5.0320   -0.2310    0.8820 C   0  0  2  0  0  0  0  0  0  0  0  0
   -5.8380   -0.2740    2.1610 C   0  0  0  0  0  0  0  0  0  0  0  0
   -7.1800   -0.3860    1.8030 O   0  0  0  0  0  0  0  0  0  0  0  0
   -3.5490   -0.1390    1.1570 C   0  0  0  0  0  0  0  0  0  0  0  0
   -2.8600   -0.1750   -0.1170 N   0  0  0  0  0  0  0  0  0  0  0  0
   -1.4270   -0.1070   -0.2020 C   0  0  0  0  0  0  0  0  0  0  0  0
   -0.8100   -0.0130    0.8880 O   0  0  0  0  0  0  0  0  0  0  0  0
   -0.7340   -0.1430   -1.4860 C   0  0  0  0  0  0  0  0  0  0  0  0
   -1.3790   -0.2430   -2.6570 N   0  0  0  0  0  0  0  0  0  0  0  0
   -0.7580   -0.2780   -3.8520 C   0  0  0  0  0  0  0  0  0  0  0  0
    0.5890   -0.2080   -3.8290 N   0  0  0  0  0  0  0  0  0  0  0  0
    1.3010   -0.1070   -2.7000 C   0  0  0  0  0  0  0  0  0  0  0  0
    0.6430   -0.0720   -1.4760 C   0  0  0  0  0  0  0  0  0  0  0  0
    1.3310    0.0310   -0.2770 O   0  0  0  0  0  0  0  0  0  0  0  0
    2.7230    0.1040   -0.2530 C   0  0  0  0  0  0  0  0  0  0  0  0
    3.4210    0.2070    0.9470 C   0  0  0  0  0  0  0  0  0  0  0  0
    4.7970    0.2800    0.9740 C   0  0  0  0  0  0  0  0  0  0  0  0
    5.5170    0.3860    2.2050 N   0  0  0  0  0  0  0  0  0  0  0  0
    6.9040    0.4600    2.2520 N   0  0  0  0  0  0  0  0  0  0  0  0
    7.6160   -0.5850    2.2880 N   0  0  0  0  0  0  0  0  0  0  0  0
    5.4630    0.2460   -0.2330 C   0  0  0  0  0  0  0  0  0  0  0  0
    4.7600    0.1420   -1.4300 C   0  0  0  0  0  0  0  0  0  0  0  0
    3.3820    0.0700   -1.4630 C   0  0  0  0  0  0  0  0  0  0  0  0
    2.6860   -0.0340   -2.6700 O   0  0  0  0  0  0  0  0  0  0  0  0
  2  1  1  6
  2  3  1  0
  2  5  1  0
  3  4  1  0
  5  6  1  0
  6  7  1  0
  7  8  2  0
  7  9  1  0
  9 10  2  0
  9 14  1  0
 10 11  1  0
 11 12  2  0
 12 13  1  0
 13 14  2  0
 13 25  1  0
 14 15  1  0
 15 16  1  0
 16 17  2  0
 16 24  1  0
 17 18  1  0
 18 19  1  0
 18 22  2  0
 19 20  1  0
 20 21  2  0
 22 23  1  0
 23 24  2  0
 24 25  1  0
M  CHG  1  21   1
M  END
