
     RDKit          3D

 25 27  0  0  0  0  0  0  0  0999 V2000
   -4.8670    2.2400    0.0420 C   0  0  0  0  0  0  0  0  0  0  0  0
   -4.9320    0.9340   -0.5090 O   0  0  0  0  0  0  0  0  0  0  0  0
   -4.0380   -0.0600   -0.1930 C   0  0  0  0  0  0  0  0  0  0  0  0
   -3.0190    0.2010    0.7000 C   0  0  0  0  0  0  0  0  0  0  0  0
   -2.1220   -0.7810    1.0210 C   0  0  0  0  0  0  0  0  0  0  0  0
   -1.0660   -0.6170    1.9060 O   0  0  0  0  0  0  0  0  0  0  0  0
    0.1480   -0.1800    1.3530 C   0  0  0  0  0  0  0  0  0  0  0  0
    1.2090   -1.0170    1.1590 C   0  0  0  0  0  0  0  0  0  0  0  0
    2.3870   -0.5350    0.6090 C   0  0  0  0  0  0  0  0  0  0  0  0
    3.4870   -1.3570    0.3970 O   0  0  0  0  0  0  0  0  0  0  0  0
    3.3750   -2.7220    0.7620 C   0  0  0  0  0  0  0  0  0  0  0  0
    2.5280    0.8080    0.2380 C   0  0  0  0  0  0  0  0  0  0  0  0
    3.7850    1.2600   -0.3290 C   0  0  0  0  0  0  0  0  0  0  0  0
    4.9340    0.7650    0.0650 N   0  0  0  0  0  0  0  0  0  0  0  0
    6.1550    1.1870   -0.4690 N   0  0  0  0  0  0  0  0  0  0  0  0
    6.1820    2.1880   -1.4790 C   0  0  0  0  0  0  0  0  0  0  0  0
    5.0520    2.6730   -1.8650 N   0  0  0  0  0  0  0  0  0  0  0  0
    3.8140    2.2560   -1.3340 N   0  0  0  0  0  0  0  0  0  0  0  0
    1.4300    1.6110    0.4540 C   0  0  0  0  0  0  0  0  0  0  0  0
    1.4900    2.8190    0.1460 O   0  0  0  0  0  0  0  0  0  0  0  0
    0.2820    1.1080    0.9980 N   0  0  0  0  0  0  0  0  0  0  0  0
   -2.2680   -2.0310    0.4280 C   0  0  0  0  0  0  0  0  0  0  0  0
   -3.2800   -2.2700   -0.4510 C   0  0  0  0  0  0  0  0  0  0  0  0
   -4.1830   -1.2900   -0.7780 C   0  0  0  0  0  0  0  0  0  0  0  0
   -5.2460   -1.5260   -1.6950 N   0  0  0  0  0  0  0  0  0  0  0  0
  1  2  1  0
  2  3  1  0
  3  4  2  0
  3 24  1  0
  4  5  1  0
  5  6  1  0
  5 22  2  0
  6  7  1  0
  7  8  2  0
  7 21  1  0
  8  9  1  0
  9 10  1  0
  9 12  2  0
 10 11  1  0
 12 13  1  0
 12 19  1  0
 13 14  2  0
 13 18  1  0
 14 15  1  0
 15 16  1  0
 16 17  2  0
 17 18  1  0
 19 20  2  0
 19 21  1  0
 22 23  1  0
 23 24  2  0
 24 25  1  0
M  CHG  1  25   1
M  END
