
     RDKit          3D

 15 16  0  0  0  0  0  0  0  0999 V2000
   -4.5980    0.9500    1.0040 C   0  0  0  0  0  0  0  0  0  0  0  0
   -3.2120    0.7340    0.4570 C   0  0  0  0  0  0  0  0  0  0  0  0
   -2.7690   -0.6120    0.6800 N   0  0  0  0  0  0  0  0  0  0  0  0
   -1.5050   -1.0690    0.2630 C   0  0  0  0  0  0  0  0  0  0  0  0
   -1.0840   -2.3640    0.4800 C   0  0  0  0  0  0  0  0  0  0  0  0
    0.1540   -2.8260    0.0750 C   0  0  0  0  0  0  0  0  0  0  0  0
    1.0200   -1.9510   -0.5810 C   0  0  0  0  0  0  0  0  0  0  0  0
    0.6300   -0.6470   -0.8150 C   0  0  0  0  0  0  0  0  0  0  0  0
    1.4750    0.2770   -1.4770 N   0  0  0  0  0  0  0  0  0  0  0  0
    2.5260    0.7410   -0.8870 C   0  0  0  0  0  0  0  0  0  0  0  0
    3.4900    1.6930   -1.4290 C   0  0  0  0  0  0  0  0  0  0  0  0
    4.4070    1.8950   -0.4970 C   0  0  0  0  0  0  0  0  0  0  0  0
    4.0990    1.1040    0.6790 C   0  0  0  0  0  0  0  0  0  0  0  0
    2.9910    0.4200    0.4570 C   0  0  0  0  0  0  0  0  0  0  0  0
   -0.6080   -0.2350   -0.3950 C   0  0  0  0  0  0  0  0  0  0  0  0
  1  2  1  0
  2  3  1  0
  3  4  1  0
  4  5  2  0
  4 15  1  0
  5  6  1  0
  6  7  2  0
  7  8  1  0
  8  9  1  0
  8 15  2  0
  9 10  2  3
 10 11  1  0
 10 14  1  0
 11 12  2  0
 12 13  1  0
 13 14  2  0
M  CHG  1   9   1
M  END
