
     RDKit          3D

 26 28  0  0  0  0  0  0  0  0999 V2000
   -3.0000   -2.8010    0.0440 C   0  0  0  0  0  0  0  0  0  0  0  0
   -3.4260   -1.8860   -1.1010 C   0  0  0  0  0  0  0  0  0  0  0  0
   -4.0040   -0.6540   -0.5060 C   0  0  0  0  0  0  0  0  0  0  0  0
   -5.3440   -0.5240   -0.3950 N   0  0  0  0  0  0  0  0  0  0  0  0
   -5.9570    0.5240    0.1340 C   0  0  0  0  0  0  0  0  0  0  0  0
   -7.3790    0.6040    0.2250 N   0  0  0  0  0  0  0  0  0  0  0  0
   -5.1550    1.5210    0.5870 N   0  0  0  0  0  0  0  0  0  0  0  0
   -3.8360    1.4660    0.5120 C   0  0  0  0  0  0  0  0  0  0  0  0
   -3.0690    2.5500    0.9960 N   0  0  0  0  0  0  0  0  0  0  0  0
   -3.2110    0.3560   -0.0470 C   0  0  0  0  0  0  0  0  0  0  0  0
   -1.7550    0.3560   -0.1230 C   0  0  0  0  0  0  0  0  0  0  0  0
   -0.9150   -0.3520    0.6940 C   0  0  0  0  0  0  0  0  0  0  0  0
    0.4800   -0.2880    0.5460 C   0  0  0  0  0  0  0  0  0  0  0  0
    1.0600    0.4900   -0.4270 C   0  0  0  0  0  0  0  0  0  0  0  0
    2.4780    0.5520   -0.5790 N   0  0  0  0  0  0  0  0  0  0  0  0
    3.2900   -0.3590    0.1690 C   0  0  0  0  0  0  0  0  0  0  0  0
    4.7370   -0.1180   -0.0370 C   0  0  0  0  0  0  0  0  0  0  0  0
    5.5520   -1.1810   -0.3430 C   0  0  0  0  0  0  0  0  0  0  0  0
    6.9260   -1.0450   -0.5500 C   0  0  0  0  0  0  0  0  0  0  0  0
    7.7410   -2.0740   -0.8520 F   0  0  0  0  0  0  0  0  0  0  0  0
    7.4750    0.2260   -0.4390 C   0  0  0  0  0  0  0  0  0  0  0  0
    6.6490    1.2930   -0.1320 C   0  0  0  0  0  0  0  0  0  0  0  0
    7.2430    2.5230   -0.0350 F   0  0  0  0  0  0  0  0  0  0  0  0
    5.3140    1.1340    0.0660 C   0  0  0  0  0  0  0  0  0  0  0  0
    0.2200    1.2110   -1.2580 C   0  0  0  0  0  0  0  0  0  0  0  0
   -1.1400    1.1330   -1.0950 C   0  0  0  0  0  0  0  0  0  0  0  0
  1  2  1  0
  2  3  1  0
  3  4  2  0
  3 10  1  0
  4  5  1  0
  5  6  1  0
  5  7  2  0
  7  8  1  0
  8  9  1  0
  8 10  2  0
 10 11  1  0
 11 12  2  0
 11 26  1  0
 12 13  1  0
 13 14  2  0
 14 15  1  0
 14 25  1  0
 15 16  1  0
 16 17  1  0
 17 18  2  0
 17 24  1  0
 18 19  1  0
 19 20  1  0
 19 21  2  0
 21 22  1  0
 22 23  1  0
 22 24  2  0
 25 26  2  0
M  END
