
     RDKit          3D

 31 32  0  0  0  0  0  0  0  0999 V2000
   -1.1580    1.5460   -1.3940 C   0  0  0  0  0  0  0  0  0  0  0  0
   -1.0200    0.6410   -0.2490 C   0  0  2  0  0  0  0  0  0  0  0  0
   -2.1580    0.7470    0.7210 C   0  0  0  0  0  0  0  0  0  0  0  0
   -3.4560    0.3730    0.0880 C   0  0  0  0  0  0  0  0  0  0  0  0
   -4.5600    0.4480    1.0290 N   0  0  0  0  0  0  0  0  0  0  0  0
   -5.8610    0.0920    0.6230 C   0  0  0  0  0  0  0  0  0  0  0  0
   -6.0880   -0.3410   -0.6870 C   0  0  0  0  0  0  0  0  0  0  0  0
   -7.3450   -0.6970   -1.1130 C   0  0  0  0  0  0  0  0  0  0  0  0
   -8.3860   -0.6090   -0.1900 C   0  0  0  0  0  0  0  0  0  0  0  0
   -8.1610   -0.1860    1.0820 C   0  0  0  0  0  0  0  0  0  0  0  0
   -6.9250    0.1430    1.4340 N   0  0  0  0  0  0  0  0  0  0  0  0
   -9.3830   -0.1980    1.7780 O   0  0  0  0  0  0  0  0  0  0  0  0
  -10.3370   -0.8150    0.9390 C   0  0  2  0  0  0  0  0  0  0  0  0
  -10.6950   -2.1980    1.4180 C   0  0  0  0  0  0  0  0  0  0  0  0
   -9.7430   -0.8970   -0.3330 O   0  0  0  0  0  0  0  0  0  0  0  0
    0.3000    0.5620    0.4470 C   0  0  0  0  0  0  0  0  0  0  0  0
    1.3290    0.1370   -0.3430 O   0  0  0  0  0  0  0  0  0  0  0  0
    2.0210    0.6400   -1.3850 C   0  0  0  0  0  0  0  0  0  0  0  0
    1.7130    1.7940   -1.7800 O   0  0  0  0  0  0  0  0  0  0  0  0
    3.1110   -0.0560   -2.0970 C   0  0  1  0  0  0  0  0  0  0  0  0
    2.8030   -1.5490   -2.2430 C   0  0  0  0  0  0  0  0  0  0  0  0
    2.9570    0.4450   -3.5760 C   0  0  0  0  0  0  0  0  0  0  0  0
    4.5020    0.2460   -1.7360 C   0  0  0  0  0  0  0  0  0  0  0  0
    4.9650    0.0390   -0.4200 N   0  0  0  0  0  0  0  0  0  0  0  0
    4.5250    0.9520    0.5690 C   0  0  0  0  0  0  0  0  0  0  0  0
    5.0100    0.6080    1.9440 C   0  0  0  0  0  0  0  0  0  0  0  0
    6.4770    0.5810    2.1440 C   0  0  0  0  0  0  0  0  0  0  0  0
    7.2540   -0.3850    1.3170 C   0  0  0  0  0  0  0  0  0  0  0  0
    9.0550   -0.1800    1.8370 P   0  0  0  0  0  0  0  0  0  0  0  0
    9.8360   -1.7310    1.7710 O   0  0  0  0  0  0  0  0  0  0  0  0
    9.1130    0.3610    3.4940 O   0  0  0  0  0  0  0  0  0  0  0  0
  2  1  1  6
  2  3  1  0
  2 16  1  0
  3  4  1  0
  4  5  1  0
  5  6  1  0
  6  7  2  0
  6 11  1  0
  7  8  1  0
  8  9  2  0
  9 10  1  0
  9 15  1  0
 10 11  2  0
 10 12  1  0
 12 13  1  0
 13 14  1  1
 13 15  1  0
 16 17  1  0
 17 18  1  0
 18 19  2  0
 18 20  1  0
 20 21  1  6
 20 22  1  0
 20 23  1  0
 23 24  1  0
 24 25  1  0
 25 26  1  0
 26 27  1  0
 27 28  1  0
 28 29  1  0
 29 30  1  0
 29 31  1  0
M  END
