
     RDKit          3D

 32 33  0  0  0  0  0  0  0  0999 V2000
    9.2050    1.5520    1.2960 C   0  0  0  0  0  0  0  0  0  0  0  0
    8.4160    0.9580    0.1420 C   0  0  0  0  0  0  0  0  0  0  0  0
    7.1030    0.4160    0.7090 C   0  0  0  0  0  0  0  0  0  0  0  0
    6.3480   -0.1650   -0.4640 C   0  0  0  0  0  0  0  0  0  0  0  0
    5.0800   -0.7280   -0.1360 N   0  0  0  0  0  0  0  0  0  0  0  0
    4.0250    0.0420    0.4480 C   0  0  0  0  0  0  0  0  0  0  0  0
    4.2910    1.2500    0.6520 O   0  0  0  0  0  0  0  0  0  0  0  0
    2.7690   -0.5970    0.7530 C   0  0  2  0  0  0  0  0  0  0  0  0
    2.8960   -1.9980    0.5110 O   0  0  0  0  0  0  0  0  0  0  0  0
    2.1370   -2.6890    1.4820 C   0  0  0  0  0  0  0  0  0  0  0  0
    0.9170   -3.2050    0.7640 C   0  0  0  0  0  0  0  0  0  0  0  0
    0.0710   -2.0790    0.5080 O   0  0  0  0  0  0  0  0  0  0  0  0
    0.3870   -0.8540   -0.0880 C   0  0  0  0  0  0  0  0  0  0  0  0
   -0.7000   -0.4170   -0.7970 C   0  0  0  0  0  0  0  0  0  0  0  0
   -1.9090   -1.1680   -0.8780 N   0  0  0  0  0  0  0  0  0  0  0  0
   -3.1210   -0.6620   -1.5250 C   0  0  0  0  0  0  0  0  0  0  0  0
   -3.7550    0.3620   -0.6310 C   0  0  1  0  0  0  0  0  0  0  0  0
   -4.7850    1.1620   -1.2610 C   0  0  0  0  0  0  0  0  0  0  0  0
   -6.0850    0.8060   -1.7650 C   0  0  0  0  0  0  0  0  0  0  0  0
   -6.3580   -0.2190   -2.6830 N   0  0  0  0  0  0  0  0  0  0  0  0
   -6.3420   -1.6050   -2.4060 C   0  0  0  0  0  0  0  0  0  0  0  0
   -6.0970   -2.0220   -1.2490 O   0  0  0  0  0  0  0  0  0  0  0  0
   -6.6000   -2.5410   -3.4210 O   0  0  0  0  0  0  0  0  0  0  0  0
   -4.1490   -0.3070    0.5610 O   0  0  0  0  0  0  0  0  0  0  0  0
   -3.4230    0.1090    1.6290 C   0  0  0  0  0  0  0  0  0  0  0  0
   -3.6710    1.5260    2.0470 C   0  0  0  0  0  0  0  0  0  0  0  0
   -5.0760    1.6900    2.5350 C   0  0  0  0  0  0  0  0  0  0  0  0
   -6.0770    1.3880    1.6730 O   0  0  0  0  0  0  0  0  0  0  0  0
   -0.5890    0.7820   -1.4650 C   0  0  0  0  0  0  0  0  0  0  0  0
    0.5940    1.5220   -1.4140 C   0  0  0  0  0  0  0  0  0  0  0  0
    1.6810    1.0380   -0.6750 C   0  0  0  0  0  0  0  0  0  0  0  0
    1.5860   -0.1380   -0.0160 C   0  0  0  0  0  0  0  0  0  0  0  0
  1  2  1  0
  2  3  1  0
  3  4  1  0
  4  5  1  0
  5  6  1  0
  6  7  2  0
  8  6  1  6
  8  9  1  0
  8 32  1  0
  9 10  1  0
 10 11  1  0
 11 12  1  0
 12 13  1  0
 13 14  2  0
 13 32  1  0
 14 15  1  0
 14 29  1  0
 15 16  1  0
 17 16  1  6
 17 18  1  0
 17 24  1  0
 18 19  1  0
 19 20  1  0
 20 21  1  0
 21 22  2  0
 21 23  1  0
 24 25  1  0
 25 26  1  0
 26 27  1  0
 27 28  1  0
 29 30  2  0
 30 31  1  0
 31 32  2  0
M  END
