
     RDKit          3D

 32 34  0  0  0  0  0  0  0  0999 V2000
   -6.3440    2.6400   -1.0240 N   0  0  0  0  0  0  0  0  0  0  0  0
   -6.0380    1.5400   -0.1800 C   0  0  0  0  0  0  0  0  0  0  0  0
   -4.9190    0.8370   -0.3990 N   0  0  0  0  0  0  0  0  0  0  0  0
   -4.6160   -0.2060    0.3890 C   0  0  0  0  0  0  0  0  0  0  0  0
   -5.4580   -0.5640    1.4350 C   0  0  0  0  0  0  0  0  0  0  0  0
   -4.8730   -1.6250    2.0110 N   0  0  0  0  0  0  0  0  0  0  0  0
   -3.7230   -1.9050    1.3460 C   0  0  0  0  0  0  0  0  0  0  0  0
   -3.5650   -1.0260    0.3420 N   0  0  0  0  0  0  0  0  0  0  0  0
   -2.4410   -1.0310   -0.5740 C   0  0  2  0  0  0  0  0  0  0  0  0
   -1.3530   -1.6360    0.0430 O   0  0  0  0  0  0  0  0  0  0  0  0
   -0.2120   -1.2240   -0.6200 C   0  0  2  0  0  0  0  0  0  0  0  0
    0.8540   -0.9510    0.4330 C   0  0  0  0  0  0  0  0  0  0  0  0
    1.9910   -0.5390   -0.2570 O   0  0  0  0  0  0  0  0  0  0  0  0
    3.2020   -0.2240    0.8530 P   0  0  2  0  0  0  0  0  0  0  0  0
    2.5290    0.1760    2.1680 O   0  0  0  0  0  0  0  0  0  0  0  0
    4.2080    1.0230    0.3060 O   0  0  0  0  0  0  0  0  0  0  0  0
    4.1570   -1.5980    1.0690 O   0  0  0  0  0  0  0  0  0  0  0  0
    5.7750   -1.2860    0.7040 P   0  0  2  0  0  0  0  0  0  0  0  0
    6.4790   -2.6100    0.5030 O   0  0  0  0  0  0  0  0  0  0  0  0
    6.4570   -0.4030    1.9730 O   0  0  0  0  0  0  0  0  0  0  0  0
    5.9130   -0.3630   -0.6990 O   0  0  0  0  0  0  0  0  0  0  0  0
    7.1350    0.7740   -0.6210 P   0  0  1  0  0  0  0  0  0  0  0  0
    6.6520    2.0610   -1.2950 O   0  0  0  0  0  0  0  0  0  0  0  0
    7.6290    1.1390    0.9280 O   0  0  0  0  0  0  0  0  0  0  0  0
    8.4760    0.1930   -1.4800 O   0  0  0  0  0  0  0  0  0  0  0  0
   -0.5290    0.0650   -1.3230 C   0  0  1  0  0  0  0  0  0  0  0  0
   -0.5320   -0.2040   -2.7060 O   0  0  0  0  0  0  0  0  0  0  0  0
   -1.9360    0.3530   -0.8400 C   0  0  1  0  0  0  0  0  0  0  0  0
   -2.6750    0.9710   -1.8530 O   0  0  0  0  0  0  0  0  0  0  0  0
   -6.6100    0.1570    1.6640 C   0  0  0  0  0  0  0  0  0  0  0  0
   -7.3970   -0.1320    2.5960 O   0  0  0  0  0  0  0  0  0  0  0  0
   -6.8670    1.1890    0.8470 N   0  0  0  0  0  0  0  0  0  0  0  0
  1  2  1  0
  2  3  2  0
  2 32  1  0
  3  4  1  0
  4  5  2  0
  4  8  1  0
  5  6  1  0
  5 30  1  0
  6  7  2  0
  7  8  1  0
  9  8  1  1
  9 10  1  0
  9 28  1  0
 10 11  1  0
 11 12  1  1
 11 26  1  0
 12 13  1  0
 13 14  1  0
 14 15  2  0
 14 16  1  6
 14 17  1  0
 17 18  1  0
 18 19  2  0
 18 20  1  1
 18 21  1  0
 21 22  1  0
 22 23  2  0
 22 24  1  1
 22 25  1  0
 26 27  1  6
 26 28  1  0
 28 29  1  6
 30 31  2  0
 30 32  1  0
M  END
