
     RDKit          3D

 32 32  0  0  0  0  0  0  0  0999 V2000
   -4.3620   -2.1500    1.2230 C   0  0  0  0  0  0  0  0  0  0  0  0
   -5.4410   -1.1670    1.4140 C   0  0  0  0  0  0  0  0  0  0  0  0
   -5.5820   -0.0020    0.9050 C   0  0  0  0  0  0  0  0  0  0  0  0
   -4.7590    0.7380   -0.0090 C   0  0  0  0  0  0  0  0  0  0  0  0
   -5.1380    1.9240   -0.3710 O   0  0  0  0  0  0  0  0  0  0  0  0
   -3.5590    0.3100   -0.5700 N   0  0  0  0  0  0  0  0  0  0  0  0
   -2.7210    1.0200   -1.4850 C   0  0  0  0  0  0  0  0  0  0  0  0
   -3.0280    2.1690   -2.1470 C   0  0  0  0  0  0  0  0  0  0  0  0
   -2.1050    2.7750   -3.0170 C   0  0  0  0  0  0  0  0  0  0  0  0
   -0.8680    2.2070   -3.2110 C   0  0  0  0  0  0  0  0  0  0  0  0
   -0.5260    1.0490   -2.5590 C   0  0  0  0  0  0  0  0  0  0  0  0
    0.7710    0.4040   -2.7350 C   0  0  0  0  0  0  0  0  0  0  0  0
    1.6050    0.9160   -3.5140 O   0  0  0  0  0  0  0  0  0  0  0  0
    1.1040   -0.7530   -2.0680 O   0  0  0  0  0  0  0  0  0  0  0  0
    2.3000   -1.4580   -2.1550 C   0  0  0  0  0  0  0  0  0  0  0  0
    3.5220   -0.6680   -1.7490 C   0  0  0  0  0  0  0  0  0  0  0  0
    3.3430   -0.2590   -0.3740 N   0  0  0  0  0  0  0  0  0  0  0  0
    4.4630    0.4850    0.1420 C   0  0  0  0  0  0  0  0  0  0  0  0
    5.6980   -0.3210    0.3190 C   0  0  1  0  0  0  0  0  0  0  0  0
    6.8170    0.5650    0.8630 C   0  0  1  0  0  0  0  0  0  0  0  0
    6.6020    1.1430    2.2010 C   0  0  0  0  0  0  0  0  0  0  0  0
    8.0370   -0.1460    0.8550 O   0  0  0  0  0  0  0  0  0  0  0  0
    5.5130   -1.5310    1.0770 N   0  0  0  0  0  0  0  0  0  0  0  0
    5.9730   -2.8070    0.4970 C   0  0  0  0  0  0  0  0  0  0  0  0
    4.9240   -1.6010    2.3550 C   0  0  0  0  0  0  0  0  0  0  0  0
    4.4530   -0.6570    3.0180 O   0  0  0  0  0  0  0  0  0  0  0  0
   -1.4560    0.4900   -1.7190 C   0  0  0  0  0  0  0  0  0  0  0  0
   -6.8500    0.7600    1.3370 C   0  0  2  0  0  0  0  0  0  0  0  0
   -6.4690    2.0120    2.0620 C   0  0  0  0  0  0  0  0  0  0  0  0
   -7.9900   -0.3340    2.2820 P   0  0  0  0  0  0  0  0  0  0  0  0
   -8.4800   -1.7030    1.3250 O   0  0  0  0  0  0  0  0  0  0  0  0
   -9.3820    0.5110    2.8330 O   0  0  0  0  0  0  0  0  0  0  0  0
  1  2  1  0
  2  3  2  3
  3  4  1  0
  3 28  1  0
  4  5  2  0
  4  6  1  0
  6  7  1  0
  7  8  2  0
  7 27  1  0
  8  9  1  0
  9 10  2  0
 10 11  1  0
 11 12  1  0
 11 27  2  0
 12 13  2  0
 12 14  1  0
 14 15  1  0
 15 16  1  0
 16 17  1  0
 17 18  1  0
 19 18  1  1
 19 20  1  0
 19 23  1  0
 20 21  1  1
 20 22  1  0
 23 24  1  0
 23 25  1  0
 25 26  2  0
 28 29  1  1
 28 30  1  0
 30 31  1  0
 30 32  1  0
M  END
