
     RDKit          3D

 30 32  0  0  0  0  0  0  0  0999 V2000
    0.1240    1.3550    3.3560 C   0  0  0  0  0  0  0  0  0  0  0  0
    0.1630    1.3460    1.9430 O   0  0  0  0  0  0  0  0  0  0  0  0
   -0.2380    0.2190    1.1960 C   0  0  0  0  0  0  0  0  0  0  0  0
   -0.6210   -0.7480    1.8810 O   0  0  0  0  0  0  0  0  0  0  0  0
   -0.1570    0.3170   -0.2650 C   0  0  2  0  0  0  0  0  0  0  0  0
    1.2220    0.5640   -0.7420 C   0  0  0  0  0  0  0  0  0  0  0  0
    2.2960   -0.1000   -0.2740 N   0  0  0  0  0  0  0  0  0  0  0  0
    3.4130    0.3430   -0.8980 C   0  0  0  0  0  0  0  0  0  0  0  0
    4.7860   -0.1010   -0.6960 C   0  0  0  0  0  0  0  0  0  0  0  0
    5.0670   -1.0870    0.2220 C   0  0  0  0  0  0  0  0  0  0  0  0
    6.3740   -1.5320    0.4350 C   0  0  0  0  0  0  0  0  0  0  0  0
    7.3760   -0.9650   -0.2910 C   0  0  0  0  0  0  0  0  0  0  0  0
    8.7000   -1.3770   -0.1120 O   0  0  0  0  0  0  0  0  0  0  0  0
    7.0840    0.0140   -1.2000 C   0  0  0  0  0  0  0  0  0  0  0  0
    5.8130    0.4220   -1.3840 N   0  0  0  0  0  0  0  0  0  0  0  0
    2.9730    1.2880   -1.7490 N   0  0  0  0  0  0  0  0  0  0  0  0
    1.6880    1.3900   -1.6310 O   0  0  0  0  0  0  0  0  0  0  0  0
   -1.0770    1.5000   -0.6330 C   0  0  0  0  0  0  0  0  0  0  0  0
   -2.3970    0.9190   -0.7960 N   0  0  0  0  0  0  0  0  0  0  0  0
   -3.4050    1.6040   -0.0610 C   0  0  0  0  0  0  0  0  0  0  0  0
   -4.7330    0.9330   -0.2980 C   0  0  1  0  0  0  0  0  0  0  0  0
   -4.7500   -0.3940    0.1150 O   0  0  0  0  0  0  0  0  0  0  0  0
   -6.1140    1.7980    0.5910 P   0  0  0  0  0  0  0  0  0  0  0  0
   -6.2930    1.0230    2.1540 O   0  0  0  0  0  0  0  0  0  0  0  0
   -7.5770    1.4750   -0.2870 O   0  0  0  0  0  0  0  0  0  0  0  0
   -2.3040   -0.5010   -0.5550 C   0  0  0  0  0  0  0  0  0  0  0  0
   -0.8640   -0.7640   -1.0040 C   0  0  1  0  0  0  0  0  0  0  0  0
   -0.8990   -0.4670   -2.4930 C   0  0  0  0  0  0  0  0  0  0  0  0
   -0.4340   -2.1590   -0.7130 C   0  0  0  0  0  0  0  0  0  0  0  0
   -1.2060   -3.0450   -1.5060 O   0  0  0  0  0  0  0  0  0  0  0  0
  1  2  1  0
  2  3  1  0
  3  4  2  0
  5  3  1  1
  5  6  1  0
  5 18  1  0
  5 27  1  0
  6  7  2  0
  6 17  1  0
  7  8  1  0
  8  9  1  0
  8 16  2  0
  9 10  2  0
  9 15  1  0
 10 11  1  0
 11 12  2  0
 12 13  1  0
 12 14  1  0
 14 15  2  0
 16 17  1  0
 18 19  1  0
 19 20  1  0
 19 26  1  0
 20 21  1  0
 21 22  1  1
 21 23  1  0
 23 24  1  0
 23 25  1  0
 26 27  1  0
 27 28  1  6
 27 29  1  0
 29 30  1  0
M  END
