
     RDKit          3D

 31 33  0  0  0  0  0  0  0  0999 V2000
    3.4310    1.3880    2.2680 C   0  0  0  0  0  0  0  0  0  0  0  0
    4.2580    0.3900    1.6470 C   0  0  0  0  0  0  0  0  0  0  0  0
    3.8420   -0.5280    0.7220 C   0  0  0  0  0  0  0  0  0  0  0  0
    2.4500   -0.4590    0.3630 C   0  0  0  0  0  0  0  0  0  0  0  0
    1.7260    0.4520    0.9390 O   0  0  0  0  0  0  0  0  0  0  0  0
    1.7040   -1.2360   -0.5370 N   0  0  0  0  0  0  0  0  0  0  0  0
    0.3470   -1.1490   -0.8690 C   0  0  0  0  0  0  0  0  0  0  0  0
   -0.5730   -0.3290   -0.4320 C   0  0  0  0  0  0  0  0  0  0  0  0
   -0.5440    0.7210    0.4920 O   0  0  0  0  0  0  0  0  0  0  0  0
   -1.8980    1.1250    0.7550 C   0  0  0  0  0  0  0  0  0  0  0  0
   -2.4460    1.0260   -0.6410 C   0  0  2  0  0  0  0  0  0  0  0  0
   -3.8460    1.2240   -0.8600 C   0  0  0  0  0  0  0  0  0  0  0  0
   -4.4120    2.2790   -0.4920 O   0  0  0  0  0  0  0  0  0  0  0  0
   -4.6640    0.2280   -1.5090 N   0  0  0  0  0  0  0  0  0  0  0  0
   -6.0480    0.5500   -1.8300 C   0  0  1  0  0  0  0  0  0  0  0  0
   -6.7300    0.9700   -0.6020 C   0  0  0  0  0  0  0  0  0  0  0  0
   -7.1260    2.1900   -0.6850 N   0  0  0  0  0  0  0  0  0  0  0  0
   -6.7860    2.7490   -1.9180 N   0  0  0  0  0  0  0  0  0  0  0  0
   -6.1060    1.7630   -2.6810 C   0  0  0  0  0  0  0  0  0  0  0  0
   -5.6600    1.9380   -3.8450 O   0  0  0  0  0  0  0  0  0  0  0  0
   -4.1360   -1.0470   -1.8330 C   0  0  0  0  0  0  0  0  0  0  0  0
   -4.8770   -1.8800   -2.3890 O   0  0  0  0  0  0  0  0  0  0  0  0
   -2.7240   -1.2940   -1.4820 C   0  0  0  0  0  0  0  0  0  0  0  0
   -1.9870   -0.3920   -0.9120 C   0  0  0  0  0  0  0  0  0  0  0  0
    4.8200   -1.4410    0.2220 C   0  0  0  0  0  0  0  0  0  0  0  0
    4.7950   -2.3910   -0.6150 C   0  0  0  0  0  0  0  0  0  0  0  0
    6.0370   -3.1110   -0.8680 O   0  0  0  0  0  0  0  0  0  0  0  0
    6.1330   -1.2110    0.8160 O   0  0  0  0  0  0  0  0  0  0  0  0
    6.5360   -2.0850    2.2880 P   0  0  0  0  0  0  0  0  0  0  0  0
    7.8240   -1.2440    3.0810 O   0  0  0  0  0  0  0  0  0  0  0  0
    5.1830   -2.1080    3.3780 O   0  0  0  0  0  0  0  0  0  0  0  0
  1  2  1  0
  2  3  2  3
  3  4  1  0
  3 25  1  0
  4  5  2  0
  4  6  1  0
  6  7  1  0
  7  8  2  3
  8  9  1  0
  8 24  1  0
  9 10  1  0
 11 10  1  1
 11 12  1  0
 11 24  1  0
 12 13  2  0
 12 14  1  0
 15 14  1  1
 14 21  1  0
 15 16  1  0
 15 19  1  0
 16 17  2  0
 17 18  1  0
 18 19  1  0
 19 20  2  0
 21 22  2  0
 21 23  1  0
 23 24  2  0
 25 26  2  3
 25 28  1  0
 26 27  1  0
 28 29  1  0
 29 30  1  0
 29 31  1  0
M  END
