
     RDKit          3D

 31 33  0  0  0  0  0  0  0  0999 V2000
   -5.3070   -0.9120    3.0400 C   0  0  0  0  0  0  0  0  0  0  0  0
   -4.2880   -0.5300    2.0300 C   0  0  0  0  0  0  0  0  0  0  0  0
   -4.6120   -0.5400    0.6990 C   0  0  0  0  0  0  0  0  0  0  0  0
   -3.7120   -0.1960   -0.3000 C   0  0  0  0  0  0  0  0  0  0  0  0
   -4.1420   -0.2390   -1.5770 N   0  0  0  0  0  0  0  0  0  0  0  0
   -3.3180    0.0850   -2.5620 C   0  0  0  0  0  0  0  0  0  0  0  0
   -3.6510    0.0780   -3.9080 C   0  0  0  0  0  0  0  0  0  0  0  0
   -4.8170   -0.2590   -4.2310 O   0  0  0  0  0  0  0  0  0  0  0  0
   -2.7860    0.4140   -4.8810 N   0  0  0  0  0  0  0  0  0  0  0  0
   -1.5440    0.7700   -4.5090 C   0  0  0  0  0  0  0  0  0  0  0  0
   -0.7340    1.0870   -5.4430 O   0  0  0  0  0  0  0  0  0  0  0  0
   -1.1440    0.8040   -3.2320 N   0  0  0  0  0  0  0  0  0  0  0  0
   -1.9600    0.4790   -2.2050 C   0  0  0  0  0  0  0  0  0  0  0  0
   -1.5280    0.5210   -0.9110 N   0  0  0  0  0  0  0  0  0  0  0  0
   -0.2030    0.9100   -0.5910 C   0  0  0  0  0  0  0  0  0  0  0  0
    0.8130   -0.1920   -0.5660 C   0  0  2  0  0  0  0  0  0  0  0  0
    0.4870   -1.1480    0.3510 O   0  0  0  0  0  0  0  0  0  0  0  0
    2.1420    0.4380   -0.1570 C   0  0  2  0  0  0  0  0  0  0  0  0
    2.5340    1.4290   -1.0600 O   0  0  0  0  0  0  0  0  0  0  0  0
    3.2530   -0.5900   -0.1270 C   0  0  2  0  0  0  0  0  0  0  0  0
    2.9940   -1.6340    0.7320 O   0  0  0  0  0  0  0  0  0  0  0  0
    4.5270    0.1480    0.2200 C   0  0  0  0  0  0  0  0  0  0  0  0
    5.6410   -0.6870    0.1740 O   0  0  0  0  0  0  0  0  0  0  0  0
    6.9960    0.2410    0.5770 P   0  0  2  0  0  0  0  0  0  0  0  0
    7.3060    1.1700   -0.5500 O   0  0  0  0  0  0  0  0  0  0  0  0
    8.3330   -0.7340    0.9160 O   0  0  0  0  0  0  0  0  0  0  0  0
    6.5760    1.1500    1.9640 O   0  0  0  0  0  0  0  0  0  0  0  0
   -2.4080    0.1830    0.0370 C   0  0  0  0  0  0  0  0  0  0  0  0
   -2.1150    0.1830    1.3810 C   0  0  0  0  0  0  0  0  0  0  0  0
   -3.0210   -0.1630    2.3740 C   0  0  0  0  0  0  0  0  0  0  0  0
   -2.6460   -0.1440    3.8170 C   0  0  0  0  0  0  0  0  0  0  0  0
  1  2  1  0
  2  3  2  0
  2 30  1  0
  3  4  1  0
  4  5  1  0
  4 28  2  0
  5  6  2  0
  6  7  1  0
  6 13  1  0
  7  8  2  0
  7  9  1  0
  9 10  1  0
 10 11  2  0
 10 12  1  0
 12 13  2  0
 13 14  1  0
 14 15  1  0
 14 28  1  0
 15 16  1  0
 16 17  1  1
 16 18  1  0
 18 19  1  6
 18 20  1  0
 20 21  1  1
 20 22  1  0
 22 23  1  0
 23 24  1  0
 24 25  2  0
 24 26  1  1
 24 27  1  0
 28 29  1  0
 29 30  2  0
 30 31  1  0
M  END
