
     RDKit          3D

 31 33  0  0  0  0  0  0  0  0999 V2000
    0.3130    0.9920    0.8350 O   0  0  0  0  0  0  0  0  0  0  0  0
    1.4770    0.6030    1.0760 C   0  0  0  0  0  0  0  0  0  0  0  0
    2.4740    1.5530    1.4060 N   0  0  0  0  0  0  0  0  0  0  0  0
    2.2340    2.9680    1.4850 C   0  0  0  0  0  0  0  0  0  0  0  0
    1.1790    3.3080    2.5270 C   0  0  0  0  0  0  0  0  0  0  0  0
    1.0090    4.6880    2.5390 O   0  0  0  0  0  0  0  0  0  0  0  0
    1.7670   -0.8410    1.0050 C   0  0  0  0  0  0  0  0  0  0  0  0
    0.8210   -1.7080    0.6950 C   0  0  0  0  0  0  0  0  0  0  0  0
   -0.5110   -1.3140    0.4150 N   0  0  0  0  0  0  0  0  0  0  0  0
   -0.7960   -1.0800   -0.8440 C   0  0  0  0  0  0  0  0  0  0  0  0
    0.0980   -1.2010   -1.8130 N   0  0  0  0  0  0  0  0  0  0  0  0
   -0.1860   -0.9660   -3.0790 C   0  0  0  0  0  0  0  0  0  0  0  0
   -1.4230   -0.5900   -3.4280 N   0  0  0  0  0  0  0  0  0  0  0  0
   -2.3760   -0.4510   -2.4850 C   0  0  0  0  0  0  0  0  0  0  0  0
   -2.0990   -0.6880   -1.1640 C   0  0  0  0  0  0  0  0  0  0  0  0
   -3.0770   -0.6190   -0.1010 C   0  0  0  0  0  0  0  0  0  0  0  0
   -3.0910   -1.5280    0.7950 O   0  0  0  0  0  0  0  0  0  0  0  0
   -4.0440    0.4540   -0.0180 C   0  0  0  0  0  0  0  0  0  0  0  0
   -4.9620    0.4110    0.9640 C   0  0  0  0  0  0  0  0  0  0  0  0
   -5.9620    1.4540    1.1070 C   0  0  0  0  0  0  0  0  0  0  0  0
   -5.8440    2.5310    0.2370 O   0  0  0  0  0  0  0  0  0  0  0  0
   -4.9200    2.6080   -0.7710 C   0  0  0  0  0  0  0  0  0  0  0  0
   -4.0450    1.6040   -0.9000 C   0  0  0  0  0  0  0  0  0  0  0  0
    1.1270   -3.0550    0.6380 O   0  0  0  0  0  0  0  0  0  0  0  0
    2.3990   -3.5690    0.9920 C   0  0  0  0  0  0  0  0  0  0  0  0
    3.4150   -2.5150    0.6170 C   0  0  1  0  0  0  0  0  0  0  0  0
    3.6210   -2.3950   -0.7210 O   0  0  0  0  0  0  0  0  0  0  0  0
    5.1950   -2.7370   -1.2710 P   0  0  0  0  0  0  0  0  0  0  0  0
    5.8170   -1.2900   -2.0480 O   0  0  0  0  0  0  0  0  0  0  0  0
    5.2750   -4.0040   -2.4240 O   0  0  0  0  0  0  0  0  0  0  0  0
    3.0450   -1.3190    1.2650 O   0  0  0  0  0  0  0  0  0  0  0  0
  1  2  2  0
  2  3  1  0
  2  7  1  0
  3  4  1  0
  4  5  1  0
  5  6  1  0
  7  8  2  0
  7 31  1  0
  8  9  1  0
  8 24  1  0
  9 10  2  3
 10 11  1  0
 10 15  1  0
 11 12  2  0
 12 13  1  0
 13 14  1  0
 14 15  2  0
 15 16  1  0
 16 17  2  0
 16 18  1  0
 18 19  2  0
 18 23  1  0
 19 20  1  0
 20 21  1  0
 21 22  1  0
 22 23  2  0
 24 25  1  0
 25 26  1  0
 26 27  1  6
 26 31  1  0
 27 28  1  0
 28 29  1  0
 28 30  1  0
M  END
