
     RDKit          3D

 31 33  0  0  0  0  0  0  0  0999 V2000
   -2.7910   -2.6620   -6.0740 O   0  0  0  0  0  0  0  0  0  0  0  0
   -3.1620   -2.1760   -4.9860 C   0  0  0  0  0  0  0  0  0  0  0  0
   -2.2900   -1.3200   -4.2220 C   0  0  0  0  0  0  0  0  0  0  0  0
   -2.6420   -0.7810   -3.0610 C   0  0  0  0  0  0  0  0  0  0  0  0
   -1.7500    0.0690   -2.3220 C   0  0  0  0  0  0  0  0  0  0  0  0
   -1.8950    0.6720   -1.1900 C   0  0  0  0  0  0  0  0  0  0  0  0
   -3.0370    0.6670   -0.2910 C   0  0  0  0  0  0  0  0  0  0  0  0
   -3.9160   -0.2650   -0.0510 C   0  0  0  0  0  0  0  0  0  0  0  0
   -5.0270   -0.1290    0.8850 C   0  0  0  0  0  0  0  0  0  0  0  0
   -5.3610    0.8570    1.6210 N   0  0  0  0  0  0  0  0  0  0  0  0
   -6.4680    0.6220    2.3760 O   0  0  0  0  0  0  0  0  0  0  0  0
   -6.6500   -0.8030    2.3550 C   0  0  0  0  0  0  0  0  0  0  0  0
   -5.9930   -1.1270    1.1630 O   0  0  0  0  0  0  0  0  0  0  0  0
   -2.9980    1.9320    0.4100 N   0  0  0  0  0  0  0  0  0  0  0  0
   -1.8530    2.6580   -0.0630 C   0  0  0  0  0  0  0  0  0  0  0  0
   -1.7020    3.8760   -0.0520 O   0  0  0  0  0  0  0  0  0  0  0  0
   -0.8990    1.6160   -0.5660 C   0  0  1  0  0  0  0  0  0  0  0  0
   -0.0940    1.0150    0.5190 C   0  0  0  0  0  0  0  0  0  0  0  0
    1.1430    0.6490   -0.1620 N   0  0  0  0  0  0  0  0  0  0  0  0
    2.0060   -0.4180    0.2370 C   0  0  0  0  0  0  0  0  0  0  0  0
    3.0360    0.0710    1.2020 C   0  0  0  0  0  0  0  0  0  0  0  0
    3.0230    1.2820    1.5270 O   0  0  0  0  0  0  0  0  0  0  0  0
    3.9920   -0.8370    1.7200 N   0  0  0  0  0  0  0  0  0  0  0  0
    5.0180   -0.4360    2.6550 C   0  0  0  0  0  0  0  0  0  0  0  0
    5.8870    0.6150    2.0200 C   0  0  0  0  0  0  0  0  0  0  0  0
    6.7080   -0.0050    0.4770 P   0  0  0  0  0  0  0  0  0  0  0  0
    7.3570   -1.5810    0.6950 O   0  0  0  0  0  0  0  0  0  0  0  0
    5.6010   -0.0080   -0.8590 O   0  0  0  0  0  0  0  0  0  0  0  0
    1.2820    1.5400   -1.2450 C   0  0  0  0  0  0  0  0  0  0  0  0
    2.3530    1.7550   -1.8770 O   0  0  0  0  0  0  0  0  0  0  0  0
    0.0270    2.1230   -1.4710 O   0  0  0  0  0  0  0  0  0  0  0  0
  1  2  2  0
  2  3  1  0
  3  4  2  3
  4  5  1  0
  5  6  2  3
  6  7  1  0
  6 17  1  0
  7  8  2  3
  7 14  1  0
  8  9  1  0
  9 10  2  0
  9 13  1  0
 10 11  1  0
 11 12  1  0
 12 13  1  0
 14 15  1  0
 15 16  2  0
 15 17  1  0
 17 18  1  1
 17 31  1  0
 18 19  1  0
 19 20  1  0
 19 29  1  0
 20 21  1  0
 21 22  2  0
 21 23  1  0
 23 24  1  0
 24 25  1  0
 25 26  1  0
 26 27  1  0
 26 28  1  0
 29 30  2  0
 29 31  1  0
M  END
