
     RDKit          3D

 13 12  0  0  0  0  0  0  0  0999 V2000
    3.9070    1.0060   -1.1280 C   0  0  0  0  0  0  0  0  0  0  0  0
    2.9200    1.1010   -0.1310 O   0  0  0  0  0  0  0  0  0  0  0  0
    1.8540    0.1820   -0.0810 C   0  0  0  0  0  0  0  0  0  0  0  0
    1.8730   -0.6950   -0.9780 O   0  0  0  0  0  0  0  0  0  0  0  0
    0.8110    0.2830    0.9730 C   0  0  0  0  0  0  0  0  0  0  0  0
   -0.1790   -0.7040    0.8390 N   0  0  0  0  0  0  0  0  0  0  0  0
    0.1320   -2.0510    1.0670 C   0  0  0  0  0  0  0  0  0  0  0  0
   -1.5120   -0.3290    0.5810 C   0  0  2  0  0  0  0  0  0  0  0  0
   -1.5540    0.3700   -0.7760 C   0  0  0  0  0  0  0  0  0  0  0  0
   -1.1080   -0.5060   -1.7480 O   0  0  0  0  0  0  0  0  0  0  0  0
   -2.2080    0.8640    1.8220 P   0  0  0  0  0  0  0  0  0  0  0  0
   -3.1990   -0.0260    2.9270 O   0  0  0  0  0  0  0  0  0  0  0  0
   -3.1610    2.0550    1.0100 O   0  0  0  0  0  0  0  0  0  0  0  0
  1  2  1  0
  2  3  1  0
  3  4  2  0
  3  5  1  0
  5  6  1  0
  6  7  1  0
  6  8  1  0
  8  9  1  6
  8 11  1  0
  9 10  1  0
 11 12  1  0
 11 13  1  0
M  END
