
     RDKit          3D

 13 12  0  0  0  0  0  0  0  0999 V2000
    4.2450    0.0240    0.7800 C   0  0  0  0  0  0  0  0  0  0  0  0
    3.2700    0.1270   -0.2210 O   0  0  0  0  0  0  0  0  0  0  0  0
    1.9060   -0.0060    0.0350 C   0  0  0  0  0  0  0  0  0  0  0  0
    1.5600   -0.2250    1.2180 O   0  0  0  0  0  0  0  0  0  0  0  0
    1.0000    0.1230   -1.1170 C   0  0  0  0  0  0  0  0  0  0  0  0
   -0.3830   -0.0930   -0.8360 N   0  0  0  0  0  0  0  0  0  0  0  0
   -1.0140    0.8950   -0.0260 C   0  0  0  0  0  0  0  0  0  0  0  0
   -1.1720    2.2420   -0.6750 C   0  0  0  0  0  0  0  0  0  0  0  0
   -1.8090    3.0770    0.2650 O   0  0  0  0  0  0  0  0  0  0  0  0
   -0.6890   -1.4250   -0.4220 C   0  0  0  0  0  0  0  0  0  0  0  0
   -2.4960   -1.5980   -0.1230 P   0  0  0  0  0  0  0  0  0  0  0  0
   -3.0050   -3.2040   -0.6060 O   0  0  0  0  0  0  0  0  0  0  0  0
   -2.8460   -1.3790    1.5820 O   0  0  0  0  0  0  0  0  0  0  0  0
  1  2  1  0
  2  3  1  0
  3  4  2  0
  3  5  1  0
  5  6  1  0
  6  7  1  0
  6 10  1  0
  7  8  1  0
  8  9  1  0
 10 11  1  0
 11 12  1  0
 11 13  1  0
M  END
