
     RDKit          3D

 13 12  0  0  0  0  0  0  0  0999 V2000
   -2.4110   -2.2060   -0.3440 C   0  0  0  0  0  0  0  0  0  0  0  0
   -1.5970   -1.9860    0.7580 O   0  0  0  0  0  0  0  0  0  0  0  0
   -1.2300   -0.2920    0.8960 P   0  0  0  0  0  0  0  0  0  0  0  0
    0.4220    0.0280    0.1090 C   0  0  0  0  0  0  0  0  0  0  0  0
    1.5140   -0.3840    0.9270 N   0  0  0  0  0  0  0  0  0  0  0  0
    1.4600   -1.8050    1.2520 C   0  0  0  0  0  0  0  0  0  0  0  0
    2.7540   -0.1970    0.2100 C   0  0  0  0  0  0  0  0  0  0  0  0
    3.0580    1.2090    0.0550 C   0  0  0  0  0  0  0  0  0  0  0  0
    4.0890    1.5250   -0.6230 O   0  0  0  0  0  0  0  0  0  0  0  0
    2.3270    2.2480    0.5810 O   0  0  0  0  0  0  0  0  0  0  0  0
   -2.4230    0.5620   -0.0290 O   0  0  0  0  0  0  0  0  0  0  0  0
   -2.5450    1.8870    0.3170 C   0  0  0  0  0  0  0  0  0  0  0  0
   -3.5370    2.4340   -0.5110 O   0  0  0  0  0  0  0  0  0  0  0  0
  1  2  1  0
  2  3  1  0
  3  4  1  0
  3 11  1  0
  4  5  1  0
  5  6  1  0
  5  7  1  0
  7  8  1  0
  8  9  2  0
  8 10  1  0
 11 12  1  0
 12 13  1  0
M  END
