
     RDKit          3D

 13 12  0  0  0  0  0  0  0  0999 V2000
   -4.0040    1.6890    0.7000 C   0  0  0  0  0  0  0  0  0  0  0  0
   -3.0840    0.6690    1.0330 O   0  0  0  0  0  0  0  0  0  0  0  0
   -2.2810    0.1650    0.0290 C   0  0  0  0  0  0  0  0  0  0  0  0
   -2.4020    0.6330   -1.1270 O   0  0  0  0  0  0  0  0  0  0  0  0
   -1.2790   -0.9040    0.2520 C   0  0  1  0  0  0  0  0  0  0  0  0
   -2.0810   -2.1490    0.6590 C   0  0  0  0  0  0  0  0  0  0  0  0
   -0.6450   -1.1920   -0.9080 O   0  0  0  0  0  0  0  0  0  0  0  0
    0.7060   -1.1980   -0.9080 C   0  0  0  0  0  0  0  0  0  0  0  0
    1.3530    0.0260   -0.5510 N   0  0  0  0  0  0  0  0  0  0  0  0
    2.7920   -0.2220   -0.6210 C   0  0  0  0  0  0  0  0  0  0  0  0
    3.7620    1.2950   -0.1780 P   0  0  0  0  0  0  0  0  0  0  0  0
    5.4470    0.8510   -0.2010 O   0  0  0  0  0  0  0  0  0  0  0  0
    3.5460    2.5240   -1.3880 O   0  0  0  0  0  0  0  0  0  0  0  0
  1  2  1  0
  2  3  1  0
  3  4  2  0
  3  5  1  0
  5  6  1  6
  5  7  1  0
  7  8  1  0
  8  9  1  0
  9 10  1  0
 10 11  1  0
 11 12  1  0
 11 13  1  0
M  END
