
     RDKit          3D

 13 12  0  0  0  0  0  0  0  0999 V2000
   -3.6850   -2.0090   -0.8630 C   0  0  0  0  0  0  0  0  0  0  0  0
   -2.7390   -1.6740    0.2760 C   0  0  0  0  0  0  0  0  0  0  0  0
   -1.6080   -1.1080   -0.2730 O   0  0  0  0  0  0  0  0  0  0  0  0
   -0.7040   -0.7740    0.6570 O   0  0  0  0  0  0  0  0  0  0  0  0
    0.2690    0.1920    0.2370 C   0  0  0  0  0  0  0  0  0  0  0  0
    0.0260    1.5660    0.4920 C   0  0  0  0  0  0  0  0  0  0  0  0
    0.7930    2.5160    0.1800 N   0  0  0  0  0  0  0  0  0  0  0  0
    0.5610    3.8410    0.4250 O   0  0  0  0  0  0  0  0  0  0  0  0
   -0.2360    4.1670    1.4550 O   0  0  0  0  0  0  0  0  0  0  0  0
    1.2990   -0.3290   -0.3520 C   0  0  0  0  0  0  0  0  0  0  0  0
    2.4410    0.3930   -0.8830 C   0  0  0  0  0  0  0  0  0  0  0  0
    3.9920   -0.1920   -0.0010 P   0  0  0  0  0  0  0  0  0  0  0  0
    3.7830   -1.8820    0.3090 O   0  0  0  0  0  0  0  0  0  0  0  0
  1  2  1  0
  2  3  1  0
  3  4  1  0
  4  5  1  0
  5  6  1  0
  5 10  2  3
  6  7  2  3
  7  8  1  0
  8  9  1  0
 10 11  1  0
 11 12  1  0
 12 13  1  0
M  END
