
     RDKit          3D

 26 28  0  0  0  0  0  0  0  0999 V2000
   -4.6940    1.1150    1.3920 C   0  0  0  0  0  0  0  0  0  0  0  0
   -3.9780    0.4230    0.2280 C   0  0  0  0  0  0  0  0  0  0  0  0
   -4.6350   -0.8110   -0.2600 C   0  0  0  0  0  0  0  0  0  0  0  0
   -2.8910    0.9930   -0.1810 C   0  0  0  0  0  0  0  0  0  0  0  0
   -2.4390    2.2690    0.5180 C   0  0  2  0  0  0  0  0  0  0  0  0
   -2.3710    3.2960   -0.4350 F   0  0  0  0  0  0  0  0  0  0  0  0
   -1.2330    2.1130    1.1520 F   0  0  0  0  0  0  0  0  0  0  0  0
   -2.0340    0.5450   -1.2390 C   0  0  2  0  0  0  0  0  0  0  0  0
   -2.3450   -0.5980   -2.1040 C   0  0  0  0  0  0  0  0  0  0  0  0
   -1.0040   -0.7950   -2.8780 C   0  0  0  0  0  0  0  0  0  0  0  0
   -0.0310    0.0280   -2.0590 C   0  0  0  0  0  0  0  0  0  0  0  0
   -0.6720    0.2350   -0.8170 N   0  0  0  0  0  0  0  0  0  0  0  0
   -0.5560   -0.7450    0.1650 C   0  0  0  0  0  0  0  0  0  0  0  0
    0.7220   -0.9980    0.8020 C   0  0  0  0  0  0  0  0  0  0  0  0
    1.8560   -0.2740    0.5410 C   0  0  0  0  0  0  0  0  0  0  0  0
    3.0430   -0.5730    1.2220 C   0  0  0  0  0  0  0  0  0  0  0  0
    4.2460    0.1980    0.9420 C   0  0  0  0  0  0  0  0  0  0  0  0
    4.3850    1.2430    0.0440 C   0  0  0  0  0  0  0  0  0  0  0  0
    5.6720    1.7020    0.0740 C   0  0  0  0  0  0  0  0  0  0  0  0
    6.2510    2.7580   -0.6810 N   0  0  0  0  0  0  0  0  0  0  0  0
    6.3070    0.9260    0.9960 N   0  0  0  0  0  0  0  0  0  0  0  0
    5.4490    0.0440    1.4970 N   0  0  0  0  0  0  0  0  0  0  0  0
    3.0900   -1.5820    2.1510 C   0  0  0  0  0  0  0  0  0  0  0  0
    1.9700   -2.3040    2.4170 C   0  0  0  0  0  0  0  0  0  0  0  0
    0.8020   -2.0090    1.7450 C   0  0  0  0  0  0  0  0  0  0  0  0
   -0.3330   -2.7940    2.0620 N   0  0  0  0  0  0  0  0  0  0  0  0
  1  2  1  0
  2  3  1  0
  2  4  2  3
  4  5  1  0
  8  4  1  1
  5  6  1  6
  5  7  1  0
  8  9  1  0
  8 12  1  0
  9 10  1  0
 10 11  1  0
 11 12  1  0
 12 13  1  0
 13 14  1  0
 14 15  2  0
 14 25  1  0
 15 16  1  0
 16 17  1  0
 16 23  2  0
 17 18  2  0
 17 22  1  0
 18 19  1  0
 19 20  1  0
 19 21  2  0
 21 22  1  0
 23 24  1  0
 24 25  2  0
 25 26  1  0
M  END
