
     RDKit          3D

 27 28  0  0  0  0  0  0  0  0999 V2000
   -5.7240    1.7900   -2.4780 C   0  0  0  0  0  0  0  0  0  0  0  0
   -4.8200    0.8590   -1.7180 C   0  0  0  0  0  0  0  0  0  0  0  0
   -5.5580    0.2890   -0.5000 C   0  0  2  0  0  0  0  0  0  0  0  0
   -5.9380    1.3950    0.3270 N   0  0  0  0  0  0  0  0  0  0  0  0
   -4.6550   -0.5930    0.1330 O   0  0  0  0  0  0  0  0  0  0  0  0
   -4.8640   -1.9300    0.3290 C   0  0  0  0  0  0  0  0  0  0  0  0
   -5.9460   -2.4290   -0.0840 O   0  0  0  0  0  0  0  0  0  0  0  0
   -3.9020   -2.8470    0.9980 C   0  0  0  0  0  0  0  0  0  0  0  0
   -2.7400   -2.2030    1.4180 O   0  0  0  0  0  0  0  0  0  0  0  0
   -1.8530   -1.5360    0.5850 C   0  0  0  0  0  0  0  0  0  0  0  0
   -2.1090   -1.5060   -0.6300 O   0  0  0  0  0  0  0  0  0  0  0  0
   -0.6710   -0.9130    1.2210 C   0  0  2  0  0  0  0  0  0  0  0  0
    0.1830   -0.2420    0.2610 N   0  0  0  0  0  0  0  0  0  0  0  0
    1.4190   -0.4990    0.5180 C   0  0  0  0  0  0  0  0  0  0  0  0
    2.6550   -0.0350   -0.1920 C   0  0  0  0  0  0  0  0  0  0  0  0
    3.4820    0.7000    0.7110 O   0  0  0  0  0  0  0  0  0  0  0  0
    4.6840    1.2230    0.2580 C   0  0  0  0  0  0  0  0  0  0  0  0
    5.1130    1.0580   -1.0430 C   0  0  0  0  0  0  0  0  0  0  0  0
    6.3080    1.5840   -1.4760 C   0  0  0  0  0  0  0  0  0  0  0  0
    6.7630    1.4200   -2.8260 N   0  0  0  0  0  0  0  0  0  0  0  0
    7.1310    2.3020   -0.6170 C   0  0  0  0  0  0  0  0  0  0  0  0
    6.7000    2.4630    0.6790 C   0  0  0  0  0  0  0  0  0  0  0  0
    5.5030    1.9350    1.1080 C   0  0  0  0  0  0  0  0  0  0  0  0
    5.0600    2.0980    2.4290 O   0  0  0  0  0  0  0  0  0  0  0  0
    1.5050   -1.3390    1.6400 O   0  0  0  0  0  0  0  0  0  0  0  0
    0.2490   -2.0270    1.6720 C   0  0  2  0  0  0  0  0  0  0  0  0
    0.2860   -3.0860    0.6250 C   0  0  0  0  0  0  0  0  0  0  0  0
  1  2  1  0
  2  3  1  0
  3  4  1  1
  3  5  1  0
  5  6  1  0
  6  7  2  0
  6  8  1  0
  8  9  1  0
  9 10  1  0
 10 11  2  0
 12 10  1  6
 12 13  1  0
 12 26  1  0
 13 14  2  0
 14 15  1  0
 14 25  1  0
 15 16  1  0
 16 17  1  0
 17 18  2  0
 17 23  1  0
 18 19  1  0
 19 20  1  0
 19 21  2  0
 21 22  1  0
 22 23  2  0
 23 24  1  0
 25 26  1  0
 26 27  1  6
M  END
