
     RDKit          3D

 27 28  0  0  0  0  0  0  0  0999 V2000
   -0.3820   -1.7670    2.2470 C   0  0  0  0  0  0  0  0  0  0  0  0
   -0.2660   -0.5560    1.5940 O   0  0  0  0  0  0  0  0  0  0  0  0
   -0.2390   -0.7620    0.2530 C   0  0  2  0  0  0  0  0  0  0  0  0
    0.7920   -0.0670   -0.4910 C   0  0  0  0  0  0  0  0  0  0  0  0
    2.1710   -0.4650   -0.0120 C   0  0  0  0  0  0  0  0  0  0  0  0
    2.3450   -1.0030    1.0950 O   0  0  0  0  0  0  0  0  0  0  0  0
    3.2960   -0.2310   -0.8390 N   0  0  0  0  0  0  0  0  0  0  0  0
    4.6210   -0.4930   -0.6570 N   0  0  0  0  0  0  0  0  0  0  0  0
    5.2960   -0.9300    0.4750 C   0  0  0  0  0  0  0  0  0  0  0  0
    4.7310   -1.1600    1.5500 O   0  0  0  0  0  0  0  0  0  0  0  0
    6.7750   -1.1450    0.4390 C   0  0  1  0  0  0  0  0  0  0  0  0
    7.2330   -0.8470   -0.8230 O   0  0  0  0  0  0  0  0  0  0  0  0
    8.2020    0.1390   -0.7410 C   0  0  0  0  0  0  0  0  0  0  0  0
    7.8290    0.8330    0.5080 C   0  0  0  0  0  0  0  0  0  0  0  0
    7.9540    2.1020    0.8030 C   0  0  0  0  0  0  0  0  0  0  0  0
    7.5640    2.6300    2.0120 O   0  0  0  0  0  0  0  0  0  0  0  0
    7.3050   -0.1530    1.3220 O   0  0  0  0  0  0  0  0  0  0  0  0
   -1.6340   -0.5180   -0.2780 C   0  0  0  0  0  0  0  0  0  0  0  0
   -1.7360   -0.6030   -1.5320 O   0  0  0  0  0  0  0  0  0  0  0  0
   -2.7540   -0.2260    0.4990 N   0  0  0  0  0  0  0  0  0  0  0  0
   -4.0440   -0.0360   -0.1450 C   0  0  1  0  0  0  0  0  0  0  0  0
   -5.0190   -1.1240    0.3220 C   0  0  0  0  0  0  0  0  0  0  0  0
   -6.0490   -1.2800   -0.7760 C   0  0  0  0  0  0  0  0  0  0  0  0
   -6.4790    0.1180   -1.1700 C   0  0  0  0  0  0  0  0  0  0  0  0
   -6.1840    1.1410   -0.0760 C   0  0  2  0  0  0  0  0  0  0  0  0
   -6.7560    2.4620   -0.5940 C   0  0  0  0  0  0  0  0  0  0  0  0
   -4.7080    1.2720    0.2110 C   0  0  0  0  0  0  0  0  0  0  0  0
  1  2  1  0
  2  3  1  0
  3  4  1  6
  3 18  1  0
  4  5  1  0
  5  6  2  0
  5  7  1  0
  7  8  1  0
  8  9  1  0
  9 10  2  0
 11  9  1  6
 11 12  1  0
 11 17  1  0
 12 13  1  0
 13 14  1  0
 14 15  2  3
 14 17  1  0
 15 16  1  0
 18 19  2  0
 18 20  1  0
 21 20  1  1
 21 22  1  0
 21 27  1  0
 22 23  1  0
 23 24  1  0
 24 25  1  0
 25 26  1  6
 25 27  1  0
M  END
