
     RDKit          3D

 23 25  0  0  0  0  0  0  0  0999 V2000
   -4.6060    1.7770    0.5730 C   0  0  0  0  0  0  0  0  0  0  0  0
   -3.5670    0.8310    0.1270 N   0  0  1  0  0  0  0  0  0  0  0  0
   -4.0910   -0.4720    0.3760 C   0  0  0  0  0  0  0  0  0  0  0  0
   -3.5970   -1.5660   -0.4540 C   0  0  0  0  0  0  0  0  0  0  0  0
   -2.4800   -2.2370   -0.2910 C   0  0  0  0  0  0  0  0  0  0  0  0
   -1.4780   -2.0130    0.7950 C   0  0  0  0  0  0  0  0  0  0  0  0
   -0.0800   -1.9670    0.2330 C   0  0  0  0  0  0  0  0  0  0  0  0
    0.7850   -0.8780    0.8360 C   0  0  0  0  0  0  0  0  0  0  0  0
    1.5030   -0.0840   -0.2720 C   0  0  2  0  0  0  0  0  0  0  0  0
    1.9950   -1.1310   -1.2450 C   0  0  0  0  0  0  0  0  0  0  0  0
    3.3580   -0.8200   -1.8170 C   0  0  0  0  0  0  0  0  0  0  0  0
    3.5770    0.6410   -2.0110 C   0  0  0  0  0  0  0  0  0  0  0  0
    3.3520    1.3670   -0.6960 C   0  0  0  0  0  0  0  0  0  0  0  0
    2.5960    0.6530    0.2280 N   0  0  0  0  0  0  0  0  0  0  0  0
    2.6580    0.9090    1.5970 C   0  0  0  0  0  0  0  0  0  0  0  0
    3.8840    0.4660    2.3300 C   0  0  0  0  0  0  0  0  0  0  0  0
    5.5360    1.2440    1.7800 Br  0  0  0  0  0  0  0  0  0  0  0  0
    0.4040    0.7480   -0.8800 C   0  0  0  0  0  0  0  0  0  0  0  0
    0.3470    1.8380   -1.6610 N   0  0  0  0  0  0  0  0  0  0  0  0
   -0.9060    2.1460   -1.9110 O   0  0  0  0  0  0  0  0  0  0  0  0
   -1.6610    1.2710   -1.3000 C   0  0  0  0  0  0  0  0  0  0  0  0
   -0.8750    0.4240   -0.6760 N   0  0  0  0  0  0  0  0  0  0  0  0
   -3.1690    1.1180   -1.2230 C   0  0  0  0  0  0  0  0  0  0  0  0
  2  1  1  6
  2  3  1  0
  2 23  1  0
  3  4  1  0
  4  5  2  0
  5  6  1  0
  6  7  1  0
  7  8  1  0
  9  8  1  1
  9 10  1  0
  9 14  1  0
  9 18  1  0
 10 11  1  0
 11 12  1  0
 12 13  1  0
 13 14  1  0
 14 15  1  0
 15 16  1  0
 16 17  1  0
 18 19  2  0
 18 22  1  0
 19 20  1  0
 20 21  1  0
 21 22  2  0
 21 23  1  0
M  CHG  1   2   1
M  END
