
     RDKit          3D

 23 24  0  0  0  0  0  0  0  0999 V2000
   -4.5350   -3.2190    1.0260 C   0  0  0  0  0  0  0  0  0  0  0  0
   -3.4840   -2.5520    1.4230 C   0  0  0  0  0  0  0  0  0  0  0  0
   -2.9060   -1.5690    0.5160 N   0  0  0  0  0  0  0  0  0  0  0  0
   -3.1890   -0.1980    0.8860 C   0  0  0  0  0  0  0  0  0  0  0  0
   -3.1590    0.7810   -0.2000 C   0  0  0  0  0  0  0  0  0  0  0  0
   -2.2040    1.6550   -0.3450 C   0  0  0  0  0  0  0  0  0  0  0  0
   -1.0580    1.7230    0.5890 C   0  0  0  0  0  0  0  0  0  0  0  0
    0.1310    2.3000   -0.0950 C   0  0  1  0  0  0  0  0  0  0  0  0
    1.3410    1.6240    0.5420 C   0  0  0  0  0  0  0  0  0  0  0  0
    1.6400    0.3190    0.0470 N   0  0  0  0  0  0  0  0  0  0  0  0
    2.9590   -0.2170    0.4090 C   0  0  0  0  0  0  0  0  0  0  0  0
    3.5110   -1.3300   -0.2860 C   0  0  0  0  0  0  0  0  0  0  0  0
    4.5850   -1.9320   -0.1500 N   0  0  0  0  0  0  0  0  0  0  0  0
    3.5690    0.3910    1.3970 C   0  0  0  0  0  0  0  0  0  0  0  0
    4.8770    0.1230    2.0100 C   0  0  0  0  0  0  0  0  0  0  0  0
    0.8000   -0.4970   -0.7440 C   0  0  0  0  0  0  0  0  0  0  0  0
    0.2000   -1.6980   -0.0450 C   0  0  0  0  0  0  0  0  0  0  0  0
   -0.9980   -2.0780   -0.8790 C   0  0  0  0  0  0  0  0  0  0  0  0
   -2.1970   -1.9830   -0.5520 N   0  0  0  0  0  0  0  0  0  0  0  0
    0.2140    2.2490   -1.4290 O   0  0  0  0  0  0  0  0  0  0  0  0
   -0.8860    2.5900   -2.1600 C   0  0  0  0  0  0  0  0  0  0  0  0
   -2.1800    2.6830   -1.4450 C   0  0  1  0  0  0  0  0  0  0  0  0
   -3.7100    2.5180   -2.5950 Br  0  0  0  0  0  0  0  0  0  0  0  0
  1  2  2  0
  2  3  1  0
  3  4  1  0
  3 19  1  0
  4  5  1  0
  5  6  2  0
  6  7  1  0
  6 22  1  0
  7  8  1  0
  8  9  1  1
  8 20  1  0
  9 10  1  0
 10 11  1  0
 10 16  1  0
 11 12  1  0
 11 14  2  3
 12 13  2  0
 14 15  1  0
 16 17  1  0
 17 18  1  0
 18 19  2  0
 20 21  1  0
 21 22  1  0
 22 23  1  6
M  CHG  1  13   1
M  END
