
     RDKit          3D

 42 44  0  0  0  0  0  0  0  0999 V2000
    3.4500    0.3280    2.2390 O   0  0  0  0  0  0  0  0  0  0  0  0
    3.8460   -0.1860    1.1320 C   0  0  0  0  0  0  0  0  0  0  0  0
    3.5570   -1.4990    0.9060 O   0  0  0  0  0  0  0  0  0  0  0  0
    2.9590   -2.0740   -0.2220 C   0  0  0  0  0  0  0  0  0  0  0  0
    1.5380   -2.4930    0.1720 C   0  0  0  0  0  0  0  0  0  0  0  0
    0.8580   -2.9810   -0.9350 O   0  0  0  0  0  0  0  0  0  0  0  0
   -0.4840   -3.1600   -0.7120 C   0  0  1  0  0  0  0  0  0  0  0  0
   -0.6990   -3.6780    0.7010 C   0  0  0  0  0  0  0  0  0  0  0  0
   -0.0450   -4.8920    0.8890 O   0  0  0  0  0  0  0  0  0  0  0  0
   -0.2590   -5.2970    2.1210 O   0  0  0  0  0  0  0  0  0  0  0  0
   -1.2740   -1.8860   -0.9470 C   0  0  0  0  0  0  0  0  0  0  0  0
   -2.0590   -1.6700    0.1640 O   0  0  0  0  0  0  0  0  0  0  0  0
   -3.2650   -1.0020   -0.1520 C   0  0  2  0  0  0  0  0  0  0  0  0
   -3.8340   -0.6660    1.0390 O   0  0  0  0  0  0  0  0  0  0  0  0
   -5.0170   -0.0200    1.0660 C   0  0  0  0  0  0  0  0  0  0  0  0
   -5.1220    1.3070    0.4050 C   0  0  0  0  0  0  0  0  0  0  0  0
   -6.4570    1.7650    0.5860 O   0  0  0  0  0  0  0  0  0  0  0  0
   -6.6770    3.3030   -0.1490 P   0  0  0  0  0  0  0  0  0  0  0  0
   -5.3110    3.7000   -1.1610 O   0  0  0  0  0  0  0  0  0  0  0  0
   -8.0880    3.3340   -1.1790 O   0  0  0  0  0  0  0  0  0  0  0  0
   -4.0800   -1.9940   -0.9220 C   0  0  0  0  0  0  0  0  0  0  0  0
   -5.2400   -1.7030   -1.3650 O   0  0  0  0  0  0  0  0  0  0  0  0
   -3.6430   -3.2810   -1.2060 O   0  0  0  0  0  0  0  0  0  0  0  0
   -2.8290    0.1490   -0.9870 C   0  0  0  0  0  0  0  0  0  0  0  0
   -3.0950    0.0100   -2.2330 O   0  0  0  0  0  0  0  0  0  0  0  0
   -2.2250    1.1990   -0.4530 O   0  0  0  0  0  0  0  0  0  0  0  0
   -1.0300    1.5580    0.1440 C   0  0  0  0  0  0  0  0  0  0  0  0
   -1.2800    2.0400    1.3570 N   0  0  0  0  0  0  0  0  0  0  0  0
   -0.3290    2.5060    2.2630 C   0  0  0  0  0  0  0  0  0  0  0  0
    0.9270    2.4570    1.8670 C   0  0  0  0  0  0  0  0  0  0  0  0
    1.3350    1.9350    0.5230 C   0  0  0  0  0  0  0  0  0  0  0  0
    2.5910    1.9970    0.3990 N   0  0  0  0  0  0  0  0  0  0  0  0
    3.6520    1.7350   -0.4610 C   0  0  1  0  0  0  0  0  0  0  0  0
    3.2800    1.2650   -1.7130 F   0  0  0  0  0  0  0  0  0  0  0  0
    4.5140    2.9310   -0.7580 C   0  0  0  0  0  0  0  0  0  0  0  0
    3.9970    4.0570   -0.7140 O   0  0  0  0  0  0  0  0  0  0  0  0
    5.9030    2.8240   -1.0900 N   0  0  0  0  0  0  0  0  0  0  0  0
    6.8990    1.8620   -0.7970 C   0  0  0  0  0  0  0  0  0  0  0  0
    6.5520    0.4410   -0.8010 C   0  0  0  0  0  0  0  0  0  0  0  0
    5.2350    0.0850   -0.8110 O   0  0  0  0  0  0  0  0  0  0  0  0
    4.5770    0.7190    0.2240 C   0  0  2  0  0  0  0  0  0  0  0  0
    0.3060    1.4810   -0.3390 N   0  0  0  0  0  0  0  0  0  0  0  0
  1  2  2  0
  2  3  1  0
  2 41  1  0
  3  4  1  0
  4  5  1  0
  5  6  1  0
  6  7  1  0
  7  8  1  1
  7 11  1  0
  8  9  1  0
  9 10  1  0
 11 12  1  0
 12 13  1  0
 13 14  1  1
 13 21  1  0
 13 24  1  0
 14 15  1  0
 15 16  1  0
 16 17  1  0
 17 18  1  0
 18 19  1  0
 18 20  1  0
 21 22  2  0
 21 23  1  0
 24 25  2  0
 24 26  1  0
 26 27  1  0
 27 28  2  0
 27 42  1  0
 28 29  1  0
 29 30  2  0
 30 31  1  0
 31 32  2  0
 31 42  1  0
 32 33  1  0
 33 34  1  6
 33 35  1  0
 33 41  1  0
 35 36  2  0
 35 37  1  0
 37 38  1  0
 38 39  1  0
 39 40  1  0
 41 40  1  6
M  END
