
     RDKit          3D

 42 44  0  0  0  0  0  0  0  0999 V2000
   -0.9300   -1.5380   -1.9570 C   0  0  0  0  0  0  0  0  0  0  0  0
   -0.5030   -2.3130   -0.7660 C   0  0  1  0  0  0  0  0  0  0  0  0
   -0.4690   -3.7910   -1.0370 C   0  0  0  0  0  0  0  0  0  0  0  0
    0.4700   -4.3100   -1.8480 O   0  0  0  0  0  0  0  0  0  0  0  0
    0.7210   -4.2210   -3.1670 C   0  0  0  0  0  0  0  0  0  0  0  0
   -0.0040   -3.5530   -3.9310 O   0  0  0  0  0  0  0  0  0  0  0  0
    1.8020   -4.8600   -3.7960 O   0  0  0  0  0  0  0  0  0  0  0  0
    0.7740   -1.9960   -0.2740 O   0  0  0  0  0  0  0  0  0  0  0  0
    1.3490   -0.9140   -0.8880 C   0  0  0  0  0  0  0  0  0  0  0  0
    2.4860   -0.4020   -0.0030 C   0  0  1  0  0  0  0  0  0  0  0  0
    3.1760   -1.4250    0.5780 O   0  0  0  0  0  0  0  0  0  0  0  0
    3.0610   -1.3910    1.9520 C   0  0  0  0  0  0  0  0  0  0  0  0
    4.0020   -2.7840    2.7360 P   0  0  0  0  0  0  0  0  0  0  0  0
    3.7220   -2.7590    4.4490 O   0  0  0  0  0  0  0  0  0  0  0  0
    5.6820   -2.6320    2.3930 O   0  0  0  0  0  0  0  0  0  0  0  0
    3.3680    0.4610   -0.8460 C   0  0  0  0  0  0  0  0  0  0  0  0
    4.5410   -0.0450   -1.0510 O   0  0  0  0  0  0  0  0  0  0  0  0
    3.0630    1.7100   -1.4110 N   0  0  0  0  0  0  0  0  0  0  0  0
    4.2520    2.5910   -1.5060 C   0  0  0  0  0  0  0  0  0  0  0  0
    5.3860    2.2040   -1.1340 O   0  0  0  0  0  0  0  0  0  0  0  0
    3.9910    3.8620   -2.0410 O   0  0  0  0  0  0  0  0  0  0  0  0
    2.9030    4.5620   -1.4270 C   0  0  0  0  0  0  0  0  0  0  0  0
    1.6730    3.7030   -1.2730 C   0  0  2  0  0  0  0  0  0  0  0  0
    1.2710    3.5390    0.1310 N   0  0  0  0  0  0  0  0  0  0  0  0
    0.0740    3.9540    0.6180 N   0  0  0  0  0  0  0  0  0  0  0  0
   -1.0860    3.4530    0.7770 C   0  0  0  0  0  0  0  0  0  0  0  0
   -1.9830    4.3850    1.3530 F   0  0  0  0  0  0  0  0  0  0  0  0
   -1.4090    2.2080    0.4400 O   0  0  0  0  0  0  0  0  0  0  0  0
   -1.4550    0.9400    0.7930 C   0  0  0  0  0  0  0  0  0  0  0  0
   -0.6370    0.1810    1.4180 O   0  0  0  0  0  0  0  0  0  0  0  0
   -2.6970    0.1540    0.4170 C   0  0  2  0  0  0  0  0  0  0  0  0
   -3.7250    0.2680    1.5330 C   0  0  2  0  0  0  0  0  0  0  0  0
   -3.2360   -0.3170    2.7050 O   0  0  0  0  0  0  0  0  0  0  0  0
   -4.9640   -0.5420    1.1610 C   0  0  0  0  0  0  0  0  0  0  0  0
   -5.9870    0.5360    0.9020 C   0  0  0  0  0  0  0  0  0  0  0  0
   -5.6310    1.6500    1.7600 N   0  0  0  0  0  0  0  0  0  0  0  0
   -4.1770    1.6620    1.8040 C   0  0  0  0  0  0  0  0  0  0  0  0
   -2.4740   -1.1890    0.2200 O   0  0  0  0  0  0  0  0  0  0  0  0
   -1.5010   -2.0670    0.3820 C   0  0  0  0  0  0  0  0  0  0  0  0
   -1.2650   -2.7660    1.3940 O   0  0  0  0  0  0  0  0  0  0  0  0
    1.9110    2.3300   -1.8800 C   0  0  0  0  0  0  0  0  0  0  0  0
    1.0050    2.0230   -2.7030 O   0  0  0  0  0  0  0  0  0  0  0  0
  2  1  1  6
  2  3  1  0
  2  8  1  0
  2 39  1  0
  3  4  1  0
  4  5  1  0
  5  6  2  0
  5  7  1  0
  8  9  1  0
  9 10  1  0
 10 11  1  6
 10 16  1  0
 11 12  1  0
 12 13  1  0
 13 14  1  0
 13 15  1  0
 16 17  2  0
 16 18  1  0
 18 19  1  0
 18 41  1  0
 19 20  2  0
 19 21  1  0
 21 22  1  0
 23 22  1  1
 23 24  1  0
 23 41  1  0
 24 25  1  0
 25 26  2  0
 26 27  1  0
 26 28  1  0
 28 29  1  0
 29 30  2  0
 29 31  1  0
 31 32  1  0
 31 38  1  1
 32 33  1  1
 32 34  1  0
 32 37  1  0
 34 35  1  0
 35 36  1  0
 36 37  1  0
 38 39  1  0
 39 40  2  0
 41 42  2  0
M  END
