
     RDKit          3D

 41 42  0  0  0  0  0  0  0  0999 V2000
   -0.4420   -0.4800    3.5680 O   0  0  0  0  0  0  0  0  0  0  0  0
    0.1740   -1.4800    3.9920 C   0  0  0  0  0  0  0  0  0  0  0  0
    0.5530   -1.4850    5.3290 O   0  0  0  0  0  0  0  0  0  0  0  0
    0.5320   -2.6600    3.1790 C   0  0  0  0  0  0  0  0  0  0  0  0
    0.0530   -2.4150    1.8190 N   0  0  0  0  0  0  0  0  0  0  0  0
    0.5580   -1.3040    1.0910 C   0  0  0  0  0  0  0  0  0  0  0  0
    1.4320   -0.6220    1.7700 O   0  0  0  0  0  0  0  0  0  0  0  0
    0.2130   -0.9130   -0.2120 N   0  0  0  0  0  0  0  0  0  0  0  0
    0.8460    0.2440   -0.8110 C   0  0  2  0  0  0  0  0  0  0  0  0
    2.2620    0.4990   -0.4030 C   0  0  0  0  0  0  0  0  0  0  0  0
    3.1540   -0.6840   -0.7540 C   0  0  0  0  0  0  0  0  0  0  0  0
    4.5810   -0.4460   -0.3460 C   0  0  0  0  0  0  0  0  0  0  0  0
    5.5580   -1.9500   -0.8250 P   0  0  0  0  0  0  0  0  0  0  0  0
    6.3250   -2.6400    0.5700 O   0  0  0  0  0  0  0  0  0  0  0  0
    6.6910   -1.6310   -2.0750 O   0  0  0  0  0  0  0  0  0  0  0  0
    0.0550    1.5200   -0.7440 C   0  0  0  0  0  0  0  0  0  0  0  0
    0.0140    2.1060    0.6040 C   0  0  0  0  0  0  0  0  0  0  0  0
   -0.9230    3.2040    0.7630 N   0  0  0  0  0  0  0  0  0  0  0  0
   -0.6100    4.1580    1.8080 C   0  0  0  0  0  0  0  0  0  0  0  0
    0.2380    5.2650    1.3000 C   0  0  0  0  0  0  0  0  0  0  0  0
    0.5800    6.1590    2.1080 O   0  0  0  0  0  0  0  0  0  0  0  0
    0.6690    5.3610   -0.0090 O   0  0  0  0  0  0  0  0  0  0  0  0
   -2.0930    3.4190   -0.0090 C   0  0  0  0  0  0  0  0  0  0  0  0
   -2.4130    4.6310   -0.3480 O   0  0  0  0  0  0  0  0  0  0  0  0
   -2.9610    2.4460   -0.4570 O   0  0  0  0  0  0  0  0  0  0  0  0
   -3.5450    1.3920    0.2770 C   0  0  0  0  0  0  0  0  0  0  0  0
   -2.6240    0.4040    0.5400 O   0  0  0  0  0  0  0  0  0  0  0  0
   -2.5980   -0.9340    0.5090 C   0  0  0  0  0  0  0  0  0  0  0  0
   -2.9660   -1.6840    1.5000 O   0  0  0  0  0  0  0  0  0  0  0  0
   -2.1360   -1.6980   -0.6860 C   0  0  2  0  0  0  0  0  0  0  0  0
   -2.9910   -1.2530   -1.8340 C   0  0  0  0  0  0  0  0  0  0  0  0
   -3.7610   -2.0760   -2.3700 O   0  0  0  0  0  0  0  0  0  0  0  0
   -2.9530    0.0110   -2.3100 O   0  0  0  0  0  0  0  0  0  0  0  0
   -3.7110    0.5240   -3.3790 C   0  0  0  0  0  0  0  0  0  0  0  0
   -5.0680    0.4030   -3.0830 O   0  0  0  0  0  0  0  0  0  0  0  0
   -2.4370   -3.1060   -0.5300 N   0  0  0  0  0  0  0  0  0  0  0  0
   -1.5040   -3.8280   -1.2960 C   0  0  0  0  0  0  0  0  0  0  0  0
   -1.6900   -4.9470   -1.8580 O   0  0  0  0  0  0  0  0  0  0  0  0
   -0.2710   -3.0450   -1.3260 C   0  0  1  0  0  0  0  0  0  0  0  0
    0.3680   -3.1380   -2.5750 F   0  0  0  0  0  0  0  0  0  0  0  0
   -0.7230   -1.6200   -1.0370 C   0  0  2  0  0  0  0  0  0  0  0  0
  1  2  2  0
  2  3  1  0
  2  4  1  0
  4  5  1  0
  5  6  1  0
  6  7  2  0
  6  8  1  0
  8  9  1  0
 41  8  1  1
  9 10  1  1
  9 16  1  0
 10 11  1  0
 11 12  1  0
 12 13  1  0
 13 14  1  0
 13 15  1  0
 16 17  1  0
 17 18  1  0
 18 19  1  0
 18 23  1  0
 19 20  1  0
 20 21  2  0
 20 22  1  0
 23 24  2  0
 23 25  1  0
 25 26  1  0
 26 27  1  0
 27 28  1  0
 28 29  2  0
 28 30  1  0
 30 31  1  6
 30 36  1  0
 30 41  1  0
 31 32  2  0
 31 33  1  0
 33 34  1  0
 34 35  1  0
 36 37  1  0
 37 38  2  0
 37 39  1  0
 39 40  1  6
 39 41  1  0
M  END
