
     RDKit          3D

 41 43  0  0  0  0  0  0  0  0999 V2000
    6.4200    0.4600   -0.7140 C   0  0  0  0  0  0  0  0  0  0  0  0
    5.9980   -0.7420    0.0970 C   0  0  1  0  0  0  0  0  0  0  0  0
    7.2560   -1.3110    0.7350 C   0  0  0  0  0  0  0  0  0  0  0  0
    8.1760   -1.6310   -0.2610 O   0  0  0  0  0  0  0  0  0  0  0  0
    9.2630   -2.1220    0.2730 O   0  0  0  0  0  0  0  0  0  0  0  0
    5.1080   -0.4370    1.1230 O   0  0  0  0  0  0  0  0  0  0  0  0
    3.8630    0.1320    0.9780 C   0  0  0  0  0  0  0  0  0  0  0  0
    3.4700    0.4100   -0.1660 O   0  0  0  0  0  0  0  0  0  0  0  0
    3.0280    0.3960    2.1860 C   0  0  0  0  0  0  0  0  0  0  0  0
    1.7890    0.9770    1.8480 O   0  0  0  0  0  0  0  0  0  0  0  0
    0.8470    0.3800    1.0260 C   0  0  0  0  0  0  0  0  0  0  0  0
    1.1250   -0.7510    0.5560 O   0  0  0  0  0  0  0  0  0  0  0  0
   -0.4450    1.0040    0.6850 C   0  0  2  0  0  0  0  0  0  0  0  0
   -0.6950    1.1080   -0.7850 C   0  0  0  0  0  0  0  0  0  0  0  0
   -0.1190    2.3320   -1.3990 C   0  0  0  0  0  0  0  0  0  0  0  0
    0.6320    2.2110   -2.3420 O   0  0  0  0  0  0  0  0  0  0  0  0
   -0.5080    3.6450   -0.8090 C   0  0  0  0  0  0  0  0  0  0  0  0
   -0.2960    3.5240    0.6710 C   0  0  0  0  0  0  0  0  0  0  0  0
    0.0860    4.5350    1.3100 O   0  0  0  0  0  0  0  0  0  0  0  0
   -0.5150    2.3050    1.3620 N   0  0  0  0  0  0  0  0  0  0  0  0
   -0.8260    2.0260    2.7340 C   0  0  0  0  0  0  0  0  0  0  0  0
   -1.8710    0.9420    2.6350 C   0  0  2  0  0  0  0  0  0  0  0  0
   -3.1160    1.5650    2.6660 O   0  0  0  0  0  0  0  0  0  0  0  0
   -1.7550    0.0310    3.6780 F   0  0  0  0  0  0  0  0  0  0  0  0
   -1.6150    0.2370    1.3000 C   0  0  1  0  0  0  0  0  0  0  0  0
   -2.7840    0.3900    0.5470 O   0  0  0  0  0  0  0  0  0  0  0  0
   -3.5790   -0.5900    0.0120 C   0  0  0  0  0  0  0  0  0  0  0  0
   -3.3130   -1.9280    0.1530 C   0  0  0  0  0  0  0  0  0  0  0  0
   -4.1380   -2.8640   -0.4010 N   0  0  0  0  0  0  0  0  0  0  0  0
   -5.2360   -2.5350   -1.1000 C   0  0  0  0  0  0  0  0  0  0  0  0
   -6.0950   -3.4990   -1.6770 N   0  0  0  0  0  0  0  0  0  0  0  0
   -5.7900   -4.8470   -1.5140 N   0  0  0  0  0  0  0  0  0  0  0  0
   -5.5350   -1.2040   -1.2630 C   0  0  0  0  0  0  0  0  0  0  0  0
   -4.7010   -0.2390   -0.7030 C   0  0  0  0  0  0  0  0  0  0  0  0
   -5.0670    1.0880   -0.9090 O   0  0  0  0  0  0  0  0  0  0  0  0
   -6.4750    1.5640   -1.8030 P   0  0  0  0  0  0  0  0  0  0  0  0
   -6.2970    1.3970   -3.5030 O   0  0  0  0  0  0  0  0  0  0  0  0
   -7.9110    0.7860   -1.2150 O   0  0  0  0  0  0  0  0  0  0  0  0
    5.4830   -1.7570   -0.8490 C   0  0  0  0  0  0  0  0  0  0  0  0
    4.3580   -2.2880   -0.7350 O   0  0  0  0  0  0  0  0  0  0  0  0
    6.2930   -2.1320   -1.9090 O   0  0  0  0  0  0  0  0  0  0  0  0
  2  1  1  6
  2  3  1  0
  2  6  1  0
  2 39  1  0
  3  4  1  0
  4  5  1  0
  6  7  1  0
  7  8  2  0
  7  9  1  0
  9 10  1  0
 10 11  1  0
 11 12  2  0
 13 11  1  6
 13 14  1  0
 13 20  1  0
 13 25  1  0
 14 15  1  0
 15 16  2  0
 15 17  1  0
 17 18  1  0
 18 19  2  0
 18 20  1  0
 20 21  1  0
 21 22  1  0
 22 23  1  6
 22 24  1  0
 22 25  1  0
 25 26  1  6
 26 27  1  0
 27 28  2  0
 27 34  1  0
 28 29  1  0
 29 30  2  0
 30 31  1  0
 30 33  1  0
 31 32  1  0
 33 34  2  0
 34 35  1  0
 35 36  1  0
 36 37  1  0
 36 38  1  0
 39 40  2  0
 39 41  1  0
M  END
