
     RDKit          3D

 35 37  0  0  0  0  0  0  0  0999 V2000
    9.0910   -1.0690   -0.7260 C   0  0  0  0  0  0  0  0  0  0  0  0
    8.0360   -0.4380    0.1100 C   0  0  0  0  0  0  0  0  0  0  0  0
    6.6970   -0.5450   -0.2350 C   0  0  0  0  0  0  0  0  0  0  0  0
    5.7230    0.0730    0.4670 N   0  0  0  0  0  0  0  0  0  0  0  0
    4.4200    0.0440    0.0130 C   0  0  1  0  0  0  0  0  0  0  0  0
    4.2950   -0.6640   -1.3660 C   0  0  0  0  0  0  0  0  0  0  0  0
    2.8140   -0.3210   -1.5980 C   0  0  2  0  0  0  0  0  0  0  0  0
    2.8220    0.9280   -2.2450 O   0  0  0  0  0  0  0  0  0  0  0  0
    2.3710   -0.1280   -0.1980 C   0  0  1  0  0  0  0  0  0  0  0  0
    0.9820   -0.5540    0.0360 C   0  0  0  0  0  0  0  0  0  0  0  0
    0.2630    0.1230   -0.9930 O   0  0  0  0  0  0  0  0  0  0  0  0
   -0.6400    1.3660   -0.3330 P   0  0  2  0  0  0  0  0  0  0  0  0
    0.0790    2.7190   -0.7690 O   0  0  0  0  0  0  0  0  0  0  0  0
   -0.6950    1.3650    1.3370 O   0  0  0  0  0  0  0  0  0  0  0  0
   -2.1600    1.4890   -0.9860 O   0  0  0  0  0  0  0  0  0  0  0  0
   -3.0160    0.0550   -0.8510 P   0  0  1  0  0  0  0  0  0  0  0  0
   -2.7800   -0.7920   -2.1010 O   0  0  0  0  0  0  0  0  0  0  0  0
   -2.3680   -0.7430    0.5240 O   0  0  0  0  0  0  0  0  0  0  0  0
   -4.6560    0.3770   -0.6630 O   0  0  0  0  0  0  0  0  0  0  0  0
   -4.8680    0.5500    0.7160 C   0  0  1  0  0  0  0  0  0  0  0  0
   -5.8660    1.4470    1.0000 O   0  0  0  0  0  0  0  0  0  0  0  0
   -6.9620    1.2400    0.1360 C   0  0  1  0  0  0  0  0  0  0  0  0
   -6.6520    1.8880   -1.1860 C   0  0  0  0  0  0  0  0  0  0  0  0
   -7.2680   -0.2310   -0.0050 C   0  0  2  0  0  0  0  0  0  0  0  0
   -8.6530   -0.3860   -0.0760 O   0  0  0  0  0  0  0  0  0  0  0  0
   -6.7470   -0.9800    1.2190 C   0  0  1  0  0  0  0  0  0  0  0  0
   -7.0580   -2.3240    1.0400 O   0  0  0  0  0  0  0  0  0  0  0  0
   -5.2520   -0.8580    1.2190 C   0  0  1  0  0  0  0  0  0  0  0  0
   -4.7660   -1.8210    0.3220 O   0  0  0  0  0  0  0  0  0  0  0  0
    3.3830   -0.5620    0.6670 O   0  0  0  0  0  0  0  0  0  0  0  0
    6.1040    0.8120    1.5510 C   0  0  0  0  0  0  0  0  0  0  0  0
    5.2800    1.4250    2.2630 O   0  0  0  0  0  0  0  0  0  0  0  0
    7.4260    0.9080    1.8860 N   0  0  0  0  0  0  0  0  0  0  0  0
    8.3920    0.3110    1.2040 C   0  0  0  0  0  0  0  0  0  0  0  0
    9.6150    0.4010    1.5190 O   0  0  0  0  0  0  0  0  0  0  0  0
  1  2  1  0
  2  3  2  0
  2 34  1  0
  3  4  1  0
  5  4  1  1
  4 31  1  0
  5  6  1  0
  5 30  1  0
  6  7  1  0
  7  8  1  6
  7  9  1  0
  9 10  1  1
  9 30  1  0
 10 11  1  0
 11 12  1  0
 12 13  2  0
 12 14  1  1
 12 15  1  0
 15 16  1  0
 16 17  2  0
 16 18  1  1
 16 19  1  0
 20 19  1  6
 20 21  1  0
 20 28  1  0
 21 22  1  0
 22 23  1  6
 22 24  1  0
 24 25  1  1
 24 26  1  0
 26 27  1  6
 26 28  1  0
 28 29  1  6
 31 32  2  0
 31 33  1  0
 33 34  1  0
 34 35  2  0
M  END
