
     RDKit          3D

 41 43  0  0  0  0  0  0  0  0999 V2000
    5.4650   -0.9070    4.8730 C   0  0  0  0  0  0  0  0  0  0  0  0
    4.6680   -1.4340    3.8290 O   0  0  0  0  0  0  0  0  0  0  0  0
    3.8530   -0.5770    3.1080 C   0  0  0  0  0  0  0  0  0  0  0  0
    3.8590    0.6400    3.4170 O   0  0  0  0  0  0  0  0  0  0  0  0
    3.0100   -0.9820    2.0420 N   0  0  0  0  0  0  0  0  0  0  0  0
    2.1850   -0.0120    1.3370 C   0  0  1  0  0  0  0  0  0  0  0  0
    2.5460   -0.0350   -0.0920 C   0  0  0  0  0  0  0  0  0  0  0  0
    3.4230   -0.8280   -0.4920 O   0  0  0  0  0  0  0  0  0  0  0  0
    1.9200    0.8220   -1.0260 N   0  0  0  0  0  0  0  0  0  0  0  0
    2.2330    0.8400   -2.4270 C   0  0  0  0  0  0  0  0  0  0  0  0
    3.6860    1.1880   -2.6860 C   0  0  0  0  0  0  0  0  0  0  0  0
    3.9700    1.2000   -4.0480 O   0  0  0  0  0  0  0  0  0  0  0  0
    5.6430    1.6050   -4.2510 P   0  0  0  0  0  0  0  0  0  0  0  0
    5.9300    3.2430   -3.7850 O   0  0  0  0  0  0  0  0  0  0  0  0
    6.6360    0.5290   -3.3210 O   0  0  0  0  0  0  0  0  0  0  0  0
    0.7230   -0.3770    1.5620 C   0  0  2  0  0  0  0  0  0  0  0  0
    0.4040   -1.7260    1.0100 C   0  0  0  0  0  0  0  0  0  0  0  0
   -0.6530   -1.5820    0.1540 O   0  0  0  0  0  0  0  0  0  0  0  0
   -1.2340   -0.2890    0.4360 C   0  0  1  0  0  0  0  0  0  0  0  0
   -1.6860    0.2160   -0.8620 C   0  0  0  0  0  0  0  0  0  0  0  0
   -2.2100    1.5010   -1.0550 N   0  0  0  0  0  0  0  0  0  0  0  0
   -3.3950    2.0320   -0.5430 C   0  0  0  0  0  0  0  0  0  0  0  0
   -4.1980    1.4140    0.1760 O   0  0  0  0  0  0  0  0  0  0  0  0
   -3.7650    3.4280   -0.8500 C   0  0  0  0  0  0  0  0  0  0  0  0
   -3.1140    4.3100   -1.5780 C   0  0  0  0  0  0  0  0  0  0  0  0
   -3.8470    5.5730   -1.6160 C   0  0  0  0  0  0  0  0  0  0  0  0
   -3.4980    6.6230   -2.2260 O   0  0  0  0  0  0  0  0  0  0  0  0
   -4.9990    5.4020   -0.8580 O   0  0  0  0  0  0  0  0  0  0  0  0
   -4.9600    4.0960   -0.3840 C   0  0  0  0  0  0  0  0  0  0  0  0
   -5.8690    3.6210    0.3440 O   0  0  0  0  0  0  0  0  0  0  0  0
   -2.2710   -0.5400    1.4590 C   0  0  2  0  0  0  0  0  0  0  0  0
   -1.6040   -1.0830    2.6350 F   0  0  0  0  0  0  0  0  0  0  0  0
   -3.1610   -1.7190    1.0930 C   0  0  2  0  0  0  0  0  0  0  0  0
   -2.4530   -2.8760    0.9650 O   0  0  0  0  0  0  0  0  0  0  0  0
   -2.6680   -3.7300   -0.0390 C   0  0  0  0  0  0  0  0  0  0  0  0
   -3.9270   -4.5580   -0.0130 C   0  0  0  0  0  0  0  0  0  0  0  0
   -5.0980   -3.7550   -0.3390 N   0  0  0  0  0  0  0  0  0  0  0  0
   -5.0120   -2.3160   -0.4710 C   0  0  0  0  0  0  0  0  0  0  0  0
   -5.9840   -1.7520   -1.0690 O   0  0  0  0  0  0  0  0  0  0  0  0
   -3.9800   -1.5110   -0.0130 O   0  0  0  0  0  0  0  0  0  0  0  0
   -0.1590    0.4600    0.9530 O   0  0  0  0  0  0  0  0  0  0  0  0
  1  2  1  0
  2  3  1  0
  3  4  2  0
  3  5  1  0
  6  5  1  1
  6  7  1  0
  6 16  1  0
  7  8  2  0
  7  9  1  0
  9 10  1  0
 10 11  1  0
 11 12  1  0
 12 13  1  0
 13 14  1  0
 13 15  1  0
 16 17  1  6
 16 41  1  0
 17 18  1  0
 18 19  1  0
 19 20  1  6
 19 31  1  0
 19 41  1  0
 20 21  1  0
 21 22  1  0
 22 23  2  0
 22 24  1  0
 24 25  2  0
 24 29  1  0
 25 26  1  0
 26 27  2  0
 26 28  1  0
 28 29  1  0
 29 30  2  0
 31 32  1  1
 31 33  1  0
 33 34  1  6
 33 40  1  0
 34 35  1  0
 35 36  1  0
 36 37  1  0
 37 38  1  0
 38 39  2  0
 38 40  1  0
M  END
