
     RDKit          3D

 19 19  0  0  0  0  0  0  0  0999 V2000
    4.5650   -2.9530   -1.1700 C   0  0  0  0  0  0  0  0  0  0  0  0
    5.0800   -1.8970   -0.5810 C   0  0  0  0  0  0  0  0  0  0  0  0
    4.2880   -0.7790   -0.0780 C   0  0  0  0  0  0  0  0  0  0  0  0
    2.8830   -0.9190   -0.2780 N   0  0  0  0  0  0  0  0  0  0  0  0
    2.0110    0.1130    0.1780 C   0  0  0  0  0  0  0  0  0  0  0  0
    2.2410    1.0990    0.7050 O   0  0  0  0  0  0  0  0  0  0  0  0
    0.4820   -0.3810   -0.1950 N   0  0  0  0  0  0  0  0  0  0  0  0
   -0.4570    1.0690    0.4790 C   0  0  0  0  0  0  0  0  0  0  0  0
    0.2150    1.8360    0.9740 O   0  0  0  0  0  0  0  0  0  0  0  0
   -1.7650    0.7900    0.1740 N   0  0  0  0  0  0  0  0  0  0  0  0
   -2.8480    1.7020    0.5480 C   0  0  1  0  0  0  0  0  0  0  0  0
   -3.6340    2.1140   -0.6440 C   0  0  0  0  0  0  0  0  0  0  0  0
   -4.6740    1.1990   -1.1400 C   0  0  0  0  0  0  0  0  0  0  0  0
   -4.8580   -0.0830   -0.4340 C   0  0  1  0  0  0  0  0  0  0  0  0
   -4.3720   -1.1520   -1.2330 O   0  0  0  0  0  0  0  0  0  0  0  0
   -4.3860   -0.2140    0.9620 C   0  0  0  0  0  0  0  0  0  0  0  0
   -3.6960    0.9560    1.5630 C   0  0  0  0  0  0  0  0  0  0  0  0
    6.8850   -1.8800   -0.3980 S   0  0  0  0  0  0  0  0  0  0  0  0
    7.3890   -0.3500    0.4760 C   0  0  0  0  0  0  0  0  0  0  0  0
  1  2  2  0
  2  3  1  0
  2 18  1  0
  3  4  1  0
  4  5  1  0
  5  6  2  0
  5  7  1  0
  7  8  1  0
  8  9  2  0
  8 10  1  0
 11 10  1  6
 11 12  1  0
 11 17  1  0
 12 13  1  0
 13 14  1  0
 14 15  1  6
 14 16  1  0
 16 17  1  0
 18 19  1  0
M  END
