
     RDKit          3D

 19 19  0  0  0  0  0  0  0  0999 V2000
   -1.7590    0.5620   -1.8150 C   0  0  0  0  0  0  0  0  0  0  0  0
   -2.7180   -0.1390   -0.8660 C   0  0  2  0  0  0  0  0  0  0  0  0
   -3.2410   -1.4030   -1.5350 C   0  0  0  0  0  0  0  0  0  0  0  0
   -3.8890    0.7710   -0.6480 C   0  0  0  0  0  0  0  0  0  0  0  0
   -4.7470    0.2220    0.4900 C   0  0  0  0  0  0  0  0  0  0  0  0
   -3.8600    0.3010    1.7250 C   0  0  0  0  0  0  0  0  0  0  0  0
   -2.8410   -0.8090    1.5550 C   0  0  0  0  0  0  0  0  0  0  0  0
   -1.9740   -0.5090    0.3640 C   0  0  2  0  0  0  0  0  0  0  0  0
   -0.9830    0.4640    0.7710 N   0  0  0  0  0  0  0  0  0  0  0  0
    0.4080    0.1890    0.8450 C   0  0  0  0  0  0  0  0  0  0  0  0
    0.7590   -0.9910    0.5280 O   0  0  0  0  0  0  0  0  0  0  0  0
    1.3850    1.1110    1.2350 N   0  0  0  0  0  0  0  0  0  0  0  0
    2.8020    0.8200    1.3080 C   0  0  0  0  0  0  0  0  0  0  0  0
    3.3590    0.4010   -0.0320 C   0  0  0  0  0  0  0  0  0  0  0  0
    4.8470    0.1100    0.1040 C   0  0  0  0  0  0  0  0  0  0  0  0
    5.5330   -0.3880   -1.4640 S   0  0  1  0  0  0  0  0  0  0  0  0
    7.2050   -0.7130   -1.3010 N   0  0  0  0  0  0  0  0  0  0  0  0
    4.8300   -1.6230   -1.9760 O   0  0  0  0  0  0  0  0  0  0  0  0
    5.3400    0.7380   -2.4450 O   0  0  0  0  0  0  0  0  0  0  0  0
  2  1  1  6
  2  3  1  0
  2  4  1  0
  2  8  1  0
  4  5  1  0
  5  6  1  0
  6  7  1  0
  7  8  1  0
  8  9  1  1
  9 10  1  0
 10 11  2  0
 10 12  1  0
 12 13  1  0
 13 14  1  0
 14 15  1  0
 15 16  1  0
 16 17  1  1
 16 18  2  0
 16 19  2  0
M  END
