
     RDKit          3D

 19 19  0  0  0  0  0  0  0  0999 V2000
    5.8840    1.2930   -1.1220 N   0  0  0  0  0  0  0  0  0  0  0  0
    5.7110    1.0580    0.2660 C   0  0  0  0  0  0  0  0  0  0  0  0
    5.6540    2.3490    1.2600 S   0  0  0  0  0  0  0  0  0  0  0  0
    5.5820   -0.3040    0.8330 C   0  0  0  0  0  0  0  0  0  0  0  0
    4.3750   -1.0110    0.2380 C   0  0  0  0  0  0  0  0  0  0  0  0
    3.1360   -0.2040    0.5690 C   0  0  0  0  0  0  0  0  0  0  0  0
    1.9890   -0.8740    0.0040 N   0  0  0  0  0  0  0  0  0  0  0  0
    0.6810   -0.3090    0.1770 C   0  0  0  0  0  0  0  0  0  0  0  0
    0.4890    0.7540    0.8050 O   0  0  0  0  0  0  0  0  0  0  0  0
   -0.4580   -0.9580   -0.3730 N   0  0  0  0  0  0  0  0  0  0  0  0
   -1.8070   -0.3950   -0.2070 C   0  0  2  0  0  0  0  0  0  0  0  0
   -2.6990   -1.3430    0.5580 C   0  0  0  0  0  0  0  0  0  0  0  0
   -3.7680   -0.5260    1.2500 C   0  0  0  0  0  0  0  0  0  0  0  0
   -4.8390   -0.0850    0.2730 C   0  0  0  0  0  0  0  0  0  0  0  0
   -4.6870    1.3460   -0.1470 C   0  0  0  0  0  0  0  0  0  0  0  0
   -4.3850    1.5060   -1.6180 C   0  0  0  0  0  0  0  0  0  0  0  0
   -3.3410    0.6690   -2.0540 O   0  0  0  0  0  0  0  0  0  0  0  0
   -2.3830   -0.1830   -1.5610 C   0  0  0  0  0  0  0  0  0  0  0  0
   -1.8580   -0.9650   -2.3960 O   0  0  0  0  0  0  0  0  0  0  0  0
  1  2  1  0
  2  3  2  0
  2  4  1  0
  4  5  1  0
  5  6  1  0
  6  7  1  0
  7  8  1  0
  8  9  2  0
  8 10  1  0
 11 10  1  6
 11 12  1  0
 11 18  1  0
 12 13  1  0
 13 14  1  0
 14 15  1  0
 15 16  1  0
 16 17  1  0
 17 18  1  0
 18 19  2  0
M  END
