
     RDKit          3D

 23 25  0  0  0  0  0  0  0  0999 V2000
    6.3880   -0.4850    2.1060 O   0  0  0  0  0  0  0  0  0  0  0  0
    5.4120   -0.1960    1.3710 C   0  0  0  0  0  0  0  0  0  0  0  0
    4.4190    0.7000    1.8630 N   0  0  0  0  0  0  0  0  0  0  0  0
    3.3850    1.4030    1.1830 C   0  0  0  0  0  0  0  0  0  0  0  0
    2.6330    0.6230    0.1890 C   0  0  0  0  0  0  0  0  0  0  0  0
    1.3550    0.8440   -0.0170 O   0  0  0  0  0  0  0  0  0  0  0  0
    0.8690    0.0500   -0.9380 C   0  0  0  0  0  0  0  0  0  0  0  0
   -0.2400   -0.3250   -1.6610 C   0  0  0  0  0  0  0  0  0  0  0  0
   -1.5230    0.2390   -1.5390 O   0  0  0  0  0  0  0  0  0  0  0  0
   -2.4660   -0.2530   -0.6540 C   0  0  0  0  0  0  0  0  0  0  0  0
   -2.1130   -1.2520    0.0540 O   0  0  0  0  0  0  0  0  0  0  0  0
   -3.7680    0.3140   -0.5240 N   0  0  0  0  0  0  0  0  0  0  0  0
   -4.6630   -0.3080    0.4520 C   0  0  0  0  0  0  0  0  0  0  0  0
   -6.2980    0.5240    0.5080 P   0  0  0  0  0  0  0  0  0  0  0  0
   -7.5620   -0.4520   -0.1590 O   0  0  0  0  0  0  0  0  0  0  0  0
   -6.6990    0.8480    2.1690 O   0  0  0  0  0  0  0  0  0  0  0  0
    0.1410   -1.3110   -2.4830 N   0  0  0  0  0  0  0  0  0  0  0  0
    1.4210   -1.5780   -2.3200 N   0  0  0  0  0  0  0  0  0  0  0  0
    1.8860   -0.7630   -1.3850 C   0  0  0  0  0  0  0  0  0  0  0  0
    3.0080   -0.3980   -0.6680 C   0  0  0  0  0  0  0  0  0  0  0  0
    4.3300   -0.9780   -0.7950 C   0  0  0  0  0  0  0  0  0  0  0  0
    4.4880   -1.6900   -1.8230 O   0  0  0  0  0  0  0  0  0  0  0  0
    5.4420   -0.8320    0.1010 N   0  0  0  0  0  0  0  0  0  0  0  0
  1  2  2  0
  2  3  1  0
  2 23  1  0
  3  4  1  0
  4  5  1  0
  5  6  1  0
  5 20  2  0
  6  7  1  0
  7  8  2  0
  7 19  1  0
  8  9  1  0
  8 17  1  0
  9 10  1  0
 10 11  2  0
 10 12  1  0
 12 13  1  0
 13 14  1  0
 14 15  1  0
 14 16  1  0
 17 18  1  0
 18 19  2  0
 19 20  1  0
 20 21  1  0
 21 22  2  0
 21 23  1  0
M  END
