
     RDKit          3D

 23 25  0  0  0  0  0  0  0  0999 V2000
    1.7920   -0.0740    0.2900 O   0  0  0  0  0  0  0  0  0  0  0  0
    2.4460   -1.0260   -0.2040 C   0  0  0  0  0  0  0  0  0  0  0  0
    3.8810   -0.8590   -0.4540 C   0  0  0  0  0  0  0  0  0  0  0  0
    4.3080    0.4060   -0.0800 O   0  0  0  0  0  0  0  0  0  0  0  0
    5.9820    0.6550   -0.3520 P   0  0  0  0  0  0  0  0  0  0  0  0
    6.7100   -0.7140   -1.1380 O   0  0  0  0  0  0  0  0  0  0  0  0
    6.3010    2.1220   -1.2180 O   0  0  0  0  0  0  0  0  0  0  0  0
    1.7670   -2.2300   -0.5020 N   0  0  0  0  0  0  0  0  0  0  0  0
    0.3750   -2.3850   -0.2560 C   0  0  0  0  0  0  0  0  0  0  0  0
   -0.3780   -3.4720   -0.4950 N   0  0  0  0  0  0  0  0  0  0  0  0
   -1.6070   -3.1400   -0.1050 N   0  0  0  0  0  0  0  0  0  0  0  0
   -1.6140   -1.8820    0.3620 C   0  0  0  0  0  0  0  0  0  0  0  0
   -2.7370   -1.1230    0.8870 C   0  0  0  0  0  0  0  0  0  0  0  0
   -3.5380   -0.4460   -0.0460 N   0  0  0  0  0  0  0  0  0  0  0  0
   -4.6550    0.2990    0.5060 C   0  0  0  0  0  0  0  0  0  0  0  0
   -3.8040    1.5620    0.3030 C   0  0  1  0  0  0  0  0  0  0  0  0
   -3.0350    1.8200    1.4080 O   0  0  0  0  0  0  0  0  0  0  0  0
   -1.9400    2.6150    1.0890 C   0  0  0  0  0  0  0  0  0  0  0  0
   -1.1490    1.9440    0.0480 N   0  0  0  0  0  0  0  0  0  0  0  0
   -1.7600    1.0910   -0.8960 C   0  0  0  0  0  0  0  0  0  0  0  0
   -1.0870    0.6850   -1.8600 O   0  0  0  0  0  0  0  0  0  0  0  0
   -3.1450    0.6980   -0.7440 C   0  0  1  0  0  0  0  0  0  0  0  0
   -0.3830   -1.4530    0.2530 O   0  0  0  0  0  0  0  0  0  0  0  0
  1  2  2  0
  2  3  1  0
  2  8  1  0
  3  4  1  0
  4  5  1  0
  5  6  1  0
  5  7  1  0
  8  9  1  0
  9 10  2  0
  9 23  1  0
 10 11  1  0
 11 12  2  0
 12 13  1  0
 12 23  1  0
 13 14  1  0
 14 15  1  0
 22 14  1  1
 16 15  1  1
 16 17  1  0
 16 22  1  0
 17 18  1  0
 18 19  1  0
 19 20  1  0
 20 21  2  0
 20 22  1  0
M  END
