
     RDKit          3D

 16 16  0  0  0  0  0  0  0  0999 V2000
   -6.1510   -0.2280   -0.3450 O   0  0  0  0  0  0  0  0  0  0  0  0
   -4.8690   -0.5450   -0.6460 O   0  0  0  0  0  0  0  0  0  0  0  0
   -4.0980   -0.4220    0.4400 C   0  0  0  0  0  0  0  0  0  0  0  0
   -2.9690    0.5460    0.2100 C   0  0  0  0  0  0  0  0  0  0  0  0
   -2.0380    0.1010   -0.6660 O   0  0  0  0  0  0  0  0  0  0  0  0
   -0.8390    0.5180   -0.2660 O   0  0  0  0  0  0  0  0  0  0  0  0
   -0.2410   -0.7010    0.2060 C   0  0  0  0  0  0  0  0  0  0  0  0
    1.0170   -0.2310    0.8890 C   0  0  0  0  0  0  0  0  0  0  0  0
    1.9670    0.4170   -0.0610 C   0  0  1  0  0  0  0  0  0  0  0  0
    1.0330    1.6580   -1.1980 Br  0  0  0  0  0  0  0  0  0  0  0  0
    2.8850    1.1630    0.7650 O   0  0  0  0  0  0  0  0  0  0  0  0
    3.6230    0.2430    1.2850 O   0  0  0  0  0  0  0  0  0  0  0  0
    4.0300   -0.6100    0.2730 C   0  0  0  0  0  0  0  0  0  0  0  0
    2.9380   -0.4630   -0.7560 C   0  0  2  0  0  0  0  0  0  0  0  0
    3.4850    0.2790   -1.8080 O   0  0  0  0  0  0  0  0  0  0  0  0
    3.4230    1.5550   -1.5070 O   0  0  0  0  0  0  0  0  0  0  0  0
  1  2  1  0
  2  3  1  0
  3  4  1  0
  4  5  1  0
  5  6  1  0
  6  7  1  0
  7  8  1  0
  8  9  1  0
  9 10  1  6
  9 11  1  0
  9 14  1  0
 11 12  1  0
 12 13  1  0
 13 14  1  0
 14 15  1  6
 15 16  1  0
M  END
