
     RDKit          3D

 31 34  0  0  0  0  0  0  0  0999 V2000
    3.6550    1.1160    4.1520 C   0  0  0  0  0  0  0  0  0  0  0  0
    4.2480    0.5500    2.9810 O   0  0  0  0  0  0  0  0  0  0  0  0
    3.6990    0.7230    1.7240 C   0  0  0  0  0  0  0  0  0  0  0  0
    2.6470    1.4020    1.6330 O   0  0  0  0  0  0  0  0  0  0  0  0
    4.3010    0.1470    0.5220 C   0  0  0  0  0  0  0  0  0  0  0  0
    5.4620   -0.6040    0.6140 C   0  0  0  0  0  0  0  0  0  0  0  0
    6.0710   -1.1690   -0.4860 C   0  0  0  0  0  0  0  0  0  0  0  0
    7.3240   -1.9750   -0.3550 C   0  0  0  0  0  0  0  0  0  0  0  0
    5.4800   -0.9650   -1.7150 C   0  0  0  0  0  0  0  0  0  0  0  0
    6.0930   -1.5380   -2.8490 N   0  0  0  0  0  0  0  0  0  0  0  0
    4.3220   -0.2170   -1.8140 C   0  0  0  0  0  0  0  0  0  0  0  0
    3.7080    0.3530   -0.7050 C   0  0  0  0  0  0  0  0  0  0  0  0
    2.5190    1.1150   -0.8450 N   0  0  0  0  0  0  0  0  0  0  0  0
    2.4490    2.4180   -1.0950 N   0  0  0  0  0  0  0  0  0  0  0  0
    1.1620    2.8020   -1.1620 C   0  0  0  0  0  0  0  0  0  0  0  0
    0.3820    1.6860   -0.9430 C   0  0  0  0  0  0  0  0  0  0  0  0
   -1.0020    1.4720   -0.8950 C   0  0  0  0  0  0  0  0  0  0  0  0
   -1.5380    0.2420   -0.6550 C   0  0  0  0  0  0  0  0  0  0  0  0
   -2.9190   -0.0500   -0.5920 N   0  0  0  0  0  0  0  0  0  0  0  0
   -3.9910    0.8490   -0.7590 C   0  0  0  0  0  0  0  0  0  0  0  0
   -3.7540    2.0490   -0.9930 O   0  0  0  0  0  0  0  0  0  0  0  0
   -5.4070    0.4530   -0.6740 C   0  0  2  0  0  0  0  0  0  0  0  0
   -6.2090    1.1720    0.3560 C   0  0  0  0  0  0  0  0  0  0  0  0
   -7.4330    0.2580    0.4750 C   0  0  0  0  0  0  0  0  0  0  0  0
   -7.0940   -0.9810   -0.3630 C   0  0  0  0  0  0  0  0  0  0  0  0
   -5.6200   -0.9370   -0.3400 N   0  0  0  0  0  0  0  0  0  0  0  0
   -5.2210   -1.2360    1.0200 C   0  0  0  0  0  0  0  0  0  0  0  0
   -0.6030   -0.7870   -0.4630 C   0  0  0  0  0  0  0  0  0  0  0  0
   -1.0980   -2.1120   -0.2050 N   0  0  0  0  0  0  0  0  0  0  0  0
    0.7180   -0.5640   -0.5130 N   0  0  0  0  0  0  0  0  0  0  0  0
    1.2510    0.6430   -0.7470 C   0  0  0  0  0  0  0  0  0  0  0  0
  1  2  1  0
  2  3  1  0
  3  4  2  0
  3  5  1  0
  5  6  2  0
  5 12  1  0
  6  7  1  0
  7  8  1  0
  7  9  2  0
  9 10  1  0
  9 11  1  0
 11 12  2  0
 12 13  1  0
 13 14  1  0
 13 31  1  0
 14 15  2  0
 15 16  1  0
 16 17  2  0
 16 31  1  0
 17 18  1  0
 18 19  1  0
 18 28  2  0
 19 20  1  0
 20 21  2  0
 22 20  1  1
 22 23  1  0
 22 26  1  0
 23 24  1  0
 24 25  1  0
 25 26  1  0
 26 27  1  0
 28 29  1  0
 28 30  1  0
 30 31  2  0
M  CHG  1  30   1
M  END
