
     RDKit          3D

 29 32  0  0  0  0  0  0  0  0999 V2000
   -0.2060   -0.5340   -1.1310 O   0  0  0  0  0  0  0  0  0  0  0  0
    0.2060    0.5030   -0.5050 C   0  0  0  0  0  0  0  0  0  0  0  0
   -0.7820    1.5340   -0.4240 N   0  0  0  0  0  0  0  0  0  0  0  0
   -2.0250    1.4580   -1.0460 C   0  0  0  0  0  0  0  0  0  0  0  0
   -3.2470    0.8550   -0.6620 C   0  0  0  0  0  0  0  0  0  0  0  0
   -3.7030    0.3300    0.5320 C   0  0  0  0  0  0  0  0  0  0  0  0
   -5.0340   -0.1170    0.6390 C   0  0  0  0  0  0  0  0  0  0  0  0
   -5.5380   -0.6390    1.8050 C   0  0  0  0  0  0  0  0  0  0  0  0
   -6.8610   -1.0810    1.9220 C   0  0  0  0  0  0  0  0  0  0  0  0
   -7.7120   -0.9870    0.7940 C   0  0  0  0  0  0  0  0  0  0  0  0
   -7.2300   -0.4730   -0.3700 C   0  0  0  0  0  0  0  0  0  0  0  0
   -5.9040   -0.0500   -0.4170 C   0  0  0  0  0  0  0  0  0  0  0  0
   -5.4460    0.4440   -1.5110 O   0  0  0  0  0  0  0  0  0  0  0  0
   -4.2460    0.8710   -1.6770 C   0  0  0  0  0  0  0  0  0  0  0  0
   -3.9130    1.3350   -2.7990 O   0  0  0  0  0  0  0  0  0  0  0  0
    1.5730    0.5290   -0.0000 C   0  0  0  0  0  0  0  0  0  0  0  0
    2.3840    1.3830    0.6300 C   0  0  0  0  0  0  0  0  0  0  0  0
    3.6610    1.0250    0.7330 N   0  0  0  0  0  0  0  0  0  0  0  0
    4.2120    0.0630    0.3630 C   0  0  0  0  0  0  0  0  0  0  0  0
    5.4850   -0.6070    0.2010 N   0  0  0  0  0  0  0  0  0  0  0  0
    5.7440   -1.4430   -0.8630 C   0  0  0  0  0  0  0  0  0  0  0  0
    7.0190   -1.9260   -0.7910 C   0  0  0  0  0  0  0  0  0  0  0  0
    7.5810   -1.3860    0.3290 C   0  0  0  0  0  0  0  0  0  0  0  0
    6.6030   -0.5720    0.9230 C   0  0  0  0  0  0  0  0  0  0  0  0
    6.8140    0.1890    2.1650 C   0  0  1  0  0  0  0  0  0  0  0  0
    6.5060    1.5230    2.0160 F   0  0  0  0  0  0  0  0  0  0  0  0
    6.1920   -0.3460    3.2680 F   0  0  0  0  0  0  0  0  0  0  0  0
    8.2080    0.1750    2.4040 F   0  0  0  0  0  0  0  0  0  0  0  0
    2.7190   -0.8220   -0.4200 S   0  0  0  0  0  0  0  0  0  0  0  0
  1  2  2  0
  2  3  1  0
  2 16  1  0
  3  4  1  0
  4  5  1  0
  5  6  2  0
  5 14  1  0
  6  7  1  0
  7  8  2  0
  7 12  1  0
  8  9  1  0
  9 10  2  0
 10 11  1  0
 11 12  2  0
 12 13  1  0
 13 14  1  0
 14 15  2  0
 16 17  2  0
 16 29  1  0
 17 18  1  0
 18 19  2  0
 19 20  1  0
 19 29  1  0
 20 21  1  0
 20 24  1  0
 21 22  2  0
 22 23  1  0
 23 24  2  0
 24 25  1  0
 25 26  1  6
 25 27  1  0
 25 28  1  0
M  END
