
     RDKit          3D

 29 32  0  0  0  0  0  0  0  0999 V2000
   -3.5720    3.7950   -2.5390 C   0  0  0  0  0  0  0  0  0  0  0  0
   -2.4750    2.9740   -2.0100 C   0  0  0  0  0  0  0  0  0  0  0  0
   -2.5560    2.0970   -1.0410 C   0  0  0  0  0  0  0  0  0  0  0  0
   -1.3220    1.3700   -0.6430 C   0  0  0  0  0  0  0  0  0  0  0  0
   -1.0770    0.5790    0.2190 C   0  0  0  0  0  0  0  0  0  0  0  0
   -0.8880   -0.3650    1.2860 C   0  0  0  0  0  0  0  0  0  0  0  0
   -1.9040   -0.6420    2.2490 C   0  0  0  0  0  0  0  0  0  0  0  0
   -3.2290   -0.0140    2.2630 C   0  0  0  0  0  0  0  0  0  0  0  0
   -1.4670   -1.5230    3.0880 O   0  0  0  0  0  0  0  0  0  0  0  0
   -0.2600   -1.8900    2.8170 C   0  0  0  0  0  0  0  0  0  0  0  0
    0.6390   -2.7710    3.3790 C   0  0  0  0  0  0  0  0  0  0  0  0
    0.2400   -3.3990    4.4030 O   0  0  0  0  0  0  0  0  0  0  0  0
    1.8660   -2.9240    2.8330 N   0  0  0  0  0  0  0  0  0  0  0  0
    2.2330   -2.2300    1.7460 C   0  0  0  0  0  0  0  0  0  0  0  0
    3.4090   -2.1700    0.9970 C   0  0  0  0  0  0  0  0  0  0  0  0
    3.2090   -1.2560   -0.0100 C   0  0  0  0  0  0  0  0  0  0  0  0
    4.1940   -0.8660   -1.0440 C   0  0  0  0  0  0  0  0  0  0  0  0
    5.4500   -1.2960   -1.2240 C   0  0  0  0  0  0  0  0  0  0  0  0
    6.1870   -0.7700   -2.2280 C   0  0  0  0  0  0  0  0  0  0  0  0
    5.6330    0.1730   -3.0170 C   0  0  0  0  0  0  0  0  0  0  0  0
    3.9560    0.3230   -2.2880 S   0  0  0  0  0  0  0  0  0  0  0  0
    1.9640   -0.7880    0.1300 N   0  0  0  0  0  0  0  0  0  0  0  0
    1.3830   -1.3780    1.1860 N   0  0  0  0  0  0  0  0  0  0  0  0
    0.1270   -1.1710    1.6800 C   0  0  0  0  0  0  0  0  0  0  0  0
   -3.7320    1.8420   -0.4150 O   0  0  0  0  0  0  0  0  0  0  0  0
   -4.7480    1.0150   -0.9900 C   0  0  2  0  0  0  0  0  0  0  0  0
   -5.2310    1.4590   -2.1890 F   0  0  0  0  0  0  0  0  0  0  0  0
   -5.7350    0.9540   -0.0200 F   0  0  0  0  0  0  0  0  0  0  0  0
   -4.2370   -0.2700   -1.2530 F   0  0  0  0  0  0  0  0  0  0  0  0
  1  2  1  0
  2  3  2  3
  3  4  1  0
  3 25  1  0
  4  5  2  3
  5  6  1  0
  6  7  2  0
  6 24  1  0
  7  8  1  0
  7  9  1  0
  9 10  1  0
 10 11  1  0
 10 24  2  0
 11 12  2  0
 11 13  1  0
 13 14  1  0
 14 15  2  0
 14 23  1  0
 15 16  1  0
 16 17  1  0
 16 22  2  0
 17 18  2  0
 17 21  1  0
 18 19  1  0
 19 20  2  0
 20 21  1  0
 22 23  1  0
 23 24  1  0
 25 26  1  0
 26 27  1  6
 26 28  1  0
 26 29  1  0
M  END
