
     RDKit          3D

 30 33  0  0  0  0  0  0  0  0999 V2000
   -2.8150   -2.1390   -0.0260 C   0  0  0  0  0  0  0  0  0  0  0  0
   -1.9640   -0.9270    0.2120 C   0  0  1  0  0  0  0  0  0  0  0  0
   -2.7010    0.1060    1.0140 C   0  0  0  0  0  0  0  0  0  0  0  0
   -2.2210    0.4780    2.1120 O   0  0  0  0  0  0  0  0  0  0  0  0
   -3.9150    0.6670    0.5650 N   0  0  0  0  0  0  0  0  0  0  0  0
   -4.5390    0.2940   -0.6940 C   0  0  0  0  0  0  0  0  0  0  0  0
   -5.2060    1.4800   -1.3690 C   0  0  0  0  0  0  0  0  0  0  0  0
   -5.9510    2.2200   -0.4670 O   0  0  0  0  0  0  0  0  0  0  0  0
   -5.0310    2.7810    0.4410 C   0  0  0  0  0  0  0  0  0  0  0  0
   -4.6080    1.6620    1.3590 C   0  0  0  0  0  0  0  0  0  0  0  0
   -0.7540   -1.3110    0.9070 N   0  0  0  0  0  0  0  0  0  0  0  0
   -0.7500   -1.9560    2.2050 C   0  0  0  0  0  0  0  0  0  0  0  0
    0.6690   -2.4570    2.3470 C   0  0  0  0  0  0  0  0  0  0  0  0
    1.5240   -1.4900    1.5690 C   0  0  2  0  0  0  0  0  0  0  0  0
    1.8330   -0.2950    2.2700 N   0  0  0  0  0  0  0  0  0  0  0  0
    3.5050    0.1160    2.2360 S   0  0  1  0  0  0  0  0  0  0  0  0
    3.7490    1.4070    2.9560 O   0  0  0  0  0  0  0  0  0  0  0  0
    4.3800   -0.9870    2.7580 O   0  0  0  0  0  0  0  0  0  0  0  0
    3.9420    0.3670    0.5580 C   0  0  0  0  0  0  0  0  0  0  0  0
    3.9110    1.5300   -0.1710 C   0  0  0  0  0  0  0  0  0  0  0  0
    4.3460    1.2100   -1.4370 C   0  0  0  0  0  0  0  0  0  0  0  0
    4.5280    1.9620   -2.6040 C   0  0  0  0  0  0  0  0  0  0  0  0
    4.9840    1.3850   -3.7560 C   0  0  0  0  0  0  0  0  0  0  0  0
    5.2150    2.3010   -5.2120 Cl  0  0  0  0  0  0  0  0  0  0  0  0
    5.2650    0.0310   -3.7520 C   0  0  0  0  0  0  0  0  0  0  0  0
    5.1000   -0.7480   -2.6250 C   0  0  0  0  0  0  0  0  0  0  0  0
    4.6400   -0.1390   -1.4800 C   0  0  0  0  0  0  0  0  0  0  0  0
    4.3880   -0.6320   -0.2590 N   0  0  0  0  0  0  0  0  0  0  0  0
    0.5930   -1.1270    0.4450 C   0  0  0  0  0  0  0  0  0  0  0  0
    0.8900   -0.7330   -0.6940 O   0  0  0  0  0  0  0  0  0  0  0  0
  2  1  1  1
  2  3  1  0
  2 11  1  0
  3  4  2  0
  3  5  1  0
  5  6  1  0
  5 10  1  0
  6  7  1  0
  7  8  1  0
  8  9  1  0
  9 10  1  0
 11 12  1  0
 11 29  1  0
 12 13  1  0
 13 14  1  0
 14 15  1  1
 14 29  1  0
 16 15  1  6
 16 17  2  0
 16 18  2  0
 16 19  1  0
 19 20  2  0
 19 28  1  0
 20 21  1  0
 21 22  2  0
 21 27  1  0
 22 23  1  0
 23 24  1  0
 23 25  2  0
 25 26  1  0
 26 27  2  0
 27 28  1  0
 29 30  2  0
M  END
