
     RDKit          3D

 29 32  0  0  0  0  0  0  0  0999 V2000
    0.8020    1.9640    1.1080 O   0  0  0  0  0  0  0  0  0  0  0  0
    0.7290    1.0800    0.1730 C   0  0  0  0  0  0  0  0  0  0  0  0
    1.9640    0.4580   -0.2720 C   0  0  0  0  0  0  0  0  0  0  0  0
    3.2310    0.7560    0.2490 C   0  0  0  0  0  0  0  0  0  0  0  0
    4.1630   -0.0180   -0.4040 C   0  0  0  0  0  0  0  0  0  0  0  0
    5.5990   -0.0680   -0.2180 C   0  0  0  0  0  0  0  0  0  0  0  0
    6.3720   -0.9180   -0.9760 C   0  0  0  0  0  0  0  0  0  0  0  0
    7.7430   -0.9900   -0.8240 C   0  0  0  0  0  0  0  0  0  0  0  0
    8.3620   -0.1980    0.1050 C   0  0  0  0  0  0  0  0  0  0  0  0
    9.7090   -0.2120    0.3140 F   0  0  0  0  0  0  0  0  0  0  0  0
    7.6170    0.6610    0.8770 C   0  0  0  0  0  0  0  0  0  0  0  0
    8.2120    1.4590    1.8090 F   0  0  0  0  0  0  0  0  0  0  0  0
    6.2530    0.7160    0.7090 C   0  0  0  0  0  0  0  0  0  0  0  0
    3.4960   -0.7360   -1.2640 O   0  0  0  0  0  0  0  0  0  0  0  0
    2.2260   -0.4710   -1.1970 N   0  0  0  0  0  0  0  0  0  0  0  0
   -0.5540    0.8130   -0.3200 N   0  0  0  0  0  0  0  0  0  0  0  0
   -0.8350   -0.1370   -1.3620 C   0  0  0  0  0  0  0  0  0  0  0  0
   -1.6380   -1.2540   -0.7060 C   0  0  0  0  0  0  0  0  0  0  0  0
   -2.9570   -0.6280   -0.2850 C   0  0  0  0  0  0  0  0  0  0  0  0
   -4.1150   -1.2030   -0.2940 N   0  0  0  0  0  0  0  0  0  0  0  0
   -5.2030   -0.6330    0.0700 C   0  0  0  0  0  0  0  0  0  0  0  0
   -6.5700   -1.0790    0.1390 C   0  0  0  0  0  0  0  0  0  0  0  0
   -6.6900   -2.4620   -0.3050 O   0  0  0  0  0  0  0  0  0  0  0  0
   -7.6380   -0.4850    0.5070 C   0  0  0  0  0  0  0  0  0  0  0  0
   -7.9300    0.8450    0.9980 C   0  0  0  0  0  0  0  0  0  0  0  0
   -6.9060    1.6910    1.1180 F   0  0  0  0  0  0  0  0  0  0  0  0
   -4.5350    1.0230    0.5190 S   0  0  0  0  0  0  0  0  0  0  0  0
   -2.8740    0.6560    0.1310 C   0  0  0  0  0  0  0  0  0  0  0  0
   -1.6970    1.5090    0.2280 C   0  0  0  0  0  0  0  0  0  0  0  0
  1  2  2  0
  2  3  1  0
  2 16  1  0
  3  4  1  0
  3 15  2  0
  4  5  2  0
  5  6  1  0
  5 14  1  0
  6  7  2  0
  6 13  1  0
  7  8  1  0
  8  9  2  0
  9 10  1  0
  9 11  1  0
 11 12  1  0
 11 13  2  0
 14 15  1  0
 16 17  1  0
 16 29  1  0
 17 18  1  0
 18 19  1  0
 19 20  1  0
 19 28  2  0
 20 21  2  0
 21 22  1  0
 21 27  1  0
 22 23  1  0
 22 24  2  3
 24 25  1  0
 25 26  1  0
 27 28  1  0
 28 29  1  0
M  END
