
     RDKit          3D

 29 31  0  0  0  0  0  0  0  0999 V2000
   -6.1000    0.0650    0.6070 C   0  0  0  0  0  0  0  0  0  0  0  0
   -5.6300    0.9880   -0.1950 C   0  0  0  0  0  0  0  0  0  0  0  0
   -6.5290    2.0780   -0.6630 C   0  0  0  0  0  0  0  0  0  0  0  0
   -7.7270    2.1920   -0.3470 N   0  0  0  0  0  0  0  0  0  0  0  0
   -4.2730    1.0550   -0.6790 C   0  0  0  0  0  0  0  0  0  0  0  0
   -4.0590    2.0640   -1.4870 O   0  0  0  0  0  0  0  0  0  0  0  0
   -3.1880    0.2050   -0.4060 N   0  0  0  0  0  0  0  0  0  0  0  0
   -1.8990    0.4020   -1.0570 C   0  0  0  0  0  0  0  0  0  0  0  0
   -1.2240    1.1960   -1.8710 C   0  0  0  0  0  0  0  0  0  0  0  0
    0.1460    0.7290   -2.0980 C   0  0  0  0  0  0  0  0  0  0  0  0
    0.2530   -0.4870   -1.3180 N   0  0  0  0  0  0  0  0  0  0  0  0
    1.3870   -1.3280   -1.2160 C   0  0  0  0  0  0  0  0  0  0  0  0
    1.3310   -2.3520   -0.5010 O   0  0  0  0  0  0  0  0  0  0  0  0
    2.6200   -0.9840   -1.9550 C   0  0  0  0  0  0  0  0  0  0  0  0
    3.9330   -2.1790   -1.6930 S   0  0  0  0  0  0  0  0  0  0  0  0
    4.5080   -2.1760    0.0190 C   0  0  0  0  0  0  0  0  0  0  0  0
    5.1450   -0.9260    0.3360 N   0  0  0  0  0  0  0  0  0  0  0  0
    6.5410   -0.6870    0.1570 C   0  0  0  0  0  0  0  0  0  0  0  0
    7.3430   -1.3810   -0.5440 O   0  0  0  0  0  0  0  0  0  0  0  0
    6.8900    0.5130    0.9320 C   0  0  0  0  0  0  0  0  0  0  0  0
    5.6060    1.2580    1.1290 C   0  0  0  0  0  0  0  0  0  0  0  0
    4.5570    0.2670    0.8630 C   0  0  0  0  0  0  0  0  0  0  0  0
    3.3250    0.4040    1.0550 O   0  0  0  0  0  0  0  0  0  0  0  0
   -1.0090   -0.6740   -0.6710 C   0  0  0  0  0  0  0  0  0  0  0  0
   -1.6360   -1.4630    0.1330 C   0  0  0  0  0  0  0  0  0  0  0  0
   -1.0650   -2.9220    0.9040 Cl  0  0  0  0  0  0  0  0  0  0  0  0
   -3.0260   -0.9240    0.4510 C   0  0  1  0  0  0  0  0  0  0  0  0
   -2.8850   -0.5180    1.9310 C   0  0  0  0  0  0  0  0  0  0  0  0
   -1.6350    0.3640    2.0000 C   0  0  0  0  0  0  0  0  0  0  0  0
  1  2  2  0
  2  3  1  0
  2  5  1  0
  3  4  2  0
  5  6  2  0
  5  7  1  0
  7  8  1  0
  7 27  1  0
  8  9  2  0
  8 24  1  0
  9 10  1  0
 10 11  1  0
 11 12  1  0
 11 24  1  0
 12 13  2  0
 12 14  1  0
 14 15  1  0
 15 16  1  0
 16 17  1  0
 17 18  1  0
 17 22  1  0
 18 19  2  0
 18 20  1  0
 20 21  1  0
 21 22  1  0
 22 23  2  0
 24 25  2  0
 25 26  1  0
 25 27  1  0
 27 28  1  1
 28 29  1  0
M  END
