
     RDKit          3D

 29 30  0  0  0  0  0  0  0  0999 V2000
   -0.4230    2.9620   -2.0380 C   0  0  0  0  0  0  0  0  0  0  0  0
   -0.9220    1.6290   -1.6580 C   0  0  0  0  0  0  0  0  0  0  0  0
   -1.8580    1.4990   -0.6090 N   0  0  0  0  0  0  0  0  0  0  0  0
   -3.1430    2.1640   -0.6230 C   0  0  0  0  0  0  0  0  0  0  0  0
   -3.9120    1.8220    0.6320 C   0  0  1  0  0  0  0  0  0  0  0  0
   -3.2130    2.2290    1.7510 F   0  0  0  0  0  0  0  0  0  0  0  0
   -5.0960    2.5340    0.6010 F   0  0  0  0  0  0  0  0  0  0  0  0
   -4.1890    0.0710    0.7600 Cl  0  0  0  0  0  0  0  0  0  0  0  0
   -0.5070    0.5610   -2.2850 C   0  0  0  0  0  0  0  0  0  0  0  0
    0.4730    0.6950   -3.3870 C   0  0  0  0  0  0  0  0  0  0  0  0
    0.0030   -0.1150   -4.5480 C   0  0  0  0  0  0  0  0  0  0  0  0
   -1.4450   -0.5050   -4.3980 C   0  0  0  0  0  0  0  0  0  0  0  0
   -1.6800   -1.3570   -3.1710 C   0  0  0  0  0  0  0  0  0  0  0  0
   -0.9610   -0.8150   -1.9610 C   0  0  1  0  0  0  0  0  0  0  0  0
    0.0840   -1.6700   -1.4940 N   0  0  0  0  0  0  0  0  0  0  0  0
    0.1340   -2.2260   -0.1850 C   0  0  0  0  0  0  0  0  0  0  0  0
   -0.8080   -1.9330    0.5800 O   0  0  0  0  0  0  0  0  0  0  0  0
    1.2180   -3.1060    0.2820 C   0  0  0  0  0  0  0  0  0  0  0  0
    0.9330   -3.5030    1.7180 C   0  0  0  0  0  0  0  0  0  0  0  0
    0.8530   -2.3650    2.5960 N   0  0  0  0  0  0  0  0  0  0  0  0
    1.9240   -1.4650    2.7970 C   0  0  0  0  0  0  0  0  0  0  0  0
    3.0000   -1.7070    2.1510 O   0  0  0  0  0  0  0  0  0  0  0  0
    1.8700   -0.2970    3.6830 C   0  0  0  0  0  0  0  0  0  0  0  0
    0.7460    0.0060    4.3900 C   0  0  0  0  0  0  0  0  0  0  0  0
    0.7230    1.1220    5.2230 C   0  0  0  0  0  0  0  0  0  0  0  0
    1.8190    1.9250    5.3430 C   0  0  0  0  0  0  0  0  0  0  0  0
    2.9060    1.5860    4.6250 N   0  0  0  0  0  0  0  0  0  0  0  0
    2.9640    0.5320    3.8240 C   0  0  0  0  0  0  0  0  0  0  0  0
    4.1230    0.1940    3.0760 N   0  0  0  0  0  0  0  0  0  0  0  0
  1  2  1  0
  2  3  1  0
  2  9  2  3
  3  4  1  0
  4  5  1  0
  5  6  1  1
  5  7  1  0
  5  8  1  0
  9 10  1  0
  9 14  1  0
 10 11  1  0
 11 12  1  0
 12 13  1  0
 13 14  1  0
 14 15  1  6
 15 16  1  0
 16 17  2  0
 16 18  1  0
 18 19  1  0
 19 20  1  0
 20 21  1  0
 21 22  2  0
 21 23  1  0
 23 24  2  0
 23 28  1  0
 24 25  1  0
 25 26  2  0
 26 27  1  0
 27 28  2  0
 28 29  1  0
M  CHG  1  27   1
M  END
