
     RDKit          3D

 18 19  0  0  0  0  0  0  0  0999 V2000
    3.4810    1.8850    0.8200 C   0  0  0  0  0  0  0  0  0  0  0  0
    3.9890    0.7780    0.3450 C   0  0  0  0  0  0  0  0  0  0  0  0
    3.1350   -0.3400   -0.1280 C   0  0  0  0  0  0  0  0  0  0  0  0
    1.6950   -0.0890   -0.0150 C   0  0  0  0  0  0  0  0  0  0  0  0
    0.8030   -1.1880   -0.4620 C   0  0  0  0  0  0  0  0  0  0  0  0
   -0.6200   -0.7350   -0.2660 C   0  0  0  0  0  0  0  0  0  0  0  0
   -1.5910   -1.6370   -0.6310 C   0  0  0  0  0  0  0  0  0  0  0  0
   -2.9360   -1.3410   -0.5000 C   0  0  0  0  0  0  0  0  0  0  0  0
   -3.2840   -0.1190    0.0070 C   0  0  0  0  0  0  0  0  0  0  0  0
   -4.4830    0.4580    0.2540 N   0  0  0  0  0  0  0  0  0  0  0  0
   -4.2610    1.6680    0.7520 C   0  0  0  0  0  0  0  0  0  0  0  0
   -5.1880    2.4630    1.0870 O   0  0  0  0  0  0  0  0  0  0  0  0
   -2.9270    1.8620    0.8230 N   0  0  0  0  0  0  0  0  0  0  0  0
   -2.2760    0.7740    0.3690 C   0  0  0  0  0  0  0  0  0  0  0  0
   -0.9640    0.4500    0.2260 N   0  0  0  0  0  0  0  0  0  0  0  0
    3.7110   -1.4330   -0.5960 C   0  0  0  0  0  0  0  0  0  0  0  0
    5.4720   -1.5140   -0.6380 Cl  0  0  0  0  0  0  0  0  0  0  0  0
    2.8720   -2.8320   -1.1900 Cl  0  0  0  0  0  0  0  0  0  0  0  0
  1  2  2  0
  2  3  1  0
  3  4  1  0
  3 16  2  3
  4  5  1  0
  5  6  1  0
  6  7  2  0
  6 15  1  0
  7  8  1  0
  8  9  2  0
  9 10  1  0
  9 14  1  0
 10 11  1  0
 11 12  2  0
 11 13  1  0
 13 14  1  0
 14 15  2  0
 16 17  1  0
 16 18  1  0
M  END
