
     RDKit          3D

 26 28  0  0  0  0  0  0  0  0999 V2000
   -3.7750    4.2390   -0.0970 C   0  0  0  0  0  0  0  0  0  0  0  0
   -3.6280    2.8340   -0.5620 C   0  0  0  0  0  0  0  0  0  0  0  0
   -4.0950    2.4710   -1.6700 O   0  0  0  0  0  0  0  0  0  0  0  0
   -2.9530    1.9230    0.2680 N   0  0  0  0  0  0  0  0  0  0  0  0
   -2.7840    0.5430   -0.1400 C   0  0  1  0  0  0  0  0  0  0  0  0
   -1.3250    0.2310   -0.1090 C   0  0  0  0  0  0  0  0  0  0  0  0
   -0.2320    1.0010   -0.1130 N   0  0  0  0  0  0  0  0  0  0  0  0
    0.8320    0.2040   -0.0750 C   0  0  0  0  0  0  0  0  0  0  0  0
    2.2240    0.6670   -0.0660 C   0  0  0  0  0  0  0  0  0  0  0  0
    2.4290    1.8950   -0.0960 O   0  0  0  0  0  0  0  0  0  0  0  0
    3.2660   -0.2910   -0.0240 N   0  0  0  0  0  0  0  0  0  0  0  0
    4.6140    0.0200   -0.0160 C   0  0  0  0  0  0  0  0  0  0  0  0
    5.5170   -1.0160    0.2640 C   0  0  0  0  0  0  0  0  0  0  0  0
    6.8790   -0.8310    0.2870 C   0  0  0  0  0  0  0  0  0  0  0  0
    7.3630    0.4320    0.0230 C   0  0  0  0  0  0  0  0  0  0  0  0
    6.5310    1.4810   -0.2560 C   0  0  0  0  0  0  0  0  0  0  0  0
    5.1500    1.2430   -0.2690 C   0  0  0  0  0  0  0  0  0  0  0  0
    0.3900   -1.0970   -0.0470 C   0  0  0  0  0  0  0  0  0  0  0  0
   -0.9630   -1.0510   -0.0690 N   0  0  0  0  0  0  0  0  0  0  0  0
   -1.8850   -2.1470   -0.0540 C   0  0  2  0  0  0  0  0  0  0  0  0
   -1.9110   -2.7260   -1.4680 C   0  0  0  0  0  0  0  0  0  0  0  0
   -2.7990   -3.8000   -1.4990 O   0  0  0  0  0  0  0  0  0  0  0  0
   -3.2820   -1.7910    0.3220 C   0  0  1  0  0  0  0  0  0  0  0  0
   -3.7450   -2.6600    1.3360 O   0  0  0  0  0  0  0  0  0  0  0  0
   -3.4500   -0.3930    0.8470 C   0  0  2  0  0  0  0  0  0  0  0  0
   -4.8170   -0.0940    0.8300 O   0  0  0  0  0  0  0  0  0  0  0  0
  1  2  1  0
  2  3  2  0
  2  4  1  0
  5  4  1  1
  5  6  1  0
  5 25  1  0
  6  7  2  0
  6 19  1  0
  7  8  1  0
  8  9  1  0
  8 18  2  0
  9 10  2  0
  9 11  1  0
 11 12  1  0
 12 13  2  0
 12 17  1  0
 13 14  1  0
 14 15  2  0
 15 16  1  0
 16 17  2  0
 18 19  1  0
 19 20  1  0
 20 21  1  6
 20 23  1  0
 21 22  1  0
 23 24  1  1
 23 25  1  0
 25 26  1  6
M  END
