
     RDKit          3D

 18 19  0  0  0  0  0  0  0  0999 V2000
    5.7360    0.3600    0.3230 C   0  0  0  0  0  0  0  0  0  0  0  0
    4.2950    0.1870    0.2120 N   0  0  0  0  0  0  0  0  0  0  0  0
    3.6880   -1.0180   -0.2190 C   0  0  0  0  0  0  0  0  0  0  0  0
    4.4170   -1.9780   -0.5200 O   0  0  0  0  0  0  0  0  0  0  0  0
    2.2420   -1.1740   -0.3240 C   0  0  0  0  0  0  0  0  0  0  0  0
    1.2570   -0.2170   -0.0340 C   0  0  0  0  0  0  0  0  0  0  0  0
    0.0070   -0.7070   -0.2450 C   0  0  0  0  0  0  0  0  0  0  0  0
   -1.3380   -0.1280   -0.0960 C   0  0  0  0  0  0  0  0  0  0  0  0
   -2.4190   -0.9480   -0.4140 C   0  0  0  0  0  0  0  0  0  0  0  0
   -3.7000   -0.4940   -0.3050 C   0  0  0  0  0  0  0  0  0  0  0  0
   -5.0850   -1.5240   -0.7050 Cl  0  0  0  0  0  0  0  0  0  0  0  0
   -3.9260    0.7940    0.1250 C   0  0  0  0  0  0  0  0  0  0  0  0
   -5.3220    1.2780    0.2400 C   0  0  0  0  0  0  0  0  0  0  0  0
   -2.8960    1.6280    0.4450 C   0  0  0  0  0  0  0  0  0  0  0  0
   -1.5840    1.1440    0.3280 C   0  0  0  0  0  0  0  0  0  0  0  0
   -0.2570    2.2300    0.7440 Cl  0  0  0  0  0  0  0  0  0  0  0  0
    0.2440   -1.9910   -0.6740 N   0  0  0  0  0  0  0  0  0  0  0  0
    1.5340   -2.2400   -0.7120 N   0  0  0  0  0  0  0  0  0  0  0  0
  1  2  1  0
  2  3  1  0
  3  4  2  0
  3  5  1  0
  5  6  2  0
  5 18  1  0
  6  7  1  0
  7  8  1  0
  7 17  2  0
  8  9  2  0
  8 15  1  0
  9 10  1  0
 10 11  1  0
 10 12  2  0
 12 13  1  0
 12 14  1  0
 14 15  2  0
 15 16  1  0
 17 18  1  0
M  END
