
     RDKit          3D

 14 15  0  0  0  0  0  0  0  0999 V2000
   -2.7790   -1.8250   -0.3900 C   0  0  0  0  0  0  0  0  0  0  0  0
   -1.6530   -0.8620   -0.2820 C   0  0  0  0  0  0  0  0  0  0  0  0
   -0.3670   -1.3190   -0.5510 C   0  0  0  0  0  0  0  0  0  0  0  0
    0.7270   -0.4790   -0.3540 C   0  0  0  0  0  0  0  0  0  0  0  0
    0.5570    0.8230    0.0770 C   0  0  0  0  0  0  0  0  0  0  0  0
   -0.7230    1.2950    0.3270 C   0  0  0  0  0  0  0  0  0  0  0  0
   -1.7950    0.4410    0.1420 C   0  0  0  0  0  0  0  0  0  0  0  0
   -3.2020    0.8440    0.5370 C   0  0  0  0  0  0  0  0  0  0  0  0
   -4.0480    0.9140   -0.6040 O   0  0  0  0  0  0  0  0  0  0  0  0
    1.6930    1.7280    0.3740 C   0  0  0  0  0  0  0  0  0  0  0  0
    3.0470    1.0910    0.1910 C   0  0  0  0  0  0  0  0  0  0  0  0
    2.9650    0.1690   -1.0250 C   0  0  0  0  0  0  0  0  0  0  0  0
    2.1050   -0.9830   -0.6040 C   0  0  2  0  0  0  0  0  0  0  0  0
    2.1870   -2.1070   -1.3930 O   0  0  0  0  0  0  0  0  0  0  0  0
  1  2  1  0
  2  3  2  0
  2  7  1  0
  3  4  1  0
  4  5  2  0
  4 13  1  0
  5  6  1  0
  5 10  1  0
  6  7  2  0
  7  8  1  0
  8  9  1  0
 10 11  1  0
 11 12  1  0
 12 13  1  0
 13 14  1  6
M  END
