
     RDKit          3D

 14 15  0  0  0  0  0  0  0  0999 V2000
   -3.1300   -1.7080    1.2010 C   0  0  0  0  0  0  0  0  0  0  0  0
   -2.8140   -0.4490    1.3900 C   0  0  0  0  0  0  0  0  0  0  0  0
   -1.6510    0.1040    0.6870 C   0  0  0  0  0  0  0  0  0  0  0  0
   -1.8610    1.1760   -0.1610 C   0  0  0  0  0  0  0  0  0  0  0  0
   -0.8290    1.7460   -0.8510 C   0  0  0  0  0  0  0  0  0  0  0  0
   -1.0370    2.8030   -1.6910 O   0  0  0  0  0  0  0  0  0  0  0  0
    0.4440    1.2300   -0.6840 C   0  0  0  0  0  0  0  0  0  0  0  0
    0.6820    0.1680    0.1520 C   0  0  0  0  0  0  0  0  0  0  0  0
    1.9920   -0.4030    0.3670 C   0  0  0  0  0  0  0  0  0  0  0  0
    2.3830   -0.8000    1.6380 O   0  0  0  0  0  0  0  0  0  0  0  0
    2.7910   -0.5330   -0.6700 C   0  0  0  0  0  0  0  0  0  0  0  0
    3.2550   -0.4660   -2.0470 C   0  0  0  0  0  0  0  0  0  0  0  0
    4.1020   -0.9590   -1.1440 C   0  0  0  0  0  0  0  0  0  0  0  0
   -0.3900   -0.3960    0.8430 C   0  0  0  0  0  0  0  0  0  0  0  0
  1  2  2  0
  2  3  1  0
  3  4  2  0
  3 14  1  0
  4  5  1  0
  5  6  1  0
  5  7  2  0
  7  8  1  0
  8  9  1  0
  8 14  2  0
  9 10  1  0
  9 11  2  3
 11 12  1  0
 11 13  1  0
 12 13  2  0
M  END
