
     RDKit          3D

 18 19  0  0  0  0  0  0  0  0999 V2000
    5.7830    0.7760    0.2780 N   0  0  0  0  0  0  0  0  0  0  0  0
    4.7640    0.8910   -0.6900 C   0  0  0  0  0  0  0  0  0  0  0  0
    3.5170    0.5010   -0.4920 C   0  0  0  0  0  0  0  0  0  0  0  0
    2.4860    0.6320   -1.5090 C   0  0  0  0  0  0  0  0  0  0  0  0
    1.2350    0.2410   -1.3100 C   0  0  0  0  0  0  0  0  0  0  0  0
    0.0000    0.4000   -2.5370 Cl  0  0  0  0  0  0  0  0  0  0  0  0
    0.8650   -0.3390   -0.0430 C   0  0  0  0  0  0  0  0  0  0  0  0
   -0.5120   -0.8000    0.2560 C   0  0  0  0  0  0  0  0  0  0  0  0
   -1.4560    0.2470    0.1590 O   0  0  0  0  0  0  0  0  0  0  0  0
   -2.7810   -0.0740    0.4190 C   0  0  0  0  0  0  0  0  0  0  0  0
   -3.7620    0.8990    0.3440 C   0  0  0  0  0  0  0  0  0  0  0  0
   -5.0680    0.6190    0.5930 C   0  0  0  0  0  0  0  0  0  0  0  0
   -6.2890    1.8720    0.4900 Cl  0  0  0  0  0  0  0  0  0  0  0  0
   -5.4440   -0.6610    0.9300 C   0  0  0  0  0  0  0  0  0  0  0  0
   -4.4700   -1.6310    1.0050 C   0  0  0  0  0  0  0  0  0  0  0  0
   -3.1890   -1.3120    0.7520 N   0  0  0  0  0  0  0  0  0  0  0  0
    1.7790   -0.4730    0.9060 C   0  0  0  0  0  0  0  0  0  0  0  0
    3.1320   -0.0740    0.7560 N   0  0  0  0  0  0  0  0  0  0  0  0
  1  2  1  0
  2  3  2  3
  3  4  1  0
  3 18  1  0
  4  5  2  0
  5  6  1  0
  5  7  1  0
  7  8  1  0
  7 17  2  0
  8  9  1  0
  9 10  1  0
 10 11  2  0
 10 16  1  0
 11 12  1  0
 12 13  1  0
 12 14  2  0
 14 15  1  0
 15 16  2  0
 17 18  1  0
M  END
