
     RDKit          3D

 12 11  0  0  0  0  0  0  0  0999 V2000
   -1.9580    1.5010   -0.0090 N   0  0  0  0  0  0  0  0  0  0  0  0
   -2.6890    0.3650    0.3400 O   0  0  0  0  0  0  0  0  0  0  0  0
   -2.0720   -0.8740    0.4070 C   0  0  0  0  0  0  0  0  0  0  0  0
   -2.7630   -2.0490    0.0090 N   0  0  0  0  0  0  0  0  0  0  0  0
   -0.8560   -0.9080    0.8410 N   0  0  0  0  0  0  0  0  0  0  0  0
   -0.1540    0.2540    1.2400 C   0  0  0  0  0  0  0  0  0  0  0  0
    0.9640    0.6190    0.6370 C   0  0  0  0  0  0  0  0  0  0  0  0
    1.5880    1.7800    1.0990 O   0  0  0  0  0  0  0  0  0  0  0  0
    1.5370   -0.1420   -0.4650 C   0  0  0  0  0  0  0  0  0  0  0  0
    0.8920   -1.3190   -0.9230 N   0  0  0  0  0  0  0  0  0  0  0  0
    2.6420    0.2690   -1.0200 C   0  0  0  0  0  0  0  0  0  0  0  0
    3.2610    1.4120   -0.5680 O   0  0  0  0  0  0  0  0  0  0  0  0
  1  2  1  0
  2  3  1  0
  3  4  1  0
  3  5  2  3
  5  6  1  0
  6  7  2  3
  7  8  1  0
  7  9  1  0
  9 10  1  0
  9 11  2  3
 11 12  1  0
M  END
