
     RDKit          3D

 12 12  0  0  0  0  0  0  0  0999 V2000
    3.3820    0.5840   -1.4300 C   0  0  0  0  0  0  0  0  0  0  0  0
    2.0350    0.4470   -1.0450 O   0  0  0  0  0  0  0  0  0  0  0  0
    1.6390    0.2130    0.2540 C   0  0  0  0  0  0  0  0  0  0  0  0
    2.6070    0.1720    1.2800 N   0  0  0  0  0  0  0  0  0  0  0  0
    0.3630    0.0330    0.5090 C   0  0  0  0  0  0  0  0  0  0  0  0
   -0.6570    0.0700   -0.5280 C   0  0  0  0  0  0  0  0  0  0  0  0
   -0.3070    0.3060   -1.8750 N   0  0  0  0  0  0  0  0  0  0  0  0
   -1.9310   -0.1150   -0.2420 C   0  0  0  0  0  0  0  0  0  0  0  0
   -2.4880   -0.3680    1.0650 N   0  0  0  0  0  0  0  0  0  0  0  0
   -3.8250   -0.2670    0.8900 O   0  0  0  0  0  0  0  0  0  0  0  0
   -4.0240   -0.7700   -0.3440 N   0  0  0  0  0  0  0  0  0  0  0  0
   -3.0350   -0.1160   -1.0820 O   0  0  0  0  0  0  0  0  0  0  0  0
  1  2  1  0
  2  3  1  0
  3  4  1  0
  3  5  2  3
  5  6  1  0
  6  7  1  0
  6  8  2  3
  8  9  1  0
  8 12  1  0
  9 10  1  0
 10 11  1  0
 11 12  1  0
M  CHG  1  11   1
M  END
