
     RDKit          3D

 13 12  0  0  0  0  0  0  0  0999 V2000
    4.1200    0.7390   -0.1450 C   0  0  0  0  0  0  0  0  0  0  0  0
    3.1700   -0.3630   -0.3920 C   0  0  0  0  0  0  0  0  0  0  0  0
    3.7970   -1.6290   -0.5830 O   0  0  0  0  0  0  0  0  0  0  0  0
    1.8560   -0.2800   -0.4470 C   0  0  0  0  0  0  0  0  0  0  0  0
    1.1850   -1.5360   -0.7060 N   0  0  0  0  0  0  0  0  0  0  0  0
    1.0460    0.8840   -0.2790 C   0  0  0  0  0  0  0  0  0  0  0  0
    1.7940    2.1110   -0.0220 N   0  0  0  0  0  0  0  0  0  0  0  0
   -0.2620    0.9910   -0.3310 C   0  0  0  0  0  0  0  0  0  0  0  0
   -1.3000   -0.0070   -0.5690 C   0  0  0  0  0  0  0  0  0  0  0  0
   -2.1970   -0.0950    0.5750 N   0  0  0  0  0  0  0  0  0  0  0  0
   -3.0160    1.0520    0.7780 C   0  0  0  0  0  0  0  0  0  0  0  0
   -3.0050   -1.2940    0.5240 C   0  0  0  0  0  0  0  0  0  0  0  0
   -3.8300   -1.3650   -0.6450 N   0  0  0  0  0  0  0  0  0  0  0  0
  1  2  1  0
  2  3  1  0
  2  4  2  3
  4  5  1  0
  4  6  1  0
  6  7  1  0
  6  8  2  3
  8  9  1  0
  9 10  1  0
 10 11  1  0
 10 12  1  0
 12 13  1  0
M  END
