
     RDKit          3D

 13 12  0  0  0  0  0  0  0  0999 V2000
    4.5840   -0.1690    0.3690 C   0  0  0  0  0  0  0  0  0  0  0  0
    3.7390    0.6920   -0.4450 N   0  0  0  0  0  0  0  0  0  0  0  0
    2.5170    0.2730   -1.0170 C   0  0  0  0  0  0  0  0  0  0  0  0
    1.3800    0.1320   -0.3350 C   0  0  0  0  0  0  0  0  0  0  0  0
    0.1730   -0.3000   -0.9830 C   0  0  0  0  0  0  0  0  0  0  0  0
   -0.9860   -0.4790   -0.4600 C   0  0  0  0  0  0  0  0  0  0  0  0
   -2.0400   -0.9100   -1.2880 O   0  0  0  0  0  0  0  0  0  0  0  0
   -1.7830   -1.0080   -2.6690 C   0  0  0  0  0  0  0  0  0  0  0  0
   -1.3280   -0.2780    0.9250 C   0  0  0  0  0  0  0  0  0  0  0  0
   -0.4170    0.1510    1.9190 N   0  0  0  0  0  0  0  0  0  0  0  0
   -2.6010   -0.5110    1.3250 C   0  0  0  0  0  0  0  0  0  0  0  0
   -2.9710   -0.3260    2.6670 N   0  0  0  0  0  0  0  0  0  0  0  0
   -3.5710   -0.9410    0.4010 N   0  0  0  0  0  0  0  0  0  0  0  0
  1  2  1  0
  2  3  1  0
  3  4  2  3
  4  5  1  0
  5  6  2  3
  6  7  1  0
  6  9  1  0
  7  8  1  0
  9 10  1  0
  9 11  2  3
 11 12  1  0
 11 13  1  0
M  END
