
     RDKit          3D

 16 17  0  0  0  0  0  0  0  0999 V2000
   -4.1230    0.0160    1.2890 C   0  0  0  0  0  0  0  0  0  0  0  0
   -4.1490   -0.6900   -0.0340 C   0  0  0  0  0  0  0  0  0  0  0  0
   -2.8010   -1.3520   -0.2460 C   0  0  0  0  0  0  0  0  0  0  0  0
   -1.7040   -0.3720   -0.2530 C   0  0  0  0  0  0  0  0  0  0  0  0
   -0.8660   -0.1140   -1.1480 N   0  0  0  0  0  0  0  0  0  0  0  0
    0.0950    0.8670   -0.9370 C   0  0  1  0  0  0  0  0  0  0  0  0
    0.4580    0.9480    0.5290 C   0  0  2  0  0  0  0  0  0  0  0  0
    1.1440   -0.1070    1.0250 O   0  0  0  0  0  0  0  0  0  0  0  0
    2.2660   -0.5110    0.3900 C   0  0  2  0  0  0  0  0  0  0  0  0
    3.5350    0.1900    0.8830 C   0  0  0  0  0  0  0  0  0  0  0  0
    3.4780    1.5520    0.7120 O   0  0  0  0  0  0  0  0  0  0  0  0
    2.2080   -0.5000   -1.1100 C   0  0  1  0  0  0  0  0  0  0  0  0
    1.7840   -1.7410   -1.6260 O   0  0  0  0  0  0  0  0  0  0  0  0
    1.3550    0.5560   -1.6940 C   0  0  2  0  0  0  0  0  0  0  0  0
    2.1190    1.7380   -1.8070 O   0  0  0  0  0  0  0  0  0  0  0  0
   -1.2920    0.7070    1.1200 S   0  0  0  0  0  0  0  0  0  0  0  0
  1  2  1  0
  2  3  1  0
  3  4  1  0
  4  5  2  0
  4 16  1  0
  6  5  1  1
  6  7  1  0
  6 14  1  0
  7  8  1  1
  7 16  1  0
  8  9  1  0
  9 10  1  6
  9 12  1  0
 10 11  1  0
 12 13  1  1
 12 14  1  0
 14 15  1  1
M  END
