
     RDKit          3D

 22 22  0  0  0  0  0  0  0  0999 V2000
   -4.8810   -0.8320   -2.1270 O   0  0  0  0  0  0  0  0  0  0  0  0
   -4.8950    0.1840   -1.4000 C   0  0  0  0  0  0  0  0  0  0  0  0
   -5.9210    1.1030   -1.5650 O   0  0  0  0  0  0  0  0  0  0  0  0
   -3.8900    0.3770   -0.4410 N   0  0  0  0  0  0  0  0  0  0  0  0
   -3.8710    1.5560    0.4320 C   0  0  0  0  0  0  0  0  0  0  0  0
   -2.7210    1.4980    1.3850 C   0  0  1  0  0  0  0  0  0  0  0  0
   -2.9600    0.4050    2.2490 O   0  0  0  0  0  0  0  0  0  0  0  0
   -1.4230    1.1520    0.6510 C   0  0  0  0  0  0  0  0  0  0  0  0
   -1.5670   -0.2180    0.2180 N   0  0  0  0  0  0  0  0  0  0  0  0
   -0.5220   -1.1820    0.2730 C   0  0  0  0  0  0  0  0  0  0  0  0
   -0.7280   -2.3560   -0.1240 O   0  0  0  0  0  0  0  0  0  0  0  0
    0.7400   -0.8850    0.7550 O   0  0  0  0  0  0  0  0  0  0  0  0
    1.8240   -1.7820    0.8380 C   0  0  0  0  0  0  0  0  0  0  0  0
    2.2640   -2.3390   -0.4730 C   0  0  0  0  0  0  0  0  0  0  0  0
    2.6740   -1.5590   -1.4500 O   0  0  0  0  0  0  0  0  0  0  0  0
    3.6860   -0.7250   -1.5300 C   0  0  0  0  0  0  0  0  0  0  0  0
    3.7650    0.4760   -0.6300 C   0  0  0  0  0  0  0  0  0  0  0  0
    4.9660    1.1790   -0.9780 O   0  0  0  0  0  0  0  0  0  0  0  0
    5.0770    2.2420   -0.2130 O   0  0  0  0  0  0  0  0  0  0  0  0
    6.1150    2.2290    0.5600 O   0  0  0  0  0  0  0  0  0  0  0  0
   -2.8400   -0.5840   -0.2870 C   0  0  0  0  0  0  0  0  0  0  0  0
   -3.0620   -1.7760   -0.6080 O   0  0  0  0  0  0  0  0  0  0  0  0
  1  2  2  0
  2  3  1  0
  2  4  1  0
  4  5  1  0
  4 21  1  0
  5  6  1  0
  6  7  1  1
  6  8  1  0
  8  9  1  0
  9 10  1  0
  9 21  1  0
 10 11  2  0
 10 12  1  0
 12 13  1  0
 13 14  1  0
 14 15  1  0
 15 16  1  0
 16 17  1  0
 17 18  1  0
 18 19  1  0
 19 20  1  0
 21 22  2  0
M  END
