
     RDKit          3D

 22 22  0  0  0  0  0  0  0  0999 V2000
    2.8600   -0.5210   -2.2800 O   0  0  0  0  0  0  0  0  0  0  0  0
    2.9780   -0.5130   -1.0430 C   0  0  0  0  0  0  0  0  0  0  0  0
    4.2490   -0.8070   -0.4450 N   0  0  0  0  0  0  0  0  0  0  0  0
    5.4030   -1.1150   -1.2410 C   0  0  0  0  0  0  0  0  0  0  0  0
    6.5740   -1.3760   -0.3510 C   0  0  0  0  0  0  0  0  0  0  0  0
    7.7240   -1.6800   -1.0870 O   0  0  0  0  0  0  0  0  0  0  0  0
    1.8350   -0.2080   -0.2050 C   0  0  0  0  0  0  0  0  0  0  0  0
    1.8310   -0.1650    1.1690 C   0  0  0  0  0  0  0  0  0  0  0  0
    0.6300    0.1400    1.5300 O   0  0  0  0  0  0  0  0  0  0  0  0
   -0.1630    0.3040    0.4950 C   0  0  0  0  0  0  0  0  0  0  0  0
   -1.5100    0.6350    0.4970 O   0  0  0  0  0  0  0  0  0  0  0  0
   -1.9860    1.9310    0.4640 C   0  0  0  0  0  0  0  0  0  0  0  0
   -1.1250    2.8410    0.4320 O   0  0  0  0  0  0  0  0  0  0  0  0
   -3.4200    2.3100    0.4660 C   0  0  2  0  0  0  0  0  0  0  0  0
   -3.4900    3.7220    0.4410 O   0  0  0  0  0  0  0  0  0  0  0  0
   -3.9760    1.7970    1.6020 O   0  0  0  0  0  0  0  0  0  0  0  0
   -4.9680    0.8850    1.5040 C   0  0  0  0  0  0  0  0  0  0  0  0
   -4.6780   -0.4110    0.8390 C   0  0  0  0  0  0  0  0  0  0  0  0
   -4.2810   -0.3070   -0.4630 O   0  0  0  0  0  0  0  0  0  0  0  0
   -4.0440   -1.4700   -0.9860 O   0  0  0  0  0  0  0  0  0  0  0  0
   -5.1170   -1.9510   -1.5850 O   0  0  0  0  0  0  0  0  0  0  0  0
    0.5900    0.0860   -0.6170 N   0  0  0  0  0  0  0  0  0  0  0  0
  1  2  2  0
  2  3  1  0
  2  7  1  0
  3  4  1  0
  4  5  1  0
  5  6  1  0
  7  8  2  0
  7 22  1  0
  8  9  1  0
  9 10  1  0
 10 11  1  0
 10 22  2  0
 11 12  1  0
 12 13  2  0
 12 14  1  0
 14 15  1  1
 14 16  1  0
 16 17  1  0
 17 18  1  0
 18 19  1  0
 19 20  1  0
 20 21  1  0
M  END
