
     RDKit          3D

 22 22  0  0  0  0  0  0  0  0999 V2000
    1.8700    0.4040    2.4690 O   0  0  0  0  0  0  0  0  0  0  0  0
    2.7790    1.0740    1.9490 C   0  0  0  0  0  0  0  0  0  0  0  0
    3.1200    2.2880    2.5620 O   0  0  0  0  0  0  0  0  0  0  0  0
    3.3860    0.6040    0.8330 O   0  0  0  0  0  0  0  0  0  0  0  0
    3.1920   -0.5510    0.0970 C   0  0  0  0  0  0  0  0  0  0  0  0
    1.8360   -0.7060   -0.4620 N   0  0  0  0  0  0  0  0  0  0  0  0
    1.5970   -0.1190   -1.7340 C   0  0  0  0  0  0  0  0  0  0  0  0
    2.3840   -0.5260   -2.6870 O   0  0  0  0  0  0  0  0  0  0  0  0
    0.6170    0.8440   -2.0870 N   0  0  0  0  0  0  0  0  0  0  0  0
    0.2160    2.0030   -1.4150 C   0  0  0  0  0  0  0  0  0  0  0  0
    0.1100    3.1190   -2.0760 O   0  0  0  0  0  0  0  0  0  0  0  0
   -0.1250    2.1670   -0.0090 C   0  0  0  0  0  0  0  0  0  0  0  0
    0.5320    3.0380    0.6730 O   0  0  0  0  0  0  0  0  0  0  0  0
   -1.0840    1.4920    0.7070 O   0  0  0  0  0  0  0  0  0  0  0  0
   -2.2810    1.1180    0.3220 O   0  0  0  0  0  0  0  0  0  0  0  0
   -2.7740    0.2020    1.2460 C   0  0  0  0  0  0  0  0  0  0  0  0
   -3.1250   -1.0660    0.5030 C   0  0  0  0  0  0  0  0  0  0  0  0
   -2.5700   -0.9910   -0.8890 C   0  0  0  0  0  0  0  0  0  0  0  0
   -1.2480   -1.7220   -0.9360 C   0  0  0  0  0  0  0  0  0  0  0  0
   -0.4600   -1.4280    0.1670 O   0  0  0  0  0  0  0  0  0  0  0  0
    0.9060   -1.4610    0.3020 C   0  0  0  0  0  0  0  0  0  0  0  0
    1.4090   -2.2470    1.2000 O   0  0  0  0  0  0  0  0  0  0  0  0
  1  2  2  0
  2  3  1  0
  2  4  1  0
  4  5  1  0
  5  6  1  0
  6  7  1  0
  6 21  1  0
  7  8  2  0
  7  9  1  0
  9 10  1  0
 10 11  2  0
 10 12  1  0
 12 13  2  0
 12 14  1  0
 14 15  1  0
 15 16  1  0
 16 17  1  0
 17 18  1  0
 18 19  1  0
 19 20  1  0
 20 21  1  0
 21 22  2  0
M  END
