
     RDKit          3D

 22 24  0  0  0  0  0  0  0  0999 V2000
    6.8950   -1.5270    0.8350 O   0  0  0  0  0  0  0  0  0  0  0  0
    5.6860   -1.2480    0.7260 C   0  0  0  0  0  0  0  0  0  0  0  0
    5.0180   -0.6260    1.7700 O   0  0  0  0  0  0  0  0  0  0  0  0
    4.9440   -1.5760   -0.5190 C   0  0  0  0  0  0  0  0  0  0  0  0
    3.5930   -1.1760   -0.4350 O   0  0  0  0  0  0  0  0  0  0  0  0
    3.2220    0.1440   -0.2330 C   0  0  0  0  0  0  0  0  0  0  0  0
    4.1470    0.9860   -0.1270 O   0  0  0  0  0  0  0  0  0  0  0  0
    1.8440    0.5250   -0.1510 N   0  0  0  0  0  0  0  0  0  0  0  0
    0.6810   -0.3460   -0.2570 C   0  0  0  0  0  0  0  0  0  0  0  0
   -0.4220    0.6100   -0.0950 C   0  0  0  0  0  0  0  0  0  0  0  0
    0.0550    1.8870    0.0840 C   0  0  0  0  0  0  0  0  0  0  0  0
   -0.9980    2.6820    0.2210 O   0  0  0  0  0  0  0  0  0  0  0  0
   -2.1170    1.9990    0.1410 C   0  0  0  0  0  0  0  0  0  0  0  0
   -1.8220    0.6670   -0.0600 C   0  0  0  0  0  0  0  0  0  0  0  0
   -2.8200   -0.2650   -0.1790 O   0  0  0  0  0  0  0  0  0  0  0  0
   -4.1780    0.0220   -0.1110 C   0  0  2  0  0  0  0  0  0  0  0  0
   -4.8090   -0.2880   -1.3390 O   0  0  0  0  0  0  0  0  0  0  0  0
   -5.7710   -1.1580   -1.1920 O   0  0  0  0  0  0  0  0  0  0  0  0
   -6.4430   -0.9780   -0.0830 O   0  0  0  0  0  0  0  0  0  0  0  0
   -4.4210    1.4590    0.1060 C   0  0  0  0  0  0  0  0  0  0  0  0
   -3.4940    2.3170    0.2140 N   0  0  0  0  0  0  0  0  0  0  0  0
    1.4460    1.8230    0.0480 O   0  0  0  0  0  0  0  0  0  0  0  0
  1  2  2  0
  2  3  1  0
  2  4  1  0
  4  5  1  0
  5  6  1  0
  6  7  2  0
  6  8  1  0
  8  9  1  0
  8 22  1  0
  9 10  1  0
 10 11  2  0
 10 14  1  0
 11 12  1  0
 11 22  1  0
 12 13  1  0
 13 14  2  0
 13 21  1  0
 14 15  1  0
 15 16  1  0
 16 17  1  6
 16 20  1  0
 17 18  1  0
 18 19  1  0
 20 21  2  0
M  END
