
     RDKit          3D

 22 22  0  0  0  0  0  0  0  0999 V2000
    4.4010   -2.1780   -0.1710 O   0  0  0  0  0  0  0  0  0  0  0  0
    4.2770   -0.9470   -0.0300 C   0  0  0  0  0  0  0  0  0  0  0  0
    5.4950   -0.1380    0.2110 C   0  0  0  0  0  0  0  0  0  0  0  0
    5.1260    1.2090    0.3390 O   0  0  0  0  0  0  0  0  0  0  0  0
    6.2320    1.8880    0.5500 O   0  0  0  0  0  0  0  0  0  0  0  0
    2.9800   -0.3500   -0.1020 N   0  0  0  0  0  0  0  0  0  0  0  0
    1.8060   -1.1120   -0.3320 C   0  0  0  0  0  0  0  0  0  0  0  0
    1.9860   -2.3520   -0.4640 O   0  0  0  0  0  0  0  0  0  0  0  0
    0.4950   -0.5970   -0.4200 N   0  0  0  0  0  0  0  0  0  0  0  0
   -0.5610   -1.5820   -0.6540 C   0  0  0  0  0  0  0  0  0  0  0  0
   -1.6910   -1.0650   -1.4720 C   0  0  0  0  0  0  0  0  0  0  0  0
   -2.9330   -1.5950   -1.1190 O   0  0  0  0  0  0  0  0  0  0  0  0
   -3.9410   -0.6340   -1.3580 C   0  0  0  0  0  0  0  0  0  0  0  0
   -4.6350   -0.2870   -0.1970 O   0  0  0  0  0  0  0  0  0  0  0  0
   -4.6010    0.9530    0.4260 C   0  0  0  0  0  0  0  0  0  0  0  0
   -5.6340    1.5840    0.7740 O   0  0  0  0  0  0  0  0  0  0  0  0
   -3.3170    1.6420    0.7370 C   0  0  0  0  0  0  0  0  0  0  0  0
   -2.5360    0.7420    1.6610 C   0  0  0  0  0  0  0  0  0  0  0  0
   -1.1820    0.9310    1.6320 O   0  0  0  0  0  0  0  0  0  0  0  0
   -0.7170    1.3890    0.4680 O   0  0  0  0  0  0  0  0  0  0  0  0
    0.2730    0.7850   -0.2880 C   0  0  0  0  0  0  0  0  0  0  0  0
    1.0360    1.5790   -0.9090 O   0  0  0  0  0  0  0  0  0  0  0  0
  1  2  2  0
  2  3  1  0
  2  6  1  0
  3  4  1  0
  4  5  1  0
  6  7  1  0
  7  8  2  0
  7  9  1  0
  9 10  1  0
  9 21  1  0
 10 11  1  0
 11 12  1  0
 12 13  1  0
 13 14  1  0
 14 15  1  0
 15 16  2  0
 15 17  1  0
 17 18  1  0
 18 19  1  0
 19 20  1  0
 20 21  1  0
 21 22  2  0
M  END
