
     RDKit          3D

 27 29  0  0  0  0  0  0  0  0999 V2000
   -3.6770    3.1280   -0.6050 C   0  0  0  0  0  0  0  0  0  0  0  0
   -4.5750    2.0160   -1.0620 C   0  0  1  0  0  0  0  0  0  0  0  0
   -5.3340    2.3870   -2.3110 C   0  0  0  0  0  0  0  0  0  0  0  0
   -3.8080    0.7480   -1.3140 C   0  0  0  0  0  0  0  0  0  0  0  0
   -3.8070    0.2160   -2.4590 O   0  0  0  0  0  0  0  0  0  0  0  0
   -3.0780    0.1290   -0.2850 N   0  0  0  0  0  0  0  0  0  0  0  0
   -2.3130   -1.1110   -0.4800 C   0  0  1  0  0  0  0  0  0  0  0  0
   -0.8870   -0.8020   -0.2480 C   0  0  0  0  0  0  0  0  0  0  0  0
   -0.0110   -0.1710   -1.0300 N   0  0  0  0  0  0  0  0  0  0  0  0
    1.2020   -0.1100   -0.4110 C   0  0  0  0  0  0  0  0  0  0  0  0
    2.4490    0.5000   -0.9200 C   0  0  0  0  0  0  0  0  0  0  0  0
    3.5260    0.3320    0.0960 C   0  0  0  0  0  0  0  0  0  0  0  0
    4.8240    0.9160   -0.3290 C   0  0  0  0  0  0  0  0  0  0  0  0
    5.7290    0.1420   -1.0240 C   0  0  0  0  0  0  0  0  0  0  0  0
    6.9560    0.6450   -1.4420 C   0  0  0  0  0  0  0  0  0  0  0  0
    7.3090    1.9530   -1.1710 C   0  0  0  0  0  0  0  0  0  0  0  0
    6.4140    2.7330   -0.4790 C   0  0  0  0  0  0  0  0  0  0  0  0
    5.1970    2.2180   -0.0700 C   0  0  0  0  0  0  0  0  0  0  0  0
    1.0440   -0.7290    0.7890 C   0  0  0  0  0  0  0  0  0  0  0  0
   -0.2250   -1.1390    0.8640 N   0  0  0  0  0  0  0  0  0  0  0  0
   -0.9280   -1.8490    1.9180 C   0  0  2  0  0  0  0  0  0  0  0  0
    0.0310   -2.5400    2.8400 C   0  0  0  0  0  0  0  0  0  0  0  0
   -0.6940   -3.2000    3.8240 O   0  0  0  0  0  0  0  0  0  0  0  0
   -1.8050   -2.8800    1.2320 C   0  0  1  0  0  0  0  0  0  0  0  0
   -2.4730   -3.5670    2.2670 O   0  0  0  0  0  0  0  0  0  0  0  0
   -2.8360   -2.1750    0.4190 C   0  0  2  0  0  0  0  0  0  0  0  0
   -3.5670   -3.1540   -0.2760 O   0  0  0  0  0  0  0  0  0  0  0  0
  2  1  1  6
  2  3  1  0
  2  4  1  0
  4  5  2  0
  4  6  1  0
  7  6  1  1
  7  8  1  0
  7 26  1  0
  8  9  2  0
  8 20  1  0
  9 10  1  0
 10 11  1  0
 10 19  2  0
 11 12  1  0
 12 13  1  0
 13 14  2  0
 13 18  1  0
 14 15  1  0
 15 16  2  0
 16 17  1  0
 17 18  2  0
 19 20  1  0
 20 21  1  0
 21 22  1  1
 21 24  1  0
 22 23  1  0
 24 25  1  1
 24 26  1  0
 26 27  1  6
M  END
