
     RDKit          3D

 27 29  0  0  0  0  0  0  0  0999 V2000
    5.8860   -3.4920   -0.6920 C   0  0  0  0  0  0  0  0  0  0  0  0
    6.4490   -2.2900   -1.1250 O   0  0  0  0  0  0  0  0  0  0  0  0
    5.8660   -1.0500   -1.0840 C   0  0  0  0  0  0  0  0  0  0  0  0
    4.5760   -0.9010   -0.5670 C   0  0  0  0  0  0  0  0  0  0  0  0
    3.9980    0.3400   -0.5280 C   0  0  0  0  0  0  0  0  0  0  0  0
    2.7190    0.6050   -0.0250 N   0  0  0  0  0  0  0  0  0  0  0  0
    1.8850   -0.2470    0.7270 C   0  0  0  0  0  0  0  0  0  0  0  0
    2.2960   -1.3950    1.0110 O   0  0  0  0  0  0  0  0  0  0  0  0
    0.5470    0.2020    1.1740 C   0  0  0  0  0  0  0  0  0  0  0  0
    0.1800    1.3350    0.8570 O   0  0  0  0  0  0  0  0  0  0  0  0
   -0.3050   -0.6310    1.9470 N   0  0  0  0  0  0  0  0  0  0  0  0
   -1.6020   -0.2540    2.4010 C   0  0  2  0  0  0  0  0  0  0  0  0
   -1.8710   -0.3380    3.8900 C   0  0  0  0  0  0  0  0  0  0  0  0
   -3.2570   -0.8800    3.5660 C   0  0  0  0  0  0  0  0  0  0  0  0
   -2.7340   -1.2280    2.1940 C   0  0  1  0  0  0  0  0  0  0  0  0
   -3.6530   -0.7200    1.1690 N   0  0  0  0  0  0  0  0  0  0  0  0
   -3.2340   -0.4320   -0.1350 C   0  0  0  0  0  0  0  0  0  0  0  0
   -3.6760    0.6220   -0.7710 C   0  0  0  0  0  0  0  0  0  0  0  0
   -4.6380    1.5940   -0.1950 C   0  0  0  0  0  0  0  0  0  0  0  0
   -5.6920    1.8610   -1.2100 C   0  0  0  0  0  0  0  0  0  0  0  0
   -5.5950    1.5140   -2.4800 C   0  0  0  0  0  0  0  0  0  0  0  0
   -4.4160    0.8100   -3.0690 C   0  0  0  0  0  0  0  0  0  0  0  0
   -3.2110    0.9140   -2.1690 C   0  0  0  0  0  0  0  0  0  0  0  0
    4.7600    1.4070   -1.0240 C   0  0  0  0  0  0  0  0  0  0  0  0
    6.0260    1.2510   -1.5290 C   0  0  0  0  0  0  0  0  0  0  0  0
    6.6060    0.0120   -1.5680 C   0  0  0  0  0  0  0  0  0  0  0  0
    7.8990   -0.1980   -2.0770 O   0  0  0  0  0  0  0  0  0  0  0  0
  1  2  1  0
  2  3  1  0
  3  4  2  0
  3 26  1  0
  4  5  1  0
  5  6  1  0
  5 24  2  0
  6  7  1  0
  7  8  2  0
  7  9  1  0
  9 10  2  0
  9 11  1  0
 12 11  1  1
 12 13  1  0
 12 15  1  0
 13 14  1  0
 14 15  1  0
 15 16  1  6
 16 17  1  0
 17 18  2  3
 18 19  1  0
 18 23  1  0
 19 20  1  0
 20 21  2  0
 21 22  1  0
 22 23  1  0
 24 25  1  0
 25 26  2  0
 26 27  1  0
M  END
