
     RDKit          3D

 27 29  0  0  0  0  0  0  0  0999 V2000
   -4.1090    3.0320    0.9420 C   0  0  0  0  0  0  0  0  0  0  0  0
   -3.4630    2.0690    0.0140 C   0  0  2  0  0  0  0  0  0  0  0  0
   -4.4250    1.4560   -0.9720 C   0  0  0  0  0  0  0  0  0  0  0  0
   -5.5220    0.7660   -0.1820 C   0  0  0  0  0  0  0  0  0  0  0  0
   -5.0960   -0.0660    0.9340 C   0  0  1  0  0  0  0  0  0  0  0  0
   -5.4100   -1.4110    0.6690 O   0  0  0  0  0  0  0  0  0  0  0  0
   -3.6790   -0.0040    1.4580 C   0  0  1  0  0  0  0  0  0  0  0  0
   -3.1670   -1.4050    1.3740 C   0  0  0  0  0  0  0  0  0  0  0  0
   -1.8680   -1.8530    1.8730 C   0  0  0  0  0  0  0  0  0  0  0  0
   -0.6670   -1.2740    1.4200 C   0  0  0  0  0  0  0  0  0  0  0  0
   -0.2340   -0.1930    1.3930 O   0  0  0  0  0  0  0  0  0  0  0  0
    0.4380   -2.4230    0.7260 N   0  0  0  0  0  0  0  0  0  0  0  0
    1.5070   -1.4420    0.3970 C   0  0  0  0  0  0  0  0  0  0  0  0
    1.6370   -0.3130    0.6930 O   0  0  0  0  0  0  0  0  0  0  0  0
    2.4720   -2.1900   -0.4330 N   0  0  0  0  0  0  0  0  0  0  0  0
    3.6410   -1.6040   -0.8650 C   0  0  0  0  0  0  0  0  0  0  0  0
    4.5110   -2.4030   -1.6580 C   0  0  0  0  0  0  0  0  0  0  0  0
    5.7070   -1.9060   -2.0810 C   0  0  0  0  0  0  0  0  0  0  0  0
    6.1280   -0.6230   -1.7690 C   0  0  0  0  0  0  0  0  0  0  0  0
    7.3430   -0.1310   -2.2080 C   0  0  0  0  0  0  0  0  0  0  0  0
    7.7340    1.1510   -1.8880 C   0  0  0  0  0  0  0  0  0  0  0  0
    6.9250    1.9160   -1.1480 N   0  0  0  0  0  0  0  0  0  0  0  0
    5.7180    1.4390   -0.7060 C   0  0  0  0  0  0  0  0  0  0  0  0
    4.9430    2.1410   -0.0060 O   0  0  0  0  0  0  0  0  0  0  0  0
    5.3120    0.1620   -1.0150 C   0  0  0  0  0  0  0  0  0  0  0  0
    4.0820   -0.3390   -0.5730 C   0  0  0  0  0  0  0  0  0  0  0  0
   -2.7840    0.9680    0.7540 C   0  0  0  0  0  0  0  0  0  0  0  0
  2  1  1  1
  2  3  1  0
  2 27  1  0
  3  4  1  0
  4  5  1  0
  5  6  1  6
  5  7  1  0
  7  8  1  6
  7 27  1  0
  8  9  1  0
  9 10  1  0
 10 11  2  0
 10 12  1  0
 12 13  1  0
 13 14  2  0
 13 15  1  0
 15 16  1  0
 16 17  2  0
 16 26  1  0
 17 18  1  0
 18 19  2  0
 19 20  1  0
 19 25  1  0
 20 21  2  0
 21 22  1  0
 22 23  1  0
 23 24  2  0
 23 25  1  0
 25 26  2  0
M  END
