
     RDKit          3D

 27 29  0  0  0  0  0  0  0  0999 V2000
   -6.2230   -1.6850   -2.1040 C   0  0  0  0  0  0  0  0  0  0  0  0
   -6.1790   -1.9400   -0.6430 C   0  0  0  0  0  0  0  0  0  0  0  0
   -5.3640   -1.2380    0.1290 C   0  0  0  0  0  0  0  0  0  0  0  0
   -4.5030   -0.2090   -0.4400 C   0  0  2  0  0  0  0  0  0  0  0  0
   -3.4330    0.3690    0.5440 C   0  0  1  0  0  0  0  0  0  0  0  0
   -2.0570    0.4950    0.0260 C   0  0  0  0  0  0  0  0  0  0  0  0
   -1.9120    0.8490   -1.1480 O   0  0  0  0  0  0  0  0  0  0  0  0
   -0.9560    0.2180    0.8500 N   0  0  0  0  0  0  0  0  0  0  0  0
    0.4200    0.3030    0.4760 C   0  0  0  0  0  0  0  0  0  0  0  0
    0.8880    0.8270   -0.6920 C   0  0  0  0  0  0  0  0  0  0  0  0
    2.2650    0.8550   -0.9780 C   0  0  0  0  0  0  0  0  0  0  0  0
    3.2030    0.3620   -0.1080 C   0  0  0  0  0  0  0  0  0  0  0  0
    2.7330   -0.1690    1.0740 C   0  0  0  0  0  0  0  0  0  0  0  0
    1.3890   -0.1980    1.3590 C   0  0  0  0  0  0  0  0  0  0  0  0
    3.6920   -0.6880    1.9940 N   0  0  0  0  0  0  0  0  0  0  0  0
    5.0370   -0.9850    1.5520 C   0  0  0  0  0  0  0  0  0  0  0  0
    5.5360    0.1140    0.6310 C   0  0  1  0  0  0  0  0  0  0  0  0
    6.8190   -0.3020    0.0620 C   0  0  0  0  0  0  0  0  0  0  0  0
    7.7800   -0.5600    0.8390 O   0  0  0  0  0  0  0  0  0  0  0  0
    7.0270   -0.4270   -1.3310 N   0  0  0  0  0  0  0  0  0  0  0  0
    8.3540   -0.8520   -1.7840 C   0  0  0  0  0  0  0  0  0  0  0  0
    5.9980   -0.1560   -2.2960 C   0  0  0  0  0  0  0  0  0  0  0  0
    4.5690    0.3640   -0.3400 O   0  0  0  0  0  0  0  0  0  0  0  0
   -4.5310    1.1980   -0.0810 C   0  0  2  0  0  0  0  0  0  0  0  0
   -5.4800    1.8140    0.8810 C   0  0  0  0  0  0  0  0  0  0  0  0
   -6.9290    1.6620    0.4870 C   0  0  0  0  0  0  0  0  0  0  0  0
   -7.6930    2.2830    1.4750 O   0  0  0  0  0  0  0  0  0  0  0  0
  1  2  1  0
  2  3  2  3
  4  3  1  1
  4  5  1  0
  4 24  1  0
  5  6  1  6
  5 24  1  0
  6  7  2  0
  6  8  1  0
  8  9  1  0
  9 10  2  0
  9 14  1  0
 10 11  1  0
 11 12  2  0
 12 13  1  0
 12 23  1  0
 13 14  2  0
 13 15  1  0
 15 16  1  0
 16 17  1  0
 17 18  1  6
 17 23  1  0
 18 19  2  0
 18 20  1  0
 20 21  1  0
 20 22  1  0
 24 25  1  1
 25 26  1  0
 26 27  1  0
M  END
