
     RDKit          3D

 27 29  0  0  0  0  0  0  0  0999 V2000
   -1.5270    1.3420    0.4860 C   0  0  0  0  0  0  0  0  0  0  0  0
   -1.7410    0.0050   -0.2470 C   0  0  1  0  0  0  0  0  0  0  0  0
   -0.8840   -0.9950    0.4460 C   0  0  1  0  0  0  0  0  0  0  0  0
   -1.0940   -2.3160    0.0480 O   0  0  0  0  0  0  0  0  0  0  0  0
    0.5720   -0.7670    0.3010 C   0  0  0  0  0  0  0  0  0  0  0  0
    1.1730    0.2560   -0.3600 C   0  0  0  0  0  0  0  0  0  0  0  0
    2.5670    0.3730   -0.4210 C   0  0  0  0  0  0  0  0  0  0  0  0
    3.3730   -0.5400    0.1840 C   0  0  0  0  0  0  0  0  0  0  0  0
    4.7910   -0.5310    0.1980 N   0  0  0  0  0  0  0  0  0  0  0  0
    5.6370    0.4570   -0.3600 C   0  0  0  0  0  0  0  0  0  0  0  0
    5.1320    1.4420   -0.9330 O   0  0  0  0  0  0  0  0  0  0  0  0
    7.1150    0.3200   -0.2630 C   0  0  0  0  0  0  0  0  0  0  0  0
    7.7970   -0.7130    0.3390 C   0  0  0  0  0  0  0  0  0  0  0  0
    9.1670   -0.4680    0.2140 C   0  0  0  0  0  0  0  0  0  0  0  0
    9.2470    0.7330   -0.4750 C   0  0  0  0  0  0  0  0  0  0  0  0
    8.0030    1.1810   -0.7480 N   0  0  0  0  0  0  0  0  0  0  0  0
    2.7600   -1.5990    0.8680 C   0  0  0  0  0  0  0  0  0  0  0  0
    1.3920   -1.7010    0.9200 C   0  0  0  0  0  0  0  0  0  0  0  0
   -3.1430   -0.2980   -0.0410 N   0  0  0  0  0  0  0  0  0  0  0  0
   -3.5200   -1.5840   -0.5550 C   0  0  0  0  0  0  0  0  0  0  0  0
   -4.9660   -1.6780   -0.9880 C   0  0  0  0  0  0  0  0  0  0  0  0
   -5.8570   -1.3140    0.0030 O   0  0  0  0  0  0  0  0  0  0  0  0
   -6.2770    0.0080   -0.1020 C   0  0  0  0  0  0  0  0  0  0  0  0
   -5.1600    0.8680    0.4490 C   0  0  2  0  0  0  0  0  0  0  0  0
   -5.6220    2.2680    0.6940 C   0  0  0  0  0  0  0  0  0  0  0  0
   -6.0580    2.8040   -0.5270 O   0  0  0  0  0  0  0  0  0  0  0  0
   -4.0030    0.7700   -0.4940 C   0  0  0  0  0  0  0  0  0  0  0  0
  2  1  1  1
  2  3  1  0
  2 19  1  0
  3  4  1  6
  3  5  1  0
  5  6  2  0
  5 18  1  0
  6  7  1  0
  7  8  2  0
  8  9  1  0
  8 17  1  0
  9 10  1  0
 10 11  2  0
 10 12  1  0
 12 13  2  0
 12 16  1  0
 13 14  1  0
 14 15  2  0
 15 16  1  0
 17 18  2  0
 19 20  1  0
 19 27  1  0
 20 21  1  0
 21 22  1  0
 22 23  1  0
 23 24  1  0
 24 25  1  6
 24 27  1  0
 25 26  1  0
M  END
