
     RDKit          3D

 26 25  0  0  0  0  0  0  0  0999 V2000
   -6.7530    2.6880    1.4020 C   0  0  0  0  0  0  0  0  0  0  0  0
   -5.4050    2.2780    1.5230 O   0  0  0  0  0  0  0  0  0  0  0  0
   -4.6050    2.2580    0.3870 C   0  0  0  0  0  0  0  0  0  0  0  0
   -5.1520    2.6120   -0.6950 O   0  0  0  0  0  0  0  0  0  0  0  0
   -3.1740    1.8390    0.4410 C   0  0  0  0  0  0  0  0  0  0  0  0
   -2.9260    0.4710   -0.1210 C   0  0  1  0  0  0  0  0  0  0  0  0
   -3.3340    0.3890   -1.5880 C   0  0  0  0  0  0  0  0  0  0  0  0
   -3.0190   -1.2240   -2.3230 S   0  0  0  0  0  0  0  0  0  0  0  0
   -4.0090   -2.5600   -1.6890 C   0  0  0  0  0  0  0  0  0  0  0  0
   -1.4490    0.2830   -0.1570 N   0  0  0  0  0  0  0  0  0  0  0  0
   -0.9900    0.3870    1.1770 C   0  0  0  0  0  0  0  0  0  0  0  0
    0.0900   -0.5360    1.5560 C   0  0  0  0  0  0  0  0  0  0  0  0
    1.3900   -0.3630    0.8510 C   0  0  0  0  0  0  0  0  0  0  0  0
    1.3900   -0.5680   -0.5950 C   0  0  0  0  0  0  0  0  0  0  0  0
    2.7230   -0.4570   -1.3010 C   0  0  0  0  0  0  0  0  0  0  0  0
    3.6620   -1.3220   -1.0410 O   0  0  0  0  0  0  0  0  0  0  0  0
    4.2780   -1.6400    0.0780 C   0  0  0  0  0  0  0  0  0  0  0  0
    4.9380   -0.5010    0.7880 C   0  0  0  0  0  0  0  0  0  0  0  0
    5.8740    0.1440    0.0680 O   0  0  0  0  0  0  0  0  0  0  0  0
    6.9230   -0.6380   -0.3480 C   0  0  0  0  0  0  0  0  0  0  0  0
    7.9400    0.2180   -1.0720 C   0  0  0  0  0  0  0  0  0  0  0  0
    7.7040    1.6020   -1.1940 N   0  0  0  0  0  0  0  0  0  0  0  0
    8.9490   -0.3350   -1.5320 O   0  0  0  0  0  0  0  0  0  0  0  0
   -3.5520   -0.5820    0.6830 C   0  0  0  0  0  0  0  0  0  0  0  0
   -4.9230   -0.5090    1.1020 N   0  0  0  0  0  0  0  0  0  0  0  0
   -2.9030   -1.5870    1.0350 O   0  0  0  0  0  0  0  0  0  0  0  0
  1  2  1  0
  2  3  1  0
  3  4  2  0
  3  5  1  0
  6  5  1  1
  6  7  1  0
  6 10  1  0
  6 24  1  0
  7  8  1  0
  8  9  1  0
 10 11  1  0
 11 12  1  0
 12 13  1  0
 13 14  1  0
 14 15  1  0
 15 16  1  0
 16 17  1  0
 17 18  1  0
 18 19  1  0
 19 20  1  0
 20 21  1  0
 21 22  1  0
 21 23  2  0
 24 25  1  0
 24 26  2  0
M  CHG  1  10   1
M  END
