
     RDKit          3D

 11 11  0  0  0  0  0  0  0  0999 V2000
   -2.6430    0.1070    1.0420 O   0  0  0  0  0  0  0  0  0  0  0  0
   -2.3460    0.3880   -0.2740 C   0  0  0  0  0  0  0  0  0  0  0  0
   -0.8620    0.3840   -0.5120 C   0  0  1  0  0  0  0  0  0  0  0  0
   -0.1740    1.4310    0.3590 C   0  0  0  0  0  0  0  0  0  0  0  0
    1.2090    1.4670   -0.1070 N   0  0  0  0  0  0  0  0  0  0  0  0
    1.8750    0.2660    0.3030 C   0  0  2  0  0  0  0  0  0  0  0  0
    3.1470    0.2830   -0.3150 O   0  0  0  0  0  0  0  0  0  0  0  0
    1.2020   -0.9940   -0.1180 C   0  0  1  0  0  0  0  0  0  0  0  0
    1.6100   -2.0400    0.7400 O   0  0  0  0  0  0  0  0  0  0  0  0
   -0.2840   -0.9560   -0.1000 C   0  0  2  0  0  0  0  0  0  0  0  0
   -0.7470   -1.9870   -0.9360 O   0  0  0  0  0  0  0  0  0  0  0  0
  1  2  1  0
  3  2  1  1
  3  4  1  0
  3 10  1  0
  4  5  1  0
  5  6  1  0
  6  7  1  6
  6  8  1  0
  8  9  1  1
  8 10  1  0
 10 11  1  6
M  CHG  1   5   1
M  END
