
     RDKit          3D

 26 25  0  0  0  0  0  0  0  0999 V2000
   -2.1250   -0.3160    3.5290 C   0  0  0  0  0  0  0  0  0  0  0  0
   -3.0010   -0.3360    2.2600 C   0  0  0  0  0  0  0  0  0  0  0  0
   -2.3000    0.0120    1.1620 O   0  0  0  0  0  0  0  0  0  0  0  0
   -2.9760    0.0340   -0.0550 C   0  0  1  0  0  0  0  0  0  0  0  0
   -3.3890   -1.4640   -0.2260 C   0  0  0  0  0  0  0  0  0  0  0  0
   -4.2880    0.7490   -0.0210 C   0  0  0  0  0  0  0  0  0  0  0  0
   -4.3050    2.1110    0.3650 N   0  0  0  0  0  0  0  0  0  0  0  0
   -2.0920    0.3460   -1.1970 C   0  0  1  0  0  0  0  0  0  0  0  0
   -2.7510    0.5290   -2.4350 N   0  0  0  0  0  0  0  0  0  0  0  0
   -3.4250   -0.4730   -3.1170 C   0  0  0  0  0  0  0  0  0  0  0  0
   -0.9660    1.2910   -1.0360 C   0  0  1  0  0  0  0  0  0  0  0  0
   -1.2570    2.6940   -0.6250 C   0  0  0  0  0  0  0  0  0  0  0  0
    0.0200    3.3310   -0.5800 O   0  0  0  0  0  0  0  0  0  0  0  0
    0.2390    0.7500   -0.2960 C   0  0  0  0  0  0  0  0  0  0  0  0
    0.9170   -0.4230   -0.9320 C   0  0  0  0  0  0  0  0  0  0  0  0
    2.0940   -0.8850   -0.1080 C   0  0  1  0  0  0  0  0  0  0  0  0
    2.7290   -2.0570   -0.8100 C   0  0  0  0  0  0  0  0  0  0  0  0
    1.8070   -3.2380   -0.9950 C   0  0  0  0  0  0  0  0  0  0  0  0
    2.5930   -4.2170   -1.6500 O   0  0  0  0  0  0  0  0  0  0  0  0
    3.1030    0.1980    0.0650 C   0  0  0  0  0  0  0  0  0  0  0  0
    4.3010   -0.2480    0.8830 C   0  0  0  0  0  0  0  0  0  0  0  0
    5.1510    0.8820    0.9590 O   0  0  0  0  0  0  0  0  0  0  0  0
    6.5140    0.4670    1.8590 S   0  0  2  0  0  0  0  0  0  0  0  0
    7.5850    1.8030    1.9040 N   0  0  0  0  0  0  0  0  0  0  0  0
    7.1660   -0.6940    1.1520 O   0  0  0  0  0  0  0  0  0  0  0  0
    6.0970    0.0980    3.2600 O   0  0  0  0  0  0  0  0  0  0  0  0
  1  2  1  0
  2  3  1  0
  3  4  1  0
  4  5  1  6
  4  6  1  0
  4  8  1  0
  6  7  1  0
  8  9  1  6
  8 11  1  0
  9 10  1  0
 11 12  1  1
 11 14  1  0
 12 13  1  0
 14 15  1  0
 16 15  1  6
 16 17  1  0
 16 20  1  0
 17 18  1  0
 18 19  1  0
 20 21  1  0
 21 22  1  0
 22 23  1  0
 23 24  1  1
 23 25  2  0
 23 26  2  0
M  CHG  1   7   1
M  END
