
     RDKit          3D

 10 10  0  0  0  0  0  0  0  0999 V2000
    3.3970    0.0800    0.4530 O   0  0  0  0  0  0  0  0  0  0  0  0
    2.0490   -0.3420    0.3920 C   0  0  0  0  0  0  0  0  0  0  0  0
    1.2890    0.7510   -0.2950 C   0  0  2  0  0  0  0  0  0  0  0  0
    1.4170    1.9360    0.4530 O   0  0  0  0  0  0  0  0  0  0  0  0
   -0.1730    0.4730   -0.4350 C   0  0  2  0  0  0  0  0  0  0  0  0
   -0.7430    1.5720   -1.1010 O   0  0  0  0  0  0  0  0  0  0  0  0
   -0.8670    0.3570    0.9120 C   0  0  0  0  0  0  0  0  0  0  0  0
   -2.0490   -0.5340    0.5470 C   0  0  0  0  0  0  0  0  0  0  0  0
   -1.5580   -1.4560   -0.4330 N   0  0  0  0  0  0  0  0  0  0  0  0
   -0.5020   -0.7790   -1.1720 C   0  0  0  0  0  0  0  0  0  0  0  0
  1  2  1  0
  2  3  1  0
  3  4  1  1
  3  5  1  0
  5  6  1  6
  5  7  1  0
  5 10  1  0
  7  8  1  0
  8  9  1  0
  9 10  1  0
M  CHG  1   9   1
M  END
