
     RDKit          3D

 11 11  0  0  0  0  0  0  0  0999 V2000
   -2.0070   -1.0670    0.2000 N   0  0  0  0  0  0  0  0  0  0  0  0
   -1.1410   -0.1730   -0.5700 C   0  0  1  0  0  0  0  0  0  0  0  0
   -1.3670    1.2150   -0.0530 C   0  0  0  0  0  0  0  0  0  0  0  0
   -0.6190    2.1830   -0.6790 O   0  0  0  0  0  0  0  0  0  0  0  0
    0.2620   -0.6740   -0.4070 C   0  0  2  0  0  0  0  0  0  0  0  0
    0.2420   -1.9960   -0.9230 O   0  0  0  0  0  0  0  0  0  0  0  0
    0.7100   -0.7630    1.0140 C   0  0  0  0  0  0  0  0  0  0  0  0
    1.9070   -0.2270    1.3120 O   0  0  0  0  0  0  0  0  0  0  0  0
    2.3940    0.7880    0.5760 C   0  0  0  0  0  0  0  0  0  0  0  0
    1.7790    1.0980   -0.5910 O   0  0  0  0  0  0  0  0  0  0  0  0
    1.2440    0.0590   -1.2980 C   0  0  0  0  0  0  0  0  0  0  0  0
  2  1  1  1
  2  3  1  0
  2  5  1  0
  3  4  1  0
  5  6  1  6
  5  7  1  0
  5 11  1  0
  7  8  1  0
  8  9  1  0
  9 10  1  0
 10 11  1  0
M  CHG  1   1   1
M  END
