
     RDKit          3D

 11 11  0  0  0  0  0  0  0  0999 V2000
    1.6710   -0.1170   -1.4820 N   0  0  0  0  0  0  0  0  0  0  0  0
    1.0520   -0.7740   -0.3750 C   0  0  1  0  0  0  0  0  0  0  0  0
    2.0640   -1.2530    0.4740 O   0  0  0  0  0  0  0  0  0  0  0  0
    0.1480    0.0750    0.4370 C   0  0  2  0  0  0  0  0  0  0  0  0
    0.8020    1.2580    1.0750 C   0  0  0  0  0  0  0  0  0  0  0  0
   -0.1470    1.9560    1.8190 O   0  0  0  0  0  0  0  0  0  0  0  0
   -0.3660   -0.7320    1.4720 O   0  0  0  0  0  0  0  0  0  0  0  0
   -1.3260   -1.5460    0.8730 C   0  0  0  0  0  0  0  0  0  0  0  0
   -1.9230   -0.7760   -0.2630 C   0  0  0  0  0  0  0  0  0  0  0  0
   -1.1120    0.4960   -0.2620 C   0  0  2  0  0  0  0  0  0  0  0  0
   -0.9280    1.0480   -1.4940 O   0  0  0  0  0  0  0  0  0  0  0  0
  2  1  1  6
  2  3  1  0
  2  4  1  0
  4  5  1  1
  4  7  1  0
  4 10  1  0
  5  6  1  0
  7  8  1  0
  8  9  1  0
  9 10  1  0
 10 11  1  6
M  CHG  1   1   1
M  END
