
     RDKit          3D

 11 11  0  0  0  0  0  0  0  0999 V2000
   -0.7860    0.2880   -1.5420 N   0  0  0  0  0  0  0  0  0  0  0  0
   -0.5890    0.0430   -0.1380 C   0  0  2  0  0  0  0  0  0  0  0  0
   -1.4050   -1.1790    0.2370 C   0  0  0  0  0  0  0  0  0  0  0  0
   -1.2480   -1.4610    1.5940 O   0  0  0  0  0  0  0  0  0  0  0  0
   -1.1150    1.2450    0.6140 C   0  0  0  0  0  0  0  0  0  0  0  0
    0.1090    1.8520    1.2030 C   0  0  0  0  0  0  0  0  0  0  0  0
    1.1840    1.0440    0.9890 O   0  0  0  0  0  0  0  0  0  0  0  0
    0.8150   -0.0700    0.2930 C   0  0  2  0  0  0  0  0  0  0  0  0
    1.7990   -0.3360   -0.8150 C   0  0  1  0  0  0  0  0  0  0  0  0
    3.0640   -0.5320   -0.2490 O   0  0  0  0  0  0  0  0  0  0  0  0
    1.4930   -1.5350   -1.4880 O   0  0  0  0  0  0  0  0  0  0  0  0
  2  1  1  6
  2  3  1  0
  2  5  1  0
  2  8  1  0
  3  4  1  0
  5  6  1  0
  6  7  1  0
  8  7  1  6
  8  9  1  0
  9 10  1  1
  9 11  1  0
M  CHG  1   1   1
M  END
