
     RDKit          3D

 12 12  0  0  0  0  0  0  0  0999 V2000
    0.8760   -0.5410   -1.5080 O   0  0  0  0  0  0  0  0  0  0  0  0
    0.2930   -0.4320   -0.4030 C   0  0  0  0  0  0  0  0  0  0  0  0
    1.0750   -0.6510    0.7210 O   0  0  0  0  0  0  0  0  0  0  0  0
    2.4250   -0.9730    0.7000 C   0  0  0  0  0  0  0  0  0  0  0  0
    3.2990    0.0600    0.0360 C   0  0  0  0  0  0  0  0  0  0  0  0
    3.2160    1.2960    0.6770 O   0  0  0  0  0  0  0  0  0  0  0  0
   -1.1180   -0.0970   -0.3450 C   0  0  0  0  0  0  0  0  0  0  0  0
   -1.7510    0.0230    0.8080 C   0  0  0  0  0  0  0  0  0  0  0  0
   -3.1940    0.3660    0.8660 C   0  0  0  0  0  0  0  0  0  0  0  0
   -3.7700    0.5390   -0.3980 O   0  0  0  0  0  0  0  0  0  0  0  0
   -3.1020    0.4130   -1.6000 C   0  0  0  0  0  0  0  0  0  0  0  0
   -1.8330    0.1090   -1.5940 C   0  0  0  0  0  0  0  0  0  0  0  0
  1  2  2  0
  2  3  1  0
  2  7  1  0
  3  4  1  0
  4  5  1  0
  5  6  1  0
  7  8  2  0
  7 12  1  0
  8  9  1  0
  9 10  1  0
 10 11  1  0
 11 12  2  0
M  END
