
     RDKit          3D

 22 22  0  0  0  0  0  0  0  0999 V2000
    3.3140   -1.4150   -0.7250 C   0  0  0  0  0  0  0  0  0  0  0  0
    2.0440   -1.0220    0.0310 C   0  0  2  0  0  0  0  0  0  0  0  0
    2.3840    0.1720    0.8670 C   0  0  0  0  0  0  0  0  0  0  0  0
    2.0300    1.5020    0.1870 C   0  0  1  0  0  0  0  0  0  0  0  0
    2.8650    2.4280    0.8730 O   0  0  0  0  0  0  0  0  0  0  0  0
    2.5000    1.5410   -1.2270 C   0  0  0  0  0  0  0  0  0  0  0  0
    2.3660    2.8280   -1.7160 O   0  0  0  0  0  0  0  0  0  0  0  0
    0.6310    1.9090    0.4410 C   0  0  0  0  0  0  0  0  0  0  0  0
   -0.3350    1.7680   -0.6880 C   0  0  2  0  0  0  0  0  0  0  0  0
   -0.2340    2.9820   -1.4220 O   0  0  0  0  0  0  0  0  0  0  0  0
   -1.7450    1.6660   -0.2530 C   0  0  0  0  0  0  0  0  0  0  0  0
   -2.3120    0.3250    0.0040 C   0  0  1  0  0  0  0  0  0  0  0  0
   -1.9410   -0.1000    1.3460 N   0  0  0  0  0  0  0  0  0  0  0  0
   -3.8370    0.5510    0.1180 C   0  0  0  0  0  0  0  0  0  0  0  0
   -4.4790   -0.6140    0.4890 O   0  0  0  0  0  0  0  0  0  0  0  0
   -2.1200   -0.7020   -1.0350 C   0  0  2  0  0  0  0  0  0  0  0  0
   -3.3130   -1.0260   -1.7300 O   0  0  0  0  0  0  0  0  0  0  0  0
   -1.6270   -2.0470   -0.4790 C   0  0  0  0  0  0  0  0  0  0  0  0
   -0.2420   -2.0860   -0.6050 O   0  0  0  0  0  0  0  0  0  0  0  0
    0.3810   -2.8870    0.3160 C   0  0  0  0  0  0  0  0  0  0  0  0
    1.5870   -2.1940    0.9100 C   0  0  2  0  0  0  0  0  0  0  0  0
    1.3060   -1.7410    2.1940 O   0  0  0  0  0  0  0  0  0  0  0  0
  2  1  1  1
  2  3  1  0
  2 21  1  0
  3  4  1  0
  4  5  1  1
  4  6  1  0
  4  8  1  0
  6  7  1  0
  8  9  1  0
  9 10  1  6
  9 11  1  0
 11 12  1  0
 12 13  1  1
 12 14  1  0
 12 16  1  0
 14 15  1  0
 16 17  1  1
 16 18  1  0
 18 19  1  0
 19 20  1  0
 20 21  1  0
 21 22  1  1
M  CHG  1  13   1
M  END
