
     RDKit          3D

 23 24  0  0  0  0  0  0  0  0999 V2000
    4.0950   -1.6080    1.4850 O   0  0  0  0  0  0  0  0  0  0  0  0
    3.5090   -2.0300    0.2690 C   0  0  0  0  0  0  0  0  0  0  0  0
    2.2170   -1.3910    0.0040 C   0  0  0  0  0  0  0  0  0  0  0  0
    2.0740    0.0690   -0.0730 C   0  0  2  0  0  0  0  0  0  0  0  0
    0.6610    0.4270   -0.3500 N   0  0  0  0  0  0  0  0  0  0  0  0
   -0.2200    0.1260    0.7350 C   0  0  1  0  0  0  0  0  0  0  0  0
   -0.8370    1.4010    1.2390 C   0  0  1  0  0  0  0  0  0  0  0  0
    0.1010    2.4170    1.0530 O   0  0  0  0  0  0  0  0  0  0  0  0
   -2.0800    1.7940    0.5000 C   0  0  0  0  0  0  0  0  0  0  0  0
   -2.9810    0.6840    0.2080 C   0  0  0  0  0  0  0  0  0  0  0  0
   -2.5690   -0.5490    0.1300 C   0  0  0  0  0  0  0  0  0  0  0  0
   -3.5090   -1.6630   -0.1680 C   0  0  0  0  0  0  0  0  0  0  0  0
   -3.0750   -2.9660   -0.2500 O   0  0  0  0  0  0  0  0  0  0  0  0
   -4.7860   -1.4200   -0.3620 C   0  0  0  0  0  0  0  0  0  0  0  0
   -5.7150   -2.4240   -0.6450 O   0  0  0  0  0  0  0  0  0  0  0  0
   -5.2230   -0.1140   -0.2790 O   0  0  0  0  0  0  0  0  0  0  0  0
   -4.4110    0.9970   -0.0040 C   0  0  0  0  0  0  0  0  0  0  0  0
   -1.1680   -0.9220    0.3290 C   0  0  2  0  0  0  0  0  0  0  0  0
   -1.1870   -2.0100    1.2390 O   0  0  0  0  0  0  0  0  0  0  0  0
    2.8430    0.8180   -1.1150 C   0  0  1  0  0  0  0  0  0  0  0  0
    2.4650    2.2070   -0.9380 O   0  0  0  0  0  0  0  0  0  0  0  0
    4.3390    0.8980   -0.8760 C   0  0  0  0  0  0  0  0  0  0  0  0
    4.8160    1.8120   -1.8620 O   0  0  0  0  0  0  0  0  0  0  0  0
  1  2  1  0
  2  3  1  0
  4  3  1  6
  4  5  1  0
  4 20  1  0
  6  5  1  6
  6  7  1  0
  6 18  1  0
  7  8  1  6
  7  9  1  0
  9 10  1  0
 10 11  2  0
 10 17  1  0
 11 12  1  0
 11 18  1  0
 12 13  1  0
 12 14  2  0
 14 15  1  0
 14 16  1  0
 16 17  1  0
 18 19  1  1
 20 21  1  1
 20 22  1  0
 22 23  1  0
M  CHG  1   5   1
M  END
