
     RDKit          3D

 22 22  0  0  0  0  0  0  0  0999 V2000
    1.6020    3.1450   -2.1480 N   0  0  0  0  0  0  0  0  0  0  0  0
    0.7270    2.5550   -1.1190 C   0  0  0  0  0  0  0  0  0  0  0  0
    1.5580    1.5140   -0.4180 C   0  0  1  0  0  0  0  0  0  0  0  0
    2.6570    2.1960    0.1070 O   0  0  0  0  0  0  0  0  0  0  0  0
    0.8470    0.6770    0.5720 C   0  0  2  0  0  0  0  0  0  0  0  0
    1.6450   -0.6020    0.8520 C   0  0  0  0  0  0  0  0  0  0  0  0
    2.9960   -0.4680    1.3950 C   0  0  2  0  0  0  0  0  0  0  0  0
    3.9380    0.1930    0.6130 O   0  0  0  0  0  0  0  0  0  0  0  0
    3.5910   -1.8360    1.6810 C   0  0  0  0  0  0  0  0  0  0  0  0
    3.6780   -2.6660    0.4260 C   0  0  0  0  0  0  0  0  0  0  0  0
    4.2420   -3.9210    0.6940 O   0  0  0  0  0  0  0  0  0  0  0  0
   -0.3360    0.1400    0.0000 O   0  0  0  0  0  0  0  0  0  0  0  0
   -1.4240    0.3330    0.8420 C   0  0  2  0  0  0  0  0  0  0  0  0
   -2.0250   -0.9810    1.2860 C   0  0  0  0  0  0  0  0  0  0  0  0
   -3.5280   -0.8560    1.2570 C   0  0  2  0  0  0  0  0  0  0  0  0
   -4.0710   -2.0040    1.8640 O   0  0  0  0  0  0  0  0  0  0  0  0
   -4.0920   -0.6490   -0.1230 C   0  0  0  0  0  0  0  0  0  0  0  0
   -3.2600    0.3660   -0.8580 C   0  0  2  0  0  0  0  0  0  0  0  0
   -4.1180    1.2720   -1.4980 O   0  0  0  0  0  0  0  0  0  0  0  0
   -2.4180   -0.2700   -1.9380 C   0  0  0  0  0  0  0  0  0  0  0  0
   -3.3350   -0.9080   -2.8070 O   0  0  0  0  0  0  0  0  0  0  0  0
   -2.4450    1.1740    0.1270 C   0  0  0  0  0  0  0  0  0  0  0  0
  1  2  1  0
  2  3  1  0
  3  4  1  1
  3  5  1  0
  5  6  1  6
  5 12  1  0
  6  7  1  0
  7  8  1  6
  7  9  1  0
  9 10  1  0
 10 11  1  0
 13 12  1  6
 13 14  1  0
 13 22  1  0
 14 15  1  0
 15 16  1  6
 15 17  1  0
 17 18  1  0
 18 19  1  6
 18 20  1  0
 18 22  1  0
 20 21  1  0
M  CHG  1   1   1
M  END
