
     RDKit          3D

 28 31  0  0  0  0  0  0  0  0999 V2000
    1.8790   -3.3030   -2.2800 C   0  0  0  0  0  0  0  0  0  0  0  0
    1.5050   -2.6600   -0.9860 C   0  0  0  0  0  0  0  0  0  0  0  0
    1.6780   -1.3340   -0.6320 C   0  0  0  0  0  0  0  0  0  0  0  0
    1.1920   -1.1910    0.6430 C   0  0  0  0  0  0  0  0  0  0  0  0
    1.1570    0.0420    1.4550 C   0  0  1  0  0  0  0  0  0  0  0  0
    1.7840    1.2280    0.7690 C   0  0  0  0  0  0  0  0  0  0  0  0
    3.2330    0.9650    0.4630 C   0  0  0  0  0  0  0  0  0  0  0  0
    3.7930   -0.0990    0.7910 O   0  0  0  0  0  0  0  0  0  0  0  0
    3.9570    1.9670   -0.2130 N   0  0  0  0  0  0  0  0  0  0  0  0
    5.3190    1.8650   -0.5670 C   0  0  0  0  0  0  0  0  0  0  0  0
    6.1670    0.8730   -0.3580 C   0  0  0  0  0  0  0  0  0  0  0  0
    7.4710    1.2690   -0.9250 C   0  0  0  0  0  0  0  0  0  0  0  0
    7.2400    2.5990   -1.4710 C   0  0  0  0  0  0  0  0  0  0  0  0
    6.0140    2.9130   -1.2560 N   0  0  0  0  0  0  0  0  0  0  0  0
   -0.0940    0.3170    2.0750 N   0  0  0  0  0  0  0  0  0  0  0  0
   -1.2480    0.0160    1.2710 C   0  0  2  0  0  0  0  0  0  0  0  0
   -1.3030    0.7610   -0.0230 C   0  0  0  0  0  0  0  0  0  0  0  0
   -2.4740    0.3810    2.0960 C   0  0  0  0  0  0  0  0  0  0  0  0
   -3.7370    0.0930    1.3170 C   0  0  0  0  0  0  0  0  0  0  0  0
   -4.5210    0.5050    0.5820 N   0  0  0  0  0  0  0  0  0  0  0  0
   -5.5840   -0.0560    0.0610 C   0  0  0  0  0  0  0  0  0  0  0  0
   -5.8160   -1.3710    0.4540 C   0  0  0  0  0  0  0  0  0  0  0  0
   -4.4470   -1.6530    1.5510 S   0  0  0  0  0  0  0  0  0  0  0  0
   -7.0410   -1.8920   -0.1910 C   0  0  0  0  0  0  0  0  0  0  0  0
   -7.8050   -0.5970   -0.4090 C   0  0  0  0  0  0  0  0  0  0  0  0
   -6.7070    0.3140   -0.9050 C   0  0  0  0  0  0  0  0  0  0  0  0
    0.7570   -2.3590    1.0240 O   0  0  0  0  0  0  0  0  0  0  0  0
    0.9300   -3.2390    0.0830 N   0  0  0  0  0  0  0  0  0  0  0  0
  1  2  1  0
  2  3  1  0
  2 28  2  0
  3  4  2  0
  4  5  1  0
  4 27  1  0
  5  6  1  6
  5 15  1  0
  6  7  1  0
  7  8  2  0
  7  9  1  0
  9 10  1  0
 10 11  2  0
 10 14  1  0
 11 12  1  0
 12 13  1  0
 13 14  2  0
 15 16  1  0
 16 17  1  6
 16 18  1  0
 18 19  1  0
 19 20  2  0
 19 23  1  0
 20 21  1  0
 21 22  2  0
 21 26  1  0
 22 23  1  0
 22 24  1  0
 24 25  1  0
 25 26  1  0
 27 28  1  0
M  CHG  2  14   1  15   1
M  END
