
     RDKit          3D

 28 30  0  0  0  0  0  0  0  0999 V2000
    3.3060    1.4640   -1.4130 C   0  0  0  0  0  0  0  0  0  0  0  0
    3.6870    0.0240   -1.0400 C   0  0  2  0  0  0  0  0  0  0  0  0
    2.5180   -0.5390   -0.3700 N   0  0  0  0  0  0  0  0  0  0  0  0
    1.6870   -1.1320   -1.3870 C   0  0  0  0  0  0  0  0  0  0  0  0
    0.2590   -0.6460   -1.3450 C   0  0  0  0  0  0  0  0  0  0  0  0
   -0.2860   -0.9990   -0.0260 N   0  0  0  0  0  0  0  0  0  0  0  0
   -1.6770   -0.7110    0.0630 C   0  0  1  0  0  0  0  0  0  0  0  0
   -2.2850   -1.6700    1.0790 C   0  0  0  0  0  0  0  0  0  0  0  0
   -2.8970   -0.7780    2.1100 C   0  0  2  0  0  0  0  0  0  0  0  0
   -2.4190   -1.1380    3.5240 C   0  0  0  0  0  0  0  0  0  0  0  0
   -4.3990   -0.9610    2.1200 C   0  0  0  0  0  0  0  0  0  0  0  0
   -2.4980    0.5110    1.8690 O   0  0  0  0  0  0  0  0  0  0  0  0
   -2.0600    0.6180    0.5650 C   0  0  1  0  0  0  0  0  0  0  0  0
   -0.9840    1.6680    0.5220 C   0  0  0  0  0  0  0  0  0  0  0  0
   -3.2040    1.1850   -0.2390 C   0  0  0  0  0  0  0  0  0  0  0  0
   -4.2770    1.4540    0.3970 N   0  0  0  0  0  0  0  0  0  0  0  0
   -5.4960    1.9660    0.0300 N   0  0  0  0  0  0  0  0  0  0  0  0
   -6.0970    1.9390   -1.0930 C   0  0  0  0  0  0  0  0  0  0  0  0
   -5.6950    1.3620   -2.3530 C   0  0  0  0  0  0  0  0  0  0  0  0
   -4.4740    1.1010   -2.8300 C   0  0  0  0  0  0  0  0  0  0  0  0
   -2.9250    1.4150   -1.9820 S   0  0  0  0  0  0  0  0  0  0  0  0
    4.8760    0.0440   -0.1530 C   0  0  0  0  0  0  0  0  0  0  0  0
    5.5060    1.2150    0.2370 C   0  0  0  0  0  0  0  0  0  0  0  0
    6.6100    1.1890    1.0630 C   0  0  0  0  0  0  0  0  0  0  0  0
    7.1210   -0.0030    1.5260 C   0  0  0  0  0  0  0  0  0  0  0  0
    6.5040   -1.1360    1.1440 N   0  0  0  0  0  0  0  0  0  0  0  0
    5.4150   -1.1290    0.3300 C   0  0  0  0  0  0  0  0  0  0  0  0
    4.8700   -2.3600    0.0070 O   0  0  0  0  0  0  0  0  0  0  0  0
  2  1  1  1
  2  3  1  0
  2 22  1  0
  3  4  1  0
  4  5  1  0
  5  6  1  0
  7  6  1  1
  7  8  1  0
  7 13  1  0
  8  9  1  0
  9 10  1  1
  9 11  1  0
  9 12  1  0
 12 13  1  0
 13 14  1  1
 13 15  1  0
 15 16  2  0
 15 21  1  0
 16 17  1  0
 17 18  2  0
 18 19  1  0
 19 20  2  0
 20 21  1  0
 22 23  2  0
 22 27  1  0
 23 24  1  0
 24 25  2  0
 25 26  1  0
 26 27  2  0
 27 28  1  0
M  CHG  2   3   1   6   1
M  END
