
     RDKit          3D

 28 31  0  0  0  0  0  0  0  0999 V2000
    3.1710    3.1290   -0.2510 C   0  0  0  0  0  0  0  0  0  0  0  0
    2.1470    2.0020   -0.3350 C   0  0  0  0  0  0  0  0  0  0  0  0
    0.9070    2.1700   -0.5590 N   0  0  0  0  0  0  0  0  0  0  0  0
    0.0350    1.2170   -0.5170 C   0  0  0  0  0  0  0  0  0  0  0  0
   -1.4280    1.2870   -0.8440 C   0  0  1  0  0  0  0  0  0  0  0  0
   -2.2110    0.0860   -0.4310 C   0  0  0  0  0  0  0  0  0  0  0  0
   -3.5810    0.4630   -0.5840 N   0  0  0  0  0  0  0  0  0  0  0  0
   -4.7960    0.0130   -0.0410 C   0  0  0  0  0  0  0  0  0  0  0  0
   -5.6710    1.0260    0.4740 C   0  0  0  0  0  0  0  0  0  0  0  0
   -6.9310    0.7320    0.9250 C   0  0  0  0  0  0  0  0  0  0  0  0
   -7.3930   -0.5410    0.9040 C   0  0  0  0  0  0  0  0  0  0  0  0
   -6.5740   -1.5650    0.4180 C   0  0  0  0  0  0  0  0  0  0  0  0
   -5.2870   -1.2630   -0.0430 C   0  0  0  0  0  0  0  0  0  0  0  0
   -4.4530   -2.3450   -0.4260 N   0  0  0  0  0  0  0  0  0  0  0  0
   -4.8930   -3.6510   -0.6800 C   0  0  0  0  0  0  0  0  0  0  0  0
   -6.0740   -4.0590   -0.6230 O   0  0  0  0  0  0  0  0  0  0  0  0
   -3.7670    1.6290   -1.5210 C   0  0  0  0  0  0  0  0  0  0  0  0
   -3.0510    2.8290   -0.9810 C   0  0  0  0  0  0  0  0  0  0  0  0
   -1.9560    2.4000   -0.1970 O   0  0  0  0  0  0  0  0  0  0  0  0
    1.0320   -0.1560   -0.0940 S   0  0  0  0  0  0  0  0  0  0  0  0
    2.5840    0.7080   -0.0300 C   0  0  0  0  0  0  0  0  0  0  0  0
    3.9650    0.1770    0.0130 C   0  0  1  0  0  0  0  0  0  0  0  0
    4.4130    0.0680    1.4520 C   0  0  0  0  0  0  0  0  0  0  0  0
    5.1880   -1.1300    1.8430 C   0  0  0  0  0  0  0  0  0  0  0  0
    6.3830   -1.2330    1.0210 N   0  0  0  0  0  0  0  0  0  0  0  0
    6.2000   -2.0730   -0.1270 C   0  0  0  0  0  0  0  0  0  0  0  0
    5.2530   -1.4470   -1.1350 C   0  0  0  0  0  0  0  0  0  0  0  0
    3.9760   -1.1630   -0.6030 N   0  0  0  0  0  0  0  0  0  0  0  0
  1  2  1  0
  2  3  1  0
  2 21  2  0
  3  4  2  0
  5  4  1  1
  4 20  1  0
  5  6  1  0
  5 19  1  0
  6  7  1  0
  7  8  1  0
  7 17  1  0
  8  9  2  0
  8 13  1  0
  9 10  1  0
 10 11  2  0
 11 12  1  0
 12 13  2  0
 13 14  1  0
 14 15  1  0
 15 16  2  0
 17 18  1  0
 18 19  1  0
 20 21  1  0
 22 21  1  1
 22 23  1  0
 22 28  1  0
 23 24  1  0
 24 25  1  0
 25 26  1  0
 26 27  1  0
 27 28  1  0
M  CHG  2  25   1  28   1
M  END
