
     RDKit          3D

 25 28  0  0  0  0  0  0  0  0999 V2000
    5.3890    0.4270   -1.8830 C   0  0  0  0  0  0  0  0  0  0  0  0
    4.8690   -0.2130   -0.6070 C   0  0  2  0  0  0  0  0  0  0  0  0
    5.8970   -1.2090   -0.1560 C   0  0  0  0  0  0  0  0  0  0  0  0
    3.5720   -0.8750   -0.9220 C   0  0  0  0  0  0  0  0  0  0  0  0
    2.5820   -0.8470    0.2480 C   0  0  0  0  0  0  0  0  0  0  0  0
    2.2590    0.5850    0.4520 C   0  0  0  0  0  0  0  0  0  0  0  0
    1.0660    1.0380    0.7690 C   0  0  0  0  0  0  0  0  0  0  0  0
   -0.0990    0.1880    0.9640 C   0  0  0  0  0  0  0  0  0  0  0  0
   -0.0420   -0.9880    1.6670 C   0  0  0  0  0  0  0  0  0  0  0  0
   -1.1590   -1.8010    1.8360 C   0  0  0  0  0  0  0  0  0  0  0  0
   -2.3900   -1.4220    1.2770 C   0  0  0  0  0  0  0  0  0  0  0  0
   -3.5710   -2.2760    1.4420 C   0  0  0  0  0  0  0  0  0  0  0  0
   -3.2380   -3.3990    2.2110 O   0  0  0  0  0  0  0  0  0  0  0  0
   -2.4350   -0.2620    0.5870 C   0  0  0  0  0  0  0  0  0  0  0  0
   -3.5270    0.3480   -0.0650 C   0  0  0  0  0  0  0  0  0  0  0  0
   -3.0000    1.4940   -0.5880 C   0  0  0  0  0  0  0  0  0  0  0  0
   -1.6950    1.5870   -0.2870 O   0  0  0  0  0  0  0  0  0  0  0  0
   -1.3230    0.5600    0.4120 C   0  0  0  0  0  0  0  0  0  0  0  0
   -3.7640    2.4930   -1.3760 C   0  0  0  0  0  0  0  0  0  0  0  0
   -5.2360    2.2700   -1.1460 C   0  0  0  0  0  0  0  0  0  0  0  0
   -5.5870    0.8040   -1.2760 C   0  0  0  0  0  0  0  0  0  0  0  0
   -4.9040   -0.0230   -0.2180 C   0  0  0  0  0  0  0  0  0  0  0  0
    3.4020    1.5100    0.2740 C   0  0  0  0  0  0  0  0  0  0  0  0
    3.2010    2.7170    0.0250 O   0  0  0  0  0  0  0  0  0  0  0  0
    4.7450    0.8870    0.4150 C   0  0  0  0  0  0  0  0  0  0  0  0
  2  1  1  6
  2  3  1  0
  2  4  1  0
  2 25  1  0
  4  5  1  0
  5  6  1  0
  6  7  2  3
  6 23  1  0
  7  8  1  0
  8  9  2  0
  8 18  1  0
  9 10  1  0
 10 11  2  0
 11 12  1  0
 11 14  1  0
 12 13  1  0
 14 15  1  0
 14 18  2  0
 15 16  2  0
 15 22  1  0
 16 17  1  0
 16 19  1  0
 17 18  1  0
 19 20  1  0
 20 21  1  0
 21 22  1  0
 23 24  2  0
 23 25  1  0
M  END
