
     RDKit          3D

 18 19  0  0  0  0  0  0  0  0999 V2000
   -2.9920    2.0600    2.2620 O   0  0  0  0  0  0  0  0  0  0  0  0
   -4.0860    1.4140    1.7530 C   0  0  0  0  0  0  0  0  0  0  0  0
   -3.8230    0.5570    0.5830 C   0  0  0  0  0  0  0  0  0  0  0  0
   -2.6370    0.4130    0.0570 C   0  0  0  0  0  0  0  0  0  0  0  0
   -2.3680   -0.4450   -1.1150 C   0  0  0  0  0  0  0  0  0  0  0  0
   -3.1740   -0.8080   -2.0280 N   0  0  0  0  0  0  0  0  0  0  0  0
   -2.7870   -1.6090   -3.0630 O   0  0  0  0  0  0  0  0  0  0  0  0
   -0.9270   -0.8040   -1.0020 C   0  0  0  0  0  0  0  0  0  0  0  0
   -0.2690    0.4190   -0.3830 C   0  0  2  0  0  0  0  0  0  0  0  0
    0.8760    0.0390    0.4820 C   0  0  0  0  0  0  0  0  0  0  0  0
    1.9380   -0.6590   -0.1210 N   0  0  0  0  0  0  0  0  0  0  0  0
    2.7320    0.0490   -1.0650 C   0  0  0  0  0  0  0  0  0  0  0  0
    4.0760    0.3980   -0.4850 C   0  0  0  0  0  0  0  0  0  0  0  0
    4.7550   -0.6690    0.0400 O   0  0  0  0  0  0  0  0  0  0  0  0
    4.0040   -1.8080    0.2020 C   0  0  0  0  0  0  0  0  0  0  0  0
    2.6970   -1.4040    0.8520 C   0  0  0  0  0  0  0  0  0  0  0  0
   -1.3830    1.0280    0.4730 C   0  0  1  0  0  0  0  0  0  0  0  0
   -1.4370    2.4020    0.2140 O   0  0  0  0  0  0  0  0  0  0  0  0
  1  2  1  0
  2  3  1  0
  3  4  2  3
  4  5  1  0
  4 17  1  0
  5  6  2  3
  5  8  1  0
  6  7  1  0
  8  9  1  0
  9 10  1  1
  9 17  1  0
 10 11  1  0
 11 12  1  0
 11 16  1  0
 12 13  1  0
 13 14  1  0
 14 15  1  0
 15 16  1  0
 17 18  1  6
M  END
