
     RDKit          3D

 18 19  0  0  0  0  0  0  0  0999 V2000
   -3.1010   -2.2690    0.8600 C   0  0  0  0  0  0  0  0  0  0  0  0
   -2.8300   -1.4390   -0.2710 N   0  0  0  0  0  0  0  0  0  0  0  0
   -1.6390   -0.6920   -0.4570 C   0  0  0  0  0  0  0  0  0  0  0  0
   -1.6620    0.6460   -0.3390 C   0  0  0  0  0  0  0  0  0  0  0  0
   -2.9290    1.2830   -0.0190 C   0  0  0  0  0  0  0  0  0  0  0  0
   -3.0140    2.7580    0.1240 C   0  0  0  0  0  0  0  0  0  0  0  0
   -3.9790    0.6120    0.1430 O   0  0  0  0  0  0  0  0  0  0  0  0
   -0.4580    1.4400   -0.5230 C   0  0  0  0  0  0  0  0  0  0  0  0
   -0.5690    2.6650   -0.6900 O   0  0  0  0  0  0  0  0  0  0  0  0
    0.9090    0.8070   -0.5160 C   0  0  1  0  0  0  0  0  0  0  0  0
    1.3240    0.7450    0.7810 O   0  0  0  0  0  0  0  0  0  0  0  0
    2.5560    1.3720    1.0030 C   0  0  0  0  0  0  0  0  0  0  0  0
    3.6430    0.3450    1.2000 C   0  0  0  0  0  0  0  0  0  0  0  0
    3.7250   -0.4660    0.0840 O   0  0  0  0  0  0  0  0  0  0  0  0
    2.7250   -1.4460    0.0780 C   0  0  0  0  0  0  0  0  0  0  0  0
    1.9920   -1.3600   -1.2010 C   0  0  0  0  0  0  0  0  0  0  0  0
    0.7710   -0.5140   -1.2050 C   0  0  1  0  0  0  0  0  0  0  0  0
   -0.3860   -1.2710   -0.7680 N   0  0  0  0  0  0  0  0  0  0  0  0
  1  2  1  0
  2  3  1  0
  3  4  2  0
  3 18  1  0
  4  5  1  0
  4  8  1  0
  5  6  1  0
  5  7  2  0
  8  9  2  0
  8 10  1  0
 10 11  1  1
 10 17  1  0
 11 12  1  0
 12 13  1  0
 13 14  1  0
 14 15  1  0
 15 16  1  0
 17 16  1  1
 17 18  1  0
M  END
