
     RDKit          3D

 18 19  0  0  0  0  0  0  0  0999 V2000
   -2.7790    3.2480   -0.1890 C   0  0  0  0  0  0  0  0  0  0  0  0
   -2.3720    1.8170   -0.2710 C   0  0  0  0  0  0  0  0  0  0  0  0
   -1.6100    1.2190    0.6230 C   0  0  0  0  0  0  0  0  0  0  0  0
   -1.4000   -0.1940    0.2410 C   0  0  2  0  0  0  0  0  0  0  0  0
    0.0190   -0.4100   -0.1160 C   0  0  0  0  0  0  0  0  0  0  0  0
    0.3410   -0.8120   -1.2620 O   0  0  0  0  0  0  0  0  0  0  0  0
    1.0520   -0.1700    0.8230 N   0  0  0  0  0  0  0  0  0  0  0  0
    2.4430   -0.3750    0.4930 C   0  0  0  0  0  0  0  0  0  0  0  0
    3.2960    0.6240    0.5550 C   0  0  0  0  0  0  0  0  0  0  0  0
    4.7260    0.4630    0.2270 C   0  0  0  0  0  0  0  0  0  0  0  0
    5.0350   -0.8450   -0.1430 O   0  0  0  0  0  0  0  0  0  0  0  0
    4.1460   -1.8820   -0.2070 C   0  0  0  0  0  0  0  0  0  0  0  0
    2.8930   -1.6930    0.0910 C   0  0  0  0  0  0  0  0  0  0  0  0
   -2.3190   -0.3860   -0.9200 C   0  0  1  0  0  0  0  0  0  0  0  0
   -3.4840   -1.2000   -0.5260 C   0  0  0  0  0  0  0  0  0  0  0  0
   -3.3630   -2.5520   -0.1340 N   0  0  0  0  0  0  0  0  0  0  0  0
   -4.6280   -0.6850   -0.5350 O   0  0  0  0  0  0  0  0  0  0  0  0
   -2.7120    0.9130   -1.2620 O   0  0  0  0  0  0  0  0  0  0  0  0
  1  2  1  0
  2  3  2  0
  2 18  1  0
  3  4  1  0
  4  5  1  6
  4 14  1  0
  5  6  2  0
  5  7  1  0
  7  8  1  0
  8  9  2  0
  8 13  1  0
  9 10  1  0
 10 11  1  0
 11 12  1  0
 12 13  2  0
 14 15  1  1
 14 18  1  0
 15 16  1  0
 15 17  2  0
M  END
