
     RDKit          3D

 17 17  0  0  0  0  0  0  0  0999 V2000
   -6.2390   -0.1570   -0.1980 C   0  0  0  0  0  0  0  0  0  0  0  0
   -5.2390   -0.4510   -1.1080 O   0  0  0  0  0  0  0  0  0  0  0  0
   -3.9740   -0.4750   -0.5200 C   0  0  0  0  0  0  0  0  0  0  0  0
   -3.6050    0.8360    0.1000 C   0  0  0  0  0  0  0  0  0  0  0  0
   -2.2930    0.7310    0.6860 N   0  0  0  0  0  0  0  0  0  0  0  0
   -1.1110    0.4270   -0.0330 C   0  0  0  0  0  0  0  0  0  0  0  0
   -1.1620    0.2320   -1.2640 O   0  0  0  0  0  0  0  0  0  0  0  0
    0.1660    0.3280    0.5800 N   0  0  0  0  0  0  0  0  0  0  0  0
    1.3350    0.0170   -0.1950 C   0  0  1  0  0  0  0  0  0  0  0  0
    2.3120    1.1880   -0.1890 C   0  0  0  0  0  0  0  0  0  0  0  0
    3.5510    0.6830   -0.9050 C   0  0  2  0  0  0  0  0  0  0  0  0
    3.2120   -0.1130   -1.9990 O   0  0  0  0  0  0  0  0  0  0  0  0
    4.2750   -0.2060    0.0880 C   0  0  1  0  0  0  0  0  0  0  0  0
    4.9200    0.6390    0.9900 O   0  0  0  0  0  0  0  0  0  0  0  0
    3.3340   -1.0710    0.8720 C   0  0  0  0  0  0  0  0  0  0  0  0
    1.9980   -1.2630    0.2270 C   0  0  2  0  0  0  0  0  0  0  0  0
    2.1010   -2.1890   -0.8100 O   0  0  0  0  0  0  0  0  0  0  0  0
  1  2  1  0
  2  3  1  0
  3  4  1  0
  4  5  1  0
  5  6  1  0
  6  7  2  0
  6  8  1  0
  9  8  1  1
  9 10  1  0
  9 16  1  0
 10 11  1  0
 11 12  1  6
 11 13  1  0
 13 14  1  1
 13 15  1  0
 15 16  1  0
 16 17  1  6
M  END
