
     RDKit          3D

 18 18  0  0  0  0  0  0  0  0999 V2000
    4.2200   -0.4800   -0.5370 C   0  0  0  0  0  0  0  0  0  0  0  0
    3.2250   -0.9050    0.3360 O   0  0  0  0  0  0  0  0  0  0  0  0
    1.9850   -0.3650    0.0280 C   0  0  1  0  0  0  0  0  0  0  0  0
    0.9830   -1.4140   -0.3650 C   0  0  0  0  0  0  0  0  0  0  0  0
    0.2810   -1.9670    0.7840 N   0  0  0  0  0  0  0  0  0  0  0  0
   -0.9070   -1.4040    1.3290 C   0  0  0  0  0  0  0  0  0  0  0  0
   -1.0210   -1.5190    2.5850 O   0  0  0  0  0  0  0  0  0  0  0  0
   -1.7850   -0.8120    0.4840 O   0  0  0  0  0  0  0  0  0  0  0  0
   -2.5910   -1.2930   -0.5190 C   0  0  0  0  0  0  0  0  0  0  0  0
   -3.1870   -0.0610   -1.2130 C   0  0  1  0  0  0  0  0  0  0  0  0
   -4.0530    0.5140   -0.2560 O   0  0  0  0  0  0  0  0  0  0  0  0
   -2.0350    0.9000   -1.4230 C   0  0  0  0  0  0  0  0  0  0  0  0
   -1.4580    1.2690   -0.1640 N   0  0  0  0  0  0  0  0  0  0  0  0
   -0.0760    1.6920   -0.2600 C   0  0  0  0  0  0  0  0  0  0  0  0
    0.6190    1.4220    1.0240 C   0  0  0  0  0  0  0  0  0  0  0  0
    0.2300    2.2130    2.0990 O   0  0  0  0  0  0  0  0  0  0  0  0
    1.5460    0.4910    1.1360 C   0  0  0  0  0  0  0  0  0  0  0  0
    2.1340    0.3160    2.3760 O   0  0  0  0  0  0  0  0  0  0  0  0
  1  2  1  0
  3  2  1  1
  3  4  1  0
  3 17  1  0
  4  5  1  0
  5  6  1  0
  6  7  2  0
  6  8  1  0
  8  9  1  0
  9 10  1  0
 10 11  1  1
 10 12  1  0
 12 13  1  0
 13 14  1  0
 14 15  1  0
 15 16  1  0
 15 17  2  0
 17 18  1  0
M  END
