
     RDKit          3D

 18 19  0  0  0  0  0  0  0  0999 V2000
   -3.6110    1.4170    1.0640 N   0  0  0  0  0  0  0  0  0  0  0  0
   -2.2660    0.9860    1.0850 C   0  0  0  0  0  0  0  0  0  0  0  0
   -1.4550    1.5870    1.8170 O   0  0  0  0  0  0  0  0  0  0  0  0
   -1.8510   -0.1330    0.2670 C   0  0  1  0  0  0  0  0  0  0  0  0
   -0.4730   -0.4860    0.3620 N   0  0  0  0  0  0  0  0  0  0  0  0
    0.5760    0.4500    0.0260 C   0  0  0  0  0  0  0  0  0  0  0  0
    0.2140    1.5730   -0.3460 O   0  0  0  0  0  0  0  0  0  0  0  0
    1.9440   -0.0250    0.1620 C   0  0  1  0  0  0  0  0  0  0  0  0
    2.0370   -1.3270    0.5990 O   0  0  0  0  0  0  0  0  0  0  0  0
    2.7770    0.1170   -1.0860 C   0  0  0  0  0  0  0  0  0  0  0  0
    4.1700    0.2060   -0.4430 C   0  0  0  0  0  0  0  0  0  0  0  0
    3.9640    1.0520    0.6170 O   0  0  0  0  0  0  0  0  0  0  0  0
    2.7160    0.8430    1.1340 C   0  0  0  0  0  0  0  0  0  0  0  0
   -2.6770   -1.3980    0.5540 C   0  0  0  0  0  0  0  0  0  0  0  0
   -2.3420   -2.1830   -0.5960 O   0  0  0  0  0  0  0  0  0  0  0  0
   -2.1290   -1.3470   -1.6770 C   0  0  0  0  0  0  0  0  0  0  0  0
   -1.9230   -1.7350   -2.8410 O   0  0  0  0  0  0  0  0  0  0  0  0
   -2.1870    0.0560   -1.2150 C   0  0  0  0  0  0  0  0  0  0  0  0
  1  2  1  0
  2  3  2  0
  2  4  1  0
  4  5  1  6
  4 14  1  0
  4 18  1  0
  5  6  1  0
  6  7  2  0
  6  8  1  0
  8  9  1  1
  8 10  1  0
  8 13  1  0
 10 11  1  0
 11 12  1  0
 12 13  1  0
 14 15  1  0
 15 16  1  0
 16 17  2  0
 16 18  1  0
M  END
