
     RDKit          3D

 18 18  0  0  0  0  0  0  0  0999 V2000
    2.5400   -1.0970    1.3440 C   0  0  0  0  0  0  0  0  0  0  0  0
    2.6580   -0.7450   -0.1330 C   0  0  2  0  0  0  0  0  0  0  0  0
    3.8440   -0.0170   -0.2990 O   0  0  0  0  0  0  0  0  0  0  0  0
    4.8590   -0.5630   -1.0680 C   0  0  0  0  0  0  0  0  0  0  0  0
    4.7450   -1.6930   -1.6200 O   0  0  0  0  0  0  0  0  0  0  0  0
    1.4590    0.0500   -0.5480 C   0  0  0  0  0  0  0  0  0  0  0  0
    1.6550    1.2230   -0.9750 O   0  0  0  0  0  0  0  0  0  0  0  0
    0.1400   -0.4170   -0.4970 N   0  0  0  0  0  0  0  0  0  0  0  0
   -0.9440    0.4020   -0.9120 C   0  0  1  0  0  0  0  0  0  0  0  0
   -1.6160   -0.1710   -2.1460 C   0  0  0  0  0  0  0  0  0  0  0  0
   -1.0890   -0.7520   -3.1100 O   0  0  0  0  0  0  0  0  0  0  0  0
   -2.9750    0.0700   -2.0160 O   0  0  0  0  0  0  0  0  0  0  0  0
   -3.2170    0.9150   -0.9090 C   0  0  2  0  0  0  0  0  0  0  0  0
   -3.0330    2.2830   -1.3920 N   0  0  0  0  0  0  0  0  0  0  0  0
   -2.0890    0.5270   -0.0140 C   0  0  0  0  0  0  0  0  0  0  0  0
   -2.1800    0.3640    1.2760 C   0  0  0  0  0  0  0  0  0  0  0  0
   -1.1170   -0.0020    2.2260 C   0  0  0  0  0  0  0  0  0  0  0  0
   -1.3950   -1.1940    2.9000 O   0  0  0  0  0  0  0  0  0  0  0  0
  2  1  1  1
  2  3  1  0
  2  6  1  0
  3  4  1  0
  4  5  2  0
  6  7  2  0
  6  8  1  0
  9  8  1  1
  9 10  1  0
  9 15  1  0
 10 11  2  0
 10 12  1  0
 12 13  1  0
 13 14  1  6
 13 15  1  0
 15 16  2  3
 16 17  1  0
 17 18  1  0
M  END
