
     RDKit          3D

 19 20  0  0  0  0  0  0  0  0999 V2000
   -1.8460   -2.9290   -0.6520 C   0  0  0  0  0  0  0  0  0  0  0  0
   -1.8480   -2.1130    0.5220 O   0  0  0  0  0  0  0  0  0  0  0  0
   -1.4570   -0.7550    0.2940 C   0  0  0  0  0  0  0  0  0  0  0  0
   -0.1790   -0.4690    0.4280 C   0  0  0  0  0  0  0  0  0  0  0  0
    0.8080   -1.4280    0.7760 O   0  0  0  0  0  0  0  0  0  0  0  0
    2.0680   -0.8520    0.8470 C   0  0  1  0  0  0  0  0  0  0  0  0
    2.9290   -1.4300   -0.2070 C   0  0  0  0  0  0  0  0  0  0  0  0
    2.4430   -2.4160   -1.1010 N   0  0  0  0  0  0  0  0  0  0  0  0
    4.1160   -1.0520   -0.3270 O   0  0  0  0  0  0  0  0  0  0  0  0
    1.8380    0.5810    0.5180 C   0  0  0  0  0  0  0  0  0  0  0  0
    0.5510    0.7720    0.2840 C   0  0  0  0  0  0  0  0  0  0  0  0
    0.3380    2.1330   -0.0260 O   0  0  0  0  0  0  0  0  0  0  0  0
    1.3870    2.8430    0.6550 C   0  0  0  0  0  0  0  0  0  0  0  0
    2.5210    1.8880    0.3520 C   0  0  0  0  0  0  0  0  0  0  0  0
   -2.5600    0.1320   -0.0590 C   0  0  1  0  0  0  0  0  0  0  0  0
   -3.2610    0.4750    1.1730 N   0  0  0  0  0  0  0  0  0  0  0  0
   -2.2630    1.2790   -0.9170 C   0  0  0  0  0  0  0  0  0  0  0  0
   -1.6820    1.1350   -2.0220 O   0  0  0  0  0  0  0  0  0  0  0  0
   -2.6190    2.5540   -0.5270 O   0  0  0  0  0  0  0  0  0  0  0  0
  1  2  1  0
  2  3  1  0
  3  4  2  3
  3 15  1  0
  4  5  1  0
  4 11  1  0
  5  6  1  0
  6  7  1  6
  6 10  1  0
  7  8  1  0
  7  9  2  0
 10 11  2  0
 10 14  1  0
 11 12  1  0
 12 13  1  0
 13 14  1  0
 15 16  1  1
 15 17  1  0
 17 18  2  0
 17 19  1  0
M  END
