
     RDKit          3D

 19 19  0  0  0  0  0  0  0  0999 V2000
   -4.3850    0.7270    0.7260 C   0  0  0  0  0  0  0  0  0  0  0  0
   -3.1700    0.3980   -0.1340 C   0  0  2  0  0  0  0  0  0  0  0  0
   -2.7480   -0.8950    0.0050 O   0  0  0  0  0  0  0  0  0  0  0  0
   -1.3990   -1.0550    0.2140 C   0  0  2  0  0  0  0  0  0  0  0  0
   -1.0140   -0.8840    1.6520 C   0  0  0  0  0  0  0  0  0  0  0  0
   -0.5920   -0.2010   -0.7180 C   0  0  2  0  0  0  0  0  0  0  0  0
   -0.9900   -0.5400   -2.1440 C   0  0  0  0  0  0  0  0  0  0  0  0
    0.8500   -0.4420   -0.5850 C   0  0  0  0  0  0  0  0  0  0  0  0
    1.2940   -1.6090   -0.8080 O   0  0  0  0  0  0  0  0  0  0  0  0
    1.8010    0.5370   -0.2220 N   0  0  0  0  0  0  0  0  0  0  0  0
    3.2180    0.2700   -0.0980 C   0  0  0  0  0  0  0  0  0  0  0  0
    4.0370    0.9400   -0.8640 C   0  0  0  0  0  0  0  0  0  0  0  0
    3.5390    1.8690   -1.7550 O   0  0  0  0  0  0  0  0  0  0  0  0
    3.7110   -0.7050    0.8400 C   0  0  0  0  0  0  0  0  0  0  0  0
    4.9330   -0.9670    0.9780 N   0  0  0  0  0  0  0  0  0  0  0  0
    2.8000   -1.4100    1.6500 O   0  0  0  0  0  0  0  0  0  0  0  0
   -0.8650    1.1620   -0.4240 O   0  0  0  0  0  0  0  0  0  0  0  0
   -2.1220    1.4040    0.1580 C   0  0  0  0  0  0  0  0  0  0  0  0
   -2.3160    2.4160    0.8760 O   0  0  0  0  0  0  0  0  0  0  0  0
  2  1  1  1
  2  3  1  0
  2 18  1  0
  3  4  1  0
  4  5  1  1
  4  6  1  0
  6  7  1  6
  6  8  1  0
  6 17  1  0
  8  9  2  0
  8 10  1  0
 10 11  1  0
 11 12  2  3
 11 14  1  0
 12 13  1  0
 14 15  2  0
 14 16  1  0
 17 18  1  0
 18 19  2  0
M  END
