
     RDKit          3D

 19 20  0  0  0  0  0  0  0  0999 V2000
    5.8090    0.9430    0.1130 C   0  0  0  0  0  0  0  0  0  0  0  0
    4.9390   -0.0330   -0.4190 O   0  0  0  0  0  0  0  0  0  0  0  0
    3.5780   -0.0610   -0.1710 C   0  0  0  0  0  0  0  0  0  0  0  0
    3.0910    0.8270    0.5640 O   0  0  0  0  0  0  0  0  0  0  0  0
    2.7630   -1.1250   -0.7760 C   0  0  0  0  0  0  0  0  0  0  0  0
    1.3340   -1.0200   -0.4200 C   0  0  0  0  0  0  0  0  0  0  0  0
    0.3850   -0.3040   -1.1460 C   0  0  0  0  0  0  0  0  0  0  0  0
   -0.7830   -0.4340   -0.5350 N   0  0  0  0  0  0  0  0  0  0  0  0
   -0.6080   -1.2040    0.5480 C   0  0  0  0  0  0  0  0  0  0  0  0
    0.6880   -1.5700    0.6280 N   0  0  0  0  0  0  0  0  0  0  0  0
   -1.8050   -1.4920    1.4040 C   0  0  2  0  0  0  0  0  0  0  0  0
   -2.5360   -2.5080    0.8000 O   0  0  0  0  0  0  0  0  0  0  0  0
   -2.5830   -0.2410    1.6140 C   0  0  1  0  0  0  0  0  0  0  0  0
   -2.0250    0.4100    2.7390 O   0  0  0  0  0  0  0  0  0  0  0  0
   -2.6050    0.7130    0.4680 C   0  0  2  0  0  0  0  0  0  0  0  0
   -3.8780    1.2380    0.2460 O   0  0  0  0  0  0  0  0  0  0  0  0
   -2.1100    0.0640   -0.8000 C   0  0  1  0  0  0  0  0  0  0  0  0
   -2.1880    0.9600   -1.9880 C   0  0  0  0  0  0  0  0  0  0  0  0
   -1.4150    2.0880   -1.9140 O   0  0  0  0  0  0  0  0  0  0  0  0
  1  2  1  0
  2  3  1  0
  3  4  2  0
  3  5  1  0
  5  6  1  0
  6  7  2  0
  6 10  1  0
  7  8  1  0
  8  9  1  0
  8 17  1  0
  9 10  2  0
  9 11  1  0
 11 12  1  6
 11 13  1  0
 13 14  1  1
 13 15  1  0
 15 16  1  6
 15 17  1  0
 17 18  1  6
 18 19  1  0
M  END
