
     RDKit          3D

 19 19  0  0  0  0  0  0  0  0999 V2000
    3.7350   -0.6600    1.2160 C   0  0  0  0  0  0  0  0  0  0  0  0
    2.9440   -0.6740   -0.0600 C   0  0  1  0  0  0  0  0  0  0  0  0
    1.6380   -0.2480    0.0450 O   0  0  0  0  0  0  0  0  0  0  0  0
    0.5040   -0.9570   -0.2120 C   0  0  0  0  0  0  0  0  0  0  0  0
    0.6030   -2.1270   -0.5890 O   0  0  0  0  0  0  0  0  0  0  0  0
   -0.7980   -0.2900   -0.0290 C   0  0  0  0  0  0  0  0  0  0  0  0
   -0.8640    0.9620    0.3750 C   0  0  0  0  0  0  0  0  0  0  0  0
    0.3490    1.6650    0.6320 N   0  0  0  0  0  0  0  0  0  0  0  0
   -2.1400    1.6020    0.5500 C   0  0  0  0  0  0  0  0  0  0  0  0
   -2.1690    2.9340    0.9810 O   0  0  0  0  0  0  0  0  0  0  0  0
   -3.2430    0.9480    0.3110 C   0  0  0  0  0  0  0  0  0  0  0  0
   -3.2520   -0.4520   -0.1420 C   0  0  2  0  0  0  0  0  0  0  0  0
   -3.8900   -0.4950   -1.5280 C   0  0  0  0  0  0  0  0  0  0  0  0
   -4.0200   -1.3290    0.7910 C   0  0  0  0  0  0  0  0  0  0  0  0
   -3.5300   -2.3090    1.2980 O   0  0  0  0  0  0  0  0  0  0  0  0
   -1.9530   -0.9790   -0.2800 O   0  0  0  0  0  0  0  0  0  0  0  0
    3.6670    0.0890   -1.0770 C   0  0  0  0  0  0  0  0  0  0  0  0
    5.0460   -0.1660   -1.3760 N   0  0  0  0  0  0  0  0  0  0  0  0
    3.0610    0.9950   -1.7070 O   0  0  0  0  0  0  0  0  0  0  0  0
  2  1  1  1
  2  3  1  0
  2 17  1  0
  3  4  1  0
  4  5  2  0
  4  6  1  0
  6  7  2  0
  6 16  1  0
  7  8  1  0
  7  9  1  0
  9 10  1  0
  9 11  2  0
 11 12  1  0
 12 13  1  6
 12 14  1  0
 12 16  1  0
 14 15  2  0
 17 18  1  0
 17 19  2  0
M  END
