
     RDKit          3D

 19 19  0  0  0  0  0  0  0  0999 V2000
   -1.8890    1.5710    0.6960 C   0  0  0  0  0  0  0  0  0  0  0  0
   -1.5650    0.2960    0.2230 N   0  0  0  0  0  0  0  0  0  0  0  0
   -2.2050   -0.2010   -0.9120 C   0  0  0  0  0  0  0  0  0  0  0  0
   -1.5760   -1.4810   -1.3600 C   0  0  0  0  0  0  0  0  0  0  0  0
   -1.3340   -2.3940   -0.3820 O   0  0  0  0  0  0  0  0  0  0  0  0
   -1.0350   -1.9380    0.8630 C   0  0  2  0  0  0  0  0  0  0  0  0
   -2.0890   -2.2440    1.9090 C   0  0  0  0  0  0  0  0  0  0  0  0
   -3.3170   -1.6910    1.6070 O   0  0  0  0  0  0  0  0  0  0  0  0
   -0.6440   -0.4840    0.9310 C   0  0  1  0  0  0  0  0  0  0  0  0
    0.7220   -0.2400    0.4090 C   0  0  0  0  0  0  0  0  0  0  0  0
    1.6740   -0.8820    0.8970 O   0  0  0  0  0  0  0  0  0  0  0  0
    0.9560    0.6750   -0.5970 O   0  0  0  0  0  0  0  0  0  0  0  0
    2.2750    0.8430   -1.0310 C   0  0  0  0  0  0  0  0  0  0  0  0
    2.7640    0.1050   -2.0160 C   0  0  0  0  0  0  0  0  0  0  0  0
    2.0430   -0.8810   -2.6980 N   0  0  0  0  0  0  0  0  0  0  0  0
    3.0810    1.8510   -0.3660 C   0  0  0  0  0  0  0  0  0  0  0  0
    4.3940    2.0190   -0.7980 O   0  0  0  0  0  0  0  0  0  0  0  0
    2.5760    2.5730    0.6080 C   0  0  0  0  0  0  0  0  0  0  0  0
    1.2820    2.3880    1.0130 O   0  0  0  0  0  0  0  0  0  0  0  0
  1  2  1  0
  2  3  1  0
  2  9  1  0
  3  4  1  0
  4  5  1  0
  5  6  1  0
  6  7  1  1
  6  9  1  0
  7  8  1  0
  9 10  1  6
 10 11  2  0
 10 12  1  0
 12 13  1  0
 13 14  2  3
 13 16  1  0
 14 15  1  0
 16 17  1  0
 16 18  2  3
 18 19  1  0
M  END
