
     RDKit          3D

 19 20  0  0  0  0  0  0  0  0999 V2000
    4.8050    1.2940    0.9990 O   0  0  0  0  0  0  0  0  0  0  0  0
    3.6250    1.0380    0.6820 C   0  0  0  0  0  0  0  0  0  0  0  0
    3.1590    1.2190   -0.7150 C   0  0  0  0  0  0  0  0  0  0  0  0
    1.6990    0.7750   -0.8310 C   0  0  0  0  0  0  0  0  0  0  0  0
    1.5730   -0.5930   -0.2500 C   0  0  2  0  0  0  0  0  0  0  0  0
    2.6750   -1.4320   -0.9200 C   0  0  0  0  0  0  0  0  0  0  0  0
    2.6160   -2.7260   -0.4840 O   0  0  0  0  0  0  0  0  0  0  0  0
    0.3140   -1.3300   -0.4470 C   0  0  0  0  0  0  0  0  0  0  0  0
   -0.9130   -0.8040    0.0370 N   0  0  0  0  0  0  0  0  0  0  0  0
   -1.5510    0.3530   -0.4310 C   0  0  0  0  0  0  0  0  0  0  0  0
   -1.1230    1.0590   -1.3520 O   0  0  0  0  0  0  0  0  0  0  0  0
   -2.8300    0.7310    0.2500 C   0  0  1  0  0  0  0  0  0  0  0  0
   -3.3810    1.8760   -0.2770 O   0  0  0  0  0  0  0  0  0  0  0  0
   -4.7140    1.7880    0.1020 C   0  0  0  0  0  0  0  0  0  0  0  0
   -5.0470    0.4320   -0.3390 N   0  0  0  0  0  0  0  0  0  0  0  0
   -3.8530   -0.3190   -0.0880 C   0  0  0  0  0  0  0  0  0  0  0  0
   -3.7160   -1.5580   -0.1420 O   0  0  0  0  0  0  0  0  0  0  0  0
    1.8860   -0.5530    1.2460 C   0  0  0  0  0  0  0  0  0  0  0  0
    2.6850    0.5790    1.5850 O   0  0  0  0  0  0  0  0  0  0  0  0
  1  2  2  0
  2  3  1  0
  2 19  1  0
  3  4  1  0
  4  5  1  0
  5  6  1  6
  5  8  1  0
  5 18  1  0
  6  7  1  0
  8  9  1  0
  9 10  1  0
 10 11  2  0
 12 10  1  6
 12 13  1  0
 12 16  1  0
 13 14  1  0
 14 15  1  0
 15 16  1  0
 16 17  2  0
 18 19  1  0
M  END
