
     RDKit          3D

 17 17  0  0  0  0  0  0  0  0999 V2000
   -2.0000   -1.9770    1.2800 C   0  0  0  0  0  0  0  0  0  0  0  0
   -1.2760   -0.7060    1.2420 C   0  0  0  0  0  0  0  0  0  0  0  0
   -1.4090    0.3030    0.4230 C   0  0  0  0  0  0  0  0  0  0  0  0
   -0.5160    1.4170    0.6780 N   0  0  0  0  0  0  0  0  0  0  0  0
    0.8260    1.2950    1.1250 C   0  0  0  0  0  0  0  0  0  0  0  0
    1.7040    0.5600    0.2300 C   0  0  0  0  0  0  0  0  0  0  0  0
    1.3510    0.0380   -0.9320 N   0  0  0  0  0  0  0  0  0  0  0  0
    2.2500   -0.6340   -1.7140 C   0  0  0  0  0  0  0  0  0  0  0  0
    1.8720   -1.1120   -2.8070 O   0  0  0  0  0  0  0  0  0  0  0  0
    3.5110   -0.7780   -1.3180 N   0  0  0  0  0  0  0  0  0  0  0  0
    3.9350   -0.2790   -0.1620 C   0  0  0  0  0  0  0  0  0  0  0  0
    5.1400   -0.4060    0.2370 O   0  0  0  0  0  0  0  0  0  0  0  0
    3.0340    0.3980    0.6290 C   0  0  0  0  0  0  0  0  0  0  0  0
    3.4680    0.9260    1.8450 O   0  0  0  0  0  0  0  0  0  0  0  0
   -2.3240    0.4610   -0.6680 C   0  0  0  0  0  0  0  0  0  0  0  0
   -3.3140   -0.5750   -1.0160 C   0  0  0  0  0  0  0  0  0  0  0  0
   -2.3100    1.5280   -1.3880 N   0  0  0  0  0  0  0  0  0  0  0  0
  1  2  1  0
  2  3  2  3
  3  4  1  0
  3 15  1  0
  4  5  1  0
  5  6  1  0
  6  7  1  0
  6 13  2  0
  7  8  1  0
  8  9  2  0
  8 10  1  0
 10 11  1  0
 11 12  2  0
 11 13  1  0
 13 14  1  0
 15 16  1  0
 15 17  2  0
M  CHG  1  17   1
M  END
