
     RDKit          3D

 21 22  0  0  0  0  0  0  0  0999 V2000
   -4.3290   -1.7960    0.4550 C   0  0  0  0  0  0  0  0  0  0  0  0
   -3.9930   -0.8690   -0.7120 C   0  0  2  0  0  0  0  0  0  0  0  0
   -5.1480   -0.0970   -1.2340 C   0  0  0  0  0  0  0  0  0  0  0  0
   -4.6840    0.7560   -2.3410 N   0  0  0  0  0  0  0  0  0  0  0  0
   -2.7690   -1.2280   -1.4330 C   0  0  0  0  0  0  0  0  0  0  0  0
   -2.6900   -0.0440   -0.6000 C   0  0  2  0  0  0  0  0  0  0  0  0
   -2.2460    0.0940    0.8020 C   0  0  0  0  0  0  0  0  0  0  0  0
   -0.9700    0.8600    0.8780 N   0  0  0  0  0  0  0  0  0  0  0  0
    0.1580    0.3260    0.3180 C   0  0  0  0  0  0  0  0  0  0  0  0
    0.5360   -0.5700   -0.2460 O   0  0  0  0  0  0  0  0  0  0  0  0
    1.5060    1.5440    0.6390 N   0  0  0  0  0  0  0  0  0  0  0  0
    2.8260    0.5650    0.3480 C   0  0  0  0  0  0  0  0  0  0  0  0
    2.6850   -0.5520    0.0510 O   0  0  0  0  0  0  0  0  0  0  0  0
    3.9770    1.3590    0.5290 N   0  0  0  0  0  0  0  0  0  0  0  0
    5.2240    0.7240    0.3340 C   0  0  0  0  0  0  0  0  0  0  0  0
    6.1100    1.0600   -0.5920 C   0  0  0  0  0  0  0  0  0  0  0  0
    7.2490    0.1700   -0.4630 C   0  0  0  0  0  0  0  0  0  0  0  0
    8.3020    0.2090   -1.2120 O   0  0  0  0  0  0  0  0  0  0  0  0
    6.9740   -0.7170    0.6020 N   0  0  0  0  0  0  0  0  0  0  0  0
    5.7100   -0.3880    1.1170 C   0  0  0  0  0  0  0  0  0  0  0  0
    5.1450   -0.9750    2.0730 O   0  0  0  0  0  0  0  0  0  0  0  0
  2  1  1  1
  2  3  1  0
  2  5  1  0
  2  6  1  0
  3  4  1  0
  5  6  1  0
  6  7  1  1
  7  8  1  0
  8  9  1  0
  9 10  2  0
  9 11  1  0
 11 12  1  0
 12 13  2  0
 12 14  1  0
 14 15  1  0
 15 16  2  0
 15 20  1  0
 16 17  1  0
 17 18  2  0
 17 19  1  0
 19 20  1  0
 20 21  2  0
M  END
