
     RDKit          3D

 21 22  0  0  0  0  0  0  0  0999 V2000
    1.0500   -3.1220    1.0240 N   0  0  0  0  0  0  0  0  0  0  0  0
   -0.2810   -2.5750    0.8750 C   0  0  0  0  0  0  0  0  0  0  0  0
   -0.1610   -1.1970    0.1920 C   0  0  1  0  0  0  0  0  0  0  0  0
    0.4820   -1.3980   -1.1360 C   0  0  0  0  0  0  0  0  0  0  0  0
    1.9430   -1.6280   -1.1240 C   0  0  0  0  0  0  0  0  0  0  0  0
    2.7840   -0.8640   -0.1810 C   0  0  0  0  0  0  0  0  0  0  0  0
    3.1980    0.4180   -0.7120 N   0  0  0  0  0  0  0  0  0  0  0  0
    3.2390    1.6280    0.0280 C   0  0  0  0  0  0  0  0  0  0  0  0
    4.2480    2.4100   -0.1510 O   0  0  0  0  0  0  0  0  0  0  0  0
    2.2790    2.0750    0.9520 N   0  0  0  0  0  0  0  0  0  0  0  0
    0.8690    2.2230    0.7640 C   0  0  0  0  0  0  0  0  0  0  0  0
    0.4120    1.9430   -0.6150 C   0  0  0  0  0  0  0  0  0  0  0  0
    1.2700    2.0330   -1.5340 O   0  0  0  0  0  0  0  0  0  0  0  0
   -0.8620    1.6040   -0.9060 O   0  0  0  0  0  0  0  0  0  0  0  0
   -1.7410    0.7130   -0.3720 C   0  0  0  0  0  0  0  0  0  0  0  0
   -1.4850   -0.5200    0.1220 C   0  0  0  0  0  0  0  0  0  0  0  0
   -2.6570   -1.0340    0.5410 N   0  0  0  0  0  0  0  0  0  0  0  0
   -3.6480   -0.1970    0.3420 N   0  0  0  0  0  0  0  0  0  0  0  0
   -3.1160    0.8990   -0.2240 C   0  0  0  0  0  0  0  0  0  0  0  0
   -3.9540    2.0860   -0.6060 C   0  0  0  0  0  0  0  0  0  0  0  0
   -5.2770    1.8840   -0.2960 O   0  0  0  0  0  0  0  0  0  0  0  0
  1  2  1  0
  3  2  1  6
  3  4  1  0
  3 16  1  0
  4  5  1  0
  5  6  1  0
  6  7  1  0
  7  8  1  0
  8  9  2  0
  8 10  1  0
 10 11  1  0
 11 12  1  0
 12 13  2  0
 12 14  1  0
 14 15  1  0
 15 16  1  0
 15 19  2  0
 16 17  2  0
 17 18  1  0
 18 19  1  0
 19 20  1  0
 20 21  1  0
M  END
