
     RDKit          3D

 21 22  0  0  0  0  0  0  0  0999 V2000
    3.4250    2.7050   -1.0200 C   0  0  0  0  0  0  0  0  0  0  0  0
    2.5350    1.8730   -0.1480 C   0  0  0  0  0  0  0  0  0  0  0  0
    1.7650    2.4270    0.6870 O   0  0  0  0  0  0  0  0  0  0  0  0
    2.5200    0.4560   -0.2210 N   0  0  0  0  0  0  0  0  0  0  0  0
    1.6400   -0.3380    0.6430 C   0  0  2  0  0  0  0  0  0  0  0  0
    2.5630   -1.1810    1.4870 C   0  0  0  0  0  0  0  0  0  0  0  0
    3.2570   -2.1400    0.5530 C   0  0  0  0  0  0  0  0  0  0  0  0
    4.4830   -2.1980    0.4530 O   0  0  0  0  0  0  0  0  0  0  0  0
    2.3880   -2.9880   -0.2170 N   0  0  0  0  0  0  0  0  0  0  0  0
    1.1200   -2.4050   -0.5150 C   0  0  0  0  0  0  0  0  0  0  0  0
    0.7500   -1.2040   -0.1370 C   0  0  0  0  0  0  0  0  0  0  0  0
   -0.5610   -0.6920   -0.4830 N   0  0  0  0  0  0  0  0  0  0  0  0
   -1.4920   -0.3140    0.4970 C   0  0  0  0  0  0  0  0  0  0  0  0
   -1.0600   -0.4690    1.7020 O   0  0  0  0  0  0  0  0  0  0  0  0
   -2.8160    0.2050    0.3240 C   0  0  0  0  0  0  0  0  0  0  0  0
   -3.5380    0.5020    1.3950 C   0  0  0  0  0  0  0  0  0  0  0  0
   -4.9060    1.0400    1.3850 C   0  0  0  0  0  0  0  0  0  0  0  0
   -5.3690    1.2060    0.0800 O   0  0  0  0  0  0  0  0  0  0  0  0
   -4.6260    0.9000   -1.0050 N   0  0  0  0  0  0  0  0  0  0  0  0
   -3.4100    0.4220   -0.9780 C   0  0  0  0  0  0  0  0  0  0  0  0
   -2.7450    0.1450   -2.2220 N   0  0  0  0  0  0  0  0  0  0  0  0
  1  2  1  0
  2  3  2  0
  2  4  1  0
  5  4  1  6
  5  6  1  0
  5 11  1  0
  6  7  1  0
  7  8  2  0
  7  9  1  0
  9 10  1  0
 10 11  2  0
 11 12  1  0
 12 13  1  0
 13 14  2  0
 13 15  1  0
 15 16  2  0
 15 20  1  0
 16 17  1  0
 17 18  1  0
 18 19  1  0
 19 20  2  0
 20 21  1  0
M  END
