
     RDKit          3D

 16 16  0  0  0  0  0  0  0  0999 V2000
   -3.9190   -2.0060    0.2200 C   0  0  0  0  0  0  0  0  0  0  0  0
   -3.9930   -0.6920    0.1480 C   0  0  0  0  0  0  0  0  0  0  0  0
   -5.1730    0.0720    0.0640 N   0  0  0  0  0  0  0  0  0  0  0  0
   -4.8050    1.4510    0.0050 C   0  0  0  0  0  0  0  0  0  0  0  0
   -3.3420    1.4770    0.0590 C   0  0  0  0  0  0  0  0  0  0  0  0
   -2.8640    0.2640    0.1410 C   0  0  0  0  0  0  0  0  0  0  0  0
   -1.5310   -0.1920    0.2150 O   0  0  0  0  0  0  0  0  0  0  0  0
   -0.4170    0.5800    0.2160 C   0  0  0  0  0  0  0  0  0  0  0  0
   -0.5120    1.8090    0.1480 O   0  0  0  0  0  0  0  0  0  0  0  0
    0.9080   -0.0340    0.2980 C   0  0  0  0  0  0  0  0  0  0  0  0
    0.9850   -1.2670    0.3660 O   0  0  0  0  0  0  0  0  0  0  0  0
    2.0360    0.8120    0.2960 N   0  0  0  0  0  0  0  0  0  0  0  0
    3.3700    0.2860    0.3690 C   0  0  0  0  0  0  0  0  0  0  0  0
    3.6260   -0.5900   -0.8260 C   0  0  0  0  0  0  0  0  0  0  0  0
    5.0400   -1.1310   -0.7350 C   0  0  0  0  0  0  0  0  0  0  0  0
    5.9290   -0.0580   -0.7230 O   0  0  0  0  0  0  0  0  0  0  0  0
  1  2  2  0
  2  3  1  0
  2  6  1  0
  3  4  1  0
  4  5  1  0
  5  6  2  0
  6  7  1  0
  7  8  1  0
  8  9  2  0
  8 10  1  0
 10 11  2  0
 10 12  1  0
 12 13  1  0
 13 14  1  0
 14 15  1  0
 15 16  1  0
M  END
