
     RDKit          3D

 16 16  0  0  0  0  0  0  0  0999 V2000
    4.9790   -0.9850   -0.5160 N   0  0  0  0  0  0  0  0  0  0  0  0
    3.8470   -0.1440   -0.7250 N   0  0  0  0  0  0  0  0  0  0  0  0
    3.5700    0.8630    0.1990 C   0  0  0  0  0  0  0  0  0  0  0  0
    4.3480    1.0000    1.1910 O   0  0  0  0  0  0  0  0  0  0  0  0
    2.4280    1.7700    0.0740 C   0  0  0  0  0  0  0  0  0  0  0  0
    1.5030    1.3780   -0.8380 O   0  0  0  0  0  0  0  0  0  0  0  0
    0.7870    0.2430   -0.5770 C   0  0  0  0  0  0  0  0  0  0  0  0
   -0.0410    0.3880    0.7190 C   0  0  2  0  0  0  0  0  0  0  0  0
   -0.7080   -0.9460    0.9220 C   0  0  0  0  0  0  0  0  0  0  0  0
   -1.9290   -1.1390    0.0540 C   0  0  0  0  0  0  0  0  0  0  0  0
   -2.7760    0.0540    0.1460 C   0  0  0  0  0  0  0  0  0  0  0  0
   -3.9980    0.0150   -0.3430 C   0  0  0  0  0  0  0  0  0  0  0  0
   -4.5220   -1.1820   -0.9700 C   0  0  0  0  0  0  0  0  0  0  0  0
   -5.6640   -1.2610   -1.4420 O   0  0  0  0  0  0  0  0  0  0  0  0
   -2.2060    1.2530    0.7920 C   0  0  0  0  0  0  0  0  0  0  0  0
   -0.8790    1.4380    0.5400 O   0  0  0  0  0  0  0  0  0  0  0  0
  1  2  1  0
  2  3  1  0
  3  4  2  0
  3  5  1  0
  5  6  1  0
  6  7  1  0
  8  7  1  6
  8  9  1  0
  8 16  1  0
  9 10  1  0
 10 11  1  0
 11 12  2  3
 11 15  1  0
 12 13  1  0
 13 14  2  0
 15 16  1  0
M  END
