
     RDKit          3D

 16 16  0  0  0  0  0  0  0  0999 V2000
   -1.0940   -1.5510   -0.4370 O   0  0  0  0  0  0  0  0  0  0  0  0
   -0.8450   -0.3800   -0.0530 C   0  0  0  0  0  0  0  0  0  0  0  0
    0.5190    0.0710    0.1510 N   0  0  0  0  0  0  0  0  0  0  0  0
    1.5270   -0.9030   -0.1150 C   0  0  0  0  0  0  0  0  0  0  0  0
    2.9130   -0.4880    0.0780 C   0  0  0  0  0  0  0  0  0  0  0  0
    3.2690    0.7030    0.4740 C   0  0  0  0  0  0  0  0  0  0  0  0
    4.6910    1.0380    0.6430 C   0  0  0  0  0  0  0  0  0  0  0  0
    5.5810    0.0010    0.3510 O   0  0  0  0  0  0  0  0  0  0  0  0
    5.2010   -1.2470   -0.0630 C   0  0  0  0  0  0  0  0  0  0  0  0
    3.9290   -1.5350   -0.2110 C   0  0  0  0  0  0  0  0  0  0  0  0
   -1.9390    0.4800    0.1730 N   0  0  0  0  0  0  0  0  0  0  0  0
   -3.3260    0.0970   -0.0100 C   0  0  1  0  0  0  0  0  0  0  0  0
   -4.1210    0.2640    1.2700 C   0  0  0  0  0  0  0  0  0  0  0  0
   -5.4370   -0.1210    1.0190 O   0  0  0  0  0  0  0  0  0  0  0  0
   -3.8780    0.9440   -1.1260 C   0  0  0  0  0  0  0  0  0  0  0  0
   -3.0940    0.6580   -2.2640 O   0  0  0  0  0  0  0  0  0  0  0  0
  1  2  2  0
  2  3  1  0
  2 11  1  0
  3  4  1  0
  4  5  1  0
  5  6  2  0
  5 10  1  0
  6  7  1  0
  7  8  1  0
  8  9  1  0
  9 10  2  0
 11 12  1  0
 12 13  1  1
 12 15  1  0
 13 14  1  0
 15 16  1  0
M  END
