
     RDKit          3D

 10 10  0  0  0  0  0  0  0  0999 V2000
    2.2420   -0.3360    0.9570 O   0  0  0  0  0  0  0  0  0  0  0  0
    2.1210    0.0190   -0.3840 C   0  0  0  0  0  0  0  0  0  0  0  0
    0.6250    0.0720   -0.7070 C   0  0  1  0  0  0  0  0  0  0  0  0
    0.0870   -1.2270   -0.4580 N   0  0  0  0  0  0  0  0  0  0  0  0
   -1.2810   -1.3230   -0.5900 N   0  0  0  0  0  0  0  0  0  0  0  0
   -2.0250   -0.2710    0.0260 C   0  0  0  0  0  0  0  0  0  0  0  0
   -1.2030    0.6700    0.8500 C   0  0  1  0  0  0  0  0  0  0  0  0
   -0.8880    0.0620    2.0700 O   0  0  0  0  0  0  0  0  0  0  0  0
    0.0270    1.1570    0.1210 C   0  0  2  0  0  0  0  0  0  0  0  0
   -0.3520    2.2650   -0.6700 O   0  0  0  0  0  0  0  0  0  0  0  0
  1  2  1  0
  3  2  1  1
  3  4  1  0
  3  9  1  0
  4  5  1  0
  5  6  1  0
  6  7  1  0
  7  8  1  1
  7  9  1  0
  9 10  1  6
M  CHG  2   4   1   5   1
M  END
