
     RDKit          3D

 10 10  0  0  0  0  0  0  0  0999 V2000
    2.4570    0.8580    0.4890 C   0  0  0  0  0  0  0  0  0  0  0  0
    1.8150    0.1650   -0.6070 N   0  0  0  0  0  0  0  0  0  0  0  0
    0.8540   -0.8040   -0.1600 C   0  0  0  0  0  0  0  0  0  0  0  0
   -0.5650   -0.4330   -0.5050 C   0  0  1  0  0  0  0  0  0  0  0  0
   -0.8050   -0.2970   -1.8350 O   0  0  0  0  0  0  0  0  0  0  0  0
   -1.4950   -1.4120    0.1870 C   0  0  0  0  0  0  0  0  0  0  0  0
   -1.6170   -0.9210    1.4580 O   0  0  0  0  0  0  0  0  0  0  0  0
   -0.9820    0.1930    1.5710 O   0  0  0  0  0  0  0  0  0  0  0  0
   -0.9490    0.7970    0.3120 C   0  0  2  0  0  0  0  0  0  0  0  0
   -2.2750    1.2450    0.0140 N   0  0  0  0  0  0  0  0  0  0  0  0
  1  2  1  0
  2  3  1  0
  3  4  1  0
  4  5  1  6
  4  6  1  0
  4  9  1  0
  6  7  1  0
  7  8  1  0
  8  9  1  0
  9 10  1  6
M  CHG  1   2   1
M  END
