
     RDKit          3D

  9  9  0  0  0  0  0  0  0  0999 V2000
    2.4990   -1.0330   -0.7070 N   0  0  0  0  0  0  0  0  0  0  0  0
    1.5550   -0.0610   -0.8120 O   0  0  0  0  0  0  0  0  0  0  0  0
    0.5170   -0.2880    0.0770 C   0  0  1  0  0  0  0  0  0  0  0  0
    0.3880    0.8210    1.1010 C   0  0  0  0  0  0  0  0  0  0  0  0
    0.0310    2.1370    0.4720 C   0  0  0  0  0  0  0  0  0  0  0  0
   -0.7800    1.9490   -0.6550 O   0  0  0  0  0  0  0  0  0  0  0  0
   -1.6040    0.8550   -0.4260 C   0  0  0  0  0  0  0  0  0  0  0  0
   -0.8120   -0.4430   -0.5950 C   0  0  2  0  0  0  0  0  0  0  0  0
   -1.5780   -1.5410   -0.0500 N   0  0  0  0  0  0  0  0  0  0  0  0
  1  2  1  0
  3  2  1  6
  3  4  1  0
  3  8  1  0
  4  5  1  0
  5  6  1  0
  6  7  1  0
  7  8  1  0
  8  9  1  1
M  CHG  2   1   1   9   1
M  END
