
     RDKit          3D

 29 32  0  0  0  0  0  0  0  0999 V2000
   -4.7700    4.0870   -2.2200 C   0  0  0  0  0  0  0  0  0  0  0  0
   -4.6330    3.2750   -0.9690 C   0  0  0  0  0  0  0  0  0  0  0  0
   -3.2100    2.9020   -0.6940 C   0  0  0  0  0  0  0  0  0  0  0  0
   -2.3230    3.6000    0.0230 N   0  0  0  0  0  0  0  0  0  0  0  0
   -1.1230    2.9400    0.0520 C   0  0  0  0  0  0  0  0  0  0  0  0
   -1.2970    1.8290   -0.6580 N   0  0  0  0  0  0  0  0  0  0  0  0
   -2.5490    1.8120   -1.1020 N   0  0  0  0  0  0  0  0  0  0  0  0
   -0.2050    0.8430   -0.8230 C   0  0  2  0  0  0  0  0  0  0  0  0
   -0.7720   -0.3550   -0.0270 C   0  0  1  0  0  0  0  0  0  0  0  0
   -1.1140    0.1330    1.3930 C   0  0  0  0  0  0  0  0  0  0  0  0
   -1.5640   -1.0620    2.1980 C   0  0  0  0  0  0  0  0  0  0  0  0
   -2.7100   -1.7860    1.5510 C   0  0  1  0  0  0  0  0  0  0  0  0
   -2.3030   -3.1460    1.0230 C   0  0  0  0  0  0  0  0  0  0  0  0
   -3.7920   -1.8840    2.4260 O   0  0  0  0  0  0  0  0  0  0  0  0
   -3.1900   -0.9760    0.3670 C   0  0  0  0  0  0  0  0  0  0  0  0
   -2.0510   -0.8800   -0.6120 C   0  0  0  0  0  0  0  0  0  0  0  0
    1.0510    1.3180   -0.2480 C   0  0  0  0  0  0  0  0  0  0  0  0
    2.1690    0.6310   -0.3670 C   0  0  0  0  0  0  0  0  0  0  0  0
    2.2340   -0.6440   -1.0890 C   0  0  0  0  0  0  0  0  0  0  0  0
    2.7480   -1.7240   -0.1690 C   0  0  0  0  0  0  0  0  0  0  0  0
    2.7890   -2.9920   -0.9150 N   0  0  2  0  0  0  0  0  0  0  0  0
    3.1610   -4.0870   -0.0520 C   0  0  0  0  0  0  0  0  0  0  0  0
    3.7440   -2.8570   -1.9890 C   0  0  0  0  0  0  0  0  0  0  0  0
    3.4390    1.0650    0.2500 C   0  0  0  0  0  0  0  0  0  0  0  0
    3.5880    2.1560    0.9650 C   0  0  0  0  0  0  0  0  0  0  0  0
    4.8960    2.5440    1.5650 C   0  0  0  0  0  0  0  0  0  0  0  0
    2.4190    2.9470    1.1250 N   0  0  0  0  0  0  0  0  0  0  0  0
    1.1730    2.5580    0.5370 C   0  0  0  0  0  0  0  0  0  0  0  0
    0.1210    3.2900    0.6400 N   0  0  0  0  0  0  0  0  0  0  0  0
  1  2  1  0
  2  3  1  0
  3  4  1  0
  3  7  2  0
  4  5  2  0
  5  6  1  0
  5 29  1  0
  6  7  1  0
  8  6  1  1
  8  9  1  0
  8 17  1  0
  9 10  1  1
  9 16  1  0
 10 11  1  0
 11 12  1  0
 12 13  1  6
 12 14  1  0
 12 15  1  0
 15 16  1  0
 17 18  2  0
 17 28  1  0
 18 19  1  0
 18 24  1  0
 19 20  1  0
 20 21  1  0
 21 22  1  1
 21 23  1  0
 24 25  2  0
 25 26  1  0
 25 27  1  0
 27 28  1  0
 28 29  2  0
M  CHG  1  21   1
M  END
