
     RDKit          3D

 29 33  0  0  0  0  0  0  0  0999 V2000
    7.0450    3.0190    0.1030 C   0  0  0  0  0  0  0  0  0  0  0  0
    5.6490    2.4010    0.0580 C   0  0  0  0  0  0  0  0  0  0  0  0
    5.5710    1.2650    0.9440 N   0  0  0  0  0  0  0  0  0  0  0  0
    4.7390    0.2920    0.8120 C   0  0  0  0  0  0  0  0  0  0  0  0
    4.6480   -0.8990    1.7290 C   0  0  0  0  0  0  0  0  0  0  0  0
    4.1700   -1.9740    0.7940 C   0  0  0  0  0  0  0  0  0  0  0  0
    3.6000   -1.2930   -0.4250 C   0  0  1  0  0  0  0  0  0  0  0  0
    2.1690   -1.6930   -0.5450 C   0  0  0  0  0  0  0  0  0  0  0  0
    1.6380   -2.9270   -0.5060 N   0  0  0  0  0  0  0  0  0  0  0  0
    0.3100   -2.7980   -0.6460 C   0  0  0  0  0  0  0  0  0  0  0  0
   -0.7200   -3.7160   -0.6820 C   0  0  0  0  0  0  0  0  0  0  0  0
   -0.4910   -4.9460   -0.5690 O   0  0  0  0  0  0  0  0  0  0  0  0
   -1.9870   -3.3180   -0.8380 N   0  0  0  0  0  0  0  0  0  0  0  0
   -2.2720   -2.0430   -0.9590 N   0  0  0  0  0  0  0  0  0  0  0  0
   -1.3360   -1.0720   -0.9360 C   0  0  0  0  0  0  0  0  0  0  0  0
   -1.7450    0.2940   -1.0680 C   0  0  0  0  0  0  0  0  0  0  0  0
   -2.9570    0.7050   -1.2860 C   0  0  0  0  0  0  0  0  0  0  0  0
   -4.1630   -0.0820   -1.4470 C   0  0  0  0  0  0  0  0  0  0  0  0
   -5.0790    0.3050   -0.3090 C   0  0  0  0  0  0  0  0  0  0  0  0
   -6.2650    0.8220   -0.4000 C   0  0  0  0  0  0  0  0  0  0  0  0
   -6.8220    1.0520    0.8930 N   0  0  0  0  0  0  0  0  0  0  0  0
   -7.8960    1.9390    1.2690 C   0  0  0  0  0  0  0  0  0  0  0  0
   -6.0790    0.1950    1.7890 C   0  0  0  0  0  0  0  0  0  0  0  0
   -4.7250    0.1400    1.1150 C   0  0  0  0  0  0  0  0  0  0  0  0
   -0.0010   -1.4380   -0.7770 C   0  0  0  0  0  0  0  0  0  0  0  0
    1.1940   -0.7450   -0.7120 C   0  0  0  0  0  0  0  0  0  0  0  0
    1.4690    0.6980   -0.8090 C   0  0  0  0  0  0  0  0  0  0  0  0
    2.9480    1.0340   -0.9080 C   0  0  0  0  0  0  0  0  0  0  0  0
    3.7490    0.1010   -0.1750 N   0  0  0  0  0  0  0  0  0  0  0  0
  1  2  1  0
  2  3  1  0
  3  4  2  3
  4  5  1  0
  4 29  1  0
  5  6  1  0
  7  6  1  1
  7  8  1  0
  7 29  1  0
  8  9  1  0
  8 26  2  0
  9 10  1  0
 10 11  1  0
 10 25  2  0
 11 12  2  0
 11 13  1  0
 13 14  1  0
 14 15  2  0
 15 16  1  0
 15 25  1  0
 16 17  2  3
 17 18  1  0
 18 19  1  0
 19 20  2  0
 19 24  1  0
 20 21  1  0
 21 22  1  0
 21 23  1  0
 23 24  1  0
 25 26  1  0
 26 27  1  0
 27 28  1  0
 28 29  1  0
M  CHG  1   3   1
M  END
