
     RDKit          3D

 30 33  0  0  0  0  0  0  0  0999 V2000
   -5.4030    0.8810    0.1980 C   0  0  0  0  0  0  0  0  0  0  0  0
   -4.1210    0.7730   -0.0750 C   0  0  0  0  0  0  0  0  0  0  0  0
   -3.0610    0.9840    0.9660 C   0  0  0  0  0  0  0  0  0  0  0  0
   -3.3580    1.7810    1.9690 C   0  0  0  0  0  0  0  0  0  0  0  0
   -2.4790    2.1330    3.0960 C   0  0  0  0  0  0  0  0  0  0  0  0
   -1.8510    0.2970    0.7830 N   0  0  0  0  0  0  0  0  0  0  0  0
   -1.1040   -0.2050    1.9030 C   0  0  0  0  0  0  0  0  0  0  0  0
   -0.0450   -1.1610    1.4460 C   0  0  0  0  0  0  0  0  0  0  0  0
    1.2310   -0.7120    1.2530 C   0  0  0  0  0  0  0  0  0  0  0  0
    2.2510   -1.5750    0.8210 C   0  0  0  0  0  0  0  0  0  0  0  0
    3.6450   -1.1070    0.6070 C   0  0  0  0  0  0  0  0  0  0  0  0
    3.8420   -0.5290   -0.6900 N   0  0  0  0  0  0  0  0  0  0  0  0
    3.5990   -1.3480   -1.8600 C   0  0  0  0  0  0  0  0  0  0  0  0
    4.2680    0.8200   -0.8700 C   0  0  0  0  0  0  0  0  0  0  0  0
    5.5040    1.1990   -1.0950 C   0  0  0  0  0  0  0  0  0  0  0  0
    6.6190    0.4050   -1.2030 F   0  0  0  0  0  0  0  0  0  0  0  0
    5.5980    2.6760   -1.2320 C   0  0  0  0  0  0  0  0  0  0  0  0
    4.1980    3.1000   -1.0470 C   0  0  0  0  0  0  0  0  0  0  0  0
    3.4590    2.0330   -0.8430 C   0  0  0  0  0  0  0  0  0  0  0  0
    2.1280    2.0630   -0.6360 F   0  0  0  0  0  0  0  0  0  0  0  0
    1.8550   -2.8450    0.6240 N   0  0  0  0  0  0  0  0  0  0  0  0
    0.5770   -3.2630    0.8250 C   0  0  0  0  0  0  0  0  0  0  0  0
    0.0080   -4.4730    0.6810 N   0  0  0  0  0  0  0  0  0  0  0  0
   -1.2860   -4.3650    1.0040 C   0  0  0  0  0  0  0  0  0  0  0  0
   -1.5580   -3.1010    1.3540 N   0  0  0  0  0  0  0  0  0  0  0  0
   -0.3970   -2.4340    1.2380 N   0  0  0  0  0  0  0  0  0  0  0  0
   -1.3290    0.0910   -0.5250 C   0  0  0  0  0  0  0  0  0  0  0  0
   -2.1940    0.6030   -1.6350 C   0  0  0  0  0  0  0  0  0  0  0  0
   -3.6460    0.4310   -1.4250 C   0  0  1  0  0  0  0  0  0  0  0  0
   -4.0510   -0.9390   -1.7810 N   0  0  0  0  0  0  0  0  0  0  0  0
  1  2  2  0
  2  3  1  0
  2 29  1  0
  3  4  2  3
  3  6  1  0
  4  5  1  0
  6  7  1  0
  6 27  1  0
  7  8  1  0
  8  9  2  0
  8 26  1  0
  9 10  1  0
 10 11  1  0
 10 21  2  0
 11 12  1  0
 12 13  1  0
 12 14  1  0
 14 15  2  0
 14 19  1  0
 15 16  1  0
 15 17  1  0
 17 18  1  0
 18 19  2  0
 19 20  1  0
 21 22  1  0
 22 23  2  0
 22 26  1  0
 23 24  1  0
 24 25  2  0
 25 26  1  0
 27 28  1  0
 28 29  1  0
 29 30  1  1
M  CHG  1  30   1
M  END
