
     RDKit          3D

 29 32  0  0  0  0  0  0  0  0999 V2000
   -2.7440   -3.7360    1.7960 N   0  0  0  0  0  0  0  0  0  0  0  0
   -3.9030   -3.2530    1.4480 C   0  0  0  0  0  0  0  0  0  0  0  0
   -5.0860   -2.7850    1.0920 C   0  0  0  0  0  0  0  0  0  0  0  0
   -5.1200   -1.5890    0.2420 N   0  0  0  0  0  0  0  0  0  0  0  0
   -6.5020   -1.3030   -0.1370 C   0  0  0  0  0  0  0  0  0  0  0  0
   -6.6660    0.1790   -0.4320 C   0  0  0  0  0  0  0  0  0  0  0  0
   -5.3830    0.6790   -1.0860 C   0  0  0  0  0  0  0  0  0  0  0  0
   -4.3590    0.7260    0.0920 C   0  0  2  0  0  0  0  0  0  0  0  0
   -3.0480    0.9270   -0.4150 N   0  0  0  0  0  0  0  0  0  0  0  0
   -2.2010   -0.2130   -0.3630 C   0  0  1  0  0  0  0  0  0  0  0  0
   -1.3850   -0.4850   -1.5960 C   0  0  0  0  0  0  0  0  0  0  0  0
   -0.1170    0.2710   -1.7340 C   0  0  0  0  0  0  0  0  0  0  0  0
    0.6960    0.1530   -0.4830 C   0  0  1  0  0  0  0  0  0  0  0  0
    1.9740    0.8790   -0.5650 N   0  0  0  0  0  0  0  0  0  0  0  0
    1.9950    2.2710   -0.8970 N   0  0  0  0  0  0  0  0  0  0  0  0
    3.1320    2.6160   -0.8460 C   0  0  0  0  0  0  0  0  0  0  0  0
    4.2690    1.8500   -0.5220 C   0  0  0  0  0  0  0  0  0  0  0  0
    5.2380    1.2860   -0.2720 N   0  0  0  0  0  0  0  0  0  0  0  0
    6.3990    0.7160   -0.0020 C   0  0  0  0  0  0  0  0  0  0  0  0
    6.5760    0.0180    1.1890 C   0  0  0  0  0  0  0  0  0  0  0  0
    7.8410   -0.5830    1.4800 C   0  0  0  0  0  0  0  0  0  0  0  0
    8.8870   -0.5230    0.7460 C   0  0  0  0  0  0  0  0  0  0  0  0
    8.8230    0.2630   -0.5230 C   0  0  0  0  0  0  0  0  0  0  0  0
    7.4960    0.6400   -0.9840 C   0  0  0  0  0  0  0  0  0  0  0  0
    3.2070    0.4600   -0.3190 C   0  0  0  0  0  0  0  0  0  0  0  0
    3.8110   -0.5540   -0.0050 O   0  0  0  0  0  0  0  0  0  0  0  0
   -0.1520    0.8600    0.5880 C   0  0  0  0  0  0  0  0  0  0  0  0
   -1.3180   -0.0450    0.8800 C   0  0  0  0  0  0  0  0  0  0  0  0
   -4.5900   -0.4300    0.9720 C   0  0  0  0  0  0  0  0  0  0  0  0
  1  2  3  0
  2  3  1  0
  3  4  1  0
  4  5  1  0
  4 29  1  0
  5  6  1  0
  6  7  1  0
  7  8  1  0
  8  9  1  6
  8 29  1  0
 10  9  1  6
 10 11  1  0
 10 28  1  0
 11 12  1  0
 12 13  1  0
 13 14  1  6
 13 27  1  0
 14 15  1  0
 14 25  1  0
 15 16  2  0
 16 17  1  0
 17 18  2  3
 17 25  1  0
 18 19  1  0
 19 20  2  0
 19 24  1  0
 20 21  1  0
 21 22  2  0
 22 23  1  0
 23 24  1  0
 25 26  2  0
 27 28  1  0
M  CHG  1   9   1
M  END
