
     RDKit          3D

 29 33  0  0  0  0  0  0  0  0999 V2000
    3.2290    3.1540   -1.0770 O   0  0  0  0  0  0  0  0  0  0  0  0
    2.8600    2.0800   -0.5550 C   0  0  0  0  0  0  0  0  0  0  0  0
    1.5240    1.6490   -0.7420 N   0  0  0  0  0  0  0  0  0  0  0  0
    0.5130    2.3050   -1.4740 C   0  0  0  0  0  0  0  0  0  0  0  0
    0.6280    3.4660   -2.1820 C   0  0  0  0  0  0  0  0  0  0  0  0
   -0.4010    4.0530   -2.8940 C   0  0  0  0  0  0  0  0  0  0  0  0
   -1.6320    3.4440   -2.9020 C   0  0  0  0  0  0  0  0  0  0  0  0
   -1.8080    2.2800   -2.2110 C   0  0  0  0  0  0  0  0  0  0  0  0
   -0.7450    1.7110   -1.5000 C   0  0  0  0  0  0  0  0  0  0  0  0
   -1.0370    0.5170   -0.8110 N   0  0  0  0  0  0  0  0  0  0  0  0
   -0.9690    0.4820    0.6330 C   0  0  0  0  0  0  0  0  0  0  0  0
   -2.4120    0.2100    1.0690 C   0  0  0  0  0  0  0  0  0  0  0  0
   -2.8070   -1.1360    0.5740 C   0  0  1  0  0  0  0  0  0  0  0  0
   -4.2290   -1.0500    0.2260 N   0  0  1  0  0  0  0  0  0  0  0  0
   -4.7420   -2.2640   -0.3200 C   0  0  0  0  0  0  0  0  0  0  0  0
   -6.2310   -2.2160    0.0450 C   0  0  0  0  0  0  0  0  0  0  0  0
   -6.3790   -1.0890    1.0320 C   0  0  0  0  0  0  0  0  0  0  0  0
   -4.9500   -0.8040    1.4550 C   0  0  0  0  0  0  0  0  0  0  0  0
   -2.0380   -1.6980   -0.5590 C   0  0  0  0  0  0  0  0  0  0  0  0
   -1.4200   -0.6870   -1.4970 C   0  0  0  0  0  0  0  0  0  0  0  0
    3.8100    1.2740    0.2460 C   0  0  0  0  0  0  0  0  0  0  0  0
    5.0880    1.6030    0.4750 N   0  0  0  0  0  0  0  0  0  0  0  0
    5.6510    0.6340    1.2450 C   0  0  0  0  0  0  0  0  0  0  0  0
    4.7040   -0.2880    1.4820 N   0  0  0  0  0  0  0  0  0  0  0  0
    3.6200    0.1130    0.8800 N   0  0  0  0  0  0  0  0  0  0  0  0
    5.0650   -1.4540    2.3040 C   0  0  0  0  0  0  0  0  0  0  0  0
    6.3330   -2.0150    1.7370 C   0  0  0  0  0  0  0  0  0  0  0  0
    7.4070   -1.0020    1.5160 C   0  0  0  0  0  0  0  0  0  0  0  0
    6.9950    0.4040    1.8310 C   0  0  0  0  0  0  0  0  0  0  0  0
  1  2  2  0
  2  3  1  0
  2 21  1  0
  3  4  1  0
  4  5  2  0
  4  9  1  0
  5  6  1  0
  6  7  2  0
  7  8  1  0
  8  9  2  0
  9 10  1  0
 10 11  1  0
 10 20  1  0
 11 12  1  0
 13 12  1  6
 13 14  1  0
 13 19  1  0
 14 15  1  1
 14 18  1  0
 15 16  1  0
 16 17  1  0
 17 18  1  0
 19 20  1  0
 21 22  1  0
 21 25  2  0
 22 23  2  0
 23 24  1  0
 23 29  1  0
 24 25  1  0
 24 26  1  0
 26 27  1  0
 27 28  1  0
 28 29  1  0
M  CHG  1  14   1
M  END
