
     RDKit          3D

 29 31  0  0  0  0  0  0  0  0999 V2000
    0.4020    3.7950    0.6960 C   0  0  0  0  0  0  0  0  0  0  0  0
    0.2790    2.6020   -0.2450 C   0  0  0  0  0  0  0  0  0  0  0  0
    0.1280    1.3530    0.5250 C   0  0  0  0  0  0  0  0  0  0  0  0
    0.1150    1.3850    1.7290 O   0  0  0  0  0  0  0  0  0  0  0  0
   -0.0070    0.0670   -0.1880 C   0  0  1  0  0  0  0  0  0  0  0  0
   -1.2600    0.0830   -1.0760 C   0  0  0  0  0  0  0  0  0  0  0  0
   -2.4860    0.3020   -0.2450 C   0  0  0  0  0  0  0  0  0  0  0  0
   -2.7870    1.4670    0.1230 O   0  0  0  0  0  0  0  0  0  0  0  0
   -3.2890   -0.7870    0.1180 N   0  0  0  0  0  0  0  0  0  0  0  0
   -2.9310   -2.1300   -0.3110 C   0  0  0  0  0  0  0  0  0  0  0  0
   -4.4820   -0.5450    0.9280 C   0  0  0  0  0  0  0  0  0  0  0  0
   -5.6730   -0.2850    0.0200 C   0  0  0  0  0  0  0  0  0  0  0  0
   -6.7160   -1.0300    0.0420 C   0  0  0  0  0  0  0  0  0  0  0  0
   -7.8210   -0.6880   -0.8860 C   0  0  0  0  0  0  0  0  0  0  0  0
   -6.9730    0.5330   -1.9370 S   0  0  0  0  0  0  0  0  0  0  0  0
   -5.6340    0.7770   -0.8500 O   0  0  0  0  0  0  0  0  0  0  0  0
    1.3940   -0.1380   -1.2850 S   0  0  0  0  0  0  0  0  0  0  0  0
    2.9420   -0.3480   -0.4500 C   0  0  0  0  0  0  0  0  0  0  0  0
    4.0330   -0.4790   -1.2510 N   0  0  0  0  0  0  0  0  0  0  0  0
    5.2770   -0.6450   -0.7860 C   0  0  0  0  0  0  0  0  0  0  0  0
    5.4510   -0.6850    0.5790 C   0  0  0  0  0  0  0  0  0  0  0  0
    4.3380   -0.5510    1.3630 C   0  0  0  0  0  0  0  0  0  0  0  0
    4.5090   -0.5890    2.6220 O   0  0  0  0  0  0  0  0  0  0  0  0
    3.0960   -0.3850    0.8730 N   0  0  0  0  0  0  0  0  0  0  0  0
    6.6610   -0.8490    1.0760 C   0  0  0  0  0  0  0  0  0  0  0  0
    7.7600   -0.9810    0.2700 O   0  0  0  0  0  0  0  0  0  0  0  0
    7.6580   -0.9470   -1.1170 C   0  0  0  0  0  0  0  0  0  0  0  0
    6.2960   -0.7660   -1.6180 C   0  0  0  0  0  0  0  0  0  0  0  0
    5.9660   -0.7010   -3.3440 Cl  0  0  0  0  0  0  0  0  0  0  0  0
  1  2  1  0
  2  3  1  0
  3  4  2  0
  3  5  1  0
  5  6  1  6
  5 17  1  0
  6  7  1  0
  7  8  2  0
  7  9  1  0
  9 10  1  0
  9 11  1  0
 11 12  1  0
 12 13  2  0
 12 16  1  0
 13 14  1  0
 14 15  1  0
 15 16  1  0
 17 18  1  0
 18 19  2  0
 18 24  1  0
 19 20  1  0
 20 21  1  0
 20 28  2  0
 21 22  1  0
 21 25  2  0
 22 23  2  0
 22 24  1  0
 25 26  1  0
 26 27  1  0
 27 28  1  0
 28 29  1  0
M  END
