
     RDKit          3D

 30 32  0  0  0  0  0  0  0  0999 V2000
   -7.7490    1.4200    1.6850 C   0  0  0  0  0  0  0  0  0  0  0  0
   -7.7850    1.3590    0.1670 C   0  0  0  0  0  0  0  0  0  0  0  0
   -7.7400    0.0180   -0.3460 N   0  0  0  0  0  0  0  0  0  0  0  0
   -6.6240   -0.8040   -0.0610 C   0  0  0  0  0  0  0  0  0  0  0  0
   -5.5900   -0.3690    0.6750 N   0  0  0  0  0  0  0  0  0  0  0  0
   -4.4960   -1.0520    1.0000 C   0  0  0  0  0  0  0  0  0  0  0  0
   -3.4390   -0.4940    1.7820 N   0  0  0  0  0  0  0  0  0  0  0  0
   -3.5250   -0.5440    3.1140 O   0  0  0  0  0  0  0  0  0  0  0  0
   -2.3540    0.0740    1.1230 N   0  0  0  0  0  0  0  0  0  0  0  0
   -1.1510   -0.6070    0.8680 C   0  0  0  0  0  0  0  0  0  0  0  0
   -1.0790   -1.8100    1.2770 O   0  0  0  0  0  0  0  0  0  0  0  0
   -0.0320    0.0210    0.1700 C   0  0  0  0  0  0  0  0  0  0  0  0
    0.2200    1.2130   -0.3690 C   0  0  0  0  0  0  0  0  0  0  0  0
    1.3990    1.3640   -0.9220 N   0  0  0  0  0  0  0  0  0  0  0  0
    2.2840    0.6360   -1.0310 C   0  0  0  0  0  0  0  0  0  0  0  0
    3.6300    0.4520   -1.5430 N   0  0  0  0  0  0  0  0  0  0  0  0
    4.5490    0.9400   -0.5740 C   0  0  1  0  0  0  0  0  0  0  0  0
    3.9920    0.9070    0.8240 C   0  0  0  0  0  0  0  0  0  0  0  0
    5.8460    0.1550   -0.5470 C   0  0  2  0  0  0  0  0  0  0  0  0
    6.7430    0.7550    0.5070 C   0  0  0  0  0  0  0  0  0  0  0  0
    8.0120   -0.1040    0.4780 C   0  0  0  0  0  0  0  0  0  0  0  0
    8.2350   -0.2850   -1.2840 S   0  0  2  0  0  0  0  0  0  0  0  0
    8.5230   -1.7110   -1.6470 O   0  0  0  0  0  0  0  0  0  0  0  0
    9.2810    0.6640   -1.7400 O   0  0  0  0  0  0  0  0  0  0  0  0
    6.5990    0.2080   -1.8530 C   0  0  0  0  0  0  0  0  0  0  0  0
    1.5360   -0.9050   -0.1550 S   0  0  0  0  0  0  0  0  0  0  0  0
   -4.3970   -2.3700    0.5320 C   0  0  0  0  0  0  0  0  0  0  0  0
   -5.4180   -2.8850   -0.2280 C   0  0  0  0  0  0  0  0  0  0  0  0
   -6.5430   -2.1100   -0.5340 C   0  0  0  0  0  0  0  0  0  0  0  0
   -7.5430   -2.6720   -1.3020 O   0  0  0  0  0  0  0  0  0  0  0  0
  1  2  1  0
  2  3  1  0
  3  4  1  0
  4  5  2  0
  4 29  1  0
  5  6  1  0
  6  7  1  0
  6 27  2  0
  7  8  1  0
  7  9  1  0
  9 10  1  0
 10 11  2  0
 10 12  1  0
 12 13  2  0
 12 26  1  0
 13 14  1  0
 14 15  2  0
 15 16  1  0
 15 26  1  0
 16 17  1  0
 17 18  1  1
 17 19  1  0
 19 20  1  1
 19 25  1  0
 20 21  1  0
 22 21  1  1
 22 23  2  0
 22 24  2  0
 22 25  1  0
 27 28  1  0
 28 29  2  0
 29 30  1  0
M  CHG  2   8  -1  16   1
M  END
