
     RDKit          3D

 31 34  0  0  0  0  0  0  0  0999 V2000
   -2.5670    0.5630   -1.1800 C   0  0  0  0  0  0  0  0  0  0  0  0
   -2.2630    0.2430    0.2430 C   0  0  1  0  0  0  0  0  0  0  0  0
   -3.5160   -0.0320    0.9850 C   0  0  0  0  0  0  0  0  0  0  0  0
   -3.5820   -1.1220    1.6540 O   0  0  0  0  0  0  0  0  0  0  0  0
   -4.6390    0.8150    1.0090 N   0  0  0  0  0  0  0  0  0  0  0  0
   -4.7010    2.0630    0.2800 C   0  0  0  0  0  0  0  0  0  0  0  0
   -5.9250    2.8090    0.8240 C   0  0  0  0  0  0  0  0  0  0  0  0
   -5.8650    2.8160    2.2200 O   0  0  0  0  0  0  0  0  0  0  0  0
   -6.1080    1.5840    2.7710 C   0  0  0  0  0  0  0  0  0  0  0  0
   -5.7930    0.4600    1.7970 C   0  0  0  0  0  0  0  0  0  0  0  0
   -1.3160   -0.8320    0.4040 N   0  0  0  0  0  0  0  0  0  0  0  0
   -1.5430   -2.1810   -0.1360 C   0  0  0  0  0  0  0  0  0  0  0  0
   -0.4580   -2.9950    0.4890 C   0  0  0  0  0  0  0  0  0  0  0  0
    0.6920   -1.9490    0.5590 C   0  0  2  0  0  0  0  0  0  0  0  0
    1.6820   -2.5180    1.3820 N   0  0  0  0  0  0  0  0  0  0  0  0
    3.1480   -2.9820    0.7040 S   0  0  2  0  0  0  0  0  0  0  0  0
    3.0040   -3.9980   -0.4020 O   0  0  0  0  0  0  0  0  0  0  0  0
    4.0420   -3.4990    1.7990 O   0  0  0  0  0  0  0  0  0  0  0  0
    3.9530   -1.5750    0.0250 C   0  0  0  0  0  0  0  0  0  0  0  0
    3.5700   -0.2550   -0.0420 C   0  0  0  0  0  0  0  0  0  0  0  0
    4.4130    0.6080   -0.6460 C   0  0  0  0  0  0  0  0  0  0  0  0
    5.5620    0.1570   -1.1450 C   0  0  0  0  0  0  0  0  0  0  0  0
    6.6350    0.8680   -1.8490 C   0  0  0  0  0  0  0  0  0  0  0  0
    7.8000    0.4470   -2.3380 C   0  0  0  0  0  0  0  0  0  0  0  0
    8.6100    1.3290   -2.9510 C   0  0  0  0  0  0  0  0  0  0  0  0
    8.1980    2.6290   -3.0440 C   0  0  0  0  0  0  0  0  0  0  0  0
    8.8930    4.0830   -3.7320 Cl  0  0  0  0  0  0  0  0  0  0  0  0
    6.5700    2.5110   -2.1970 S   0  0  0  0  0  0  0  0  0  0  0  0
    5.5270   -1.5500   -0.7860 S   0  0  0  0  0  0  0  0  0  0  0  0
   -0.0580   -0.8070    1.0570 C   0  0  0  0  0  0  0  0  0  0  0  0
    0.3000    0.0390    1.8870 O   0  0  0  0  0  0  0  0  0  0  0  0
  2  1  1  6
  2  3  1  0
  2 11  1  0
  3  4  2  0
  3  5  1  0
  5  6  1  0
  5 10  1  0
  6  7  1  0
  7  8  1  0
  8  9  1  0
  9 10  1  0
 11 12  1  0
 11 30  1  0
 12 13  1  0
 13 14  1  0
 14 15  1  1
 14 30  1  0
 16 15  1  1
 16 17  2  0
 16 18  2  0
 16 19  1  0
 19 20  2  0
 19 29  1  0
 20 21  1  0
 21 22  2  0
 22 23  1  0
 22 29  1  0
 23 24  2  0
 23 28  1  0
 24 25  1  0
 25 26  2  0
 26 27  1  0
 26 28  1  0
 30 31  2  0
M  END
