
     RDKit          3D

 29 31  0  0  0  0  0  0  0  0999 V2000
    6.9920    0.8710    0.8330 C   0  0  0  0  0  0  0  0  0  0  0  0
    6.9310    0.7510   -0.6740 C   0  0  0  0  0  0  0  0  0  0  0  0
    5.5490    1.0070   -1.1760 C   0  0  0  0  0  0  0  0  0  0  0  0
    5.3520    0.9400   -2.4080 O   0  0  0  0  0  0  0  0  0  0  0  0
    4.4940    1.3090   -0.3620 O   0  0  0  0  0  0  0  0  0  0  0  0
    3.1740    1.5600   -0.7560 C   0  0  0  0  0  0  0  0  0  0  0  0
    2.4950    0.4380   -1.4700 C   0  0  0  0  0  0  0  0  0  0  0  0
    2.3460   -0.8320   -0.7320 C   0  0  0  0  0  0  0  0  0  0  0  0
    1.5660   -0.7670    0.5000 N   0  0  0  0  0  0  0  0  0  0  0  0
    2.2030   -0.5070    1.7490 C   0  0  0  0  0  0  0  0  0  0  0  0
    3.4300   -0.4660    1.8930 O   0  0  0  0  0  0  0  0  0  0  0  0
    1.1770   -0.2160    3.2360 S   0  0  0  0  0  0  0  0  0  0  0  0
   -0.2790   -1.0960    2.7300 C   0  0  1  0  0  0  0  0  0  0  0  0
   -1.7350   -1.0430    3.6850 S   0  0  0  0  0  0  0  0  0  0  0  0
   -2.7310   -1.5610    2.2080 C   0  0  0  0  0  0  0  0  0  0  0  0
   -2.1120   -0.6800    1.2450 N   0  0  0  0  0  0  0  0  0  0  0  0
   -2.8520   -0.0820    0.1760 C   0  0  0  0  0  0  0  0  0  0  0  0
   -2.2820    0.7000   -0.6620 O   0  0  0  0  0  0  0  0  0  0  0  0
   -4.2300   -0.2920   -0.0440 N   0  0  0  0  0  0  0  0  0  0  0  0
   -5.0090    0.2690   -1.0770 C   0  0  0  0  0  0  0  0  0  0  0  0
   -4.6960    1.0890   -2.0590 C   0  0  0  0  0  0  0  0  0  0  0  0
   -5.8720    1.3830   -2.8790 C   0  0  0  0  0  0  0  0  0  0  0  0
   -6.0560    2.3930   -4.2770 Cl  0  0  0  0  0  0  0  0  0  0  0  0
   -6.8370    0.6790   -2.3060 C   0  0  0  0  0  0  0  0  0  0  0  0
   -6.4370    0.0160   -1.2580 C   0  0  0  0  0  0  0  0  0  0  0  0
   -7.3520   -0.8280   -0.4500 C   0  0  0  0  0  0  0  0  0  0  0  0
   -0.7300   -0.4520    1.4290 C   0  0  2  0  0  0  0  0  0  0  0  0
    0.1620   -0.9730    0.3840 C   0  0  0  0  0  0  0  0  0  0  0  0
   -0.2660   -1.5840   -0.5930 O   0  0  0  0  0  0  0  0  0  0  0  0
  1  2  1  0
  2  3  1  0
  3  4  2  0
  3  5  1  0
  5  6  1  0
  6  7  1  0
  7  8  1  0
  8  9  1  0
  9 10  1  0
  9 28  1  0
 10 11  2  0
 10 12  1  0
 13 12  1  1
 13 14  1  0
 13 27  1  0
 14 15  1  0
 15 16  1  0
 16 17  1  0
 27 16  1  6
 17 18  2  0
 17 19  1  0
 19 20  1  0
 20 21  2  0
 20 25  1  0
 21 22  1  0
 22 23  1  0
 22 24  2  0
 24 25  2  0
 25 26  1  0
 27 28  1  0
 28 29  2  0
M  END
