
     RDKit          3D

 30 31  0  0  0  0  0  0  0  0999 V2000
    6.4780    1.9280    0.3580 O   0  0  0  0  0  0  0  0  0  0  0  0
    6.9770    1.7080   -0.7900 C   0  0  0  0  0  0  0  0  0  0  0  0
    7.9860    2.5210   -1.2510 O   0  0  0  0  0  0  0  0  0  0  0  0
    6.4730    0.6310   -1.5520 N   0  0  0  0  0  0  0  0  0  0  0  0
    5.4220   -0.2010   -1.0500 C   0  0  0  0  0  0  0  0  0  0  0  0
    4.9780    0.0730    0.0870 O   0  0  0  0  0  0  0  0  0  0  0  0
    4.8810   -1.3350   -1.8360 C   0  0  0  0  0  0  0  0  0  0  0  0
    3.8620   -1.9530   -1.0700 O   0  0  0  0  0  0  0  0  0  0  0  0
    2.7290   -1.3030   -0.6480 C   0  0  0  0  0  0  0  0  0  0  0  0
    2.5470   -0.1050   -0.9300 O   0  0  0  0  0  0  0  0  0  0  0  0
    1.7230   -1.9590    0.1230 N   0  0  0  0  0  0  0  0  0  0  0  0
    0.5340   -1.3010    0.5750 C   0  0  2  0  0  0  0  0  0  0  0  0
   -0.5160   -2.6110    1.3930 P   0  0  0  0  0  0  0  0  0  0  0  0
    0.3770   -3.2910    2.7120 O   0  0  0  0  0  0  0  0  0  0  0  0
   -0.8000   -3.8570    0.2130 O   0  0  0  0  0  0  0  0  0  0  0  0
   -0.3250   -0.7550   -0.5350 C   0  0  0  0  0  0  0  0  0  0  0  0
   -1.5360   -0.2260    0.1240 N   0  0  0  0  0  0  0  0  0  0  0  0
   -2.8540   -0.6490   -0.2400 C   0  0  0  0  0  0  0  0  0  0  0  0
   -3.8550    0.3820    0.2130 C   0  0  1  0  0  0  0  0  0  0  0  0
   -5.1240   -0.1620    0.3890 O   0  0  0  0  0  0  0  0  0  0  0  0
   -6.2570    0.5600   -0.7070 P   0  0  0  0  0  0  0  0  0  0  0  0
   -7.7990    0.6190    0.1100 O   0  0  0  0  0  0  0  0  0  0  0  0
   -5.6040    2.6270   -1.1180 P   0  0  0  0  0  0  0  0  0  0  0  0
   -6.9510    3.4970   -1.7940 O   0  0  0  0  0  0  0  0  0  0  0  0
   -5.0680    3.4080    0.3450 O   0  0  0  0  0  0  0  0  0  0  0  0
   -3.4770    0.9880    1.4350 O   0  0  0  0  0  0  0  0  0  0  0  0
   -2.1920    1.3010    1.7550 N   0  0  0  0  0  0  0  0  0  0  0  0
   -1.2350    0.7300    1.1380 C   0  0  0  0  0  0  0  0  0  0  0  0
    0.2150    0.9670    1.3740 C   0  0  0  0  0  0  0  0  0  0  0  0
    0.8270   -0.3210    1.6050 N   0  0  0  0  0  0  0  0  0  0  0  0
  1  2  2  0
  2  3  1  0
  2  4  1  0
  4  5  1  0
  5  6  2  0
  5  7  1  0
  7  8  1  0
  8  9  1  0
  9 10  2  0
  9 11  1  0
 12 11  1  6
 12 13  1  0
 12 16  1  0
 12 30  1  0
 13 14  1  0
 13 15  1  0
 16 17  1  0
 17 18  1  0
 17 28  1  0
 18 19  1  0
 19 20  1  1
 19 26  1  0
 20 21  1  0
 21 22  1  0
 21 23  1  0
 23 24  1  0
 23 25  1  0
 26 27  1  0
 27 28  2  0
 28 29  1  0
 29 30  1  0
M  END
