
     RDKit          3D

 31 33  0  0  0  0  0  0  0  0999 V2000
    2.4370   -1.4850   -1.1900 O   0  0  0  0  0  0  0  0  0  0  0  0
    1.2960   -1.0440   -0.7690 C   0  0  0  0  0  0  0  0  0  0  0  0
    0.1210   -1.7970   -1.1210 C   0  0  0  0  0  0  0  0  0  0  0  0
   -1.1620   -1.4770   -0.6130 N   0  0  0  0  0  0  0  0  0  0  0  0
   -2.3670   -1.9130   -1.3730 C   0  0  0  0  0  0  0  0  0  0  0  0
   -3.5080   -1.8930   -0.4250 C   0  0  1  0  0  0  0  0  0  0  0  0
   -3.2020   -3.3020    0.7870 P   0  0  0  0  0  0  0  0  0  0  0  0
   -2.5780   -4.6250   -0.1860 O   0  0  0  0  0  0  0  0  0  0  0  0
   -4.6810   -3.7900    1.5480 O   0  0  0  0  0  0  0  0  0  0  0  0
   -3.7870   -0.6890    0.2680 N   0  0  0  0  0  0  0  0  0  0  0  0
   -2.6250    0.0950    0.6530 C   0  0  1  0  0  0  0  0  0  0  0  0
   -2.4470    1.5090   -0.4980 P   0  0  0  0  0  0  0  0  0  0  0  0
   -3.7100    1.5870   -1.6780 O   0  0  0  0  0  0  0  0  0  0  0  0
   -2.1080    3.4120    0.5220 P   0  0  0  0  0  0  0  0  0  0  0  0
   -3.4860    4.4560    0.3510 O   0  0  0  0  0  0  0  0  0  0  0  0
   -0.7580    4.2020   -0.2300 O   0  0  0  0  0  0  0  0  0  0  0  0
   -2.6960    0.4260    1.9850 O   0  0  0  0  0  0  0  0  0  0  0  0
   -1.7060   -0.1540    2.6490 O   0  0  0  0  0  0  0  0  0  0  0  0
   -1.0220   -0.9870    1.8050 N   0  0  0  0  0  0  0  0  0  0  0  0
   -1.4930   -0.8660    0.6130 C   0  0  0  0  0  0  0  0  0  0  0  0
    1.2640    0.1450   -0.0010 N   0  0  0  0  0  0  0  0  0  0  0  0
    2.5200    0.7910    0.2730 C   0  0  0  0  0  0  0  0  0  0  0  0
    3.7090    0.3660   -0.1250 N   0  0  0  0  0  0  0  0  0  0  0  0
    4.6080    1.2570    0.3430 C   0  0  0  0  0  0  0  0  0  0  0  0
    6.0410    1.1860    0.1430 C   0  0  0  0  0  0  0  0  0  0  0  0
    6.5450    0.2470   -0.5050 O   0  0  0  0  0  0  0  0  0  0  0  0
    6.8560    2.1680    0.6750 O   0  0  0  0  0  0  0  0  0  0  0  0
    8.1820    2.0650    0.4660 O   0  0  0  0  0  0  0  0  0  0  0  0
    8.4880    0.8280    0.0710 O   0  0  0  0  0  0  0  0  0  0  0  0
    3.9110    2.2270    1.0340 C   0  0  0  0  0  0  0  0  0  0  0  0
    2.6490    1.9150    0.9730 O   0  0  0  0  0  0  0  0  0  0  0  0
  1  2  2  0
  2  3  1  0
  2 21  1  0
  3  4  1  0
  4  5  1  0
  4 20  1  0
  5  6  1  0
  6  7  1  1
  6 10  1  0
  7  8  1  0
  7  9  1  0
 10 11  1  0
 11 12  1  6
 11 17  1  0
 11 20  1  0
 12 13  1  0
 12 14  1  0
 14 15  1  0
 14 16  1  0
 17 18  1  0
 18 19  1  0
 19 20  2  0
 21 22  1  0
 22 23  2  0
 22 31  1  0
 23 24  1  0
 24 25  1  0
 24 30  2  0
 25 26  2  0
 25 27  1  0
 27 28  1  0
 28 29  1  0
 30 31  1  0
M  END
