
     RDKit          3D

 12 12  0  0  0  0  0  0  0  0999 V2000
    2.3670    1.1860   -0.2360 C   0  0  0  0  0  0  0  0  0  0  0  0
    2.2940    0.0320    0.7310 C   0  0  0  0  0  0  0  0  0  0  0  0
    1.0400   -0.2860    1.1680 O   0  0  0  0  0  0  0  0  0  0  0  0
    0.1240   -0.6470    0.2280 C   0  0  1  0  0  0  0  0  0  0  0  0
   -0.5060   -2.0050    0.4900 C   0  0  1  0  0  0  0  0  0  0  0  0
   -0.2930   -2.4020    1.8200 O   0  0  0  0  0  0  0  0  0  0  0  0
   -1.8550   -1.8900    0.2830 O   0  0  0  0  0  0  0  0  0  0  0  0
   -2.1370   -0.6740   -0.2960 C   0  0  0  0  0  0  0  0  0  0  0  0
   -1.0990    0.2300    0.3420 C   0  0  1  0  0  0  0  0  0  0  0  0
   -1.4590    0.3960    1.6790 O   0  0  0  0  0  0  0  0  0  0  0  0
   -0.9730    1.5450   -0.3420 C   0  0  0  0  0  0  0  0  0  0  0  0
   -2.2120    2.1810   -0.2760 O   0  0  0  0  0  0  0  0  0  0  0  0
  1  2  1  0
  2  3  1  0
  4  3  1  1
  4  5  1  0
  4  9  1  0
  5  6  1  1
  5  7  1  0
  7  8  1  0
  8  9  1  0
  9 10  1  1
  9 11  1  0
 11 12  1  0
M  END
