
     RDKit          3D

 12 12  0  0  0  0  0  0  0  0999 V2000
   -0.8910    2.4240   -0.0530 C   0  0  0  0  0  0  0  0  0  0  0  0
   -0.7450    0.9850    0.4640 C   0  0  2  0  0  0  0  0  0  0  0  0
    0.5700    0.7850    0.7420 O   0  0  0  0  0  0  0  0  0  0  0  0
    1.2780    0.0010   -0.1160 C   0  0  1  0  0  0  0  0  0  0  0  0
    1.4760    0.5670   -1.3740 O   0  0  0  0  0  0  0  0  0  0  0  0
    2.6230   -0.3250    0.5050 C   0  0  0  0  0  0  0  0  0  0  0  0
    3.3620   -1.1210   -0.3480 O   0  0  0  0  0  0  0  0  0  0  0  0
    0.4880   -1.2900   -0.3330 C   0  0  0  0  0  0  0  0  0  0  0  0
   -0.6360   -0.9050   -1.0410 O   0  0  0  0  0  0  0  0  0  0  0  0
   -1.4170    0.0250   -0.4220 C   0  0  1  0  0  0  0  0  0  0  0  0
   -2.5390   -0.7420    0.2940 C   0  0  0  0  0  0  0  0  0  0  0  0
   -1.9890   -1.6270    1.2330 O   0  0  0  0  0  0  0  0  0  0  0  0
  2  1  1  6
  2  3  1  0
  2 10  1  0
  3  4  1  0
  4  5  1  6
  4  6  1  0
  4  8  1  0
  6  7  1  0
  8  9  1  0
  9 10  1  0
 10 11  1  1
 11 12  1  0
M  END
