
     RDKit          3D

 26 28  0  0  0  0  0  0  0  0999 V2000
   -2.6570    0.3410   -2.1010 C   0  0  0  0  0  0  0  0  0  0  0  0
   -2.7870   -1.0630   -1.6230 C   0  0  0  0  0  0  0  0  0  0  0  0
   -3.2890   -1.9060   -2.4130 O   0  0  0  0  0  0  0  0  0  0  0  0
   -2.3310   -1.4140   -0.2890 C   0  0  0  0  0  0  0  0  0  0  0  0
   -3.0460   -1.4620    0.8680 C   0  0  0  0  0  0  0  0  0  0  0  0
   -4.4380   -1.2250    1.1260 C   0  0  0  0  0  0  0  0  0  0  0  0
   -4.8510   -1.4060    2.3250 O   0  0  0  0  0  0  0  0  0  0  0  0
   -5.4350   -0.8000    0.1600 C   0  0  2  0  0  0  0  0  0  0  0  0
   -5.3160    0.6820   -0.1860 C   0  0  0  0  0  0  0  0  0  0  0  0
   -6.4080    1.3070    0.6340 C   0  0  0  0  0  0  0  0  0  0  0  0
   -7.0010    0.2220    1.4720 C   0  0  0  0  0  0  0  0  0  0  0  0
   -6.7840   -0.9580    0.6900 N   0  0  0  0  0  0  0  0  0  0  0  0
   -2.0910   -1.8370    1.8400 C   0  0  0  0  0  0  0  0  0  0  0  0
   -0.9060   -1.9920    1.2600 N   0  0  0  0  0  0  0  0  0  0  0  0
   -0.9770   -1.7480   -0.0490 C   0  0  0  0  0  0  0  0  0  0  0  0
    0.0060   -1.7850   -1.0580 N   0  0  0  0  0  0  0  0  0  0  0  0
    0.9960   -0.9910   -1.0320 C   0  0  0  0  0  0  0  0  0  0  0  0
    1.1980    0.0190    0.0310 C   0  0  0  0  0  0  0  0  0  0  0  0
    2.2340    0.9220   -0.3910 N   0  0  0  0  0  0  0  0  0  0  0  0
    3.4360    0.2850   -0.8390 C   0  0  1  0  0  0  0  0  0  0  0  0
    4.5580    1.3240   -0.7060 C   0  0  0  0  0  0  0  0  0  0  0  0
    5.8480    0.6030   -1.0330 C   0  0  0  0  0  0  0  0  0  0  0  0
    6.2050   -0.3190    0.0930 C   0  0  1  0  0  0  0  0  0  0  0  0
    7.2410    0.2710    1.0190 C   0  0  0  0  0  0  0  0  0  0  0  0
    4.9590   -0.6250    0.9140 C   0  0  0  0  0  0  0  0  0  0  0  0
    3.8440   -0.9150   -0.0620 C   0  0  0  0  0  0  0  0  0  0  0  0
  1  2  1  0
  2  3  2  0
  2  4  1  0
  4  5  1  0
  4 15  2  0
  5  6  1  0
  5 13  2  0
  6  7  2  0
  8  6  1  1
  8  9  1  0
  8 12  1  0
  9 10  1  0
 10 11  1  0
 11 12  1  0
 13 14  1  0
 14 15  1  0
 15 16  1  0
 16 17  2  3
 17 18  1  0
 18 19  1  0
 20 19  1  1
 20 21  1  0
 20 26  1  0
 21 22  1  0
 22 23  1  0
 23 24  1  1
 23 25  1  0
 25 26  1  0
M  CHG  1  19   1
M  END
