
     RDKit          3D

 12 12  0  0  0  0  0  0  0  0999 V2000
    3.4610   -0.0710    0.3320 C   0  0  0  0  0  0  0  0  0  0  0  0
    2.1190   -0.2410    0.6680 O   0  0  0  0  0  0  0  0  0  0  0  0
    1.3680   -0.6320   -0.4340 C   0  0  1  0  0  0  0  0  0  0  0  0
    0.8100   -1.8830   -0.2580 O   0  0  0  0  0  0  0  0  0  0  0  0
    0.3120    0.4340   -0.6640 C   0  0  1  0  0  0  0  0  0  0  0  0
   -0.4930   -0.0170   -1.8730 C   0  0  0  0  0  0  0  0  0  0  0  0
   -1.0250   -1.2030   -1.3410 O   0  0  0  0  0  0  0  0  0  0  0  0
   -1.7150   -0.6750   -0.2250 C   0  0  1  0  0  0  0  0  0  0  0  0
   -1.9980   -1.6790    0.7080 O   0  0  0  0  0  0  0  0  0  0  0  0
   -0.7790    0.3460    0.3830 C   0  0  2  0  0  0  0  0  0  0  0  0
   -1.5050    1.6900    0.4120 C   0  0  0  0  0  0  0  0  0  0  0  0
   -2.5260    1.6570    1.3690 O   0  0  0  0  0  0  0  0  0  0  0  0
  1  2  1  0
  2  3  1  0
  3  4  1  1
  3  5  1  0
  5  6  1  6
  5 10  1  0
  6  7  1  0
  7  8  1  0
  8  9  1  1
  8 10  1  0
 10 11  1  6
 11 12  1  0
M  END
