
     RDKit          3D

 12 13  0  0  0  0  0  0  0  0999 V2000
    3.1380   -0.7330   -0.3770 O   0  0  0  0  0  0  0  0  0  0  0  0
    1.9380   -0.9020    0.3100 C   0  0  0  0  0  0  0  0  0  0  0  0
    1.0790    0.3270    0.1530 C   0  0  1  0  0  0  0  0  0  0  0  0
    1.7380    1.4480    0.6650 O   0  0  0  0  0  0  0  0  0  0  0  0
    0.7300    0.5020   -1.1840 O   0  0  0  0  0  0  0  0  0  0  0  0
   -0.3050   -0.3970   -1.4240 C   0  0  0  0  0  0  0  0  0  0  0  0
   -1.0730   -0.5540   -0.1570 C   0  0  2  0  0  0  0  0  0  0  0  0
   -1.2980   -1.8580    0.2140 O   0  0  0  0  0  0  0  0  0  0  0  0
   -2.3740    0.2140   -0.1400 C   0  0  0  0  0  0  0  0  0  0  0  0
   -1.9990    1.5240    0.0200 O   0  0  0  0  0  0  0  0  0  0  0  0
   -0.8910    1.5870    0.8200 C   0  0  0  0  0  0  0  0  0  0  0  0
   -0.2420    0.2230    0.8380 C   0  0  2  0  0  0  0  0  0  0  0  0
  1  2  1  0
  2  3  1  0
  3  4  1  1
  3  5  1  0
  3 12  1  0
  5  6  1  0
  6  7  1  0
  7  8  1  1
  7  9  1  0
  7 12  1  0
  9 10  1  0
 10 11  1  0
 12 11  1  6
M  END
