
     RDKit          3D

 12 12  0  0  0  0  0  0  0  0999 V2000
    3.1860   -1.2240    0.0170 C   0  0  0  0  0  0  0  0  0  0  0  0
    1.9680   -0.4760    0.5030 C   0  0  0  0  0  0  0  0  0  0  0  0
    1.1050   -0.1500   -0.5450 O   0  0  0  0  0  0  0  0  0  0  0  0
    0.0350    0.5220   -0.0260 C   0  0  1  0  0  0  0  0  0  0  0  0
   -0.1900    1.8830   -0.6660 C   0  0  1  0  0  0  0  0  0  0  0  0
    0.3380    1.7750   -1.9740 O   0  0  0  0  0  0  0  0  0  0  0  0
   -1.5390    2.0960   -0.7270 O   0  0  0  0  0  0  0  0  0  0  0  0
   -2.1950    1.0960   -0.0600 C   0  0  0  0  0  0  0  0  0  0  0  0
   -1.3010   -0.1200   -0.3390 C   0  0  1  0  0  0  0  0  0  0  0  0
   -1.4620   -0.4320   -1.6650 O   0  0  0  0  0  0  0  0  0  0  0  0
   -1.6550   -1.2170    0.6070 C   0  0  0  0  0  0  0  0  0  0  0  0
   -1.4560   -0.7980    1.9050 O   0  0  0  0  0  0  0  0  0  0  0  0
  1  2  1  0
  2  3  1  0
  4  3  1  6
  4  5  1  0
  4  9  1  0
  5  6  1  6
  5  7  1  0
  7  8  1  0
  8  9  1  0
  9 10  1  6
  9 11  1  0
 11 12  1  0
M  END
