
     RDKit          3D

 12 12  0  0  0  0  0  0  0  0999 V2000
   -0.4120   -2.3420   -0.1710 C   0  0  0  0  0  0  0  0  0  0  0  0
   -0.3590   -0.9590    0.4940 C   0  0  1  0  0  0  0  0  0  0  0  0
    0.9320   -0.7200    0.8330 O   0  0  0  0  0  0  0  0  0  0  0  0
    1.4110    0.5240    0.8080 C   0  0  1  0  0  0  0  0  0  0  0  0
    2.9350    0.4340    0.5910 C   0  0  0  0  0  0  0  0  0  0  0  0
    3.1670   -0.2230   -0.6400 O   0  0  0  0  0  0  0  0  0  0  0  0
    0.9580    1.4230   -0.0830 O   0  0  0  0  0  0  0  0  0  0  0  0
   -0.1620    1.1930   -0.7780 C   0  0  0  0  0  0  0  0  0  0  0  0
   -1.0400    0.0850   -0.3110 C   0  0  1  0  0  0  0  0  0  0  0  0
   -1.5640   -0.5510   -1.4560 O   0  0  0  0  0  0  0  0  0  0  0  0
   -2.2640    0.6510    0.4200 C   0  0  0  0  0  0  0  0  0  0  0  0
   -1.9220    1.3110    1.5740 O   0  0  0  0  0  0  0  0  0  0  0  0
  2  1  1  6
  2  3  1  0
  2  9  1  0
  3  4  1  0
  4  5  1  6
  4  7  1  0
  5  6  1  0
  7  8  1  0
  8  9  1  0
  9 10  1  6
  9 11  1  0
 11 12  1  0
M  END
