
     RDKit          3D

 12 12  0  0  0  0  0  0  0  0999 V2000
    2.9770    0.4430    0.4590 C   0  0  0  0  0  0  0  0  0  0  0  0
    1.8400    0.6950   -0.3050 O   0  0  0  0  0  0  0  0  0  0  0  0
    1.3650   -0.5010   -0.7700 C   0  0  2  0  0  0  0  0  0  0  0  0
    1.4980   -0.4620   -2.1790 O   0  0  0  0  0  0  0  0  0  0  0  0
   -0.0820   -0.7520   -0.4980 C   0  0  2  0  0  0  0  0  0  0  0  0
   -0.9380    0.3240   -1.1480 C   0  0  0  0  0  0  0  0  0  0  0  0
   -1.5400    1.2470   -0.1160 C   0  0  1  0  0  0  0  0  0  0  0  0
   -2.3830    2.1290   -0.8240 O   0  0  0  0  0  0  0  0  0  0  0  0
   -2.2630    0.6130    0.8620 O   0  0  0  0  0  0  0  0  0  0  0  0
   -1.9610   -0.7270    1.0320 C   0  0  0  0  0  0  0  0  0  0  0  0
   -0.4340   -0.8670    0.9540 C   0  0  2  0  0  0  0  0  0  0  0  0
    0.1040    0.1330    1.7430 O   0  0  0  0  0  0  0  0  0  0  0  0
  1  2  1  0
  2  3  1  0
  3  4  1  6
  3  5  1  0
  5  6  1  1
  5 11  1  0
  6  7  1  0
  7  8  1  6
  7  9  1  0
  9 10  1  0
 10 11  1  0
 11 12  1  1
M  END
