
     RDKit          3D

 12 12  0  0  0  0  0  0  0  0999 V2000
    3.1650    0.6360   -0.6990 C   0  0  0  0  0  0  0  0  0  0  0  0
    2.4560   -0.0470    0.2870 O   0  0  0  0  0  0  0  0  0  0  0  0
    1.1030   -0.0020    0.1130 C   0  0  2  0  0  0  0  0  0  0  0  0
    0.4100    0.4840    1.2080 O   0  0  0  0  0  0  0  0  0  0  0  0
   -0.9030    0.7360    0.9290 C   0  0  1  0  0  0  0  0  0  0  0  0
   -1.0670    1.9890    0.0870 C   0  0  0  0  0  0  0  0  0  0  0  0
   -1.6530   -0.4200    0.3340 C   0  0  1  0  0  0  0  0  0  0  0  0
   -2.6700    0.1070   -0.4680 O   0  0  0  0  0  0  0  0  0  0  0  0
   -0.8350   -1.3390   -0.4940 C   0  0  1  0  0  0  0  0  0  0  0  0
   -0.9280   -1.0240   -1.8700 O   0  0  0  0  0  0  0  0  0  0  0  0
    0.6040   -1.4300   -0.1070 C   0  0  2  0  0  0  0  0  0  0  0  0
    0.8020   -2.2060    1.0210 O   0  0  0  0  0  0  0  0  0  0  0  0
  1  2  1  0
  3  2  1  1
  3  4  1  0
  3 11  1  0
  4  5  1  0
  5  6  1  6
  5  7  1  0
  7  8  1  6
  7  9  1  0
  9 10  1  6
  9 11  1  0
 11 12  1  1
M  END
