
     RDKit          3D

 12 12  0  0  0  0  0  0  0  0999 V2000
   -2.0750   -1.5890   -0.1640 C   0  0  0  0  0  0  0  0  0  0  0  0
   -1.4040   -0.3650    0.3850 C   0  0  2  0  0  0  0  0  0  0  0  0
   -1.8610   -0.1810    1.6900 O   0  0  0  0  0  0  0  0  0  0  0  0
   -1.8430    0.8490   -0.4100 C   0  0  0  0  0  0  0  0  0  0  0  0
   -1.3150    2.0240    0.1080 O   0  0  0  0  0  0  0  0  0  0  0  0
    0.0930   -0.4930    0.4400 C   0  0  1  0  0  0  0  0  0  0  0  0
    0.7010   -0.7860   -0.9120 C   0  0  0  0  0  0  0  0  0  0  0  0
    2.0720   -1.0350   -0.6750 O   0  0  0  0  0  0  0  0  0  0  0  0
    2.6880    0.1510   -0.3520 C   0  0  2  0  0  0  0  0  0  0  0  0
    3.7030   -0.0070    0.6080 O   0  0  0  0  0  0  0  0  0  0  0  0
    1.6780    1.1660    0.1340 C   0  0  0  0  0  0  0  0  0  0  0  0
    0.7200    0.6040    0.9640 O   0  0  0  0  0  0  0  0  0  0  0  0
  2  1  1  6
  2  3  1  0
  2  4  1  0
  2  6  1  0
  4  5  1  0
  6  7  1  6
  6 12  1  0
  7  8  1  0
  8  9  1  0
  9 10  1  1
  9 11  1  0
 11 12  1  0
M  END
