
     RDKit          3D

 30 33  0  0  0  0  0  0  0  0999 V2000
   -3.1740   -1.2040   -2.7960 C   0  0  0  0  0  0  0  0  0  0  0  0
   -3.5490   -0.4050   -1.6190 C   0  0  0  0  0  0  0  0  0  0  0  0
   -3.1110   -0.6830   -0.3590 C   0  0  0  0  0  0  0  0  0  0  0  0
   -2.2520   -1.7990   -0.1800 N   0  0  0  0  0  0  0  0  0  0  0  0
   -1.0180   -2.0010    0.4520 C   0  0  0  0  0  0  0  0  0  0  0  0
   -1.0020   -2.6410    1.5900 O   0  0  0  0  0  0  0  0  0  0  0  0
    0.3290   -1.6100    0.0540 C   0  0  0  0  0  0  0  0  0  0  0  0
    0.6260   -0.4800   -0.6090 N   0  0  0  0  0  0  0  0  0  0  0  0
    1.8510   -0.1170   -0.9470 C   0  0  0  0  0  0  0  0  0  0  0  0
    2.2900    0.9770   -1.5940 C   0  0  0  0  0  0  0  0  0  0  0  0
    3.6400    0.8520   -1.6720 N   0  0  0  0  0  0  0  0  0  0  0  0
    4.5880    1.7890   -2.2980 C   0  0  0  0  0  0  0  0  0  0  0  0
    4.0650   -0.2590   -1.1070 N   0  0  0  0  0  0  0  0  0  0  0  0
    2.9400   -0.8910   -0.6380 C   0  0  0  0  0  0  0  0  0  0  0  0
    2.7140   -2.0260    0.0190 N   0  0  0  0  0  0  0  0  0  0  0  0
    1.4740   -2.3790    0.3550 C   0  0  0  0  0  0  0  0  0  0  0  0
    1.2470   -3.6750    1.0710 C   0  0  1  0  0  0  0  0  0  0  0  0
    2.4300   -4.4110    1.6060 C   0  0  0  0  0  0  0  0  0  0  0  0
    1.5470   -3.7020    2.5670 C   0  0  0  0  0  0  0  0  0  0  0  0
    1.4450    2.0350   -2.0560 N   0  0  0  0  0  0  0  0  0  0  0  0
    0.3640    2.6150   -1.3210 C   0  0  0  0  0  0  0  0  0  0  0  0
   -0.7650    2.7650   -1.8560 O   0  0  0  0  0  0  0  0  0  0  0  0
    0.4480    3.0820    0.0810 C   0  0  0  0  0  0  0  0  0  0  0  0
   -0.8600    3.6550    0.4600 C   0  0  0  0  0  0  0  0  0  0  0  0
   -1.6180    3.3200    1.4880 C   0  0  0  0  0  0  0  0  0  0  0  0
   -1.1670    2.2570    2.4060 C   0  0  0  0  0  0  0  0  0  0  0  0
   -1.5310    0.8770    1.8680 C   0  0  0  0  0  0  0  0  0  0  0  0
   -2.9770    0.8670    1.6110 C   0  0  0  0  0  0  0  0  0  0  0  0
   -3.6400    0.2130    0.6750 C   0  0  0  0  0  0  0  0  0  0  0  0
   -5.0310    0.4770    0.6960 F   0  0  0  0  0  0  0  0  0  0  0  0
  1  2  1  0
  2  3  2  3
  3  4  1  0
  3 29  1  0
  4  5  1  0
  5  6  2  0
  5  7  1  0
  7  8  2  0
  7 16  1  0
  8  9  1  0
  9 10  2  0
  9 14  1  0
 10 11  1  0
 10 20  1  0
 11 12  1  0
 11 13  1  0
 13 14  2  0
 14 15  1  0
 15 16  2  0
 17 16  1  6
 17 18  1  0
 17 19  1  0
 18 19  1  0
 20 21  1  0
 21 22  2  0
 21 23  1  0
 23 24  1  0
 24 25  2  0
 25 26  1  0
 26 27  1  0
 27 28  1  0
 28 29  2  0
 29 30  1  0
M  END
