
     RDKit          3D

 30 33  0  0  0  0  0  0  0  0999 V2000
   -1.5000    3.3750   -2.6170 C   0  0  0  0  0  0  0  0  0  0  0  0
   -0.9070    2.9860   -1.5350 C   0  0  0  0  0  0  0  0  0  0  0  0
   -1.6490    2.9930   -0.2700 C   0  0  0  0  0  0  0  0  0  0  0  0
   -2.2310    1.7690    0.2140 O   0  0  0  0  0  0  0  0  0  0  0  0
   -1.7480    0.7110    0.7500 C   0  0  0  0  0  0  0  0  0  0  0  0
   -1.1530   -0.5820    0.3740 C   0  0  0  0  0  0  0  0  0  0  0  0
   -0.7390   -1.4320    1.0660 N   0  0  0  0  0  0  0  0  0  0  0  0
   -0.6400   -1.5820    2.4870 C   0  0  0  0  0  0  0  0  0  0  0  0
   -1.2410   -0.3330    2.8890 C   0  0  0  0  0  0  0  0  0  0  0  0
   -1.6720    0.5550    2.2840 C   0  0  0  0  0  0  0  0  0  0  0  0
   -2.6460    1.4990    2.9810 C   0  0  0  0  0  0  0  0  0  0  0  0
   -3.4450    2.2530    3.5290 N   0  0  0  0  0  0  0  0  0  0  0  0
   -1.2040   -0.5740    4.5000 C   0  0  0  0  0  0  0  0  0  0  0  0
   -1.1870   -2.0350    4.6580 C   0  0  0  0  0  0  0  0  0  0  0  0
   -0.2740   -2.4750    3.4840 C   0  0  0  0  0  0  0  0  0  0  0  0
   -1.1420   -0.9110   -1.0960 N   0  0  0  0  0  0  0  0  0  0  0  0
   -2.1350   -1.9240   -1.5350 C   0  0  0  0  0  0  0  0  0  0  0  0
   -0.2930   -0.4360   -2.1020 C   0  0  0  0  0  0  0  0  0  0  0  0
   -1.0130    0.2490   -3.0290 O   0  0  0  0  0  0  0  0  0  0  0  0
    1.0620   -0.4440   -2.4210 N   0  0  0  0  0  0  0  0  0  0  0  0
    2.2510   -0.6050   -1.8360 C   0  0  0  0  0  0  0  0  0  0  0  0
    2.8710    0.2020   -0.7210 C   0  0  0  0  0  0  0  0  0  0  0  0
    3.9920   -0.2640   -0.5870 N   0  0  0  0  0  0  0  0  0  0  0  0
    4.3740   -1.2380   -1.3430 N   0  0  0  0  0  0  0  0  0  0  0  0
    3.3520   -1.4800   -2.1200 C   0  0  0  0  0  0  0  0  0  0  0  0
    3.3660   -2.5570   -3.1810 C   0  0  0  0  0  0  0  0  0  0  0  0
    2.0030    1.2260   -0.1340 C   0  0  0  0  0  0  0  0  0  0  0  0
    1.1970    2.0940   -0.4700 C   0  0  0  0  0  0  0  0  0  0  0  0
    0.5700    2.6770   -1.6640 C   0  0  2  0  0  0  0  0  0  0  0  0
    1.1050    3.9900   -1.9040 F   0  0  0  0  0  0  0  0  0  0  0  0
  1  2  2  0
  2  3  1  0
  2 29  1  0
  3  4  1  0
  4  5  1  0
  5  6  2  0
  5 10  1  0
  6  7  1  0
  6 16  1  0
  7  8  2  0
  8  9  1  0
  8 15  1  0
  9 10  2  0
  9 13  1  0
 10 11  1  0
 11 12  3  0
 13 14  1  0
 14 15  1  0
 16 17  1  0
 16 18  1  0
 18 19  2  0
 18 20  1  0
 20 21  1  0
 21 22  1  0
 21 25  2  0
 22 23  2  0
 22 27  1  0
 23 24  1  0
 24 25  1  0
 25 26  1  0
 27 28  2  0
 28 29  1  0
 29 30  1  1
M  END
