
     RDKit          3D

 30 32  0  0  0  0  0  0  0  0999 V2000
    1.5190    1.9530    1.9870 C   0  0  0  0  0  0  0  0  0  0  0  0
    1.6760    0.5900    1.6110 O   0  0  0  0  0  0  0  0  0  0  0  0
    1.7100    0.1950    0.2340 C   0  0  0  0  0  0  0  0  0  0  0  0
    0.9920    0.8260   -0.5380 N   0  0  0  0  0  0  0  0  0  0  0  0
    0.5460    1.0100   -1.8260 C   0  0  0  0  0  0  0  0  0  0  0  0
   -0.1730    2.0940   -2.2100 C   0  0  0  0  0  0  0  0  0  0  0  0
   -0.6000    3.1910   -1.4400 N   0  0  0  0  0  0  0  0  0  0  0  0
   -0.1190    4.4880   -1.8890 C   0  0  0  0  0  0  0  0  0  0  0  0
   -0.4050    5.6110   -1.2830 C   0  0  0  0  0  0  0  0  0  0  0  0
   -1.2230    5.5500   -0.1360 N   0  0  0  0  0  0  0  0  0  0  0  0
   -1.7050    4.4750    0.3510 C   0  0  0  0  0  0  0  0  0  0  0  0
   -1.4280    3.1500   -0.2810 C   0  0  0  0  0  0  0  0  0  0  0  0
   -2.0010    2.1950    0.2560 N   0  0  0  0  0  0  0  0  0  0  0  0
   -2.2180    0.8210    0.1670 C   0  0  1  0  0  0  0  0  0  0  0  0
   -1.6990    0.0430    1.4010 C   0  0  0  0  0  0  0  0  0  0  0  0
   -2.0010   -1.2110    1.4930 C   0  0  0  0  0  0  0  0  0  0  0  0
   -1.2750   -2.3800    2.0630 C   0  0  0  0  0  0  0  0  0  0  0  0
   -1.0510   -3.4630    0.9850 C   0  0  0  0  0  0  0  0  0  0  0  0
    0.2660   -3.1490    0.3380 C   0  0  0  0  0  0  0  0  0  0  0  0
    0.0870   -2.4720   -1.0070 C   0  0  0  0  0  0  0  0  0  0  0  0
    1.4100   -2.4100   -1.6570 C   0  0  0  0  0  0  0  0  0  0  0  0
    2.4740   -1.7620   -1.2480 C   0  0  0  0  0  0  0  0  0  0  0  0
    2.6240   -0.9330   -0.0470 C   0  0  0  0  0  0  0  0  0  0  0  0
    3.5960   -1.1780    0.8010 C   0  0  0  0  0  0  0  0  0  0  0  0
    4.5670   -2.2650    0.6370 C   0  0  0  0  0  0  0  0  0  0  0  0
    5.8590   -1.7430    0.5610 F   0  0  0  0  0  0  0  0  0  0  0  0
   -3.2890   -1.6290    0.9160 N   0  0  0  0  0  0  0  0  0  0  0  0
   -4.1170   -0.6890    0.2940 C   0  0  0  0  0  0  0  0  0  0  0  0
   -5.2390   -1.0290   -0.2020 O   0  0  0  0  0  0  0  0  0  0  0  0
   -3.6960    0.6490    0.2240 N   0  0  0  0  0  0  0  0  0  0  0  0
  1  2  1  0
  2  3  1  0
  3  4  2  0
  3 23  1  0
  4  5  1  0
  5  6  2  0
  6  7  1  0
  7  8  1  0
  7 12  1  0
  8  9  2  0
  9 10  1  0
 10 11  2  0
 11 12  1  0
 12 13  2  0
 13 14  1  0
 14 15  1  0
 14 30  1  1
 15 16  2  0
 16 17  1  0
 16 27  1  0
 17 18  1  0
 18 19  1  0
 19 20  1  0
 20 21  1  0
 21 22  2  0
 22 23  1  0
 23 24  2  3
 24 25  1  0
 25 26  1  0
 27 28  1  0
 28 29  2  0
 28 30  1  0
M  END
