
     RDKit          3D

 29 30  0  0  0  0  0  0  0  0999 V2000
   -4.3780   -2.8140   -0.8240 C   0  0  0  0  0  0  0  0  0  0  0  0
   -4.5870   -1.3710   -0.7060 N   0  0  2  0  0  0  0  0  0  0  0  0
   -3.3500   -0.6540   -0.6290 C   0  0  0  0  0  0  0  0  0  0  0  0
   -2.2260   -1.2920   -1.3740 C   0  0  0  0  0  0  0  0  0  0  0  0
   -1.0480   -0.5260   -1.2480 O   0  0  0  0  0  0  0  0  0  0  0  0
   -0.4080   -0.2300   -0.0750 C   0  0  0  0  0  0  0  0  0  0  0  0
   -0.9020   -0.6770    0.9930 O   0  0  0  0  0  0  0  0  0  0  0  0
    0.7790    0.5490    0.0000 N   0  0  0  0  0  0  0  0  0  0  0  0
    1.3980    0.8190    1.2800 C   0  0  0  0  0  0  0  0  0  0  0  0
    2.7360    0.1500    1.3110 C   0  0  0  0  0  0  0  0  0  0  0  0
    3.3400    0.0770   -0.0550 C   0  0  2  0  0  0  0  0  0  0  0  0
    4.8330    0.2470    0.0990 C   0  0  0  0  0  0  0  0  0  0  0  0
    5.3530    0.4200    1.2140 O   0  0  0  0  0  0  0  0  0  0  0  0
    5.5740    0.1930   -1.1070 N   0  0  0  0  0  0  0  0  0  0  0  0
    7.0050    0.3460   -1.0710 C   0  0  0  0  0  0  0  0  0  0  0  0
    7.6170   -0.7040   -0.2320 C   0  0  0  0  0  0  0  0  0  0  0  0
    7.3860   -2.0410   -0.5890 O   0  0  0  0  0  0  0  0  0  0  0  0
    8.3650   -0.4710    0.8260 C   0  0  0  0  0  0  0  0  0  0  0  0
    8.6610    0.8300    1.2690 N   0  0  0  0  0  0  0  0  0  0  0  0
    2.8640    1.2040   -0.9550 C   0  0  2  0  0  0  0  0  0  0  0  0
    3.2060    2.4490   -0.4660 O   0  0  0  0  0  0  0  0  0  0  0  0
    1.3690    1.0720   -1.1910 C   0  0  0  0  0  0  0  0  0  0  0  0
   -5.4900   -1.1030    0.3680 C   0  0  0  0  0  0  0  0  0  0  0  0
   -6.0290    0.2940    0.3700 C   0  0  1  0  0  0  0  0  0  0  0  0
   -4.9980    1.2080    0.4790 O   0  0  0  0  0  0  0  0  0  0  0  0
   -6.8620    0.5950   -0.8650 C   0  0  0  0  0  0  0  0  0  0  0  0
   -7.8220    1.6370   -0.2790 C   0  0  0  0  0  0  0  0  0  0  0  0
   -8.1820    1.0130    0.9100 O   0  0  0  0  0  0  0  0  0  0  0  0
   -7.0390    0.4820    1.4680 C   0  0  0  0  0  0  0  0  0  0  0  0
  2  1  1  1
  2  3  1  0
  2 23  1  0
  3  4  1  0
  4  5  1  0
  5  6  1  0
  6  7  2  0
  6  8  1  0
  8  9  1  0
  8 22  1  0
  9 10  1  0
 10 11  1  0
 11 12  1  1
 11 20  1  0
 12 13  2  0
 12 14  1  0
 14 15  1  0
 15 16  1  0
 16 17  1  0
 16 18  2  3
 18 19  1  0
 20 21  1  1
 20 22  1  0
 23 24  1  0
 24 25  1  1
 24 26  1  0
 24 29  1  0
 26 27  1  0
 27 28  1  0
 28 29  1  0
M  CHG  2   2   1  19   1
M  END
