
     RDKit          3D

 29 30  0  0  0  0  0  0  0  0999 V2000
    0.7940   -3.9740    0.1330 C   0  0  0  0  0  0  0  0  0  0  0  0
    0.9310   -2.5450   -0.3920 C   0  0  2  0  0  0  0  0  0  0  0  0
    2.0620   -2.4960   -1.3370 C   0  0  0  0  0  0  0  0  0  0  0  0
    3.1600   -1.5480   -1.0510 C   0  0  0  0  0  0  0  0  0  0  0  0
    2.6090   -0.3280   -0.4770 N   0  0  2  0  0  0  0  0  0  0  0  0
    3.6410    0.7140   -0.4320 C   0  0  1  0  0  0  0  0  0  0  0  0
    2.9470    2.0480   -0.4370 C   0  0  0  0  0  0  0  0  0  0  0  0
    2.1060    2.2600    0.6390 O   0  0  0  0  0  0  0  0  0  0  0  0
    4.5530    0.5190    0.7330 C   0  0  0  0  0  0  0  0  0  0  0  0
    5.5910    1.5660    0.7490 C   0  0  0  0  0  0  0  0  0  0  0  0
    6.3540    1.6050    1.7600 O   0  0  0  0  0  0  0  0  0  0  0  0
    5.8200    2.5050   -0.2190 O   0  0  0  0  0  0  0  0  0  0  0  0
    6.8430    3.4420   -0.0780 N   0  0  0  0  0  0  0  0  0  0  0  0
    2.1670   -0.7080    0.8270 C   0  0  0  0  0  0  0  0  0  0  0  0
    0.8710   -1.5180    0.6790 C   0  0  2  0  0  0  0  0  0  0  0  0
    0.7560   -2.1220    2.0910 C   0  0  0  0  0  0  0  0  0  0  0  0
   -0.4090   -2.7650    2.3420 O   0  0  0  0  0  0  0  0  0  0  0  0
   -0.1740   -0.5380    0.4580 N   0  0  0  0  0  0  0  0  0  0  0  0
   -1.5400   -0.8840    0.2750 C   0  0  0  0  0  0  0  0  0  0  0  0
   -1.8720   -2.0860    0.3050 O   0  0  0  0  0  0  0  0  0  0  0  0
   -2.5580    0.0830    0.0590 N   0  0  0  0  0  0  0  0  0  0  0  0
   -3.9180   -0.3820   -0.1140 C   0  0  0  0  0  0  0  0  0  0  0  0
   -4.8910    0.7310   -0.3330 C   0  0  1  0  0  0  0  0  0  0  0  0
   -6.2650    0.1070   -0.4960 C   0  0  0  0  0  0  0  0  0  0  0  0
   -7.2500    1.0610   -0.7060 O   0  0  0  0  0  0  0  0  0  0  0  0
   -4.9260    1.7150    0.8070 C   0  0  0  0  0  0  0  0  0  0  0  0
   -5.3310    2.9890    0.1030 C   0  0  0  0  0  0  0  0  0  0  0  0
   -5.0580    2.8740   -1.2270 O   0  0  0  0  0  0  0  0  0  0  0  0
   -4.5460    1.6240   -1.4970 C   0  0  0  0  0  0  0  0  0  0  0  0
  2  1  1  1
  2  3  1  0
  2 15  1  0
  3  4  1  0
  5  4  1  1
  5  6  1  0
  5 14  1  0
  6  7  1  1
  6  9  1  0
  7  8  1  0
  9 10  1  0
 10 11  2  0
 10 12  1  0
 12 13  1  0
 14 15  1  0
 15 16  1  1
 15 18  1  0
 16 17  1  0
 18 19  1  0
 19 20  2  0
 19 21  1  0
 21 22  1  0
 23 22  1  1
 23 24  1  0
 23 26  1  0
 23 29  1  0
 24 25  1  0
 26 27  1  0
 27 28  1  0
 28 29  1  0
M  CHG  1   5   1
M  END
