
     RDKit          3D

 12 12  0  0  0  0  0  0  0  0999 V2000
    3.0760    1.0310    0.2460 C   0  0  0  0  0  0  0  0  0  0  0  0
    1.7380    0.8360    0.5210 O   0  0  0  0  0  0  0  0  0  0  0  0
    1.1260   -0.0440   -0.3710 C   0  0  2  0  0  0  0  0  0  0  0  0
    0.2030    0.6780   -1.1020 O   0  0  0  0  0  0  0  0  0  0  0  0
   -0.9460    0.8880   -0.3620 C   0  0  1  0  0  0  0  0  0  0  0  0
   -1.8090    1.9880   -0.8530 C   0  0  0  0  0  0  0  0  0  0  0  0
   -1.6550   -0.4610   -0.3160 C   0  0  1  0  0  0  0  0  0  0  0  0
   -1.5730   -1.0430   -1.5920 O   0  0  0  0  0  0  0  0  0  0  0  0
   -0.8260   -1.2760    0.6450 C   0  0  1  0  0  0  0  0  0  0  0  0
   -1.3030   -2.5840    0.7580 O   0  0  0  0  0  0  0  0  0  0  0  0
    0.6130   -1.2450    0.3110 C   0  0  2  0  0  0  0  0  0  0  0  0
    1.3350   -1.4060    1.5170 O   0  0  0  0  0  0  0  0  0  0  0  0
  1  2  1  0
  3  2  1  1
  3  4  1  0
  3 11  1  0
  4  5  1  0
  5  6  1  6
  5  7  1  0
  7  8  1  6
  7  9  1  0
  9 10  1  6
  9 11  1  0
 11 12  1  1
M  END
