
     RDKit          3D

 12 12  0  0  0  0  0  0  0  0999 V2000
   -0.9640   -0.3400    2.1360 C   0  0  0  0  0  0  0  0  0  0  0  0
   -0.8270   -0.5680    0.6520 C   0  0  2  0  0  0  0  0  0  0  0  0
    0.4400   -1.0240    0.3200 O   0  0  0  0  0  0  0  0  0  0  0  0
    1.3760   -0.0320    0.1790 C   0  0  1  0  0  0  0  0  0  0  0  0
    1.7930    0.5000    1.4190 O   0  0  0  0  0  0  0  0  0  0  0  0
    2.6320   -0.6890   -0.4070 C   0  0  0  0  0  0  0  0  0  0  0  0
    2.3520   -1.2620   -1.6330 O   0  0  0  0  0  0  0  0  0  0  0  0
    0.9480    1.1200   -0.6690 C   0  0  0  0  0  0  0  0  0  0  0  0
   -0.3180    0.8990   -1.1490 O   0  0  0  0  0  0  0  0  0  0  0  0
   -1.2480    0.6110   -0.1660 C   0  0  1  0  0  0  0  0  0  0  0  0
   -2.5720    0.3420   -0.8960 C   0  0  0  0  0  0  0  0  0  0  0  0
   -2.4480   -0.7210   -1.7690 O   0  0  0  0  0  0  0  0  0  0  0  0
  2  1  1  1
  2  3  1  0
  2 10  1  0
  3  4  1  0
  4  5  1  1
  4  6  1  0
  4  8  1  0
  6  7  1  0
  8  9  1  0
  9 10  1  0
 10 11  1  6
 11 12  1  0
M  END
