
     RDKit          3D

 26 28  0  0  0  0  0  0  0  0999 V2000
   -2.2310    4.4970    1.5960 N   0  0  0  0  0  0  0  0  0  0  0  0
   -1.5900    3.3720    1.0390 C   0  0  0  0  0  0  0  0  0  0  0  0
   -1.2810    3.3880   -0.1720 O   0  0  0  0  0  0  0  0  0  0  0  0
   -1.2860    2.2020    1.8530 C   0  0  0  0  0  0  0  0  0  0  0  0
   -0.6190    1.1130    1.1210 C   0  0  0  0  0  0  0  0  0  0  0  0
    0.7150    0.8280    1.2220 C   0  0  0  0  0  0  0  0  0  0  0  0
    1.3480   -0.2150    0.5180 C   0  0  0  0  0  0  0  0  0  0  0  0
    2.7200   -0.4250    0.7170 N   0  0  0  0  0  0  0  0  0  0  0  0
    3.5500   -1.1980   -0.0950 C   0  0  0  0  0  0  0  0  0  0  0  0
    3.0880   -1.7770   -1.1130 O   0  0  0  0  0  0  0  0  0  0  0  0
    5.0180   -1.3610    0.2210 C   0  0  0  0  0  0  0  0  0  0  0  0
    5.5370   -0.7230    1.3350 C   0  0  0  0  0  0  0  0  0  0  0  0
    7.2620   -1.2150    1.2770 S   0  0  0  0  0  0  0  0  0  0  0  0
    7.0830   -2.2070   -0.2190 C   0  0  0  0  0  0  0  0  0  0  0  0
    5.8210   -2.0810   -0.5120 N   0  0  0  0  0  0  0  0  0  0  0  0
    0.5860   -0.9770   -0.3050 C   0  0  0  0  0  0  0  0  0  0  0  0
   -0.7950   -0.6920   -0.4190 C   0  0  0  0  0  0  0  0  0  0  0  0
   -1.3900    0.3310    0.2780 C   0  0  0  0  0  0  0  0  0  0  0  0
   -2.7220    0.5730    0.1400 O   0  0  0  0  0  0  0  0  0  0  0  0
   -3.6690   -0.0700   -0.6430 C   0  0  2  0  0  0  0  0  0  0  0  0
   -3.8510   -1.4570   -0.2590 C   0  0  0  0  0  0  0  0  0  0  0  0
   -3.8830   -2.3320   -1.2860 O   0  0  0  0  0  0  0  0  0  0  0  0
   -3.8350   -1.5110   -2.7310 S   0  0  2  0  0  0  0  0  0  0  0  0
   -5.1930   -1.4720   -3.3250 O   0  0  0  0  0  0  0  0  0  0  0  0
   -2.7860   -2.0280   -3.6650 O   0  0  0  0  0  0  0  0  0  0  0  0
   -3.3750    0.1010   -2.0920 C   0  0  0  0  0  0  0  0  0  0  0  0
  1  2  1  0
  2  3  2  0
  2  4  1  0
  4  5  1  0
  5  6  2  0
  5 18  1  0
  6  7  1  0
  7  8  1  0
  7 16  2  0
  8  9  1  0
  9 10  2  0
  9 11  1  0
 11 12  2  0
 11 15  1  0
 12 13  1  0
 13 14  1  0
 14 15  2  0
 16 17  1  0
 17 18  2  0
 18 19  1  0
 20 19  1  1
 20 21  1  0
 20 26  1  0
 21 22  1  0
 22 23  1  0
 23 24  2  0
 23 25  2  0
 23 26  1  1
M  CHG  1  15   1
M  END
