
     RDKit          3D

 25 27  0  0  0  0  0  0  0  0999 V2000
    2.5600    0.9290   -0.1640 C   0  0  0  0  0  0  0  0  0  0  0  0
    2.7430   -0.1510    0.8890 C   0  0  1  0  0  0  0  0  0  0  0  0
    2.7170   -1.4730    0.2160 C   0  0  0  0  0  0  0  0  0  0  0  0
    1.5560   -1.5970   -0.5610 O   0  0  0  0  0  0  0  0  0  0  0  0
    0.2700   -1.5730   -0.0910 C   0  0  0  0  0  0  0  0  0  0  0  0
    0.0840   -1.4320    1.1420 O   0  0  0  0  0  0  0  0  0  0  0  0
   -0.9130   -1.7120   -1.0210 C   0  0  2  0  0  0  0  0  0  0  0  0
   -0.7830   -0.6480   -2.0600 C   0  0  0  0  0  0  0  0  0  0  0  0
   -1.4370    0.5360   -1.6450 O   0  0  0  0  0  0  0  0  0  0  0  0
   -2.6510    0.5080   -0.9830 C   0  0  0  0  0  0  0  0  0  0  0  0
   -3.5640    1.5350   -0.9940 C   0  0  0  0  0  0  0  0  0  0  0  0
   -3.2300    2.7080   -1.7430 N   0  0  0  0  0  0  0  0  0  0  0  0
   -4.7690    1.4630   -0.3140 C   0  0  0  0  0  0  0  0  0  0  0  0
   -5.9000    2.8440   -0.3800 S   0  0  0  0  0  0  0  0  0  0  0  0
   -5.0740    0.3080    0.4100 C   0  0  0  0  0  0  0  0  0  0  0  0
   -4.1690   -0.7470    0.4390 C   0  0  0  0  0  0  0  0  0  0  0  0
   -2.9820   -0.6270   -0.2540 C   0  0  0  0  0  0  0  0  0  0  0  0
   -2.0630   -1.6510   -0.2480 O   0  0  0  0  0  0  0  0  0  0  0  0
   -4.7520   -1.7300    1.2290 O   0  0  0  0  0  0  0  0  0  0  0  0
   -6.1280   -1.4350    1.4130 C   0  0  0  0  0  0  0  0  0  0  0  0
   -6.1740   -0.0570    1.1750 O   0  0  0  0  0  0  0  0  0  0  0  0
    3.9020    0.0810    1.7090 N   0  0  0  0  0  0  0  0  0  0  0  0
    5.1020   -0.5320    1.2300 C   0  0  0  0  0  0  0  0  0  0  0  0
    5.7790    0.2480    0.1240 C   0  0  0  0  0  0  0  0  0  0  0  0
    6.2540    1.9010    0.6320 S   0  0  0  0  0  0  0  0  0  0  0  0
  2  1  1  6
  2  3  1  0
  2 22  1  0
  3  4  1  0
  4  5  1  0
  5  6  2  0
  7  5  1  1
  7  8  1  0
  7 18  1  0
  8  9  1  0
  9 10  1  0
 10 11  2  0
 10 17  1  0
 11 12  1  0
 11 13  1  0
 13 14  1  0
 13 15  2  0
 15 16  1  0
 15 21  1  0
 16 17  2  0
 16 19  1  0
 17 18  1  0
 19 20  1  0
 20 21  1  0
 22 23  1  0
 23 24  1  0
 24 25  1  0
M  CHG  1  22   1
M  END
