
     RDKit          3D

 17 17  0  0  0  0  0  0  0  0999 V2000
    6.2710    0.2580   -0.6980 C   0  0  0  0  0  0  0  0  0  0  0  0
    4.8400   -0.0790   -0.3300 C   0  0  0  0  0  0  0  0  0  0  0  0
    4.0920    1.2220   -0.1820 C   0  0  0  0  0  0  0  0  0  0  0  0
    2.7070    1.0300    0.1700 N   0  0  0  0  0  0  0  0  0  0  0  0
    2.2320    0.9590    1.4220 C   0  0  0  0  0  0  0  0  0  0  0  0
    0.8880    0.7740    1.3740 N   0  0  0  0  0  0  0  0  0  0  0  0
    0.5010    0.7270    0.0970 C   0  0  0  0  0  0  0  0  0  0  0  0
   -0.9110    0.5360   -0.4360 C   0  0  0  0  0  0  0  0  0  0  0  0
   -1.2180   -0.8870   -0.6400 C   0  0  2  0  0  0  0  0  0  0  0  0
   -2.5470   -1.1610   -1.2150 C   0  0  0  0  0  0  0  0  0  0  0  0
   -3.8070   -0.7840   -0.5840 C   0  0  0  0  0  0  0  0  0  0  0  0
   -4.1920    0.6190   -0.3650 C   0  0  0  0  0  0  0  0  0  0  0  0
   -5.5520    0.6110    0.2480 N   0  0  0  0  0  0  0  0  0  0  0  0
   -1.1540   -1.6630    0.6550 C   0  0  0  0  0  0  0  0  0  0  0  0
   -0.9100   -1.1330    1.7420 O   0  0  0  0  0  0  0  0  0  0  0  0
   -1.3810   -3.0170    0.5950 O   0  0  0  0  0  0  0  0  0  0  0  0
    1.6540    0.8890   -0.6420 C   0  0  0  0  0  0  0  0  0  0  0  0
  1  2  1  0
  2  3  1  0
  3  4  1  0
  4  5  1  0
  4 17  1  0
  5  6  2  0
  6  7  1  0
  7  8  1  0
  7 17  2  0
  9  8  1  1
  9 10  1  0
  9 14  1  0
 10 11  1  0
 11 12  1  0
 12 13  1  0
 14 15  2  0
 14 16  1  0
M  CHG  1  13   1
M  END
