
     RDKit          3D

 26 27  0  0  0  0  0  0  0  0999 V2000
    7.7680    2.1080   -0.3000 C   0  0  0  0  0  0  0  0  0  0  0  0
    6.8940    1.1920    0.3110 O   0  0  0  0  0  0  0  0  0  0  0  0
    6.1890    0.2990   -0.4930 C   0  0  0  0  0  0  0  0  0  0  0  0
    6.3740    0.3610   -1.7330 O   0  0  0  0  0  0  0  0  0  0  0  0
    5.2520   -0.6960    0.0450 C   0  0  0  0  0  0  0  0  0  0  0  0
    4.6900   -1.4620   -1.0470 N   0  0  0  0  0  0  0  0  0  0  0  0
    3.4180   -2.0560   -0.6890 C   0  0  0  0  0  0  0  0  0  0  0  0
    2.3440   -1.1230   -1.1850 C   0  0  0  0  0  0  0  0  0  0  0  0
    1.4720   -0.5560   -0.4190 C   0  0  0  0  0  0  0  0  0  0  0  0
    1.2450   -0.6580    1.3180 S   0  0  0  0  0  0  0  0  0  0  0  0
   -0.6130   -0.5920    1.3710 C   0  0  0  0  0  0  0  0  0  0  0  0
   -1.1900   -1.2060    2.5560 C   0  0  0  0  0  0  0  0  0  0  0  0
   -2.4750   -1.3950    3.0160 N   0  0  0  0  0  0  0  0  0  0  0  0
   -0.3070   -1.6980    3.3860 O   0  0  0  0  0  0  0  0  0  0  0  0
   -1.1140   -0.0110    0.3440 C   0  0  0  0  0  0  0  0  0  0  0  0
   -2.4770    0.2630   -0.0320 C   0  0  0  0  0  0  0  0  0  0  0  0
   -2.5540    0.8920   -1.1910 O   0  0  0  0  0  0  0  0  0  0  0  0
   -3.6880   -0.0040    0.5810 N   0  0  0  0  0  0  0  0  0  0  0  0
   -4.8950    0.4290   -0.1050 C   0  0  0  0  0  0  0  0  0  0  0  0
   -5.7770   -0.4790   -0.4430 C   0  0  0  0  0  0  0  0  0  0  0  0
   -7.0380   -0.1260   -1.1460 C   0  0  0  0  0  0  0  0  0  0  0  0
   -7.1680    1.2560   -1.3980 O   0  0  0  0  0  0  0  0  0  0  0  0
   -6.2460    2.2150   -1.0470 C   0  0  0  0  0  0  0  0  0  0  0  0
   -6.4950    3.5430   -1.3540 O   0  0  0  0  0  0  0  0  0  0  0  0
   -5.1400    1.8270   -0.4190 C   0  0  0  0  0  0  0  0  0  0  0  0
    0.1680    0.5490   -0.8570 S   0  0  0  0  0  0  0  0  0  0  0  0
  1  2  1  0
  2  3  1  0
  3  4  2  0
  3  5  1  0
  5  6  1  0
  6  7  1  0
  7  8  1  0
  8  9  2  3
  9 10  1  0
  9 26  1  0
 10 11  1  0
 11 12  1  0
 11 15  2  0
 12 13  1  0
 12 14  2  0
 15 16  1  0
 15 26  1  0
 16 17  2  0
 16 18  1  0
 18 19  1  0
 19 20  2  0
 19 25  1  0
 20 21  1  0
 21 22  1  0
 22 23  1  0
 23 24  1  0
 23 25  2  0
M  CHG  1   6   1
M  END
