
     RDKit          3D

 21 23  0  0  0  0  0  0  0  0999 V2000
   -4.5290    2.2590   -1.4400 C   0  0  0  0  0  0  0  0  0  0  0  0
   -4.0130    1.2540   -0.7790 C   0  0  0  0  0  0  0  0  0  0  0  0
   -2.5580    0.9870   -0.5440 C   0  0  0  0  0  0  0  0  0  0  0  0
   -2.4750   -0.4950   -0.3620 C   0  0  1  0  0  0  0  0  0  0  0  0
   -1.6060   -0.9460    0.7730 C   0  0  2  0  0  0  0  0  0  0  0  0
   -2.0080   -0.4760    2.0130 O   0  0  0  0  0  0  0  0  0  0  0  0
   -0.1500   -0.7830    0.5190 C   0  0  0  0  0  0  0  0  0  0  0  0
    0.4430    0.4010    0.8600 C   0  0  0  0  0  0  0  0  0  0  0  0
    1.7960    0.5680    0.6280 C   0  0  0  0  0  0  0  0  0  0  0  0
    2.6020   -0.3920    0.0670 C   0  0  0  0  0  0  0  0  0  0  0  0
    4.0410   -0.2010   -0.1750 C   0  0  0  0  0  0  0  0  0  0  0  0
    4.6450    0.9290    0.1420 C   0  0  0  0  0  0  0  0  0  0  0  0
    6.1140    1.1790   -0.0830 C   0  0  0  0  0  0  0  0  0  0  0  0
    6.7740    0.0970   -0.6600 O   0  0  0  0  0  0  0  0  0  0  0  0
    6.1810   -1.0850   -1.0000 C   0  0  0  0  0  0  0  0  0  0  0  0
    4.8770   -1.2330   -0.7710 C   0  0  0  0  0  0  0  0  0  0  0  0
    1.9820   -1.5820   -0.2690 C   0  0  0  0  0  0  0  0  0  0  0  0
    0.6120   -1.7750   -0.0440 C   0  0  0  0  0  0  0  0  0  0  0  0
   -3.8610   -1.0140   -0.1560 C   0  0  0  0  0  0  0  0  0  0  0  0
   -4.7450    0.1750   -0.1250 C   0  0  0  0  0  0  0  0  0  0  0  0
   -5.9740    0.2520    0.3970 C   0  0  0  0  0  0  0  0  0  0  0  0
  1  2  2  0
  2  3  1  0
  2 20  1  0
  4  3  1  1
  4  5  1  0
  4 19  1  0
  5  6  1  1
  5  7  1  0
  7  8  2  0
  7 18  1  0
  8  9  1  0
  9 10  2  0
 10 11  1  0
 10 17  1  0
 11 12  2  0
 11 16  1  0
 12 13  1  0
 13 14  1  0
 14 15  1  0
 15 16  2  0
 17 18  2  0
 19 20  1  0
 20 21  2  0
M  END
