
     RDKit          3D

 26 27  0  0  0  0  0  0  0  0999 V2000
    6.0910   -2.1850    0.3020 C   0  0  0  0  0  0  0  0  0  0  0  0
    5.0910   -1.1870    0.4150 O   0  0  0  0  0  0  0  0  0  0  0  0
    5.3410    0.1530    0.5810 C   0  0  0  0  0  0  0  0  0  0  0  0
    6.5510    0.5340    0.6380 O   0  0  0  0  0  0  0  0  0  0  0  0
    4.2240    1.1400    0.6920 C   0  0  1  0  0  0  0  0  0  0  0  0
    4.3360    1.8660    2.0340 C   0  0  0  0  0  0  0  0  0  0  0  0
    4.4180    2.1700   -0.3910 C   0  0  0  0  0  0  0  0  0  0  0  0
    2.9530    0.4530    0.5930 N   0  0  0  0  0  0  0  0  0  0  0  0
    2.6530    0.1040   -0.7600 C   0  0  0  0  0  0  0  0  0  0  0  0
    1.2580   -0.2740   -0.9810 C   0  0  0  0  0  0  0  0  0  0  0  0
    0.8850   -0.5960   -2.1370 O   0  0  0  0  0  0  0  0  0  0  0  0
    0.2860   -0.2980    0.0540 N   0  0  0  0  0  0  0  0  0  0  0  0
   -1.0570   -0.6720   -0.2150 C   0  0  0  0  0  0  0  0  0  0  0  0
   -1.5190   -1.0870   -1.7400 S   0  0  0  0  0  0  0  0  0  0  0  0
   -2.2820   -0.7080    1.0730 S   0  0  0  0  0  0  0  0  0  0  0  0
   -3.8820   -1.1970    0.4240 C   0  0  0  0  0  0  0  0  0  0  0  0
   -4.8300   -0.3140    0.1750 C   0  0  0  0  0  0  0  0  0  0  0  0
   -4.7870    1.1290    0.3590 C   0  0  0  0  0  0  0  0  0  0  0  0
   -3.7990    1.7760    0.8030 O   0  0  0  0  0  0  0  0  0  0  0  0
   -6.0220    1.5850   -0.0500 O   0  0  0  0  0  0  0  0  0  0  0  0
   -6.8400    0.5110   -0.4800 C   0  0  0  0  0  0  0  0  0  0  0  0
   -6.1700   -0.6090   -0.3590 C   0  0  0  0  0  0  0  0  0  0  0  0
   -6.9720   -1.7400   -0.7910 C   0  0  0  0  0  0  0  0  0  0  0  0
   -6.6290   -2.9530   -0.8040 O   0  0  0  0  0  0  0  0  0  0  0  0
   -8.2210   -1.2060   -1.1960 N   0  0  0  0  0  0  0  0  0  0  0  0
   -8.1820    0.2080   -1.0160 C   0  0  0  0  0  0  0  0  0  0  0  0
  1  2  1  0
  2  3  1  0
  3  4  2  0
  3  5  1  0
  5  6  1  1
  5  7  1  0
  5  8  1  0
  8  9  1  0
  9 10  1  0
 10 11  2  0
 10 12  1  0
 12 13  1  0
 13 14  2  0
 13 15  1  0
 15 16  1  0
 16 17  2  3
 17 18  1  0
 17 22  1  0
 18 19  2  0
 18 20  1  0
 20 21  1  0
 21 22  2  0
 21 26  1  0
 22 23  1  0
 23 24  2  0
 23 25  1  0
 25 26  1  0
M  CHG  1   8   1
M  END
