
     RDKit          3D

 17 18  0  0  0  0  0  0  0  0999 V2000
   -4.7410   -1.4890    0.8410 Br  0  0  0  0  0  0  0  0  0  0  0  0
   -3.1720   -0.3270    0.5830 C   0  0  0  0  0  0  0  0  0  0  0  0
   -3.5270    1.4950    1.0220 Br  0  0  0  0  0  0  0  0  0  0  0  0
   -2.0760   -0.9100    0.2880 C   0  0  0  0  0  0  0  0  0  0  0  0
   -0.7300   -0.5630   -0.0010 C   0  0  0  0  0  0  0  0  0  0  0  0
    0.1360   -1.6020   -0.1370 C   0  0  0  0  0  0  0  0  0  0  0  0
    1.5770   -1.7470   -0.4140 C   0  0  0  0  0  0  0  0  0  0  0  0
    2.0160   -3.3800   -1.2630 Br  0  0  0  0  0  0  0  0  0  0  0  0
    2.5960   -0.9390   -0.1510 C   0  0  0  0  0  0  0  0  0  0  0  0
    2.7040    0.3860    0.5000 C   0  0  0  0  0  0  0  0  0  0  0  0
    4.3500    0.6430    1.4120 Br  0  0  0  0  0  0  0  0  0  0  0  0
    1.8960    1.4620    0.5770 C   0  0  0  0  0  0  0  0  0  0  0  0
    0.5500    1.6540   -0.0190 C   0  0  0  0  0  0  0  0  0  0  0  0
    0.2880    2.8570   -0.5010 N   0  0  0  0  0  0  0  0  0  0  0  0
   -0.9290    2.7410   -1.0740 N   0  0  0  0  0  0  0  0  0  0  0  0
   -1.4000    1.5000   -0.9440 C   0  0  0  0  0  0  0  0  0  0  0  0
   -0.4530    0.8080   -0.2640 N   0  0  0  0  0  0  0  0  0  0  0  0
  1  2  1  0
  2  3  1  0
  2  4  2  3
  4  5  1  0
  5  6  2  0
  5 17  1  0
  6  7  1  0
  7  8  1  0
  7  9  2  0
  9 10  1  0
 10 11  1  0
 10 12  2  0
 12 13  1  0
 13 14  2  0
 13 17  1  0
 14 15  1  0
 15 16  2  0
 16 17  1  0
M  END
