
     RDKit          3D

 17 19  0  0  0  0  0  0  0  0999 V2000
    3.0050   -2.2330    1.6920 Br  0  0  0  0  0  0  0  0  0  0  0  0
    2.9840   -0.6460    0.6210 C   0  0  0  0  0  0  0  0  0  0  0  0
    1.9480   -0.0820    0.0480 C   0  0  0  0  0  0  0  0  0  0  0  0
    2.3070    1.0390   -0.6420 C   0  0  0  0  0  0  0  0  0  0  0  0
    1.1710    1.5620   -1.2020 N   0  0  0  0  0  0  0  0  0  0  0  0
    0.1460    0.7760   -0.8570 C   0  0  0  0  0  0  0  0  0  0  0  0
    0.6140   -0.2420   -0.0870 N   0  0  0  0  0  0  0  0  0  0  0  0
   -0.5090   -1.0980    0.2700 C   0  0  0  0  0  0  0  0  0  0  0  0
   -1.5760   -0.0540    0.3300 N   0  0  0  0  0  0  0  0  0  0  0  0
   -2.8570   -0.7010    0.3900 C   0  0  0  0  0  0  0  0  0  0  0  0
   -3.8970    0.2060    0.9600 C   0  0  1  0  0  0  0  0  0  0  0  0
   -5.6260   -0.6700    1.0440 Br  0  0  0  0  0  0  0  0  0  0  0  0
   -3.2900    0.5960    2.7910 Br  0  0  0  0  0  0  0  0  0  0  0  0
   -3.9920    1.8750    0.0560 Br  0  0  0  0  0  0  0  0  0  0  0  0
   -1.3490    0.6030   -0.9770 C   0  0  0  0  0  0  0  0  0  0  0  0
    3.6080    1.2590   -0.5480 C   0  0  0  0  0  0  0  0  0  0  0  0
    4.1650    0.1810    0.2870 C   0  0  0  0  0  0  0  0  0  0  0  0
  1  2  1  0
  2  3  2  0
  2 17  1  0
  3  4  1  0
  3  7  1  0
  4  5  1  0
  4 16  2  0
  5  6  2  0
  6  7  1  0
  6 15  1  0
  7  8  1  0
  8  9  1  0
  9 10  1  0
  9 15  1  0
 10 11  1  0
 11 12  1  1
 11 13  1  0
 11 14  1  0
 16 17  1  0
M  END
