
     RDKit          3D

 17 18  0  0  0  0  0  0  0  0999 V2000
   -3.3170   -1.9100   -0.7100 C   0  0  0  0  0  0  0  0  0  0  0  0
   -1.9790   -1.2690   -0.4910 N   0  0  0  0  0  0  0  0  0  0  0  0
   -0.7260   -1.8800   -0.8100 C   0  0  0  0  0  0  0  0  0  0  0  0
    0.2930   -0.8860   -0.4280 C   0  0  0  0  0  0  0  0  0  0  0  0
    1.6210   -0.6570   -0.3890 C   0  0  0  0  0  0  0  0  0  0  0  0
    2.9090   -1.9160   -0.9880 Br  0  0  0  0  0  0  0  0  0  0  0  0
    1.8380    0.6480    0.1660 C   0  0  0  0  0  0  0  0  0  0  0  0
    2.9340    1.3330    0.4090 C   0  0  0  0  0  0  0  0  0  0  0  0
    4.2840    0.8640    0.1380 C   0  0  0  0  0  0  0  0  0  0  0  0
    5.3570    0.7670    1.7580 Br  0  0  0  0  0  0  0  0  0  0  0  0
    0.5120    1.1760    0.4550 N   0  0  0  0  0  0  0  0  0  0  0  0
   -0.3420    0.2830    0.1070 C   0  0  0  0  0  0  0  0  0  0  0  0
   -1.7730    0.0040    0.0510 C   0  0  0  0  0  0  0  0  0  0  0  0
   -2.7220    0.8170    0.4450 N   0  0  0  0  0  0  0  0  0  0  0  0
   -2.4470    2.1160    0.9950 C   0  0  1  0  0  0  0  0  0  0  0  0
   -1.3890    1.9010    2.6220 Br  0  0  0  0  0  0  0  0  0  0  0  0
   -1.4930    3.2740   -0.1870 Br  0  0  0  0  0  0  0  0  0  0  0  0
  1  2  1  0
  2  3  1  0
  2 13  1  0
  3  4  1  0
  4  5  2  0
  4 12  1  0
  5  6  1  0
  5  7  1  0
  7  8  2  3
  7 11  1  0
  8  9  1  0
  9 10  1  0
 11 12  2  0
 12 13  1  0
 13 14  2  3
 14 15  1  0
 15 16  1  1
 15 17  1  0
M  END
