
     RDKit          3D

 16 17  0  0  0  0  0  0  0  0999 V2000
   -2.7090   -1.3770    0.3460 C   0  0  0  0  0  0  0  0  0  0  0  0
   -1.4210   -0.7280    0.0840 C   0  0  0  0  0  0  0  0  0  0  0  0
   -0.3170   -1.4880    0.0470 C   0  0  0  0  0  0  0  0  0  0  0  0
    1.0050   -0.9260   -0.2070 C   0  0  0  0  0  0  0  0  0  0  0  0
    1.9500   -1.7980   -0.2070 N   0  0  0  0  0  0  0  0  0  0  0  0
    3.3450   -1.6190   -0.4160 C   0  0  0  0  0  0  0  0  0  0  0  0
    3.9670   -0.5160   -0.6550 N   0  0  0  0  0  0  0  0  0  0  0  0
    3.4760    0.8150   -0.7800 C   0  0  0  0  0  0  0  0  0  0  0  0
    2.2210    1.2410   -0.6760 C   0  0  0  0  0  0  0  0  0  0  0  0
    1.0640    0.4780   -0.4150 N   0  0  0  0  0  0  0  0  0  0  0  0
   -0.1420    1.2220   -0.3620 C   0  0  0  0  0  0  0  0  0  0  0  0
   -1.3380    0.7020   -0.1300 C   0  0  0  0  0  0  0  0  0  0  0  0
   -2.5460    1.5900   -0.0970 C   0  0  2  0  0  0  0  0  0  0  0  0
   -3.8470    1.0960   -1.4150 Br  0  0  0  0  0  0  0  0  0  0  0  0
   -1.9870    3.4110   -0.4820 Br  0  0  0  0  0  0  0  0  0  0  0  0
   -3.2640    1.5860    1.6930 Br  0  0  0  0  0  0  0  0  0  0  0  0
  1  2  1  0
  2  3  2  0
  2 12  1  0
  3  4  1  0
  4  5  2  0
  4 10  1  0
  5  6  1  0
  6  7  2  0
  7  8  1  0
  8  9  2  0
  9 10  1  0
 10 11  1  0
 11 12  2  0
 12 13  1  0
 13 14  1  6
 13 15  1  0
 13 16  1  0
M  END
