
     RDKit          3D

 17 19  0  0  0  0  0  0  0  0999 V2000
    3.5790    0.5560    0.0560 C   0  0  0  0  0  0  0  0  0  0  0  0
    2.6840   -0.5880    0.1770 C   0  0  0  0  0  0  0  0  0  0  0  0
    1.3880   -0.6420    0.1080 C   0  0  0  0  0  0  0  0  0  0  0  0
    0.5180    0.4810   -0.1140 N   0  0  0  0  0  0  0  0  0  0  0  0
    0.8010    1.8610   -0.3680 C   0  0  0  0  0  0  0  0  0  0  0  0
   -0.3960    2.6870   -0.5200 C   0  0  0  0  0  0  0  0  0  0  0  0
   -0.1040    4.5730   -0.8400 Br  0  0  0  0  0  0  0  0  0  0  0  0
   -1.5720    2.2220   -0.4510 N   0  0  0  0  0  0  0  0  0  0  0  0
   -1.9300    0.8950   -0.2240 N   0  0  0  0  0  0  0  0  0  0  0  0
   -3.2850    0.4500   -0.1660 C   0  0  0  0  0  0  0  0  0  0  0  0
   -0.8240    0.0000   -0.0520 C   0  0  0  0  0  0  0  0  0  0  0  0
   -0.8810   -1.2910    0.1780 C   0  0  0  0  0  0  0  0  0  0  0  0
   -1.9850   -2.2190    0.3270 C   0  0  0  0  0  0  0  0  0  0  0  0
   -1.8100   -2.9880    2.1330 Br  0  0  0  0  0  0  0  0  0  0  0  0
    0.5290   -1.8240    0.2590 C   0  0  2  0  0  0  0  0  0  0  0  0
    0.8300   -2.7430    1.9280 Br  0  0  0  0  0  0  0  0  0  0  0  0
    0.8710   -3.0050   -1.2400 Br  0  0  0  0  0  0  0  0  0  0  0  0
  1  2  1  0
  2  3  2  3
  3  4  1  0
  3 15  1  0
  4  5  1  0
  4 11  1  0
  5  6  1  0
  6  7  1  0
  6  8  2  0
  8  9  1  0
  9 10  1  0
  9 11  1  0
 11 12  2  0
 12 13  1  0
 12 15  1  0
 13 14  1  0
 15 16  1  0
 15 17  1  6
 16 14  1  0
M  END
