
     RDKit          3D

 33 37  0  0  0  0  0  0  0  0999 V2000
   -3.1310   -0.4090   -4.2430 C   0  0  0  0  0  0  0  0  0  0  0  0
   -2.9840   -0.9530   -2.9410 O   0  0  0  0  0  0  0  0  0  0  0  0
   -1.8080   -0.7980   -2.2290 C   0  0  0  0  0  0  0  0  0  0  0  0
   -0.7200   -0.1120   -2.7440 C   0  0  0  0  0  0  0  0  0  0  0  0
    0.4670    0.0510   -2.0430 C   0  0  0  0  0  0  0  0  0  0  0  0
    1.5470    0.7320   -2.5550 C   0  0  0  0  0  0  0  0  0  0  0  0
    2.7310    0.9140   -1.9010 C   0  0  0  0  0  0  0  0  0  0  0  0
    4.0840    1.7870   -2.5850 Cl  0  0  0  0  0  0  0  0  0  0  0  0
    2.8550    0.3680   -0.6130 C   0  0  0  0  0  0  0  0  0  0  0  0
    4.0360    0.5600    0.0190 O   0  0  0  0  0  0  0  0  0  0  0  0
    4.3580    0.1070    1.2920 C   0  0  2  0  0  0  0  0  0  0  0  0
    4.7830    1.3270    2.1030 C   0  0  0  0  0  0  0  0  0  0  0  0
    5.9340    1.9700    1.4010 C   0  0  0  0  0  0  0  0  0  0  0  0
    7.0930    1.0140    1.3480 C   0  0  0  0  0  0  0  0  0  0  0  0
    6.7270   -0.3460    1.9080 C   0  0  0  0  0  0  0  0  0  0  0  0
    5.5190   -0.8610    1.1770 C   0  0  0  0  0  0  0  0  0  0  0  0
    1.7840   -0.3170   -0.0850 C   0  0  0  0  0  0  0  0  0  0  0  0
    0.5850   -0.4860   -0.7810 C   0  0  0  0  0  0  0  0  0  0  0  0
   -0.4910   -1.1660   -0.2670 C   0  0  0  0  0  0  0  0  0  0  0  0
   -1.6950   -1.3350   -0.9700 C   0  0  0  0  0  0  0  0  0  0  0  0
   -2.7900   -2.0690   -0.3350 C   0  0  2  0  0  0  0  0  0  0  0  0
   -3.3450   -3.0410   -1.1830 O   0  0  0  0  0  0  0  0  0  0  0  0
   -3.8910   -1.2400    0.1900 C   0  0  0  0  0  0  0  0  0  0  0  0
   -5.0070   -0.7250   -0.4220 C   0  0  0  0  0  0  0  0  0  0  0  0
   -5.7600    0.0000    0.4730 C   0  0  0  0  0  0  0  0  0  0  0  0
   -6.9420    0.7100    0.3960 C   0  0  0  0  0  0  0  0  0  0  0  0
   -7.4670    1.3560    1.5050 C   0  0  0  0  0  0  0  0  0  0  0  0
   -8.9560    2.2520    1.4140 Cl  0  0  0  0  0  0  0  0  0  0  0  0
   -6.7950    1.2830    2.7010 C   0  0  0  0  0  0  0  0  0  0  0  0
   -7.4130    2.0850    4.1520 Cl  0  0  0  0  0  0  0  0  0  0  0  0
   -5.6170    0.5700    2.7580 C   0  0  0  0  0  0  0  0  0  0  0  0
   -5.0650   -0.0890    1.6590 C   0  0  0  0  0  0  0  0  0  0  0  0
   -3.9590   -0.8260    1.4810 N   0  0  0  0  0  0  0  0  0  0  0  0
  1  2  1  0
  2  3  1  0
  3  4  2  0
  3 20  1  0
  4  5  1  0
  5  6  2  0
  5 18  1  0
  6  7  1  0
  7  8  1  0
  7  9  2  0
  9 10  1  0
  9 17  1  0
 11 10  1  6
 11 12  1  0
 11 16  1  0
 12 13  1  0
 13 14  1  0
 14 15  1  0
 15 16  1  0
 17 18  2  0
 18 19  1  0
 19 20  2  0
 20 21  1  0
 21 22  1  6
 21 23  1  0
 23 24  2  0
 23 33  1  0
 24 25  1  0
 25 26  2  0
 25 32  1  0
 26 27  1  0
 27 28  1  0
 27 29  2  0
 29 30  1  0
 29 31  1  0
 31 32  2  0
 32 33  1  0
M  END
