
     RDKit          3D

 33 36  0  0  0  0  0  0  0  0999 V2000
    8.4100   -0.7510   -1.4000 C   0  0  0  0  0  0  0  0  0  0  0  0
    7.2020   -0.1010   -0.7860 C   0  0  0  0  0  0  0  0  0  0  0  0
    7.4650    1.0540   -0.1990 C   0  0  0  0  0  0  0  0  0  0  0  0
    6.6640    2.0470    0.5200 C   0  0  0  0  0  0  0  0  0  0  0  0
    5.4190    2.2350    0.9150 C   0  0  0  0  0  0  0  0  0  0  0  0
    4.2080    1.4400    0.7770 C   0  0  0  0  0  0  0  0  0  0  0  0
    3.2290    2.1600    1.4370 C   0  0  0  0  0  0  0  0  0  0  0  0
    1.9400    1.6480    1.4790 C   0  0  0  0  0  0  0  0  0  0  0  0
    0.6690    2.5350    2.3140 Cl  0  0  0  0  0  0  0  0  0  0  0  0
    1.6250    0.4560    0.8840 C   0  0  0  0  0  0  0  0  0  0  0  0
    0.2770   -0.1400    0.8900 C   0  0  0  0  0  0  0  0  0  0  0  0
   -0.0080   -0.9050    1.8470 O   0  0  0  0  0  0  0  0  0  0  0  0
   -0.6840    0.1170   -0.1340 N   0  0  0  0  0  0  0  0  0  0  0  0
   -1.9760   -0.4460   -0.1770 C   0  0  0  0  0  0  0  0  0  0  0  0
   -2.1230   -1.6470   -0.8300 C   0  0  0  0  0  0  0  0  0  0  0  0
   -0.9420   -2.3040   -1.4410 C   0  0  0  0  0  0  0  0  0  0  0  0
   -3.3440   -2.2680   -0.9360 C   0  0  0  0  0  0  0  0  0  0  0  0
   -3.5650   -3.7880   -1.7560 Cl  0  0  0  0  0  0  0  0  0  0  0  0
   -4.4380   -1.6340   -0.3550 C   0  0  0  0  0  0  0  0  0  0  0  0
   -4.3090   -0.4220    0.3080 C   0  0  0  0  0  0  0  0  0  0  0  0
   -5.4880    0.1980    0.9000 C   0  0  2  0  0  0  0  0  0  0  0  0
   -6.7530   -0.6310    0.8810 C   0  0  0  0  0  0  0  0  0  0  0  0
   -7.4250   -0.2670   -0.4200 C   0  0  0  0  0  0  0  0  0  0  0  0
   -6.5860    0.8940   -0.9050 C   0  0  0  0  0  0  0  0  0  0  0  0
   -5.8850    1.3570    0.2060 O   0  0  0  0  0  0  0  0  0  0  0  0
   -3.0740    0.2020    0.4130 C   0  0  0  0  0  0  0  0  0  0  0  0
   -2.7780    1.4720    1.0800 C   0  0  0  0  0  0  0  0  0  0  0  0
   -3.8900    2.0600    1.6160 O   0  0  0  0  0  0  0  0  0  0  0  0
    2.6300   -0.2590    0.2210 C   0  0  0  0  0  0  0  0  0  0  0  0
    3.9070    0.2340    0.1710 C   0  0  0  0  0  0  0  0  0  0  0  0
    4.7210   -0.7130   -0.5750 C   0  0  0  0  0  0  0  0  0  0  0  0
    5.9750   -0.8790   -0.9620 C   0  0  0  0  0  0  0  0  0  0  0  0
    6.2850   -2.3280   -1.8870 Cl  0  0  0  0  0  0  0  0  0  0  0  0
  1  2  1  0
  2  3  2  0
  2 32  1  0
  3  4  1  0
  4  5  2  0
  5  6  1  0
  6  7  2  0
  6 30  1  0
  7  8  1  0
  8  9  1  0
  8 10  2  0
 10 11  1  0
 10 29  1  0
 11 12  2  0
 11 13  1  0
 13 14  1  0
 14 15  2  0
 14 26  1  0
 15 16  1  0
 15 17  1  0
 17 18  1  0
 17 19  2  0
 19 20  1  0
 21 20  1  6
 20 26  2  0
 21 22  1  0
 21 25  1  0
 22 23  1  0
 23 24  1  0
 24 25  1  0
 26 27  1  0
 27 28  1  0
 29 30  2  0
 30 31  1  0
 31 32  2  0
 32 33  1  0
M  END
