
     RDKit          3D

 33 36  0  0  0  0  0  0  0  0999 V2000
   -5.8500   -3.4020   -0.6200 C   0  0  0  0  0  0  0  0  0  0  0  0
   -5.5780   -1.9580   -0.8030 C   0  0  0  0  0  0  0  0  0  0  0  0
   -4.5130   -1.3020   -0.4750 C   0  0  0  0  0  0  0  0  0  0  0  0
   -3.4550   -1.9440    0.1230 C   0  0  0  0  0  0  0  0  0  0  0  0
   -3.5160   -3.6430    0.4520 Cl  0  0  0  0  0  0  0  0  0  0  0  0
   -2.2830   -1.2930    0.5000 C   0  0  0  0  0  0  0  0  0  0  0  0
   -1.2450   -1.9830    1.0990 O   0  0  0  0  0  0  0  0  0  0  0  0
   -0.0940   -1.3000    1.4600 C   0  0  0  0  0  0  0  0  0  0  0  0
    0.0300   -0.7200    2.7250 C   0  0  0  0  0  0  0  0  0  0  0  0
    1.1770   -0.0430    3.0760 C   0  0  0  0  0  0  0  0  0  0  0  0
    1.3590    0.5770    4.3740 C   0  0  0  0  0  0  0  0  0  0  0  0
    0.4370    0.4950    5.2130 O   0  0  0  0  0  0  0  0  0  0  0  0
    2.1980    0.0350    2.1150 C   0  0  0  0  0  0  0  0  0  0  0  0
    2.0890   -0.5270    0.8750 C   0  0  0  0  0  0  0  0  0  0  0  0
    3.1620   -0.4340   -0.1280 C   0  0  0  0  0  0  0  0  0  0  0  0
    3.0900   -1.2000   -1.1490 O   0  0  0  0  0  0  0  0  0  0  0  0
    4.2360    0.4550    0.0090 N   0  0  0  0  0  0  0  0  0  0  0  0
    5.3040    0.6130   -0.8920 C   0  0  0  0  0  0  0  0  0  0  0  0
    5.4840   -0.0700   -2.0550 C   0  0  0  0  0  0  0  0  0  0  0  0
    6.5740    0.1470   -2.8970 C   0  0  0  0  0  0  0  0  0  0  0  0
    7.5110    1.0860   -2.5440 C   0  0  0  0  0  0  0  0  0  0  0  0
    8.8810    1.3440   -3.6210 Cl  0  0  0  0  0  0  0  0  0  0  0  0
    7.3740    1.8020   -1.3780 C   0  0  0  0  0  0  0  0  0  0  0  0
    6.2870    1.5540   -0.5850 C   0  0  0  0  0  0  0  0  0  0  0  0
    6.1670    2.5050    0.8990 Cl  0  0  0  0  0  0  0  0  0  0  0  0
    0.9280   -1.1970    0.5570 C   0  0  0  0  0  0  0  0  0  0  0  0
   -2.1950    0.0440    0.2590 C   0  0  0  0  0  0  0  0  0  0  0  0
   -3.2380    0.7740   -0.3510 C   0  0  0  0  0  0  0  0  0  0  0  0
   -4.3900    0.0850   -0.7110 C   0  0  0  0  0  0  0  0  0  0  0  0
   -5.3730    0.7560   -1.2820 C   0  0  0  0  0  0  0  0  0  0  0  0
   -5.2650    2.1880   -1.5340 C   0  0  0  0  0  0  0  0  0  0  0  0
   -4.1880    2.8490   -1.2010 C   0  0  0  0  0  0  0  0  0  0  0  0
   -3.0440    2.2080   -0.5660 C   0  0  0  0  0  0  0  0  0  0  0  0
  1  2  1  0
  2  3  2  3
  3  4  1  0
  3 29  1  0
  4  5  1  0
  4  6  2  0
  6  7  1  0
  6 27  1  0
  7  8  1  0
  8  9  2  0
  8 26  1  0
  9 10  1  0
 10 11  1  0
 10 13  2  0
 11 12  2  0
 13 14  1  0
 14 15  1  0
 14 26  2  0
 15 16  2  0
 15 17  1  0
 17 18  1  0
 18 19  2  0
 18 24  1  0
 19 20  1  0
 20 21  2  0
 21 22  1  0
 21 23  1  0
 23 24  2  0
 24 25  1  0
 27 28  2  0
 28 29  1  0
 28 33  1  0
 29 30  2  0
 30 31  1  0
 31 32  2  0
 32 33  1  0
M  END
