
     RDKit          3D

 33 36  0  0  0  0  0  0  0  0999 V2000
   -5.9220   -3.5360   -1.2150 C   0  0  0  0  0  0  0  0  0  0  0  0
   -5.5630   -2.1140   -0.9470 C   0  0  0  0  0  0  0  0  0  0  0  0
   -6.5520   -1.2090   -0.6080 C   0  0  0  0  0  0  0  0  0  0  0  0
   -6.2640    0.1120   -0.3530 C   0  0  0  0  0  0  0  0  0  0  0  0
   -4.9690    0.5930   -0.4240 C   0  0  0  0  0  0  0  0  0  0  0  0
   -4.6480    1.9030   -0.1760 C   0  0  0  0  0  0  0  0  0  0  0  0
   -3.3310    2.3820   -0.2500 C   0  0  0  0  0  0  0  0  0  0  0  0
   -3.0750    3.8010    0.0590 C   0  0  0  0  0  0  0  0  0  0  0  0
   -4.2810    4.4780    0.3340 O   0  0  0  0  0  0  0  0  0  0  0  0
   -2.3360    1.5050   -0.5840 C   0  0  0  0  0  0  0  0  0  0  0  0
   -0.9190    1.8970   -0.7190 C   0  0  1  0  0  0  0  0  0  0  0  0
   -0.6260    3.1130   -0.1340 O   0  0  0  0  0  0  0  0  0  0  0  0
   -0.0560    0.8910   -0.0270 C   0  0  0  0  0  0  0  0  0  0  0  0
    1.2500    0.8570   -0.1990 C   0  0  0  0  0  0  0  0  0  0  0  0
    1.9840    2.0520   -1.2940 Cl  0  0  0  0  0  0  0  0  0  0  0  0
    2.1520   -0.0960    0.4420 C   0  0  0  0  0  0  0  0  0  0  0  0
    1.6340   -1.0460    1.2970 C   0  0  0  0  0  0  0  0  0  0  0  0
    2.5170   -1.9480    1.9020 C   0  0  0  0  0  0  0  0  0  0  0  0
    3.8420   -1.8460    1.6180 C   0  0  0  0  0  0  0  0  0  0  0  0
    4.3460   -0.9120    0.7790 N   0  0  0  0  0  0  0  0  0  0  0  0
    5.7500   -0.8700    0.5330 C   0  0  0  0  0  0  0  0  0  0  0  0
    6.4310   -1.9160   -0.0570 C   0  0  0  0  0  0  0  0  0  0  0  0
    7.7870   -1.8220   -0.2710 C   0  0  0  0  0  0  0  0  0  0  0  0
    8.5190   -0.7110    0.0810 C   0  0  0  0  0  0  0  0  0  0  0  0
   10.2470   -0.6670   -0.2250 Cl  0  0  0  0  0  0  0  0  0  0  0  0
    7.8530    0.3410    0.6700 C   0  0  0  0  0  0  0  0  0  0  0  0
    6.5020    0.2510    0.8850 C   0  0  0  0  0  0  0  0  0  0  0  0
    5.6280    1.5850    1.6380 Cl  0  0  0  0  0  0  0  0  0  0  0  0
    3.5240   -0.0370    0.1870 C   0  0  0  0  0  0  0  0  0  0  0  0
    3.9320    0.8540   -0.6030 O   0  0  0  0  0  0  0  0  0  0  0  0
   -2.6870    0.1660   -0.8350 C   0  0  0  0  0  0  0  0  0  0  0  0
   -3.9750   -0.3020   -0.7610 C   0  0  0  0  0  0  0  0  0  0  0  0
   -4.2710   -1.6410   -1.0190 C   0  0  0  0  0  0  0  0  0  0  0  0
  1  2  1  0
  2  3  2  0
  2 33  1  0
  3  4  1  0
  4  5  2  0
  5  6  1  0
  5 32  1  0
  6  7  2  0
  7  8  1  0
  7 10  1  0
  8  9  1  0
 10 11  1  0
 10 31  2  0
 11 12  1  1
 11 13  1  0
 13 14  2  3
 14 15  1  0
 14 16  1  0
 16 17  2  0
 16 29  1  0
 17 18  1  0
 18 19  2  0
 19 20  1  0
 20 21  1  0
 20 29  1  0
 21 22  2  0
 21 27  1  0
 22 23  1  0
 23 24  2  0
 24 25  1  0
 24 26  1  0
 26 27  2  0
 27 28  1  0
 29 30  2  0
 31 32  1  0
 32 33  2  0
M  END
