
     RDKit          3D

 33 37  0  0  0  0  0  0  0  0999 V2000
    8.5880    2.3060    0.9320 C   0  0  0  0  0  0  0  0  0  0  0  0
    8.1100    1.8900   -0.4400 C   0  0  0  0  0  0  0  0  0  0  0  0
    6.8540    1.1090   -0.2880 C   0  0  0  0  0  0  0  0  0  0  0  0
    5.6520    1.7090   -0.5930 C   0  0  0  0  0  0  0  0  0  0  0  0
    4.5080    0.9560   -0.4410 C   0  0  0  0  0  0  0  0  0  0  0  0
    4.5300   -0.3680    0.0040 C   0  0  0  0  0  0  0  0  0  0  0  0
    5.7370   -0.9410    0.3010 C   0  0  0  0  0  0  0  0  0  0  0  0
    6.9120   -0.1930    0.1520 C   0  0  0  0  0  0  0  0  0  0  0  0
    8.4540   -0.9400    0.5360 Cl  0  0  0  0  0  0  0  0  0  0  0  0
    3.2880   -1.1190    0.1480 C   0  0  0  0  0  0  0  0  0  0  0  0
    3.2760   -2.4290    0.5870 C   0  0  0  0  0  0  0  0  0  0  0  0
    2.0810   -3.1040    0.7110 C   0  0  0  0  0  0  0  0  0  0  0  0
    1.9890   -4.7610    1.2600 Cl  0  0  0  0  0  0  0  0  0  0  0  0
    0.8950   -2.4480    0.3890 C   0  0  0  0  0  0  0  0  0  0  0  0
    0.8800   -1.1510   -0.0480 C   0  0  0  0  0  0  0  0  0  0  0  0
   -0.2860   -0.4900   -0.3720 O   0  0  0  0  0  0  0  0  0  0  0  0
   -1.4930   -1.1820   -0.2420 C   0  0  0  0  0  0  0  0  0  0  0  0
   -2.6660   -0.3250   -0.6360 C   0  0  0  0  0  0  0  0  0  0  0  0
   -2.4730    0.8540   -1.0440 O   0  0  0  0  0  0  0  0  0  0  0  0
   -3.9870   -0.7830   -0.5720 N   0  0  0  0  0  0  0  0  0  0  0  0
   -5.0830    0.0720   -0.9630 C   0  0  1  0  0  0  0  0  0  0  0  0
   -5.9930   -0.5850   -1.9650 C   0  0  0  0  0  0  0  0  0  0  0  0
   -7.2200    0.3300   -1.8470 C   0  0  0  0  0  0  0  0  0  0  0  0
   -7.2820    0.4790   -0.3450 C   0  0  0  0  0  0  0  0  0  0  0  0
   -8.3450    0.7280    0.5000 C   0  0  0  0  0  0  0  0  0  0  0  0
   -8.2090    0.8300    1.8660 C   0  0  0  0  0  0  0  0  0  0  0  0
   -6.9200    0.6670    2.3660 C   0  0  0  0  0  0  0  0  0  0  0  0
   -6.6260    0.7790    4.1080 Cl  0  0  0  0  0  0  0  0  0  0  0  0
   -5.8550    0.4190    1.5360 C   0  0  0  0  0  0  0  0  0  0  0  0
   -6.0190    0.3230    0.1780 C   0  0  0  0  0  0  0  0  0  0  0  0
    2.1040   -0.4880   -0.1660 C   0  0  0  0  0  0  0  0  0  0  0  0
    2.0910    0.9090   -0.6360 C   0  0  0  0  0  0  0  0  0  0  0  0
    3.3170    1.5370   -0.7380 O   0  0  0  0  0  0  0  0  0  0  0  0
  1  2  1  0
  2  3  1  0
  3  4  2  0
  3  8  1  0
  4  5  1  0
  5  6  2  0
  5 33  1  0
  6  7  1  0
  6 10  1  0
  7  8  2  0
  8  9  1  0
 10 11  2  0
 10 31  1  0
 11 12  1  0
 12 13  1  0
 12 14  2  0
 14 15  1  0
 15 16  1  0
 15 31  2  0
 16 17  1  0
 17 18  1  0
 18 19  2  0
 18 20  1  0
 21 20  1  1
 21 22  1  0
 21 30  1  0
 22 23  1  0
 23 24  1  0
 24 25  2  0
 24 30  1  0
 25 26  1  0
 26 27  2  0
 27 28  1  0
 27 29  1  0
 29 30  2  0
 31 32  1  0
 32 33  1  0
M  END
