
     RDKit          3D

 17 18  0  0  0  0  0  0  0  0999 V2000
    2.5720    0.2290    4.6600 N   0  0  0  0  0  0  0  0  0  0  0  0
    2.3250    0.8750    3.7380 C   0  0  0  0  0  0  0  0  0  0  0  0
    2.0330    1.6900    2.5570 C   0  0  0  0  0  0  0  0  0  0  0  0
    1.0380    1.0920    1.7620 O   0  0  0  0  0  0  0  0  0  0  0  0
    1.1490   -0.1600    1.1830 C   0  0  0  0  0  0  0  0  0  0  0  0
    2.2580   -0.7510    1.4320 O   0  0  0  0  0  0  0  0  0  0  0  0
    0.1320   -0.8060    0.3540 C   0  0  2  0  0  0  0  0  0  0  0  0
    0.6510   -2.1360   -0.0370 N   0  0  0  0  0  0  0  0  0  0  0  0
    1.4570   -1.8240   -1.1930 C   0  0  0  0  0  0  0  0  0  0  0  0
    2.3080   -2.5870   -1.7200 O   0  0  0  0  0  0  0  0  0  0  0  0
    1.1370   -0.5240   -1.6370 O   0  0  0  0  0  0  0  0  0  0  0  0
   -0.0900   -0.2390   -0.9970 C   0  0  1  0  0  0  0  0  0  0  0  0
   -1.1360   -1.1230   -1.6750 C   0  0  0  0  0  0  0  0  0  0  0  0
   -2.4340   -0.5170   -1.1850 C   0  0  0  0  0  0  0  0  0  0  0  0
   -2.1570    0.9540   -1.1540 C   0  0  0  0  0  0  0  0  0  0  0  0
   -0.6290    1.1040   -1.1440 C   0  0  1  0  0  0  0  0  0  0  0  0
   -0.2550    2.0790   -0.2690 O   0  0  0  0  0  0  0  0  0  0  0  0
  1  2  3  0
  2  3  1  0
  3  4  1  0
  4  5  1  0
  5  6  2  0
  7  5  1  6
  7  8  1  0
  7 12  1  0
  8  9  1  0
  9 10  2  0
  9 11  1  0
 11 12  1  0
 12 13  1  6
 12 16  1  0
 13 14  1  0
 14 15  1  0
 15 16  1  0
 16 17  1  1
M  END
