
     RDKit          3D

 17 18  0  0  0  0  0  0  0  0999 V2000
    5.8240    0.9280    0.5790 N   0  0  0  0  0  0  0  0  0  0  0  0
    4.4190    0.8370    0.4730 C   0  0  0  0  0  0  0  0  0  0  0  0
    3.7450    0.6830    1.5120 O   0  0  0  0  0  0  0  0  0  0  0  0
    3.7450    0.9210   -0.8280 C   0  0  0  0  0  0  0  0  0  0  0  0
    2.3410    0.8090   -0.7280 O   0  0  0  0  0  0  0  0  0  0  0  0
    1.7170   -0.3220   -0.1920 C   0  0  0  0  0  0  0  0  0  0  0  0
    2.5090   -1.2370    0.1960 O   0  0  0  0  0  0  0  0  0  0  0  0
    0.2990   -0.4410   -0.0880 N   0  0  0  0  0  0  0  0  0  0  0  0
   -0.2230   -1.6500    0.4800 C   0  0  0  0  0  0  0  0  0  0  0  0
   -1.7010   -1.8470    0.2280 C   0  0  0  0  0  0  0  0  0  0  0  0
   -2.3650   -0.5320    0.3530 C   0  0  2  0  0  0  0  0  0  0  0  0
   -2.0000    0.0990    1.5320 O   0  0  0  0  0  0  0  0  0  0  0  0
   -3.8330   -0.5060    0.1240 C   0  0  0  0  0  0  0  0  0  0  0  0
   -3.9920    0.9390   -0.3540 C   0  0  0  0  0  0  0  0  0  0  0  0
   -2.7890    1.3410   -0.8690 O   0  0  0  0  0  0  0  0  0  0  0  0
   -1.9050    0.3070   -0.8510 C   0  0  1  0  0  0  0  0  0  0  0  0
   -0.4890    0.6660   -0.5640 C   0  0  0  0  0  0  0  0  0  0  0  0
  1  2  1  0
  2  3  2  0
  2  4  1  0
  4  5  1  0
  5  6  1  0
  6  7  2  0
  6  8  1  0
  8  9  1  0
  8 17  1  0
  9 10  1  0
 10 11  1  0
 11 12  1  1
 11 13  1  0
 11 16  1  0
 13 14  1  0
 14 15  1  0
 15 16  1  0
 16 17  1  1
M  END
