
     RDKit          3D

 38 40  0  0  0  0  0  0  0  0999 V2000
    7.3320   -2.1310   -1.3290 C   0  0  0  0  0  0  0  0  0  0  0  0
    6.4640   -1.1010   -0.6390 C   0  0  0  0  0  0  0  0  0  0  0  0
    6.5180    0.1290   -1.2550 O   0  0  0  0  0  0  0  0  0  0  0  0
    5.5600    1.3390   -0.5290 P   0  0  0  0  0  0  0  0  0  0  0  0
    6.5270    2.2620    0.7340 C   0  0  0  0  0  0  0  0  0  0  0  0
    3.9340    0.7940    0.0440 C   0  0  0  0  0  0  0  0  0  0  0  0
    2.7600    1.3060   -0.4590 C   0  0  0  0  0  0  0  0  0  0  0  0
    1.5140    0.8700    0.0030 C   0  0  0  0  0  0  0  0  0  0  0  0
    1.3840   -0.0810    0.9750 C   0  0  0  0  0  0  0  0  0  0  0  0
    0.1380   -0.5550    1.5380 C   0  0  0  0  0  0  0  0  0  0  0  0
    0.2590   -1.5860    2.3250 O   0  0  0  0  0  0  0  0  0  0  0  0
   -1.1630   -0.1080    1.3920 N   0  0  0  0  0  0  0  0  0  0  0  0
   -1.4160    1.1700    0.8440 C   0  0  0  0  0  0  0  0  0  0  0  0
   -2.1100    1.3560   -0.3320 C   0  0  0  0  0  0  0  0  0  0  0  0
   -2.3740    2.6250   -0.8350 C   0  0  0  0  0  0  0  0  0  0  0  0
   -1.9640    3.7730   -0.2000 C   0  0  0  0  0  0  0  0  0  0  0  0
   -2.2150    5.0880   -0.7020 N   0  0  0  0  0  0  0  0  0  0  0  0
   -2.9210    5.4130   -1.8690 C   0  0  0  0  0  0  0  0  0  0  0  0
   -3.0930    6.8600   -2.2580 C   0  0  0  0  0  0  0  0  0  0  0  0
   -3.4190    4.5530   -2.6090 O   0  0  0  0  0  0  0  0  0  0  0  0
   -1.2690    3.6000    0.9790 C   0  0  0  0  0  0  0  0  0  0  0  0
   -0.8240    4.6930    1.6760 O   0  0  0  0  0  0  0  0  0  0  0  0
   -1.0060    2.3240    1.4810 C   0  0  0  0  0  0  0  0  0  0  0  0
   -2.3030   -0.9110    1.7300 C   0  0  2  0  0  0  0  0  0  0  0  0
   -2.3810   -1.2800    3.1550 C   0  0  0  0  0  0  0  0  0  0  0  0
   -3.3010   -2.0370    3.6090 O   0  0  0  0  0  0  0  0  0  0  0  0
   -1.4750   -0.8420    4.1150 O   0  0  0  0  0  0  0  0  0  0  0  0
   -2.6210   -2.0230    0.8140 C   0  0  0  0  0  0  0  0  0  0  0  0
   -3.9700   -2.3770    0.6550 C   0  0  0  0  0  0  0  0  0  0  0  0
   -4.3820   -3.3900   -0.1850 C   0  0  0  0  0  0  0  0  0  0  0  0
   -3.4730   -4.1010   -0.9090 C   0  0  0  0  0  0  0  0  0  0  0  0
   -3.8980   -5.1210   -1.7530 O   0  0  0  0  0  0  0  0  0  0  0  0
   -5.2400   -5.4760   -1.9130 C   0  0  0  0  0  0  0  0  0  0  0  0
   -2.1560   -3.7810   -0.7770 C   0  0  0  0  0  0  0  0  0  0  0  0
   -1.1570   -4.5500   -1.5590 C   0  0  0  0  0  0  0  0  0  0  0  0
   -1.7470   -2.7620    0.0680 C   0  0  0  0  0  0  0  0  0  0  0  0
    2.6040   -0.5830    1.4670 C   0  0  0  0  0  0  0  0  0  0  0  0
    3.8160   -0.1640    1.0210 C   0  0  0  0  0  0  0  0  0  0  0  0
  1  2  1  0
  2  3  1  0
  3  4  1  0
  4  5  1  0
  4  6  1  0
  6  7  2  0
  6 38  1  0
  7  8  1  0
  8  9  2  0
  9 10  1  0
  9 37  1  0
 10 11  2  0
 10 12  1  0
 12 13  1  0
 24 12  1  6
 13 14  2  0
 13 23  1  0
 14 15  1  0
 15 16  2  0
 16 17  1  0
 16 21  1  0
 17 18  1  0
 18 19  1  0
 18 20  2  0
 21 22  1  0
 21 23  2  0
 24 25  1  0
 24 28  1  0
 25 26  2  0
 25 27  1  0
 28 29  2  0
 28 36  1  0
 29 30  1  0
 30 31  2  0
 31 32  1  0
 31 34  1  0
 32 33  1  0
 34 35  1  0
 34 36  2  0
 37 38  2  0
M  END
