
     RDKit          3D

 38 40  0  0  0  0  0  0  0  0999 V2000
    9.3120   -0.1920   -0.4100 C   0  0  0  0  0  0  0  0  0  0  0  0
    8.0480    0.6060   -0.3750 C   0  0  0  0  0  0  0  0  0  0  0  0
    8.0890    1.9830   -0.3400 C   0  0  0  0  0  0  0  0  0  0  0  0
    6.8940    2.6870   -0.3080 C   0  0  0  0  0  0  0  0  0  0  0  0
    5.6910    2.0010   -0.3110 C   0  0  0  0  0  0  0  0  0  0  0  0
    5.6660    0.6290   -0.3460 C   0  0  0  0  0  0  0  0  0  0  0  0
    4.3520   -0.0670   -0.3490 C   0  0  0  0  0  0  0  0  0  0  0  0
    3.9500   -0.3240    1.0700 C   0  0  0  0  0  0  0  0  0  0  0  0
    2.6820   -0.9970    1.0860 N   0  0  0  0  0  0  0  0  0  0  0  0
    1.5140   -0.4330    0.5470 C   0  0  0  0  0  0  0  0  0  0  0  0
    1.5660    0.7120    0.0260 O   0  0  0  0  0  0  0  0  0  0  0  0
    0.2850   -1.0400    0.5380 O   0  0  0  0  0  0  0  0  0  0  0  0
   -0.8920   -0.4870    0.0010 C   0  0  1  0  0  0  0  0  0  0  0  0
   -1.4050   -1.2290   -1.1590 C   0  0  0  0  0  0  0  0  0  0  0  0
   -2.4910   -0.9700   -1.6850 O   0  0  0  0  0  0  0  0  0  0  0  0
   -0.6830   -2.2850   -1.7380 O   0  0  0  0  0  0  0  0  0  0  0  0
   -1.2150   -2.9840   -2.8670 C   0  0  2  0  0  0  0  0  0  0  0  0
   -0.2840   -4.0600   -3.3130 C   0  0  0  0  0  0  0  0  0  0  0  0
   -1.3490   -1.9630   -3.9750 C   0  0  0  0  0  0  0  0  0  0  0  0
   -2.5580   -3.5940   -2.5520 C   0  0  0  0  0  0  0  0  0  0  0  0
   -1.9080   -0.1060    1.0020 C   0  0  0  0  0  0  0  0  0  0  0  0
   -1.8510   -0.6660    2.2940 C   0  0  0  0  0  0  0  0  0  0  0  0
   -2.8260   -0.4520    3.2370 C   0  0  0  0  0  0  0  0  0  0  0  0
   -2.7860   -1.0290    4.5970 C   0  0  0  0  0  0  0  0  0  0  0  0
   -1.9110    0.1070    5.7930 P   0  0  0  0  0  0  0  0  0  0  0  0
   -1.1940    1.4520    4.9650 O   0  0  0  0  0  0  0  0  0  0  0  0
   -3.0420    0.7720    6.9480 O   0  0  0  0  0  0  0  0  0  0  0  0
   -3.8890    0.3470    2.8750 C   0  0  0  0  0  0  0  0  0  0  0  0
   -3.9730    0.9090    1.6260 C   0  0  0  0  0  0  0  0  0  0  0  0
   -2.9710    0.6900    0.6620 C   0  0  0  0  0  0  0  0  0  0  0  0
   -3.0470    1.3970   -0.5650 N   0  0  0  0  0  0  0  0  0  0  0  0
   -4.2360    2.0690   -0.9420 C   0  0  0  0  0  0  0  0  0  0  0  0
   -5.4420    1.4910   -1.0710 C   0  0  0  0  0  0  0  0  0  0  0  0
   -6.4450    2.5020   -1.4780 C   0  0  1  0  0  0  0  0  0  0  0  0
   -7.4200    2.6640   -0.5100 O   0  0  0  0  0  0  0  0  0  0  0  0
   -5.6620    3.7510   -1.5710 C   0  0  0  0  0  0  0  0  0  0  0  0
   -4.4120    3.4750   -1.2610 C   0  0  0  0  0  0  0  0  0  0  0  0
    6.8510   -0.0680   -0.3780 C   0  0  0  0  0  0  0  0  0  0  0  0
  1  2  1  0
  2  3  2  0
  2 38  1  0
  3  4  1  0
  4  5  2  0
  5  6  1  0
  6  7  1  0
  6 38  2  0
  7  8  1  0
  8  9  1  0
  9 10  1  0
 10 11  2  0
 10 12  1  0
 13 12  1  1
 13 14  1  0
 13 21  1  0
 14 15  2  0
 14 16  1  0
 16 17  1  0
 17 18  1  6
 17 19  1  0
 17 20  1  0
 21 22  2  0
 21 30  1  0
 22 23  1  0
 23 24  1  0
 23 28  2  0
 24 25  1  0
 25 26  1  0
 25 27  1  0
 28 29  1  0
 29 30  2  0
 30 31  1  0
 31 32  1  0
 32 33  2  0
 32 37  1  0
 33 34  1  0
 34 35  1  1
 34 36  1  0
 36 37  2  0
M  END
