
     RDKit          3D

 37 39  0  0  0  0  0  0  0  0999 V2000
    4.9390    3.8000    0.6120 C   0  0  0  0  0  0  0  0  0  0  0  0
    4.2020    2.9000   -0.3570 C   0  0  0  0  0  0  0  0  0  0  0  0
    5.0400    1.6930   -0.6200 C   0  0  0  0  0  0  0  0  0  0  0  0
    4.3960    0.7240   -1.5770 C   0  0  0  0  0  0  0  0  0  0  0  0
    3.1950    0.2360   -1.1500 O   0  0  0  0  0  0  0  0  0  0  0  0
    3.2140   -0.4330    0.0030 C   0  0  0  0  0  0  0  0  0  0  0  0
    1.9570   -0.9960    0.5390 C   0  0  0  0  0  0  0  0  0  0  0  0
    2.1080   -1.6460    1.7790 C   0  0  0  0  0  0  0  0  0  0  0  0
    3.4050   -1.7180    2.3310 O   0  0  0  0  0  0  0  0  0  0  0  0
    3.5450   -2.3700    3.5710 C   0  0  0  0  0  0  0  0  0  0  0  0
    1.0810   -2.1990    2.4630 C   0  0  0  0  0  0  0  0  0  0  0  0
   -0.1840   -2.1110    1.9030 C   0  0  0  0  0  0  0  0  0  0  0  0
   -0.3820   -1.4780    0.6810 C   0  0  0  0  0  0  0  0  0  0  0  0
   -1.7870   -1.2540    0.2970 C   0  0  2  0  0  0  0  0  0  0  0  0
   -2.0520    0.2190    0.4030 N   0  0  0  0  0  0  0  0  0  0  0  0
   -3.2930    0.6860   -0.0570 C   0  0  0  0  0  0  0  0  0  0  0  0
   -4.1210   -0.1190   -0.5430 O   0  0  0  0  0  0  0  0  0  0  0  0
   -3.6960    2.0810   -0.0070 C   0  0  0  0  0  0  0  0  0  0  0  0
   -2.8330    3.0120    0.5020 C   0  0  0  0  0  0  0  0  0  0  0  0
   -3.2330    4.3490    0.5440 C   0  0  0  0  0  0  0  0  0  0  0  0
   -4.4590    4.7550    0.0920 C   0  0  0  0  0  0  0  0  0  0  0  0
   -4.9100    6.5320    0.1820 P   0  0  0  0  0  0  0  0  0  0  0  0
   -5.1120    7.1510    1.5950 O   0  0  0  0  0  0  0  0  0  0  0  0
   -5.3040    3.8010   -0.4130 C   0  0  0  0  0  0  0  0  0  0  0  0
   -4.9290    2.4650   -0.4650 C   0  0  0  0  0  0  0  0  0  0  0  0
   -2.7590   -1.9130    1.2410 C   0  0  0  0  0  0  0  0  0  0  0  0
   -2.6290   -3.4250    1.0040 C   0  0  0  0  0  0  0  0  0  0  0  0
   -3.5120   -3.6730   -0.2290 C   0  0  0  0  0  0  0  0  0  0  0  0
   -3.0930   -2.6780   -1.2460 C   0  0  0  0  0  0  0  0  0  0  0  0
   -3.5710   -2.8820   -2.4160 O   0  0  0  0  0  0  0  0  0  0  0  0
   -2.2380   -1.5680   -1.0070 N   0  0  0  0  0  0  0  0  0  0  0  0
    0.7100   -0.9140   -0.0200 C   0  0  0  0  0  0  0  0  0  0  0  0
    0.5080   -0.3180   -1.1940 O   0  0  0  0  0  0  0  0  0  0  0  0
    0.6650   -0.4270   -2.5110 C   0  0  0  0  0  0  0  0  0  0  0  0
    0.2920   -1.6040   -3.3100 C   0  0  0  0  0  0  0  0  0  0  0  0
    0.0060   -2.9240   -2.7200 C   0  0  0  0  0  0  0  0  0  0  0  0
    0.2110   -1.5310   -4.5460 O   0  0  0  0  0  0  0  0  0  0  0  0
  1  2  1  0
  2  3  1  0
  3  4  1  0
  4  5  1  0
  5  6  1  0
  6  7  1  0
  7  8  2  0
  7 32  1  0
  8  9  1  0
  8 11  1  0
  9 10  1  0
 11 12  2  0
 12 13  1  0
 13 14  1  0
 13 32  2  0
 14 15  1  6
 14 26  1  0
 14 31  1  0
 15 16  1  0
 16 17  2  0
 16 18  1  0
 18 19  2  0
 18 25  1  0
 19 20  1  0
 20 21  2  0
 21 22  1  0
 21 24  1  0
 22 23  2  0
 24 25  2  0
 26 27  1  0
 27 28  1  0
 28 29  1  0
 29 30  2  0
 29 31  1  0
 32 33  1  0
 33 34  1  0
 34 35  1  0
 35 36  1  0
 35 37  2  0
M  END
