
     RDKit          3D

 38 40  0  0  0  0  0  0  0  0999 V2000
   10.9470   -0.0170   -1.2390 C   0  0  0  0  0  0  0  0  0  0  0  0
    9.8240   -0.9720   -1.0290 C   0  0  0  0  0  0  0  0  0  0  0  0
    8.4550   -0.4410   -0.9320 C   0  0  0  0  0  0  0  0  0  0  0  0
    8.1230    0.5050    0.1780 C   0  0  1  0  0  0  0  0  0  0  0  0
    8.9670    1.7490    0.0690 C   0  0  0  0  0  0  0  0  0  0  0  0
    6.7970    0.9100   -0.0300 O   0  0  0  0  0  0  0  0  0  0  0  0
    5.5450    0.4500    0.2780 C   0  0  0  0  0  0  0  0  0  0  0  0
    4.5560    0.8130   -0.5820 C   0  0  0  0  0  0  0  0  0  0  0  0
    3.2490    0.4070   -0.3720 C   0  0  0  0  0  0  0  0  0  0  0  0
    2.9080   -0.3720    0.7050 C   0  0  0  0  0  0  0  0  0  0  0  0
    1.5650   -0.8190    0.9720 C   0  0  0  0  0  0  0  0  0  0  0  0
    0.5680   -0.4930    0.1760 C   0  0  0  0  0  0  0  0  0  0  0  0
   -0.7850   -0.9880    0.5150 C   0  0  0  0  0  0  0  0  0  0  0  0
   -0.8680   -1.6900    1.5500 O   0  0  0  0  0  0  0  0  0  0  0  0
   -1.9760   -0.7010   -0.2810 C   0  0  2  0  0  0  0  0  0  0  0  0
   -2.0300    0.6640   -0.9220 C   0  0  0  0  0  0  0  0  0  0  0  0
   -3.0610    0.5160   -2.0510 C   0  0  0  0  0  0  0  0  0  0  0  0
   -3.1190   -0.7970   -2.4860 O   0  0  0  0  0  0  0  0  0  0  0  0
   -4.1250   -1.5650   -1.9650 C   0  0  0  0  0  0  0  0  0  0  0  0
   -4.0230   -1.9080   -0.5170 C   0  0  0  0  0  0  0  0  0  0  0  0
   -3.2400   -1.0800    0.2970 N   0  0  0  0  0  0  0  0  0  0  0  0
   -3.5590   -0.6260    1.5350 C   0  0  0  0  0  0  0  0  0  0  0  0
   -4.5280    0.3740    1.9510 C   0  0  0  0  0  0  0  0  0  0  0  0
   -5.9790    0.2760    1.6870 C   0  0  0  0  0  0  0  0  0  0  0  0
   -6.5320    0.3620   -0.0620 P   0  0  0  0  0  0  0  0  0  0  0  0
   -8.1230   -0.3620   -0.1350 O   0  0  0  0  0  0  0  0  0  0  0  0
   -8.2290   -1.2060   -1.2390 C   0  0  0  0  0  0  0  0  0  0  0  0
   -9.6150   -1.8100   -1.2650 C   0  0  0  0  0  0  0  0  0  0  0  0
   -6.7400    2.0470   -0.4850 O   0  0  0  0  0  0  0  0  0  0  0  0
   -7.8480    2.5520    0.2080 C   0  0  0  0  0  0  0  0  0  0  0  0
   -8.0300    4.0050   -0.1570 C   0  0  0  0  0  0  0  0  0  0  0  0
    3.9390   -0.7240    1.5600 C   0  0  0  0  0  0  0  0  0  0  0  0
    5.2380   -0.3230    1.3560 C   0  0  0  0  0  0  0  0  0  0  0  0
    6.1190   -0.8450    2.4250 C   0  0  0  0  0  0  0  0  0  0  0  0
    5.5720   -1.3140    3.4470 O   0  0  0  0  0  0  0  0  0  0  0  0
    7.5380   -0.8420    2.3540 N   0  0  0  0  0  0  0  0  0  0  0  0
    8.3790   -0.0640    1.5140 C   0  0  0  0  0  0  0  0  0  0  0  0
    9.5390    0.1890    1.9710 O   0  0  0  0  0  0  0  0  0  0  0  0
  1  2  1  0
  2  3  1  0
  3  4  1  0
  4  5  1  6
  4  6  1  0
  4 37  1  0
  6  7  1  0
  7  8  2  0
  7 33  1  0
  8  9  1  0
  9 10  2  0
 10 11  1  0
 10 32  1  0
 11 12  2  3
 12 13  1  0
 13 14  2  0
 15 13  1  1
 15 16  1  0
 15 21  1  0
 16 17  1  0
 17 18  1  0
 18 19  1  0
 19 20  1  0
 20 21  1  0
 21 22  1  0
 22 23  1  0
 23 24  1  0
 24 25  1  0
 25 26  1  0
 25 29  1  0
 26 27  1  0
 27 28  1  0
 29 30  1  0
 30 31  1  0
 32 33  2  0
 33 34  1  0
 34 35  2  0
 34 36  1  0
 36 37  1  0
 37 38  2  0
M  END
