
     RDKit          3D

 33 35  0  0  0  0  0  0  0  0999 V2000
   -5.5420   -2.5240   -1.2180 C   0  0  0  0  0  0  0  0  0  0  0  0
   -4.8570   -1.3120   -0.8410 N   0  0  0  0  0  0  0  0  0  0  0  0
   -3.4320   -1.0730   -0.9310 C   0  0  0  0  0  0  0  0  0  0  0  0
   -3.2130   -0.0930    0.0850 N   0  0  0  0  0  0  0  0  0  0  0  0
   -1.9930    0.1990    0.8420 C   0  0  2  0  0  0  0  0  0  0  0  0
   -0.9630    0.5950    0.0180 O   0  0  0  0  0  0  0  0  0  0  0  0
    0.2080    0.2210    0.6750 C   0  0  2  0  0  0  0  0  0  0  0  0
    1.4090    0.2830   -0.2310 C   0  0  0  0  0  0  0  0  0  0  0  0
    2.5610   -0.0950    0.4560 O   0  0  0  0  0  0  0  0  0  0  0  0
    3.9280   -0.0460   -0.5000 P   0  0  2  0  0  0  0  0  0  0  0  0
    3.5440   -0.1180   -1.9620 O   0  0  0  0  0  0  0  0  0  0  0  0
    5.0120   -1.3070   -0.0950 O   0  0  0  0  0  0  0  0  0  0  0  0
    4.8020    1.4000   -0.2940 O   0  0  0  0  0  0  0  0  0  0  0  0
    6.4010    1.0720   -0.7330 P   0  0  2  0  0  0  0  0  0  0  0  0
    7.0450    2.2950   -1.3810 O   0  0  0  0  0  0  0  0  0  0  0  0
    6.5040   -0.1940   -1.8440 O   0  0  0  0  0  0  0  0  0  0  0  0
    7.2690    0.6220    0.6470 O   0  0  0  0  0  0  0  0  0  0  0  0
    8.8880    0.3720    0.3240 P   0  0  2  0  0  0  0  0  0  0  0  0
    9.5280   -0.4560    1.4150 O   0  0  0  0  0  0  0  0  0  0  0  0
    9.7430    1.8440    0.2410 O   0  0  0  0  0  0  0  0  0  0  0  0
    9.1350   -0.4500   -1.1320 O   0  0  0  0  0  0  0  0  0  0  0  0
   -0.1300   -1.2020    1.0720 C   0  0  1  0  0  0  0  0  0  0  0  0
    0.7440   -1.7190    2.0070 O   0  0  0  0  0  0  0  0  0  0  0  0
   -1.5250   -0.9920    1.6260 C   0  0  1  0  0  0  0  0  0  0  0  0
   -1.3730   -0.6910    2.9950 O   0  0  0  0  0  0  0  0  0  0  0  0
   -4.4570    0.6000    0.2520 C   0  0  0  0  0  0  0  0  0  0  0  0
   -4.7620    1.7800    0.8360 N   0  0  0  0  0  0  0  0  0  0  0  0
   -6.0120    2.2740    0.8960 C   0  0  0  0  0  0  0  0  0  0  0  0
   -6.3150    3.5150    1.5130 N   0  0  0  0  0  0  0  0  0  0  0  0
   -6.9900    1.5230    0.3310 N   0  0  0  0  0  0  0  0  0  0  0  0
   -6.7600    0.3460   -0.2630 C   0  0  0  0  0  0  0  0  0  0  0  0
   -7.6670   -0.3500   -0.7870 O   0  0  0  0  0  0  0  0  0  0  0  0
   -5.4730   -0.1530   -0.3200 C   0  0  0  0  0  0  0  0  0  0  0  0
  1  2  1  0
  2  3  1  0
  2 33  1  0
  3  4  1  0
  5  4  1  6
  4 26  1  0
  5  6  1  0
  5 24  1  0
  6  7  1  0
  7  8  1  6
  7 22  1  0
  8  9  1  0
  9 10  1  0
 10 11  2  0
 10 12  1  1
 10 13  1  0
 13 14  1  0
 14 15  2  0
 14 16  1  6
 14 17  1  0
 17 18  1  0
 18 19  2  0
 18 20  1  6
 18 21  1  0
 22 23  1  1
 22 24  1  0
 24 25  1  1
 26 27  1  0
 26 33  2  0
 27 28  2  0
 28 29  1  0
 28 30  1  0
 30 31  1  0
 31 32  2  0
 31 33  1  0
M  END
