
     RDKit          3D

 37 39  0  0  0  0  0  0  0  0999 V2000
    1.3580   -3.5970    0.1710 C   0  0  0  0  0  0  0  0  0  0  0  0
    0.0050   -2.9830    0.1850 C   0  0  0  0  0  0  0  0  0  0  0  0
    0.0080   -1.6280   -0.4800 C   0  0  1  0  0  0  0  0  0  0  0  0
   -1.3610   -1.2010   -0.3850 O   0  0  0  0  0  0  0  0  0  0  0  0
   -2.1020   -0.9190   -1.5230 C   0  0  0  0  0  0  0  0  0  0  0  0
   -1.4970   -1.0620   -2.6240 O   0  0  0  0  0  0  0  0  0  0  0  0
   -3.4970   -0.4820   -1.4720 C   0  0  0  0  0  0  0  0  0  0  0  0
   -4.2280   -0.2030   -2.6040 C   0  0  0  0  0  0  0  0  0  0  0  0
   -5.5410    0.2090   -2.5710 C   0  0  0  0  0  0  0  0  0  0  0  0
   -6.1930    0.3620   -1.3540 C   0  0  0  0  0  0  0  0  0  0  0  0
   -7.9390    0.9090   -1.2970 P   0  0  0  0  0  0  0  0  0  0  0  0
   -8.3740    1.9910   -2.7410 C   0  0  0  0  0  0  0  0  0  0  0  0
   -9.1090   -0.5110   -1.1110 C   0  0  0  0  0  0  0  0  0  0  0  0
   -9.4100   -0.8180    0.3310 C   0  0  0  0  0  0  0  0  0  0  0  0
  -10.0380    0.3450    1.0540 C   0  0  2  0  0  0  0  0  0  0  0  0
  -11.3330    0.7950    0.4680 C   0  0  0  0  0  0  0  0  0  0  0  0
   -9.0950    1.4430    1.0530 N   0  0  0  0  0  0  0  0  0  0  0  0
   -5.4700    0.0850   -0.2150 C   0  0  0  0  0  0  0  0  0  0  0  0
   -4.1400   -0.3320   -0.2620 C   0  0  0  0  0  0  0  0  0  0  0  0
    0.8740   -0.7180    0.3210 C   0  0  0  0  0  0  0  0  0  0  0  0
    0.3730    0.1230    1.1160 O   0  0  0  0  0  0  0  0  0  0  0  0
    2.2760   -0.7720    0.2070 N   0  0  0  0  0  0  0  0  0  0  0  0
    3.2180    0.0230    0.9110 C   0  0  0  0  0  0  0  0  0  0  0  0
    2.9660    0.9460    1.8600 C   0  0  0  0  0  0  0  0  0  0  0  0
    3.9620    1.6840    2.4950 C   0  0  0  0  0  0  0  0  0  0  0  0
    5.2830    1.4970    2.1700 C   0  0  0  0  0  0  0  0  0  0  0  0
    5.5700    0.5580    1.2020 C   0  0  0  0  0  0  0  0  0  0  0  0
    6.9140    0.3840    0.8890 O   0  0  0  0  0  0  0  0  0  0  0  0
    7.3920   -0.5160   -0.0610 C   0  0  0  0  0  0  0  0  0  0  0  0
    8.9010   -0.4060   -0.1070 C   0  0  1  0  0  0  0  0  0  0  0  0
    9.2260    0.9740   -0.6360 C   0  0  0  0  0  0  0  0  0  0  0  0
   10.5340    1.0650   -1.0540 O   0  0  0  0  0  0  0  0  0  0  0  0
   11.3720    0.7170   -0.0080 C   0  0  0  0  0  0  0  0  0  0  0  0
   10.8500    1.2960    1.2920 C   0  0  0  0  0  0  0  0  0  0  0  0
    9.7820    0.4220    1.8720 C   0  0  0  0  0  0  0  0  0  0  0  0
    9.4980   -0.6930    1.0940 O   0  0  0  0  0  0  0  0  0  0  0  0
    4.5690   -0.1630    0.5860 C   0  0  0  0  0  0  0  0  0  0  0  0
  1  2  1  0
  3  2  1  1
  3  4  1  0
  3 20  1  0
  4  5  1  0
  5  6  2  0
  5  7  1  0
  7  8  2  0
  7 19  1  0
  8  9  1  0
  9 10  2  0
 10 11  1  0
 10 18  1  0
 11 12  1  0
 11 13  1  0
 13 14  1  0
 14 15  1  0
 15 16  1  6
 15 17  1  0
 18 19  2  0
 20 21  2  0
 20 22  1  0
 22 23  1  0
 23 24  2  0
 23 37  1  0
 24 25  1  0
 25 26  2  0
 26 27  1  0
 27 28  1  0
 27 37  2  0
 28 29  1  0
 30 29  1  1
 30 31  1  0
 30 36  1  0
 31 32  1  0
 32 33  1  0
 33 34  1  0
 34 35  1  0
 35 36  1  0
M  END
