
     RDKit          3D

 27 28  0  0  0  0  0  0  0  0999 V2000
   -6.1250    1.0720   -1.2830 C   0  0  0  0  0  0  0  0  0  0  0  0
   -6.1800   -0.0130   -0.5500 C   0  0  0  0  0  0  0  0  0  0  0  0
   -7.3860   -0.7990   -0.5310 C   0  0  0  0  0  0  0  0  0  0  0  0
   -7.4820   -1.8670    0.1720 N   0  0  0  0  0  0  0  0  0  0  0  0
   -5.0410   -0.4960    0.2790 C   0  0  1  0  0  0  0  0  0  0  0  0
   -4.6330   -1.7730   -0.1510 O   0  0  0  0  0  0  0  0  0  0  0  0
   -3.8390    0.3830    0.2440 C   0  0  2  0  0  0  0  0  0  0  0  0
   -2.7790   -0.3080    1.1150 C   0  0  0  0  0  0  0  0  0  0  0  0
   -1.5370    0.4260    0.8400 N   0  0  0  0  0  0  0  0  0  0  0  0
   -0.3590   -0.2620    0.5300 C   0  0  0  0  0  0  0  0  0  0  0  0
   -0.3500   -1.5000    0.4830 O   0  0  0  0  0  0  0  0  0  0  0  0
    0.8630    0.4790    0.2600 C   0  0  0  0  0  0  0  0  0  0  0  0
    0.8850    1.7470    0.3010 O   0  0  0  0  0  0  0  0  0  0  0  0
    2.0760   -0.1690   -0.0580 N   0  0  0  0  0  0  0  0  0  0  0  0
    3.3250    0.5370   -0.3350 C   0  0  1  0  0  0  0  0  0  0  0  0
    4.2920    0.0590    0.6770 C   0  0  0  0  0  0  0  0  0  0  0  0
    5.3840   -0.6250    0.4100 C   0  0  0  0  0  0  0  0  0  0  0  0
    6.2390   -1.0320    1.4680 N   0  0  0  0  0  0  0  0  0  0  0  0
    5.7740   -0.9970   -0.9420 C   0  0  0  0  0  0  0  0  0  0  0  0
    6.9270   -1.7170   -1.2120 O   0  0  0  0  0  0  0  0  0  0  0  0
    8.1530   -0.9800   -1.1860 C   0  0  0  0  0  0  0  0  0  0  0  0
    4.9620   -0.6070   -1.9100 C   0  0  0  0  0  0  0  0  0  0  0  0
    3.7520    0.1450   -1.6770 C   0  0  0  0  0  0  0  0  0  0  0  0
    2.9960    0.5030   -2.6380 O   0  0  0  0  0  0  0  0  0  0  0  0
   -1.6440    1.8730    0.9170 C   0  0  0  0  0  0  0  0  0  0  0  0
   -3.0320    2.2390    1.3830 C   0  0  0  0  0  0  0  0  0  0  0  0
   -4.0400    1.6740    0.6540 O   0  0  0  0  0  0  0  0  0  0  0  0
  1  2  2  0
  2  3  1  0
  2  5  1  0
  3  4  2  0
  5  6  1  6
  5  7  1  0
  7  8  1  1
  7 27  1  0
  8  9  1  0
  9 10  1  0
  9 25  1  0
 10 11  2  0
 10 12  1  0
 12 13  2  0
 12 14  1  0
 15 14  1  1
 15 16  1  0
 15 23  1  0
 16 17  2  0
 17 18  1  0
 17 19  1  0
 19 20  1  0
 19 22  2  0
 20 21  1  0
 22 23  1  0
 23 24  2  0
 25 26  1  0
 26 27  1  0
M  END
