
     RDKit          3D

 29 30  0  0  0  0  0  0  0  0999 V2000
   -6.6940    0.7170   -1.6440 C   0  0  0  0  0  0  0  0  0  0  0  0
   -5.7530    0.6240   -0.6020 O   0  0  0  0  0  0  0  0  0  0  0  0
   -5.4790   -0.5590    0.0330 C   0  0  0  0  0  0  0  0  0  0  0  0
   -6.1700   -1.6920   -0.3880 C   0  0  0  0  0  0  0  0  0  0  0  0
   -5.9400   -2.9010    0.2070 C   0  0  0  0  0  0  0  0  0  0  0  0
   -5.0060   -2.9750    1.2360 C   0  0  0  0  0  0  0  0  0  0  0  0
   -4.3320   -1.8450    1.6400 C   0  0  0  0  0  0  0  0  0  0  0  0
   -4.5510   -0.6220    1.0520 C   0  0  0  0  0  0  0  0  0  0  0  0
   -3.8620    0.4680    1.4840 O   0  0  0  0  0  0  0  0  0  0  0  0
   -2.6150    0.8930    0.9640 C   0  0  2  0  0  0  0  0  0  0  0  0
   -1.6020   -0.2020    1.1570 C   0  0  0  0  0  0  0  0  0  0  0  0
   -0.2740    0.2530    0.6020 C   0  0  0  0  0  0  0  0  0  0  0  0
    0.7960   -0.8050    0.7610 C   0  0  0  0  0  0  0  0  0  0  0  0
    2.0480   -0.2780    0.1960 C   0  0  0  0  0  0  0  0  0  0  0  0
    2.0870    0.8250   -0.2830 O   0  0  0  0  0  0  0  0  0  0  0  0
    3.2730   -1.1050    0.2150 C   0  0  0  0  0  0  0  0  0  0  0  0
    4.4470   -0.3830   -0.4120 C   0  0  2  0  0  0  0  0  0  0  0  0
    4.2130   -0.0310   -1.7780 N   0  0  0  0  0  0  0  0  0  0  0  0
    5.6690   -1.2570   -0.2160 C   0  0  0  0  0  0  0  0  0  0  0  0
    6.8460   -0.5380   -0.8420 C   0  0  2  0  0  0  0  0  0  0  0  0
    8.0820   -1.3990   -0.6550 C   0  0  0  0  0  0  0  0  0  0  0  0
    6.9900    0.7250   -0.1410 N   0  0  0  0  0  0  0  0  0  0  0  0
   -2.1040    2.1180    1.7050 C   0  0  0  0  0  0  0  0  0  0  0  0
   -3.1830    3.1700    1.8350 C   0  0  0  0  0  0  0  0  0  0  0  0
   -3.7060    3.4270    0.4560 C   0  0  0  0  0  0  0  0  0  0  0  0
   -4.5080    4.3810    0.2990 O   0  0  0  0  0  0  0  0  0  0  0  0
   -3.3150    2.6180   -0.6650 N   0  0  0  0  0  0  0  0  0  0  0  0
   -2.8220    1.2820   -0.4340 C   0  0  0  0  0  0  0  0  0  0  0  0
   -2.6150    0.5770   -1.4370 O   0  0  0  0  0  0  0  0  0  0  0  0
  1  2  1  0
  2  3  1  0
  3  4  2  0
  3  8  1  0
  4  5  1  0
  5  6  2  0
  6  7  1  0
  7  8  2  0
  8  9  1  0
  9 10  1  0
 10 11  1  6
 10 23  1  0
 10 28  1  0
 11 12  1  0
 12 13  1  0
 13 14  1  0
 14 15  2  0
 14 16  1  0
 16 17  1  0
 17 18  1  6
 17 19  1  0
 19 20  1  0
 20 21  1  1
 20 22  1  0
 23 24  1  0
 24 25  1  0
 25 26  2  0
 25 27  1  0
 27 28  1  0
 28 29  2  0
M  CHG  2  18   1  22   1
M  END
