
     RDKit          3D

 31 34  0  0  0  0  0  0  0  0999 V2000
    2.4580   -1.7180   -3.2480 C   0  0  0  0  0  0  0  0  0  0  0  0
    1.8600   -0.9130   -2.1560 C   0  0  0  0  0  0  0  0  0  0  0  0
    2.4390   -0.8470   -1.0020 C   0  0  0  0  0  0  0  0  0  0  0  0
    3.9760   -1.7560   -0.8070 S   0  0  0  0  0  0  0  0  0  0  0  0
    5.0670   -0.5840    0.0170 C   0  0  0  0  0  0  0  0  0  0  0  0
    6.2430   -0.3420   -0.3930 N   0  0  0  0  0  0  0  0  0  0  0  0
    7.0600    0.5760    0.3340 C   0  0  0  0  0  0  0  0  0  0  0  0
    6.6020    1.1370    1.4310 C   0  0  0  0  0  0  0  0  0  0  0  0
    5.2900    0.8710    1.9880 C   0  0  2  0  0  0  0  0  0  0  0  0
    5.3620    0.0010    3.5410 Cl  0  0  0  0  0  0  0  0  0  0  0  0
    4.4280    0.1870    1.0430 N   0  0  0  0  0  0  0  0  0  0  0  0
    3.0220    0.4040    1.0970 C   0  0  0  0  0  0  0  0  0  0  0  0
    2.6130    1.0980    2.0900 O   0  0  0  0  0  0  0  0  0  0  0  0
    2.0060   -0.0770    0.1490 C   0  0  0  0  0  0  0  0  0  0  0  0
    0.7320    0.1070    0.3950 C   0  0  0  0  0  0  0  0  0  0  0  0
   -0.4990   -0.3120   -0.2520 C   0  0  2  0  0  0  0  0  0  0  0  0
   -1.1170    0.8880   -0.8860 C   0  0  0  0  0  0  0  0  0  0  0  0
   -1.4290    1.9910   -0.0340 N   0  0  2  0  0  0  0  0  0  0  0  0
   -2.4570    1.8580    0.9180 C   0  0  0  0  0  0  0  0  0  0  0  0
   -3.8310    2.0850    0.3030 C   0  0  0  0  0  0  0  0  0  0  0  0
   -3.9820    3.5850    0.1350 C   0  0  0  0  0  0  0  0  0  0  0  0
   -2.5990    4.1310   -0.1950 C   0  0  0  0  0  0  0  0  0  0  0  0
   -1.7900    3.1020   -0.9410 C   0  0  0  0  0  0  0  0  0  0  0  0
   -1.3470   -0.8950    0.7910 N   0  0  0  0  0  0  0  0  0  0  0  0
   -0.6170   -2.0270    1.3300 C   0  0  0  0  0  0  0  0  0  0  0  0
   -0.3200   -3.1110    0.3630 C   0  0  0  0  0  0  0  0  0  0  0  0
   -1.2060   -3.2580   -0.6580 O   0  0  0  0  0  0  0  0  0  0  0  0
   -2.4460   -2.7390   -0.4660 C   0  0  1  0  0  0  0  0  0  0  0  0
   -3.2970   -3.8430    0.1780 C   0  0  0  0  0  0  0  0  0  0  0  0
   -4.5840   -3.3950    0.4080 O   0  0  0  0  0  0  0  0  0  0  0  0
   -2.5660   -1.4540    0.2510 C   0  0  0  0  0  0  0  0  0  0  0  0
  1  2  1  0
  2  3  2  3
  3  4  1  0
  3 14  1  0
  4  5  1  0
  5  6  2  0
  5 11  1  0
  6  7  1  0
  7  8  2  0
  8  9  1  0
  9 10  1  1
  9 11  1  0
 11 12  1  0
 12 13  2  0
 12 14  1  0
 14 15  2  3
 15 16  1  0
 16 17  1  1
 16 24  1  0
 18 17  1  6
 18 19  1  0
 18 23  1  0
 19 20  1  0
 20 21  1  0
 21 22  1  0
 22 23  1  0
 24 25  1  0
 24 31  1  0
 25 26  1  0
 26 27  1  0
 27 28  1  0
 28 29  1  1
 28 31  1  0
 29 30  1  0
M  CHG  1  18   1
M  END
