
     RDKit          3D

 29 30  0  0  0  0  0  0  0  0999 V2000
    8.3220    1.4760    1.6930 C   0  0  0  0  0  0  0  0  0  0  0  0
    8.1410    0.4260    0.5900 C   0  0  0  0  0  0  0  0  0  0  0  0
    6.9350    0.7440   -0.1280 N   0  0  0  0  0  0  0  0  0  0  0  0
    6.2660   -0.4810   -0.4840 C   0  0  2  0  0  0  0  0  0  0  0  0
    6.6950   -0.9440   -1.8470 C   0  0  0  0  0  0  0  0  0  0  0  0
    4.7910   -0.4000   -0.3680 C   0  0  0  0  0  0  0  0  0  0  0  0
    4.1990    0.1330    0.7370 C   0  0  0  0  0  0  0  0  0  0  0  0
    2.8030    0.2060    0.8280 C   0  0  0  0  0  0  0  0  0  0  0  0
    2.0040   -0.2530   -0.1840 C   0  0  0  0  0  0  0  0  0  0  0  0
    0.5490   -0.2390   -0.2090 C   0  0  0  0  0  0  0  0  0  0  0  0
   -0.1320   -0.1120    1.0290 N   0  0  0  0  0  0  0  0  0  0  0  0
   -1.4140    0.5380    0.8440 C   0  0  0  0  0  0  0  0  0  0  0  0
   -2.3280   -0.2190   -0.0770 C   0  0  2  0  0  0  0  0  0  0  0  0
   -1.8050   -0.3660   -1.3590 O   0  0  0  0  0  0  0  0  0  0  0  0
   -3.6250    0.5500   -0.2110 C   0  0  0  0  0  0  0  0  0  0  0  0
   -4.5040   -0.2120   -1.0620 N   0  0  0  0  0  0  0  0  0  0  0  0
   -4.9680   -1.4460   -0.4850 C   0  0  0  0  0  0  0  0  0  0  0  0
   -6.4600   -1.5220   -0.3690 C   0  0  0  0  0  0  0  0  0  0  0  0
   -6.9320   -0.2200    0.2410 C   0  0  0  0  0  0  0  0  0  0  0  0
   -7.7890   -0.2490    1.4030 C   0  0  0  0  0  0  0  0  0  0  0  0
   -8.2800    0.6730    2.0470 O   0  0  0  0  0  0  0  0  0  0  0  0
   -8.1250   -1.5390    1.8880 O   0  0  0  0  0  0  0  0  0  0  0  0
   -6.4930    0.8490   -0.3760 C   0  0  0  0  0  0  0  0  0  0  0  0
   -6.8030    2.1710    0.0140 C   0  0  0  0  0  0  0  0  0  0  0  0
   -6.2830    3.1000   -0.7130 O   0  0  0  0  0  0  0  0  0  0  0  0
   -7.5620    2.6140    1.0340 O   0  0  0  0  0  0  0  0  0  0  0  0
   -5.5960    0.5940   -1.5780 C   0  0  0  0  0  0  0  0  0  0  0  0
    2.6440   -0.7970   -1.3070 C   0  0  0  0  0  0  0  0  0  0  0  0
    4.0230   -0.8690   -1.3990 C   0  0  0  0  0  0  0  0  0  0  0  0
  1  2  1  0
  2  3  1  0
  3  4  1  0
  4  5  1  6
  4  6  1  0
  6  7  2  0
  6 29  1  0
  7  8  1  0
  8  9  2  0
  9 10  1  0
  9 28  1  0
 10 11  1  0
 11 12  1  0
 12 13  1  0
 13 14  1  6
 13 15  1  0
 15 16  1  0
 16 17  1  0
 16 27  1  0
 17 18  1  0
 18 19  1  0
 19 20  1  0
 19 23  2  0
 20 21  2  0
 20 22  1  0
 23 24  1  0
 23 27  1  0
 24 25  2  0
 24 26  1  0
 28 29  2  0
M  CHG  2   3   1  11   1
M  END
