
     RDKit          3D

 29 30  0  0  0  0  0  0  0  0999 V2000
   -3.3230    5.4960   -1.5150 C   0  0  0  0  0  0  0  0  0  0  0  0
   -2.4730    4.6750   -0.5710 C   0  0  0  0  0  0  0  0  0  0  0  0
   -2.4940    3.2120   -0.9170 C   0  0  0  0  0  0  0  0  0  0  0  0
   -1.6590    2.4920    0.0340 N   0  0  0  0  0  0  0  0  0  0  0  0
   -2.1790    1.1130    0.1790 C   0  0  0  0  0  0  0  0  0  0  0  0
   -1.5420    0.4300    1.3290 C   0  0  2  0  0  0  0  0  0  0  0  0
   -1.8490    1.2300    2.4920 O   0  0  0  0  0  0  0  0  0  0  0  0
   -0.0710    0.3590    1.3330 C   0  0  0  0  0  0  0  0  0  0  0  0
    0.6690   -0.3270    0.2680 C   0  0  0  0  0  0  0  0  0  0  0  0
    2.1490   -0.1130    0.5730 C   0  0  0  0  0  0  0  0  0  0  0  0
    2.5040    0.8120    1.3850 O   0  0  0  0  0  0  0  0  0  0  0  0
    3.1390   -0.8770    0.0140 O   0  0  0  0  0  0  0  0  0  0  0  0
    4.5030   -0.6810    0.2750 C   0  0  1  0  0  0  0  0  0  0  0  0
    5.0300   -1.7650    1.2300 C   0  0  0  0  0  0  0  0  0  0  0  0
    5.3640   -0.6070   -0.9030 C   0  0  0  0  0  0  0  0  0  0  0  0
    6.3300    0.3450   -1.1410 C   0  0  0  0  0  0  0  0  0  0  0  0
    6.9120    0.0560   -2.3590 C   0  0  0  0  0  0  0  0  0  0  0  0
    6.2640   -1.0770   -2.8090 C   0  0  0  0  0  0  0  0  0  0  0  0
    5.3700   -1.4420   -1.9480 O   0  0  0  0  0  0  0  0  0  0  0  0
   -2.2720   -0.8750    1.6680 C   0  0  1  0  0  0  0  0  0  0  0  0
   -1.8060   -1.4800    2.9420 C   0  0  0  0  0  0  0  0  0  0  0  0
   -3.6200   -0.3870    1.9300 O   0  0  0  0  0  0  0  0  0  0  0  0
   -2.4110   -1.8030    0.5280 C   0  0  0  0  0  0  0  0  0  0  0  0
   -3.3390   -1.5910   -0.4830 C   0  0  0  0  0  0  0  0  0  0  0  0
   -3.4510   -2.4820   -1.5400 C   0  0  0  0  0  0  0  0  0  0  0  0
   -2.6700   -3.5690   -1.6160 N   0  0  0  0  0  0  0  0  0  0  0  0
   -1.7720   -3.7830   -0.6460 C   0  0  0  0  0  0  0  0  0  0  0  0
   -0.9360   -4.9520   -0.7480 N   0  0  0  0  0  0  0  0  0  0  0  0
   -1.6400   -2.9160    0.4130 C   0  0  0  0  0  0  0  0  0  0  0  0
  1  2  1  0
  2  3  1  0
  3  4  1  0
  4  5  1  0
  5  6  1  0
  6  7  1  1
  6  8  1  0
  6 20  1  0
  8  9  1  0
  9 10  1  0
 10 11  2  0
 10 12  1  0
 12 13  1  0
 13 14  1  1
 13 15  1  0
 15 16  2  0
 15 19  1  0
 16 17  1  0
 17 18  2  0
 18 19  1  0
 20 21  1  1
 20 22  1  0
 20 23  1  0
 23 24  2  0
 23 29  1  0
 24 25  1  0
 25 26  2  0
 26 27  1  0
 27 28  1  0
 27 29  2  0
M  CHG  2   4   1  26   1
M  END
