
     RDKit          3D

 29 30  0  0  0  0  0  0  0  0999 V2000
    4.7100   -2.6040    0.6520 C   0  0  0  0  0  0  0  0  0  0  0  0
    4.0030   -1.3300    0.3860 C   0  0  0  0  0  0  0  0  0  0  0  0
    2.6290   -1.3570    0.1630 C   0  0  0  0  0  0  0  0  0  0  0  0
    1.9470   -0.1890   -0.0870 C   0  0  0  0  0  0  0  0  0  0  0  0
    0.5450   -0.1440   -0.3090 N   0  0  0  0  0  0  0  0  0  0  0  0
   -0.1720   -1.3250    0.0020 C   0  0  0  0  0  0  0  0  0  0  0  0
   -1.6030   -0.9820    0.4180 C   0  0  2  0  0  0  0  0  0  0  0  0
   -2.4410   -0.4500   -0.6860 C   0  0  0  0  0  0  0  0  0  0  0  0
   -3.8050   -0.1910   -0.1990 N   0  0  0  0  0  0  0  0  0  0  0  0
   -4.3850   -1.4890    0.0920 C   0  0  0  0  0  0  0  0  0  0  0  0
   -5.8710   -1.2720    0.3890 C   0  0  2  0  0  0  0  0  0  0  0  0
   -6.4380   -2.5220    0.6920 O   0  0  0  0  0  0  0  0  0  0  0  0
   -6.4690   -0.7030   -0.8700 C   0  0  0  0  0  0  0  0  0  0  0  0
   -6.1960   -1.6630   -1.9410 N   0  0  0  0  0  0  0  0  0  0  0  0
   -3.8040    0.6480    0.9580 C   0  0  2  0  0  0  0  0  0  0  0  0
   -4.6570    1.8880    0.8470 C   0  0  0  0  0  0  0  0  0  0  0  0
   -4.2750    2.8150   -0.2530 C   0  0  0  0  0  0  0  0  0  0  0  0
   -5.1780    3.9020   -0.1960 O   0  0  0  0  0  0  0  0  0  0  0  0
   -2.3660    1.0190    1.2830 C   0  0  0  0  0  0  0  0  0  0  0  0
   -1.6660   -0.1500    1.5220 O   0  0  0  0  0  0  0  0  0  0  0  0
    2.6070    1.0480   -0.1260 C   0  0  0  0  0  0  0  0  0  0  0  0
    1.8730    2.3050   -0.4000 C   0  0  0  0  0  0  0  0  0  0  0  0
    3.9510    1.0620    0.0940 C   0  0  0  0  0  0  0  0  0  0  0  0
    4.6480   -0.1140    0.3490 C   0  0  0  0  0  0  0  0  0  0  0  0
    6.1140   -0.1120    0.6020 C   0  0  0  0  0  0  0  0  0  0  0  0
    6.6630    1.1480    0.5500 O   0  0  0  0  0  0  0  0  0  0  0  0
    8.0100    1.1260    0.8010 C   0  0  0  0  0  0  0  0  0  0  0  0
    8.8330    0.3120   -0.1360 C   0  0  0  0  0  0  0  0  0  0  0  0
   10.1760    0.4270    0.2950 O   0  0  0  0  0  0  0  0  0  0  0  0
  1  2  1  0
  2  3  2  0
  2 24  1  0
  3  4  1  0
  4  5  1  0
  4 21  2  0
  5  6  1  0
  7  6  1  6
  7  8  1  0
  7 20  1  0
  8  9  1  0
  9 10  1  0
  9 15  1  0
 10 11  1  0
 11 12  1  6
 11 13  1  0
 13 14  1  0
 15 16  1  6
 15 19  1  0
 16 17  1  0
 17 18  1  0
 19 20  1  0
 21 22  1  0
 21 23  1  0
 23 24  2  0
 24 25  1  0
 25 26  1  0
 26 27  1  0
 27 28  1  0
 28 29  1  0
M  CHG  2   5   1  14   1
M  END
