
     RDKit          3D

 29 30  0  0  0  0  0  0  0  0999 V2000
   -4.9980   -3.7330   -0.9560 C   0  0  0  0  0  0  0  0  0  0  0  0
   -4.7540   -3.5910    0.5310 C   0  0  0  0  0  0  0  0  0  0  0  0
   -4.9270   -2.1880    0.9800 C   0  0  0  0  0  0  0  0  0  0  0  0
   -6.0380   -1.6450    1.5210 N   0  0  0  0  0  0  0  0  0  0  0  0
   -5.8590   -0.3950    1.7360 O   0  0  0  0  0  0  0  0  0  0  0  0
   -4.6100   -0.0060    1.3570 C   0  0  0  0  0  0  0  0  0  0  0  0
   -4.1990    1.4170    1.5400 C   0  0  0  0  0  0  0  0  0  0  0  0
   -5.3090    2.0940    2.0810 O   0  0  0  0  0  0  0  0  0  0  0  0
   -4.0070   -1.1120    0.8770 C   0  0  0  0  0  0  0  0  0  0  0  0
   -2.6230   -1.3300    0.4260 C   0  0  1  0  0  0  0  0  0  0  0  0
   -2.4710   -1.3370   -1.0950 C   0  0  0  0  0  0  0  0  0  0  0  0
   -1.6620   -0.3180    0.8590 N   0  0  0  0  0  0  0  0  0  0  0  0
   -1.2750    0.6430   -0.1100 C   0  0  0  0  0  0  0  0  0  0  0  0
    0.2460    0.7940   -0.3380 C   0  0  1  0  0  0  0  0  0  0  0  0
    0.4400    1.7630   -1.4700 C   0  0  0  0  0  0  0  0  0  0  0  0
   -0.1060    3.1150   -1.3290 C   0  0  0  0  0  0  0  0  0  0  0  0
    0.2680    3.9400   -2.5580 C   0  0  0  0  0  0  0  0  0  0  0  0
   -0.1880    5.2490   -2.4930 O   0  0  0  0  0  0  0  0  0  0  0  0
    0.8030    1.2560    0.9460 C   0  0  0  0  0  0  0  0  0  0  0  0
    2.2090    1.5570    1.1770 C   0  0  2  0  0  0  0  0  0  0  0  0
    2.8500    2.5890    0.4000 N   0  0  0  0  0  0  0  0  0  0  0  0
    3.1460    0.4920    1.4730 C   0  0  0  0  0  0  0  0  0  0  0  0
    3.8050   -0.3480    0.7170 C   0  0  0  0  0  0  0  0  0  0  0  0
    3.8120   -0.4970   -0.7390 C   0  0  0  0  0  0  0  0  0  0  0  0
    4.7780   -1.6470   -1.0490 C   0  0  0  0  0  0  0  0  0  0  0  0
    5.5890   -1.7480    0.2070 C   0  0  2  0  0  0  0  0  0  0  0  0
    5.9930   -3.1970    0.4070 C   0  0  0  0  0  0  0  0  0  0  0  0
    6.6780   -3.3460    1.6260 O   0  0  0  0  0  0  0  0  0  0  0  0
    4.7020   -1.3360    1.2380 O   0  0  0  0  0  0  0  0  0  0  0  0
  1  2  1  0
  2  3  1  0
  3  4  2  0
  3  9  1  0
  4  5  1  0
  5  6  1  0
  6  7  1  0
  6  9  2  0
  7  8  1  0
  9 10  1  0
 10 11  1  6
 10 12  1  0
 12 13  1  0
 14 13  1  1
 14 15  1  0
 14 19  1  0
 15 16  1  0
 16 17  1  0
 17 18  1  0
 19 20  1  0
 20 21  1  6
 20 22  1  0
 22 23  2  3
 23 24  1  0
 23 29  1  0
 24 25  1  0
 25 26  1  0
 26 27  1  1
 26 29  1  0
 27 28  1  0
M  CHG  2  12   1  21   1
M  END
