
     RDKit          3D

 31 34  0  0  0  0  0  0  0  0999 V2000
    6.7910    2.5780   -0.4390 C   0  0  0  0  0  0  0  0  0  0  0  0
    6.0850    2.0540    0.8010 C   0  0  0  0  0  0  0  0  0  0  0  0
    5.0320    1.1710    0.4000 N   0  0  2  0  0  0  0  0  0  0  0  0
    4.1200    1.0340    1.5280 C   0  0  0  0  0  0  0  0  0  0  0  0
    5.5550   -0.1180    0.0010 C   0  0  0  0  0  0  0  0  0  0  0  0
    4.4450   -1.1260   -0.0900 C   0  0  0  0  0  0  0  0  0  0  0  0
    3.1340   -0.9580    0.1430 N   0  0  0  0  0  0  0  0  0  0  0  0
    2.4900   -2.1340   -0.0580 C   0  0  0  0  0  0  0  0  0  0  0  0
    1.0610   -2.3550    0.0950 C   0  0  0  0  0  0  0  0  0  0  0  0
    0.5130   -3.5910   -0.1350 C   0  0  0  0  0  0  0  0  0  0  0  0
   -0.8560   -3.7770    0.0180 C   0  0  0  0  0  0  0  0  0  0  0  0
   -1.5530   -5.3550   -0.2760 Cl  0  0  0  0  0  0  0  0  0  0  0  0
   -1.6580   -2.7030    0.4050 C   0  0  0  0  0  0  0  0  0  0  0  0
   -1.1180   -1.4610    0.6370 C   0  0  0  0  0  0  0  0  0  0  0  0
   -1.9710   -0.3240    1.0470 C   0  0  0  0  0  0  0  0  0  0  0  0
   -2.4790    0.4200   -0.1130 N   0  0  2  0  0  0  0  0  0  0  0  0
   -2.3960    1.8300    0.0840 C   0  0  0  0  0  0  0  0  0  0  0  0
   -3.3200    2.3950    1.0960 C   0  0  0  0  0  0  0  0  0  0  0  0
   -4.7230    1.8930    1.0500 C   0  0  0  0  0  0  0  0  0  0  0  0
   -5.2300    1.8530   -0.2810 N   0  0  0  0  0  0  0  0  0  0  0  0
   -4.6730    0.8950   -1.1440 C   0  0  2  0  0  0  0  0  0  0  0  0
   -5.6580    0.1550   -1.9210 C   0  0  0  0  0  0  0  0  0  0  0  0
   -7.0160    0.2060   -1.3080 C   0  0  0  0  0  0  0  0  0  0  0  0
   -6.9300    1.5930   -0.2050 S   0  0  1  0  0  0  0  0  0  0  0  0
   -7.3700    1.1980    1.1760 O   0  0  0  0  0  0  0  0  0  0  0  0
   -7.7160    2.7650   -0.6960 O   0  0  0  0  0  0  0  0  0  0  0  0
   -3.7560   -0.1030   -0.4320 C   0  0  0  0  0  0  0  0  0  0  0  0
    0.2380   -1.2930    0.4810 C   0  0  0  0  0  0  0  0  0  0  0  0
    3.3970   -3.0120   -0.4100 O   0  0  0  0  0  0  0  0  0  0  0  0
    4.5910   -2.4500   -0.4430 C   0  0  0  0  0  0  0  0  0  0  0  0
    5.8370   -3.1770   -0.8080 C   0  0  0  0  0  0  0  0  0  0  0  0
  1  2  1  0
  2  3  1  0
  3  4  1  1
  3  5  1  0
  5  6  1  0
  6  7  1  0
  6 30  2  0
  7  8  2  0
  8  9  1  0
  8 29  1  0
  9 10  2  0
  9 28  1  0
 10 11  1  0
 11 12  1  0
 11 13  2  0
 13 14  1  0
 14 15  1  0
 14 28  2  0
 16 15  1  1
 16 17  1  0
 16 27  1  0
 17 18  1  0
 18 19  1  0
 19 20  1  0
 20 21  1  0
 20 24  1  0
 21 22  1  1
 21 27  1  0
 22 23  1  0
 24 23  1  6
 24 25  2  0
 24 26  2  0
 29 30  1  0
 30 31  1  0
M  CHG  2   3   1  16   1
M  END
