
     RDKit          3D

 14 14  0  0  0  0  0  0  0  0999 V2000
    2.8860    0.9040    0.7850 N   0  0  0  0  0  0  0  0  0  0  0  0
    1.4330    1.1500    0.7560 C   0  0  0  0  0  0  0  0  0  0  0  0
    0.8520    0.0400   -0.0900 C   0  0  1  0  0  0  0  0  0  0  0  0
    1.5050    0.1680   -1.4480 C   0  0  0  0  0  0  0  0  0  0  0  0
    1.2330   -0.8480   -2.3220 O   0  0  0  0  0  0  0  0  0  0  0  0
    1.3920   -1.2190    0.5640 C   0  0  0  0  0  0  0  0  0  0  0  0
    2.7660   -1.2490    0.6290 O   0  0  0  0  0  0  0  0  0  0  0  0
   -0.5680    0.0020   -0.1250 N   0  0  0  0  0  0  0  0  0  0  0  0
   -1.2070   -1.0380   -0.9080 C   0  0  0  0  0  0  0  0  0  0  0  0
   -2.7090   -1.0490   -0.7380 C   0  0  0  0  0  0  0  0  0  0  0  0
   -3.0670   -0.7580    0.7130 C   0  0  0  0  0  0  0  0  0  0  0  0
   -2.6080    0.5910    0.9540 N   0  0  0  0  0  0  0  0  0  0  0  0
   -1.4380    0.9110    0.5500 C   0  0  0  0  0  0  0  0  0  0  0  0
   -1.0000    2.2260    0.7830 N   0  0  0  0  0  0  0  0  0  0  0  0
  1  2  1  0
  3  2  1  1
  3  4  1  0
  3  6  1  0
  3  8  1  0
  4  5  1  0
  6  7  1  0
  8  9  1  0
  8 13  1  0
  9 10  1  0
 10 11  1  0
 11 12  1  0
 12 13  2  0
 13 14  1  0
M  CHG  1  12   1
M  END
