
     RDKit          3D

 15 14  0  0  0  0  0  0  0  0999 V2000
    4.0860    1.5580   -0.9550 C   0  0  0  0  0  0  0  0  0  0  0  0
    2.8440    1.0590   -0.4510 N   0  0  0  0  0  0  0  0  0  0  0  0
    2.6090    0.9370    0.8090 C   0  0  0  0  0  0  0  0  0  0  0  0
    3.6200    1.3110    1.7210 N   0  0  0  0  0  0  0  0  0  0  0  0
    1.2900    0.4080    1.2750 C   0  0  0  0  0  0  0  0  0  0  0  0
    0.5210    0.1340    0.1790 O   0  0  0  0  0  0  0  0  0  0  0  0
   -0.7480   -0.3610    0.4380 C   0  0  2  0  0  0  0  0  0  0  0  0
   -0.6330   -1.8550    0.0600 C   0  0  0  0  0  0  0  0  0  0  0  0
   -1.9170   -2.5790    0.2710 C   0  0  0  0  0  0  0  0  0  0  0  0
   -1.6820   -3.9720   -0.1180 N   0  0  0  0  0  0  0  0  0  0  0  0
   -1.7840    0.3050   -0.3760 C   0  0  0  0  0  0  0  0  0  0  0  0
   -1.9100    1.7600   -0.1870 C   0  0  0  0  0  0  0  0  0  0  0  0
   -1.1880    2.3790    0.6310 O   0  0  0  0  0  0  0  0  0  0  0  0
   -2.8760    2.5220   -0.9440 N   0  0  0  0  0  0  0  0  0  0  0  0
   -2.9530    3.8250   -0.7400 O   0  0  0  0  0  0  0  0  0  0  0  0
  1  2  1  0
  2  3  2  3
  3  4  1  0
  3  5  1  0
  5  6  1  0
  6  7  1  0
  7  8  1  6
  7 11  1  0
  8  9  1  0
  9 10  1  0
 11 12  1  0
 12 13  2  0
 12 14  1  0
 14 15  1  0
M  CHG  1  10   1
M  END
