
     RDKit          3D

 28 30  0  0  0  0  0  0  0  0999 V2000
   -2.7190   -0.7090   -1.4610 C   0  0  0  0  0  0  0  0  0  0  0  0
   -2.0050    0.5480   -0.9790 C   0  0  1  0  0  0  0  0  0  0  0  0
   -1.6500    0.4040    0.4700 C   0  0  0  0  0  0  0  0  0  0  0  0
   -0.4570    0.3300    0.8410 O   0  0  0  0  0  0  0  0  0  0  0  0
   -2.6770    0.3510    1.4440 N   0  0  0  0  0  0  0  0  0  0  0  0
   -2.3300    0.2000    2.8640 C   0  0  0  0  0  0  0  0  0  0  0  0
   -3.5190   -0.4980    3.4990 C   0  0  0  0  0  0  0  0  0  0  0  0
   -3.9990   -1.4410    2.6170 O   0  0  0  0  0  0  0  0  0  0  0  0
   -4.7860   -0.8080    1.6530 C   0  0  0  0  0  0  0  0  0  0  0  0
   -4.0840    0.4410    1.1370 C   0  0  0  0  0  0  0  0  0  0  0  0
   -0.8090    0.6550   -1.7920 N   0  0  0  0  0  0  0  0  0  0  0  0
   -0.5160    1.7890   -2.6450 C   0  0  0  0  0  0  0  0  0  0  0  0
    0.6400    1.3010   -3.5050 C   0  0  0  0  0  0  0  0  0  0  0  0
    1.3690    0.4240   -2.5170 C   0  0  2  0  0  0  0  0  0  0  0  0
    2.3770   -0.3700   -3.0470 N   0  0  0  0  0  0  0  0  0  0  0  0
    3.9420   -0.2160   -2.4840 S   0  0  2  0  0  0  0  0  0  0  0  0
    4.5700    1.1070   -2.7540 O   0  0  0  0  0  0  0  0  0  0  0  0
    4.8150   -1.2580   -3.1650 O   0  0  0  0  0  0  0  0  0  0  0  0
    3.9900   -0.6130   -0.7650 C   0  0  0  0  0  0  0  0  0  0  0  0
    4.0840    0.2920    0.1640 C   0  0  0  0  0  0  0  0  0  0  0  0
    4.1170   -0.0930    1.5310 C   0  0  0  0  0  0  0  0  0  0  0  0
    4.0750   -1.2530    2.2170 C   0  0  0  0  0  0  0  0  0  0  0  0
    4.1300   -1.2630    3.5430 C   0  0  0  0  0  0  0  0  0  0  0  0
    4.2330   -0.0570    4.2340 C   0  0  0  0  0  0  0  0  0  0  0  0
    4.3260    0.2840    5.9640 Cl  0  0  0  0  0  0  0  0  0  0  0  0
    4.2530    1.1780    2.9020 S   0  0  0  0  0  0  0  0  0  0  0  0
    0.2360   -0.3060   -1.8800 C   0  0  0  0  0  0  0  0  0  0  0  0
    0.2220   -1.5060   -1.5070 O   0  0  0  0  0  0  0  0  0  0  0  0
  2  1  1  6
  2  3  1  0
  2 11  1  0
  3  4  2  0
  3  5  1  0
  5  6  1  0
  5 10  1  0
  6  7  1  0
  7  8  1  0
  8  9  1  0
  9 10  1  0
 11 12  1  0
 11 27  1  0
 12 13  1  0
 13 14  1  0
 14 15  1  6
 14 27  1  0
 16 15  1  6
 16 17  2  0
 16 18  2  0
 16 19  1  0
 19 20  2  3
 20 21  1  0
 21 22  2  0
 21 26  1  0
 22 23  1  0
 23 24  2  0
 24 25  1  0
 24 26  1  0
 27 28  2  0
M  END
