
     RDKit          3D

 15 14  0  0  0  0  0  0  0  0999 V2000
   -4.0360    0.7650   -1.0920 N   0  0  0  0  0  0  0  0  0  0  0  0
   -4.4750    0.3030    0.1740 C   0  0  0  0  0  0  0  0  0  0  0  0
   -3.4900    0.5880    1.2480 C   0  0  0  0  0  0  0  0  0  0  0  0
   -2.1420   -0.0160    1.1070 C   0  0  1  0  0  0  0  0  0  0  0  0
   -2.2860   -1.4570    1.0580 N   0  0  0  0  0  0  0  0  0  0  0  0
   -1.2840    0.5590    0.0340 C   0  0  0  0  0  0  0  0  0  0  0  0
   -0.0140   -0.0900   -0.0110 N   0  0  0  0  0  0  0  0  0  0  0  0
    0.9690    0.2910   -0.9540 C   0  0  0  0  0  0  0  0  0  0  0  0
    0.6920    1.2230   -1.7580 O   0  0  0  0  0  0  0  0  0  0  0  0
    2.2440   -0.3390   -1.0210 N   0  0  0  0  0  0  0  0  0  0  0  0
    2.7250   -0.8200    0.0780 C   0  0  0  0  0  0  0  0  0  0  0  0
    3.9700   -1.4310   -0.0020 O   0  0  0  0  0  0  0  0  0  0  0  0
    4.8460   -1.0070   -1.0250 C   0  0  0  0  0  0  0  0  0  0  0  0
    5.1360    0.4810   -0.8500 C   0  0  0  0  0  0  0  0  0  0  0  0
    5.7290    0.7210    0.3850 O   0  0  0  0  0  0  0  0  0  0  0  0
  1  2  1  0
  2  3  1  0
  3  4  1  0
  4  5  1  6
  4  6  1  0
  6  7  1  0
  7  8  1  0
  8  9  2  0
  8 10  1  0
 10 11  2  3
 11 12  1  0
 12 13  1  0
 13 14  1  0
 14 15  1  0
M  CHG  1   5   1
M  END
