
     RDKit          3D

 15 15  0  0  0  0  0  0  0  0999 V2000
   -4.0510    1.3270    0.4430 C   0  0  0  0  0  0  0  0  0  0  0  0
   -3.9490   -0.0680   -0.0160 C   0  0  0  0  0  0  0  0  0  0  0  0
   -2.7560   -0.5840   -0.2440 C   0  0  0  0  0  0  0  0  0  0  0  0
   -1.5590    0.1890   -0.0530 C   0  0  0  0  0  0  0  0  0  0  0  0
   -0.3330   -0.1820   -0.2550 C   0  0  0  0  0  0  0  0  0  0  0  0
    0.7500    0.8110    0.0330 C   0  0  0  0  0  0  0  0  0  0  0  0
    2.0010    0.5420    0.4310 C   0  0  0  0  0  0  0  0  0  0  0  0
    2.7460    1.6940    0.6080 O   0  0  0  0  0  0  0  0  0  0  0  0
    4.1230    1.7980    0.3230 C   0  0  0  0  0  0  0  0  0  0  0  0
    2.5980   -0.7420    0.6750 C   0  0  0  0  0  0  0  0  0  0  0  0
    2.2120   -2.0040    0.4160 C   0  0  0  0  0  0  0  0  0  0  0  0
    0.9580   -2.4300   -0.2490 C   0  0  0  0  0  0  0  0  0  0  0  0
    0.7190   -3.6300   -0.3930 O   0  0  0  0  0  0  0  0  0  0  0  0
   -0.0800   -1.5160   -0.7810 C   0  0  0  0  0  0  0  0  0  0  0  0
   -0.7550   -1.8890   -1.7970 N   0  0  0  0  0  0  0  0  0  0  0  0
  1  2  1  0
  2  3  2  3
  3  4  1  0
  4  5  2  3
  5  6  1  0
  5 14  1  0
  6  7  2  0
  7  8  1  0
  7 10  1  0
  8  9  1  0
 10 11  2  0
 11 12  1  0
 12 13  2  0
 12 14  1  0
 14 15  2  0
M  END
