
     RDKit          3D

 15 16  0  0  0  0  0  0  0  0999 V2000
   -1.4870   -0.5790    1.8040 O   0  0  0  0  0  0  0  0  0  0  0  0
   -1.6640   -0.1680    0.6460 C   0  0  0  0  0  0  0  0  0  0  0  0
   -0.5790    0.1240   -0.2170 N   0  0  0  0  0  0  0  0  0  0  0  0
    0.7740   -0.0570    0.2570 C   0  0  0  0  0  0  0  0  0  0  0  0
    1.7750    0.3120   -0.8220 C   0  0  0  0  0  0  0  0  0  0  0  0
    3.1570    0.1080   -0.2830 C   0  0  0  0  0  0  0  0  0  0  0  0
    4.0720    1.0450   -0.1700 C   0  0  0  0  0  0  0  0  0  0  0  0
    5.2940    0.4510    0.4010 C   0  0  0  0  0  0  0  0  0  0  0  0
    4.9490   -0.9670    0.5990 C   0  0  0  0  0  0  0  0  0  0  0  0
    3.7090   -1.1460    0.1980 C   0  0  0  0  0  0  0  0  0  0  0  0
   -3.0280    0.0220    0.1480 C   0  0  2  0  0  0  0  0  0  0  0  0
   -3.1450    0.4820   -1.1540 O   0  0  0  0  0  0  0  0  0  0  0  0
   -3.9580    0.7980    1.0780 C   0  0  0  0  0  0  0  0  0  0  0  0
   -5.0750   -0.1100    0.5430 C   0  0  0  0  0  0  0  0  0  0  0  0
   -3.9700   -1.1610    0.3630 C   0  0  0  0  0  0  0  0  0  0  0  0
  1  2  2  0
  2  3  1  0
  2 11  1  0
  3  4  1  0
  4  5  1  0
  5  6  1  0
  6  7  2  0
  6 10  1  0
  7  8  1  0
  8  9  1  0
  9 10  2  0
 11 12  1  6
 11 13  1  0
 11 15  1  0
 13 14  1  0
 14 15  1  0
M  END
