
     RDKit          3D

 28 30  0  0  0  0  0  0  0  0999 V2000
   -2.9060   -0.3070   -1.7470 C   0  0  0  0  0  0  0  0  0  0  0  0
   -2.2720    0.6580   -0.7580 C   0  0  1  0  0  0  0  0  0  0  0  0
   -2.4010    0.1560    0.6360 C   0  0  0  0  0  0  0  0  0  0  0  0
   -1.3720   -0.0760    1.3340 O   0  0  0  0  0  0  0  0  0  0  0  0
   -3.6800   -0.0590    1.1720 N   0  0  0  0  0  0  0  0  0  0  0  0
   -4.8810    0.1960    0.4090 C   0  0  0  0  0  0  0  0  0  0  0  0
   -6.0570    0.4680    1.2890 C   0  0  0  0  0  0  0  0  0  0  0  0
   -6.1460   -0.3070    2.4170 O   0  0  0  0  0  0  0  0  0  0  0  0
   -5.1770   -1.2720    2.5570 C   0  0  0  0  0  0  0  0  0  0  0  0
   -3.8240   -0.5490    2.5250 C   0  0  0  0  0  0  0  0  0  0  0  0
   -0.8730    0.8090   -1.0510 N   0  0  0  0  0  0  0  0  0  0  0  0
   -0.1860    2.0060   -1.4700 C   0  0  0  0  0  0  0  0  0  0  0  0
    0.8960    1.4280   -2.3640 C   0  0  0  0  0  0  0  0  0  0  0  0
    1.4410    0.3270   -1.4350 C   0  0  2  0  0  0  0  0  0  0  0  0
    2.1160   -0.6710   -2.0690 N   0  0  0  0  0  0  0  0  0  0  0  0
    3.6110   -1.2910   -1.7600 S   0  0  1  0  0  0  0  0  0  0  0  0
    4.0010   -2.3810   -2.7830 O   0  0  0  0  0  0  0  0  0  0  0  0
    4.7220   -0.2260   -1.8250 O   0  0  0  0  0  0  0  0  0  0  0  0
    3.7610   -2.0330   -0.1870 C   0  0  0  0  0  0  0  0  0  0  0  0
    3.5760   -1.0940    0.9460 C   0  0  0  0  0  0  0  0  0  0  0  0
    4.6310   -0.0480    0.9310 C   0  0  0  0  0  0  0  0  0  0  0  0
    5.8790   -0.0980    1.4830 C   0  0  0  0  0  0  0  0  0  0  0  0
    6.6800    0.9670    1.3960 C   0  0  0  0  0  0  0  0  0  0  0  0
    6.2320    2.0630    0.7640 C   0  0  0  0  0  0  0  0  0  0  0  0
    6.9940    3.6500    0.4500 Cl  0  0  0  0  0  0  0  0  0  0  0  0
    4.5510    1.5940    0.2370 S   0  0  0  0  0  0  0  0  0  0  0  0
    0.0900   -0.2250   -0.9740 C   0  0  0  0  0  0  0  0  0  0  0  0
   -0.0570   -1.4040   -0.6050 O   0  0  0  0  0  0  0  0  0  0  0  0
  2  1  1  6
  2  3  1  0
  2 11  1  0
  3  4  2  0
  3  5  1  0
  5  6  1  0
  5 10  1  0
  6  7  1  0
  7  8  1  0
  8  9  1  0
  9 10  1  0
 11 12  1  0
 11 27  1  0
 12 13  1  0
 13 14  1  0
 14 15  1  6
 14 27  1  0
 15 16  1  0
 16 17  2  0
 16 18  2  0
 16 19  1  1
 19 20  1  0
 20 21  1  0
 21 22  2  0
 21 26  1  0
 22 23  1  0
 23 24  2  0
 24 25  1  0
 24 26  1  0
 27 28  2  0
M  END
