
     RDKit          3D

 15 15  0  0  0  0  0  0  0  0999 V2000
   -4.0420   -0.2590    0.7590 C   0  0  0  0  0  0  0  0  0  0  0  0
   -2.8370   -0.7110    0.9270 C   0  0  0  0  0  0  0  0  0  0  0  0
   -2.7060   -1.8570    1.8110 N   0  0  0  0  0  0  0  0  0  0  0  0
   -1.6110   -0.2040    0.3360 C   0  0  0  0  0  0  0  0  0  0  0  0
   -1.5960    0.8420   -0.4900 O   0  0  0  0  0  0  0  0  0  0  0  0
   -2.4110    1.7740   -1.0220 C   0  0  0  0  0  0  0  0  0  0  0  0
   -0.4870   -0.8210    0.6470 C   0  0  0  0  0  0  0  0  0  0  0  0
   -0.5520   -1.9290    1.5340 O   0  0  0  0  0  0  0  0  0  0  0  0
    0.8130   -0.4300    0.1290 C   0  0  0  0  0  0  0  0  0  0  0  0
    1.8350   -1.1680    0.5750 C   0  0  0  0  0  0  0  0  0  0  0  0
    3.2750   -1.1210    0.3210 C   0  0  0  0  0  0  0  0  0  0  0  0
    3.9710   -0.1050   -0.2110 C   0  0  0  0  0  0  0  0  0  0  0  0
    3.3480    1.1850   -0.6430 C   0  0  0  0  0  0  0  0  0  0  0  0
    2.1590    0.9160   -1.5100 C   0  0  0  0  0  0  0  0  0  0  0  0
    0.8650    0.6860   -0.8190 C   0  0  0  0  0  0  0  0  0  0  0  0
  1  2  2  0
  2  3  1  0
  2  4  1  0
  4  5  1  0
  4  7  2  3
  5  6  1  0
  7  8  1  0
  7  9  1  0
  9 10  2  0
  9 15  1  0
 10 11  1  0
 11 12  2  0
 12 13  1  0
 13 14  1  0
 14 15  1  0
M  END
