
     RDKit          3D

 15 16  0  0  0  0  0  0  0  0999 V2000
   -0.3630   -1.8350    0.7100 O   0  0  0  0  0  0  0  0  0  0  0  0
   -0.2760   -1.0110   -0.3910 C   0  0  2  0  0  0  0  0  0  0  0  0
    1.1520   -0.7910   -0.8340 C   0  0  0  0  0  0  0  0  0  0  0  0
    1.8390   -0.1930    0.2490 O   0  0  0  0  0  0  0  0  0  0  0  0
    3.1900    0.1100    0.0780 C   0  0  0  0  0  0  0  0  0  0  0  0
    4.1990   -0.6000    0.5250 C   0  0  0  0  0  0  0  0  0  0  0  0
    5.4410    0.0790    0.1220 C   0  0  0  0  0  0  0  0  0  0  0  0
    4.9790    1.2710   -0.6150 C   0  0  0  0  0  0  0  0  0  0  0  0
    3.6600    1.2810   -0.6360 C   0  0  0  0  0  0  0  0  0  0  0  0
   -0.9590    0.2950   -0.0390 C   0  0  0  0  0  0  0  0  0  0  0  0
   -2.3230   -0.0230    0.2800 N   0  0  0  0  0  0  0  0  0  0  0  0
   -3.1270    1.0890    0.6390 C   0  0  0  0  0  0  0  0  0  0  0  0
   -4.4120    0.9630   -0.1890 C   0  0  0  0  0  0  0  0  0  0  0  0
   -4.4510   -0.5460   -0.3900 C   0  0  0  0  0  0  0  0  0  0  0  0
   -2.9920   -0.8280   -0.6850 C   0  0  0  0  0  0  0  0  0  0  0  0
  2  1  1  1
  2  3  1  0
  2 10  1  0
  3  4  1  0
  4  5  1  0
  5  6  2  0
  5  9  1  0
  6  7  1  0
  7  8  1  0
  8  9  2  0
 10 11  1  0
 11 12  1  0
 11 15  1  0
 12 13  1  0
 13 14  1  0
 14 15  1  0
M  END
