
     RDKit          3D

 22 24  0  0  0  0  0  0  0  0999 V2000
    5.5950    0.7920   -1.0200 C   0  0  0  0  0  0  0  0  0  0  0  0
    4.6560    0.2120   -0.3220 C   0  0  0  0  0  0  0  0  0  0  0  0
    3.3420    0.6960   -0.3980 C   0  0  0  0  0  0  0  0  0  0  0  0
    2.2870    0.1800    0.2750 C   0  0  0  0  0  0  0  0  0  0  0  0
    0.9160    0.6480    0.2260 C   0  0  0  0  0  0  0  0  0  0  0  0
   -0.1200    0.0640    0.9500 C   0  0  0  0  0  0  0  0  0  0  0  0
   -1.2920    0.7300    0.6920 C   0  0  0  0  0  0  0  0  0  0  0  0
   -2.6550    0.4790    1.2240 C   0  0  0  0  0  0  0  0  0  0  0  0
   -3.4350   -0.4830    0.3600 C   0  0  2  0  0  0  0  0  0  0  0  0
   -3.6180   -0.0070   -1.0230 C   0  0  0  0  0  0  0  0  0  0  0  0
   -4.6510   -0.4520   -1.7240 C   0  0  0  0  0  0  0  0  0  0  0  0
   -5.6060   -1.4080   -1.1370 C   0  0  0  0  0  0  0  0  0  0  0  0
   -5.8360   -1.1030    0.3230 C   0  0  0  0  0  0  0  0  0  0  0  0
   -4.7730   -0.6670    0.9880 C   0  0  0  0  0  0  0  0  0  0  0  0
   -0.9800    1.6970   -0.1680 N   0  0  0  0  0  0  0  0  0  0  0  0
    0.3270    1.6380   -0.4360 N   0  0  0  0  0  0  0  0  0  0  0  0
    0.9680    2.5620   -1.3390 C   0  0  0  0  0  0  0  0  0  0  0  0
    2.5950   -0.9200    1.0960 C   0  0  0  0  0  0  0  0  0  0  0  0
    3.8580   -1.4290    1.2040 C   0  0  0  0  0  0  0  0  0  0  0  0
    4.1970   -2.7940    2.2320 Cl  0  0  0  0  0  0  0  0  0  0  0  0
    4.9250   -0.8660    0.4890 C   0  0  0  0  0  0  0  0  0  0  0  0
    6.1190   -1.3880    0.6260 C   0  0  0  0  0  0  0  0  0  0  0  0
  1  2  2  0
  2  3  1  0
  2 21  1  0
  3  4  2  0
  4  5  1  0
  4 18  1  0
  5  6  2  0
  5 16  1  0
  6  7  1  0
  7  8  1  0
  7 15  2  0
  9  8  1  1
  9 10  1  0
  9 14  1  0
 10 11  2  0
 11 12  1  0
 12 13  1  0
 13 14  2  0
 15 16  1  0
 16 17  1  0
 18 19  2  0
 19 20  1  0
 19 21  1  0
 21 22  2  0
M  END
