
     RDKit          3D

 12 12  0  0  0  0  0  0  0  0999 V2000
   -3.4330   -0.7340   -0.2710 O   0  0  0  0  0  0  0  0  0  0  0  0
   -2.2440   -1.1010   -0.3540 C   0  0  0  0  0  0  0  0  0  0  0  0
   -1.9310   -2.4020   -0.6890 O   0  0  0  0  0  0  0  0  0  0  0  0
   -1.1540   -0.1700   -0.1020 C   0  0  0  0  0  0  0  0  0  0  0  0
   -1.4020    1.1590    0.2410 C   0  0  0  0  0  0  0  0  0  0  0  0
   -0.3730    2.0430    0.4810 C   0  0  0  0  0  0  0  0  0  0  0  0
    0.9040    1.6340    0.3880 N   0  0  0  0  0  0  0  0  0  0  0  0
    1.2030    0.3410    0.0550 C   0  0  0  0  0  0  0  0  0  0  0  0
    2.5770   -0.0890   -0.0430 C   0  0  0  0  0  0  0  0  0  0  0  0
    2.8240   -1.2650   -0.3460 O   0  0  0  0  0  0  0  0  0  0  0  0
    3.6080    0.7840    0.1940 O   0  0  0  0  0  0  0  0  0  0  0  0
    0.1700   -0.5410   -0.1850 C   0  0  0  0  0  0  0  0  0  0  0  0
  1  2  2  0
  2  3  1  0
  2  4  1  0
  4  5  2  0
  4 12  1  0
  5  6  1  0
  6  7  2  0
  7  8  1  0
  8  9  1  0
  8 12  2  0
  9 10  2  0
  9 11  1  0
M  END
