
     RDKit          3D

 12 11  0  0  0  0  0  0  0  0999 V2000
   -2.4440    1.0530    1.3100 C   0  0  0  0  0  0  0  0  0  0  0  0
   -2.6700    0.6370    0.0900 C   0  0  0  0  0  0  0  0  0  0  0  0
   -1.5960    0.1000   -0.6980 C   0  0  0  0  0  0  0  0  0  0  0  0
   -1.8300   -0.3170   -1.9260 C   0  0  0  0  0  0  0  0  0  0  0  0
   -0.2790    0.0070   -0.1850 O   0  0  0  0  0  0  0  0  0  0  0  0
    0.0980   -1.1380    0.4770 C   0  0  0  0  0  0  0  0  0  0  0  0
   -0.7730   -2.0540    0.5880 O   0  0  0  0  0  0  0  0  0  0  0  0
    1.4770   -1.3270    1.0570 C   0  0  0  0  0  0  0  0  0  0  0  0
    2.2300   -0.1610    0.7790 O   0  0  0  0  0  0  0  0  0  0  0  0
    2.4540    0.2260   -0.5350 C   0  0  0  0  0  0  0  0  0  0  0  0
    3.2140    1.4060   -0.8530 N   0  0  0  0  0  0  0  0  0  0  0  0
    1.9690   -0.4900   -1.4460 O   0  0  0  0  0  0  0  0  0  0  0  0
  1  2  2  0
  2  3  1  0
  3  4  2  0
  3  5  1  0
  5  6  1  0
  6  7  2  0
  6  8  1  0
  8  9  1  0
  9 10  1  0
 10 11  1  0
 10 12  2  0
M  END
