
     RDKit          3D

 11 11  0  0  0  0  0  0  0  0999 V2000
   -1.7360   -2.1910   -0.4140 N   0  0  0  0  0  0  0  0  0  0  0  0
   -1.0500   -1.4190    0.6300 C   0  0  0  0  0  0  0  0  0  0  0  0
   -0.1310   -0.4700    0.0510 C   0  0  0  0  0  0  0  0  0  0  0  0
   -0.1990    0.8190    0.1990 C   0  0  0  0  0  0  0  0  0  0  0  0
   -1.2070    1.4760    0.9650 C   0  0  0  0  0  0  0  0  0  0  0  0
   -2.1610    1.0100    1.6030 O   0  0  0  0  0  0  0  0  0  0  0  0
   -1.1290    2.8860    1.0230 O   0  0  0  0  0  0  0  0  0  0  0  0
    0.8940    1.5860   -0.5180 C   0  0  0  0  0  0  0  0  0  0  0  0
    2.1400    1.1230   -0.2080 O   0  0  0  0  0  0  0  0  0  0  0  0
    2.2420   -0.2560   -0.1810 C   0  0  0  0  0  0  0  0  0  0  0  0
    1.0260   -0.9360   -0.8070 C   0  0  0  0  0  0  0  0  0  0  0  0
  1  2  1  0
  2  3  1  0
  3  4  2  0
  3 11  1  0
  4  5  1  0
  4  8  1  0
  5  6  2  0
  5  7  1  0
  8  9  1  0
  9 10  1  0
 10 11  1  0
M  END
