
     RDKit          3D

 12 12  0  0  0  0  0  0  0  0999 V2000
    3.7740   -0.4990    0.0290 C   0  0  0  0  0  0  0  0  0  0  0  0
    2.3700   -0.5080    0.2580 O   0  0  0  0  0  0  0  0  0  0  0  0
    1.4790    0.2110   -0.4970 C   0  0  0  0  0  0  0  0  0  0  0  0
    1.9250    0.9150   -1.4390 O   0  0  0  0  0  0  0  0  0  0  0  0
    0.0490    0.1670   -0.2220 C   0  0  0  0  0  0  0  0  0  0  0  0
   -0.4100   -0.6200    0.8260 C   0  0  0  0  0  0  0  0  0  0  0  0
   -1.7590   -0.6950    1.1280 C   0  0  0  0  0  0  0  0  0  0  0  0
   -2.6780    0.0170    0.3860 C   0  0  0  0  0  0  0  0  0  0  0  0
   -4.0380   -0.0640    0.6960 O   0  0  0  0  0  0  0  0  0  0  0  0
   -2.1870    0.7870   -0.6450 C   0  0  0  0  0  0  0  0  0  0  0  0
   -3.0390    1.4340   -1.3160 O   0  0  0  0  0  0  0  0  0  0  0  0
   -0.8620    0.8400   -0.9160 N   0  0  0  0  0  0  0  0  0  0  0  0
  1  2  1  0
  2  3  1  0
  3  4  2  0
  3  5  1  0
  5  6  2  0
  5 12  1  0
  6  7  1  0
  7  8  2  0
  8  9  1  0
  8 10  1  0
 10 11  2  0
 10 12  1  0
M  END
