
     RDKit          3D

 15 15  0  0  0  0  0  0  0  0999 V2000
    1.5680   -2.0720   -0.2090 N   0  0  0  0  0  0  0  0  0  0  0  0
    2.1170   -0.7830   -0.0620 C   0  0  2  0  0  0  0  0  0  0  0  0
    3.4290   -0.8490    0.7320 C   0  0  0  0  0  0  0  0  0  0  0  0
    3.9610    0.4230    0.8710 O   0  0  0  0  0  0  0  0  0  0  0  0
    1.2660    0.2810    0.5280 C   0  0  0  0  0  0  0  0  0  0  0  0
    0.0220    0.6310   -0.1960 C   0  0  2  0  0  0  0  0  0  0  0  0
    0.3800    1.0210   -1.5110 O   0  0  0  0  0  0  0  0  0  0  0  0
   -0.2750    2.0730    0.4110 C   0  0  0  0  0  0  0  0  0  0  0  0
   -1.2510    2.7860   -0.3210 N   0  0  0  0  0  0  0  0  0  0  0  0
   -1.1790   -0.1130   -0.1480 C   0  0  1  0  0  0  0  0  0  0  0  0
   -2.2730    0.6860   -0.6380 O   0  0  0  0  0  0  0  0  0  0  0  0
   -1.3910   -1.3940   -0.9130 C   0  0  0  0  0  0  0  0  0  0  0  0
   -2.8860   -1.5720   -0.4710 C   0  0  0  0  0  0  0  0  0  0  0  0
   -2.9400   -1.0980    0.8080 O   0  0  0  0  0  0  0  0  0  0  0  0
   -1.6900   -0.6110    1.1970 C   0  0  0  0  0  0  0  0  0  0  0  0
  2  1  1  1
  2  3  1  0
  2  5  1  0
  3  4  1  0
  5  6  1  0
  6  7  1  6
  6  8  1  0
  6 10  1  0
  8  9  1  0
 10 11  1  6
 10 12  1  0
 10 15  1  0
 12 13  1  0
 13 14  1  0
 14 15  1  0
M  CHG  1   9   1
M  END
