
     RDKit          3D

 15 15  0  0  0  0  0  0  0  0999 V2000
   -4.4520    0.3080    0.0510 C   0  0  0  0  0  0  0  0  0  0  0  0
   -3.1000   -0.1800   -0.3220 C   0  0  0  0  0  0  0  0  0  0  0  0
   -2.9380   -1.1560   -1.0990 O   0  0  0  0  0  0  0  0  0  0  0  0
   -1.9360    0.4490    0.1960 N   0  0  0  0  0  0  0  0  0  0  0  0
   -0.6270   -0.0470   -0.1830 C   0  0  1  0  0  0  0  0  0  0  0  0
    0.1880    1.0770   -0.7480 C   0  0  2  0  0  0  0  0  0  0  0  0
   -0.1290    1.3650   -2.1290 N   0  0  0  0  0  0  0  0  0  0  0  0
    1.6480    0.8360   -0.6320 C   0  0  0  0  0  0  0  0  0  0  0  0
    2.1880   -0.1770    0.0170 C   0  0  0  0  0  0  0  0  0  0  0  0
    3.6550   -0.3110    0.0620 C   0  0  0  0  0  0  0  0  0  0  0  0
    4.0410   -0.2700    1.4180 O   0  0  0  0  0  0  0  0  0  0  0  0
    1.3470   -1.1900    0.7050 C   0  0  1  0  0  0  0  0  0  0  0  0
    1.9520   -1.6350    1.8880 O   0  0  0  0  0  0  0  0  0  0  0  0
    0.0580   -0.4810    1.1060 C   0  0  2  0  0  0  0  0  0  0  0  0
   -0.7510   -1.3240    1.8580 O   0  0  0  0  0  0  0  0  0  0  0  0
  1  2  1  0
  2  3  2  0
  2  4  1  0
  5  4  1  1
  5  6  1  0
  5 14  1  0
  6  7  1  6
  6  8  1  0
  8  9  2  0
  9 10  1  0
  9 12  1  0
 10 11  1  0
 12 13  1  1
 12 14  1  0
 14 15  1  6
M  CHG  1   7   1
M  END
