
     RDKit          3D

 15 16  0  0  0  0  0  0  0  0999 V2000
   -3.6180    1.6020    0.0310 C   0  0  0  0  0  0  0  0  0  0  0  0
   -2.5290    1.0120    0.9390 C   0  0  0  0  0  0  0  0  0  0  0  0
   -1.5780    0.3040    0.1630 N   0  0  0  0  0  0  0  0  0  0  0  0
   -2.0230   -0.8740   -0.4370 C   0  0  0  0  0  0  0  0  0  0  0  0
   -1.0160   -1.9680   -0.6060 C   0  0  0  0  0  0  0  0  0  0  0  0
    0.2870   -1.5870   -0.4870 O   0  0  0  0  0  0  0  0  0  0  0  0
    0.5910   -0.7350    0.5450 C   0  0  1  0  0  0  0  0  0  0  0  0
    2.0460   -0.4730    0.4660 C   0  0  0  0  0  0  0  0  0  0  0  0
    2.8460   -1.5420    0.2940 N   0  0  0  0  0  0  0  0  0  0  0  0
    4.1850   -1.4460    0.1990 C   0  0  0  0  0  0  0  0  0  0  0  0
    4.7350   -0.2350    0.2790 N   0  0  0  0  0  0  0  0  0  0  0  0
    3.9390    0.8550    0.4550 C   0  0  0  0  0  0  0  0  0  0  0  0
    4.5730    2.0800    0.5300 O   0  0  0  0  0  0  0  0  0  0  0  0
    2.5970    0.7300    0.5480 N   0  0  0  0  0  0  0  0  0  0  0  0
   -0.2200    0.5210    0.3790 C   0  0  0  0  0  0  0  0  0  0  0  0
  1  2  1  0
  2  3  1  0
  3  4  1  0
  3 15  1  0
  4  5  1  0
  5  6  1  0
  6  7  1  0
  7  8  1  6
  7 15  1  0
  8  9  2  0
  8 14  1  0
  9 10  1  0
 10 11  2  0
 11 12  1  0
 12 13  1  0
 12 14  2  0
M  END
