
     RDKit          3D

 16 17  0  0  0  0  0  0  0  0999 V2000
   -4.7240   -0.5730    0.4300 C   0  0  0  0  0  0  0  0  0  0  0  0
   -4.0260    0.4300   -0.4140 C   0  0  0  0  0  0  0  0  0  0  0  0
   -2.6390    0.5000   -0.2150 O   0  0  0  0  0  0  0  0  0  0  0  0
   -1.8030   -0.5900   -0.4240 C   0  0  0  0  0  0  0  0  0  0  0  0
   -2.3780   -1.6470   -0.8060 O   0  0  0  0  0  0  0  0  0  0  0  0
   -0.3660   -0.5160   -0.2170 C   0  0  0  0  0  0  0  0  0  0  0  0
    0.1010    0.6540    0.1840 C   0  0  0  0  0  0  0  0  0  0  0  0
    1.4170    1.0970    0.4830 N   0  0  0  0  0  0  0  0  0  0  0  0
    1.5740    2.4760    0.8970 C   0  0  0  0  0  0  0  0  0  0  0  0
    2.5800    0.2830    0.4030 C   0  0  0  0  0  0  0  0  0  0  0  0
    3.8200    0.7050    0.6930 N   0  0  0  0  0  0  0  0  0  0  0  0
    4.6840   -0.2840    0.5220 N   0  0  0  0  0  0  0  0  0  0  0  0
    4.0550   -1.3960    0.1150 C   0  0  0  0  0  0  0  0  0  0  0  0
    2.7210   -1.0520    0.0350 C   0  0  0  0  0  0  0  0  0  0  0  0
    1.6480   -1.9510   -0.3700 C   0  0  0  0  0  0  0  0  0  0  0  0
    0.3720   -1.7030   -0.4670 N   0  0  0  0  0  0  0  0  0  0  0  0
  1  2  1  0
  2  3  1  0
  3  4  1  0
  4  5  2  0
  4  6  1  0
  6  7  2  0
  6 16  1  0
  7  8  1  0
  8  9  1  0
  8 10  1  0
 10 11  2  0
 10 14  1  0
 11 12  1  0
 12 13  1  0
 13 14  2  0
 14 15  1  0
 15 16  2  0
M  END
