
     RDKit          3D

 16 17  0  0  0  0  0  0  0  0999 V2000
   -2.0110   -1.6300    0.4070 C   0  0  0  0  0  0  0  0  0  0  0  0
   -1.9430   -0.4200   -0.1300 C   0  0  0  0  0  0  0  0  0  0  0  0
   -3.0050    0.5650    0.1570 C   0  0  0  0  0  0  0  0  0  0  0  0
   -0.7830   -0.0540   -1.0270 C   0  0  2  0  0  0  0  0  0  0  0  0
   -0.1390   -1.2760   -1.3500 N   0  0  0  0  0  0  0  0  0  0  0  0
    1.0710   -1.3110   -0.9900 C   0  0  0  0  0  0  0  0  0  0  0  0
    2.1310   -2.3350   -1.0990 C   0  0  0  0  0  0  0  0  0  0  0  0
    1.8660   -3.4120   -1.6470 O   0  0  0  0  0  0  0  0  0  0  0  0
    3.4020   -2.0430   -0.5760 N   0  0  0  0  0  0  0  0  0  0  0  0
    3.6190   -0.7600    0.0450 C   0  0  0  0  0  0  0  0  0  0  0  0
    4.7640   -0.5060    0.5120 O   0  0  0  0  0  0  0  0  0  0  0  0
    2.5870    0.1900    0.1320 N   0  0  0  0  0  0  0  0  0  0  0  0
    1.3910   -0.0520   -0.3470 C   0  0  0  0  0  0  0  0  0  0  0  0
    0.2130    0.7430   -0.3680 N   0  0  0  0  0  0  0  0  0  0  0  0
    0.1520    2.0860    0.2050 C   0  0  0  0  0  0  0  0  0  0  0  0
   -0.6580    2.2020    1.4430 C   0  0  0  0  0  0  0  0  0  0  0  0
  1  2  2  0
  2  3  1  0
  4  2  1  1
  4  5  1  0
  4 14  1  0
  5  6  2  0
  6  7  1  0
  6 13  1  0
  7  8  2  0
  7  9  1  0
  9 10  1  0
 10 11  2  0
 10 12  1  0
 12 13  2  0
 13 14  1  0
 14 15  1  0
 15 16  1  0
M  END
