
     RDKit          3D

 16 17  0  0  0  0  0  0  0  0999 V2000
   -2.7320    0.8790    1.6620 C   0  0  0  0  0  0  0  0  0  0  0  0
   -2.5730    0.1830    0.4110 N   0  0  0  0  0  0  0  0  0  0  0  0
   -3.6350    0.1680   -0.6150 C   0  0  0  0  0  0  0  0  0  0  0  0
   -3.4740   -1.2330   -1.1820 C   0  0  0  0  0  0  0  0  0  0  0  0
   -2.1050   -1.6450   -0.8320 N   0  0  0  0  0  0  0  0  0  0  0  0
   -1.4880   -0.5910   -0.1020 C   0  0  0  0  0  0  0  0  0  0  0  0
   -0.2240   -0.3540    0.0620 C   0  0  0  0  0  0  0  0  0  0  0  0
    0.2690    0.7980    0.8320 C   0  0  0  0  0  0  0  0  0  0  0  0
    1.5430    1.0070    0.9920 N   0  0  0  0  0  0  0  0  0  0  0  0
    2.5650    0.1900    0.4670 C   0  0  0  0  0  0  0  0  0  0  0  0
    3.9250    0.4490    0.6610 N   0  0  0  0  0  0  0  0  0  0  0  0
    4.7290    1.2300   -0.2700 C   0  0  0  0  0  0  0  0  0  0  0  0
    4.7160    0.6040   -1.5260 O   0  0  0  0  0  0  0  0  0  0  0  0
    2.2050   -0.8700   -0.2400 C   0  0  0  0  0  0  0  0  0  0  0  0
    0.8210   -1.2140   -0.4900 C   0  0  0  0  0  0  0  0  0  0  0  0
    0.5510   -2.2240   -1.1640 O   0  0  0  0  0  0  0  0  0  0  0  0
  1  2  1  0
  2  3  1  0
  2  6  1  0
  3  4  1  0
  4  5  1  0
  5  6  1  0
  6  7  2  3
  7  8  1  0
  7 15  1  0
  8  9  2  0
  9 10  1  0
 10 11  1  0
 10 14  2  0
 11 12  1  0
 12 13  1  0
 14 15  1  0
 15 16  2  0
M  END
