
     RDKit          3D

 11 11  0  0  0  0  0  0  0  0999 V2000
    2.0710   -0.6610    1.3210 O   0  0  0  0  0  0  0  0  0  0  0  0
    2.3970   -0.0810    0.1020 C   0  0  0  0  0  0  0  0  0  0  0  0
    1.0660    0.1450   -0.6280 C   0  0  1  0  0  0  0  0  0  0  0  0
    0.4640   -1.1430   -0.7790 N   0  0  0  0  0  0  0  0  0  0  0  0
   -0.9420   -1.1030   -1.0420 C   0  0  0  0  0  0  0  0  0  0  0  0
   -1.6340   -0.5230    0.1620 C   0  0  2  0  0  0  0  0  0  0  0  0
   -2.9660   -0.2750   -0.2220 O   0  0  0  0  0  0  0  0  0  0  0  0
   -0.9770    0.6650    0.7440 C   0  0  1  0  0  0  0  0  0  0  0  0
   -0.7080    0.4250    2.1120 O   0  0  0  0  0  0  0  0  0  0  0  0
    0.2310    1.1610    0.0570 C   0  0  2  0  0  0  0  0  0  0  0  0
   -0.1160    2.2130   -0.8220 O   0  0  0  0  0  0  0  0  0  0  0  0
  1  2  1  0
  3  2  1  1
  3  4  1  0
  3 10  1  0
  4  5  1  0
  5  6  1  0
  6  7  1  6
  6  8  1  0
  8  9  1  1
  8 10  1  0
 10 11  1  6
M  CHG  1   4   1
M  END
