
     RDKit          3D

 11 11  0  0  0  0  0  0  0  0999 V2000
    3.8480    0.5600   -0.0940 N   0  0  0  0  0  0  0  0  0  0  0  0
    2.5030    0.7670   -0.5650 C   0  0  0  0  0  0  0  0  0  0  0  0
    1.5620   -0.1590    0.2230 C   0  0  0  0  0  0  0  0  0  0  0  0
    0.3130    0.0680   -0.2500 O   0  0  0  0  0  0  0  0  0  0  0  0
   -0.7060   -0.6560    0.3120 C   0  0  2  0  0  0  0  0  0  0  0  0
   -1.3230   -1.4900   -0.7820 C   0  0  0  0  0  0  0  0  0  0  0  0
   -2.4990   -0.9240   -1.1580 O   0  0  0  0  0  0  0  0  0  0  0  0
   -2.8230    0.1120   -0.3420 C   0  0  2  0  0  0  0  0  0  0  0  0
   -2.7840    1.3510   -1.0000 O   0  0  0  0  0  0  0  0  0  0  0  0
   -1.8580    0.1500    0.8110 C   0  0  1  0  0  0  0  0  0  0  0  0
   -2.4710   -0.4530    1.9110 O   0  0  0  0  0  0  0  0  0  0  0  0
  1  2  1  0
  2  3  1  0
  3  4  1  0
  5  4  1  6
  5  6  1  0
  5 10  1  0
  6  7  1  0
  7  8  1  0
  8  9  1  6
  8 10  1  0
 10 11  1  1
M  CHG  1   1   1
M  END
