
     RDKit          3D

 12 12  0  0  0  0  0  0  0  0999 V2000
    0.1620   -2.1390    0.5580 O   0  0  0  0  0  0  0  0  0  0  0  0
    0.0680   -0.9680    0.1680 C   0  0  0  0  0  0  0  0  0  0  0  0
    1.2210   -0.3090   -0.2270 O   0  0  0  0  0  0  0  0  0  0  0  0
    2.5000   -0.9290   -0.2010 C   0  0  0  0  0  0  0  0  0  0  0  0
    3.5060    0.1100   -0.7050 C   0  0  0  0  0  0  0  0  0  0  0  0
    3.5200    1.2410    0.0920 O   0  0  0  0  0  0  0  0  0  0  0  0
   -1.2500   -0.3220    0.1390 C   0  0  0  0  0  0  0  0  0  0  0  0
   -1.4260    0.9210   -0.2640 C   0  0  0  0  0  0  0  0  0  0  0  0
   -2.7330    1.6180   -0.3120 C   0  0  0  0  0  0  0  0  0  0  0  0
   -3.7910    0.7900    0.1270 O   0  0  0  0  0  0  0  0  0  0  0  0
   -3.6560   -0.5010    0.5520 C   0  0  0  0  0  0  0  0  0  0  0  0
   -2.4460   -1.0490    0.5640 C   0  0  0  0  0  0  0  0  0  0  0  0
  1  2  2  0
  2  3  1  0
  2  7  1  0
  3  4  1  0
  4  5  1  0
  5  6  1  0
  7  8  2  0
  7 12  1  0
  8  9  1  0
  9 10  1  0
 10 11  1  0
 11 12  2  0
M  END
