
     RDKit          3D

 11 11  0  0  0  0  0  0  0  0999 V2000
   -1.9040   -1.2280   -0.0480 N   0  0  0  0  0  0  0  0  0  0  0  0
   -1.2190    0.0360   -0.2710 C   0  0  1  0  0  0  0  0  0  0  0  0
   -1.9060    1.1350    0.4970 C   0  0  0  0  0  0  0  0  0  0  0  0
   -1.8870    0.8870    1.8740 O   0  0  0  0  0  0  0  0  0  0  0  0
    0.2190   -0.0280    0.1470 C   0  0  2  0  0  0  0  0  0  0  0  0
    0.3370   -0.3150    1.5050 O   0  0  0  0  0  0  0  0  0  0  0  0
    0.9700    1.2340   -0.1440 C   0  0  0  0  0  0  0  0  0  0  0  0
    2.2720    1.0660    0.3220 O   0  0  0  0  0  0  0  0  0  0  0  0
    2.9310   -0.0340   -0.1350 C   0  0  0  0  0  0  0  0  0  0  0  0
    2.2200   -1.2180   -0.0370 O   0  0  0  0  0  0  0  0  0  0  0  0
    0.9580   -1.1550   -0.5630 C   0  0  0  0  0  0  0  0  0  0  0  0
  2  1  1  1
  2  3  1  0
  2  5  1  0
  3  4  1  0
  5  6  1  1
  5  7  1  0
  5 11  1  0
  7  8  1  0
  8  9  1  0
  9 10  1  0
 10 11  1  0
M  CHG  1   1   1
M  END
