
     RDKit          3D

 11 11  0  0  0  0  0  0  0  0999 V2000
    1.6190   -0.6100   -0.9180 N   0  0  0  0  0  0  0  0  0  0  0  0
    0.8220   -0.3060    0.2650 C   0  0  1  0  0  0  0  0  0  0  0  0
    1.4860    0.8640    0.9280 C   0  0  0  0  0  0  0  0  0  0  0  0
    2.8210    0.5510    1.2790 O   0  0  0  0  0  0  0  0  0  0  0  0
   -0.6150   -0.1290   -0.0720 C   0  0  1  0  0  0  0  0  0  0  0  0
   -1.5160    0.1850    1.0880 C   0  0  0  0  0  0  0  0  0  0  0  0
   -1.2390    1.3360    1.7710 O   0  0  0  0  0  0  0  0  0  0  0  0
   -0.8300    0.8380   -1.2260 C   0  0  0  0  0  0  0  0  0  0  0  0
   -1.3150    0.0180   -2.2440 O   0  0  0  0  0  0  0  0  0  0  0  0
   -2.0440   -0.8960   -1.6810 O   0  0  0  0  0  0  0  0  0  0  0  0
   -1.2050   -1.4040   -0.6960 C   0  0  0  0  0  0  0  0  0  0  0  0
  2  1  1  6
  2  3  1  0
  2  5  1  0
  3  4  1  0
  5  6  1  1
  5  8  1  0
  5 11  1  0
  6  7  1  0
  8  9  1  0
  9 10  1  0
 10 11  1  0
M  CHG  1   1   1
M  END
