
     RDKit          3D

 10 10  0  0  0  0  0  0  0  0999 V2000
    2.1100    1.5480    0.4550 O   0  0  0  0  0  0  0  0  0  0  0  0
    2.3420    0.1930    0.7650 C   0  0  0  0  0  0  0  0  0  0  0  0
    1.3290   -0.6440    0.0220 C   0  0  2  0  0  0  0  0  0  0  0  0
    1.4760   -0.4330   -1.3460 O   0  0  0  0  0  0  0  0  0  0  0  0
   -0.0830   -0.3200    0.4440 C   0  0  2  0  0  0  0  0  0  0  0  0
   -0.2310   -0.5300    1.8080 O   0  0  0  0  0  0  0  0  0  0  0  0
   -1.0810   -1.1330   -0.3460 C   0  0  0  0  0  0  0  0  0  0  0  0
   -2.0320   -0.1070   -0.9740 C   0  0  0  0  0  0  0  0  0  0  0  0
   -1.9400    0.9610    0.0080 N   0  0  0  0  0  0  0  0  0  0  0  0
   -0.4770    1.0890    0.1200 C   0  0  0  0  0  0  0  0  0  0  0  0
  1  2  1  0
  2  3  1  0
  3  4  1  6
  3  5  1  0
  5  6  1  1
  5  7  1  0
  5 10  1  0
  7  8  1  0
  8  9  1  0
  9 10  1  0
M  CHG  1   9   1
M  END
