
     RDKit          3D

 11 11  0  0  0  0  0  0  0  0999 V2000
   -1.1320   -1.4870    0.8410 N   0  0  0  0  0  0  0  0  0  0  0  0
   -1.3250   -0.2210    0.1680 C   0  0  1  0  0  0  0  0  0  0  0  0
   -1.7970    0.6800    1.1130 O   0  0  0  0  0  0  0  0  0  0  0  0
   -0.1090    0.2810   -0.5570 C   0  0  2  0  0  0  0  0  0  0  0  0
   -0.4900    1.6360   -1.1800 C   0  0  0  0  0  0  0  0  0  0  0  0
   -0.8830    2.4740   -0.1470 O   0  0  0  0  0  0  0  0  0  0  0  0
    0.2920   -0.6070   -1.5120 O   0  0  0  0  0  0  0  0  0  0  0  0
    1.3910   -1.3100   -1.1210 C   0  0  0  0  0  0  0  0  0  0  0  0
    1.8110   -0.7960    0.2310 C   0  0  0  0  0  0  0  0  0  0  0  0
    1.0890    0.5250    0.2730 C   0  0  2  0  0  0  0  0  0  0  0  0
    0.8240    0.9570    1.5590 O   0  0  0  0  0  0  0  0  0  0  0  0
  2  1  1  1
  2  3  1  0
  2  4  1  0
  4  5  1  6
  4  7  1  0
  4 10  1  0
  5  6  1  0
  7  8  1  0
  8  9  1  0
  9 10  1  0
 10 11  1  1
M  CHG  1   1   1
M  END
