
     RDKit          3D

 31 31  0  0  0  0  0  0  0  0999 V2000
    1.8520   -1.4930    1.4700 O   0  0  0  0  0  0  0  0  0  0  0  0
    2.2090   -0.4650    0.8500 C   0  0  0  0  0  0  0  0  0  0  0  0
    2.7330   -0.5850   -0.5090 C   0  0  0  0  0  0  0  0  0  0  0  0
    2.9720   -1.8480   -0.9950 O   0  0  0  0  0  0  0  0  0  0  0  0
    3.2200   -3.0540   -0.4330 C   0  0  0  0  0  0  0  0  0  0  0  0
    4.4240   -3.5310   -0.4720 O   0  0  0  0  0  0  0  0  0  0  0  0
    2.2410   -3.9260    0.2450 C   0  0  0  0  0  0  0  0  0  0  0  0
    2.6810   -4.4640    1.3280 O   0  0  0  0  0  0  0  0  0  0  0  0
    0.9250   -4.1920   -0.1960 N   0  0  0  0  0  0  0  0  0  0  0  0
    0.3270   -3.8120   -1.3950 N   0  0  0  0  0  0  0  0  0  0  0  0
    0.1940   -2.4820   -1.8880 C   0  0  0  0  0  0  0  0  0  0  0  0
    0.6240   -2.2620   -3.0800 O   0  0  0  0  0  0  0  0  0  0  0  0
   -0.3580   -1.4230   -1.1830 O   0  0  0  0  0  0  0  0  0  0  0  0
   -1.5850   -1.4430   -0.4960 C   0  0  2  0  0  0  0  0  0  0  0  0
   -2.6530   -2.2590   -1.1690 C   0  0  0  0  0  0  0  0  0  0  0  0
   -4.1660   -2.2140   -0.2130 S   0  0  0  0  0  0  0  0  0  0  0  0
   -3.9330   -3.0060    1.2840 O   0  0  0  0  0  0  0  0  0  0  0  0
   -2.1400   -0.0140   -0.4000 C   0  0  2  0  0  0  0  0  0  0  0  0
   -2.2880    0.4940   -1.6680 O   0  0  0  0  0  0  0  0  0  0  0  0
   -1.0900    0.7780    0.3650 C   0  0  2  0  0  0  0  0  0  0  0  0
   -0.9100    0.0820    1.5720 O   0  0  0  0  0  0  0  0  0  0  0  0
   -1.5100    2.2080    0.6190 C   0  0  0  0  0  0  0  0  0  0  0  0
   -0.2230    2.9340    1.0380 C   0  0  2  0  0  0  0  0  0  0  0  0
   -0.5150    4.3720    1.3930 C   0  0  0  0  0  0  0  0  0  0  0  0
   -1.2240    5.2510   -0.0070 S   0  0  0  0  0  0  0  0  0  0  0  0
   -0.0650    5.3790   -1.2600 O   0  0  0  0  0  0  0  0  0  0  0  0
    0.6780    2.7850   -0.0120 O   0  0  0  0  0  0  0  0  0  0  0  0
    2.0380    2.7140    0.0380 C   0  0  0  0  0  0  0  0  0  0  0  0
    2.6930    3.3440   -0.8520 O   0  0  0  0  0  0  0  0  0  0  0  0
    2.7640    1.9450    1.0710 C   0  0  0  0  0  0  0  0  0  0  0  0
    2.1060    0.7570    1.4470 O   0  0  0  0  0  0  0  0  0  0  0  0
  1  2  2  0
  2  3  1  0
  2 31  1  0
  3  4  1  0
  4  5  1  0
  5  6  2  0
  5  7  1  0
  7  8  2  0
  7  9  1  0
  9 10  1  0
 10 11  1  0
 11 12  2  0
 11 13  1  0
 13 14  1  0
 14 15  1  6
 14 18  1  0
 15 16  1  0
 16 17  1  0
 18 19  1  6
 18 20  1  0
 20 21  1  1
 20 22  1  0
 22 23  1  0
 23 24  1  6
 23 27  1  0
 24 25  1  0
 25 26  1  0
 27 28  1  0
 28 29  2  0
 28 30  1  0
 30 31  1  0
M  END
