
     RDKit          3D

 31 34  0  0  0  0  0  0  0  0999 V2000
   -5.7970    1.3500   -1.3050 C   0  0  0  0  0  0  0  0  0  0  0  0
   -6.6360    0.6980   -0.2660 C   0  0  2  0  0  0  0  0  0  0  0  0
   -7.4430    1.8010    0.4320 C   0  0  0  0  0  0  0  0  0  0  0  0
   -5.9350   -0.1340    0.7540 C   0  0  0  0  0  0  0  0  0  0  0  0
   -5.2030   -1.3230    0.2500 C   0  0  0  0  0  0  0  0  0  0  0  0
   -4.1530   -1.1610   -0.6850 N   0  0  0  0  0  0  0  0  0  0  0  0
   -4.3440   -1.2830   -2.0320 C   0  0  0  0  0  0  0  0  0  0  0  0
   -3.2950   -1.1590   -2.9060 C   0  0  0  0  0  0  0  0  0  0  0  0
   -2.0060   -0.9090   -2.4990 C   0  0  0  0  0  0  0  0  0  0  0  0
   -1.0550   -0.7950   -3.2840 O   0  0  0  0  0  0  0  0  0  0  0  0
   -1.8140   -0.7860   -1.1280 C   0  0  0  0  0  0  0  0  0  0  0  0
   -0.5340   -0.5360   -0.6250 C   0  0  0  0  0  0  0  0  0  0  0  0
   -0.2850   -0.4100    0.7230 C   0  0  0  0  0  0  0  0  0  0  0  0
    1.0070   -0.1600    1.1760 O   0  0  0  0  0  0  0  0  0  0  0  0
    2.1040   -0.0270    0.2970 C   0  0  0  0  0  0  0  0  0  0  0  0
    3.3170    0.2300    1.1110 C   0  0  0  0  0  0  0  0  0  0  0  0
    3.2310    0.2970    2.4230 C   0  0  0  0  0  0  0  0  0  0  0  0
    4.4510    0.5520    3.1700 C   0  0  0  0  0  0  0  0  0  0  0  0
    5.6200    0.7160    2.5890 C   0  0  0  0  0  0  0  0  0  0  0  0
    5.7890    0.6560    1.1530 N   0  0  0  0  0  0  0  0  0  0  0  0
    7.1220    0.8560    0.6350 C   0  0  0  0  0  0  0  0  0  0  0  0
    7.3830    0.2580   -0.7020 C   0  0  1  0  0  0  0  0  0  0  0  0
    7.6530   -1.2300   -0.6360 C   0  0  0  0  0  0  0  0  0  0  0  0
    6.0070    0.5080   -1.8080 S   0  0  1  0  0  0  0  0  0  0  0  0
    6.1000    1.9440   -2.2820 O   0  0  0  0  0  0  0  0  0  0  0  0
    6.0540   -0.4420   -2.9670 O   0  0  0  0  0  0  0  0  0  0  0  0
    4.5860    0.3240   -0.8710 N   0  0  0  0  0  0  0  0  0  0  0  0
    4.6190    0.4090    0.4010 C   0  0  0  0  0  0  0  0  0  0  0  0
   -1.3500   -0.5380    1.5840 C   0  0  0  0  0  0  0  0  0  0  0  0
   -2.6370   -0.7890    1.0890 C   0  0  0  0  0  0  0  0  0  0  0  0
   -2.8830   -0.9140   -0.2610 C   0  0  0  0  0  0  0  0  0  0  0  0
  2  1  1  6
  2  3  1  0
  2  4  1  0
  4  5  1  0
  5  6  1  0
  6  7  1  0
  6 31  1  0
  7  8  2  0
  8  9  1  0
  9 10  2  0
  9 11  1  0
 11 12  2  0
 11 31  1  0
 12 13  1  0
 13 14  1  0
 13 29  2  0
 14 15  1  0
 15 16  1  0
 16 17  2  0
 16 28  1  0
 17 18  1  0
 18 19  2  0
 19 20  1  0
 20 21  1  0
 20 28  1  0
 21 22  1  0
 22 23  1  1
 22 24  1  0
 24 25  2  0
 24 26  2  0
 24 27  1  1
 27 28  2  0
 29 30  1  0
 30 31  2  0
M  END
