
     RDKit          3D

  9  9  0  0  0  0  0  0  0  0999 V2000
    2.6660    0.6610    0.1730 C   0  0  0  0  0  0  0  0  0  0  0  0
    1.2380    0.7900   -0.1660 C   0  0  0  0  0  0  0  0  0  0  0  0
    0.4070   -0.2230   -0.0010 C   0  0  0  0  0  0  0  0  0  0  0  0
    0.8290   -1.5330    0.5240 C   0  0  0  0  0  0  0  0  0  0  0  0
   -0.6540   -2.0950    1.4030 S   0  0  0  0  0  0  0  0  0  0  0  0
   -1.8330   -0.9810    0.5590 C   0  0  0  0  0  0  0  0  0  0  0  0
   -1.0150   -0.1400   -0.3270 C   0  0  1  0  0  0  0  0  0  0  0  0
   -1.4870    1.2940   -0.1950 C   0  0  0  0  0  0  0  0  0  0  0  0
   -1.1850   -0.4720   -1.6910 O   0  0  0  0  0  0  0  0  0  0  0  0
  1  2  1  0
  2  3  2  3
  3  4  1  0
  3  7  1  0
  4  5  1  0
  5  6  1  0
  6  7  1  0
  7  8  1  6
  7  9  1  0
M  END
