
     RDKit          3D

  9 12  0  0  0  0  0  0  0  0999 V2000
   -0.4830   -0.1360   -1.4720 O   0  0  0  0  0  0  0  0  0  0  0  0
    0.3670    0.0430   -0.3050 C   0  0  0  0  0  0  0  0  0  0  0  0
    1.7240   -0.4470   -0.6380 C   0  0  0  0  0  0  0  0  0  0  0  0
    2.2170    0.4510   -2.2030 S   0  0  0  0  0  0  0  0  0  0  0  0
    0.3670    1.6090    0.0060 C   0  0  0  0  0  0  0  0  0  0  0  0
   -0.8200    0.8370    0.5540 C   0  0  0  0  0  0  0  0  0  0  0  0
   -1.5720    0.3550    0.8830 C   0  0  0  0  0  0  0  0  0  0  0  0
   -2.2430   -0.0740    1.1620 C   0  0  0  0  0  0  0  0  0  0  0  0
   -0.3470   -0.9260    0.6700 C   0  0  1  0  0  0  0  0  0  0  0  0
  1  2  1  0
  2  3  1  0
  2  5  1  0
  2  9  1  0
  3  4  1  0
  5  6  1  0
  6  7  3  0
  7  8  1  0
  9  8  1  6
  6  2  1  0
  8  6  1  0
  9  7  1  0
M  END
