
     RDKit          3D

  9  9  0  0  0  0  0  0  0  0999 V2000
   -1.6570    0.3790   -1.5110 C   0  0  0  0  0  0  0  0  0  0  0  0
   -1.0570    0.1740   -0.2720 C   0  0  2  0  0  0  0  0  0  0  0  0
   -1.7900    0.2380    0.8900 O   0  0  0  0  0  0  0  0  0  0  0  0
    0.2090    0.8690    0.0950 C   0  0  0  0  0  0  0  0  0  0  0  0
    0.8000    1.1880    0.2690 C   0  0  0  0  0  0  0  0  0  0  0  0
    1.8490    1.7460    0.5760 C   0  0  0  0  0  0  0  0  0  0  0  0
    2.0180   -0.3460    1.4960 S   0  0  0  0  0  0  0  0  0  0  0  0
    0.7640   -1.3540    0.8490 C   0  0  0  0  0  0  0  0  0  0  0  0
   -0.2270   -1.2160   -0.2360 C   0  0  0  0  0  0  0  0  0  0  0  0
  2  1  1  6
  2  3  1  0
  2  4  1  0
  2  9  1  0
  4  5  3  0
  5  6  1  0
  6  7  1  0
  7  8  1  0
  8  9  1  0
M  END
