
     RDKit          3D

  9  9  0  0  0  0  0  0  0  0999 V2000
   -2.0190    1.0320    0.0360 C   0  0  0  0  0  0  0  0  0  0  0  0
   -0.9120    0.1960   -0.5590 C   0  0  2  0  0  0  0  0  0  0  0  0
   -1.1160    0.1830   -1.9440 O   0  0  0  0  0  0  0  0  0  0  0  0
   -0.9970   -1.1960   -0.0090 C   0  0  0  0  0  0  0  0  0  0  0  0
    0.4250   -1.6280    0.2570 C   0  0  0  0  0  0  0  0  0  0  0  0
    1.2800   -0.4500   -0.0380 C   0  0  0  0  0  0  0  0  0  0  0  0
    2.6020   -0.4820   -0.0900 C   0  0  0  0  0  0  0  0  0  0  0  0
    3.5670    0.9960   -0.4550 S   0  0  0  0  0  0  0  0  0  0  0  0
    0.4370    0.7520   -0.2610 C   0  0  0  0  0  0  0  0  0  0  0  0
  2  1  1  1
  2  3  1  0
  2  4  1  0
  2  9  1  0
  4  5  1  0
  5  6  1  0
  6  7  2  3
  6  9  1  0
  7  8  1  0
M  END
