
     RDKit          3D

  9  9  0  0  0  0  0  0  0  0999 V2000
    1.1510    2.0020   -1.5190 O   0  0  0  0  0  0  0  0  0  0  0  0
    0.3070    1.1640   -0.7810 C   0  0  0  0  0  0  0  0  0  0  0  0
   -0.9030    1.5280   -0.3970 C   0  0  0  0  0  0  0  0  0  0  0  0
   -1.8430    0.6920    0.3840 C   0  0  0  0  0  0  0  0  0  0  0  0
   -1.2680   -0.6090    0.8330 C   0  0  0  0  0  0  0  0  0  0  0  0
   -0.2850   -1.1940   -0.1460 C   0  0  0  0  0  0  0  0  0  0  0  0
    0.7610   -0.1690   -0.4080 C   0  0  0  0  0  0  0  0  0  0  0  0
    2.0450   -0.4560   -0.3070 C   0  0  0  0  0  0  0  0  0  0  0  0
    2.6030   -2.0630    0.1420 S   0  0  0  0  0  0  0  0  0  0  0  0
  1  2  1  0
  2  3  2  0
  2  7  1  0
  3  4  1  0
  4  5  1  0
  5  6  1  0
  6  7  1  0
  7  8  2  3
  8  9  1  0
M  END
