
     RDKit          3D

 32 34  0  0  0  0  0  0  0  0999 V2000
    5.6270   -2.5350    1.8800 C   0  0  0  0  0  0  0  0  0  0  0  0
    6.4580   -1.3340    1.7100 N   0  0  0  0  0  0  0  0  0  0  0  0
    7.5480   -1.3190    0.8140 C   0  0  0  0  0  0  0  0  0  0  0  0
    7.5550   -0.8100   -0.3860 C   0  0  0  0  0  0  0  0  0  0  0  0
    6.4800   -0.1600   -1.0610 C   0  0  0  0  0  0  0  0  0  0  0  0
    6.7010    0.2750   -2.2550 O   0  0  0  0  0  0  0  0  0  0  0  0
    5.1720    0.0820   -0.5960 N   0  0  0  0  0  0  0  0  0  0  0  0
    4.1940    0.7630   -1.4160 C   0  0  0  0  0  0  0  0  0  0  0  0
    4.3700    1.2350   -2.6590 N   0  0  0  0  0  0  0  0  0  0  0  0
    3.2640    1.7970   -3.1010 N   0  0  0  0  0  0  0  0  0  0  0  0
    2.3690    1.6680   -2.0960 C   0  0  0  0  0  0  0  0  0  0  0  0
    0.9770    2.1770   -2.1890 C   0  0  0  0  0  0  0  0  0  0  0  0
    0.1170    1.0890   -2.7590 C   0  0  0  0  0  0  0  0  0  0  0  0
   -0.9110    0.5980   -2.0930 C   0  0  0  0  0  0  0  0  0  0  0  0
   -1.7130   -0.4730   -2.7180 C   0  0  2  0  0  0  0  0  0  0  0  0
   -1.6780   -1.6000   -1.9220 F   0  0  0  0  0  0  0  0  0  0  0  0
   -1.2240   -0.7980   -3.9730 F   0  0  0  0  0  0  0  0  0  0  0  0
   -1.2480    1.0710   -0.8210 N   0  0  0  0  0  0  0  0  0  0  0  0
   -0.8670    0.3310    0.3510 C   0  0  0  0  0  0  0  0  0  0  0  0
   -1.9070    0.4850    1.4650 C   0  0  0  0  0  0  0  0  0  0  0  0
   -3.1810    0.7390    0.8170 N   0  0  0  0  0  0  0  0  0  0  0  0
   -4.2940   -0.1430    0.9300 C   0  0  0  0  0  0  0  0  0  0  0  0
   -4.8630   -0.7430   -0.1770 C   0  0  0  0  0  0  0  0  0  0  0  0
   -5.9440   -1.5970   -0.0510 C   0  0  0  0  0  0  0  0  0  0  0  0
   -6.5030   -1.8900    1.1750 C   0  0  0  0  0  0  0  0  0  0  0  0
   -5.9370   -1.2920    2.2820 C   0  0  0  0  0  0  0  0  0  0  0  0
   -6.4960   -1.5860    3.4910 F   0  0  0  0  0  0  0  0  0  0  0  0
   -4.8580   -0.4400    2.1550 C   0  0  0  0  0  0  0  0  0  0  0  0
   -4.2670    0.1920    3.3700 C   0  0  0  0  0  0  0  0  0  0  0  0
   -3.2850    1.9600    0.0260 C   0  0  0  0  0  0  0  0  0  0  0  0
   -1.9810    2.3060   -0.6590 C   0  0  0  0  0  0  0  0  0  0  0  0
    2.9620    1.0390   -1.0920 O   0  0  0  0  0  0  0  0  0  0  0  0
  1  2  1  0
  2  3  1  0
  3  4  2  3
  4  5  1  0
  5  6  2  0
  5  7  1  0
  7  8  1  0
  8  9  2  0
  8 32  1  0
  9 10  1  0
 10 11  2  0
 11 12  1  0
 11 32  1  0
 12 13  1  0
 13 14  2  3
 14 15  1  0
 14 18  1  0
 15 16  1  1
 15 17  1  0
 18 19  1  0
 18 31  1  0
 19 20  1  0
 20 21  1  0
 21 22  1  0
 21 30  1  0
 22 23  2  0
 22 28  1  0
 23 24  1  0
 24 25  2  0
 25 26  1  0
 26 27  1  0
 26 28  2  0
 28 29  1  0
 30 31  1  0
M  END
