
     RDKit          3D

 32 34  0  0  0  0  0  0  0  0999 V2000
   -3.4930    1.8280    0.8760 C   0  0  0  0  0  0  0  0  0  0  0  0
   -2.5600    2.1980   -0.2710 C   0  0  0  0  0  0  0  0  0  0  0  0
   -1.1290    1.8060    0.0530 C   0  0  2  0  0  0  0  0  0  0  0  0
   -1.0160    0.3120    0.2900 C   0  0  1  0  0  0  0  0  0  0  0  0
   -1.4420   -0.4970   -0.9030 C   0  0  0  0  0  0  0  0  0  0  0  0
   -1.3840   -1.9470   -0.6040 C   0  0  2  0  0  0  0  0  0  0  0  0
   -1.7900   -2.7150   -1.8620 C   0  0  0  0  0  0  0  0  0  0  0  0
   -1.7510   -4.1870   -1.6670 C   0  0  0  0  0  0  0  0  0  0  0  0
   -2.0810   -4.7080   -0.3300 C   0  0  0  0  0  0  0  0  0  0  0  0
   -1.8840   -3.8230    0.8380 C   0  0  2  0  0  0  0  0  0  0  0  0
   -2.6670   -4.2570    1.9050 O   0  0  0  0  0  0  0  0  0  0  0  0
   -2.3810   -2.4190    0.4540 C   0  0  2  0  0  0  0  0  0  0  0  0
   -3.7700   -2.5870   -0.0610 C   0  0  0  0  0  0  0  0  0  0  0  0
   -4.3640   -1.4640   -0.5740 O   0  0  0  0  0  0  0  0  0  0  0  0
    0.2930   -0.0360    0.7830 N   0  0  0  0  0  0  0  0  0  0  0  0
    1.3900   -0.5110    0.0540 C   0  0  0  0  0  0  0  0  0  0  0  0
    1.2590   -0.6510   -1.1830 O   0  0  0  0  0  0  0  0  0  0  0  0
    2.6750   -0.8380    0.7500 C   0  0  2  0  0  0  0  0  0  0  0  0
    3.2650    0.3440    1.4550 C   0  0  1  0  0  0  0  0  0  0  0  0
    3.2180    0.2080    2.9690 C   0  0  0  0  0  0  0  0  0  0  0  0
    4.7380    0.3950    1.0790 C   0  0  0  0  0  0  0  0  0  0  0  0
    5.0060   -1.0210    0.5570 C   0  0  0  0  0  0  0  0  0  0  0  0
    3.7150   -1.2500   -0.2430 C   0  0  2  0  0  0  0  0  0  0  0  0
    3.7880   -0.3720   -1.4540 C   0  0  0  0  0  0  0  0  0  0  0  0
    3.6440   -2.6010   -0.5720 O   0  0  0  0  0  0  0  0  0  0  0  0
   -0.7770    2.5860    1.3110 C   0  0  0  0  0  0  0  0  0  0  0  0
    0.3540    3.5650    1.0930 C   0  0  0  0  0  0  0  0  0  0  0  0
   -0.1020    4.5220    0.0110 C   0  0  0  0  0  0  0  0  0  0  0  0
   -0.2460    3.7490   -1.2760 C   0  0  2  0  0  0  0  0  0  0  0  0
    1.0100    4.0650   -2.0970 C   0  0  0  0  0  0  0  0  0  0  0  0
   -1.3120    4.2310   -2.0080 O   0  0  0  0  0  0  0  0  0  0  0  0
   -0.2500    2.2610   -1.0570 C   0  0  0  0  0  0  0  0  0  0  0  0
  1  2  1  0
  3  2  1  6
  3  4  1  0
  3 26  1  0
  3 32  1  0
  4  5  1  6
  4 15  1  0
  6  5  1  6
  6  7  1  0
  6 12  1  0
  7  8  1  0
  8  9  1  0
  9 10  1  0
 10 11  1  1
 10 12  1  0
 12 13  1  6
 13 14  1  0
 15 16  1  0
 16 17  2  0
 18 16  1  6
 18 19  1  0
 18 23  1  0
 19 20  1  1
 19 21  1  0
 21 22  1  0
 22 23  1  0
 23 24  1  6
 23 25  1  0
 26 27  1  0
 27 28  1  0
 28 29  1  0
 29 30  1  6
 29 31  1  0
 29 32  1  0
M  END
