
     RDKit          3D

 32 34  0  0  0  0  0  0  0  0999 V2000
   -1.6540   -0.4650   -3.3390 C   0  0  0  0  0  0  0  0  0  0  0  0
   -2.4660   -0.2650   -2.0480 C   0  0  2  0  0  0  0  0  0  0  0  0
   -3.4490    0.8000   -2.2770 C   0  0  0  0  0  0  0  0  0  0  0  0
   -3.5810    1.8470   -1.2580 C   0  0  2  0  0  0  0  0  0  0  0  0
   -5.0740    2.1550   -1.0640 C   0  0  0  0  0  0  0  0  0  0  0  0
   -3.0460    3.1020   -1.8820 C   0  0  0  0  0  0  0  0  0  0  0  0
   -2.6190    4.0630   -2.3620 N   0  0  0  0  0  0  0  0  0  0  0  0
   -3.0300    1.6460    0.0910 C   0  0  0  0  0  0  0  0  0  0  0  0
   -2.1590    0.4390    0.3560 C   0  0  1  0  0  0  0  0  0  0  0  0
   -1.0340    1.0440    1.1830 C   0  0  0  0  0  0  0  0  0  0  0  0
    0.0410    0.2590    1.7200 C   0  0  2  0  0  0  0  0  0  0  0  0
    0.9330    1.2690    2.5100 C   0  0  0  0  0  0  0  0  0  0  0  0
    1.7650    0.5390    3.5190 C   0  0  0  0  0  0  0  0  0  0  0  0
    2.2360   -0.7750    2.8780 C   0  0  0  0  0  0  0  0  0  0  0  0
    2.4230   -0.4520    1.4130 C   0  0  1  0  0  0  0  0  0  0  0  0
    3.1440   -1.3970    0.7380 O   0  0  0  0  0  0  0  0  0  0  0  0
    4.2430   -0.9620    0.0500 C   0  0  0  0  0  0  0  0  0  0  0  0
    3.9600    0.0380   -1.0310 C   0  0  2  0  0  0  0  0  0  0  0  0
    3.1070   -0.4770   -2.0060 O   0  0  0  0  0  0  0  0  0  0  0  0
    5.2560    0.4150   -1.7400 C   0  0  2  0  0  0  0  0  0  0  0  0
    5.8500   -0.7300   -2.4890 C   0  0  0  0  0  0  0  0  0  0  0  0
    7.0890   -1.0420   -1.7030 C   0  0  0  0  0  0  0  0  0  0  0  0
    7.2550    0.1080   -0.7720 C   0  0  0  0  0  0  0  0  0  0  0  0
    6.1850    0.9440   -0.8890 O   0  0  0  0  0  0  0  0  0  0  0  0
    1.0050   -0.4200    0.7940 C   0  0  0  0  0  0  0  0  0  0  0  0
   -2.7270   -0.6240    1.2030 C   0  0  1  0  0  0  0  0  0  0  0  0
   -3.0320   -0.0300    2.4620 O   0  0  0  0  0  0  0  0  0  0  0  0
   -3.8270   -1.4910    0.8430 C   0  0  2  0  0  0  0  0  0  0  0  0
   -5.1710   -0.8820    0.5360 C   0  0  0  0  0  0  0  0  0  0  0  0
   -4.1160   -2.3540    2.1100 C   0  0  0  0  0  0  0  0  0  0  0  0
   -5.1580   -3.2160    1.8550 O   0  0  0  0  0  0  0  0  0  0  0  0
   -1.5090   -0.0450   -0.9190 C   0  0  0  0  0  0  0  0  0  0  0  0
  2  1  1  6
  2  3  1  0
  2 32  1  0
  3  4  1  0
  4  5  1  1
  4  6  1  0
  4  8  1  0
  6  7  3  0
  8  9  1  0
  9 10  1  1
  9 26  1  0
  9 32  1  0
 11 10  1  6
 11 12  1  0
 11 25  1  0
 12 13  1  0
 13 14  1  0
 14 15  1  0
 15 16  1  6
 15 25  1  0
 16 17  1  0
 17 18  1  0
 18 19  1  6
 18 20  1  0
 20 21  1  1
 20 24  1  0
 21 22  1  0
 22 23  1  0
 23 24  1  0
 26 27  1  1
 26 28  1  0
 28 29  1  1
 28 30  1  0
 30 31  1  0
M  END
