
     RDKit          3D

 32 35  0  0  0  0  0  0  0  0999 V2000
   -5.0830    1.7710    2.7420 C   0  0  0  0  0  0  0  0  0  0  0  0
   -4.9140    0.5630    2.4030 C   0  0  0  0  0  0  0  0  0  0  0  0
   -3.9800   -0.1350    1.5960 C   0  0  0  0  0  0  0  0  0  0  0  0
   -4.2050   -1.4790    1.5180 C   0  0  0  0  0  0  0  0  0  0  0  0
   -3.3890   -2.3960    0.7580 C   0  0  2  0  0  0  0  0  0  0  0  0
   -3.6380   -2.1910   -0.6080 F   0  0  0  0  0  0  0  0  0  0  0  0
   -3.8110   -3.7260    0.9750 F   0  0  0  0  0  0  0  0  0  0  0  0
   -2.8630    0.4100    0.8820 C   0  0  0  0  0  0  0  0  0  0  0  0
   -2.0980   -0.3910    0.1760 O   0  0  0  0  0  0  0  0  0  0  0  0
   -2.4520    1.7500    0.8320 N   0  0  0  0  0  0  0  0  0  0  0  0
   -1.2710    2.1650    0.0480 C   0  0  0  0  0  0  0  0  0  0  0  0
   -1.4470    1.8460   -1.3590 C   0  0  0  0  0  0  0  0  0  0  0  0
   -0.6180    1.0640   -2.0020 C   0  0  0  0  0  0  0  0  0  0  0  0
    0.5620    0.4070   -1.4650 C   0  0  0  0  0  0  0  0  0  0  0  0
    1.4370    0.9530   -0.6180 N   0  0  0  0  0  0  0  0  0  0  0  0
    2.5250    0.2890   -0.1470 C   0  0  0  0  0  0  0  0  0  0  0  0
    2.7920   -0.9690   -0.5060 N   0  0  0  0  0  0  0  0  0  0  0  0
    3.7710   -1.8250   -0.1960 C   0  0  0  0  0  0  0  0  0  0  0  0
    4.9280   -1.6870    0.6870 C   0  0  0  0  0  0  0  0  0  0  0  0
    5.3440   -0.7200    1.4540 C   0  0  0  0  0  0  0  0  0  0  0  0
    6.6120   -1.0730    2.1750 C   0  0  0  0  0  0  0  0  0  0  0  0
    6.8680   -2.4230    1.6920 C   0  0  0  0  0  0  0  0  0  0  0  0
    5.9170   -2.7700    0.8520 C   0  0  0  0  0  0  0  0  0  0  0  0
    5.8570   -3.9910    0.2090 F   0  0  0  0  0  0  0  0  0  0  0  0
    3.4600   -2.9540   -0.9040 N   0  0  0  0  0  0  0  0  0  0  0  0
    2.3700   -2.7800   -1.5890 N   0  0  0  0  0  0  0  0  0  0  0  0
    1.9080   -1.5380   -1.3690 C   0  0  0  0  0  0  0  0  0  0  0  0
    0.8310   -0.8660   -1.8300 N   0  0  0  0  0  0  0  0  0  0  0  0
   -0.9760    0.8550   -3.4550 C   0  0  0  0  0  0  0  0  0  0  0  0
   -1.2220    2.2180   -4.0370 C   0  0  0  0  0  0  0  0  0  0  0  0
   -2.0280    3.0160   -3.2720 O   0  0  0  0  0  0  0  0  0  0  0  0
   -2.5900    2.3900   -2.1820 C   0  0  0  0  0  0  0  0  0  0  0  0
  1  2  2  0
  2  3  1  0
  3  4  2  3
  3  8  1  0
  4  5  1  0
  5  6  1  6
  5  7  1  0
  8  9  2  0
  8 10  1  0
 10 11  1  0
 11 12  1  0
 12 13  2  0
 12 32  1  0
 13 14  1  0
 13 29  1  0
 14 15  1  0
 14 28  2  0
 15 16  2  0
 16 17  1  0
 17 18  1  0
 17 27  1  0
 18 19  1  0
 18 25  2  0
 19 20  2  0
 19 23  1  0
 20 21  1  0
 21 22  1  0
 22 23  2  0
 23 24  1  0
 25 26  1  0
 26 27  2  0
 27 28  1  0
 29 30  1  0
 30 31  1  0
 31 32  1  0
M  END
