
     RDKit          3D

  3  2  0  0  0  0  0  0  0  0999 V2000
    1.6760    0.0880   -0.3100 C   0  0  0  0  0  0  0  0  0  0  0  0
    0.4860    0.0150   -0.0460 C   0  0  0  0  0  0  0  0  0  0  0  0
   -0.9440   -0.0500    0.2660 C   0  0  0  0  0  0  0  0  0  0  0  0
  1  2  3  0
  2  3  1  0
M  END
