
     RDKit          3D

 25 26  0  0  0  0  0  0  0  0999 V2000
    5.2930    0.6520    0.6440 C   0  0  0  0  0  0  0  0  0  0  0  0
    4.3150    1.6850    0.0840 C   0  0  1  0  0  0  0  0  0  0  0  0
    5.0300    2.7200   -0.4670 O   0  0  0  0  0  0  0  0  0  0  0  0
    3.4760    0.9910   -0.9790 C   0  0  2  0  0  0  0  0  0  0  0  0
    2.7330   -0.0780   -0.4240 O   0  0  0  0  0  0  0  0  0  0  0  0
    1.3350   -0.0950   -0.4330 C   0  0  0  0  0  0  0  0  0  0  0  0
    0.7860    0.9070   -0.9700 O   0  0  0  0  0  0  0  0  0  0  0  0
    0.5900   -1.1710    0.1250 N   0  0  0  0  0  0  0  0  0  0  0  0
    1.2860   -2.2770    0.7180 C   0  0  0  0  0  0  0  0  0  0  0  0
   -0.8410   -1.0760    0.0570 C   0  0  0  0  0  0  0  0  0  0  0  0
   -1.4810   -0.9900   -1.0860 C   0  0  0  0  0  0  0  0  0  0  0  0
   -2.9560   -0.8900   -1.2090 C   0  0  2  0  0  0  0  0  0  0  0  0
   -3.3250    0.3120   -2.0120 C   0  0  0  0  0  0  0  0  0  0  0  0
   -4.6980    0.5940   -2.2540 N   0  0  0  0  0  0  0  0  0  0  0  0
   -2.4780    1.1030   -2.4940 O   0  0  0  0  0  0  0  0  0  0  0  0
   -3.6400   -0.9360    0.1160 C   0  0  0  0  0  0  0  0  0  0  0  0
   -2.8040   -0.4100    1.2540 C   0  0  2  0  0  0  0  0  0  0  0  0
   -3.5600   -0.6140    2.5390 C   0  0  0  0  0  0  0  0  0  0  0  0
   -3.8250    0.8300    2.9750 C   0  0  0  0  0  0  0  0  0  0  0  0
   -3.7980    1.5520    1.7740 O   0  0  0  0  0  0  0  0  0  0  0  0
   -2.6000    1.0700    1.2150 C   0  0  0  0  0  0  0  0  0  0  0  0
   -1.5780   -1.0750    1.2310 O   0  0  0  0  0  0  0  0  0  0  0  0
    4.3710    0.4060   -2.0090 C   0  0  0  0  0  0  0  0  0  0  0  0
    4.3870   -0.9840   -2.2950 N   0  0  0  0  0  0  0  0  0  0  0  0
    5.1300    1.1710   -2.6380 O   0  0  0  0  0  0  0  0  0  0  0  0
  2  1  1  6
  2  3  1  0
  2  4  1  0
  4  5  1  1
  4 23  1  0
  5  6  1  0
  6  7  2  0
  6  8  1  0
  8  9  1  0
  8 10  1  0
 10 11  2  0
 10 22  1  0
 11 12  1  0
 12 13  1  1
 12 16  1  0
 13 14  1  0
 13 15  2  0
 17 16  1  6
 17 18  1  0
 17 21  1  0
 17 22  1  0
 18 19  1  0
 19 20  1  0
 20 21  1  0
 23 24  1  0
 23 25  2  0
M  END
