
     RDKit          3D

 16 17  0  0  0  0  0  0  0  0999 V2000
    5.0060   -0.1230    0.5720 N   0  0  0  0  0  0  0  0  0  0  0  0
    3.6440   -0.0800    0.2020 C   0  0  0  0  0  0  0  0  0  0  0  0
    2.8540   -1.2240    0.2210 C   0  0  0  0  0  0  0  0  0  0  0  0
    1.5320   -1.1900   -0.1370 C   0  0  0  0  0  0  0  0  0  0  0  0
    0.9160   -0.0270   -0.5320 C   0  0  0  0  0  0  0  0  0  0  0  0
   -0.4790    0.1100   -0.9290 C   0  0  2  0  0  0  0  0  0  0  0  0
   -1.1140    1.2650   -0.3320 N   0  0  0  0  0  0  0  0  0  0  0  0
   -2.2780    0.7780    0.3870 C   0  0  2  0  0  0  0  0  0  0  0  0
   -1.9140    0.3120    1.7800 C   0  0  0  0  0  0  0  0  0  0  0  0
   -3.0630   -0.1350    2.4010 O   0  0  0  0  0  0  0  0  0  0  0  0
   -2.6940   -0.3930   -0.4940 C   0  0  1  0  0  0  0  0  0  0  0  0
   -3.0470    0.1410   -1.7250 O   0  0  0  0  0  0  0  0  0  0  0  0
   -1.3450   -1.0740   -0.6850 C   0  0  1  0  0  0  0  0  0  0  0  0
   -1.4720   -1.8540   -1.8470 O   0  0  0  0  0  0  0  0  0  0  0  0
    1.7060    1.1060   -0.5490 C   0  0  0  0  0  0  0  0  0  0  0  0
    3.0280    1.0950   -0.1960 C   0  0  0  0  0  0  0  0  0  0  0  0
  1  2  1  0
  2  3  2  0
  2 16  1  0
  3  4  1  0
  4  5  2  0
  6  5  1  1
  5 15  1  0
  6  7  1  0
  6 13  1  0
  7  8  1  0
  8  9  1  1
  8 11  1  0
  9 10  1  0
 11 12  1  6
 11 13  1  0
 13 14  1  6
 15 16  2  0
M  CHG  1   7   1
M  END
