
     RDKit          3D

 25 26  0  0  0  0  0  0  0  0999 V2000
    4.6790    1.2640   -0.2170 C   0  0  0  0  0  0  0  0  0  0  0  0
    3.5380    0.2730   -0.2170 C   0  0  1  0  0  0  0  0  0  0  0  0
    4.0890   -1.1030    0.1640 C   0  0  0  0  0  0  0  0  0  0  0  0
    2.6180    0.6180    0.7410 O   0  0  0  0  0  0  0  0  0  0  0  0
    1.3690    0.8660    0.2060 C   0  0  1  0  0  0  0  0  0  0  0  0
    0.3970   -0.0930    0.8750 C   0  0  0  0  0  0  0  0  0  0  0  0
    0.1580   -1.1190   -0.0640 O   0  0  0  0  0  0  0  0  0  0  0  0
   -0.5710   -2.2820    0.1580 C   0  0  0  0  0  0  0  0  0  0  0  0
   -0.1660   -3.5130   -0.1340 C   0  0  0  0  0  0  0  0  0  0  0  0
   -1.2140   -4.4720    0.2530 C   0  0  0  0  0  0  0  0  0  0  0  0
   -2.2540   -3.6180    0.7980 C   0  0  0  0  0  0  0  0  0  0  0  0
   -1.8920   -2.3200    0.7460 C   0  0  0  0  0  0  0  0  0  0  0  0
   -2.6480   -1.1770    1.1680 N   0  0  0  0  0  0  0  0  0  0  0  0
   -3.1750   -0.0980    0.4230 C   0  0  0  0  0  0  0  0  0  0  0  0
   -4.2320    0.5230    0.9390 O   0  0  0  0  0  0  0  0  0  0  0  0
   -2.7750    0.4480   -0.7970 N   0  0  0  0  0  0  0  0  0  0  0  0
   -1.7080    1.2450   -1.2090 C   0  0  0  0  0  0  0  0  0  0  0  0
   -0.9710    0.7800   -2.1620 O   0  0  0  0  0  0  0  0  0  0  0  0
   -1.2850    2.5770   -0.7080 C   0  0  1  0  0  0  0  0  0  0  0  0
   -2.4780    3.3830   -0.2580 C   0  0  0  0  0  0  0  0  0  0  0  0
   -3.6210    3.5930   -1.0680 N   0  0  0  0  0  0  0  0  0  0  0  0
   -2.4610    3.8890    0.8810 O   0  0  0  0  0  0  0  0  0  0  0  0
   -0.3700    2.5790    0.3190 O   0  0  0  0  0  0  0  0  0  0  0  0
    0.9350    2.2800    0.4230 C   0  0  0  0  0  0  0  0  0  0  0  0
    1.8390    3.1120    0.6940 O   0  0  0  0  0  0  0  0  0  0  0  0
  2  1  1  1
  2  3  1  0
  2  4  1  0
  5  4  1  1
  5  6  1  0
  5 24  1  0
  6  7  1  0
  7  8  1  0
  8  9  2  0
  8 12  1  0
  9 10  1  0
 10 11  1  0
 11 12  2  0
 12 13  1  0
 13 14  1  0
 14 15  2  0
 14 16  1  0
 16 17  1  0
 17 18  2  0
 17 19  1  0
 19 20  1  1
 19 23  1  0
 20 21  1  0
 20 22  2  0
 23 24  1  0
 24 25  2  0
M  END
