
     RDKit          3D

 43 46  0  0  0  0  0  0  0  0999 V2000
   -3.1450    6.5530    0.8440 C   0  0  0  0  0  0  0  0  0  0  0  0
   -3.7310    5.3730    1.3850 O   0  0  0  0  0  0  0  0  0  0  0  0
   -4.4370    4.5100    0.5530 N   0  0  0  0  0  0  0  0  0  0  0  0
   -4.0010    3.3290    0.2770 C   0  0  0  0  0  0  0  0  0  0  0  0
   -2.7650    2.8730    0.8260 C   0  0  0  0  0  0  0  0  0  0  0  0
   -2.1730    1.7070    0.6480 C   0  0  0  0  0  0  0  0  0  0  0  0
   -2.8430    0.7470   -0.2150 C   0  0  0  0  0  0  0  0  0  0  0  0
   -3.0800   -0.5220    0.0710 C   0  0  0  0  0  0  0  0  0  0  0  0
   -2.7040   -1.1010    1.2610 O   0  0  0  0  0  0  0  0  0  0  0  0
   -2.8100   -2.5040    1.1820 C   0  0  2  0  0  0  0  0  0  0  0  0
   -1.5210   -3.2330    1.0700 C   0  0  0  0  0  0  0  0  0  0  0  0
   -1.2340   -3.7680   -0.3120 C   0  0  0  0  0  0  0  0  0  0  0  0
   -0.1830   -2.9220   -1.0300 C   0  0  0  0  0  0  0  0  0  0  0  0
    1.0740   -2.9510   -0.3360 N   0  0  0  0  0  0  0  0  0  0  0  0
    2.3460   -2.6320   -0.8400 C   0  0  0  0  0  0  0  0  0  0  0  0
    3.2700   -3.5030   -0.6060 O   0  0  0  0  0  0  0  0  0  0  0  0
    2.7230   -1.5280   -1.5400 O   0  0  0  0  0  0  0  0  0  0  0  0
    2.5170   -0.1690   -1.2160 C   0  0  1  0  0  0  0  0  0  0  0  0
    1.2030    0.1010   -1.2520 O   0  0  0  0  0  0  0  0  0  0  0  0
    0.7310    1.1260   -0.4740 C   0  0  2  0  0  0  0  0  0  0  0  0
    1.7430    2.1980   -0.1780 C   0  0  0  0  0  0  0  0  0  0  0  0
    2.8960    1.5670    0.5540 C   0  0  0  0  0  0  0  0  0  0  0  0
    3.2590    0.2270    0.0220 C   0  0  2  0  0  0  0  0  0  0  0  0
    4.6810    0.1760   -0.2750 N   0  0  0  0  0  0  0  0  0  0  0  0
    5.3470    1.0370   -1.2650 C   0  0  0  0  0  0  0  0  0  0  0  0
    6.8150    0.8650   -0.9710 C   0  0  0  0  0  0  0  0  0  0  0  0
    6.9230   -0.4160   -0.3050 N   0  0  0  0  0  0  0  0  0  0  0  0
    8.1030   -1.1990   -0.3130 C   0  0  0  0  0  0  0  0  0  0  0  0
    8.6590   -1.4810    0.8100 N   0  0  0  0  0  0  0  0  0  0  0  0
    5.6670   -0.6760    0.3050 C   0  0  0  0  0  0  0  0  0  0  0  0
    5.4790   -1.5370    1.2200 O   0  0  0  0  0  0  0  0  0  0  0  0
    0.0820    0.6180    0.7920 C   0  0  0  0  0  0  0  0  0  0  0  0
   -0.9880    1.3930    1.2330 O   0  0  0  0  0  0  0  0  0  0  0  0
   -3.7190   -2.7670    0.0980 N   0  0  0  0  0  0  0  0  0  0  0  0
   -4.4480   -3.9950   -0.1030 C   0  0  0  0  0  0  0  0  0  0  0  0
   -5.6890   -4.0040    0.5230 O   0  0  0  0  0  0  0  0  0  0  0  0
   -5.4620   -3.8410    1.8280 O   0  0  0  0  0  0  0  0  0  0  0  0
   -3.7390   -1.5930   -0.6930 C   0  0  0  0  0  0  0  0  0  0  0  0
   -4.2470   -1.5130   -1.8580 O   0  0  0  0  0  0  0  0  0  0  0  0
   -4.7800    2.5560   -0.5560 O   0  0  0  0  0  0  0  0  0  0  0  0
   -5.9950    3.0380   -1.0800 C   0  0  0  0  0  0  0  0  0  0  0  0
   -6.3640    4.1980   -0.7710 O   0  0  0  0  0  0  0  0  0  0  0  0
   -6.7830    2.2760   -1.9130 O   0  0  0  0  0  0  0  0  0  0  0  0
  1  2  1  0
  2  3  1  0
  3  4  2  3
  4  5  1  0
  4 40  1  0
  5  6  2  3
  6  7  1  0
  6 33  1  0
  7  8  2  0
  8  9  1  0
  8 38  1  0
  9 10  1  0
 10 11  1  6
 10 34  1  0
 11 12  1  0
 12 13  1  0
 13 14  1  0
 14 15  1  0
 15 16  2  0
 15 17  1  0
 18 17  1  1
 18 19  1  0
 18 23  1  0
 19 20  1  0
 20 21  1  1
 20 32  1  0
 21 22  1  0
 22 23  1  0
 23 24  1  6
 24 25  1  0
 24 30  1  0
 25 26  1  0
 26 27  1  0
 27 28  1  0
 27 30  1  0
 28 29  2  0
 30 31  2  0
 32 33  1  0
 34 35  1  0
 34 38  1  0
 35 36  1  0
 36 37  1  0
 38 39  2  0
 40 41  1  0
 41 42  2  0
 41 43  1  0
M  END
