
     RDKit          3D

 43 45  0  0  0  0  0  0  0  0999 V2000
   -5.1020    1.1180   -0.1670 C   0  0  0  0  0  0  0  0  0  0  0  0
   -4.6300    0.0330    0.7800 C   0  0  2  0  0  0  0  0  0  0  0  0
   -5.5420    0.1140    1.9870 C   0  0  0  0  0  0  0  0  0  0  0  0
   -3.2900    0.1650    1.1710 O   0  0  0  0  0  0  0  0  0  0  0  0
   -2.2110    0.1430    0.3260 C   0  0  0  0  0  0  0  0  0  0  0  0
   -2.4690   -0.0190   -0.9060 O   0  0  0  0  0  0  0  0  0  0  0  0
   -0.8100    0.2970    0.7980 C   0  0  2  0  0  0  0  0  0  0  0  0
   -0.7510    1.6190    1.5480 C   0  0  0  0  0  0  0  0  0  0  0  0
   -1.4710    2.5830    0.6350 C   0  0  0  0  0  0  0  0  0  0  0  0
   -0.6620    2.7210   -0.5630 N   0  0  0  0  0  0  0  0  0  0  0  0
   -0.0960    1.5700   -1.2200 C   0  0  0  0  0  0  0  0  0  0  0  0
    0.1470    0.3650   -0.4030 C   0  0  2  0  0  0  0  0  0  0  0  0
   -0.2660   -0.8320   -1.2240 C   0  0  0  0  0  0  0  0  0  0  0  0
   -0.4550   -0.6960   -2.4630 O   0  0  0  0  0  0  0  0  0  0  0  0
   -0.4350   -2.0890   -0.6050 N   0  0  0  0  0  0  0  0  0  0  0  0
   -0.8260   -3.1870   -1.5090 C   0  0  0  0  0  0  0  0  0  0  0  0
   -0.9400   -4.4570   -0.6990 C   0  0  0  0  0  0  0  0  0  0  0  0
   -1.8830   -4.3660    0.3120 O   0  0  0  0  0  0  0  0  0  0  0  0
    1.5240    0.0760    0.0280 C   0  0  0  0  0  0  0  0  0  0  0  0
    1.5200   -1.0740    0.9540 N   0  0  0  0  0  0  0  0  0  0  0  0
    2.4840   -1.9310    0.9450 C   0  0  0  0  0  0  0  0  0  0  0  0
    3.5080   -1.7360    0.0460 O   0  0  0  0  0  0  0  0  0  0  0  0
    2.5300   -3.0960    1.8480 C   0  0  0  0  0  0  0  0  0  0  0  0
    3.6040   -3.1000    2.8020 N   0  0  0  0  0  0  0  0  0  0  0  0
    4.9460   -3.1250    2.3950 C   0  0  0  0  0  0  0  0  0  0  0  0
    5.2620   -3.1520    1.1980 O   0  0  0  0  0  0  0  0  0  0  0  0
    6.0150   -3.1220    3.3110 O   0  0  0  0  0  0  0  0  0  0  0  0
    2.5470    0.6430   -0.2530 N   0  0  0  0  0  0  0  0  0  0  0  0
    3.2120    1.6470   -0.9220 C   0  0  0  0  0  0  0  0  0  0  0  0
    4.3240    1.3740   -1.7370 C   0  0  0  0  0  0  0  0  0  0  0  0
    4.9780    2.3920   -2.3800 C   0  0  0  0  0  0  0  0  0  0  0  0
    4.5240    3.6730   -2.2120 C   0  0  0  0  0  0  0  0  0  0  0  0
    3.4360    3.9500   -1.4160 C   0  0  0  0  0  0  0  0  0  0  0  0
    2.8360    2.9350   -0.8130 N   0  0  0  0  0  0  0  0  0  0  0  0
    2.9070    5.3270   -1.2440 C   0  0  0  0  0  0  0  0  0  0  0  0
    3.7190    6.2550   -1.3360 O   0  0  0  0  0  0  0  0  0  0  0  0
    1.5490    5.4280   -0.9970 O   0  0  0  0  0  0  0  0  0  0  0  0
    0.6320    4.6090   -1.5790 O   0  0  0  0  0  0  0  0  0  0  0  0
   -0.5130    4.0760   -1.0480 C   0  0  0  0  0  0  0  0  0  0  0  0
   -1.6210    4.7500   -0.9200 O   0  0  0  0  0  0  0  0  0  0  0  0
   -4.8990   -1.3020    0.1600 C   0  0  0  0  0  0  0  0  0  0  0  0
   -4.0220   -2.1820    0.0110 O   0  0  0  0  0  0  0  0  0  0  0  0
   -6.1850   -1.5830   -0.2740 O   0  0  0  0  0  0  0  0  0  0  0  0
  2  1  1  6
  2  3  1  0
  2  4  1  0
  2 41  1  0
  4  5  1  0
  5  6  2  0
  7  5  1  6
  7  8  1  0
  7 12  1  0
  8  9  1  0
  9 10  1  0
 10 11  1  0
 10 39  1  0
 11 12  1  0
 12 13  1  6
 12 19  1  0
 13 14  2  0
 13 15  1  0
 15 16  1  0
 16 17  1  0
 17 18  1  0
 19 20  1  0
 19 28  2  0
 20 21  2  3
 21 22  1  0
 21 23  1  0
 23 24  1  0
 24 25  1  0
 25 26  2  0
 25 27  1  0
 28 29  1  0
 29 30  2  0
 29 34  1  0
 30 31  1  0
 31 32  2  0
 32 33  1  0
 33 34  2  0
 33 35  1  0
 35 36  2  0
 35 37  1  0
 37 38  1  0
 38 39  1  0
 39 40  2  0
 41 42  2  0
 41 43  1  0
M  END
