
     RDKit          3D

 43 47  0  0  0  0  0  0  0  0999 V2000
   -7.6390    0.2100    1.8540 O   0  0  0  0  0  0  0  0  0  0  0  0
   -6.4970    0.4390    2.3540 C   0  0  0  0  0  0  0  0  0  0  0  0
   -5.3220   -0.4060    2.1110 C   0  0  0  0  0  0  0  0  0  0  0  0
   -5.2730   -0.8100    0.6420 C   0  0  1  0  0  0  0  0  0  0  0  0
   -4.2400   -1.6610    0.3450 O   0  0  0  0  0  0  0  0  0  0  0  0
   -2.9300   -1.5520    0.0560 C   0  0  0  0  0  0  0  0  0  0  0  0
   -1.9990   -2.2420    0.8390 C   0  0  0  0  0  0  0  0  0  0  0  0
   -0.6410   -2.1900    0.6190 C   0  0  0  0  0  0  0  0  0  0  0  0
   -0.1740   -1.4280   -0.4120 C   0  0  0  0  0  0  0  0  0  0  0  0
    1.1670   -1.3020   -0.6880 N   0  0  0  0  0  0  0  0  0  0  0  0
    2.1710   -1.5160    0.3800 C   0  0  0  0  0  0  0  0  0  0  0  0
    1.7560   -1.7170    1.5080 O   0  0  0  0  0  0  0  0  0  0  0  0
    3.4250   -1.4480   -0.1910 N   0  0  0  0  0  0  0  0  0  0  0  0
    4.3170   -2.0120    1.2000 C   0  0  0  0  0  0  0  0  0  0  0  0
    3.6790   -2.2450    2.1400 O   0  0  0  0  0  0  0  0  0  0  0  0
    5.7070   -2.1020    0.9220 C   0  0  0  0  0  0  0  0  0  0  0  0
    6.3740   -3.3540    1.0580 C   0  0  0  0  0  0  0  0  0  0  0  0
    7.6220   -3.1700    0.6850 N   0  0  0  0  0  0  0  0  0  0  0  0
    7.7860   -1.8990    0.3260 N   0  0  0  0  0  0  0  0  0  0  0  0
    8.7330   -1.0890   -0.1160 C   0  0  0  0  0  0  0  0  0  0  0  0
    8.1230    0.1700   -0.2570 C   0  0  0  0  0  0  0  0  0  0  0  0
    8.7960    1.3870   -0.7200 C   0  0  2  0  0  0  0  0  0  0  0  0
    9.4160    2.1600    0.4330 C   0  0  0  0  0  0  0  0  0  0  0  0
    9.3920    3.4940   -0.0570 O   0  0  0  0  0  0  0  0  0  0  0  0
    8.1120    3.4810   -0.6210 C   0  0  0  0  0  0  0  0  0  0  0  0
    8.0190    2.3100   -1.3680 O   0  0  0  0  0  0  0  0  0  0  0  0
    6.8690    0.0300    0.1020 O   0  0  0  0  0  0  0  0  0  0  0  0
    6.6420   -1.2170    0.4590 C   0  0  0  0  0  0  0  0  0  0  0  0
   -1.0950   -0.7400   -1.1970 C   0  0  0  0  0  0  0  0  0  0  0  0
   -2.4280   -0.7920   -0.9820 C   0  0  0  0  0  0  0  0  0  0  0  0
   -3.2910   -0.0320   -1.9500 C   0  0  0  0  0  0  0  0  0  0  0  0
   -3.0670    1.3130   -1.9530 O   0  0  0  0  0  0  0  0  0  0  0  0
   -4.0850    2.1550   -1.6370 C   0  0  0  0  0  0  0  0  0  0  0  0
   -5.4090    1.7360   -2.2500 C   0  0  0  0  0  0  0  0  0  0  0  0
   -6.3900    1.4960   -1.3270 O   0  0  0  0  0  0  0  0  0  0  0  0
   -7.4660    0.6950   -1.1840 C   0  0  0  0  0  0  0  0  0  0  0  0
   -8.6150    1.1430   -1.5070 O   0  0  0  0  0  0  0  0  0  0  0  0
   -7.4900   -0.6490   -0.6860 N   0  0  0  0  0  0  0  0  0  0  0  0
   -6.5340   -1.3160    0.0860 C   0  0  0  0  0  0  0  0  0  0  0  0
   -6.7940   -2.5710    0.3570 O   0  0  0  0  0  0  0  0  0  0  0  0
   -6.3950    1.6060    3.1930 N   0  0  0  0  0  0  0  0  0  0  0  0
   -7.5230    2.3630    3.3910 O   0  0  0  0  0  0  0  0  0  0  0  0
   -7.4030    3.3710    2.5620 O   0  0  0  0  0  0  0  0  0  0  0  0
  1  2  2  0
  2  3  1  0
  2 41  1  0
  4  3  1  1
  4  5  1  0
  4 39  1  0
  5  6  1  0
  6  7  2  0
  6 30  1  0
  7  8  1  0
  8  9  2  0
  9 10  1  0
  9 29  1  0
 10 11  1  0
 11 12  2  0
 11 13  1  0
 13 14  1  0
 14 15  2  0
 14 16  1  0
 16 17  1  0
 16 28  2  0
 17 18  2  0
 18 19  1  0
 19 20  1  0
 19 28  1  0
 20 21  2  0
 22 21  1  1
 21 27  1  0
 22 23  1  0
 22 26  1  0
 23 24  1  0
 24 25  1  0
 25 26  1  0
 27 28  1  0
 29 30  2  0
 30 31  1  0
 31 32  1  0
 32 33  1  0
 33 34  1  0
 34 35  1  0
 35 36  1  0
 36 37  2  0
 36 38  1  0
 38 39  1  0
 39 40  2  0
 41 42  1  0
 42 43  1  0
M  END
