
     RDKit          3D

 43 46  0  0  0  0  0  0  0  0999 V2000
    1.9880    7.7170    0.1310 C   0  0  0  0  0  0  0  0  0  0  0  0
    0.9370    6.6790   -0.0870 C   0  0  0  0  0  0  0  0  0  0  0  0
    1.4530    5.4840   -0.6340 O   0  0  0  0  0  0  0  0  0  0  0  0
    0.5960    4.4030   -0.9030 C   0  0  0  0  0  0  0  0  0  0  0  0
   -0.5950    4.5830   -0.6310 O   0  0  0  0  0  0  0  0  0  0  0  0
    0.9950    3.2370   -1.4180 O   0  0  0  0  0  0  0  0  0  0  0  0
    0.4150    2.0510   -1.7690 C   0  0  0  0  0  0  0  0  0  0  0  0
   -0.2020    1.3140   -0.6210 C   0  0  1  0  0  0  0  0  0  0  0  0
    0.7730    1.0900    0.5100 C   0  0  0  0  0  0  0  0  0  0  0  0
    1.9370    0.2630   -0.0680 C   0  0  0  0  0  0  0  0  0  0  0  0
    2.8700    0.0140    0.9130 O   0  0  0  0  0  0  0  0  0  0  0  0
    3.8990   -0.7470    0.4430 C   0  0  0  0  0  0  0  0  0  0  0  0
    4.6630   -0.1220   -0.6830 C   0  0  0  0  0  0  0  0  0  0  0  0
    5.7040   -1.0050   -1.0700 O   0  0  0  0  0  0  0  0  0  0  0  0
    6.7460   -1.4020   -0.2590 C   0  0  0  0  0  0  0  0  0  0  0  0
    6.8310   -0.9840    0.9010 O   0  0  0  0  0  0  0  0  0  0  0  0
    7.7650   -2.3010   -0.7030 N   0  0  0  0  0  0  0  0  0  0  0  0
    8.8350   -2.6790    0.1990 C   0  0  0  0  0  0  0  0  0  0  0  0
    9.7890   -3.6200   -0.4600 C   0  0  0  0  0  0  0  0  0  0  0  0
   10.7940   -3.9400    0.4740 O   0  0  0  0  0  0  0  0  0  0  0  0
   -1.4420    1.8860   -0.0550 C   0  0  0  0  0  0  0  0  0  0  0  0
   -2.3320    0.6790    0.2380 N   0  0  0  0  0  0  0  0  0  0  0  0
   -3.5700    0.8700    0.7950 C   0  0  0  0  0  0  0  0  0  0  0  0
   -3.7630    2.1400    1.1630 O   0  0  0  0  0  0  0  0  0  0  0  0
   -4.6610    0.0800    1.0690 N   0  0  0  0  0  0  0  0  0  0  0  0
   -5.7000    0.7850    1.9160 C   0  0  0  0  0  0  0  0  0  0  0  0
   -7.0040    0.5680    1.1990 C   0  0  0  0  0  0  0  0  0  0  0  0
   -7.3040   -0.7910    1.4890 O   0  0  0  0  0  0  0  0  0  0  0  0
   -6.5010   -1.5290    0.6990 C   0  0  0  0  0  0  0  0  0  0  0  0
   -5.0150   -1.2170    0.6580 C   0  0  1  0  0  0  0  0  0  0  0  0
   -4.6320   -1.5390   -0.8070 C   0  0  0  0  0  0  0  0  0  0  0  0
   -5.6010   -2.5200   -1.2800 O   0  0  0  0  0  0  0  0  0  0  0  0
   -5.6030   -3.8610   -0.8610 C   0  0  0  0  0  0  0  0  0  0  0  0
   -6.1970   -4.9270   -1.5050 C   0  0  0  0  0  0  0  0  0  0  0  0
   -5.9650   -5.9930   -0.7870 O   0  0  0  0  0  0  0  0  0  0  0  0
   -5.2600   -5.6810    0.2770 N   0  0  0  0  0  0  0  0  0  0  0  0
   -4.9970   -4.3590    0.2930 C   0  0  0  0  0  0  0  0  0  0  0  0
   -4.2640   -3.6400    1.2810 N   0  0  0  0  0  0  0  0  0  0  0  0
   -4.3070   -2.2260    1.5380 C   0  0  0  0  0  0  0  0  0  0  0  0
   -3.7160   -1.8260    2.5570 O   0  0  0  0  0  0  0  0  0  0  0  0
   -1.5420   -0.4210   -0.1050 C   0  0  0  0  0  0  0  0  0  0  0  0
   -1.5450   -1.5670    0.3630 O   0  0  0  0  0  0  0  0  0  0  0  0
   -0.6500    0.0150   -1.1650 N   0  0  0  0  0  0  0  0  0  0  0  0
  1  2  1  0
  2  3  1  0
  3  4  1  0
  4  5  2  0
  4  6  1  0
  6  7  1  0
  8  7  1  6
  8  9  1  0
  8 21  1  0
  8 43  1  0
  9 10  1  0
 10 11  1  0
 11 12  1  0
 12 13  1  0
 13 14  1  0
 14 15  1  0
 15 16  2  0
 15 17  1  0
 17 18  1  0
 18 19  1  0
 19 20  1  0
 21 22  1  0
 22 23  1  0
 22 41  1  0
 23 24  2  0
 23 25  1  0
 25 26  1  0
 25 30  1  0
 26 27  1  0
 27 28  1  0
 28 29  1  0
 30 29  1  6
 30 31  1  0
 30 39  1  0
 31 32  1  0
 32 33  1  0
 33 34  2  0
 33 37  1  0
 34 35  1  0
 35 36  1  0
 36 37  2  0
 37 38  1  0
 38 39  1  0
 39 40  2  0
 41 42  2  0
 41 43  1  0
M  END
