
     RDKit          3D

 43 47  0  0  0  0  0  0  0  0999 V2000
    0.5870   -4.2690   -0.7270 O   0  0  0  0  0  0  0  0  0  0  0  0
    0.0750   -3.4350    0.1130 C   0  0  0  0  0  0  0  0  0  0  0  0
   -0.5820   -2.3250   -0.4880 N   0  0  0  0  0  0  0  0  0  0  0  0
   -1.3530   -1.3320    0.2630 C   0  0  0  0  0  0  0  0  0  0  0  0
   -1.5470   -0.0640   -0.4570 C   0  0  1  0  0  0  0  0  0  0  0  0
   -2.9100   -0.1580   -1.1480 C   0  0  0  0  0  0  0  0  0  0  0  0
   -3.8010   -0.5800   -0.1010 O   0  0  0  0  0  0  0  0  0  0  0  0
   -5.1560   -0.7800   -0.3280 C   0  0  0  0  0  0  0  0  0  0  0  0
   -5.5620   -0.5720   -1.4990 O   0  0  0  0  0  0  0  0  0  0  0  0
   -6.0990   -1.2170    0.7380 C   0  0  2  0  0  0  0  0  0  0  0  0
   -6.9900   -0.0220    1.0600 C   0  0  0  0  0  0  0  0  0  0  0  0
   -6.4250    0.5940    2.1620 O   0  0  0  0  0  0  0  0  0  0  0  0
   -5.3380   -0.1570    2.5460 C   0  0  0  0  0  0  0  0  0  0  0  0
   -5.4390   -1.3910    1.9290 O   0  0  0  0  0  0  0  0  0  0  0  0
   -1.6920    1.1620    0.4580 C   0  0  0  0  0  0  0  0  0  0  0  0
   -2.3210    2.1170   -0.3410 O   0  0  0  0  0  0  0  0  0  0  0  0
   -1.5730    2.5420   -1.4200 C   0  0  0  0  0  0  0  0  0  0  0  0
   -1.0360    1.4050   -2.2620 C   0  0  0  0  0  0  0  0  0  0  0  0
   -0.5080    0.3490   -1.3620 N   0  0  0  0  0  0  0  0  0  0  0  0
    0.8170   -0.1010   -1.4570 C   0  0  0  0  0  0  0  0  0  0  0  0
    1.1630   -0.3800   -2.6570 O   0  0  0  0  0  0  0  0  0  0  0  0
    1.8110   -0.2840   -0.4160 C   0  0  2  0  0  0  0  0  0  0  0  0
    2.7150    0.8980   -0.3880 C   0  0  0  0  0  0  0  0  0  0  0  0
    3.0130    1.5830   -1.5380 C   0  0  0  0  0  0  0  0  0  0  0  0
    3.8680    2.6940   -1.5070 C   0  0  0  0  0  0  0  0  0  0  0  0
    4.4330    3.1350   -0.3300 C   0  0  0  0  0  0  0  0  0  0  0  0
    5.2770    4.2370   -0.3190 O   0  0  0  0  0  0  0  0  0  0  0  0
    5.8150    4.6460    0.8360 O   0  0  0  0  0  0  0  0  0  0  0  0
    7.1330    4.7230    0.7060 O   0  0  0  0  0  0  0  0  0  0  0  0
    7.5440    4.0770   -0.3660 O   0  0  0  0  0  0  0  0  0  0  0  0
    4.1330    2.4440    0.8350 C   0  0  0  0  0  0  0  0  0  0  0  0
    3.2900    1.3530    0.7830 C   0  0  0  0  0  0  0  0  0  0  0  0
    2.5920   -1.5080   -0.6010 N   0  0  0  0  0  0  0  0  0  0  0  0
    2.9830   -2.1010   -1.7270 C   0  0  0  0  0  0  0  0  0  0  0  0
    3.7160   -3.2580   -1.4200 C   0  0  0  0  0  0  0  0  0  0  0  0
    3.7110   -3.2750   -0.1020 N   0  0  0  0  0  0  0  0  0  0  0  0
    3.0480   -2.2430    0.4510 C   0  0  0  0  0  0  0  0  0  0  0  0
    2.8370   -1.9200    1.8380 N   0  0  0  0  0  0  0  0  0  0  0  0
    1.6220   -1.7870    2.5480 C   0  0  0  0  0  0  0  0  0  0  0  0
    1.4500   -0.7580    3.3220 O   0  0  0  0  0  0  0  0  0  0  0  0
    0.4750   -2.7010    2.5290 C   0  0  0  0  0  0  0  0  0  0  0  0
   -0.3290   -2.6190    3.5480 O   0  0  0  0  0  0  0  0  0  0  0  0
    0.1810   -3.6450    1.5080 N   0  0  0  0  0  0  0  0  0  0  0  0
  1  2  2  0
  2  3  1  0
  2 43  1  0
  3  4  1  0
  4  5  1  0
  5  6  1  6
  5 15  1  0
  5 19  1  0
  6  7  1  0
  7  8  1  0
  8  9  2  0
 10  8  1  6
 10 11  1  0
 10 14  1  0
 11 12  1  0
 12 13  1  0
 13 14  1  0
 15 16  1  0
 16 17  1  0
 17 18  1  0
 18 19  1  0
 19 20  1  0
 20 21  2  0
 20 22  1  0
 22 23  1  6
 22 33  1  0
 23 24  2  0
 23 32  1  0
 24 25  1  0
 25 26  2  0
 26 27  1  0
 26 31  1  0
 27 28  1  0
 28 29  1  0
 29 30  1  0
 31 32  2  0
 33 34  1  0
 33 37  1  0
 34 35  2  0
 35 36  1  0
 36 37  2  0
 37 38  1  0
 38 39  1  0
 39 40  2  0
 39 41  1  0
 41 42  2  0
 41 43  1  0
M  END
