
     RDKit          3D

 22 24  0  0  0  0  0  0  0  0999 V2000
   -5.6000    1.6000    0.8670 C   0  0  0  0  0  0  0  0  0  0  0  0
   -4.3350    1.3750    0.5520 C   0  0  0  0  0  0  0  0  0  0  0  0
   -3.5520    2.3950    0.0890 C   0  0  0  0  0  0  0  0  0  0  0  0
   -2.2100    2.1900   -0.2500 C   0  0  0  0  0  0  0  0  0  0  0  0
   -1.6320    0.9390   -0.1270 C   0  0  0  0  0  0  0  0  0  0  0  0
   -0.2150    0.7810   -0.3390 N   0  0  0  0  0  0  0  0  0  0  0  0
    0.5500    1.6280   -1.1890 C   0  0  0  0  0  0  0  0  0  0  0  0
    0.0040    2.5750   -1.8330 O   0  0  0  0  0  0  0  0  0  0  0  0
    2.0060    1.4030   -1.3220 C   0  0  0  0  0  0  0  0  0  0  0  0
    2.5620    0.3270   -0.5930 N   0  0  0  0  0  0  0  0  0  0  0  0
    2.7070   -0.9810   -1.1970 C   0  0  0  0  0  0  0  0  0  0  0  0
    4.1010   -1.5530   -0.9010 C   0  0  0  0  0  0  0  0  0  0  0  0
    4.3630   -1.5710    0.5830 C   0  0  0  0  0  0  0  0  0  0  0  0
    4.1790   -0.2450    1.2300 C   0  0  0  0  0  0  0  0  0  0  0  0
    3.0150    0.4980    0.7410 C   0  0  0  0  0  0  0  0  0  0  0  0
    2.4060    1.3100    1.5310 O   0  0  0  0  0  0  0  0  0  0  0  0
   -2.4310   -0.0910    0.3380 C   0  0  0  0  0  0  0  0  0  0  0  0
   -2.2350   -1.4280    0.5680 C   0  0  0  0  0  0  0  0  0  0  0  0
   -1.1580   -2.1430    0.3210 C   0  0  0  0  0  0  0  0  0  0  0  0
   -3.4090   -1.9990    1.0350 N   0  0  0  0  0  0  0  0  0  0  0  0
   -4.3480   -1.0640    1.1050 C   0  0  0  0  0  0  0  0  0  0  0  0
   -3.7710    0.1270    0.6770 C   0  0  0  0  0  0  0  0  0  0  0  0
  1  2  2  0
  2  3  1  0
  2 22  1  0
  3  4  2  0
  4  5  1  0
  5  6  1  0
  5 17  2  0
  6  7  1  0
  7  8  2  0
  7  9  1  0
  9 10  1  0
 10 11  1  0
 10 15  1  0
 11 12  1  0
 12 13  1  0
 13 14  1  0
 14 15  1  0
 15 16  2  0
 17 18  1  0
 17 22  1  0
 18 19  2  0
 18 20  1  0
 20 21  1  0
 21 22  2  0
M  END
