
     RDKit          3D

 11 11  0  0  0  0  0  0  0  0999 V2000
    1.3610   -1.9010    0.1170 N   0  0  0  0  0  0  0  0  0  0  0  0
    0.2440   -1.2950    0.0450 C   0  0  0  0  0  0  0  0  0  0  0  0
   -1.0290   -2.0510    0.0260 C   0  0  0  0  0  0  0  0  0  0  0  0
   -2.1650   -1.3960   -0.0490 C   0  0  0  0  0  0  0  0  0  0  0  0
   -2.2320    0.0570   -0.1150 C   0  0  0  0  0  0  0  0  0  0  0  0
   -1.1190    0.7650   -0.1010 C   0  0  0  0  0  0  0  0  0  0  0  0
   -1.2310    2.1680   -0.1670 N   0  0  0  0  0  0  0  0  0  0  0  0
    0.2320    0.1520   -0.0190 C   0  0  0  0  0  0  0  0  0  0  0  0
    1.2360    0.9600   -0.0130 C   0  0  0  0  0  0  0  0  0  0  0  0
    2.6570    0.6140    0.0600 C   0  0  0  0  0  0  0  0  0  0  0  0
    3.1250    1.2440    1.2390 F   0  0  0  0  0  0  0  0  0  0  0  0
  1  2  2  0
  2  3  1  0
  2  8  1  0
  3  4  2  0
  4  5  1  0
  5  6  2  0
  6  7  1  0
  6  8  1  0
  8  9  2  3
  9 10  1  0
 10 11  1  0
M  END
