
     RDKit          3D

 22 24  0  0  0  0  0  0  0  0999 V2000
   -1.3050   -2.9730    0.6570 C   0  0  0  0  0  0  0  0  0  0  0  0
   -2.4580   -2.0520    0.5560 C   0  0  0  0  0  0  0  0  0  0  0  0
   -3.7440   -2.4390    0.8290 C   0  0  0  0  0  0  0  0  0  0  0  0
   -4.7710   -1.5920    0.7320 N   0  0  0  0  0  0  0  0  0  0  0  0
   -4.6090   -0.2940    0.3560 C   0  0  0  0  0  0  0  0  0  0  0  0
   -3.3400    0.1440    0.0720 C   0  0  0  0  0  0  0  0  0  0  0  0
   -2.2460   -0.7260    0.1670 C   0  0  0  0  0  0  0  0  0  0  0  0
   -0.9230   -0.3480   -0.0880 N   0  0  0  0  0  0  0  0  0  0  0  0
   -0.4930    0.9320   -0.5470 C   0  0  0  0  0  0  0  0  0  0  0  0
    1.0560    1.0140   -0.5780 C   0  0  0  0  0  0  0  0  0  0  0  0
    1.5250    0.7990    0.8280 C   0  0  0  0  0  0  0  0  0  0  0  0
    2.9530    0.8480    0.9650 N   0  0  0  0  0  0  0  0  0  0  0  0
    3.8120   -0.0370    0.2840 C   0  0  0  0  0  0  0  0  0  0  0  0
    3.3240   -0.9020   -0.4720 O   0  0  0  0  0  0  0  0  0  0  0  0
    5.2570    0.0400    0.4450 C   0  0  0  0  0  0  0  0  0  0  0  0
    6.2140   -0.7740   -0.1700 C   0  0  0  0  0  0  0  0  0  0  0  0
    7.4670   -0.3780    0.2450 C   0  0  0  0  0  0  0  0  0  0  0  0
    7.2290    0.6720    1.1060 C   0  0  0  0  0  0  0  0  0  0  0  0
    5.9450    0.8760    1.1900 O   0  0  0  0  0  0  0  0  0  0  0  0
   -3.4250    1.5830   -0.3090 C   0  0  0  0  0  0  0  0  0  0  0  0
   -4.9270    1.8220   -0.5990 C   0  0  0  0  0  0  0  0  0  0  0  0
   -5.6310    0.7900    0.2040 C   0  0  0  0  0  0  0  0  0  0  0  0
  1  2  1  0
  2  3  2  0
  2  7  1  0
  3  4  1  0
  4  5  2  0
  5  6  1  0
  5 22  1  0
  6  7  2  0
  6 20  1  0
  7  8  1  0
  8  9  1  0
  9 10  1  0
 10 11  1  0
 11 12  1  0
 12 13  1  0
 13 14  2  0
 13 15  1  0
 15 16  2  0
 15 19  1  0
 16 17  1  0
 17 18  2  0
 18 19  1  0
 20 21  1  0
 21 22  1  0
M  END
