
     RDKit          3D

 48 53  0  0  0  0  0  0  0  0999 V2000
    9.0600    2.8280   -0.5700 C   0  0  0  0  0  0  0  0  0  0  0  0
    7.7080    3.1120   -0.5000 O   0  0  0  0  0  0  0  0  0  0  0  0
    6.9700    1.9650   -0.6480 C   0  0  0  0  0  0  0  0  0  0  0  0
    7.2190    0.9130    0.4020 C   0  0  0  0  0  0  0  0  0  0  0  0
    6.3300   -0.2320    0.0710 N   0  0  0  0  0  0  0  0  0  0  0  0
    7.1000   -1.3870   -0.2360 C   0  0  2  0  0  0  0  0  0  0  0  0
    7.9800   -1.2620   -1.4610 C   0  0  0  0  0  0  0  0  0  0  0  0
    7.2240   -1.3980   -2.7340 C   0  0  0  0  0  0  0  0  0  0  0  0
    5.9890   -2.2340   -2.6710 C   0  0  0  0  0  0  0  0  0  0  0  0
    5.8930   -3.1850   -1.5440 C   0  0  0  0  0  0  0  0  0  0  0  0
    6.4590   -2.7130   -0.2200 C   0  0  2  0  0  0  0  0  0  0  0  0
    5.5300   -2.8910    0.8880 C   0  0  0  0  0  0  0  0  0  0  0  0
    5.9650   -3.6930    1.8230 O   0  0  0  0  0  0  0  0  0  0  0  0
    4.2230   -2.3090    1.0910 C   0  0  0  0  0  0  0  0  0  0  0  0
    3.5830   -2.5310    2.3190 C   0  0  0  0  0  0  0  0  0  0  0  0
    2.3190   -2.0520    2.5800 C   0  0  0  0  0  0  0  0  0  0  0  0
    1.6270   -1.3290    1.6360 C   0  0  0  0  0  0  0  0  0  0  0  0
    0.2940   -0.8640    1.9900 C   0  0  0  0  0  0  0  0  0  0  0  0
   -0.2310   -1.1080    3.1040 O   0  0  0  0  0  0  0  0  0  0  0  0
   -0.5020   -0.1100    1.1100 O   0  0  0  0  0  0  0  0  0  0  0  0
   -1.7980    0.3320    1.4670 C   0  0  2  0  0  0  0  0  0  0  0  0
   -2.8280   -0.2630    0.5530 C   0  0  0  0  0  0  0  0  0  0  0  0
   -2.4470   -1.0210   -0.3500 O   0  0  0  0  0  0  0  0  0  0  0  0
   -4.2050    0.0190    0.6990 N   0  0  0  0  0  0  0  0  0  0  0  0
   -5.2680   -0.4730   -0.0920 C   0  0  0  0  0  0  0  0  0  0  0  0
   -5.0960   -1.2830   -1.1770 C   0  0  0  0  0  0  0  0  0  0  0  0
   -6.1820   -1.7060   -1.8940 C   0  0  0  0  0  0  0  0  0  0  0  0
   -7.4840   -1.3300   -1.5460 C   0  0  0  0  0  0  0  0  0  0  0  0
   -7.6840   -0.5200   -0.4640 C   0  0  0  0  0  0  0  0  0  0  0  0
   -8.9590   -0.1240   -0.0820 C   0  0  0  0  0  0  0  0  0  0  0  0
   -9.1780    0.6900    1.0070 C   0  0  0  0  0  0  0  0  0  0  0  0
   -8.1160    1.1270    1.7400 C   0  0  0  0  0  0  0  0  0  0  0  0
   -6.8460    0.7190    1.3410 C   0  0  0  0  0  0  0  0  0  0  0  0
   -6.5710   -0.0870    0.2690 C   0  0  0  0  0  0  0  0  0  0  0  0
  -10.0900   -0.5800   -0.8710 C   0  0  0  0  0  0  0  0  0  0  0  0
  -11.2610   -0.2380   -0.5490 O   0  0  0  0  0  0  0  0  0  0  0  0
   -9.8980   -1.4030   -1.9950 N   0  0  0  0  0  0  0  0  0  0  0  0
  -11.0640   -1.8200   -2.8010 C   0  0  0  0  0  0  0  0  0  0  0  0
   -8.5960   -1.8390   -2.3720 C   0  0  0  0  0  0  0  0  0  0  0  0
   -1.9240    1.8080    1.5150 C   0  0  0  0  0  0  0  0  0  0  0  0
   -2.5880    2.4350    2.5740 C   0  0  0  0  0  0  0  0  0  0  0  0
   -2.7260    3.8000    2.6460 C   0  0  0  0  0  0  0  0  0  0  0  0
   -2.2010    4.6050    1.6530 C   0  0  0  0  0  0  0  0  0  0  0  0
   -2.3730    6.0780    1.7680 C   0  0  0  0  0  0  0  0  0  0  0  0
   -1.5470    4.0190    0.6090 C   0  0  0  0  0  0  0  0  0  0  0  0
   -1.4140    2.6430    0.5460 C   0  0  0  0  0  0  0  0  0  0  0  0
    2.2230   -1.0990    0.4400 C   0  0  0  0  0  0  0  0  0  0  0  0
    3.4980   -1.5850    0.1820 C   0  0  0  0  0  0  0  0  0  0  0  0
  1  2  1  0
  2  3  1  0
  3  4  1  0
  4  5  1  0
  6  5  1  6
  6  7  1  0
  6 11  1  0
  7  8  1  0
  8  9  1  0
  9 10  1  0
 10 11  1  0
 11 12  1  1
 12 13  2  0
 12 14  1  0
 14 15  2  0
 14 48  1  0
 15 16  1  0
 16 17  2  0
 17 18  1  0
 17 47  1  0
 18 19  2  0
 18 20  1  0
 21 20  1  6
 21 22  1  0
 21 40  1  0
 22 23  2  0
 22 24  1  0
 24 25  1  0
 25 26  2  0
 25 34  1  0
 26 27  1  0
 27 28  2  0
 28 29  1  0
 28 39  1  0
 29 30  2  0
 29 34  1  0
 30 31  1  0
 30 35  1  0
 31 32  2  0
 32 33  1  0
 33 34  2  0
 35 36  2  0
 35 37  1  0
 37 38  1  0
 37 39  1  0
 40 41  2  0
 40 46  1  0
 41 42  1  0
 42 43  2  0
 43 44  1  0
 43 45  1  0
 45 46  2  0
 47 48  2  0
M  CHG  1   5   1
M  END
