
     RDKit          3D

 47 50  0  0  0  0  0  0  0  0999 V2000
   -8.1470   -5.0640    0.3500 C   0  0  0  0  0  0  0  0  0  0  0  0
   -6.9060   -4.2100    0.3520 C   0  0  0  0  0  0  0  0  0  0  0  0
   -6.6290   -3.7360   -1.0820 C   0  0  0  0  0  0  0  0  0  0  0  0
   -5.4860   -2.9240   -1.2150 C   0  0  0  0  0  0  0  0  0  0  0  0
   -4.2310   -3.0420   -1.7300 C   0  0  0  0  0  0  0  0  0  0  0  0
   -3.4320   -1.8590   -1.6100 C   0  0  0  0  0  0  0  0  0  0  0  0
   -2.3280   -1.2650   -1.8100 C   0  0  0  0  0  0  0  0  0  0  0  0
   -1.1040   -1.6980   -2.4130 C   0  0  0  0  0  0  0  0  0  0  0  0
   -0.9870   -2.8330   -2.9040 O   0  0  0  0  0  0  0  0  0  0  0  0
    0.0580   -0.8860   -2.4950 N   0  0  0  0  0  0  0  0  0  0  0  0
    1.2570   -1.3590   -3.1350 C   0  0  0  0  0  0  0  0  0  0  0  0
    1.1290   -2.2310   -4.2000 C   0  0  0  0  0  0  0  0  0  0  0  0
    2.2630   -2.6020   -4.9340 C   0  0  0  0  0  0  0  0  0  0  0  0
    3.4810   -2.1000   -4.5930 C   0  0  0  0  0  0  0  0  0  0  0  0
    3.5750   -1.2210   -3.5120 C   0  0  0  0  0  0  0  0  0  0  0  0
    2.4750   -0.8340   -2.7610 C   0  0  0  0  0  0  0  0  0  0  0  0
    2.5770    0.0010   -1.5730 C   0  0  0  0  0  0  0  0  0  0  0  0
    1.5990    0.2320   -0.8200 O   0  0  0  0  0  0  0  0  0  0  0  0
    3.8090    0.5950   -1.2140 N   0  0  0  0  0  0  0  0  0  0  0  0
    4.0580    1.4180   -0.1040 C   0  0  0  0  0  0  0  0  0  0  0  0
    3.1060    1.9780    0.6780 C   0  0  0  0  0  0  0  0  0  0  0  0
    3.4870    2.7580    1.7730 C   0  0  0  0  0  0  0  0  0  0  0  0
    4.7880    3.0010    2.1140 C   0  0  0  0  0  0  0  0  0  0  0  0
    5.7500    2.4280    1.3110 C   0  0  0  0  0  0  0  0  0  0  0  0
    5.4000    1.6520    0.2230 C   0  0  0  0  0  0  0  0  0  0  0  0
    7.1610    2.6980    1.6840 C   0  0  2  0  0  0  0  0  0  0  0  0
    8.0720    1.9550    0.8760 N   0  0  0  0  0  0  0  0  0  0  0  0
    9.4430    2.0980    1.3180 C   0  0  0  0  0  0  0  0  0  0  0  0
    7.2900    2.3210    3.1540 C   0  0  0  0  0  0  0  0  0  0  0  0
    6.2330    2.9080    4.0230 C   0  0  0  0  0  0  0  0  0  0  0  0
    5.2530    3.8090    3.2620 C   0  0  0  0  0  0  0  0  0  0  0  0
   -2.3450    0.1860   -1.3740 C   0  0  0  0  0  0  0  0  0  0  0  0
   -1.4140    0.9240   -1.4800 O   0  0  0  0  0  0  0  0  0  0  0  0
   -3.5240    0.7040   -0.8140 O   0  0  0  0  0  0  0  0  0  0  0  0
   -3.5830    2.0770   -0.4100 C   0  0  1  0  0  0  0  0  0  0  0  0
   -4.7150    2.7630   -1.1690 C   0  0  0  0  0  0  0  0  0  0  0  0
   -3.8950    2.1100    1.0380 C   0  0  0  0  0  0  0  0  0  0  0  0
   -5.1520    2.5220    1.4610 C   0  0  0  0  0  0  0  0  0  0  0  0
   -5.4990    2.5800    2.7640 C   0  0  0  0  0  0  0  0  0  0  0  0
   -4.5660    2.2150    3.7320 C   0  0  0  0  0  0  0  0  0  0  0  0
   -3.3000    1.7990    3.3330 C   0  0  0  0  0  0  0  0  0  0  0  0
   -2.9940    1.7550    2.0100 C   0  0  0  0  0  0  0  0  0  0  0  0
   -1.7180    1.3360    1.5870 O   0  0  0  0  0  0  0  0  0  0  0  0
   -0.7500    0.9590    2.5680 C   0  0  0  0  0  0  0  0  0  0  0  0
   -3.8340   -4.3160   -2.2560 C   0  0  0  0  0  0  0  0  0  0  0  0
   -4.7030   -5.5590   -2.2280 C   0  0  0  0  0  0  0  0  0  0  0  0
   -2.7090   -4.5250   -2.7930 O   0  0  0  0  0  0  0  0  0  0  0  0
  1  2  1  0
  2  3  1  0
  3  4  1  0
  4  5  2  3
  5  6  1  0
  5 45  1  0
  6  7  2  3
  7  8  1  0
  7 32  1  0
  8  9  2  0
  8 10  1  0
 10 11  1  0
 11 12  2  0
 11 16  1  0
 12 13  1  0
 13 14  2  0
 14 15  1  0
 15 16  2  0
 16 17  1  0
 17 18  2  0
 17 19  1  0
 19 20  1  0
 20 21  2  0
 20 25  1  0
 21 22  1  0
 22 23  2  0
 23 24  1  0
 23 31  1  0
 24 25  2  0
 24 26  1  0
 26 27  1  6
 26 29  1  0
 27 28  1  0
 29 30  1  0
 30 31  1  0
 32 33  2  0
 32 34  1  0
 34 35  1  0
 35 36  1  6
 35 37  1  0
 37 38  2  0
 37 42  1  0
 38 39  1  0
 39 40  2  0
 40 41  1  0
 41 42  2  0
 42 43  1  0
 43 44  1  0
 45 46  1  0
 45 47  2  0
M  CHG  1  27   1
M  END
