
     RDKit          3D

 47 52  0  0  0  0  0  0  0  0999 V2000
   -8.3890   -3.3530    1.6880 C   0  0  0  0  0  0  0  0  0  0  0  0
   -7.1620   -3.7050    0.8890 C   0  0  0  0  0  0  0  0  0  0  0  0
   -7.1680   -4.7450    0.0060 C   0  0  0  0  0  0  0  0  0  0  0  0
   -6.0380   -5.0280   -0.6970 C   0  0  0  0  0  0  0  0  0  0  0  0
   -4.8830   -4.2600   -0.5160 C   0  0  0  0  0  0  0  0  0  0  0  0
   -4.8500   -3.2080    0.3650 C   0  0  0  0  0  0  0  0  0  0  0  0
   -3.6300   -2.4000    0.5580 C   0  0  1  0  0  0  0  0  0  0  0  0
   -2.6840   -2.4540   -0.6120 C   0  0  0  0  0  0  0  0  0  0  0  0
   -1.5220   -3.3670   -0.3290 C   0  0  0  0  0  0  0  0  0  0  0  0
   -1.8120   -4.3360    0.4640 O   0  0  0  0  0  0  0  0  0  0  0  0
   -0.2980   -3.1540   -0.8810 O   0  0  0  0  0  0  0  0  0  0  0  0
    0.6300   -2.1500   -0.6860 C   0  0  0  0  0  0  0  0  0  0  0  0
    0.4720   -0.9480   -1.5390 C   0  0  0  0  0  0  0  0  0  0  0  0
    0.0270   -1.1220   -2.7170 O   0  0  0  0  0  0  0  0  0  0  0  0
    0.7830    0.3760   -1.1360 N   0  0  0  0  0  0  0  0  0  0  0  0
    1.4860    1.2580   -2.0720 C   0  0  0  0  0  0  0  0  0  0  0  0
    2.9580    1.1110   -1.9420 C   0  0  0  0  0  0  0  0  0  0  0  0
    3.7900    1.9270   -2.6740 C   0  0  0  0  0  0  0  0  0  0  0  0
    5.1440    1.8390   -2.6030 C   0  0  0  0  0  0  0  0  0  0  0  0
    5.7080    0.8840   -1.7530 C   0  0  0  0  0  0  0  0  0  0  0  0
    4.9430    0.0450   -0.9990 C   0  0  0  0  0  0  0  0  0  0  0  0
    5.4600   -0.9350   -0.1130 N   0  0  0  0  0  0  0  0  0  0  0  0
    6.8040   -1.0010    0.2790 C   0  0  0  0  0  0  0  0  0  0  0  0
    7.6700   -0.2000   -0.1030 O   0  0  0  0  0  0  0  0  0  0  0  0
    7.2810   -2.0330    1.1770 N   0  0  0  0  0  0  0  0  0  0  0  0
    8.6740   -2.0730    1.5630 C   0  0  1  0  0  0  0  0  0  0  0  0
    8.9970   -2.6130    2.9640 C   0  0  0  0  0  0  0  0  0  0  0  0
    9.3050   -3.4520    1.7570 C   0  0  0  0  0  0  0  0  0  0  0  0
    3.5560    0.1920   -1.1230 C   0  0  0  0  0  0  0  0  0  0  0  0
    0.4330    0.8790    0.1580 C   0  0  0  0  0  0  0  0  0  0  0  0
   -1.0160    1.3120    0.2960 C   0  0  2  0  0  0  0  0  0  0  0  0
   -1.6550    1.6110   -1.0100 C   0  0  0  0  0  0  0  0  0  0  0  0
   -1.0690    2.4920    1.2170 C   0  0  0  0  0  0  0  0  0  0  0  0
   -0.3290    3.6930    0.8440 C   0  0  0  0  0  0  0  0  0  0  0  0
    0.9300    3.9610    1.3670 C   0  0  0  0  0  0  0  0  0  0  0  0
    1.6360    5.0740    1.0090 C   0  0  0  0  0  0  0  0  0  0  0  0
    1.0930    5.9580    0.1080 C   0  0  0  0  0  0  0  0  0  0  0  0
   -0.1580    5.7500   -0.4490 C   0  0  0  0  0  0  0  0  0  0  0  0
   -0.8360    4.6140   -0.0600 C   0  0  0  0  0  0  0  0  0  0  0  0
   -2.0620    4.6250   -0.7430 O   0  0  0  0  0  0  0  0  0  0  0  0
   -2.1480    5.6720   -1.6570 C   0  0  0  0  0  0  0  0  0  0  0  0
   -0.9620    6.5500   -1.4400 C   0  0  0  0  0  0  0  0  0  0  0  0
   -1.8000    0.1870    1.0210 C   0  0  0  0  0  0  0  0  0  0  0  0
   -3.1240    0.0510    0.5160 N   0  0  0  0  0  0  0  0  0  0  0  0
   -3.8550   -1.0380    1.1110 C   0  0  2  0  0  0  0  0  0  0  0  0
   -3.6310   -0.9390    2.6120 C   0  0  0  0  0  0  0  0  0  0  0  0
   -5.9970   -2.9480    1.0560 C   0  0  0  0  0  0  0  0  0  0  0  0
  1  2  1  0
  2  3  2  0
  2 47  1  0
  3  4  1  0
  4  5  2  0
  5  6  1  0
  7  6  1  6
  6 47  2  0
  7  8  1  0
  7 45  1  0
  8  9  1  0
  9 10  2  0
  9 11  1  0
 11 12  1  0
 12 13  1  0
 13 14  2  0
 13 15  1  0
 15 16  1  0
 15 30  1  0
 16 17  1  0
 17 18  2  0
 17 29  1  0
 18 19  1  0
 19 20  2  0
 20 21  1  0
 21 22  1  0
 21 29  2  0
 22 23  1  0
 23 24  2  0
 23 25  1  0
 26 25  1  1
 26 27  1  0
 26 28  1  0
 27 28  1  0
 30 31  1  0
 31 32  1  6
 31 33  1  0
 31 43  1  0
 33 34  1  0
 34 35  2  0
 34 39  1  0
 35 36  1  0
 36 37  2  0
 37 38  1  0
 38 39  2  0
 38 42  1  0
 39 40  1  0
 40 41  1  0
 41 42  1  0
 43 44  1  0
 44 45  1  0
 45 46  1  1
M  CHG  1  44   1
M  END
