
     RDKit          3D

 48 54  0  0  0  0  0  0  0  0999 V2000
    4.7060   -2.8750   -0.9710 C   0  0  0  0  0  0  0  0  0  0  0  0
    4.4720   -1.4320   -0.6690 C   0  0  0  0  0  0  0  0  0  0  0  0
    3.7620   -1.2480    0.6080 N   0  0  1  0  0  0  0  0  0  0  0  0
    4.8000   -1.3920    1.6340 C   0  0  0  0  0  0  0  0  0  0  0  0
    3.1630    0.0550    0.6260 C   0  0  2  0  0  0  0  0  0  0  0  0
    3.9750    1.0890    1.3600 C   0  0  0  0  0  0  0  0  0  0  0  0
    5.2630    1.2720    0.8000 O   0  0  0  0  0  0  0  0  0  0  0  0
    6.1200    2.1950    1.3670 C   0  0  0  0  0  0  0  0  0  0  0  0
    5.7320    2.8460    2.3600 O   0  0  0  0  0  0  0  0  0  0  0  0
    7.4390    2.3600    0.7710 C   0  0  0  0  0  0  0  0  0  0  0  0
    8.3420    3.2660    1.2850 C   0  0  0  0  0  0  0  0  0  0  0  0
    9.6040    3.4620    0.7660 C   0  0  0  0  0  0  0  0  0  0  0  0
    9.9900    2.7130   -0.3290 C   0  0  0  0  0  0  0  0  0  0  0  0
   11.2350    2.8490   -0.9040 C   0  0  0  0  0  0  0  0  0  0  0  0
   11.5660    2.0640   -2.0040 C   0  0  0  0  0  0  0  0  0  0  0  0
   10.7010    1.1470   -2.5530 C   0  0  0  0  0  0  0  0  0  0  0  0
    9.4530    1.0160   -1.9700 C   0  0  0  0  0  0  0  0  0  0  0  0
    9.1180    1.7940   -0.8760 C   0  0  0  0  0  0  0  0  0  0  0  0
    7.8490    1.6260   -0.3200 C   0  0  0  0  0  0  0  0  0  0  0  0
    1.7810    0.0630    1.2140 C   0  0  0  0  0  0  0  0  0  0  0  0
    0.8210   -0.8030    0.4700 C   0  0  0  0  0  0  0  0  0  0  0  0
    1.2630   -1.3860   -0.5270 O   0  0  0  0  0  0  0  0  0  0  0  0
   -0.4990   -0.9320    0.8970 N   0  0  0  0  0  0  0  0  0  0  0  0
   -1.0720   -0.1770    2.0060 C   0  0  0  0  0  0  0  0  0  0  0  0
   -2.2910    0.5560    1.4590 C   0  0  0  0  0  0  0  0  0  0  0  0
   -3.3160   -0.2910    0.8400 C   0  0  0  0  0  0  0  0  0  0  0  0
   -2.7720   -1.5100    0.2020 C   0  0  0  0  0  0  0  0  0  0  0  0
   -3.7040   -2.3590   -0.4450 C   0  0  0  0  0  0  0  0  0  0  0  0
   -5.0800   -1.9900   -0.4430 N   0  0  0  0  0  0  0  0  0  0  0  0
   -6.1410   -2.6670   -1.0470 C   0  0  0  0  0  0  0  0  0  0  0  0
   -5.8900   -3.7380   -1.6800 O   0  0  0  0  0  0  0  0  0  0  0  0
   -7.5530   -2.2440   -1.0140 C   0  0  0  0  0  0  0  0  0  0  0  0
   -8.5000   -3.0230   -1.6690 C   0  0  0  0  0  0  0  0  0  0  0  0
   -9.8350   -2.6580   -1.6630 C   0  0  0  0  0  0  0  0  0  0  0  0
  -10.2190   -1.5120   -0.9990 C   0  0  0  0  0  0  0  0  0  0  0  0
   -9.2940   -0.7230   -0.3420 C   0  0  0  0  0  0  0  0  0  0  0  0
   -7.9400   -1.0930   -0.3480 C   0  0  0  0  0  0  0  0  0  0  0  0
   -7.2730   -0.1210    0.3830 O   0  0  0  0  0  0  0  0  0  0  0  0
   -8.0900    1.0170    0.4050 C   0  0  2  0  0  0  0  0  0  0  0  0
   -7.9210    1.9120   -0.7920 C   0  0  0  0  0  0  0  0  0  0  0  0
   -8.1510    3.2970   -0.2870 C   0  0  0  0  0  0  0  0  0  0  0  0
   -8.0470    3.2890    1.2030 C   0  0  0  0  0  0  0  0  0  0  0  0
   -7.8520    1.8670    1.6380 C   0  0  0  0  0  0  0  0  0  0  0  0
   -9.3760    0.4560    0.3940 O   0  0  0  0  0  0  0  0  0  0  0  0
   -3.1970   -3.4900   -1.0220 C   0  0  0  0  0  0  0  0  0  0  0  0
   -1.8340   -3.8140   -0.9900 C   0  0  0  0  0  0  0  0  0  0  0  0
   -0.9610   -2.9680   -0.3550 C   0  0  0  0  0  0  0  0  0  0  0  0
   -1.4320   -1.8120    0.2420 C   0  0  0  0  0  0  0  0  0  0  0  0
  1  2  1  0
  2  3  1  0
  3  4  1  1
  3  5  1  0
  5  6  1  1
  5 20  1  0
  6  7  1  0
  7  8  1  0
  8  9  2  0
  8 10  1  0
 10 11  2  0
 10 19  1  0
 11 12  1  0
 12 13  2  0
 13 14  1  0
 13 18  1  0
 14 15  2  0
 15 16  1  0
 16 17  2  0
 17 18  1  0
 18 19  2  0
 20 21  1  0
 21 22  2  0
 21 23  1  0
 23 24  1  0
 23 48  1  0
 24 25  1  0
 25 26  1  0
 26 27  1  0
 27 28  2  0
 27 48  1  0
 28 29  1  0
 28 45  1  0
 29 30  1  0
 30 31  2  0
 30 32  1  0
 32 33  2  0
 32 37  1  0
 33 34  1  0
 34 35  2  0
 35 36  1  0
 36 37  2  0
 36 44  1  0
 37 38  1  0
 38 39  1  0
 39 40  1  6
 39 43  1  0
 39 44  1  0
 40 41  1  0
 41 42  1  0
 42 43  1  0
 45 46  2  0
 46 47  1  0
 47 48  2  0
M  CHG  1   3   1
M  END
