
     RDKit          3D

 27 28  0  0  0  0  0  0  0  0999 V2000
    8.9960   -0.3480   -1.1390 C   0  0  0  0  0  0  0  0  0  0  0  0
    8.3360   -0.8830   -0.1310 C   0  0  0  0  0  0  0  0  0  0  0  0
    7.6790    0.0120    0.8520 C   0  0  0  0  0  0  0  0  0  0  0  0
    6.2250   -0.2240    0.8990 N   0  0  0  0  0  0  0  0  0  0  0  0
    5.4190   -0.0500   -0.2530 C   0  0  0  0  0  0  0  0  0  0  0  0
    6.0180    0.3120   -1.2970 O   0  0  0  0  0  0  0  0  0  0  0  0
    3.9830   -0.2580   -0.3060 C   0  0  0  0  0  0  0  0  0  0  0  0
    3.3040   -0.0500   -1.5130 C   0  0  0  0  0  0  0  0  0  0  0  0
    1.9420   -0.2350   -1.6080 C   0  0  0  0  0  0  0  0  0  0  0  0
    1.1930   -0.6340   -0.5160 C   0  0  0  0  0  0  0  0  0  0  0  0
   -0.1840   -0.8280   -0.5860 O   0  0  0  0  0  0  0  0  0  0  0  0
   -1.0620    0.2040   -0.3280 C   0  0  0  0  0  0  0  0  0  0  0  0
   -0.6020    1.3260   -0.0290 O   0  0  0  0  0  0  0  0  0  0  0  0
   -2.5040    0.0270   -0.3950 C   0  0  0  0  0  0  0  0  0  0  0  0
   -3.3220    1.0310   -0.1440 C   0  0  0  0  0  0  0  0  0  0  0  0
   -4.7550    0.8870   -0.2010 C   0  0  0  0  0  0  0  0  0  0  0  0
   -5.5090    1.9470    0.0610 C   0  0  0  0  0  0  0  0  0  0  0  0
   -4.9030    3.2570    0.4070 C   0  0  0  0  0  0  0  0  0  0  0  0
   -5.4190   -0.3880   -0.5280 C   0  0  2  0  0  0  0  0  0  0  0  0
   -5.0920   -1.4590    0.4820 C   0  0  0  0  0  0  0  0  0  0  0  0
   -5.0660   -0.8540   -1.9380 C   0  0  0  0  0  0  0  0  0  0  0  0
   -6.9420   -0.2000   -0.5220 C   0  0  0  0  0  0  0  0  0  0  0  0
    1.8420   -0.8440    0.6850 C   0  0  0  0  0  0  0  0  0  0  0  0
    3.2070   -0.6540    0.7610 C   0  0  0  0  0  0  0  0  0  0  0  0
    3.5260   -0.9460    2.0790 O   0  0  0  0  0  0  0  0  0  0  0  0
    2.3500   -0.8900    2.8920 C   0  0  0  0  0  0  0  0  0  0  0  0
    1.3650   -1.2420    1.9390 O   0  0  0  0  0  0  0  0  0  0  0  0
  1  2  2  0
  2  3  1  0
  3  4  1  0
  4  5  1  0
  5  6  2  0
  5  7  1  0
  7  8  2  0
  7 24  1  0
  8  9  1  0
  9 10  2  0
 10 11  1  0
 10 23  1  0
 11 12  1  0
 12 13  2  0
 12 14  1  0
 14 15  2  3
 15 16  1  0
 16 17  2  3
 16 19  1  0
 17 18  1  0
 19 20  1  1
 19 21  1  0
 19 22  1  0
 23 24  2  0
 23 27  1  0
 24 25  1  0
 25 26  1  0
 26 27  1  0
M  END
