
     RDKit          3D

 15 15  0  0  0  0  0  0  0  0999 V2000
   -4.7740    0.1970    0.4750 N   0  0  0  0  0  0  0  0  0  0  0  0
   -3.7890   -0.7230   -0.6010 S   0  0  1  0  0  0  0  0  0  0  0  0
   -3.9670   -2.2100   -0.3690 O   0  0  0  0  0  0  0  0  0  0  0  0
   -4.1450   -0.4450   -2.0350 O   0  0  0  0  0  0  0  0  0  0  0  0
   -2.1050   -0.3320   -0.3400 C   0  0  0  0  0  0  0  0  0  0  0  0
   -1.4120   -1.0790    0.5860 C   0  0  0  0  0  0  0  0  0  0  0  0
   -0.0980   -0.8830    0.8880 C   0  0  0  0  0  0  0  0  0  0  0  0
    0.5770    0.1220    0.2280 C   0  0  0  0  0  0  0  0  0  0  0  0
    1.9950    0.3590    0.5310 C   0  0  0  0  0  0  0  0  0  0  0  0
    2.8590   -0.4790   -0.3830 C   0  0  0  0  0  0  0  0  0  0  0  0
    4.2940   -0.2870   -0.1300 C   0  0  0  0  0  0  0  0  0  0  0  0
    5.1080   -0.9360   -0.8350 O   0  0  0  0  0  0  0  0  0  0  0  0
    4.8230    0.5600    0.8320 O   0  0  0  0  0  0  0  0  0  0  0  0
   -0.0980    0.8910   -0.7120 C   0  0  0  0  0  0  0  0  0  0  0  0
   -1.4450    0.6690   -1.0030 C   0  0  0  0  0  0  0  0  0  0  0  0
  2  1  1  1
  2  3  2  0
  2  4  2  0
  2  5  1  0
  5  6  2  0
  5 15  1  0
  6  7  1  0
  7  8  2  0
  8  9  1  0
  8 14  1  0
  9 10  1  0
 10 11  1  0
 11 12  2  0
 11 13  1  0
 14 15  2  0
M  END
