
     RDKit          3D

 27 28  0  0  0  0  0  0  0  0999 V2000
    6.6040   -1.2260    3.5700 C   0  0  0  0  0  0  0  0  0  0  0  0
    5.8490   -1.1300    2.3980 O   0  0  0  0  0  0  0  0  0  0  0  0
    5.7620   -0.0270    1.5690 C   0  0  0  0  0  0  0  0  0  0  0  0
    6.4180    0.9970    1.8780 O   0  0  0  0  0  0  0  0  0  0  0  0
    4.9070   -0.0560    0.3330 C   0  0  0  0  0  0  0  0  0  0  0  0
    3.5450    0.5100    0.6030 C   0  0  0  0  0  0  0  0  0  0  0  0
    2.7740    0.4360   -0.7070 C   0  0  0  0  0  0  0  0  0  0  0  0
    3.3350    0.9440   -1.7040 O   0  0  0  0  0  0  0  0  0  0  0  0
    1.4940   -0.1790   -0.7810 C   0  0  0  0  0  0  0  0  0  0  0  0
    0.7410   -0.3030   -1.8100 C   0  0  0  0  0  0  0  0  0  0  0  0
   -0.5130   -0.9590   -1.6730 O   0  0  0  0  0  0  0  0  0  0  0  0
   -1.4880   -0.5140   -0.8020 C   0  0  0  0  0  0  0  0  0  0  0  0
   -2.6680   -1.2160   -0.7320 C   0  0  0  0  0  0  0  0  0  0  0  0
   -3.7120   -0.8410    0.1200 C   0  0  0  0  0  0  0  0  0  0  0  0
   -4.9290   -1.6070    0.1590 C   0  0  0  0  0  0  0  0  0  0  0  0
   -5.0310   -2.8470   -0.6710 C   0  0  0  0  0  0  0  0  0  0  0  0
   -5.9110   -1.3100    0.8420 O   0  0  0  0  0  0  0  0  0  0  0  0
   -3.5550    0.2720    0.9190 C   0  0  0  0  0  0  0  0  0  0  0  0
   -4.3650    0.8540    1.8160 N   0  0  0  0  0  0  0  0  0  0  0  0
   -3.7630    1.9490    2.3690 C   0  0  0  0  0  0  0  0  0  0  0  0
   -4.3190    2.8560    3.3940 C   0  0  0  0  0  0  0  0  0  0  0  0
   -2.5290    2.0210    1.7670 C   0  0  0  0  0  0  0  0  0  0  0  0
   -2.3700    0.9980    0.8650 C   0  0  0  0  0  0  0  0  0  0  0  0
   -1.3700    0.5870    0.0080 C   0  0  0  0  0  0  0  0  0  0  0  0
    1.0150    0.1650   -3.1740 C   0  0  1  0  0  0  0  0  0  0  0  0
    0.9070   -1.0080   -4.1710 C   0  0  0  0  0  0  0  0  0  0  0  0
   -0.1150    1.1600   -3.5290 C   0  0  0  0  0  0  0  0  0  0  0  0
  1  2  1  0
  2  3  1  0
  3  4  2  0
  3  5  1  0
  5  6  1  0
  6  7  1  0
  7  8  2  0
  7  9  1  0
  9 10  2  3
 10 11  1  0
 10 25  1  0
 11 12  1  0
 12 13  2  0
 12 24  1  0
 13 14  1  0
 14 15  1  0
 14 18  2  0
 15 16  1  0
 15 17  2  0
 18 19  1  0
 18 23  1  0
 19 20  1  0
 20 21  1  0
 20 22  2  0
 22 23  1  0
 23 24  2  0
 25 26  1  6
 25 27  1  0
M  END
