
     RDKit          3D

 27 28  0  0  0  0  0  0  0  0999 V2000
    0.7490   -3.3610    3.3600 C   0  0  0  0  0  0  0  0  0  0  0  0
    0.5330   -3.5430    1.9940 C   0  0  0  0  0  0  0  0  0  0  0  0
    0.0310   -2.4170    1.3150 C   0  0  0  0  0  0  0  0  0  0  0  0
   -0.1550   -2.6190   -0.1010 C   0  0  0  0  0  0  0  0  0  0  0  0
    0.1620   -3.8330   -0.5740 C   0  0  0  0  0  0  0  0  0  0  0  0
    0.1790   -3.9570   -2.0000 O   0  0  0  0  0  0  0  0  0  0  0  0
    0.4900   -5.0690   -0.1030 O   0  0  0  0  0  0  0  0  0  0  0  0
    0.7780   -6.2040   -0.9420 C   0  0  0  0  0  0  0  0  0  0  0  0
   -0.7860   -1.4440   -0.6610 C   0  0  0  0  0  0  0  0  0  0  0  0
   -1.0970   -1.4030   -1.9720 C   0  0  0  0  0  0  0  0  0  0  0  0
   -1.7590   -0.2570   -2.5070 C   0  0  0  0  0  0  0  0  0  0  0  0
   -3.0880   -0.0220   -1.8330 C   0  0  0  0  0  0  0  0  0  0  0  0
   -3.5970    0.9830   -2.3740 C   0  0  0  0  0  0  0  0  0  0  0  0
   -2.7970    1.5030   -3.3690 C   0  0  0  0  0  0  0  0  0  0  0  0
   -3.0090    2.6730   -4.2190 C   0  0  0  0  0  0  0  0  0  0  0  0
   -1.6900    0.6600   -3.3560 O   0  0  0  0  0  0  0  0  0  0  0  0
   -0.4240   -0.1070    0.0550 C   0  0  0  0  0  0  0  0  0  0  0  0
   -0.3430    0.5770   -1.4470 O   0  0  0  0  0  0  0  0  0  0  0  0
   -0.1520    0.8700    0.6620 N   0  0  0  0  0  0  0  0  0  0  0  0
    0.1600    1.0480    2.1260 C   0  0  0  0  0  0  0  0  0  0  0  0
    1.5410    0.7250    2.4450 C   0  0  0  0  0  0  0  0  0  0  0  0
    2.6150    1.4750    1.7620 C   0  0  0  0  0  0  0  0  0  0  0  0
    2.2390    2.0460    0.3820 C   0  0  0  0  0  0  0  0  0  0  0  0
    1.0930    2.9690    0.4100 C   0  0  2  0  0  0  0  0  0  0  0  0
    1.1450    3.9810    1.5010 C   0  0  0  0  0  0  0  0  0  0  0  0
    2.3000    4.8160    1.2330 O   0  0  0  0  0  0  0  0  0  0  0  0
   -0.1900    2.3280    0.0640 C   0  0  0  0  0  0  0  0  0  0  0  0
  1  2  2  0
  2  3  1  0
  3  4  2  3
  4  5  1  0
  4  9  1  0
  5  6  2  0
  5  7  1  0
  7  8  1  0
  9 10  2  3
  9 17  1  0
 10 11  1  0
 11 12  2  0
 11 16  1  0
 12 13  1  0
 13 14  2  0
 14 15  1  0
 14 16  1  0
 17 18  2  0
 17 19  1  0
 19 20  1  0
 19 27  1  0
 20 21  1  0
 21 22  1  0
 22 23  1  0
 23 24  1  0
 24 25  1  1
 24 27  1  0
 25 26  1  0
M  END
