
     RDKit          3D

 27 28  0  0  0  0  0  0  0  0999 V2000
   -8.0860    1.8320    2.1730 C   0  0  0  0  0  0  0  0  0  0  0  0
   -6.8800    1.3560    1.8500 C   0  0  0  0  0  0  0  0  0  0  0  0
   -6.6110    0.7780    0.5030 C   0  0  1  0  0  0  0  0  0  0  0  0
   -7.3990    1.4350   -0.5870 C   0  0  0  0  0  0  0  0  0  0  0  0
   -5.2560    0.7900    0.1680 O   0  0  0  0  0  0  0  0  0  0  0  0
   -4.5310   -0.3720   -0.0510 C   0  0  0  0  0  0  0  0  0  0  0  0
   -5.1800   -1.4640    0.0710 O   0  0  0  0  0  0  0  0  0  0  0  0
   -3.0810   -0.3770   -0.4080 C   0  0  0  0  0  0  0  0  0  0  0  0
   -2.6360   -1.7890   -0.5640 C   0  0  0  0  0  0  0  0  0  0  0  0
   -1.2300   -1.9380   -0.9210 N   0  0  0  0  0  0  0  0  0  0  0  0
   -0.2110   -1.4660   -0.0850 C   0  0  0  0  0  0  0  0  0  0  0  0
   -0.6210   -0.8910    0.9930 O   0  0  0  0  0  0  0  0  0  0  0  0
    1.1860   -1.5860   -0.3720 C   0  0  0  0  0  0  0  0  0  0  0  0
    2.0520   -0.5710    0.1010 C   0  0  0  0  0  0  0  0  0  0  0  0
    3.3890   -0.5450   -0.1550 C   0  0  0  0  0  0  0  0  0  0  0  0
    4.2590    0.5330    0.3570 C   0  0  0  0  0  0  0  0  0  0  0  0
    3.7950    1.4710    1.0520 O   0  0  0  0  0  0  0  0  0  0  0  0
    5.6180    0.5420    0.0850 O   0  0  0  0  0  0  0  0  0  0  0  0
    6.4950    1.5220    0.5310 C   0  0  0  0  0  0  0  0  0  0  0  0
    6.7780    2.6220   -0.1420 C   0  0  0  0  0  0  0  0  0  0  0  0
    7.7420    3.4400    0.6180 C   0  0  0  0  0  0  0  0  0  0  0  0
    7.9830    2.6560    1.8420 C   0  0  0  0  0  0  0  0  0  0  0  0
    7.2590    1.5660    1.7660 C   0  0  0  0  0  0  0  0  0  0  0  0
    3.9190   -1.5610   -0.9140 C   0  0  0  0  0  0  0  0  0  0  0  0
    3.1270   -2.5710   -1.3990 C   0  0  0  0  0  0  0  0  0  0  0  0
    1.7520   -2.5620   -1.1120 C   0  0  0  0  0  0  0  0  0  0  0  0
    0.9730   -3.7130   -1.6170 C   0  0  0  0  0  0  0  0  0  0  0  0
  1  2  2  0
  2  3  1  0
  3  4  1  6
  3  5  1  0
  5  6  1  0
  6  7  2  0
  6  8  1  0
  8  9  1  0
  9 10  1  0
 10 11  1  0
 11 12  2  0
 11 13  1  0
 13 14  2  0
 13 26  1  0
 14 15  1  0
 15 16  1  0
 15 24  2  0
 16 17  2  0
 16 18  1  0
 18 19  1  0
 19 20  2  0
 19 23  1  0
 20 21  1  0
 21 22  1  0
 22 23  2  0
 24 25  1  0
 25 26  2  0
 26 27  1  0
M  END
