
     RDKit          3D

 17 17  0  0  0  0  0  0  0  0999 V2000
    5.7520    0.4140    0.7290 C   0  0  0  0  0  0  0  0  0  0  0  0
    5.1160    1.2810   -0.3230 C   0  0  0  0  0  0  0  0  0  0  0  0
    3.7350    1.4650   -0.1160 O   0  0  0  0  0  0  0  0  0  0  0  0
    2.8150    0.4370   -0.0820 C   0  0  0  0  0  0  0  0  0  0  0  0
    3.2390   -0.7310   -0.2460 O   0  0  0  0  0  0  0  0  0  0  0  0
    1.3630    0.6240    0.1340 C   0  0  0  0  0  0  0  0  0  0  0  0
    0.6880   -0.6830    0.1090 C   0  0  0  0  0  0  0  0  0  0  0  0
   -0.7540   -0.6840    0.3080 C   0  0  0  0  0  0  0  0  0  0  0  0
   -1.3880   -0.7860    1.5260 C   0  0  0  0  0  0  0  0  0  0  0  0
   -2.7640   -0.7780    1.6260 C   0  0  0  0  0  0  0  0  0  0  0  0
   -3.5660   -0.6660    0.4960 C   0  0  0  0  0  0  0  0  0  0  0  0
   -5.3200   -0.6560    0.6160 S   0  0  1  0  0  0  0  0  0  0  0  0
   -5.9000    0.9610    0.8020 N   0  0  0  0  0  0  0  0  0  0  0  0
   -5.9620   -1.3470   -0.5370 O   0  0  0  0  0  0  0  0  0  0  0  0
   -5.6850   -1.3990    1.8830 O   0  0  0  0  0  0  0  0  0  0  0  0
   -2.9380   -0.5640   -0.7270 C   0  0  0  0  0  0  0  0  0  0  0  0
   -1.5610   -0.5740   -0.8090 C   0  0  0  0  0  0  0  0  0  0  0  0
  1  2  1  0
  2  3  1  0
  3  4  1  0
  4  5  2  0
  4  6  1  0
  6  7  1  0
  7  8  1  0
  8  9  2  0
  8 17  1  0
  9 10  1  0
 10 11  2  0
 11 12  1  0
 11 16  1  0
 12 13  1  1
 12 14  2  0
 12 15  2  0
 16 17  2  0
M  END
