
     RDKit          3D

 17 17  0  0  0  0  0  0  0  0999 V2000
   -5.2110   -1.5670    0.1150 C   0  0  0  0  0  0  0  0  0  0  0  0
   -4.4950   -0.5000    0.4240 C   0  0  0  0  0  0  0  0  0  0  0  0
   -3.0880   -0.4170    0.0790 C   0  0  0  0  0  0  0  0  0  0  0  0
   -2.3420   -1.3760   -0.5780 C   0  0  0  0  0  0  0  0  0  0  0  0
   -1.0690   -0.8580   -0.6800 C   0  0  0  0  0  0  0  0  0  0  0  0
    0.0720   -1.5620   -1.3240 C   0  0  0  0  0  0  0  0  0  0  0  0
    1.2400   -0.7310   -1.2500 O   0  0  0  0  0  0  0  0  0  0  0  0
    1.7710   -0.3160   -0.0550 C   0  0  0  0  0  0  0  0  0  0  0  0
    1.1980   -0.6880    1.0010 O   0  0  0  0  0  0  0  0  0  0  0  0
    2.9770    0.5440    0.0730 C   0  0  0  0  0  0  0  0  0  0  0  0
    4.4160   -0.5200    0.1650 S   0  0  0  0  0  0  0  0  0  0  0  0
    5.9300    0.3610    0.3200 C   0  0  0  0  0  0  0  0  0  0  0  0
    5.9340    1.7730    0.3610 N   0  0  0  0  0  0  0  0  0  0  0  0
    7.0090   -0.2700    0.3940 O   0  0  0  0  0  0  0  0  0  0  0  0
   -1.0360    0.3170   -0.1340 O   0  0  0  0  0  0  0  0  0  0  0  0
   -2.2220    0.6240    0.3350 C   0  0  0  0  0  0  0  0  0  0  0  0
   -2.5320    1.9030    1.0240 C   0  0  0  0  0  0  0  0  0  0  0  0
  1  2  2  0
  2  3  1  0
  3  4  1  0
  3 16  2  0
  4  5  2  0
  5  6  1  0
  5 15  1  0
  6  7  1  0
  7  8  1  0
  8  9  2  0
  8 10  1  0
 10 11  1  0
 11 12  1  0
 12 13  1  0
 12 14  2  0
 15 16  1  0
 16 17  1  0
M  END
