
     RDKit          3D

 22 22  0  0  0  0  0  0  0  0999 V2000
    3.4050    1.6580   -0.1930 O   0  0  0  0  0  0  0  0  0  0  0  0
    3.5440    0.4120   -0.1020 C   0  0  0  0  0  0  0  0  0  0  0  0
    2.4680   -0.3750   -0.4230 O   0  0  0  0  0  0  0  0  0  0  0  0
    1.2140    0.1840   -0.8520 C   0  0  1  0  0  0  0  0  0  0  0  0
    0.8370   -0.2540   -2.0940 O   0  0  0  0  0  0  0  0  0  0  0  0
    0.2120   -0.2580    0.1810 C   0  0  0  0  0  0  0  0  0  0  0  0
   -1.1980    0.2560   -0.1470 C   0  0  2  0  0  0  0  0  0  0  0  0
   -1.1830    1.7550   -0.1830 C   0  0  0  0  0  0  0  0  0  0  0  0
   -2.5290    2.3450   -0.5140 C   0  0  2  0  0  0  0  0  0  0  0  0
   -2.4260    3.7470   -0.5430 O   0  0  0  0  0  0  0  0  0  0  0  0
   -3.5260    2.0000    0.3900 O   0  0  0  0  0  0  0  0  0  0  0  0
   -2.0900   -0.2930    0.9120 C   0  0  0  0  0  0  0  0  0  0  0  0
   -3.1410   -1.1650    0.2700 C   0  0  2  0  0  0  0  0  0  0  0  0
   -4.0010   -1.8990    1.2380 C   0  0  0  0  0  0  0  0  0  0  0  0
   -4.8400   -2.7420    0.4710 O   0  0  0  0  0  0  0  0  0  0  0  0
   -2.3890   -2.1150   -0.4660 O   0  0  0  0  0  0  0  0  0  0  0  0
   -1.9180   -1.4580   -1.5710 C   0  0  0  0  0  0  0  0  0  0  0  0
   -1.4760   -0.1900   -1.4190 O   0  0  0  0  0  0  0  0  0  0  0  0
    4.8630   -0.1140    0.3470 C   0  0  1  0  0  0  0  0  0  0  0  0
    4.8930   -1.4870    0.4080 O   0  0  0  0  0  0  0  0  0  0  0  0
    5.8750    0.3110   -0.7260 C   0  0  0  0  0  0  0  0  0  0  0  0
    7.1500   -0.1280   -0.3910 O   0  0  0  0  0  0  0  0  0  0  0  0
  1  2  2  0
  2  3  1  0
  2 19  1  0
  3  4  1  0
  4  5  1  6
  4  6  1  0
  7  6  1  1
  7  8  1  0
  7 12  1  0
  7 18  1  0
  8  9  1  0
  9 10  1  1
  9 11  1  0
 12 13  1  0
 13 14  1  1
 13 16  1  0
 14 15  1  0
 16 17  1  0
 17 18  1  0
 19 20  1  6
 19 21  1  0
 21 22  1  0
M  END
