
     RDKit          3D

 22 22  0  0  0  0  0  0  0  0999 V2000
   -3.7480    0.9410   -1.0130 C   0  0  0  0  0  0  0  0  0  0  0  0
   -3.2490    0.3880    0.2770 C   0  0  1  0  0  0  0  0  0  0  0  0
   -3.9730    1.0070    1.3340 O   0  0  0  0  0  0  0  0  0  0  0  0
   -3.1930   -0.9300    0.4380 O   0  0  0  0  0  0  0  0  0  0  0  0
   -4.1710   -1.8000    0.5440 C   0  0  0  0  0  0  0  0  0  0  0  0
   -5.2050   -1.9650   -0.5280 C   0  0  0  0  0  0  0  0  0  0  0  0
   -5.9420   -0.8330   -0.7600 O   0  0  0  0  0  0  0  0  0  0  0  0
   -1.8260    1.0050    0.5330 C   0  0  2  0  0  0  0  0  0  0  0  0
   -2.0030    2.3650    0.4440 O   0  0  0  0  0  0  0  0  0  0  0  0
   -0.8390    0.3990   -0.3930 C   0  0  0  0  0  0  0  0  0  0  0  0
    0.5480    0.9400   -0.1790 C   0  0  1  0  0  0  0  0  0  0  0  0
    0.5220    2.3090   -0.3970 O   0  0  0  0  0  0  0  0  0  0  0  0
    0.8790    0.6450    1.1580 O   0  0  0  0  0  0  0  0  0  0  0  0
    1.5610    0.2720   -1.0840 C   0  0  1  0  0  0  0  0  0  0  0  0
    1.2700    0.4780   -2.4180 O   0  0  0  0  0  0  0  0  0  0  0  0
    2.8540    0.5710   -0.7740 O   0  0  0  0  0  0  0  0  0  0  0  0
    3.6160   -0.5010   -0.3520 C   0  0  0  0  0  0  0  0  0  0  0  0
    5.0300   -0.1290   -0.0220 C   0  0  1  0  0  0  0  0  0  0  0  0
    5.0200    0.7260    1.2360 C   0  0  0  0  0  0  0  0  0  0  0  0
    5.9680    0.1720    2.0870 O   0  0  0  0  0  0  0  0  0  0  0  0
    6.5890   -0.8430    1.3990 C   0  0  0  0  0  0  0  0  0  0  0  0
    5.7220   -1.2620    0.3920 O   0  0  0  0  0  0  0  0  0  0  0  0
  2  1  1  6
  2  3  1  0
  2  4  1  0
  2  8  1  0
  4  5  1  0
  5  6  1  0
  6  7  1  0
  8  9  1  6
  8 10  1  0
 10 11  1  0
 11 12  1  1
 11 13  1  0
 11 14  1  0
 14 15  1  6
 14 16  1  0
 16 17  1  0
 18 17  1  1
 18 19  1  0
 18 22  1  0
 19 20  1  0
 20 21  1  0
 21 22  1  0
M  END
