
     RDKit          3D

 22 22  0  0  0  0  0  0  0  0999 V2000
    2.5620    1.1770   -0.4090 O   0  0  0  0  0  0  0  0  0  0  0  0
    3.0710    0.1520    0.0860 C   0  0  0  0  0  0  0  0  0  0  0  0
    2.4540   -1.0480   -0.0910 O   0  0  0  0  0  0  0  0  0  0  0  0
    1.2580   -1.3080   -0.7860 C   0  0  0  0  0  0  0  0  0  0  0  0
    0.1370   -0.5860   -0.1420 C   0  0  2  0  0  0  0  0  0  0  0  0
    0.0430   -1.0500    1.1920 O   0  0  0  0  0  0  0  0  0  0  0  0
   -1.1970   -0.7420   -0.8500 C   0  0  1  0  0  0  0  0  0  0  0  0
   -0.9300   -0.2370   -2.1580 O   0  0  0  0  0  0  0  0  0  0  0  0
   -1.5810   -2.1530   -1.0790 C   0  0  0  0  0  0  0  0  0  0  0  0
   -1.9060   -2.8790    0.0410 O   0  0  0  0  0  0  0  0  0  0  0  0
   -2.2310    0.1910   -0.3350 C   0  0  1  0  0  0  0  0  0  0  0  0
   -3.3870    0.3030   -1.3020 C   0  0  0  0  0  0  0  0  0  0  0  0
   -4.1430   -0.8610   -1.4020 O   0  0  0  0  0  0  0  0  0  0  0  0
   -2.7520   -0.0530    1.0270 C   0  0  0  0  0  0  0  0  0  0  0  0
   -3.7920    0.8900    1.2350 O   0  0  0  0  0  0  0  0  0  0  0  0
   -3.2790    2.1810    1.2310 C   0  0  0  0  0  0  0  0  0  0  0  0
   -1.8620    2.2300    0.7260 C   0  0  0  0  0  0  0  0  0  0  0  0
   -1.6060    1.4520   -0.3540 O   0  0  0  0  0  0  0  0  0  0  0  0
    4.3560    0.2710    0.8650 C   0  0  1  0  0  0  0  0  0  0  0  0
    4.7560   -0.9640    1.3280 O   0  0  0  0  0  0  0  0  0  0  0  0
    5.4120    0.8810   -0.0420 C   0  0  0  0  0  0  0  0  0  0  0  0
    6.5840    1.0130    0.7160 O   0  0  0  0  0  0  0  0  0  0  0  0
  1  2  2  0
  2  3  1  0
  2 19  1  0
  3  4  1  0
  4  5  1  0
  5  6  1  1
  5  7  1  0
  7  8  1  6
  7  9  1  0
  7 11  1  0
  9 10  1  0
 11 12  1  6
 11 14  1  0
 11 18  1  0
 12 13  1  0
 14 15  1  0
 15 16  1  0
 16 17  1  0
 17 18  1  0
 19 20  1  6
 19 21  1  0
 21 22  1  0
M  END
