
     RDKit          3D

 22 23  0  0  0  0  0  0  0  0999 V2000
    0.3930   -1.1190   -1.6180 C   0  0  0  0  0  0  0  0  0  0  0  0
   -0.0370   -0.9070   -0.2130 C   0  0  1  0  0  0  0  0  0  0  0  0
   -0.1680   -2.1860    0.3820 O   0  0  0  0  0  0  0  0  0  0  0  0
    1.0870   -0.2240    0.5440 C   0  0  2  0  0  0  0  0  0  0  0  0
    1.3730    1.0260    0.1240 O   0  0  0  0  0  0  0  0  0  0  0  0
    2.5300    1.2330   -0.5470 C   0  0  0  0  0  0  0  0  0  0  0  0
    3.7100    0.6500    0.1930 C   0  0  1  0  0  0  0  0  0  0  0  0
    4.1640    1.5420    1.1630 O   0  0  0  0  0  0  0  0  0  0  0  0
    3.3610   -0.6600    0.8290 C   0  0  1  0  0  0  0  0  0  0  0  0
    4.2790   -1.6070    0.3660 O   0  0  0  0  0  0  0  0  0  0  0  0
    3.5260   -0.5820    2.2120 O   0  0  0  0  0  0  0  0  0  0  0  0
    2.1140   -1.1280    0.5660 O   0  0  0  0  0  0  0  0  0  0  0  0
   -1.3580   -0.2290   -0.0620 C   0  0  2  0  0  0  0  0  0  0  0  0
   -2.4010   -1.0920   -0.7390 C   0  0  0  0  0  0  0  0  0  0  0  0
   -2.1800   -1.2930   -2.0680 O   0  0  0  0  0  0  0  0  0  0  0  0
   -1.3800    1.1940   -0.5130 C   0  0  0  0  0  0  0  0  0  0  0  0
   -2.8260    1.6910   -0.3790 C   0  0  1  0  0  0  0  0  0  0  0  0
   -3.5860    1.3650   -1.4840 O   0  0  0  0  0  0  0  0  0  0  0  0
   -3.4360    1.3290    0.9270 C   0  0  0  0  0  0  0  0  0  0  0  0
   -3.1270    0.0950    1.4110 O   0  0  0  0  0  0  0  0  0  0  0  0
   -1.7670   -0.2000    1.3990 C   0  0  1  0  0  0  0  0  0  0  0  0
   -1.6320   -1.4660    1.9900 O   0  0  0  0  0  0  0  0  0  0  0  0
  2  1  1  6
  2  3  1  0
  2  4  1  0
  2 13  1  0
  4  5  1  6
  4 12  1  0
  5  6  1  0
  6  7  1  0
  7  8  1  1
  7  9  1  0
  9 10  1  6
  9 11  1  0
  9 12  1  0
 13 14  1  6
 13 16  1  0
 13 21  1  0
 14 15  1  0
 16 17  1  0
 17 18  1  6
 17 19  1  0
 19 20  1  0
 20 21  1  0
 21 22  1  6
M  END
