
     RDKit          3D

 22 22  0  0  0  0  0  0  0  0999 V2000
    3.2690    3.1770   -1.4810 C   0  0  0  0  0  0  0  0  0  0  0  0
    3.2990    1.7750   -1.5420 O   0  0  0  0  0  0  0  0  0  0  0  0
    2.4530    0.9570   -0.8050 C   0  0  0  0  0  0  0  0  0  0  0  0
    1.6280    1.5340   -0.0530 O   0  0  0  0  0  0  0  0  0  0  0  0
    2.6050   -0.4870   -0.9780 C   0  0  0  0  0  0  0  0  0  0  0  0
    1.6340   -1.2930   -0.1290 C   0  0  1  0  0  0  0  0  0  0  0  0
    1.9940   -2.7440   -0.4860 C   0  0  0  0  0  0  0  0  0  0  0  0
    1.1630   -3.6730    0.0660 O   0  0  0  0  0  0  0  0  0  0  0  0
    1.8820   -1.1370    1.3300 C   0  0  0  0  0  0  0  0  0  0  0  0
    3.2460   -1.4480    1.5440 O   0  0  0  0  0  0  0  0  0  0  0  0
    0.3780   -1.0410   -0.5780 O   0  0  0  0  0  0  0  0  0  0  0  0
   -0.6780   -1.6190    0.0490 C   0  0  2  0  0  0  0  0  0  0  0  0
   -1.4330   -2.4510   -0.8050 O   0  0  0  0  0  0  0  0  0  0  0  0
   -1.6630   -0.5980    0.5770 C   0  0  2  0  0  0  0  0  0  0  0  0
   -2.6980   -1.2960    1.1970 O   0  0  0  0  0  0  0  0  0  0  0  0
   -2.2730    0.2420   -0.5160 C   0  0  0  0  0  0  0  0  0  0  0  0
   -2.3490    1.6050    0.1580 C   0  0  1  0  0  0  0  0  0  0  0  0
   -1.3300    2.4130   -0.3360 O   0  0  0  0  0  0  0  0  0  0  0  0
   -3.7080    2.2400   -0.0480 C   0  0  0  0  0  0  0  0  0  0  0  0
   -4.7250    1.4320    0.4450 O   0  0  0  0  0  0  0  0  0  0  0  0
   -2.1250    1.2350    1.6080 C   0  0  0  0  0  0  0  0  0  0  0  0
   -1.1180    0.2680    1.4970 O   0  0  0  0  0  0  0  0  0  0  0  0
  1  2  1  0
  2  3  1  0
  3  4  2  0
  3  5  1  0
  6  5  1  6
  6  7  1  0
  6  9  1  0
  6 11  1  0
  7  8  1  0
  9 10  1  0
 11 12  1  0
 12 13  1  6
 12 14  1  0
 14 15  1  1
 14 16  1  0
 14 22  1  0
 16 17  1  0
 17 18  1  6
 17 19  1  0
 17 21  1  0
 19 20  1  0
 21 22  1  0
M  END
