
     RDKit          3D

 22 22  0  0  0  0  0  0  0  0999 V2000
    2.3440   -0.7650    0.9620 O   0  0  0  0  0  0  0  0  0  0  0  0
    2.0860   -0.4700   -0.2320 C   0  0  0  0  0  0  0  0  0  0  0  0
    3.0560   -0.7100   -1.1790 O   0  0  0  0  0  0  0  0  0  0  0  0
    4.3170   -1.2540   -0.9500 C   0  0  0  0  0  0  0  0  0  0  0  0
    5.1610   -0.4480   -0.0070 C   0  0  0  0  0  0  0  0  0  0  0  0
    6.4060   -0.9990    0.2100 O   0  0  0  0  0  0  0  0  0  0  0  0
    7.1790   -0.2590    1.0740 C   0  0  0  0  0  0  0  0  0  0  0  0
    7.3950    1.0410    0.5840 O   0  0  0  0  0  0  0  0  0  0  0  0
    0.7720    0.1140   -0.5770 C   0  0  1  0  0  0  0  0  0  0  0  0
    0.7570    0.3430   -1.9710 O   0  0  0  0  0  0  0  0  0  0  0  0
   -0.3760   -0.8350   -0.3030 C   0  0  0  0  0  0  0  0  0  0  0  0
   -1.4800    0.2420   -0.2890 C   0  0  1  0  0  0  0  0  0  0  0  0
   -1.5740    0.7390   -1.5750 O   0  0  0  0  0  0  0  0  0  0  0  0
   -2.7680   -0.3060    0.2330 C   0  0  0  0  0  0  0  0  0  0  0  0
   -3.7850    0.8070    0.2050 C   0  0  1  0  0  0  0  0  0  0  0  0
   -3.9280    1.2460   -1.1120 O   0  0  0  0  0  0  0  0  0  0  0  0
   -5.1580    0.3680    0.6760 C   0  0  0  0  0  0  0  0  0  0  0  0
   -5.7050   -0.7280   -0.1810 C   0  0  0  0  0  0  0  0  0  0  0  0
   -6.9720   -1.0620    0.3230 O   0  0  0  0  0  0  0  0  0  0  0  0
   -0.7920    1.2340    0.6060 C   0  0  2  0  0  0  0  0  0  0  0  0
   -1.3830    2.4960    0.6040 O   0  0  0  0  0  0  0  0  0  0  0  0
    0.4970    1.2810    0.0830 O   0  0  0  0  0  0  0  0  0  0  0  0
  1  2  2  0
  2  3  1  0
  2  9  1  0
  3  4  1  0
  4  5  1  0
  5  6  1  0
  6  7  1  0
  7  8  1  0
  9 10  1  6
  9 11  1  0
  9 22  1  0
 11 12  1  0
 12 13  1  6
 12 14  1  0
 12 20  1  0
 14 15  1  0
 15 16  1  6
 15 17  1  0
 17 18  1  0
 18 19  1  0
 20 21  1  6
 20 22  1  0
M  END
