
     RDKit          3D

 22 22  0  0  0  0  0  0  0  0999 V2000
    0.6080   -0.7500    1.5840 O   0  0  0  0  0  0  0  0  0  0  0  0
    1.0950   -0.5380    0.4380 C   0  0  0  0  0  0  0  0  0  0  0  0
    2.4360   -0.2820    0.3760 O   0  0  0  0  0  0  0  0  0  0  0  0
    3.2850   -0.2470    1.5290 C   0  0  0  0  0  0  0  0  0  0  0  0
    4.6800    0.0670    1.0150 C   0  0  2  0  0  0  0  0  0  0  0  0
    5.1310   -0.8990    0.1190 O   0  0  0  0  0  0  0  0  0  0  0  0
    5.6800    0.1180    2.1490 C   0  0  0  0  0  0  0  0  0  0  0  0
    5.7480   -1.1410    2.7670 O   0  0  0  0  0  0  0  0  0  0  0  0
    0.2810   -0.5570   -0.8030 C   0  0  2  0  0  0  0  0  0  0  0  0
    1.1520   -0.2870   -1.8540 O   0  0  0  0  0  0  0  0  0  0  0  0
    0.4430   -0.3030   -3.0280 C   0  0  0  0  0  0  0  0  0  0  0  0
   -0.3880    0.9600   -3.0500 C   0  0  1  0  0  0  0  0  0  0  0  0
   -1.4450    0.7780   -3.9080 O   0  0  0  0  0  0  0  0  0  0  0  0
   -0.6970    1.4310   -1.8040 O   0  0  0  0  0  0  0  0  0  0  0  0
   -0.8010    0.4940   -0.8060 C   0  0  1  0  0  0  0  0  0  0  0  0
   -2.1980   -0.0620   -0.8370 C   0  0  1  0  0  0  0  0  0  0  0  0
   -2.5420   -0.6730   -2.0110 O   0  0  0  0  0  0  0  0  0  0  0  0
   -2.5370   -0.9690    0.3080 C   0  0  0  0  0  0  0  0  0  0  0  0
   -3.8490   -1.2830    0.3690 O   0  0  0  0  0  0  0  0  0  0  0  0
   -4.7780   -0.3450    0.5120 C   0  0  0  0  0  0  0  0  0  0  0  0
   -4.7390    0.5290    1.7240 C   0  0  0  0  0  0  0  0  0  0  0  0
   -4.8490   -0.1800    2.9170 O   0  0  0  0  0  0  0  0  0  0  0  0
  1  2  2  0
  2  3  1  0
  9  2  1  1
  3  4  1  0
  4  5  1  0
  5  6  1  6
  5  7  1  0
  7  8  1  0
  9 10  1  0
  9 15  1  0
 10 11  1  0
 11 12  1  0
 12 13  1  1
 12 14  1  0
 15 14  1  6
 15 16  1  0
 16 17  1  6
 16 18  1  0
 18 19  1  0
 19 20  1  0
 20 21  1  0
 21 22  1  0
M  END
