
     RDKit          3D

 25 26  0  0  0  0  0  0  0  0999 V2000
    7.2540    1.1000   -0.4890 C   0  0  0  0  0  0  0  0  0  0  0  0
    6.2530    0.6580   -1.3320 O   0  0  0  0  0  0  0  0  0  0  0  0
    5.1120    0.2250   -0.7000 C   0  0  0  0  0  0  0  0  0  0  0  0
    4.4390    1.3050    0.1340 C   0  0  0  0  0  0  0  0  0  0  0  0
    3.2960    0.8280    0.7570 O   0  0  0  0  0  0  0  0  0  0  0  0
    2.1670    0.3040    0.1630 C   0  0  0  0  0  0  0  0  0  0  0  0
    2.1450    0.2450   -1.0820 O   0  0  0  0  0  0  0  0  0  0  0  0
    1.0990   -0.1330    1.0870 C   0  0  2  0  0  0  0  0  0  0  0  0
    1.8200   -1.1470    2.0130 C   0  0  0  0  0  0  0  0  0  0  0  0
    2.0380   -2.2900    1.0430 C   0  0  0  0  0  0  0  0  0  0  0  0
    0.9500   -2.1850   -0.0110 C   0  0  0  0  0  0  0  0  0  0  0  0
    0.0770   -1.0200    0.5090 C   0  0  1  0  0  0  0  0  0  0  0  0
   -0.7200   -1.6370    1.6640 C   0  0  0  0  0  0  0  0  0  0  0  0
   -0.7760   -0.5430   -0.5860 C   0  0  0  0  0  0  0  0  0  0  0  0
   -1.5810    0.6550   -0.2710 C   0  0  0  0  0  0  0  0  0  0  0  0
   -1.0200    1.6110    0.3080 O   0  0  0  0  0  0  0  0  0  0  0  0
   -2.9540    0.7830   -0.5890 N   0  0  0  0  0  0  0  0  0  0  0  0
   -3.6450    2.0160   -0.2860 C   0  0  0  0  0  0  0  0  0  0  0  0
   -4.8370    1.7160    0.6270 C   0  0  0  0  0  0  0  0  0  0  0  0
   -5.7770    0.7420   -0.0000 C   0  0  0  0  0  0  0  0  0  0  0  0
   -5.1570    0.2060   -1.2470 C   0  0  0  0  0  0  0  0  0  0  0  0
   -5.8610    0.1760   -2.3480 C   0  0  0  0  0  0  0  0  0  0  0  0
   -7.5050    0.7570   -2.3530 Cl  0  0  0  0  0  0  0  0  0  0  0  0
   -5.1260   -0.4590   -3.8060 Cl  0  0  0  0  0  0  0  0  0  0  0  0
   -3.7380   -0.2780   -1.1800 C   0  0  0  0  0  0  0  0  0  0  0  0
  1  2  1  0
  2  3  1  0
  3  4  1  0
  4  5  1  0
  5  6  1  0
  6  7  2  0
  8  6  1  6
  8  9  1  0
  8 12  1  0
  9 10  1  0
 10 11  1  0
 11 12  1  0
 12 13  1  1
 12 14  1  0
 14 15  1  0
 15 16  2  0
 15 17  1  0
 17 18  1  0
 17 25  1  0
 18 19  1  0
 19 20  1  0
 20 21  1  0
 21 22  2  3
 21 25  1  0
 22 23  1  0
 22 24  1  0
M  END
