
     RDKit          3D

 11 11  0  0  0  0  0  0  0  0999 V2000
   -2.5440   -1.2910    0.6980 O   0  0  0  0  0  0  0  0  0  0  0  0
   -2.6480   -0.2050   -0.1810 C   0  0  0  0  0  0  0  0  0  0  0  0
   -1.6340    0.6940    0.1070 O   0  0  0  0  0  0  0  0  0  0  0  0
   -0.2880    0.4740    0.0670 C   0  0  0  0  0  0  0  0  0  0  0  0
    0.3200   -0.7170   -0.2760 C   0  0  0  0  0  0  0  0  0  0  0  0
    1.6790   -0.8940   -0.3020 C   0  0  0  0  0  0  0  0  0  0  0  0
    2.2800   -2.1000   -0.6500 O   0  0  0  0  0  0  0  0  0  0  0  0
    2.4920    0.1640    0.0290 C   0  0  0  0  0  0  0  0  0  0  0  0
    1.9390    1.3700    0.3780 C   0  0  0  0  0  0  0  0  0  0  0  0
    0.5530    1.5230    0.3960 C   0  0  0  0  0  0  0  0  0  0  0  0
    0.0520    2.7480    0.7520 O   0  0  0  0  0  0  0  0  0  0  0  0
  1  2  1  0
  2  3  1  0
  3  4  1  0
  4  5  2  0
  4 10  1  0
  5  6  1  0
  6  7  1  0
  6  8  2  0
  8  9  1  0
  9 10  2  0
 10 11  1  0
M  END
