
     RDKit          3D

 25 25  0  0  0  0  0  0  0  0999 V2000
    3.9530   -0.2470    2.2500 C   0  0  0  0  0  0  0  0  0  0  0  0
    3.4980   -1.3210    1.2430 C   0  0  0  0  0  0  0  0  0  0  0  0
    2.8270   -0.5620    0.1620 C   0  0  0  0  0  0  0  0  0  0  0  0
    3.2610   -0.6030   -1.0480 C   0  0  0  0  0  0  0  0  0  0  0  0
    4.4210   -1.3600   -1.5290 C   0  0  0  0  0  0  0  0  0  0  0  0
    5.6430   -0.2380   -2.2500 Cl  0  0  0  0  0  0  0  0  0  0  0  0
    2.5360    0.1760   -2.0520 C   0  0  0  0  0  0  0  0  0  0  0  0
    3.0770    0.3920   -3.1610 O   0  0  0  0  0  0  0  0  0  0  0  0
    1.1990    0.7120   -1.8050 C   0  0  0  0  0  0  0  0  0  0  0  0
    0.9040    0.9950   -0.3620 C   0  0  1  0  0  0  0  0  0  0  0  0
   -0.5540    0.8370   -0.1250 C   0  0  0  0  0  0  0  0  0  0  0  0
   -1.4060    1.7970    0.1520 C   0  0  0  0  0  0  0  0  0  0  0  0
   -1.1730    3.2020    0.2970 C   0  0  0  0  0  0  0  0  0  0  0  0
   -0.0840    3.8090    0.1850 O   0  0  0  0  0  0  0  0  0  0  0  0
   -2.3000    4.0550    0.6100 N   0  0  0  0  0  0  0  0  0  0  0  0
   -2.0780    5.4860    0.7610 C   0  0  0  0  0  0  0  0  0  0  0  0
   -3.6320    6.2530    1.1380 Cl  0  0  0  0  0  0  0  0  0  0  0  0
   -1.1100   -0.5380   -0.2130 C   0  0  0  0  0  0  0  0  0  0  0  0
   -0.3360   -1.4710   -0.4750 O   0  0  0  0  0  0  0  0  0  0  0  0
   -2.4350   -0.7980   -0.0150 O   0  0  0  0  0  0  0  0  0  0  0  0
   -3.0170   -2.0900   -0.0870 C   0  0  1  0  0  0  0  0  0  0  0  0
   -4.4960   -1.9290    0.1950 C   0  0  0  0  0  0  0  0  0  0  0  0
   -2.8730   -2.6790   -1.4800 C   0  0  0  0  0  0  0  0  0  0  0  0
   -2.4430   -3.0340    0.9320 C   0  0  0  0  0  0  0  0  0  0  0  0
    1.6490    0.2130    0.6310 C   0  0  0  0  0  0  0  0  0  0  0  0
  1  2  1  0
  2  3  1  0
  3  4  2  0
  3 25  1  0
  4  5  1  0
  4  7  1  0
  5  6  1  0
  7  8  2  0
  7  9  1  0
  9 10  1  0
 10 11  1  6
 10 25  1  0
 11 12  2  3
 11 18  1  0
 12 13  1  0
 13 14  2  0
 13 15  1  0
 15 16  1  0
 16 17  1  0
 18 19  2  0
 18 20  1  0
 20 21  1  0
 21 22  1  1
 21 23  1  0
 21 24  1  0
M  END
