
     RDKit          3D

 25 26  0  0  0  0  0  0  0  0999 V2000
   -2.1700    0.3100   -3.2550 C   0  0  0  0  0  0  0  0  0  0  0  0
   -1.1230    0.0340   -2.2580 C   0  0  0  0  0  0  0  0  0  0  0  0
    0.0730   -0.0290   -2.6220 O   0  0  0  0  0  0  0  0  0  0  0  0
   -1.4340   -0.1730   -0.8380 C   0  0  0  0  0  0  0  0  0  0  0  0
   -0.4170   -0.4170   -0.0080 C   0  0  0  0  0  0  0  0  0  0  0  0
   -0.7370   -0.6310    1.4240 C   0  0  0  0  0  0  0  0  0  0  0  0
    0.8650   -0.4630   -0.5020 O   0  0  0  0  0  0  0  0  0  0  0  0
    2.0630   -0.8150    0.1180 C   0  0  2  0  0  0  0  0  0  0  0  0
    2.3570    0.0890    1.2500 C   0  0  0  0  0  0  0  0  0  0  0  0
    3.7800    0.2360    1.6650 C   0  0  0  0  0  0  0  0  0  0  0  0
    4.6490    0.8600    0.6310 C   0  0  0  0  0  0  0  0  0  0  0  0
    5.3210   -0.1700   -0.2570 C   0  0  0  0  0  0  0  0  0  0  0  0
    4.4060   -1.3710   -0.4360 C   0  0  0  0  0  0  0  0  0  0  0  0
    3.1160   -0.8610   -0.9710 C   0  0  2  0  0  0  0  0  0  0  0  0
    3.2260    0.3030   -1.6930 O   0  0  0  0  0  0  0  0  0  0  0  0
   -2.7830   -0.0700   -0.3410 C   0  0  0  0  0  0  0  0  0  0  0  0
   -3.7300   -0.9540   -0.8770 C   0  0  0  0  0  0  0  0  0  0  0  0
   -5.0190   -0.8310   -0.4390 C   0  0  0  0  0  0  0  0  0  0  0  0
   -6.2310   -1.9320   -1.0970 Cl  0  0  0  0  0  0  0  0  0  0  0  0
   -5.3890    0.1160    0.4890 C   0  0  0  0  0  0  0  0  0  0  0  0
   -7.0490    0.2420    1.0270 Cl  0  0  0  0  0  0  0  0  0  0  0  0
   -4.4860    0.9620    1.0020 N   0  0  0  0  0  0  0  0  0  0  0  0
   -4.9100    1.9480    1.9790 C   0  0  0  0  0  0  0  0  0  0  0  0
   -3.2060    0.8540    0.5790 C   0  0  0  0  0  0  0  0  0  0  0  0
   -2.4040    1.6770    1.0900 O   0  0  0  0  0  0  0  0  0  0  0  0
  1  2  1  0
  2  3  2  0
  2  4  1  0
  4  5  2  3
  4 16  1  0
  5  6  1  0
  5  7  1  0
  8  7  1  6
  8  9  1  0
  8 14  1  0
  9 10  1  0
 10 11  1  0
 11 12  1  0
 12 13  1  0
 13 14  1  0
 14 15  1  1
 16 17  2  0
 16 24  1  0
 17 18  1  0
 18 19  1  0
 18 20  2  0
 20 21  1  0
 20 22  1  0
 22 23  1  0
 22 24  1  0
 24 25  2  0
M  END
