
     RDKit          3D

 25 27  0  0  0  0  0  0  0  0999 V2000
    4.4720   -1.5900   -1.6870 C   0  0  0  0  0  0  0  0  0  0  0  0
    4.4270   -1.7360   -0.3920 C   0  0  0  0  0  0  0  0  0  0  0  0
    4.0720   -3.3450    0.2530 Cl  0  0  0  0  0  0  0  0  0  0  0  0
    4.6550   -0.6110    0.4970 C   0  0  0  0  0  0  0  0  0  0  0  0
    4.5980   -0.8460    1.8140 C   0  0  0  0  0  0  0  0  0  0  0  0
    4.8520    0.3950    3.0180 Cl  0  0  0  0  0  0  0  0  0  0  0  0
    4.9060    0.7350   -0.0180 C   0  0  0  0  0  0  0  0  0  0  0  0
    3.9740    1.3010   -0.9130 N   0  0  0  0  0  0  0  0  0  0  0  0
    2.5930    1.5180   -0.7230 C   0  0  0  0  0  0  0  0  0  0  0  0
    1.7940    1.9340   -1.8060 C   0  0  0  0  0  0  0  0  0  0  0  0
    0.4510    2.1660   -1.6630 C   0  0  0  0  0  0  0  0  0  0  0  0
   -0.1070    1.9840   -0.4310 C   0  0  0  0  0  0  0  0  0  0  0  0
    0.6380    1.5780    0.6530 C   0  0  0  0  0  0  0  0  0  0  0  0
    2.0090    1.3430    0.5010 C   0  0  0  0  0  0  0  0  0  0  0  0
   -0.0300    1.4240    1.8570 O   0  0  0  0  0  0  0  0  0  0  0  0
   -1.3300    0.8800    1.8440 C   0  0  0  0  0  0  0  0  0  0  0  0
   -2.2060    1.4240    0.7400 C   0  0  2  0  0  0  0  0  0  0  0  0
   -2.7780    0.2490   -0.0110 C   0  0  2  0  0  0  0  0  0  0  0  0
   -3.9000    0.6710   -0.9560 C   0  0  0  0  0  0  0  0  0  0  0  0
   -4.5060   -0.5780   -1.1450 O   0  0  0  0  0  0  0  0  0  0  0  0
   -4.2610   -1.3300   -0.0230 C   0  0  2  0  0  0  0  0  0  0  0  0
   -3.4180   -2.5660   -0.3280 C   0  0  0  0  0  0  0  0  0  0  0  0
   -5.5770   -1.7530    0.5750 C   0  0  0  0  0  0  0  0  0  0  0  0
   -3.5120   -0.5580    0.8590 O   0  0  0  0  0  0  0  0  0  0  0  0
   -1.4770    2.1990   -0.1920 O   0  0  0  0  0  0  0  0  0  0  0  0
  1  2  2  0
  2  3  1  0
  2  4  1  0
  4  5  2  3
  4  7  1  0
  5  6  1  0
  7  8  1  0
  8  9  1  0
  9 10  2  0
  9 14  1  0
 10 11  1  0
 11 12  2  0
 12 13  1  0
 12 25  1  0
 13 14  2  0
 13 15  1  0
 15 16  1  0
 17 16  1  1
 17 18  1  0
 17 25  1  0
 18 19  1  6
 18 24  1  0
 19 20  1  0
 20 21  1  0
 21 22  1  6
 21 23  1  0
 21 24  1  0
M  END
