
     RDKit          3D

 25 26  0  0  0  0  0  0  0  0999 V2000
    4.4760    2.2330    1.2940 C   0  0  0  0  0  0  0  0  0  0  0  0
    3.0970    2.7650    1.0020 C   0  0  0  0  0  0  0  0  0  0  0  0
    2.1770    1.7640    0.6510 O   0  0  0  0  0  0  0  0  0  0  0  0
    1.8340    0.7050    1.4740 C   0  0  0  0  0  0  0  0  0  0  0  0
    2.4050    0.6840    2.5820 O   0  0  0  0  0  0  0  0  0  0  0  0
    0.8780   -0.3460    1.1270 C   0  0  0  0  0  0  0  0  0  0  0  0
    0.6610   -1.2840    2.0410 C   0  0  0  0  0  0  0  0  0  0  0  0
    1.3430   -1.3040    3.3750 C   0  0  0  0  0  0  0  0  0  0  0  0
   -0.2610   -2.3130    1.7990 N   0  0  0  0  0  0  0  0  0  0  0  0
   -0.9690   -2.3740    0.5950 C   0  0  0  0  0  0  0  0  0  0  0  0
   -1.9560   -3.4970    0.3750 C   0  0  0  0  0  0  0  0  0  0  0  0
   -0.7700   -1.4630   -0.3220 C   0  0  0  0  0  0  0  0  0  0  0  0
   -1.5410   -1.5450   -1.6040 C   0  0  0  0  0  0  0  0  0  0  0  0
   -1.3700   -0.6790   -2.5090 O   0  0  0  0  0  0  0  0  0  0  0  0
   -2.4530   -2.5320   -1.8710 O   0  0  0  0  0  0  0  0  0  0  0  0
   -3.1870   -2.6210   -3.0760 C   0  0  0  0  0  0  0  0  0  0  0  0
    0.2000   -0.3540   -0.1910 C   0  0  1  0  0  0  0  0  0  0  0  0
   -0.5110    0.9370   -0.4420 C   0  0  0  0  0  0  0  0  0  0  0  0
   -1.6210    1.2580    0.3040 C   0  0  0  0  0  0  0  0  0  0  0  0
   -2.2510    2.4710    0.1080 C   0  0  0  0  0  0  0  0  0  0  0  0
   -1.7840    3.3720   -0.8280 C   0  0  0  0  0  0  0  0  0  0  0  0
   -0.6690    3.0530   -1.5810 C   0  0  0  0  0  0  0  0  0  0  0  0
   -0.0970    4.2060   -2.7590 Cl  0  0  0  0  0  0  0  0  0  0  0  0
   -0.0380    1.8250   -1.3790 C   0  0  0  0  0  0  0  0  0  0  0  0
    1.3380    1.4820   -2.4310 Cl  0  0  0  0  0  0  0  0  0  0  0  0
  1  2  1  0
  2  3  1  0
  3  4  1  0
  4  5  2  0
  4  6  1  0
  6  7  2  0
  6 17  1  0
  7  8  1  0
  7  9  1  0
  9 10  1  0
 10 11  1  0
 10 12  2  0
 12 13  1  0
 12 17  1  0
 13 14  2  0
 13 15  1  0
 15 16  1  0
 17 18  1  1
 18 19  2  0
 18 24  1  0
 19 20  1  0
 20 21  2  0
 21 22  1  0
 22 23  1  0
 22 24  2  0
 24 25  1  0
M  END
