
     RDKit          3D

 25 26  0  0  0  0  0  0  0  0999 V2000
   -4.1310    0.3740   -1.8710 C   0  0  0  0  0  0  0  0  0  0  0  0
   -2.6490    0.1240   -1.4940 C   0  0  0  0  0  0  0  0  0  0  0  0
   -2.6280   -0.9200   -0.4230 C   0  0  0  0  0  0  0  0  0  0  0  0
   -3.0690   -2.1960   -0.8150 C   0  0  0  0  0  0  0  0  0  0  0  0
   -3.4470   -2.4830   -2.4920 Cl  0  0  0  0  0  0  0  0  0  0  0  0
   -3.2030   -3.2040    0.0890 C   0  0  0  0  0  0  0  0  0  0  0  0
   -3.7580   -4.7830   -0.4550 Cl  0  0  0  0  0  0  0  0  0  0  0  0
   -2.9050   -2.9760    1.3980 C   0  0  0  0  0  0  0  0  0  0  0  0
   -2.4620   -1.7120    1.7990 C   0  0  0  0  0  0  0  0  0  0  0  0
   -2.1860   -1.5900    3.1330 O   0  0  0  0  0  0  0  0  0  0  0  0
   -2.3150   -0.6610    0.8810 C   0  0  0  0  0  0  0  0  0  0  0  0
   -1.8980    0.6130    1.4260 C   0  0  0  0  0  0  0  0  0  0  0  0
   -2.5180    0.9250    2.5290 O   0  0  0  0  0  0  0  0  0  0  0  0
   -0.9630    1.5190    0.9800 N   0  0  0  0  0  0  0  0  0  0  0  0
   -0.7670    2.8070    1.6760 C   0  0  0  0  0  0  0  0  0  0  0  0
    0.2070    3.6480    0.8980 C   0  0  0  0  0  0  0  0  0  0  0  0
    1.4010    3.0640    0.5950 O   0  0  0  0  0  0  0  0  0  0  0  0
    1.3400    1.7060    0.5570 C   0  0  2  0  0  0  0  0  0  0  0  0
    2.4570    1.0630   -0.2320 C   0  0  0  0  0  0  0  0  0  0  0  0
    2.2870   -0.3280   -0.2000 O   0  0  0  0  0  0  0  0  0  0  0  0
    3.3260   -0.8840   -0.9310 C   0  0  2  0  0  0  0  0  0  0  0  0
    3.2900   -0.3860   -2.3560 C   0  0  0  0  0  0  0  0  0  0  0  0
    3.1500   -2.3770   -0.9440 C   0  0  0  0  0  0  0  0  0  0  0  0
    4.6750   -0.5550   -0.3060 C   0  0  0  0  0  0  0  0  0  0  0  0
   -0.0030    1.2970   -0.0710 C   0  0  0  0  0  0  0  0  0  0  0  0
  1  2  1  0
  2  3  1  0
  3  4  2  0
  3 11  1  0
  4  5  1  0
  4  6  1  0
  6  7  1  0
  6  8  2  0
  8  9  1  0
  9 10  1  0
  9 11  2  0
 11 12  1  0
 12 13  2  0
 12 14  1  0
 14 15  1  0
 14 25  1  0
 15 16  1  0
 16 17  1  0
 17 18  1  0
 18 19  1  6
 18 25  1  0
 19 20  1  0
 20 21  1  0
 21 22  1  6
 21 23  1  0
 21 24  1  0
M  END
