
     RDKit          3D

 35 38  0  0  0  0  0  0  0  0999 V2000
   10.3010   -0.1600   -1.3550 C   0  0  0  0  0  0  0  0  0  0  0  0
    9.6400    0.9940   -0.6000 C   0  0  0  0  0  0  0  0  0  0  0  0
    8.1890    0.6830   -0.5260 C   0  0  0  0  0  0  0  0  0  0  0  0
    7.2640    0.7990   -1.5480 C   0  0  0  0  0  0  0  0  0  0  0  0
    7.4990    1.2570   -2.9440 C   0  0  0  0  0  0  0  0  0  0  0  0
    6.0930    0.4120   -1.0310 N   0  0  0  0  0  0  0  0  0  0  0  0
    6.2030    0.0580    0.2490 C   0  0  0  0  0  0  0  0  0  0  0  0
    5.1240   -0.4150    1.1160 C   0  0  0  0  0  0  0  0  0  0  0  0
    5.3590   -0.7180    2.3230 O   0  0  0  0  0  0  0  0  0  0  0  0
    3.8000   -0.5340    0.6020 N   0  0  0  0  0  0  0  0  0  0  0  0
    2.7960   -0.9940    1.4720 C   0  0  0  0  0  0  0  0  0  0  0  0
    3.0830   -1.2810    2.6610 O   0  0  0  0  0  0  0  0  0  0  0  0
    1.3930   -1.1540    1.0330 C   0  0  0  0  0  0  0  0  0  0  0  0
    0.4770   -1.5840    1.8670 C   0  0  0  0  0  0  0  0  0  0  0  0
   -0.9100   -1.7470    1.4930 C   0  0  0  0  0  0  0  0  0  0  0  0
   -1.4460   -1.4900    0.3370 C   0  0  0  0  0  0  0  0  0  0  0  0
   -0.7600   -0.9460   -0.8730 C   0  0  2  0  0  0  0  0  0  0  0  0
   -1.3050   -1.8430   -1.8880 N   0  0  0  0  0  0  0  0  0  0  0  0
   -2.7120   -1.9580   -1.5870 C   0  0  0  0  0  0  0  0  0  0  0  0
   -3.6120   -2.2030   -2.4110 O   0  0  0  0  0  0  0  0  0  0  0  0
   -2.8010   -1.7300   -0.1600 N   0  0  0  0  0  0  0  0  0  0  0  0
   -4.0190   -1.7430    0.6150 C   0  0  0  0  0  0  0  0  0  0  0  0
   -4.6170   -0.3690    0.6560 C   0  0  2  0  0  0  0  0  0  0  0  0
   -3.7150    0.6600    1.2720 C   0  0  0  0  0  0  0  0  0  0  0  0
   -4.4610    1.7270    2.0200 C   0  0  0  0  0  0  0  0  0  0  0  0
   -5.7840    2.0830    1.4090 C   0  0  0  0  0  0  0  0  0  0  0  0
   -6.6130    0.9370    0.9600 C   0  0  1  0  0  0  0  0  0  0  0  0
   -6.7710    0.8140   -0.3980 O   0  0  0  0  0  0  0  0  0  0  0  0
   -8.0730    0.7590   -0.8390 C   0  0  1  0  0  0  0  0  0  0  0  0
   -8.2730    1.9490   -1.7590 C   0  0  0  0  0  0  0  0  0  0  0  0
   -8.2060   -0.4850   -1.7000 C   0  0  0  0  0  0  0  0  0  0  0  0
   -5.9260   -0.3360    1.4320 C   0  0  0  0  0  0  0  0  0  0  0  0
    0.9790   -0.8830   -0.6790 S   0  0  0  0  0  0  0  0  0  0  0  0
    7.5280    0.2200    0.5970 C   0  0  0  0  0  0  0  0  0  0  0  0
    8.1000   -0.0600    1.9370 C   0  0  0  0  0  0  0  0  0  0  0  0
  1  2  1  0
  2  3  1  0
  3  4  2  0
  3 34  1  0
  4  5  1  0
  4  6  1  0
  6  7  1  0
  7  8  1  0
  7 34  2  0
  8  9  2  0
  8 10  1  0
 10 11  1  0
 11 12  2  0
 11 13  1  0
 13 14  2  0
 13 33  1  0
 14 15  1  0
 15 16  2  0
 16 17  1  0
 16 21  1  0
 17 18  1  6
 17 33  1  0
 18 19  1  0
 19 20  2  0
 19 21  1  0
 21 22  1  0
 23 22  1  1
 23 24  1  0
 23 32  1  0
 24 25  1  0
 25 26  1  0
 26 27  1  0
 27 28  1  6
 27 32  1  0
 28 29  1  0
 29 30  1  6
 29 31  1  0
 34 35  1  0
M  END
