
     RDKit          3D

 36 39  0  0  0  0  0  0  0  0999 V2000
   -4.5760    3.9620    0.6800 C   0  0  0  0  0  0  0  0  0  0  0  0
   -4.8330    2.5440    1.1410 C   0  0  0  0  0  0  0  0  0  0  0  0
   -3.9420    1.6450    0.4240 N   0  0  0  0  0  0  0  0  0  0  0  0
   -4.3240    0.3000    0.6680 C   0  0  1  0  0  0  0  0  0  0  0  0
   -5.6330   -0.0660    0.0950 C   0  0  0  0  0  0  0  0  0  0  0  0
   -6.3450    0.7180   -0.6770 N   0  0  0  0  0  0  0  0  0  0  0  0
   -6.1110   -1.4040    0.3230 N   0  0  0  0  0  0  0  0  0  0  0  0
   -7.5400   -1.6580    0.2760 C   0  0  0  0  0  0  0  0  0  0  0  0
   -7.8570   -1.9820   -1.1950 C   0  0  0  0  0  0  0  0  0  0  0  0
   -5.1520   -2.4140    0.5600 C   0  0  0  0  0  0  0  0  0  0  0  0
   -5.5210   -3.6170    0.7460 O   0  0  0  0  0  0  0  0  0  0  0  0
   -3.7310   -2.0650    0.5910 C   0  0  0  0  0  0  0  0  0  0  0  0
   -2.7780   -3.0910    0.5230 C   0  0  0  0  0  0  0  0  0  0  0  0
   -1.4540   -2.8430    0.2880 C   0  0  0  0  0  0  0  0  0  0  0  0
   -1.0380   -1.5100    0.1100 C   0  0  0  0  0  0  0  0  0  0  0  0
    0.3460   -1.3080   -0.2280 N   0  0  0  0  0  0  0  0  0  0  0  0
    1.1840   -0.2900    0.2310 C   0  0  0  0  0  0  0  0  0  0  0  0
    0.6940    0.5410    1.0410 O   0  0  0  0  0  0  0  0  0  0  0  0
    2.5730   -0.1230   -0.1640 C   0  0  0  0  0  0  0  0  0  0  0  0
    3.3280    0.8490    0.4850 C   0  0  0  0  0  0  0  0  0  0  0  0
    4.6400    1.0020    0.2080 C   0  0  0  0  0  0  0  0  0  0  0  0
    5.4910    1.9950    0.9190 C   0  0  1  0  0  0  0  0  0  0  0  0
    6.7690    1.2410    1.3480 C   0  0  0  0  0  0  0  0  0  0  0  0
    5.8470    3.1150    0.0010 C   0  0  0  0  0  0  0  0  0  0  0  0
    4.6910    2.6030    2.4150 S   0  0  0  0  0  0  0  0  0  0  0  0
    4.4230    1.1750    3.4880 C   0  0  0  0  0  0  0  0  0  0  0  0
    5.6330    3.5800    3.1450 O   0  0  0  0  0  0  0  0  0  0  0  0
    5.2160    0.1700   -0.7430 C   0  0  0  0  0  0  0  0  0  0  0  0
    4.5030   -0.8020   -1.4070 C   0  0  0  0  0  0  0  0  0  0  0  0
    3.1690   -0.9530   -1.1170 C   0  0  0  0  0  0  0  0  0  0  0  0
    2.6730   -1.9780   -1.9000 O   0  0  0  0  0  0  0  0  0  0  0  0
    3.5770   -2.3880   -2.8690 C   0  0  1  0  0  0  0  0  0  0  0  0
    3.1840   -1.8950   -4.2600 C   0  0  0  0  0  0  0  0  0  0  0  0
    4.8790   -1.7950   -2.4480 C   0  0  0  0  0  0  0  0  0  0  0  0
   -1.9750   -0.5320    0.1870 C   0  0  0  0  0  0  0  0  0  0  0  0
   -3.3220   -0.7410    0.4230 C   0  0  0  0  0  0  0  0  0  0  0  0
  1  2  1  0
  2  3  1  0
  4  3  1  6
  4  5  1  0
  4 36  1  0
  5  6  2  0
  5  7  1  0
  7  8  1  0
  7 10  1  0
  8  9  1  0
 10 11  2  0
 10 12  1  0
 12 13  2  0
 12 36  1  0
 13 14  1  0
 14 15  2  0
 15 16  1  0
 15 35  1  0
 16 17  1  0
 17 18  2  0
 17 19  1  0
 19 20  2  0
 19 30  1  0
 20 21  1  0
 21 22  1  0
 21 28  2  0
 22 23  1  1
 22 24  1  0
 22 25  1  0
 25 26  1  1
 25 27  2  0
 28 29  1  0
 29 30  2  0
 29 34  1  0
 30 31  1  0
 31 32  1  0
 32 33  1  6
 32 34  1  0
 35 36  2  0
M  END
