
     RDKit          3D

 11 11  0  0  0  0  0  0  0  0999 V2000
    3.0250   -1.5750    0.1880 C   0  0  0  0  0  0  0  0  0  0  0  0
    2.2270   -0.8000   -0.8150 C   0  0  0  0  0  0  0  0  0  0  0  0
    0.7660   -0.7750   -0.4560 C   0  0  0  0  0  0  0  0  0  0  0  0
   -0.0670    0.2050   -0.1910 C   0  0  0  0  0  0  0  0  0  0  0  0
    0.0730    1.6560   -0.1370 C   0  0  0  0  0  0  0  0  0  0  0  0
   -0.8810    2.4920    0.1390 C   0  0  0  0  0  0  0  0  0  0  0  0
   -2.5600    1.9330    0.5000 P   0  0  0  0  0  0  0  0  0  0  0  0
   -1.1710   -0.6980    0.0670 C   0  0  2  0  0  0  0  0  0  0  0  0
   -1.5780   -0.8850    1.3980 O   0  0  0  0  0  0  0  0  0  0  0  0
   -2.8070   -1.3210    1.3830 O   0  0  0  0  0  0  0  0  0  0  0  0
   -0.2220   -1.6960   -0.2760 O   0  0  0  0  0  0  0  0  0  0  0  0
  1  2  1  0
  2  3  1  0
  3  4  2  0
  3 11  1  0
  4  5  1  0
  4  8  1  0
  5  6  2  3
  6  7  1  0
  8  9  1  1
  8 11  1  0
  9 10  1  0
M  END
