
     RDKit          3D

 11 11  0  0  0  0  0  0  0  0999 V2000
   -3.2100   -0.7450    0.3310 C   0  0  0  0  0  0  0  0  0  0  0  0
   -2.1370   -1.0730   -0.6880 C   0  0  0  0  0  0  0  0  0  0  0  0
   -1.0130   -0.0560   -0.5290 C   0  0  0  0  0  0  0  0  0  0  0  0
    0.2490   -0.1660   -0.2420 C   0  0  0  0  0  0  0  0  0  0  0  0
    1.0880   -1.3330    0.0420 C   0  0  0  0  0  0  0  0  0  0  0  0
    2.3530   -1.2980    0.3110 C   0  0  0  0  0  0  0  0  0  0  0  0
    3.3370    0.1940    0.3880 P   0  0  0  0  0  0  0  0  0  0  0  0
    0.4340    1.2670   -0.2950 C   0  0  2  0  0  0  0  0  0  0  0  0
    0.6110    1.9320    0.9490 O   0  0  0  0  0  0  0  0  0  0  0  0
    1.3760    2.9850    0.7750 O   0  0  0  0  0  0  0  0  0  0  0  0
   -0.9220    1.2890   -0.6280 O   0  0  0  0  0  0  0  0  0  0  0  0
  1  2  1  0
  2  3  1  0
  3  4  2  0
  3 11  1  0
  4  5  1  0
  4  8  1  0
  5  6  2  3
  6  7  1  0
  8  9  1  1
  8 11  1  0
  9 10  1  0
M  END
