
     RDKit          3D

 23 24  0  0  0  0  0  0  0  0999 V2000
   -5.0970   -0.5020   -0.3100 O   0  0  0  0  0  0  0  0  0  0  0  0
   -4.4430   -0.7920    0.7590 C   0  0  0  0  0  0  0  0  0  0  0  0
   -2.9780   -0.9340    0.7240 C   0  0  0  0  0  0  0  0  0  0  0  0
   -2.3120   -0.4910   -0.5530 C   0  0  1  0  0  0  0  0  0  0  0  0
   -0.8560   -0.7790   -0.3390 C   0  0  0  0  0  0  0  0  0  0  0  0
   -0.5640   -1.9700   -0.1400 O   0  0  0  0  0  0  0  0  0  0  0  0
    0.0650    0.2220   -0.3640 O   0  0  0  0  0  0  0  0  0  0  0  0
    1.3870   -0.0430   -0.1530 O   0  0  0  0  0  0  0  0  0  0  0  0
    2.2860    1.0030   -0.1000 C   0  0  0  0  0  0  0  0  0  0  0  0
    1.8320    2.1590   -0.2640 O   0  0  0  0  0  0  0  0  0  0  0  0
    3.6670    0.7590    0.1320 N   0  0  0  0  0  0  0  0  0  0  0  0
    4.1140   -0.5890    0.3180 C   0  0  0  0  0  0  0  0  0  0  0  0
    5.5930   -0.7710    0.3150 C   0  0  0  0  0  0  0  0  0  0  0  0
    6.3150    0.3400   -0.1190 O   0  0  0  0  0  0  0  0  0  0  0  0
    5.9320    1.5220    0.5100 C   0  0  0  0  0  0  0  0  0  0  0  0
    4.5350    1.9220    0.1780 C   0  0  0  0  0  0  0  0  0  0  0  0
   -2.8360   -1.0930   -1.7940 C   0  0  0  0  0  0  0  0  0  0  0  0
   -3.5680   -0.0850   -2.4530 O   0  0  0  0  0  0  0  0  0  0  0  0
   -3.1540    1.0910   -1.8750 C   0  0  0  0  0  0  0  0  0  0  0  0
   -2.4190    0.8680   -0.7560 O   0  0  0  0  0  0  0  0  0  0  0  0
   -5.2100   -0.9550    1.9280 N   0  0  0  0  0  0  0  0  0  0  0  0
   -6.5480   -0.8120    1.8750 O   0  0  0  0  0  0  0  0  0  0  0  0
   -6.9200   -0.7990    0.6230 O   0  0  0  0  0  0  0  0  0  0  0  0
  1  2  2  0
  2  3  1  0
  2 21  1  0
  4  3  1  1
  4  5  1  0
  4 17  1  0
  4 20  1  0
  5  6  2  0
  5  7  1  0
  7  8  1  0
  8  9  1  0
  9 10  2  0
  9 11  1  0
 11 12  1  0
 11 16  1  0
 12 13  1  0
 13 14  1  0
 14 15  1  0
 15 16  1  0
 17 18  1  0
 18 19  1  0
 19 20  1  0
 21 22  1  0
 22 23  1  0
M  END
