
     RDKit          3D

 22 23  0  0  0  0  0  0  0  0999 V2000
    1.6940    1.6220    0.0600 N   0  0  0  0  0  0  0  0  0  0  0  0
    2.6010    0.5880   -0.2230 C   0  0  0  0  0  0  0  0  0  0  0  0
    3.9400    0.7150   -0.5170 C   0  0  0  0  0  0  0  0  0  0  0  0
    4.7050    1.9740   -0.5960 C   0  0  0  0  0  0  0  0  0  0  0  0
    4.1410    3.0710   -0.3860 O   0  0  0  0  0  0  0  0  0  0  0  0
    6.0540    1.9760   -0.9020 O   0  0  0  0  0  0  0  0  0  0  0  0
    4.4020   -0.5280   -0.7150 N   0  0  0  0  0  0  0  0  0  0  0  0
    3.3930   -1.3820   -0.5500 C   0  0  0  0  0  0  0  0  0  0  0  0
    2.2660   -0.7140   -0.2440 N   0  0  0  0  0  0  0  0  0  0  0  0
    1.0100   -1.3460   -0.0070 C   0  0  2  0  0  0  0  0  0  0  0  0
   -0.0870   -0.6250   -0.4140 O   0  0  0  0  0  0  0  0  0  0  0  0
   -1.1760   -1.2870    0.1000 C   0  0  2  0  0  0  0  0  0  0  0  0
   -2.3030   -0.3490    0.4690 C   0  0  0  0  0  0  0  0  0  0  0  0
   -2.6890    0.3180   -0.6650 O   0  0  0  0  0  0  0  0  0  0  0  0
   -3.8950    1.3470   -0.3640 P   0  0  0  0  0  0  0  0  0  0  0  0
   -3.9160    2.2210    1.0740 O   0  0  0  0  0  0  0  0  0  0  0  0
   -4.9910    1.7190   -1.5580 O   0  0  0  0  0  0  0  0  0  0  0  0
   -4.8150    0.3020    0.2500 O   0  0  0  0  0  0  0  0  0  0  0  0
   -0.7330   -1.9640    1.3840 C   0  0  1  0  0  0  0  0  0  0  0  0
   -0.6800   -3.3510    1.1830 O   0  0  0  0  0  0  0  0  0  0  0  0
    0.7150   -1.5000    1.4910 C   0  0  1  0  0  0  0  0  0  0  0  0
    1.5300   -2.4240    2.0920 O   0  0  0  0  0  0  0  0  0  0  0  0
  1  2  1  0
  2  3  2  0
  2  9  1  0
  3  4  1  0
  3  7  1  0
  4  5  2  0
  4  6  1  0
  7  8  2  0
  8  9  1  0
 10  9  1  1
 10 11  1  0
 10 21  1  0
 11 12  1  0
 12 13  1  1
 12 19  1  0
 13 14  1  0
 14 15  1  0
 15 16  1  0
 15 17  1  0
 15 18  1  0
 19 20  1  6
 19 21  1  0
 21 22  1  6
M  END
