
     RDKit          3D

 23 26  0  0  0  0  0  0  0  0999 V2000
   -5.9510    2.4400   -1.6120 C   0  0  0  0  0  0  0  0  0  0  0  0
   -4.8100    1.7880   -0.9010 C   0  0  0  0  0  0  0  0  0  0  0  0
   -4.8630    1.7070    0.4610 C   0  0  0  0  0  0  0  0  0  0  0  0
   -3.8380    1.1180    1.1550 C   0  0  0  0  0  0  0  0  0  0  0  0
   -2.7570    0.6080    0.4770 C   0  0  0  0  0  0  0  0  0  0  0  0
   -1.7030    0.0050    1.1440 C   0  0  0  0  0  0  0  0  0  0  0  0
   -0.6070   -0.5120    0.4680 C   0  0  0  0  0  0  0  0  0  0  0  0
    0.4270   -1.1070    1.1610 C   0  0  0  0  0  0  0  0  0  0  0  0
    1.4820   -1.5950    0.3800 C   0  0  0  0  0  0  0  0  0  0  0  0
    1.4820   -1.4850   -0.9890 C   0  0  0  0  0  0  0  0  0  0  0  0
    2.5510   -1.9750   -1.7800 N   0  0  0  0  0  0  0  0  0  0  0  0
    3.7210   -2.6040   -1.2030 C   0  0  0  0  0  0  0  0  0  0  0  0
    4.4550   -1.6420   -0.3420 C   0  0  0  0  0  0  0  0  0  0  0  0
    4.1630   -0.3250   -0.2410 N   0  0  0  0  0  0  0  0  0  0  0  0
    5.0390    0.2300    0.6320 C   0  0  0  0  0  0  0  0  0  0  0  0
    5.0930    1.6130    1.0370 N   0  0  0  0  0  0  0  0  0  0  0  0
    5.8420   -0.7570    1.0410 N   0  0  0  0  0  0  0  0  0  0  0  0
    5.4620   -1.8390    0.4440 O   0  0  0  0  0  0  0  0  0  0  0  0
    0.4390   -0.8940   -1.5890 N   0  0  0  0  0  0  0  0  0  0  0  0
   -0.6120   -0.4000   -0.9070 C   0  0  0  0  0  0  0  0  0  0  0  0
   -1.6450    0.1910   -1.5660 N   0  0  0  0  0  0  0  0  0  0  0  0
   -2.7100    0.6940   -0.9190 C   0  0  0  0  0  0  0  0  0  0  0  0
   -3.7480    1.2850   -1.5370 N   0  0  0  0  0  0  0  0  0  0  0  0
  1  2  1  0
  2  3  2  0
  2 23  1  0
  3  4  1  0
  4  5  2  0
  5  6  1  0
  5 22  1  0
  6  7  2  0
  7  8  1  0
  7 20  1  0
  8  9  2  0
  9 10  1  0
 10 11  1  0
 10 19  2  0
 11 12  1  0
 12 13  1  0
 13 14  2  0
 13 18  1  0
 14 15  1  0
 15 16  1  0
 15 17  2  0
 17 18  1  0
 19 20  1  0
 20 21  2  0
 21 22  1  0
 22 23  2  0
M  END
