
     RDKit          3D

 23 26  0  0  0  0  0  0  0  0999 V2000
    5.4300    2.6990   -0.1170 O   0  0  0  0  0  0  0  0  0  0  0  0
    5.2290    2.1440   -1.2140 N   0  0  0  0  0  0  0  0  0  0  0  0
    3.8990    1.9280   -1.5760 N   0  0  0  0  0  0  0  0  0  0  0  0
    3.0820    1.0370   -0.8670 C   0  0  0  0  0  0  0  0  0  0  0  0
    2.2970    1.3560    0.2100 C   0  0  0  0  0  0  0  0  0  0  0  0
    1.5040    0.4500    0.8860 C   0  0  0  0  0  0  0  0  0  0  0  0
    1.4920   -0.8820    0.4510 C   0  0  0  0  0  0  0  0  0  0  0  0
    0.6780   -1.8930    1.1170 C   0  0  0  0  0  0  0  0  0  0  0  0
    1.0980   -3.0050    1.7670 N   0  0  0  0  0  0  0  0  0  0  0  0
    0.0640   -3.6810    2.2430 N   0  0  0  0  0  0  0  0  0  0  0  0
   -1.0620   -2.9920    1.8940 C   0  0  0  0  0  0  0  0  0  0  0  0
   -0.6990   -1.8640    1.1850 C   0  0  0  0  0  0  0  0  0  0  0  0
   -1.5330   -0.8180    0.6010 C   0  0  0  0  0  0  0  0  0  0  0  0
   -2.3190   -0.0780    1.4380 C   0  0  0  0  0  0  0  0  0  0  0  0
   -3.1150    0.9100    0.9320 C   0  0  0  0  0  0  0  0  0  0  0  0
   -3.1350    1.1680   -0.4020 C   0  0  0  0  0  0  0  0  0  0  0  0
   -3.8170    2.0690   -1.1390 N   0  0  0  0  0  0  0  0  0  0  0  0
   -3.4790    1.9120   -2.4050 N   0  0  0  0  0  0  0  0  0  0  0  0
   -2.5810    0.9240   -2.5500 C   0  0  0  0  0  0  0  0  0  0  0  0
   -2.3480    0.4330   -1.2630 C   0  0  0  0  0  0  0  0  0  0  0  0
   -1.5480   -0.5630   -0.7450 C   0  0  0  0  0  0  0  0  0  0  0  0
    2.2960   -1.1550   -0.6350 C   0  0  0  0  0  0  0  0  0  0  0  0
    3.0580   -0.2560   -1.2740 N   0  0  0  0  0  0  0  0  0  0  0  0
  1  2  2  0
  2  3  1  0
  3  4  1  0
  4  5  2  0
  4 23  1  0
  5  6  1  0
  6  7  2  0
  7  8  1  0
  7 22  1  0
  8  9  1  0
  8 12  2  0
  9 10  1  0
 10 11  2  0
 11 12  1  0
 12 13  1  0
 13 14  2  0
 13 21  1  0
 14 15  1  0
 15 16  2  0
 16 17  1  0
 16 20  1  0
 17 18  1  0
 18 19  2  0
 19 20  1  0
 20 21  2  0
 22 23  2  0
M  END
