
     RDKit          3D

 23 26  0  0  0  0  0  0  0  0999 V2000
   -5.0690    0.0290    1.1100 C   0  0  0  0  0  0  0  0  0  0  0  0
   -3.8170    0.7830    1.2160 N   0  0  0  0  0  0  0  0  0  0  0  0
   -3.5970    1.8680    1.9330 C   0  0  0  0  0  0  0  0  0  0  0  0
   -2.2950    2.2890    1.7960 C   0  0  0  0  0  0  0  0  0  0  0  0
   -1.6860    1.3920    0.9330 C   0  0  0  0  0  0  0  0  0  0  0  0
   -0.4050    1.2750    0.4230 C   0  0  0  0  0  0  0  0  0  0  0  0
   -0.1050    0.2200   -0.4370 C   0  0  0  0  0  0  0  0  0  0  0  0
    1.2070    0.1140   -0.9330 C   0  0  0  0  0  0  0  0  0  0  0  0
    2.0090    0.9880   -0.5570 N   0  0  0  0  0  0  0  0  0  0  0  0
    3.3150    1.2610   -0.7740 N   0  0  0  0  0  0  0  0  0  0  0  0
    4.2920    0.7700    0.1710 C   0  0  0  0  0  0  0  0  0  0  0  0
    5.3850    1.3760    0.7220 C   0  0  0  0  0  0  0  0  0  0  0  0
    5.9550    0.4520    1.5550 C   0  0  0  0  0  0  0  0  0  0  0  0
    5.1950   -0.6580    1.4750 N   0  0  0  0  0  0  0  0  0  0  0  0
    4.1890   -0.4890    0.6480 N   0  0  0  0  0  0  0  0  0  0  0  0
    1.4330   -0.9220   -1.7420 N   0  0  0  0  0  0  0  0  0  0  0  0
    0.4930   -1.8200   -2.0800 C   0  0  0  0  0  0  0  0  0  0  0  0
    0.7400   -2.7940   -2.8530 O   0  0  0  0  0  0  0  0  0  0  0  0
   -0.7800   -1.7400   -1.6150 N   0  0  0  0  0  0  0  0  0  0  0  0
   -1.7500   -2.7200   -1.9880 C   0  0  0  0  0  0  0  0  0  0  0  0
   -1.0490   -0.7130   -0.7980 C   0  0  0  0  0  0  0  0  0  0  0  0
   -2.3130   -0.5570   -0.2670 C   0  0  0  0  0  0  0  0  0  0  0  0
   -2.6610    0.4750    0.5960 C   0  0  0  0  0  0  0  0  0  0  0  0
  1  2  1  0
  2  3  1  0
  2 23  1  0
  3  4  2  0
  4  5  1  0
  5  6  2  0
  5 23  1  0
  6  7  1  0
  7  8  1  0
  7 21  2  0
  8  9  2  3
  8 16  1  0
  9 10  1  0
 10 11  1  0
 11 12  2  0
 11 15  1  0
 12 13  1  0
 13 14  2  0
 14 15  1  0
 16 17  1  0
 17 18  2  0
 17 19  1  0
 19 20  1  0
 19 21  1  0
 21 22  1  0
 22 23  2  0
M  END
