
     RDKit          3D

 23 26  0  0  0  0  0  0  0  0999 V2000
    6.3190    0.8450   -1.1480 N   0  0  0  0  0  0  0  0  0  0  0  0
    5.2030    0.4480   -0.3370 C   0  0  0  0  0  0  0  0  0  0  0  0
    5.4890   -0.0480    0.9050 C   0  0  0  0  0  0  0  0  0  0  0  0
    4.4730   -0.4470    1.7360 C   0  0  0  0  0  0  0  0  0  0  0  0
    3.1700   -0.3240    1.2620 C   0  0  0  0  0  0  0  0  0  0  0  0
    2.8570    0.1680    0.0260 C   0  0  0  0  0  0  0  0  0  0  0  0
    1.5190    0.3160   -0.5130 C   0  0  0  0  0  0  0  0  0  0  0  0
    1.3580    0.8170   -1.7500 N   0  0  0  0  0  0  0  0  0  0  0  0
    0.1600    0.9620   -2.2630 N   0  0  0  0  0  0  0  0  0  0  0  0
   -0.9220    0.6250   -1.5890 N   0  0  0  0  0  0  0  0  0  0  0  0
   -0.8000    0.1250   -0.3590 C   0  0  0  0  0  0  0  0  0  0  0  0
   -1.7670   -0.2940    0.5260 C   0  0  0  0  0  0  0  0  0  0  0  0
   -3.1990   -0.2720    0.2800 C   0  0  0  0  0  0  0  0  0  0  0  0
   -3.9960   -1.3690    0.6070 C   0  0  0  0  0  0  0  0  0  0  0  0
   -5.3530   -1.3610    0.3790 C   0  0  0  0  0  0  0  0  0  0  0  0
   -5.9450   -0.2490   -0.1840 C   0  0  0  0  0  0  0  0  0  0  0  0
   -7.3130   -0.2000   -0.4310 O   0  0  0  0  0  0  0  0  0  0  0  0
   -5.1880    0.8660   -0.5250 C   0  0  0  0  0  0  0  0  0  0  0  0
   -3.8360    0.8170   -0.2810 C   0  0  0  0  0  0  0  0  0  0  0  0
   -1.0870   -0.7020    1.6070 N   0  0  0  0  0  0  0  0  0  0  0  0
    0.1990   -0.5360    1.3780 N   0  0  0  0  0  0  0  0  0  0  0  0
    0.4450   -0.0330    0.1900 N   0  0  0  0  0  0  0  0  0  0  0  0
    3.9310    0.5630   -0.7860 C   0  0  0  0  0  0  0  0  0  0  0  0
  1  2  1  0
  2  3  2  0
  2 23  1  0
  3  4  1  0
  4  5  2  0
  5  6  1  0
  6  7  1  0
  6 23  2  0
  7  8  2  0
  7 22  1  0
  8  9  1  0
  9 10  2  0
 10 11  1  0
 11 12  2  0
 11 22  1  0
 12 13  1  0
 12 20  1  0
 13 14  2  0
 13 19  1  0
 14 15  1  0
 15 16  2  0
 16 17  1  0
 16 18  1  0
 18 19  2  0
 20 21  2  0
 21 22  1  0
M  END
