
     RDKit          3D

 39 43  0  0  0  0  0  0  0  0999 V2000
    8.5500    2.9640   -2.8860 C   0  0  0  0  0  0  0  0  0  0  0  0
    9.5820    2.2180   -2.1020 C   0  0  0  0  0  0  0  0  0  0  0  0
    9.3600    1.3220   -1.1370 N   0  0  0  0  0  0  0  0  0  0  0  0
   10.5170    0.8540   -0.6550 C   0  0  0  0  0  0  0  0  0  0  0  0
   10.7500   -0.1260    0.3960 C   0  0  0  0  0  0  0  0  0  0  0  0
    9.8120   -0.7270    1.0660 C   0  0  0  0  0  0  0  0  0  0  0  0
    8.3950   -0.5340    0.8910 C   0  0  0  0  0  0  0  0  0  0  0  0
    7.5330   -1.2070    1.6420 C   0  0  0  0  0  0  0  0  0  0  0  0
    6.0980   -1.0550    1.5120 C   0  0  0  0  0  0  0  0  0  0  0  0
    5.5030   -0.2170    0.5980 C   0  0  0  0  0  0  0  0  0  0  0  0
    4.1160   -0.0850    0.4940 C   0  0  0  0  0  0  0  0  0  0  0  0
    3.3320   -0.8330    1.3500 C   0  0  0  0  0  0  0  0  0  0  0  0
    1.9610   -0.7050    1.2490 O   0  0  0  0  0  0  0  0  0  0  0  0
    1.2320   -1.5740    0.4360 C   0  0  0  0  0  0  0  0  0  0  0  0
    1.8870   -2.6030   -0.1980 C   0  0  0  0  0  0  0  0  0  0  0  0
    1.1160   -3.4340   -0.9920 C   0  0  0  0  0  0  0  0  0  0  0  0
   -0.2340   -3.2320   -1.1340 C   0  0  0  0  0  0  0  0  0  0  0  0
   -0.9150   -2.1850   -0.4950 C   0  0  0  0  0  0  0  0  0  0  0  0
   -2.3130   -2.0690   -0.6940 N   0  0  0  0  0  0  0  0  0  0  0  0
   -3.0900   -0.8960   -0.5060 C   0  0  0  0  0  0  0  0  0  0  0  0
   -2.4510    0.1140   -0.1370 O   0  0  0  0  0  0  0  0  0  0  0  0
   -4.5230   -0.8790   -0.7300 C   0  0  0  0  0  0  0  0  0  0  0  0
   -5.1620   -2.0630   -1.0370 C   0  0  0  0  0  0  0  0  0  0  0  0
   -6.5570   -2.0920   -1.2180 C   0  0  0  0  0  0  0  0  0  0  0  0
   -7.2730   -0.9270   -1.0840 C   0  0  0  0  0  0  0  0  0  0  0  0
   -6.6720    0.2750   -0.7780 C   0  0  0  0  0  0  0  0  0  0  0  0
   -5.2790    0.2740   -0.6050 C   0  0  0  0  0  0  0  0  0  0  0  0
   -4.6640    1.5310   -0.3390 N   0  0  0  0  0  0  0  0  0  0  0  0
   -5.5250    2.6290    0.1510 C   0  0  0  0  0  0  0  0  0  0  0  0
   -6.6520    2.6880   -0.8650 C   0  0  0  0  0  0  0  0  0  0  0  0
   -7.5080    1.4870   -0.6320 C   0  0  2  0  0  0  0  0  0  0  0  0
   -8.1070    1.4460    0.6770 N   0  0  2  0  0  0  0  0  0  0  0  0
   -9.3340    0.6780    0.5800 C   0  0  0  0  0  0  0  0  0  0  0  0
   -8.4140    2.6940    1.2750 C   0  0  0  0  0  0  0  0  0  0  0  0
   -0.1470   -1.3650    0.2920 C   0  0  0  0  0  0  0  0  0  0  0  0
    3.9350   -1.6640    2.2560 C   0  0  0  0  0  0  0  0  0  0  0  0
    5.2850   -1.8010    2.3670 C   0  0  0  0  0  0  0  0  0  0  0  0
   11.4620    1.5080   -1.3760 N   0  0  0  0  0  0  0  0  0  0  0  0
   10.8930    2.2930   -2.2080 O   0  0  0  0  0  0  0  0  0  0  0  0
  1  2  1  0
  2  3  2  0
  2 39  1  0
  3  4  1  0
  4  5  1  0
  4 38  2  0
  5  6  2  3
  6  7  1  0
  7  8  2  3
  8  9  1  0
  9 10  2  0
  9 37  1  0
 10 11  1  0
 11 12  2  0
 12 13  1  0
 12 36  1  0
 13 14  1  0
 14 15  2  0
 14 35  1  0
 15 16  1  0
 16 17  2  0
 17 18  1  0
 18 19  1  0
 18 35  2  0
 19 20  1  0
 20 21  2  0
 20 22  1  0
 22 23  2  0
 22 27  1  0
 23 24  1  0
 24 25  2  0
 25 26  1  0
 26 27  2  0
 26 31  1  0
 27 28  1  0
 28 29  1  0
 29 30  1  0
 31 30  1  1
 31 32  1  0
 32 33  1  6
 32 34  1  0
 36 37  2  0
 38 39  1  0
M  CHG  1  32   1
M  END
