
     RDKit          3D

 39 42  0  0  0  0  0  0  0  0999 V2000
   -4.4720   -0.5480   -3.5380 C   0  0  0  0  0  0  0  0  0  0  0  0
   -4.4320   -0.4620   -2.0180 C   0  0  0  0  0  0  0  0  0  0  0  0
   -3.1600   -0.9690   -1.5040 C   0  0  0  0  0  0  0  0  0  0  0  0
   -2.2100   -1.2380   -2.3290 O   0  0  0  0  0  0  0  0  0  0  0  0
   -2.9020   -1.1670   -0.1240 N   0  0  0  0  0  0  0  0  0  0  0  0
   -1.5330   -1.0820    0.3840 N   0  0  0  0  0  0  0  0  0  0  0  0
   -1.3730    0.3590    0.7760 C   0  0  2  0  0  0  0  0  0  0  0  0
   -0.0390    0.8190    0.7040 C   0  0  0  0  0  0  0  0  0  0  0  0
    0.6170    0.9080    1.8770 O   0  0  0  0  0  0  0  0  0  0  0  0
    0.9160    1.2580   -0.2800 N   0  0  0  0  0  0  0  0  0  0  0  0
    1.2280    2.4950   -0.7130 C   0  0  0  0  0  0  0  0  0  0  0  0
    0.8380    3.4690   -1.6760 C   0  0  0  0  0  0  0  0  0  0  0  0
    0.2870    3.2560   -2.7540 O   0  0  0  0  0  0  0  0  0  0  0  0
    1.1290    4.9310   -1.3580 C   0  0  0  0  0  0  0  0  0  0  0  0
    1.7880    5.3880   -0.2270 C   0  0  0  0  0  0  0  0  0  0  0  0
    1.8490    6.7610   -0.2450 C   0  0  0  0  0  0  0  0  0  0  0  0
    1.2040    7.1310   -1.4170 C   0  0  0  0  0  0  0  0  0  0  0  0
    0.7980    5.9910   -2.0400 N   0  0  0  0  0  0  0  0  0  0  0  0
    1.9640    0.2230   -0.4070 C   0  0  0  0  0  0  0  0  0  0  0  0
    2.9540    0.4430    0.5600 C   0  0  0  0  0  0  0  0  0  0  0  0
    4.0290   -0.3810    0.6910 C   0  0  0  0  0  0  0  0  0  0  0  0
    4.1530   -1.4570   -0.1540 C   0  0  0  0  0  0  0  0  0  0  0  0
    5.3310   -2.3270   -0.1040 C   0  0  1  0  0  0  0  0  0  0  0  0
    5.0380   -3.7470    0.1300 C   0  0  0  0  0  0  0  0  0  0  0  0
    6.0480   -2.2180   -1.4890 C   0  0  0  0  0  0  0  0  0  0  0  0
    6.3450   -1.8560    0.8900 C   0  0  0  0  0  0  0  0  0  0  0  0
    3.1660   -1.7140   -1.1520 C   0  0  0  0  0  0  0  0  0  0  0  0
    3.2410   -2.8100   -2.1180 C   0  0  0  0  0  0  0  0  0  0  0  0
    2.0630   -0.8000   -1.2180 C   0  0  0  0  0  0  0  0  0  0  0  0
   -1.8810    0.3660    2.2200 C   0  0  0  0  0  0  0  0  0  0  0  0
   -0.9990    0.9250    3.3210 C   0  0  0  0  0  0  0  0  0  0  0  0
   -3.0090   -0.1350    2.6750 C   0  0  0  0  0  0  0  0  0  0  0  0
   -4.1010   -0.8250    1.9950 C   0  0  0  0  0  0  0  0  0  0  0  0
   -5.1890   -0.9730    2.7150 N   0  0  0  0  0  0  0  0  0  0  0  0
   -6.2840   -1.6040    2.2040 C   0  0  0  0  0  0  0  0  0  0  0  0
   -7.4350   -1.7140    3.1010 C   0  0  0  0  0  0  0  0  0  0  0  0
   -6.2490   -2.1010    0.9240 C   0  0  0  0  0  0  0  0  0  0  0  0
   -5.1080   -1.9590    0.1700 C   0  0  0  0  0  0  0  0  0  0  0  0
   -4.0540   -1.3180    0.7110 C   0  0  0  0  0  0  0  0  0  0  0  0
  1  2  1  0
  2  3  1  0
  3  4  2  0
  3  5  1  0
  5  6  1  0
  5 39  1  0
  6  7  1  0
  7  8  1  1
  7 30  1  0
  8  9  2  0
  8 10  1  0
 10 11  1  0
 10 19  1  0
 11 12  1  0
 12 13  2  0
 12 14  1  0
 14 15  2  0
 14 18  1  0
 15 16  1  0
 16 17  2  0
 17 18  1  0
 19 20  2  0
 19 29  1  0
 20 21  1  0
 21 22  2  0
 22 23  1  0
 22 27  1  0
 23 24  1  1
 23 25  1  0
 23 26  1  0
 27 28  1  0
 27 29  2  0
 30 31  1  0
 30 32  2  0
 32 33  1  0
 33 34  2  0
 33 39  1  0
 34 35  1  0
 35 36  1  0
 35 37  2  0
 37 38  1  0
 38 39  2  0
M  CHG  1  34   1
M  END
