
     RDKit          3D

 38 42  0  0  0  0  0  0  0  0999 V2000
    8.3690    1.9450    0.0130 C   0  0  0  0  0  0  0  0  0  0  0  0
    7.4000    2.1850    1.1780 C   0  0  0  0  0  0  0  0  0  0  0  0
    6.1160    2.4770    0.5740 N   0  0  0  0  0  0  0  0  0  0  0  0
    5.7600    3.6420   -0.1980 C   0  0  0  0  0  0  0  0  0  0  0  0
    4.8010    3.0270   -1.2100 C   0  0  0  0  0  0  0  0  0  0  0  0
    4.1430    1.9680   -0.4330 N   0  0  0  0  0  0  0  0  0  0  0  0
    4.9420    1.6640    0.6220 C   0  0  0  0  0  0  0  0  0  0  0  0
    4.3070    0.6610    1.3590 C   0  0  0  0  0  0  0  0  0  0  0  0
    3.1540    0.4140    0.7040 N   0  0  0  0  0  0  0  0  0  0  0  0
    3.0480    1.1970   -0.3770 C   0  0  0  0  0  0  0  0  0  0  0  0
    2.0840    1.2080   -1.2070 N   0  0  0  0  0  0  0  0  0  0  0  0
    0.9210    0.4460   -1.2200 C   0  0  0  0  0  0  0  0  0  0  0  0
   -0.1660    1.0270   -1.1230 O   0  0  0  0  0  0  0  0  0  0  0  0
    0.9690   -1.0030   -1.3410 C   0  0  0  0  0  0  0  0  0  0  0  0
    2.2120   -1.5920   -1.6100 C   0  0  0  0  0  0  0  0  0  0  0  0
    2.3120   -2.9420   -1.7490 C   0  0  0  0  0  0  0  0  0  0  0  0
    3.6520   -3.5490   -2.0380 C   0  0  0  0  0  0  0  0  0  0  0  0
    1.1870   -3.7320   -1.6260 C   0  0  0  0  0  0  0  0  0  0  0  0
   -0.0310   -3.1630   -1.3630 C   0  0  0  0  0  0  0  0  0  0  0  0
   -0.1680   -1.7630   -1.2120 C   0  0  0  0  0  0  0  0  0  0  0  0
   -1.4900   -1.2290   -0.9210 C   0  0  0  0  0  0  0  0  0  0  0  0
   -1.7830   -0.8580    0.4940 C   0  0  0  0  0  0  0  0  0  0  0  0
   -3.1520   -0.3270    0.5120 N   0  0  0  0  0  0  0  0  0  0  0  0
   -3.3510    0.6410    1.5460 C   0  0  0  0  0  0  0  0  0  0  0  0
   -4.6010    1.3870    1.2940 C   0  0  0  0  0  0  0  0  0  0  0  0
   -5.4210    1.1400    0.2290 C   0  0  0  0  0  0  0  0  0  0  0  0
   -6.6020    1.8630    0.0130 C   0  0  0  0  0  0  0  0  0  0  0  0
   -7.4240    1.6020   -1.0710 O   0  0  0  0  0  0  0  0  0  0  0  0
   -6.9560    2.8560    0.8970 C   0  0  0  0  0  0  0  0  0  0  0  0
   -8.2220    3.6200    0.6460 C   0  0  0  0  0  0  0  0  0  0  0  0
   -6.1430    3.1060    1.9590 C   0  0  0  0  0  0  0  0  0  0  0  0
   -4.9720    2.3860    2.1690 C   0  0  0  0  0  0  0  0  0  0  0  0
   -4.1480    2.6430    3.2510 O   0  0  0  0  0  0  0  0  0  0  0  0
   -4.5270    3.6670    4.1480 C   0  0  0  0  0  0  0  0  0  0  0  0
   -1.2470   -4.0060   -1.2370 C   0  0  0  0  0  0  0  0  0  0  0  0
   -0.9740   -5.4640   -1.3390 C   0  0  0  0  0  0  0  0  0  0  0  0
    0.3710   -5.9270   -0.8810 C   0  0  0  0  0  0  0  0  0  0  0  0
    1.3800   -5.2220   -1.7730 C   0  0  0  0  0  0  0  0  0  0  0  0
  1  2  1  0
  2  3  1  0
  3  4  1  0
  3  7  1  0
  4  5  1  0
  5  6  1  0
  6  7  1  0
  6 10  1  0
  7  8  2  0
  8  9  1  0
  9 10  1  0
 10 11  2  3
 11 12  1  0
 12 13  2  0
 12 14  1  0
 14 15  2  0
 14 20  1  0
 15 16  1  0
 16 17  1  0
 16 18  2  0
 18 19  1  0
 18 38  1  0
 19 20  2  0
 19 35  1  0
 20 21  1  0
 21 22  1  0
 22 23  1  0
 23 24  1  0
 24 25  1  0
 25 26  2  0
 25 32  1  0
 26 27  1  0
 27 28  1  0
 27 29  2  0
 29 30  1  0
 29 31  1  0
 31 32  2  0
 32 33  1  0
 33 34  1  0
 35 36  1  0
 36 37  1  0
 37 38  1  0
M  CHG  1  23   1
M  END
