
     RDKit          3D

 19 20  0  0  0  0  0  0  0  0999 V2000
    7.0830   -0.1830   -0.2920 C   0  0  0  0  0  0  0  0  0  0  0  0
    5.7060   -0.2000    0.0360 O   0  0  0  0  0  0  0  0  0  0  0  0
    5.0920    0.7370    0.8370 C   0  0  0  0  0  0  0  0  0  0  0  0
    5.8950    1.6510    1.2710 O   0  0  0  0  0  0  0  0  0  0  0  0
    3.7150    0.8050    1.2260 C   0  0  0  0  0  0  0  0  0  0  0  0
    2.7710   -0.0280    0.8700 C   0  0  0  0  0  0  0  0  0  0  0  0
    2.9680   -1.2180   -0.0140 C   0  0  0  0  0  0  0  0  0  0  0  0
    1.7650   -0.3590   -1.2180 S   0  0  0  0  0  0  0  0  0  0  0  0
    0.6530    0.0580    0.1230 C   0  0  0  0  0  0  0  0  0  0  0  0
   -0.7120    0.2160    0.3790 N   0  0  0  0  0  0  0  0  0  0  0  0
   -1.5900    0.4340   -0.6720 C   0  0  0  0  0  0  0  0  0  0  0  0
   -1.0170    0.5240   -1.7860 O   0  0  0  0  0  0  0  0  0  0  0  0
   -2.9910    0.5400   -0.4600 C   0  0  0  0  0  0  0  0  0  0  0  0
   -3.6580    0.4630    0.6630 C   0  0  0  0  0  0  0  0  0  0  0  0
   -5.1250    0.6090    0.5980 C   0  0  0  0  0  0  0  0  0  0  0  0
   -5.8050   -0.4570   -0.2360 C   0  0  0  0  0  0  0  0  0  0  0  0
   -5.3950   -0.3970   -1.6920 C   0  0  0  0  0  0  0  0  0  0  0  0
   -4.0370    0.8040   -1.9220 S   0  0  0  0  0  0  0  0  0  0  0  0
    1.3960    0.1650    1.1130 N   0  0  0  0  0  0  0  0  0  0  0  0
  1  2  1  0
  2  3  1  0
  3  4  2  0
  3  5  1  0
  5  6  2  3
  6  7  1  0
  6 19  1  0
  7  8  1  0
  8  9  1  0
  9 10  1  0
  9 19  2  0
 10 11  1  0
 11 12  2  0
 11 13  1  0
 13 14  2  0
 13 18  1  0
 14 15  1  0
 15 16  1  0
 16 17  1  0
 17 18  1  0
M  END
