
     RDKit          3D

 19 21  0  0  0  0  0  0  0  0999 V2000
    3.4830    0.3340    0.0100 C   0  0  0  0  0  0  0  0  0  0  0  0
    2.7130   -0.0840    1.2100 C   0  0  0  0  0  0  0  0  0  0  0  0
    1.5510   -0.9500    0.8350 C   0  0  0  0  0  0  0  0  0  0  0  0
    1.5580   -2.6780    0.9180 S   0  0  0  0  0  0  0  0  0  0  0  0
   -0.1270   -2.9150    0.2830 C   0  0  0  0  0  0  0  0  0  0  0  0
   -0.5480   -1.6130    0.0620 C   0  0  0  0  0  0  0  0  0  0  0  0
    0.3180   -0.6290    0.3480 C   0  0  0  0  0  0  0  0  0  0  0  0
   -0.1290    0.6960    0.1260 C   0  0  0  0  0  0  0  0  0  0  0  0
    0.6410    1.7130    0.3770 O   0  0  0  0  0  0  0  0  0  0  0  0
    0.3020    2.9690    0.2000 C   0  0  0  0  0  0  0  0  0  0  0  0
    1.3560    4.1790    0.5510 S   0  0  0  0  0  0  0  0  0  0  0  0
   -0.9160    3.2600   -0.2720 N   0  0  0  0  0  0  0  0  0  0  0  0
   -1.7860    2.2820   -0.5630 C   0  0  0  0  0  0  0  0  0  0  0  0
   -2.9100    2.5540   -1.0000 O   0  0  0  0  0  0  0  0  0  0  0  0
   -1.3850    0.9730   -0.3600 C   0  0  0  0  0  0  0  0  0  0  0  0
   -2.2390   -0.0760   -0.6400 C   0  0  0  0  0  0  0  0  0  0  0  0
   -3.3950    0.1590   -1.0880 O   0  0  0  0  0  0  0  0  0  0  0  0
   -1.8060   -1.3280   -0.4250 N   0  0  0  0  0  0  0  0  0  0  0  0
   -2.7190   -2.4080   -0.7230 C   0  0  0  0  0  0  0  0  0  0  0  0
  1  2  1  0
  2  3  1  0
  3  4  1  0
  3  7  2  0
  4  5  1  0
  5  6  2  0
  6  7  1  0
  6 18  1  0
  7  8  1  0
  8  9  1  0
  8 15  2  0
  9 10  1  0
 10 11  2  0
 10 12  1  0
 12 13  1  0
 13 14  2  0
 13 15  1  0
 15 16  1  0
 16 17  2  0
 16 18  1  0
 18 19  1  0
M  END
