
     RDKit          3D

 23 25  0  0  0  0  0  0  0  0999 V2000
   -0.8290    4.3850   -0.2510 C   0  0  0  0  0  0  0  0  0  0  0  0
   -1.2170    3.0300   -0.0670 O   0  0  0  0  0  0  0  0  0  0  0  0
   -0.2430    2.0060   -0.1580 C   0  0  0  0  0  0  0  0  0  0  0  0
    0.8710    2.3900   -0.3930 O   0  0  0  0  0  0  0  0  0  0  0  0
   -0.6370    0.6610    0.0260 N   0  0  0  0  0  0  0  0  0  0  0  0
    0.0830   -0.4590    0.0030 C   0  0  0  0  0  0  0  0  0  0  0  0
    1.3590   -0.6780   -0.1640 C   0  0  0  0  0  0  0  0  0  0  0  0
    2.5330    0.1460   -0.3910 C   0  0  2  0  0  0  0  0  0  0  0  0
    2.6030    0.5310   -1.7430 O   0  0  0  0  0  0  0  0  0  0  0  0
    4.1120   -0.9410   -0.2170 P   0  0  0  0  0  0  0  0  0  0  0  0
    4.6490   -0.8390    1.4330 O   0  0  0  0  0  0  0  0  0  0  0  0
    5.3620   -0.2660   -1.2140 O   0  0  0  0  0  0  0  0  0  0  0  0
   -0.8070   -1.5360    0.2350 C   0  0  0  0  0  0  0  0  0  0  0  0
   -2.0300   -0.9980    0.3710 N   0  0  0  0  0  0  0  0  0  0  0  0
   -1.9580    0.3330    0.2590 C   0  0  0  0  0  0  0  0  0  0  0  0
   -2.9000    1.1380    0.3470 O   0  0  0  0  0  0  0  0  0  0  0  0
   -2.9810   -2.0410    0.3310 C   0  0  2  0  0  0  0  0  0  0  0  0
   -4.1990   -2.1620    0.9860 C   0  0  0  0  0  0  0  0  0  0  0  0
   -5.1530   -1.3540    1.1140 O   0  0  0  0  0  0  0  0  0  0  0  0
   -4.1810   -3.4920    1.5430 O   0  0  0  0  0  0  0  0  0  0  0  0
   -2.9260   -4.0500    1.3150 N   0  0  0  0  0  0  0  0  0  0  0  0
   -2.1780   -3.2290    0.6480 C   0  0  0  0  0  0  0  0  0  0  0  0
   -0.8660   -2.8550    0.2170 N   0  0  0  0  0  0  0  0  0  0  0  0
  1  2  1  0
  2  3  1  0
  3  4  2  0
  3  5  1  0
  5  6  1  0
  5 15  1  0
  6  7  2  3
  6 13  1  0
  7  8  1  0
  8  9  1  6
  8 10  1  0
 10 11  1  0
 10 12  1  0
 13 14  1  0
 13 23  2  0
 14 15  1  0
 17 14  1  1
 15 16  2  0
 17 18  1  0
 17 22  1  0
 18 19  2  0
 18 20  1  0
 20 21  1  0
 21 22  2  0
 22 23  1  0
M  END
