
     RDKit          3D

 22 23  0  0  0  0  0  0  0  0999 V2000
    0.9130   -1.2030   -0.0090 O   0  0  0  0  0  0  0  0  0  0  0  0
    1.9150   -0.3790   -0.1650 C   0  0  0  0  0  0  0  0  0  0  0  0
    3.1090   -0.7680    0.4570 C   0  0  0  0  0  0  0  0  0  0  0  0
    4.2950   -0.2470    0.5430 C   0  0  0  0  0  0  0  0  0  0  0  0
    5.2870   -0.9770    1.2970 O   0  0  0  0  0  0  0  0  0  0  0  0
    6.5670   -0.5120    0.8930 C   0  0  0  0  0  0  0  0  0  0  0  0
    6.3440    0.8640    0.5700 N   0  0  0  0  0  0  0  0  0  0  0  0
    4.9880    0.9150    0.0930 C   0  0  0  0  0  0  0  0  0  0  0  0
    4.5750    1.8600   -0.5930 O   0  0  0  0  0  0  0  0  0  0  0  0
    1.6050    0.7350   -0.9230 N   0  0  0  0  0  0  0  0  0  0  0  0
    0.3170    0.9970   -1.4730 C   0  0  0  0  0  0  0  0  0  0  0  0
   -0.8210    1.2600   -0.5410 C   0  0  2  0  0  0  0  0  0  0  0  0
   -1.1200    0.2400    0.3120 N   0  0  0  0  0  0  0  0  0  0  0  0
   -2.2000   -0.5580   -0.1230 C   0  0  1  0  0  0  0  0  0  0  0  0
   -3.2900   -0.4360    0.8230 N   0  0  0  0  0  0  0  0  0  0  0  0
   -4.4080   -1.2290    0.4180 C   0  0  0  0  0  0  0  0  0  0  0  0
   -5.7620   -1.0260    1.6700 P   0  0  0  0  0  0  0  0  0  0  0  0
   -7.1040   -2.0260    1.2590 O   0  0  0  0  0  0  0  0  0  0  0  0
   -6.2230    0.6580    1.6600 O   0  0  0  0  0  0  0  0  0  0  0  0
   -2.5190   -0.0080   -1.3890 O   0  0  0  0  0  0  0  0  0  0  0  0
   -2.0530    1.3220   -1.4190 C   0  0  0  0  0  0  0  0  0  0  0  0
   -2.5210    2.3060   -2.0110 O   0  0  0  0  0  0  0  0  0  0  0  0
  1  2  2  0
  2  3  1  0
  2 10  1  0
  3  4  2  3
  4  5  1  0
  4  8  1  0
  5  6  1  0
  6  7  1  0
  7  8  1  0
  8  9  2  0
 10 11  1  0
 12 11  1  6
 12 13  1  0
 12 21  1  0
 13 14  1  0
 14 15  1  1
 14 20  1  0
 15 16  1  0
 16 17  1  0
 17 18  1  0
 17 19  1  0
 20 21  1  0
 21 22  2  0
M  END
