
     RDKit          3D

 22 23  0  0  0  0  0  0  0  0999 V2000
    5.0190   -3.1830   -0.3830 N   0  0  0  0  0  0  0  0  0  0  0  0
    5.3640   -1.9430    0.0410 O   0  0  0  0  0  0  0  0  0  0  0  0
    4.8760   -0.7720   -1.1330 P   0  0  0  0  0  0  0  0  0  0  0  0
    5.6920    0.7380   -0.8910 O   0  0  0  0  0  0  0  0  0  0  0  0
    6.4530    0.7320    0.2290 N   0  0  0  0  0  0  0  0  0  0  0  0
    3.1290   -0.5820   -1.0130 O   0  0  0  0  0  0  0  0  0  0  0  0
    2.5530    0.5780   -0.5130 C   0  0  0  0  0  0  0  0  0  0  0  0
    3.3200    1.5230   -0.1330 O   0  0  0  0  0  0  0  0  0  0  0  0
    1.1500    0.7420   -0.4120 N   0  0  0  0  0  0  0  0  0  0  0  0
    0.5830    1.9520    0.1100 C   0  0  1  0  0  0  0  0  0  0  0  0
   -0.4120    2.4890   -0.8880 C   0  0  0  0  0  0  0  0  0  0  0  0
   -1.6000    1.5370   -0.6940 C   0  0  0  0  0  0  0  0  0  0  0  0
   -1.3570    0.8490    0.5530 N   0  0  0  0  0  0  0  0  0  0  0  0
   -1.9750   -0.3260    0.9980 C   0  0  0  0  0  0  0  0  0  0  0  0
   -1.6560   -0.8100    2.1190 O   0  0  0  0  0  0  0  0  0  0  0  0
   -2.9810   -1.0010    0.1860 C   0  0  2  0  0  0  0  0  0  0  0  0
   -4.3020   -0.2710    0.0750 C   0  0  0  0  0  0  0  0  0  0  0  0
   -5.1640   -1.3970   -0.5190 C   0  0  0  0  0  0  0  0  0  0  0  0
   -4.6720   -2.5490    0.2730 C   0  0  0  0  0  0  0  0  0  0  0  0
   -5.2350   -3.6530    0.4380 O   0  0  0  0  0  0  0  0  0  0  0  0
   -3.4490   -2.2080    0.8230 O   0  0  0  0  0  0  0  0  0  0  0  0
   -0.3290    1.5950    1.2880 C   0  0  0  0  0  0  0  0  0  0  0  0
  1  2  1  0
  2  3  1  0
  3  4  1  0
  3  6  1  0
  4  5  1  0
  6  7  1  0
  7  8  2  0
  7  9  1  0
 10  9  1  6
 10 11  1  0
 10 22  1  0
 11 12  1  0
 12 13  1  0
 13 14  1  0
 13 22  1  0
 14 15  2  0
 16 14  1  1
 16 17  1  0
 16 21  1  0
 17 18  1  0
 18 19  1  0
 19 20  2  0
 19 21  1  0
M  END
