
     RDKit          3D

 22 23  0  0  0  0  0  0  0  0999 V2000
    1.7390    2.0950   -3.4060 C   0  0  0  0  0  0  0  0  0  0  0  0
    1.2450    1.1550   -2.4670 O   0  0  0  0  0  0  0  0  0  0  0  0
    2.1310    0.4590   -1.6510 C   0  0  0  0  0  0  0  0  0  0  0  0
    3.3460    0.6970   -1.7840 O   0  0  0  0  0  0  0  0  0  0  0  0
    1.5520   -0.5040   -0.6950 C   0  0  1  0  0  0  0  0  0  0  0  0
    2.4770   -1.1540    0.0760 O   0  0  0  0  0  0  0  0  0  0  0  0
    3.2120   -0.3420    0.9010 C   0  0  2  0  0  0  0  0  0  0  0  0
    3.7810   -1.1130    2.0920 C   0  0  0  0  0  0  0  0  0  0  0  0
    2.4600    0.7210    1.3850 O   0  0  0  0  0  0  0  0  0  0  0  0
    1.1150    0.3120    1.5510 C   0  0  0  0  0  0  0  0  0  0  0  0
    0.5360    0.2320    0.1540 C   0  0  2  0  0  0  0  0  0  0  0  0
   -0.7260   -0.4440    0.1130 N   0  0  0  0  0  0  0  0  0  0  0  0
   -0.8930   -1.6960   -0.2520 N   0  0  0  0  0  0  0  0  0  0  0  0
   -2.1680   -2.0480   -0.1920 C   0  0  0  0  0  0  0  0  0  0  0  0
   -2.6750   -3.4100   -0.5450 C   0  0  0  0  0  0  0  0  0  0  0  0
   -4.0370   -3.5140   -0.3960 O   0  0  0  0  0  0  0  0  0  0  0  0
   -2.8440   -0.9780    0.2290 N   0  0  0  0  0  0  0  0  0  0  0  0
   -1.9440    0.0300    0.4210 C   0  0  0  0  0  0  0  0  0  0  0  0
   -2.2990    1.3280    0.8700 N   0  0  0  0  0  0  0  0  0  0  0  0
   -3.9890    1.7710    1.2310 P   0  0  0  0  0  0  0  0  0  0  0  0
   -4.0700    2.7880    2.6260 O   0  0  0  0  0  0  0  0  0  0  0  0
   -4.7320    2.6230   -0.0930 O   0  0  0  0  0  0  0  0  0  0  0  0
  1  2  1  0
  2  3  1  0
  3  4  2  0
  5  3  1  6
  5  6  1  0
  5 11  1  0
  6  7  1  0
  7  8  1  1
  7  9  1  0
  9 10  1  0
 10 11  1  0
 11 12  1  1
 12 13  1  0
 12 18  1  0
 13 14  2  0
 14 15  1  0
 14 17  1  0
 15 16  1  0
 17 18  2  0
 18 19  1  0
 19 20  1  0
 20 21  1  0
 20 22  1  0
M  END
