
     RDKit          3D

 23 25  0  0  0  0  0  0  0  0999 V2000
   -2.0160   -2.7460   -0.4490 O   0  0  0  0  0  0  0  0  0  0  0  0
   -1.9670   -1.5470   -0.0870 C   0  0  0  0  0  0  0  0  0  0  0  0
   -0.7330   -0.8490   -0.1010 N   0  0  0  0  0  0  0  0  0  0  0  0
   -0.6430    0.5470    0.1720 C   0  0  0  0  0  0  0  0  0  0  0  0
    0.6930    1.1900    0.1340 C   0  0  2  0  0  0  0  0  0  0  0  0
    1.2550    1.0260   -1.1930 N   0  0  0  0  0  0  0  0  0  0  0  0
    2.5540    0.4860   -1.3860 C   0  0  0  0  0  0  0  0  0  0  0  0
    2.8990   -0.0640   -2.4760 O   0  0  0  0  0  0  0  0  0  0  0  0
    3.5180    0.5860   -0.2560 C   0  0  2  0  0  0  0  0  0  0  0  0
    3.9060   -0.7150    0.0560 O   0  0  0  0  0  0  0  0  0  0  0  0
    5.5760   -1.0090   -0.2060 P   0  0  0  0  0  0  0  0  0  0  0  0
    5.7060   -2.2910   -1.3870 O   0  0  0  0  0  0  0  0  0  0  0  0
    6.4030    0.4180   -0.7240 O   0  0  0  0  0  0  0  0  0  0  0  0
    2.8040    1.2520    0.8940 C   0  0  0  0  0  0  0  0  0  0  0  0
    1.5590    0.6390    1.0750 O   0  0  0  0  0  0  0  0  0  0  0  0
   -1.7410    1.1660    0.4370 N   0  0  0  0  0  0  0  0  0  0  0  0
   -3.0020    0.5770    0.4770 N   0  0  0  0  0  0  0  0  0  0  0  0
   -4.1950    1.3360    0.6440 C   0  0  0  0  0  0  0  0  0  0  0  0
   -4.1270    2.5120    1.0830 O   0  0  0  0  0  0  0  0  0  0  0  0
   -5.4430    0.8190    0.3370 O   0  0  0  0  0  0  0  0  0  0  0  0
   -5.5940   -0.5750    0.1450 C   0  0  0  0  0  0  0  0  0  0  0  0
   -4.3550   -1.0640   -0.5990 C   0  0  0  0  0  0  0  0  0  0  0  0
   -3.1890   -0.8740    0.3480 C   0  0  1  0  0  0  0  0  0  0  0  0
  1  2  2  0
  2  3  1  0
  2 23  1  0
  3  4  1  0
  5  4  1  6
  4 16  2  0
  5  6  1  0
  5 15  1  0
  6  7  1  0
  7  8  2  0
  7  9  1  0
  9 10  1  1
  9 14  1  0
 10 11  1  0
 11 12  1  0
 11 13  1  0
 14 15  1  0
 16 17  1  0
 17 18  1  0
 17 23  1  0
 18 19  2  0
 18 20  1  0
 20 21  1  0
 21 22  1  0
 23 22  1  6
M  END
