
     RDKit          3D

 22 24  0  0  0  0  0  0  0  0999 V2000
   -3.3180    0.3930   -1.2740 O   0  0  0  0  0  0  0  0  0  0  0  0
   -3.3870   -0.5600   -0.4520 C   0  0  0  0  0  0  0  0  0  0  0  0
   -4.5080   -0.5710    0.4220 N   0  0  0  0  0  0  0  0  0  0  0  0
   -5.7410    0.7400    0.3200 P   0  0  0  0  0  0  0  0  0  0  0  0
   -5.9330    1.5350    1.8470 O   0  0  0  0  0  0  0  0  0  0  0  0
   -5.2580    1.8890   -0.8970 O   0  0  0  0  0  0  0  0  0  0  0  0
   -2.3500   -1.6410   -0.3850 C   0  0  2  0  0  0  0  0  0  0  0  0
   -1.6860   -1.5120    0.9600 C   0  0  0  0  0  0  0  0  0  0  0  0
   -0.4830   -2.1190    1.1060 O   0  0  0  0  0  0  0  0  0  0  0  0
    0.4330   -2.0670    0.1210 C   0  0  2  0  0  0  0  0  0  0  0  0
    1.6060   -1.1890    0.3470 C   0  0  0  0  0  0  0  0  0  0  0  0
    2.1520   -0.3260   -0.5640 N   0  0  0  0  0  0  0  0  0  0  0  0
    3.2000    0.3000   -0.0150 C   0  0  0  0  0  0  0  0  0  0  0  0
    4.0400    1.2980   -0.7060 C   0  0  2  0  0  0  0  0  0  0  0  0
    5.5180    1.2020   -0.4470 C   0  0  0  0  0  0  0  0  0  0  0  0
    5.5660    2.6030   -0.5690 O   0  0  0  0  0  0  0  0  0  0  0  0
    4.2640    2.6050   -0.0110 C   0  0  0  0  0  0  0  0  0  0  0  0
    3.2920   -0.1830    1.2320 N   0  0  0  0  0  0  0  0  0  0  0  0
    2.3380   -1.0600    1.4180 O   0  0  0  0  0  0  0  0  0  0  0  0
   -0.0870   -1.7670   -1.2360 C   0  0  0  0  0  0  0  0  0  0  0  0
    0.7210   -1.9340   -2.1990 O   0  0  0  0  0  0  0  0  0  0  0  0
   -1.3960   -1.3250   -1.4510 N   0  0  0  0  0  0  0  0  0  0  0  0
  1  2  2  0
  2  3  1  0
  7  2  1  1
  3  4  1  0
  4  5  1  0
  4  6  1  0
  7  8  1  0
  7 22  1  0
  8  9  1  0
  9 10  1  0
 10 11  1  1
 10 20  1  0
 11 12  2  0
 11 19  1  0
 12 13  1  0
 14 13  1  1
 13 18  2  0
 14 15  1  0
 14 17  1  0
 15 16  1  0
 16 17  1  0
 18 19  1  0
 20 21  2  0
 20 22  1  0
M  END
