
     RDKit          3D

 34 37  0  0  0  0  0  0  0  0999 V2000
    5.1320    4.2690   -0.3220 C   0  0  0  0  0  0  0  0  0  0  0  0
    4.7490    2.8240   -0.2540 C   0  0  0  0  0  0  0  0  0  0  0  0
    3.9610    2.2450   -1.2220 C   0  0  0  0  0  0  0  0  0  0  0  0
    3.6100    0.9160   -1.1550 C   0  0  0  0  0  0  0  0  0  0  0  0
    4.0810    0.1830   -0.0760 C   0  0  0  0  0  0  0  0  0  0  0  0
    3.7300   -1.2330    0.0150 C   0  0  2  0  0  0  0  0  0  0  0  0
    4.2790   -1.9640   -1.1590 C   0  0  0  0  0  0  0  0  0  0  0  0
    4.9850   -1.4270   -2.1330 C   0  0  0  0  0  0  0  0  0  0  0  0
    5.3300   -2.4890   -3.0890 C   0  0  0  0  0  0  0  0  0  0  0  0
    6.2520   -2.3080   -4.5530 Cl  0  0  0  0  0  0  0  0  0  0  0  0
    4.8410   -3.5980   -2.6820 N   0  0  0  0  0  0  0  0  0  0  0  0
    4.1520   -3.3870   -1.4640 C   0  0  0  0  0  0  0  0  0  0  0  0
    3.5420   -4.2180   -0.7530 O   0  0  0  0  0  0  0  0  0  0  0  0
    2.2800   -1.4510    0.2030 C   0  0  0  0  0  0  0  0  0  0  0  0
    1.5150   -1.9530   -0.8440 C   0  0  0  0  0  0  0  0  0  0  0  0
    0.1580   -2.1550   -0.6710 C   0  0  0  0  0  0  0  0  0  0  0  0
   -0.4630   -1.8600    0.5500 C   0  0  0  0  0  0  0  0  0  0  0  0
   -1.8660   -2.0760    0.7100 C   0  0  1  0  0  0  0  0  0  0  0  0
   -2.0010   -3.3940    1.5230 C   0  0  0  0  0  0  0  0  0  0  0  0
   -2.7310   -1.2120    1.2850 N   0  0  0  0  0  0  0  0  0  0  0  0
   -2.8110   -0.6720    2.5230 C   0  0  0  0  0  0  0  0  0  0  0  0
   -2.3830    0.7900    2.5180 C   0  0  0  0  0  0  0  0  0  0  0  0
   -2.6590    1.3540    1.1380 C   0  0  0  0  0  0  0  0  0  0  0  0
   -3.9250    0.7400    0.6500 C   0  0  1  0  0  0  0  0  0  0  0  0
   -4.5500    1.4540   -0.5120 C   0  0  2  0  0  0  0  0  0  0  0  0
   -3.6370    1.5030   -1.7170 C   0  0  0  0  0  0  0  0  0  0  0  0
   -4.9750    2.8490   -0.2000 C   0  0  0  0  0  0  0  0  0  0  0  0
   -5.7890    0.6770   -0.9470 C   0  0  0  0  0  0  0  0  0  0  0  0
   -3.7330   -0.7290    0.3840 C   0  0  0  0  0  0  0  0  0  0  0  0
    0.3140   -1.3650    1.5710 C   0  0  0  0  0  0  0  0  0  0  0  0
    1.6690   -1.1620    1.4020 C   0  0  0  0  0  0  0  0  0  0  0  0
    2.5380   -0.5310    2.7750 Cl  0  0  0  0  0  0  0  0  0  0  0  0
    4.8660    0.7610    0.8880 C   0  0  0  0  0  0  0  0  0  0  0  0
    5.2190    2.1030    0.8180 C   0  0  0  0  0  0  0  0  0  0  0  0
  1  2  1  0
  2  3  2  0
  2 34  1  0
  3  4  1  0
  4  5  2  0
  6  5  1  6
  5 33  1  0
  6  7  1  0
  6 14  1  0
  7  8  2  0
  7 12  1  0
  8  9  1  0
  9 10  1  0
  9 11  2  0
 11 12  1  0
 12 13  2  0
 14 15  2  0
 14 31  1  0
 15 16  1  0
 16 17  2  0
 17 18  1  0
 17 30  1  0
 18 19  1  1
 18 20  1  0
 20 21  1  0
 20 29  1  0
 21 22  1  0
 22 23  1  0
 24 23  1  6
 24 25  1  0
 24 29  1  0
 25 26  1  6
 25 27  1  0
 25 28  1  0
 30 31  2  0
 31 32  1  0
 33 34  2  0
M  END
