
     RDKit          3D

 34 37  0  0  0  0  0  0  0  0999 V2000
    7.3220    0.2720    2.0580 C   0  0  0  0  0  0  0  0  0  0  0  0
    6.6610    1.3780    1.2980 C   0  0  2  0  0  0  0  0  0  0  0  0
    7.3250    1.5500   -0.0680 C   0  0  0  0  0  0  0  0  0  0  0  0
    6.7850    2.6530    2.0660 C   0  0  0  0  0  0  0  0  0  0  0  0
    5.2340    1.0910    1.0050 C   0  0  0  0  0  0  0  0  0  0  0  0
    4.2660    1.9630    1.3740 C   0  0  0  0  0  0  0  0  0  0  0  0
    2.9680    1.6750    1.0710 C   0  0  0  0  0  0  0  0  0  0  0  0
    2.6000    0.5080    0.3900 C   0  0  0  0  0  0  0  0  0  0  0  0
    1.1720    0.3060    0.0760 C   0  0  0  0  0  0  0  0  0  0  0  0
    0.7250   -0.7340   -0.5250 C   0  0  0  0  0  0  0  0  0  0  0  0
   -0.5630   -1.2260   -0.9750 C   0  0  2  0  0  0  0  0  0  0  0  0
   -1.1050   -2.2370    0.0760 C   0  0  0  0  0  0  0  0  0  0  0  0
   -0.3140   -2.0880   -2.1590 N   0  0  0  0  0  0  0  0  0  0  0  0
   -1.3540   -2.6830   -2.8680 C   0  0  0  0  0  0  0  0  0  0  0  0
   -1.1720   -3.8280   -3.6540 C   0  0  0  0  0  0  0  0  0  0  0  0
   -2.2520   -4.3520   -4.3300 C   0  0  0  0  0  0  0  0  0  0  0  0
   -3.5110   -3.7730   -4.2480 C   0  0  0  0  0  0  0  0  0  0  0  0
   -4.8270   -4.4800   -5.1240 Cl  0  0  0  0  0  0  0  0  0  0  0  0
   -3.6690   -2.6520   -3.4720 C   0  0  0  0  0  0  0  0  0  0  0  0
   -2.6000   -2.1190   -2.7940 C   0  0  0  0  0  0  0  0  0  0  0  0
   -2.7610   -0.9080   -1.9590 C   0  0  0  0  0  0  0  0  0  0  0  0
   -3.9190   -0.4300   -1.9320 O   0  0  0  0  0  0  0  0  0  0  0  0
   -1.6490   -0.3390   -1.2430 N   0  0  0  0  0  0  0  0  0  0  0  0
   -1.7190    1.0550   -0.8140 C   0  0  0  0  0  0  0  0  0  0  0  0
   -2.1940    1.2790    0.5800 C   0  0  0  0  0  0  0  0  0  0  0  0
   -3.5810    0.9610    0.8960 C   0  0  2  0  0  0  0  0  0  0  0  0
   -4.6240    1.7680    0.2000 C   0  0  0  0  0  0  0  0  0  0  0  0
   -5.9940    1.1600    0.4260 C   0  0  0  0  0  0  0  0  0  0  0  0
   -6.2870    1.0070    1.9020 C   0  0  0  0  0  0  0  0  0  0  0  0
   -5.1790    0.2390    2.5660 C   0  0  2  0  0  0  0  0  0  0  0  0
   -5.5240   -0.1510    4.2460 Cl  0  0  0  0  0  0  0  0  0  0  0  0
   -3.8960    1.0530    2.4120 C   0  0  0  0  0  0  0  0  0  0  0  0
    3.5960   -0.3470    0.0350 C   0  0  0  0  0  0  0  0  0  0  0  0
    4.9230   -0.0640    0.3390 C   0  0  0  0  0  0  0  0  0  0  0  0
  2  1  1  1
  2  3  1  0
  2  4  1  0
  2  5  1  0
  5  6  2  0
  5 34  1  0
  6  7  1  0
  7  8  2  0
  8  9  1  0
  8 33  1  0
  9 10  2  3
 10 11  1  0
 11 12  1  1
 11 13  1  0
 11 23  1  0
 13 14  1  0
 14 15  2  0
 14 20  1  0
 15 16  1  0
 16 17  2  0
 17 18  1  0
 17 19  1  0
 19 20  2  0
 20 21  1  0
 21 22  2  0
 21 23  1  0
 23 24  1  0
 24 25  1  0
 26 25  1  1
 26 27  1  0
 26 32  1  0
 27 28  1  0
 28 29  1  0
 29 30  1  0
 30 31  1  1
 30 32  1  0
 33 34  2  0
M  END
