
     RDKit          3D

 34 37  0  0  0  0  0  0  0  0999 V2000
   -1.1210   -1.6120    5.3590 C   0  0  0  0  0  0  0  0  0  0  0  0
   -1.7220   -1.1540    4.2860 C   0  0  0  0  0  0  0  0  0  0  0  0
   -1.1080   -0.3270    3.2990 C   0  0  0  0  0  0  0  0  0  0  0  0
   -1.5510   -0.2570    2.0330 C   0  0  0  0  0  0  0  0  0  0  0  0
   -0.7510    0.6650    1.2150 C   0  0  0  0  0  0  0  0  0  0  0  0
    0.6230    0.2050    0.8820 N   0  0  1  0  0  0  0  0  0  0  0  0
    0.5470   -1.1580    0.6600 C   0  0  0  0  0  0  0  0  0  0  0  0
    1.4070   -1.8640   -0.3180 C   0  0  1  0  0  0  0  0  0  0  0  0
    0.9310   -3.3340   -0.3050 C   0  0  0  0  0  0  0  0  0  0  0  0
    1.0860   -3.8060   -1.7240 C   0  0  0  0  0  0  0  0  0  0  0  0
    1.6870   -2.6070   -2.4010 C   0  0  0  0  0  0  0  0  0  0  0  0
    1.3170   -1.5370   -1.6310 O   0  0  0  0  0  0  0  0  0  0  0  0
    1.0910    1.1640   -0.0310 C   0  0  1  0  0  0  0  0  0  0  0  0
    2.5690    1.1470   -0.2600 C   0  0  0  0  0  0  0  0  0  0  0  0
    3.3830    1.4070    1.0140 C   0  0  0  0  0  0  0  0  0  0  0  0
    4.7790    1.3930    0.7150 N   0  0  0  0  0  0  0  0  0  0  0  0
    5.5670    2.5400    0.3260 C   0  0  0  0  0  0  0  0  0  0  0  0
    7.0080    2.0720    0.3100 C   0  0  0  0  0  0  0  0  0  0  0  0
    6.9570    0.6250    0.4160 N   0  0  0  0  0  0  0  0  0  0  0  0
    5.6200    0.2510    0.7530 C   0  0  0  0  0  0  0  0  0  0  0  0
    5.3060   -0.9430    1.0330 O   0  0  0  0  0  0  0  0  0  0  0  0
    0.2920    1.4630   -1.2680 C   0  0  0  0  0  0  0  0  0  0  0  0
   -0.6070    2.6530   -1.1820 C   0  0  0  0  0  0  0  0  0  0  0  0
   -1.8990    2.6450   -1.7260 N   0  0  0  0  0  0  0  0  0  0  0  0
   -2.5930    1.4820   -2.1280 C   0  0  2  0  0  0  0  0  0  0  0  0
   -3.3690    1.7260   -3.4300 C   0  0  0  0  0  0  0  0  0  0  0  0
   -4.1170    0.5520   -3.9090 C   0  0  0  0  0  0  0  0  0  0  0  0
   -3.5110    0.8640   -1.0860 C   0  0  0  0  0  0  0  0  0  0  0  0
   -3.0550   -0.5210   -0.8140 C   0  0  0  0  0  0  0  0  0  0  0  0
   -3.3490   -1.1050    0.4960 C   0  0  0  0  0  0  0  0  0  0  0  0
   -4.6170   -1.9880    0.4660 C   0  0  0  0  0  0  0  0  0  0  0  0
   -2.7320   -0.9970    1.6550 C   0  0  0  0  0  0  0  0  0  0  0  0
   -3.3430   -1.7550    2.7050 O   0  0  0  0  0  0  0  0  0  0  0  0
   -3.1500   -1.5140    4.0620 C   0  0  0  0  0  0  0  0  0  0  0  0
  1  2  2  0
  2  3  1  0
  2 34  1  0
  3  4  2  0
  4  5  1  0
  4 32  1  0
  5  6  1  0
  6  7  1  6
  6 13  1  0
  8  7  1  1
  8  9  1  0
  8 12  1  0
  9 10  1  0
 10 11  1  0
 11 12  1  0
 13 14  1  6
 13 22  1  0
 14 15  1  0
 15 16  1  0
 16 17  1  0
 16 20  1  0
 17 18  1  0
 18 19  1  0
 19 20  1  0
 20 21  2  0
 22 23  1  0
 23 24  1  0
 24 25  1  0
 25 26  1  6
 25 28  1  0
 26 27  1  0
 28 29  1  0
 29 30  1  0
 30 31  1  0
 30 32  2  0
 32 33  1  0
 33 34  1  0
M  CHG  2   6   1  24   1
M  END
