
     RDKit          3D

 34 38  0  0  0  0  0  0  0  0999 V2000
    0.5820   -5.4100    1.4240 C   0  0  0  0  0  0  0  0  0  0  0  0
    0.6690   -4.2020    0.5930 N   0  0  0  0  0  0  0  0  0  0  0  0
    1.3650   -3.1440    1.2610 C   0  0  1  0  0  0  0  0  0  0  0  0
    2.5850   -2.6650    0.4880 C   0  0  0  0  0  0  0  0  0  0  0  0
    2.1940   -1.7290   -0.6030 C   0  0  0  0  0  0  0  0  0  0  0  0
    1.3170   -0.6720   -0.0490 N   0  0  0  0  0  0  0  0  0  0  0  0
    1.6610    0.6630    0.1130 C   0  0  0  0  0  0  0  0  0  0  0  0
    0.6990    1.4270    0.5090 O   0  0  0  0  0  0  0  0  0  0  0  0
    2.9060    1.3250   -0.0870 C   0  0  0  0  0  0  0  0  0  0  0  0
    2.9200    2.7250   -0.2160 C   0  0  0  0  0  0  0  0  0  0  0  0
    4.0710    3.4600   -0.3380 C   0  0  0  0  0  0  0  0  0  0  0  0
    5.2990    2.8220   -0.3400 C   0  0  0  0  0  0  0  0  0  0  0  0
    5.3110    1.4630   -0.2150 C   0  0  0  0  0  0  0  0  0  0  0  0
    4.1270    0.7150   -0.0890 C   0  0  0  0  0  0  0  0  0  0  0  0
    6.7040    1.0560   -0.2470 C   0  0  0  0  0  0  0  0  0  0  0  0
    7.5030    2.0970   -0.3810 C   0  0  0  0  0  0  0  0  0  0  0  0
    6.7010    3.3260   -0.4550 C   0  0  2  0  0  0  0  0  0  0  0  0
    7.0220    4.2720    0.5930 N   0  0  0  0  0  0  0  0  0  0  0  0
    0.0350   -1.2710    0.3860 C   0  0  2  0  0  0  0  0  0  0  0  0
   -1.0980   -0.3600    0.5490 C   0  0  2  0  0  0  0  0  0  0  0  0
   -2.4100   -1.0830    0.8660 C   0  0  0  0  0  0  0  0  0  0  0  0
   -3.3330   -1.0910   -0.2290 N   0  0  0  0  0  0  0  0  0  0  0  0
   -4.1070    0.1070   -0.2770 C   0  0  0  0  0  0  0  0  0  0  0  0
   -5.0910    0.1540   -1.4050 C   0  0  0  0  0  0  0  0  0  0  0  0
   -5.7740    1.4140   -1.2980 O   0  0  0  0  0  0  0  0  0  0  0  0
   -6.5030    1.7800   -0.2010 C   0  0  0  0  0  0  0  0  0  0  0  0
   -6.4460    2.9790    0.3610 C   0  0  0  0  0  0  0  0  0  0  0  0
   -7.3740    2.9730    1.5070 C   0  0  0  0  0  0  0  0  0  0  0  0
   -7.9580    1.6100    1.5110 C   0  0  0  0  0  0  0  0  0  0  0  0
   -7.4440    0.9270    0.5140 C   0  0  0  0  0  0  0  0  0  0  0  0
   -2.7110   -1.4700   -1.4570 C   0  0  0  0  0  0  0  0  0  0  0  0
   -1.5930   -0.4980   -1.7200 C   0  0  0  0  0  0  0  0  0  0  0  0
   -1.3500    0.3310   -0.6290 O   0  0  0  0  0  0  0  0  0  0  0  0
    0.4210   -2.0310    1.6410 C   0  0  0  0  0  0  0  0  0  0  0  0
  1  2  1  0
  3  2  1  6
  3  4  1  0
  3 34  1  0
  4  5  1  0
  5  6  1  0
  6  7  1  0
  6 19  1  0
  7  8  2  0
  7  9  1  0
  9 10  2  0
  9 14  1  0
 10 11  1  0
 11 12  2  0
 12 13  1  0
 12 17  1  0
 13 14  2  0
 13 15  1  0
 15 16  2  0
 16 17  1  0
 17 18  1  1
 19 20  1  0
 19 34  1  1
 20 21  1  6
 20 33  1  0
 21 22  1  0
 22 23  1  0
 22 31  1  0
 23 24  1  0
 24 25  1  0
 25 26  1  0
 26 27  2  0
 26 30  1  0
 27 28  1  0
 28 29  1  0
 29 30  2  0
 31 32  1  0
 32 33  1  0
M  CHG  2   2   1  18   1
M  END
