
     RDKit          3D

 22 22  0  0  0  0  0  0  0  0999 V2000
    6.3470    0.5310   -1.0250 C   0  0  0  0  0  0  0  0  0  0  0  0
    5.1850    0.1960   -0.1160 C   0  0  0  0  0  0  0  0  0  0  0  0
    4.0620    0.0320   -0.9170 O   0  0  0  0  0  0  0  0  0  0  0  0
    2.9300   -0.2800   -0.1740 C   0  0  2  0  0  0  0  0  0  0  0  0
    2.4390   -1.5990   -0.5100 N   0  0  0  0  0  0  0  0  0  0  0  0
    1.8600    0.7780   -0.3100 C   0  0  2  0  0  0  0  0  0  0  0  0
    1.4040    0.9640   -1.7210 C   0  0  0  0  0  0  0  0  0  0  0  0
    2.3680    1.9510    0.1810 F   0  0  0  0  0  0  0  0  0  0  0  0
    0.6900    0.3980    0.5280 C   0  0  0  0  0  0  0  0  0  0  0  0
    0.9280    0.2630    1.8680 F   0  0  0  0  0  0  0  0  0  0  0  0
   -0.8050    0.1590   -0.1520 P   0  0  0  0  0  0  0  0  0  0  0  0
   -2.1960   -0.3130    0.9840 C   0  0  1  0  0  0  0  0  0  0  0  0
   -1.6880   -1.0140    2.0700 F   0  0  0  0  0  0  0  0  0  0  0  0
   -2.8980    0.8680    1.5120 C   0  0  0  0  0  0  0  0  0  0  0  0
   -2.4800    1.3860    2.5790 O   0  0  0  0  0  0  0  0  0  0  0  0
   -4.0470    1.4680    0.8690 C   0  0  0  0  0  0  0  0  0  0  0  0
   -4.1670    3.3140    0.7880 P   0  0  0  0  0  0  0  0  0  0  0  0
   -5.0330    0.7410    0.3330 C   0  0  0  0  0  0  0  0  0  0  0  0
   -4.9970   -0.6470    0.3710 O   0  0  0  0  0  0  0  0  0  0  0  0
   -3.4310   -1.3970    0.1420 P   0  0  0  0  0  0  0  0  0  0  0  0
   -3.3790   -3.0210    0.6670 O   0  0  0  0  0  0  0  0  0  0  0  0
   -4.6490   -3.5890    0.6570 C   0  0  0  0  0  0  0  0  0  0  0  0
  1  2  1  0
  2  3  1  0
  3  4  1  0
  4  5  1  6
  4  6  1  0
  6  7  1  6
  6  8  1  0
  6  9  1  0
  9 10  1  0
  9 11  2  3
 11 12  1  0
 12 13  1  1
 12 14  1  0
 12 20  1  0
 14 15  2  0
 14 16  1  0
 16 17  1  0
 16 18  2  0
 18 19  1  0
 19 20  1  0
 20 21  1  0
 21 22  1  0
M  END
