
     RDKit          3D

 22 21  0  0  0  0  0  0  0  0999 V2000
   -6.2440    1.5890    0.7060 C   0  0  0  0  0  0  0  0  0  0  0  0
   -4.8730    2.1310    1.0390 C   0  0  0  0  0  0  0  0  0  0  0  0
   -4.0860    1.1020    1.5810 O   0  0  0  0  0  0  0  0  0  0  0  0
   -3.8010   -0.0740    0.8480 C   0  0  0  0  0  0  0  0  0  0  0  0
   -4.7210   -1.1990    1.1020 C   0  0  0  0  0  0  0  0  0  0  0  0
   -2.7760   -0.0500    0.0380 C   0  0  0  0  0  0  0  0  0  0  0  0
   -2.2450   -1.0850   -0.8320 C   0  0  2  0  0  0  0  0  0  0  0  0
   -3.2070   -2.0290   -1.4600 C   0  0  0  0  0  0  0  0  0  0  0  0
   -4.1000   -1.3230   -2.2280 F   0  0  0  0  0  0  0  0  0  0  0  0
   -1.1630   -1.7900   -0.1300 N   0  0  0  0  0  0  0  0  0  0  0  0
   -1.5640   -2.3680    1.0010 F   0  0  0  0  0  0  0  0  0  0  0  0
    0.1720   -0.6580    0.2600 P   0  0  0  0  0  0  0  0  0  0  0  0
    1.3890   -0.4460   -0.8270 C   0  0  0  0  0  0  0  0  0  0  0  0
    1.3830   -1.1200   -2.0040 F   0  0  0  0  0  0  0  0  0  0  0  0
    2.5080    0.4940   -0.5170 C   0  0  0  0  0  0  0  0  0  0  0  0
    3.6830   -0.2720   -0.5320 O   0  0  0  0  0  0  0  0  0  0  0  0
    5.0710    0.7140   -0.1830 P   0  0  0  0  0  0  0  0  0  0  0  0
    5.9370    0.9620   -1.6730 O   0  0  0  0  0  0  0  0  0  0  0  0
    6.0710   -0.1880    0.9550 O   0  0  0  0  0  0  0  0  0  0  0  0
    7.4260    0.0480    1.1040 C   0  0  0  0  0  0  0  0  0  0  0  0
    7.9420    1.4050    0.9030 C   0  0  0  0  0  0  0  0  0  0  0  0
    8.4140   -1.2160    1.5050 P   0  0  0  0  0  0  0  0  0  0  0  0
  1  2  1  0
  2  3  1  0
  3  4  1  0
  4  5  1  0
  4  6  2  3
  6  7  1  0
  7  8  1  1
  7 10  1  0
  8  9  1  0
 10 11  1  0
 10 12  1  0
 12 13  2  3
 13 14  1  0
 13 15  1  0
 15 16  1  0
 16 17  1  0
 17 18  1  0
 17 19  1  0
 19 20  1  0
 20 21  1  0
 20 22  2  0
M  END
