
     RDKit          3D

 22 22  0  0  0  0  0  0  0  0999 V2000
   -0.9800   -0.8530    1.4550 C   0  0  0  0  0  0  0  0  0  0  0  0
   -1.7140   -0.0310    0.7900 C   0  0  0  0  0  0  0  0  0  0  0  0
   -3.0820    0.3090    1.1700 C   0  0  1  0  0  0  0  0  0  0  0  0
   -3.0890    1.7190    1.6620 C   0  0  0  0  0  0  0  0  0  0  0  0
   -3.6790    2.1710    3.1330 P   0  0  0  0  0  0  0  0  0  0  0  0
   -4.0080    0.1590    0.0240 C   0  0  0  0  0  0  0  0  0  0  0  0
   -5.6340   -0.6550    0.3080 P   0  0  0  0  0  0  0  0  0  0  0  0
   -3.7830    0.5560   -1.2070 C   0  0  0  0  0  0  0  0  0  0  0  0
   -4.7780    0.3630   -2.3070 C   0  0  0  0  0  0  0  0  0  0  0  0
   -2.5860    1.1940   -1.5830 O   0  0  0  0  0  0  0  0  0  0  0  0
   -1.0910    0.7840   -0.7000 P   0  0  0  0  0  0  0  0  0  0  0  0
   -0.0510   -0.2230   -1.6660 O   0  0  0  0  0  0  0  0  0  0  0  0
    1.2900   -0.3230   -1.3160 C   0  0  0  0  0  0  0  0  0  0  0  0
    2.0100   -1.3990   -1.5390 C   0  0  0  0  0  0  0  0  0  0  0  0
    3.3690   -1.4700   -1.1720 N   0  0  0  0  0  0  0  0  0  0  0  0
    3.7840   -1.3770    0.0490 C   0  0  0  0  0  0  0  0  0  0  0  0
    5.1680   -1.4690    0.2380 O   0  0  0  0  0  0  0  0  0  0  0  0
    6.0150   -1.0600   -0.7120 O   0  0  0  0  0  0  0  0  0  0  0  0
    6.8070   -0.0200   -0.2240 C   0  0  1  0  0  0  0  0  0  0  0  0
    5.8870    1.1100    0.1740 C   0  0  0  0  0  0  0  0  0  0  0  0
    7.4900   -0.4940    0.8970 F   0  0  0  0  0  0  0  0  0  0  0  0
    7.7360    0.4060   -1.1200 F   0  0  0  0  0  0  0  0  0  0  0  0
  1  2  2  0
  2  3  1  0
  2 11  1  0
  3  4  1  6
  3  6  1  0
  4  5  2  0
  6  7  1  0
  6  8  2  0
  8  9  1  0
  8 10  1  0
 10 11  1  0
 11 12  1  0
 12 13  1  0
 13 14  2  3
 14 15  1  0
 15 16  2  3
 16 17  1  0
 17 18  1  0
 18 19  1  0
 19 20  1  1
 19 21  1  0
 19 22  1  0
M  END
