
     RDKit          3D

 22 23  0  0  0  0  0  0  0  0999 V2000
    3.7810   -1.0070   -0.7320 C   0  0  0  0  0  0  0  0  0  0  0  0
    4.7940   -0.3100   -0.2830 C   0  0  0  0  0  0  0  0  0  0  0  0
    5.8060   -0.9570    0.5840 C   0  0  0  0  0  0  0  0  0  0  0  0
    7.0780   -0.8940   -0.0060 O   0  0  0  0  0  0  0  0  0  0  0  0
    5.0440    1.4670   -0.6740 P   0  0  0  0  0  0  0  0  0  0  0  0
    3.5310    2.2680   -0.9400 O   0  0  0  0  0  0  0  0  0  0  0  0
    2.2630    1.6100    0.0040 P   0  0  0  0  0  0  0  0  0  0  0  0
    0.4090    1.3150   -0.7390 P   0  0  0  0  0  0  0  0  0  0  0  0
   -0.9010    0.5930    0.3690 C   0  0  2  0  0  0  0  0  0  0  0  0
   -0.2060   -0.2910    1.3680 C   0  0  0  0  0  0  0  0  0  0  0  0
   -1.0770   -1.4470    1.7560 C   0  0  0  0  0  0  0  0  0  0  0  0
   -1.7820   -2.0810    0.6040 C   0  0  0  0  0  0  0  0  0  0  0  0
   -2.0830   -1.2670   -0.4340 O   0  0  0  0  0  0  0  0  0  0  0  0
   -1.9690    0.0060   -0.3280 N   0  0  0  0  0  0  0  0  0  0  0  0
   -3.0990    0.8040   -0.0580 C   0  0  2  0  0  0  0  0  0  0  0  0
   -3.8830    0.4460    1.1590 C   0  0  0  0  0  0  0  0  0  0  0  0
   -4.0450    0.8840   -1.2290 C   0  0  1  0  0  0  0  0  0  0  0  0
   -3.4130    1.4700   -2.4540 C   0  0  0  0  0  0  0  0  0  0  0  0
   -4.4700   -0.3910   -1.5090 F   0  0  0  0  0  0  0  0  0  0  0  0
   -5.1540    1.6490   -0.9060 F   0  0  0  0  0  0  0  0  0  0  0  0
   -2.5010    2.0600    0.1990 O   0  0  0  0  0  0  0  0  0  0  0  0
   -1.5230    1.6940    1.0040 O   0  0  0  0  0  0  0  0  0  0  0  0
  1  2  2  0
  2  3  1  0
  2  5  1  0
  3  4  1  0
  5  6  1  0
  6  7  1  0
  7  8  2  3
  9  8  1  6
  9 10  1  0
  9 14  1  0
  9 22  1  0
 10 11  1  0
 11 12  1  0
 12 13  1  0
 13 14  1  0
 14 15  1  0
 15 16  1  1
 15 17  1  0
 15 21  1  0
 17 18  1  6
 17 19  1  0
 17 20  1  0
 21 22  1  0
M  END
