
     RDKit          3D

  9  8  0  0  0  0  0  0  0  0999 V2000
    0.7160   -0.6880    1.4760 O   0  0  0  0  0  0  0  0  0  0  0  0
    1.3900   -0.1230    0.2710 P   0  0  1  0  0  0  0  0  0  0  0  0
    1.9630    1.4640    0.5420 O   0  0  0  0  0  0  0  0  0  0  0  0
    2.7110   -1.0960   -0.1230 O   0  0  0  0  0  0  0  0  0  0  0  0
    0.3100   -0.0470   -1.0040 O   0  0  0  0  0  0  0  0  0  0  0  0
   -1.2560    0.2490   -0.4180 P   0  0  1  0  0  0  0  0  0  0  0  0
   -1.6250    1.7060   -0.5590 O   0  0  0  0  0  0  0  0  0  0  0  0
   -2.2980   -0.7480   -1.3220 O   0  0  0  0  0  0  0  0  0  0  0  0
   -1.3730   -0.1670    1.1960 O   0  0  0  0  0  0  0  0  0  0  0  0
  1  2  2  0
  2  3  1  1
  2  4  1  0
  2  5  1  0
  5  6  1  0
  6  7  2  0
  6  8  1  6
  6  9  1  0
M  END
