
     RDKit          3D

 24 24  0  0  0  0  0  0  0  0999 V2000
    5.9320   -0.4540   -0.0570 C   0  0  0  0  0  0  0  0  0  0  0  0
    4.7080   -0.4730   -0.6970 O   0  0  0  0  0  0  0  0  0  0  0  0
    3.7430   -1.0810    0.0090 C   0  0  0  0  0  0  0  0  0  0  0  0
    3.0120   -0.3090    1.0260 C   0  0  1  0  0  0  0  0  0  0  0  0
    2.1290   -1.2190    1.7280 F   0  0  0  0  0  0  0  0  0  0  0  0
    3.5520    0.4310    1.9750 O   0  0  0  0  0  0  0  0  0  0  0  0
    4.0810    1.6560    1.7700 C   0  0  0  0  0  0  0  0  0  0  0  0
    1.7460    0.7440    0.0580 P   0  0  0  0  0  0  0  0  0  0  0  0
    0.7640   -0.4140   -1.5030 P   0  0  0  0  0  0  0  0  0  0  0  0
    1.3710   -1.6820   -2.3920 O   0  0  0  0  0  0  0  0  0  0  0  0
    0.5230   -2.4640   -2.8850 O   0  0  0  0  0  0  0  0  0  0  0  0
   -0.6810   -2.6290   -2.9420 O   0  0  0  0  0  0  0  0  0  0  0  0
   -1.7260   -2.0190   -2.4810 C   0  0  0  0  0  0  0  0  0  0  0  0
   -2.9300   -2.3380   -2.6420 O   0  0  0  0  0  0  0  0  0  0  0  0
   -1.3250   -0.6000   -1.5350 P   0  0  0  0  0  0  0  0  0  0  0  0
   -2.4120   -0.0330   -0.1270 C   0  0  0  0  0  0  0  0  0  0  0  0
   -2.5480   -0.8610    0.8650 C   0  0  0  0  0  0  0  0  0  0  0  0
   -1.8560   -2.2120    0.8720 C   0  0  0  0  0  0  0  0  0  0  0  0
   -3.3420   -0.5940    1.9880 N   0  0  0  0  0  0  0  0  0  0  0  0
   -3.0450    1.2810   -0.1620 C   0  0  2  0  0  0  0  0  0  0  0  0
   -3.6900    1.7900    1.0750 C   0  0  0  0  0  0  0  0  0  0  0  0
   -4.0160    1.4330   -1.3250 C   0  0  1  0  0  0  0  0  0  0  0  0
   -4.5850    2.7050   -1.3010 O   0  0  0  0  0  0  0  0  0  0  0  0
   -3.3370    1.3260   -2.5400 O   0  0  0  0  0  0  0  0  0  0  0  0
  1  2  1  0
  2  3  1  0
  3  4  1  0
  4  5  1  1
  4  6  1  0
  4  8  1  0
  6  7  1  0
  8  9  1  0
  9 10  1  0
  9 15  1  0
 10 11  1  0
 11 12  1  0
 12 13  1  0
 13 14  2  0
 13 15  1  0
 15 16  1  0
 16 17  2  3
 16 20  1  0
 17 18  1  0
 17 19  1  0
 20 21  1  1
 20 22  1  0
 22 23  1  6
 22 24  1  0
M  END
