
     RDKit          3D

 24 24  0  0  0  0  0  0  0  0999 V2000
    7.1600    1.0840    0.7340 C   0  0  0  0  0  0  0  0  0  0  0  0
    5.8780    0.2840    0.6630 C   0  0  0  0  0  0  0  0  0  0  0  0
    4.9180    0.9280   -0.1150 O   0  0  0  0  0  0  0  0  0  0  0  0
    3.5050   -0.0340   -0.1460 P   0  0  0  0  0  0  0  0  0  0  0  0
    2.2820    0.5090   -1.4290 C   0  0  0  0  0  0  0  0  0  0  0  0
    1.4820   -0.5810   -1.7900 O   0  0  0  0  0  0  0  0  0  0  0  0
    0.6740   -1.3190   -0.9780 C   0  0  0  0  0  0  0  0  0  0  0  0
    0.0270   -0.7960   -0.0490 N   0  0  0  0  0  0  0  0  0  0  0  0
   -0.1630    0.4670    0.4990 C   0  0  0  0  0  0  0  0  0  0  0  0
   -0.8160    1.2880   -0.4340 O   0  0  0  0  0  0  0  0  0  0  0  0
   -2.0550    0.7810   -0.7950 C   0  0  0  0  0  0  0  0  0  0  0  0
   -2.8450    0.6860    0.3240 O   0  0  0  0  0  0  0  0  0  0  0  0
   -4.1140    0.1830    0.0510 C   0  0  1  0  0  0  0  0  0  0  0  0
   -4.8680    1.0530   -0.9270 C   0  0  0  0  0  0  0  0  0  0  0  0
   -4.0210   -1.5700   -0.5830 P   0  0  0  0  0  0  0  0  0  0  0  0
   -5.4460   -2.0930    0.3580 O   0  0  0  0  0  0  0  0  0  0  0  0
   -5.5050   -1.1870    1.3920 C   0  0  0  0  0  0  0  0  0  0  0  0
   -4.8810   -0.0730    1.2960 C   0  0  0  0  0  0  0  0  0  0  0  0
   -4.8700    1.0150    2.3750 C   0  0  0  0  0  0  0  0  0  0  0  0
    0.5430   -3.1690   -1.2810 P   0  0  0  0  0  0  0  0  0  0  0  0
    0.3020   -4.0910   -0.0560 O   0  0  0  0  0  0  0  0  0  0  0  0
    3.7990   -1.7190   -0.1940 O   0  0  0  0  0  0  0  0  0  0  0  0
    3.8750   -2.1070   -1.4420 O   0  0  0  0  0  0  0  0  0  0  0  0
    4.8370   -1.5630   -2.1150 O   0  0  0  0  0  0  0  0  0  0  0  0
  1  2  1  0
  2  3  1  0
  3  4  1  0
  4  5  1  0
  4 22  1  0
  5  6  1  0
  6  7  1  0
  7  8  2  3
  7 20  1  0
  8  9  1  0
  9 10  1  0
 10 11  1  0
 11 12  1  0
 12 13  1  0
 13 14  1  6
 13 15  1  0
 13 18  1  0
 15 16  1  0
 16 17  1  0
 17 18  2  0
 18 19  1  0
 20 21  2  0
 22 23  1  0
 23 24  1  0
M  END
