
     RDKit          3D

 24 24  0  0  0  0  0  0  0  0999 V2000
   -1.5830    4.9450    0.8990 C   0  0  0  0  0  0  0  0  0  0  0  0
   -1.2780    3.6780    0.1640 C   0  0  0  0  0  0  0  0  0  0  0  0
   -0.5800    2.7550    0.9690 O   0  0  0  0  0  0  0  0  0  0  0  0
   -0.3060    1.3590   -0.0180 P   0  0  0  0  0  0  0  0  0  0  0  0
    0.9200    0.3250    0.6260 O   0  0  0  0  0  0  0  0  0  0  0  0
    1.1640   -0.9060    0.0470 C   0  0  0  0  0  0  0  0  0  0  0  0
    2.4060   -1.4880    0.2430 O   0  0  0  0  0  0  0  0  0  0  0  0
    3.6090   -0.7290    0.1340 C   0  0  0  0  0  0  0  0  0  0  0  0
    3.5530    0.3060   -0.6310 C   0  0  0  0  0  0  0  0  0  0  0  0
    4.6930    1.2080   -0.8670 C   0  0  0  0  0  0  0  0  0  0  0  0
    4.4080    2.5210   -0.4650 O   0  0  0  0  0  0  0  0  0  0  0  0
    4.7710   -1.1630    0.8670 C   0  0  1  0  0  0  0  0  0  0  0  0
    4.5480   -1.1980    2.3770 C   0  0  0  0  0  0  0  0  0  0  0  0
    5.0620   -2.4940    0.4490 O   0  0  0  0  0  0  0  0  0  0  0  0
   -0.1070   -1.5170   -0.8210 P   0  0  0  0  0  0  0  0  0  0  0  0
   -1.6880   -0.6220   -0.9850 C   0  0  1  0  0  0  0  0  0  0  0  0
   -2.6740   -1.4690   -0.4780 O   0  0  0  0  0  0  0  0  0  0  0  0
   -3.5700   -1.7380   -1.4530 O   0  0  0  0  0  0  0  0  0  0  0  0
   -4.7460   -2.4100   -1.1610 C   0  0  0  0  0  0  0  0  0  0  0  0
   -5.3200   -2.1490   -0.0390 N   0  0  0  0  0  0  0  0  0  0  0  0
   -4.7820   -1.1960    0.9030 C   0  0  0  0  0  0  0  0  0  0  0  0
   -5.4430   -3.6220   -2.3430 P   0  0  0  0  0  0  0  0  0  0  0  0
   -7.0610   -4.0410   -1.9640 O   0  0  0  0  0  0  0  0  0  0  0  0
   -1.8050    0.5840   -0.3200 O   0  0  0  0  0  0  0  0  0  0  0  0
  1  2  1  0
  2  3  1  0
  3  4  1  0
  4  5  1  0
  4 24  1  0
  5  6  1  0
  6  7  1  0
  6 15  2  0
  7  8  1  0
  8  9  2  3
  8 12  1  0
  9 10  1  0
 10 11  1  0
 12 13  1  1
 12 14  1  0
 15 16  1  0
 16 17  1  1
 16 24  1  0
 17 18  1  0
 18 19  1  0
 19 20  2  3
 19 22  1  0
 20 21  1  0
 22 23  1  0
M  END
