
     RDKit          3D

 27 28  0  0  0  0  0  0  0  0999 V2000
    6.8920    1.4990   -1.4420 C   0  0  0  0  0  0  0  0  0  0  0  0
    6.3110    0.9540   -0.2800 O   0  0  0  0  0  0  0  0  0  0  0  0
    7.1290    0.3850    0.6790 C   0  0  0  0  0  0  0  0  0  0  0  0
    8.3640    0.3540    0.5160 O   0  0  0  0  0  0  0  0  0  0  0  0
    6.5070   -0.1870    1.9020 C   0  0  0  0  0  0  0  0  0  0  0  0
    5.0990   -0.0460    1.8810 O   0  0  0  0  0  0  0  0  0  0  0  0
    4.3090   -0.6070    0.8860 C   0  0  0  0  0  0  0  0  0  0  0  0
    4.8740   -1.2470   -0.0050 O   0  0  0  0  0  0  0  0  0  0  0  0
    2.8980   -0.4680    0.8610 N   0  0  0  0  0  0  0  0  0  0  0  0
    2.0420   -1.0180   -0.1290 C   0  0  0  0  0  0  0  0  0  0  0  0
    2.3370   -1.7480   -1.2030 N   0  0  0  0  0  0  0  0  0  0  0  0
    1.2060   -2.0750   -1.8970 C   0  0  0  0  0  0  0  0  0  0  0  0
    0.1940   -1.5210   -1.2140 N   0  0  0  0  0  0  0  0  0  0  0  0
    0.6660   -0.8710   -0.1350 C   0  0  0  0  0  0  0  0  0  0  0  0
   -0.0980   -0.1180    0.8960 C   0  0  0  0  0  0  0  0  0  0  0  0
   -1.4690   -0.1950    0.5480 O   0  0  0  0  0  0  0  0  0  0  0  0
   -2.4880    0.3810    1.2610 C   0  0  0  0  0  0  0  0  0  0  0  0
   -2.1940    1.0240    2.3000 O   0  0  0  0  0  0  0  0  0  0  0  0
   -3.8970    0.2810    0.8710 C   0  0  0  0  0  0  0  0  0  0  0  0
   -4.0720   -0.4170   -0.2320 C   0  0  0  0  0  0  0  0  0  0  0  0
   -5.2420   -0.8040   -1.0250 C   0  0  0  0  0  0  0  0  0  0  0  0
   -6.4670   -0.3150   -1.1840 C   0  0  0  0  0  0  0  0  0  0  0  0
   -7.2870    0.8020   -0.6980 C   0  0  0  0  0  0  0  0  0  0  0  0
   -7.1690    1.0650    0.7370 C   0  0  0  0  0  0  0  0  0  0  0  0
   -8.2780    1.1440    1.3220 O   0  0  0  0  0  0  0  0  0  0  0  0
   -6.0940    1.2660    1.7000 C   0  0  0  0  0  0  0  0  0  0  0  0
   -4.7970    0.9630    1.7690 C   0  0  0  0  0  0  0  0  0  0  0  0
  1  2  1  0
  2  3  1  0
  3  4  2  0
  3  5  1  0
  5  6  1  0
  6  7  1  0
  7  8  2  0
  7  9  1  0
  9 10  1  0
 10 11  1  0
 10 14  2  0
 11 12  1  0
 12 13  2  0
 13 14  1  0
 14 15  1  0
 15 16  1  0
 16 17  1  0
 17 18  2  0
 17 19  1  0
 19 20  2  0
 19 27  1  0
 20 21  1  0
 21 22  2  0
 22 23  1  0
 23 24  1  0
 24 25  2  0
 24 26  1  0
 26 27  2  0
M  END
