
     RDKit          3D

 27 28  0  0  0  0  0  0  0  0999 V2000
   -0.0700    6.4900   -1.1930 O   0  0  0  0  0  0  0  0  0  0  0  0
   -0.5280    6.0760   -0.1190 C   0  0  0  0  0  0  0  0  0  0  0  0
   -1.2140    4.8930    0.0660 O   0  0  0  0  0  0  0  0  0  0  0  0
   -1.4470    4.0320   -1.0200 C   0  0  0  0  0  0  0  0  0  0  0  0
   -0.2260    3.4930   -1.6770 C   0  0  0  0  0  0  0  0  0  0  0  0
    0.6700    2.6380   -0.8550 C   0  0  0  0  0  0  0  0  0  0  0  0
    0.1260    1.4210   -0.3490 N   0  0  0  0  0  0  0  0  0  0  0  0
   -0.4960    1.4240    0.9750 C   0  0  0  0  0  0  0  0  0  0  0  0
   -0.4680    2.4820    1.6330 O   0  0  0  0  0  0  0  0  0  0  0  0
   -1.1240    0.2210    1.5120 N   0  0  0  0  0  0  0  0  0  0  0  0
   -2.1130   -0.5920    0.8800 C   0  0  0  0  0  0  0  0  0  0  0  0
   -1.8950   -2.0870    1.0750 C   0  0  0  0  0  0  0  0  0  0  0  0
   -1.7900   -2.7950   -0.0920 O   0  0  0  0  0  0  0  0  0  0  0  0
   -1.1660   -4.0190   -0.1130 C   0  0  0  0  0  0  0  0  0  0  0  0
   -0.5060   -4.2970   -1.5370 C   0  0  0  0  0  0  0  0  0  0  0  0
   -0.8230   -3.0100   -2.2030 C   0  0  0  0  0  0  0  0  0  0  0  0
   -0.4320   -1.7970   -1.8100 C   0  0  0  0  0  0  0  0  0  0  0  0
   -0.9500   -0.8430   -2.6480 O   0  0  0  0  0  0  0  0  0  0  0  0
   -0.6670    0.3030   -2.2980 N   0  0  0  0  0  0  0  0  0  0  0  0
    0.1000    0.1730   -1.1420 C   0  0  0  0  0  0  0  0  0  0  0  0
    0.2980   -1.1470   -0.8230 C   0  0  0  0  0  0  0  0  0  0  0  0
    1.1980   -1.7170    0.0670 C   0  0  0  0  0  0  0  0  0  0  0  0
    2.0430   -1.3300    1.1160 C   0  0  0  0  0  0  0  0  0  0  0  0
    2.7230   -2.3420    1.7380 C   0  0  0  0  0  0  0  0  0  0  0  0
    3.5520   -2.0410    2.7540 O   0  0  0  0  0  0  0  0  0  0  0  0
    2.3840    0.0010    1.6310 C   0  0  0  0  0  0  0  0  0  0  0  0
    2.9140    0.8680    0.6730 O   0  0  0  0  0  0  0  0  0  0  0  0
  1  2  2  0
  2  3  1  0
  3  4  1  0
  4  5  1  0
  5  6  1  0
  6  7  1  0
  7  8  1  0
  7 20  1  0
  8  9  2  0
  8 10  1  0
 10 11  1  0
 11 12  1  0
 12 13  1  0
 13 14  1  0
 14 15  1  0
 15 16  1  0
 16 17  2  0
 17 18  1  0
 17 21  1  0
 18 19  1  0
 19 20  2  0
 20 21  1  0
 21 22  2  3
 22 23  1  0
 23 24  2  3
 23 26  1  0
 24 25  1  0
 26 27  1  0
M  END
