
     RDKit          3D

 27 28  0  0  0  0  0  0  0  0999 V2000
   -0.5630   -3.7310   -0.2880 O   0  0  0  0  0  0  0  0  0  0  0  0
   -1.5190   -3.5850    0.5490 C   0  0  0  0  0  0  0  0  0  0  0  0
   -2.3640   -2.4620    0.4570 N   0  0  0  0  0  0  0  0  0  0  0  0
   -2.0940   -1.5020   -0.6190 C   0  0  1  0  0  0  0  0  0  0  0  0
   -3.3440   -1.5020   -1.5180 C   0  0  0  0  0  0  0  0  0  0  0  0
   -4.4390   -1.1160   -0.7010 O   0  0  0  0  0  0  0  0  0  0  0  0
   -1.9430   -0.1110   -0.0480 C   0  0  0  0  0  0  0  0  0  0  0  0
   -2.5370    0.0050    1.0470 O   0  0  0  0  0  0  0  0  0  0  0  0
   -1.2260    0.8800   -0.6910 N   0  0  0  0  0  0  0  0  0  0  0  0
   -0.5330    0.4650   -1.9330 C   0  0  0  0  0  0  0  0  0  0  0  0
    0.8430   -0.0150   -1.6020 C   0  0  0  0  0  0  0  0  0  0  0  0
    1.5550   -0.4010   -2.5540 O   0  0  0  0  0  0  0  0  0  0  0  0
    1.3530   -0.0480   -0.3020 N   0  0  0  0  0  0  0  0  0  0  0  0
    2.6340   -0.4720    0.1410 C   0  0  0  0  0  0  0  0  0  0  0  0
    2.8690   -0.6440    1.4990 C   0  0  0  0  0  0  0  0  0  0  0  0
    4.0970   -1.0390    1.9490 C   0  0  0  0  0  0  0  0  0  0  0  0
    5.1140   -1.2690    1.0430 C   0  0  0  0  0  0  0  0  0  0  0  0
    4.9270   -1.1120   -0.3050 C   0  0  0  0  0  0  0  0  0  0  0  0
    5.9610   -1.3460   -1.2240 O   0  0  0  0  0  0  0  0  0  0  0  0
    3.6570   -0.7060   -0.7330 C   0  0  0  0  0  0  0  0  0  0  0  0
   -1.0360    2.1960   -0.3090 C   0  0  0  0  0  0  0  0  0  0  0  0
   -0.1710    2.8070   -1.1190 O   0  0  0  0  0  0  0  0  0  0  0  0
   -1.5310    3.0440    0.7230 C   0  0  0  0  0  0  0  0  0  0  0  0
   -1.0050    4.3220    0.9910 C   0  0  0  0  0  0  0  0  0  0  0  0
   -1.7330    4.9000    2.0060 C   0  0  0  0  0  0  0  0  0  0  0  0
   -2.6320    4.0470    2.3330 O   0  0  0  0  0  0  0  0  0  0  0  0
   -2.5570    2.9270    1.6020 C   0  0  0  0  0  0  0  0  0  0  0  0
  1  2  2  0
  2  3  1  0
  3  4  1  0
  4  5  1  6
  4  7  1  0
  5  6  1  0
  7  8  2  0
  7  9  1  0
  9 10  1  0
  9 21  1  0
 10 11  1  0
 11 12  2  0
 11 13  1  0
 13 14  1  0
 14 15  2  0
 14 20  1  0
 15 16  1  0
 16 17  2  0
 17 18  1  0
 18 19  1  0
 18 20  2  0
 21 22  2  0
 21 23  1  0
 23 24  1  0
 23 27  2  0
 24 25  2  0
 25 26  1  0
 26 27  1  0
M  END
