
     RDKit          3D

 27 28  0  0  0  0  0  0  0  0999 V2000
   -0.1900    3.5100   -0.5940 C   0  0  0  0  0  0  0  0  0  0  0  0
   -0.5130    2.3080    0.0380 O   0  0  0  0  0  0  0  0  0  0  0  0
   -1.6140    1.5090   -0.3550 C   0  0  0  0  0  0  0  0  0  0  0  0
   -2.2580    1.9830   -1.3140 O   0  0  0  0  0  0  0  0  0  0  0  0
   -1.8990    0.2720    0.3410 C   0  0  0  0  0  0  0  0  0  0  0  0
   -1.1400   -0.0990    1.3320 C   0  0  0  0  0  0  0  0  0  0  0  0
   -0.0210    0.6450    1.7950 N   0  0  0  0  0  0  0  0  0  0  0  0
    1.2960    0.2160    1.4690 C   0  0  0  0  0  0  0  0  0  0  0  0
    1.4840   -0.3330    0.3310 N   0  0  0  0  0  0  0  0  0  0  0  0
    2.6990   -0.8200   -0.1730 C   0  0  0  0  0  0  0  0  0  0  0  0
    2.7540   -2.0750   -0.3890 O   0  0  0  0  0  0  0  0  0  0  0  0
    3.8610   -0.0040   -0.4540 C   0  0  0  0  0  0  0  0  0  0  0  0
    5.0150   -0.5860   -0.9490 C   0  0  0  0  0  0  0  0  0  0  0  0
    6.1260    0.1850   -1.2210 C   0  0  0  0  0  0  0  0  0  0  0  0
    6.0920    1.4620   -1.0130 O   0  0  0  0  0  0  0  0  0  0  0  0
    5.0220    2.0830   -0.5420 C   0  0  0  0  0  0  0  0  0  0  0  0
    5.1150    3.3270   -0.3840 O   0  0  0  0  0  0  0  0  0  0  0  0
    3.8990    1.3570   -0.2590 C   0  0  0  0  0  0  0  0  0  0  0  0
   -1.4220   -1.2820    1.9860 O   0  0  0  0  0  0  0  0  0  0  0  0
   -1.0130   -2.5210    1.4360 C   0  0  0  0  0  0  0  0  0  0  0  0
   -3.0350   -0.5370   -0.0480 C   0  0  0  0  0  0  0  0  0  0  0  0
   -3.8710   -1.0360    0.9540 C   0  0  0  0  0  0  0  0  0  0  0  0
   -4.9460   -1.8190    0.6060 C   0  0  0  0  0  0  0  0  0  0  0  0
   -5.2190   -2.1230   -0.7100 C   0  0  0  0  0  0  0  0  0  0  0  0
   -4.3900   -1.6220   -1.6470 N   0  0  0  0  0  0  0  0  0  0  0  0
   -3.3320   -0.8560   -1.3460 C   0  0  0  0  0  0  0  0  0  0  0  0
   -2.5700   -0.4030   -2.2590 O   0  0  0  0  0  0  0  0  0  0  0  0
  1  2  1  0
  2  3  1  0
  3  4  2  0
  3  5  1  0
  5  6  2  3
  5 21  1  0
  6  7  1  0
  6 19  1  0
  7  8  1  0
  8  9  2  3
  9 10  1  0
 10 11  2  0
 10 12  1  0
 12 13  1  0
 12 18  2  0
 13 14  2  0
 14 15  1  0
 15 16  1  0
 16 17  2  0
 16 18  1  0
 19 20  1  0
 21 22  2  0
 21 26  1  0
 22 23  1  0
 23 24  2  0
 24 25  1  0
 25 26  1  0
 26 27  2  0
M  END
