
     RDKit          3D

 27 27  0  0  0  0  0  0  0  0999 V2000
    5.9770   -2.0630   -0.9040 C   0  0  0  0  0  0  0  0  0  0  0  0
    4.8800   -1.2850   -0.5460 O   0  0  0  0  0  0  0  0  0  0  0  0
    3.8270   -0.9560   -1.3780 C   0  0  0  0  0  0  0  0  0  0  0  0
    3.8760   -1.3950   -2.5310 O   0  0  0  0  0  0  0  0  0  0  0  0
    2.6990   -0.1010   -0.8510 C   0  0  0  0  0  0  0  0  0  0  0  0
    2.7820    0.3020    0.3800 C   0  0  0  0  0  0  0  0  0  0  0  0
    1.9740    1.1050    1.2600 C   0  0  0  0  0  0  0  0  0  0  0  0
    2.2380    0.8080    2.6690 O   0  0  0  0  0  0  0  0  0  0  0  0
    2.6040    1.8590    3.3850 O   0  0  0  0  0  0  0  0  0  0  0  0
    1.0710    2.0220    1.0880 C   0  0  0  0  0  0  0  0  0  0  0  0
    0.4520    2.6540   -0.0400 C   0  0  0  0  0  0  0  0  0  0  0  0
   -0.7410    2.5770   -0.5880 C   0  0  0  0  0  0  0  0  0  0  0  0
   -1.9130    1.8090   -0.2390 C   0  0  0  0  0  0  0  0  0  0  0  0
   -3.1550    2.2590   -0.5480 C   0  0  0  0  0  0  0  0  0  0  0  0
   -3.3960    3.5200   -1.2350 C   0  0  0  0  0  0  0  0  0  0  0  0
   -4.1860    4.3850   -0.4500 O   0  0  0  0  0  0  0  0  0  0  0  0
   -1.9060    0.5720    0.4770 N   0  0  0  0  0  0  0  0  0  0  0  0
   -1.0680   -0.5620    0.2760 C   0  0  0  0  0  0  0  0  0  0  0  0
   -1.1890   -1.7120    1.2460 C   0  0  2  0  0  0  0  0  0  0  0  0
   -0.2420   -2.7620    0.9890 N   0  0  0  0  0  0  0  0  0  0  0  0
   -2.5300   -2.3410    1.1680 C   0  0  0  0  0  0  0  0  0  0  0  0
   -3.5440   -1.6340    1.3640 O   0  0  0  0  0  0  0  0  0  0  0  0
   -2.7410   -3.6830    0.8880 O   0  0  0  0  0  0  0  0  0  0  0  0
   -4.0300   -4.2720    0.8160 C   0  0  0  0  0  0  0  0  0  0  0  0
   -0.2260   -0.7150   -0.6270 N   0  0  0  0  0  0  0  0  0  0  0  0
    0.3440   -0.1440   -1.7130 C   0  0  0  0  0  0  0  0  0  0  0  0
    1.6620    0.1420   -1.8360 C   0  0  0  0  0  0  0  0  0  0  0  0
  1  2  1  0
  2  3  1  0
  3  4  2  0
  3  5  1  0
  5  6  2  0
  5 27  1  0
  6  7  1  0
  7  8  1  0
  7 10  2  0
  8  9  1  0
 10 11  1  0
 11 12  2  0
 12 13  1  0
 13 14  2  3
 13 17  1  0
 14 15  1  0
 15 16  1  0
 17 18  1  0
 18 19  1  0
 18 25  2  0
 19 20  1  6
 19 21  1  0
 21 22  2  0
 21 23  1  0
 23 24  1  0
 25 26  1  0
 26 27  2  0
M  END
