
     RDKit          3D

 30 32  0  0  0  0  0  0  0  0999 V2000
   -1.5820   -1.8240   -0.5680 C   0  0  0  0  0  0  0  0  0  0  0  0
   -2.8750   -1.2890    0.0010 C   0  0  1  0  0  0  0  0  0  0  0  0
   -3.9580   -1.7530   -0.9890 C   0  0  0  0  0  0  0  0  0  0  0  0
   -3.0730   -1.9470    1.3420 C   0  0  0  0  0  0  0  0  0  0  0  0
   -4.5650   -1.8970    1.6790 C   0  0  0  0  0  0  0  0  0  0  0  0
   -5.0460   -0.2090    1.5800 S   0  0  1  0  0  0  0  0  0  0  0  0
   -6.3500   -0.0120    0.8350 O   0  0  0  0  0  0  0  0  0  0  0  0
   -5.3620    0.2250    3.0070 O   0  0  0  0  0  0  0  0  0  0  0  0
   -3.7600    0.8320    1.0110 C   0  0  0  0  0  0  0  0  0  0  0  0
   -2.8340    0.1920    0.0200 C   0  0  1  0  0  0  0  0  0  0  0  0
   -1.4840    0.6900    0.1850 N   0  0  0  0  0  0  0  0  0  0  0  0
   -0.8300    1.3250   -0.9020 C   0  0  0  0  0  0  0  0  0  0  0  0
   -1.5480    1.3910   -1.9880 O   0  0  0  0  0  0  0  0  0  0  0  0
    0.4820    1.9040   -0.9980 C   0  0  1  0  0  0  0  0  0  0  0  0
    0.7880    2.0330   -2.5160 C   0  0  0  0  0  0  0  0  0  0  0  0
    0.3060    3.4060   -0.5710 C   0  0  0  0  0  0  0  0  0  0  0  0
    1.5810    4.1070   -0.5860 C   0  0  0  0  0  0  0  0  0  0  0  0
    1.6450    5.4850   -0.3110 N   0  0  0  0  0  0  0  0  0  0  0  0
    2.6440    3.4920   -0.8490 O   0  0  0  0  0  0  0  0  0  0  0  0
    1.8760    1.3290   -0.1080 S   0  0  0  0  0  0  0  0  0  0  0  0
    2.4350   -0.3300   -0.3680 C   0  0  2  0  0  0  0  0  0  0  0  0
    2.1160   -1.2120    0.7860 C   0  0  0  0  0  0  0  0  0  0  0  0
    3.3160   -1.9670    1.2710 C   0  0  0  0  0  0  0  0  0  0  0  0
    3.3620   -3.0570    2.1040 C   0  0  0  0  0  0  0  0  0  0  0  0
    4.6350   -3.3980    2.2470 O   0  0  0  0  0  0  0  0  0  0  0  0
    5.4170   -2.5990    1.5600 C   0  0  0  0  0  0  0  0  0  0  0  0
    4.6140   -1.6890    0.9360 C   0  0  0  0  0  0  0  0  0  0  0  0
    4.8950   -0.5410    0.0530 C   0  0  0  0  0  0  0  0  0  0  0  0
    3.7910   -0.4900   -0.9510 C   0  0  2  0  0  0  0  0  0  0  0  0
    4.0750    0.5000   -1.8880 O   0  0  0  0  0  0  0  0  0  0  0  0
  2  1  1  6
  2  3  1  0
  2  4  1  0
  2 10  1  0
  4  5  1  0
  6  5  1  1
  6  7  2  0
  6  8  2  0
  6  9  1  0
  9 10  1  0
 10 11  1  1
 11 12  1  0
 12 13  2  0
 12 14  1  0
 14 15  1  6
 14 16  1  0
 14 20  1  0
 16 17  1  0
 17 18  1  0
 17 19  2  0
 21 20  1  1
 21 22  1  0
 21 29  1  0
 22 23  1  0
 23 24  2  0
 23 27  1  0
 24 25  1  0
 25 26  1  0
 26 27  2  0
 27 28  1  0
 28 29  1  0
 29 30  1  6
M  END
