
     RDKit          3D

 42 45  0  0  0  0  0  0  0  0999 V2000
   -3.7620   -4.2580   -0.9650 C   0  0  0  0  0  0  0  0  0  0  0  0
   -3.3040   -3.8960    0.4150 C   0  0  0  0  0  0  0  0  0  0  0  0
   -2.5030   -2.5380    0.3380 N   0  0  0  0  0  0  0  0  0  0  0  0
   -3.3640   -1.4660    0.7410 C   0  0  0  0  0  0  0  0  0  0  0  0
   -4.3070   -1.0540   -0.3830 C   0  0  0  0  0  0  0  0  0  0  0  0
   -5.4110   -0.1670   -0.0160 N   0  0  0  0  0  0  0  0  0  0  0  0
   -6.3870   -0.7190    0.8900 C   0  0  0  0  0  0  0  0  0  0  0  0
   -7.6000   -0.1870    1.2010 C   0  0  0  0  0  0  0  0  0  0  0  0
   -8.7040   -0.8080    2.2400 Cl  0  0  0  0  0  0  0  0  0  0  0  0
   -7.8160    1.0770    0.4810 O   0  0  0  0  0  0  0  0  0  0  0  0
   -7.0100    1.6630   -0.3490 C   0  0  0  0  0  0  0  0  0  0  0  0
   -7.3940    2.8560   -0.9650 C   0  0  0  0  0  0  0  0  0  0  0  0
   -6.3640    3.3530   -1.7760 O   0  0  0  0  0  0  0  0  0  0  0  0
   -5.2600    2.7980   -2.2540 C   0  0  0  0  0  0  0  0  0  0  0  0
   -4.9020    1.5160   -1.5850 C   0  0  0  0  0  0  0  0  0  0  0  0
   -5.7250    1.0600   -0.6700 C   0  0  0  0  0  0  0  0  0  0  0  0
   -1.2260   -2.7570   -0.1130 C   0  0  0  0  0  0  0  0  0  0  0  0
   -0.9500   -3.7910   -0.6820 O   0  0  0  0  0  0  0  0  0  0  0  0
   -0.0920   -1.7430    0.0900 C   0  0  0  0  0  0  0  0  0  0  0  0
   -0.0740   -0.5760    0.3780 C   0  0  0  0  0  0  0  0  0  0  0  0
    1.0880    0.1840    0.7540 N   0  0  0  0  0  0  0  0  0  0  0  0
    2.2490   -0.3960    0.7960 C   0  0  0  0  0  0  0  0  0  0  0  0
    3.5030   -0.0970    1.2860 N   0  0  0  0  0  0  0  0  0  0  0  0
    4.5050    0.9040    1.6240 C   0  0  0  0  0  0  0  0  0  0  0  0
    5.1310    0.7280    2.7150 C   0  0  0  0  0  0  0  0  0  0  0  0
    5.9560    0.7860    3.8260 C   0  0  1  0  0  0  0  0  0  0  0  0
    7.2940    0.8260    3.4970 F   0  0  0  0  0  0  0  0  0  0  0  0
    5.6510    1.7450    4.8060 F   0  0  0  0  0  0  0  0  0  0  0  0
    5.9460   -0.4210    4.6270 F   0  0  0  0  0  0  0  0  0  0  0  0
    4.9660    1.5750    0.4510 C   0  0  0  0  0  0  0  0  0  0  0  0
    2.9210    2.5550    0.6850 Cl  0  0  0  0  0  0  0  0  0  0  0  0
    4.7810    2.1080   -0.6730 C   0  0  0  0  0  0  0  0  0  0  0  0
    6.1870    2.5940   -1.2570 C   0  0  0  0  0  0  0  0  0  0  0  0
    6.3980    3.2450   -2.2210 C   0  0  0  0  0  0  0  0  0  0  0  0
    7.8740    3.4410   -2.3890 C   0  0  0  0  0  0  0  0  0  0  0  0
    8.4900    2.5910   -1.3450 C   0  0  0  0  0  0  0  0  0  0  0  0
    7.4310    2.0770   -0.6000 C   0  0  0  0  0  0  0  0  0  0  0  0
    7.5560    1.3100    0.4640 F   0  0  0  0  0  0  0  0  0  0  0  0
    2.2020   -1.8290    0.4090 C   0  0  0  0  0  0  0  0  0  0  0  0
    3.5240   -2.2640    0.0610 C   0  0  0  0  0  0  0  0  0  0  0  0
    4.6860   -2.6560   -0.2350 N   0  0  0  0  0  0  0  0  0  0  0  0
    1.1760   -2.5670    0.0620 C   0  0  0  0  0  0  0  0  0  0  0  0
  1  2  1  0
  2  3  1  0
  3  4  1  0
  3 17  1  0
  4  5  1  0
  5  6  1  0
  6  7  1  0
  6 16  1  0
  7  8  2  0
  8  9  1  0
  8 10  1  0
 10 11  1  0
 11 12  2  0
 11 16  1  0
 12 13  1  0
 13 14  1  0
 14 15  1  0
 15 16  2  0
 17 18  2  0
 17 19  1  0
 19 20  2  0
 19 42  1  0
 20 21  1  0
 21 22  2  0
 22 23  1  0
 22 39  1  0
 23 24  1  0
 24 25  2  3
 24 30  1  0
 25 26  1  0
 26 27  1  6
 26 28  1  0
 26 29  1  0
 30 31  1  0
 30 32  2  3
 32 33  1  0
 33 34  2  0
 33 37  1  0
 34 35  1  0
 35 36  1  0
 36 37  2  0
 37 38  1  0
 39 40  1  0
 39 42  2  0
 40 41  3  0
M  END
