
     RDKit          3D

 42 46  0  0  0  0  0  0  0  0999 V2000
   -0.8480    1.1080   -0.3430 C   0  0  0  0  0  0  0  0  0  0  0  0
   -1.0590   -0.3280    0.1480 C   0  0  1  0  0  0  0  0  0  0  0  0
   -2.3520   -0.5040    0.7230 N   0  0  0  0  0  0  0  0  0  0  0  0
   -3.4610   -0.8500   -0.0850 C   0  0  0  0  0  0  0  0  0  0  0  0
   -4.7720   -0.6630    0.3770 C   0  0  0  0  0  0  0  0  0  0  0  0
   -5.8750   -0.9960   -0.3760 C   0  0  0  0  0  0  0  0  0  0  0  0
   -7.2730   -0.8150    0.0750 C   0  0  0  0  0  0  0  0  0  0  0  0
   -7.9420    0.3760   -0.5740 C   0  0  0  0  0  0  0  0  0  0  0  0
   -9.3600    0.4930   -0.0630 C   0  0  0  0  0  0  0  0  0  0  0  0
  -10.0770    1.6750   -0.6830 C   0  0  1  0  0  0  0  0  0  0  0  0
   -9.4670    2.8650   -0.4180 F   0  0  0  0  0  0  0  0  0  0  0  0
  -10.1770    1.4230   -2.4460 Cl  0  0  0  0  0  0  0  0  0  0  0  0
   -5.6420   -1.5260   -1.6180 C   0  0  0  0  0  0  0  0  0  0  0  0
   -7.0050   -1.9670   -2.6150 Cl  0  0  0  0  0  0  0  0  0  0  0  0
   -4.3660   -1.7150   -2.0870 C   0  0  0  0  0  0  0  0  0  0  0  0
   -3.2360   -1.3800   -1.3280 C   0  0  0  0  0  0  0  0  0  0  0  0
   -1.8840   -1.5890   -1.8460 C   0  0  0  0  0  0  0  0  0  0  0  0
   -0.8260   -1.1700   -0.9890 N   0  0  0  0  0  0  0  0  0  0  0  0
    0.5950   -1.4170   -0.9960 C   0  0  0  0  0  0  0  0  0  0  0  0
    1.2580   -1.8230   -2.0000 O   0  0  0  0  0  0  0  0  0  0  0  0
    1.1260   -1.1350    0.2910 N   0  0  0  0  0  0  0  0  0  0  0  0
    2.5300   -1.2580    0.7140 C   0  0  0  0  0  0  0  0  0  0  0  0
    3.2180    0.0290    0.5130 C   0  0  0  0  0  0  0  0  0  0  0  0
    2.6170    1.1060    0.0010 N   0  0  0  0  0  0  0  0  0  0  0  0
    3.2670    2.2800   -0.1630 C   0  0  0  0  0  0  0  0  0  0  0  0
    4.5880    2.4080    0.1960 C   0  0  0  0  0  0  0  0  0  0  0  0
    5.2720    3.6010    0.0490 C   0  0  0  0  0  0  0  0  0  0  0  0
    6.5930    3.7190    0.4230 C   0  0  0  0  0  0  0  0  0  0  0  0
    7.2310    2.6300    0.9490 C   0  0  0  0  0  0  0  0  0  0  0  0
    6.5450    1.3980    1.1060 C   0  0  0  0  0  0  0  0  0  0  0  0
    7.2630    0.2710    1.6360 C   0  0  0  0  0  0  0  0  0  0  0  0
    8.4220    0.4970    2.1310 O   0  0  0  0  0  0  0  0  0  0  0  0
    6.7910   -1.1000    1.6570 C   0  0  0  0  0  0  0  0  0  0  0  0
    7.0050   -1.7530    0.3110 C   0  0  0  0  0  0  0  0  0  0  0  0
    8.4750   -1.7620   -0.0190 C   0  0  2  0  0  0  0  0  0  0  0  0
    9.0290   -0.5150   -0.0900 F   0  0  0  0  0  0  0  0  0  0  0  0
    8.7150   -2.4630   -1.2020 F   0  0  0  0  0  0  0  0  0  0  0  0
    9.1200   -2.4950    0.9780 F   0  0  0  0  0  0  0  0  0  0  0  0
    5.2280    1.2980    0.7280 C   0  0  0  0  0  0  0  0  0  0  0  0
    4.5020    0.1650    0.8570 N   0  0  0  0  0  0  0  0  0  0  0  0
    0.0300   -0.7160    1.0790 C   0  0  0  0  0  0  0  0  0  0  0  0
   -0.0060   -0.6810    2.3210 O   0  0  0  0  0  0  0  0  0  0  0  0
  2  1  1  6
  2  3  1  0
  2 18  1  0
  2 41  1  0
  3  4  1  0
  4  5  2  0
  4 16  1  0
  5  6  1  0
  6  7  1  0
  6 13  2  0
  7  8  1  0
  8  9  1  0
  9 10  1  0
 10 11  1  6
 10 12  1  0
 13 14  1  0
 13 15  1  0
 15 16  2  0
 16 17  1  0
 17 18  1  0
 18 19  1  0
 19 20  2  0
 19 21  1  0
 21 22  1  0
 21 41  1  0
 22 23  1  0
 23 24  2  0
 23 40  1  0
 24 25  1  0
 25 26  2  0
 26 27  1  0
 26 39  1  0
 27 28  2  0
 28 29  1  0
 29 30  2  0
 30 31  1  0
 30 39  1  0
 31 32  2  0
 31 33  1  0
 33 34  1  0
 34 35  1  0
 35 36  1  6
 35 37  1  0
 35 38  1  0
 39 40  2  0
 41 42  2  0
M  END
