
     RDKit          3D

 42 46  0  0  0  0  0  0  0  0999 V2000
   -1.6260   -1.5480    2.2990 O   0  0  0  0  0  0  0  0  0  0  0  0
   -2.1230   -1.7810    1.1550 C   0  0  0  0  0  0  0  0  0  0  0  0
   -1.6480   -2.7920    0.3580 C   0  0  0  0  0  0  0  0  0  0  0  0
   -2.2280   -3.0090   -0.8890 C   0  0  0  0  0  0  0  0  0  0  0  0
   -1.7550   -4.0250   -1.6900 C   0  0  0  0  0  0  0  0  0  0  0  0
   -0.7060   -4.7940   -1.2040 C   0  0  0  0  0  0  0  0  0  0  0  0
   -0.1700   -4.5360    0.0350 C   0  0  0  0  0  0  0  0  0  0  0  0
    0.7790   -5.2170    0.4970 O   0  0  0  0  0  0  0  0  0  0  0  0
   -0.6430   -3.5310    0.8200 N   0  0  0  0  0  0  0  0  0  0  0  0
   -0.0960   -3.2750    2.1000 C   0  0  0  0  0  0  0  0  0  0  0  0
   -0.5130   -3.8870    3.2060 N   0  0  0  0  0  0  0  0  0  0  0  0
   -0.0140   -3.6710    4.4180 C   0  0  0  0  0  0  0  0  0  0  0  0
    1.0030   -2.7620    4.5730 C   0  0  0  0  0  0  0  0  0  0  0  0
    1.4710   -2.1020    3.4550 C   0  0  0  0  0  0  0  0  0  0  0  0
    0.9540   -2.3200    2.1840 C   0  0  0  0  0  0  0  0  0  0  0  0
    1.3110   -1.7560    1.0580 O   0  0  0  0  0  0  0  0  0  0  0  0
    2.1000   -0.8580    0.4960 C   0  0  0  0  0  0  0  0  0  0  0  0
    2.9900   -0.0190    1.1260 C   0  0  0  0  0  0  0  0  0  0  0  0
    3.7880    0.9030    0.4370 C   0  0  0  0  0  0  0  0  0  0  0  0
    4.7980    1.9250    1.4070 Cl  0  0  0  0  0  0  0  0  0  0  0  0
    3.7280    1.0210   -0.9180 C   0  0  0  0  0  0  0  0  0  0  0  0
    4.5900    1.8950   -1.7310 C   0  0  0  0  0  0  0  0  0  0  0  0
    4.2200    2.1680   -2.9630 C   0  0  0  0  0  0  0  0  0  0  0  0
    4.8880    3.0030   -3.9670 C   0  0  0  0  0  0  0  0  0  0  0  0
    5.2670    2.2610   -5.0860 F   0  0  0  0  0  0  0  0  0  0  0  0
    5.8920    2.4030   -1.2010 C   0  0  2  0  0  0  0  0  0  0  0  0
    6.7540    2.6110   -2.2850 F   0  0  0  0  0  0  0  0  0  0  0  0
    6.5020    1.3860   -0.4690 F   0  0  0  0  0  0  0  0  0  0  0  0
    5.7360    3.5370   -0.4760 F   0  0  0  0  0  0  0  0  0  0  0  0
    2.8280    0.1770   -1.5780 C   0  0  0  0  0  0  0  0  0  0  0  0
    2.0410   -0.7280   -0.9160 C   0  0  0  0  0  0  0  0  0  0  0  0
    0.9210   -1.7710   -1.7690 Cl  0  0  0  0  0  0  0  0  0  0  0  0
   -3.2420   -2.2100   -1.2680 N   0  0  0  0  0  0  0  0  0  0  0  0
   -3.6730   -1.2320   -0.4540 C   0  0  0  0  0  0  0  0  0  0  0  0
   -3.1520   -0.9880    0.7420 N   0  0  0  0  0  0  0  0  0  0  0  0
   -3.6000    0.0630    1.6500 C   0  0  0  0  0  0  0  0  0  0  0  0
   -2.8560    1.3590    1.4470 C   0  0  0  0  0  0  0  0  0  0  0  0
   -3.0980    1.8620    0.1200 N   0  0  0  0  0  0  0  0  0  0  0  0
   -4.4850    2.3320   -0.0040 C   0  0  0  0  0  0  0  0  0  0  0  0
   -4.4650    3.3960   -1.0900 C   0  0  0  0  0  0  0  0  0  0  0  0
   -2.9810    3.5680   -1.4250 C   0  0  0  0  0  0  0  0  0  0  0  0
   -2.3600    3.0850   -0.1290 C   0  0  0  0  0  0  0  0  0  0  0  0
  1  2  2  0
  2  3  1  0
  2 35  1  0
  3  4  2  0
  3  9  1  0
  4  5  1  0
  4 33  1  0
  5  6  2  0
  6  7  1  0
  7  8  2  0
  7  9  1  0
  9 10  1  0
 10 11  2  0
 10 15  1  0
 11 12  1  0
 12 13  2  0
 13 14  1  0
 14 15  2  0
 15 16  1  0
 16 17  1  0
 17 18  2  0
 17 31  1  0
 18 19  1  0
 19 20  1  0
 19 21  2  0
 21 22  1  0
 21 30  1  0
 22 23  2  3
 22 26  1  0
 23 24  1  0
 24 25  1  0
 26 27  1  6
 26 28  1  0
 26 29  1  0
 30 31  2  0
 31 32  1  0
 33 34  2  0
 34 35  1  0
 35 36  1  0
 36 37  1  0
 37 38  1  0
 38 39  1  0
 38 42  1  0
 39 40  1  0
 40 41  1  0
 41 42  1  0
M  END
