
     RDKit          3D

 42 46  0  0  0  0  0  0  0  0999 V2000
    3.8520   -0.8910   -4.6250 C   0  0  0  0  0  0  0  0  0  0  0  0
    3.5690   -0.6880   -3.1810 C   0  0  0  0  0  0  0  0  0  0  0  0
    4.1110    0.4170   -2.5310 C   0  0  0  0  0  0  0  0  0  0  0  0
    3.9030    0.6730   -1.1980 C   0  0  0  0  0  0  0  0  0  0  0  0
    3.1060   -0.2340   -0.4770 C   0  0  0  0  0  0  0  0  0  0  0  0
    2.9170    0.0080    0.8960 N   0  0  0  0  0  0  0  0  0  0  0  0
    3.4580   -0.7700    1.9900 C   0  0  0  0  0  0  0  0  0  0  0  0
    4.4990   -1.7490    1.6750 C   0  0  0  0  0  0  0  0  0  0  0  0
    5.7080   -1.2390    1.1020 N   0  0  0  0  0  0  0  0  0  0  0  0
    6.5520   -0.3000    1.7530 C   0  0  0  0  0  0  0  0  0  0  0  0
    6.1670    0.0600    2.8940 O   0  0  0  0  0  0  0  0  0  0  0  0
    7.7050    0.1750    1.1700 O   0  0  0  0  0  0  0  0  0  0  0  0
    8.5730    1.0940    1.7480 C   0  0  0  0  0  0  0  0  0  0  0  0
    7.9990    2.4490    2.0480 C   0  0  1  0  0  0  0  0  0  0  0  0
    6.9560    2.4280    2.9100 F   0  0  0  0  0  0  0  0  0  0  0  0
    9.0490    3.2480    2.5320 F   0  0  0  0  0  0  0  0  0  0  0  0
    7.5480    3.0790    0.8870 F   0  0  0  0  0  0  0  0  0  0  0  0
    2.0860    1.1240    1.2840 C   0  0  0  0  0  0  0  0  0  0  0  0
    0.6760    1.0570    0.8870 C   0  0  0  0  0  0  0  0  0  0  0  0
   -0.0100    2.1200    0.3840 N   0  0  0  0  0  0  0  0  0  0  0  0
   -1.2500    1.7240    0.1350 N   0  0  0  0  0  0  0  0  0  0  0  0
   -1.3410    0.4330    0.4770 C   0  0  0  0  0  0  0  0  0  0  0  0
   -2.5190   -0.4130    0.3740 C   0  0  0  0  0  0  0  0  0  0  0  0
   -2.5270   -1.7580    0.6790 C   0  0  0  0  0  0  0  0  0  0  0  0
   -3.6680   -2.5310    0.5910 C   0  0  0  0  0  0  0  0  0  0  0  0
   -4.8700   -1.9670    0.1850 C   0  0  0  0  0  0  0  0  0  0  0  0
   -6.2880   -2.9920    0.0910 Cl  0  0  0  0  0  0  0  0  0  0  0  0
   -4.8790   -0.6260   -0.1220 C   0  0  0  0  0  0  0  0  0  0  0  0
   -6.1000   -0.0380   -0.5180 N   0  0  0  0  0  0  0  0  0  0  0  0
   -6.8820   -0.3710   -1.6670 C   0  0  0  0  0  0  0  0  0  0  0  0
   -8.2340    0.1740   -1.4420 C   0  0  0  0  0  0  0  0  0  0  0  0
   -9.4900    0.2120   -1.8470 C   0  0  0  0  0  0  0  0  0  0  0  0
  -10.2910    1.1010   -0.9690 C   0  0  0  0  0  0  0  0  0  0  0  0
   -9.3110    1.5800    0.0160 C   0  0  0  0  0  0  0  0  0  0  0  0
   -9.5800    2.4290    1.0350 F   0  0  0  0  0  0  0  0  0  0  0  0
   -8.1430    1.0370   -0.2750 C   0  0  0  0  0  0  0  0  0  0  0  0
   -6.7580    1.0190    0.2040 C   0  0  0  0  0  0  0  0  0  0  0  0
   -3.7410    0.1330   -0.0320 C   0  0  0  0  0  0  0  0  0  0  0  0
   -0.1680    0.0900    0.9160 O   0  0  0  0  0  0  0  0  0  0  0  0
    2.5470   -1.3380   -1.0700 C   0  0  0  0  0  0  0  0  0  0  0  0
    1.5390   -2.4770   -0.2080 Cl  0  0  0  0  0  0  0  0  0  0  0  0
    2.8030   -1.5310   -2.4270 C   0  0  0  0  0  0  0  0  0  0  0  0
  1  2  1  0
  2  3  2  0
  2 42  1  0
  3  4  1  0
  4  5  2  0
  5  6  1  0
  5 40  1  0
  6  7  1  0
  6 18  1  0
  7  8  1  0
  8  9  1  0
  9 10  1  0
 10 11  2  0
 10 12  1  0
 12 13  1  0
 13 14  1  0
 14 15  1  1
 14 16  1  0
 14 17  1  0
 18 19  1  0
 19 20  2  0
 19 39  1  0
 20 21  1  0
 21 22  2  0
 22 23  1  0
 22 39  1  0
 23 24  2  0
 23 38  1  0
 24 25  1  0
 25 26  2  0
 26 27  1  0
 26 28  1  0
 28 29  1  0
 28 38  2  0
 29 30  1  0
 29 37  1  0
 30 31  1  0
 31 32  2  0
 31 36  1  0
 32 33  1  0
 33 34  1  0
 34 35  1  0
 34 36  2  0
 36 37  1  0
 40 41  1  0
 40 42  2  0
M  END
