
     RDKit          3D

 42 45  0  0  0  0  0  0  0  0999 V2000
   -4.1910   -1.9860   -1.3290 C   0  0  0  0  0  0  0  0  0  0  0  0
   -3.0260   -1.9960   -2.2650 C   0  0  0  0  0  0  0  0  0  0  0  0
   -1.8840   -1.1650   -1.7010 N   0  0  0  0  0  0  0  0  0  0  0  0
   -1.7760    0.1340   -2.2620 C   0  0  0  0  0  0  0  0  0  0  0  0
   -2.1930    1.2990   -1.4390 C   0  0  0  0  0  0  0  0  0  0  0  0
   -3.3810    1.2460   -0.6500 N   0  0  0  0  0  0  0  0  0  0  0  0
   -3.2370    1.0610    0.8030 C   0  0  0  0  0  0  0  0  0  0  0  0
   -4.2690    0.9940    1.6130 C   0  0  0  0  0  0  0  0  0  0  0  0
   -3.9400    0.7840    3.3390 Cl  0  0  0  0  0  0  0  0  0  0  0  0
   -5.5590    1.0820    1.1430 O   0  0  0  0  0  0  0  0  0  0  0  0
   -5.8960    1.2490   -0.1790 C   0  0  0  0  0  0  0  0  0  0  0  0
   -7.1480    1.3290   -0.6020 C   0  0  0  0  0  0  0  0  0  0  0  0
   -7.2990    1.4680   -1.9550 O   0  0  0  0  0  0  0  0  0  0  0  0
   -6.2980    1.6730   -2.8970 C   0  0  0  0  0  0  0  0  0  0  0  0
   -4.9220    1.5790   -2.3880 C   0  0  0  0  0  0  0  0  0  0  0  0
   -4.7230    1.3390   -1.1020 C   0  0  0  0  0  0  0  0  0  0  0  0
   -1.1100   -1.8410   -0.8250 C   0  0  0  0  0  0  0  0  0  0  0  0
   -1.4420   -3.1270   -0.5840 O   0  0  0  0  0  0  0  0  0  0  0  0
    0.0220   -1.4720   -0.0410 C   0  0  0  0  0  0  0  0  0  0  0  0
    1.0050   -0.6320   -0.3200 C   0  0  0  0  0  0  0  0  0  0  0  0
    1.9490   -0.1950    0.5720 N   0  0  0  0  0  0  0  0  0  0  0  0
    1.8780   -0.6670    1.8710 C   0  0  0  0  0  0  0  0  0  0  0  0
    2.6750   -0.0810    2.8790 N   0  0  0  0  0  0  0  0  0  0  0  0
    3.8440    0.6420    2.7440 C   0  0  0  0  0  0  0  0  0  0  0  0
    3.9720    1.6060    3.8090 C   0  0  0  0  0  0  0  0  0  0  0  0
    2.9110    1.6560    4.7760 C   0  0  1  0  0  0  0  0  0  0  0  0
    1.6410    1.7000    4.2370 F   0  0  0  0  0  0  0  0  0  0  0  0
    3.0530    0.6050    5.6950 F   0  0  0  0  0  0  0  0  0  0  0  0
    3.0060    2.8260    5.5690 F   0  0  0  0  0  0  0  0  0  0  0  0
    4.9390    0.7080    1.8610 C   0  0  0  0  0  0  0  0  0  0  0  0
    6.0470    2.1840    2.2150 Cl  0  0  0  0  0  0  0  0  0  0  0  0
    5.3280    0.1540    0.8780 C   0  0  0  0  0  0  0  0  0  0  0  0
    5.5580   -0.6580   -0.2740 C   0  0  0  0  0  0  0  0  0  0  0  0
    6.8430    0.2670   -0.7330 C   0  0  0  0  0  0  0  0  0  0  0  0
    7.4460   -0.1940   -1.9040 C   0  0  0  0  0  0  0  0  0  0  0  0
    6.6470   -1.3610   -2.2730 C   0  0  0  0  0  0  0  0  0  0  0  0
    5.7980   -1.4110   -1.3670 C   0  0  0  0  0  0  0  0  0  0  0  0
    4.8110   -2.5260   -1.5210 F   0  0  0  0  0  0  0  0  0  0  0  0
    0.9040   -1.5360    2.2310 C   0  0  0  0  0  0  0  0  0  0  0  0
    0.8460   -1.9830    3.5980 C   0  0  0  0  0  0  0  0  0  0  0  0
    0.8040   -2.3650    4.7560 N   0  0  0  0  0  0  0  0  0  0  0  0
   -0.0280   -1.9510    1.3160 C   0  0  0  0  0  0  0  0  0  0  0  0
  1  2  1  0
  2  3  1  0
  3  4  1  0
  3 17  1  0
  4  5  1  0
  5  6  1  0
  6  7  1  0
  6 16  1  0
  7  8  2  0
  8  9  1  0
  8 10  1  0
 10 11  1  0
 11 12  2  0
 11 16  1  0
 12 13  1  0
 13 14  1  0
 14 15  1  0
 15 16  2  0
 17 18  2  0
 17 19  1  0
 19 20  2  0
 19 42  1  0
 20 21  1  0
 21 22  2  0
 22 23  1  0
 22 39  1  0
 23 24  1  0
 24 25  2  3
 24 30  1  0
 25 26  1  0
 26 27  1  6
 26 28  1  0
 26 29  1  0
 30 31  1  0
 30 32  2  3
 32 33  1  0
 33 34  2  0
 33 37  1  0
 34 35  1  0
 35 36  1  0
 36 37  2  0
 37 38  1  0
 39 40  1  0
 39 42  2  0
 40 41  3  0
M  END
