
     RDKit          3D

 31 34  0  0  0  0  0  0  0  0999 V2000
   -5.2010    0.1300   -3.1050 C   0  0  0  0  0  0  0  0  0  0  0  0
   -3.9800   -0.3360   -2.7710 C   0  0  0  0  0  0  0  0  0  0  0  0
   -3.2510    0.1970   -1.6580 C   0  0  0  0  0  0  0  0  0  0  0  0
   -2.1180   -0.0470   -1.1220 C   0  0  0  0  0  0  0  0  0  0  0  0
   -1.6820    0.7160    0.0230 N   0  0  0  0  0  0  0  0  0  0  0  0
   -2.5160    1.7620    0.5520 C   0  0  0  0  0  0  0  0  0  0  0  0
   -3.4800    1.2860    1.5520 C   0  0  0  0  0  0  0  0  0  0  0  0
   -3.5310    0.0170    1.8920 C   0  0  0  0  0  0  0  0  0  0  0  0
   -4.4110    2.2440    2.1910 C   0  0  0  0  0  0  0  0  0  0  0  0
   -0.4440    0.4640    0.6520 C   0  0  0  0  0  0  0  0  0  0  0  0
   -0.1030    1.1380    1.6320 O   0  0  0  0  0  0  0  0  0  0  0  0
    0.4180   -0.5780    0.1460 C   0  0  0  0  0  0  0  0  0  0  0  0
    1.7360   -0.8840    0.7800 C   0  0  2  0  0  0  0  0  0  0  0  0
    1.5900   -1.3180    2.1990 C   0  0  0  0  0  0  0  0  0  0  0  0
    2.7070   -1.0740    3.0500 N   0  0  0  0  0  0  0  0  0  0  0  0
    2.9560   -1.5930    4.2840 C   0  0  0  0  0  0  0  0  0  0  0  0
    4.1360   -1.0740    4.7150 C   0  0  0  0  0  0  0  0  0  0  0  0
    4.6290   -0.2540    3.7970 N   0  0  0  0  0  0  0  0  0  0  0  0
    3.7390   -0.2660    2.7820 C   0  0  0  0  0  0  0  0  0  0  0  0
    3.7480    0.4370    1.5030 C   0  0  0  0  0  0  0  0  0  0  0  0
    4.7140    1.1940    1.2520 O   0  0  0  0  0  0  0  0  0  0  0  0
    2.6590    0.2210    0.6170 N   0  0  0  0  0  0  0  0  0  0  0  0
    2.4820    1.1470   -0.4800 C   0  0  0  0  0  0  0  0  0  0  0  0
    3.2720    0.6010   -1.6500 C   0  0  0  0  0  0  0  0  0  0  0  0
    3.2060    1.3700   -2.7840 O   0  0  0  0  0  0  0  0  0  0  0  0
    3.6780    2.6550   -2.6370 C   0  0  0  0  0  0  0  0  0  0  0  0
    0.0280   -1.2920   -0.9110 C   0  0  0  0  0  0  0  0  0  0  0  0
    0.6980   -2.3640   -1.5930 N   0  0  0  0  0  0  0  0  0  0  0  0
   -0.2770   -3.0620   -2.3750 C   0  0  0  0  0  0  0  0  0  0  0  0
   -1.3460   -2.0220   -2.6180 C   0  0  0  0  0  0  0  0  0  0  0  0
   -1.2200   -1.0700   -1.5750 N   0  0  0  0  0  0  0  0  0  0  0  0
  1  2  2  0
  2  3  1  0
  3  4  2  3
  4  5  1  0
  4 31  1  0
  5  6  1  0
  5 10  1  0
  6  7  1  0
  7  8  2  0
  7  9  1  0
 10 11  2  0
 10 12  1  0
 13 12  1  1
 12 27  2  0
 13 14  1  0
 13 22  1  0
 14 15  1  0
 15 16  1  0
 15 19  1  0
 16 17  2  0
 17 18  1  0
 18 19  2  0
 19 20  1  0
 20 21  2  0
 20 22  1  0
 22 23  1  0
 23 24  1  0
 24 25  1  0
 25 26  1  0
 27 28  1  0
 27 31  1  0
 28 29  1  0
 29 30  1  0
 30 31  1  0
M  END
