
     RDKit          3D

 31 35  0  0  0  0  0  0  0  0999 V2000
   -1.2060    1.3670    2.6530 O   0  0  0  0  0  0  0  0  0  0  0  0
   -1.6990    0.6930    1.7280 C   0  0  0  0  0  0  0  0  0  0  0  0
   -0.8040    0.0070    0.8500 N   0  0  0  0  0  0  0  0  0  0  0  0
    0.6140    0.0520    0.9670 C   0  0  1  0  0  0  0  0  0  0  0  0
    1.3140   -1.2640    1.0470 C   0  0  0  0  0  0  0  0  0  0  0  0
    2.7710   -0.8390    0.8600 C   0  0  0  0  0  0  0  0  0  0  0  0
    2.6540    0.1800   -0.1620 N   0  0  0  0  0  0  0  0  0  0  0  0
    3.7530    0.5790   -0.9800 C   0  0  0  0  0  0  0  0  0  0  0  0
    5.0370    0.1230   -0.8220 C   0  0  0  0  0  0  0  0  0  0  0  0
    6.0770    0.5260   -1.6360 C   0  0  0  0  0  0  0  0  0  0  0  0
    7.4060    0.0530   -1.4760 N   0  0  0  0  0  0  0  0  0  0  0  0
    7.8940   -0.5390   -0.3780 C   0  0  0  0  0  0  0  0  0  0  0  0
    9.2220   -0.8580   -0.6110 C   0  0  0  0  0  0  0  0  0  0  0  0
    9.4940   -0.4270   -1.8970 C   0  0  0  0  0  0  0  0  0  0  0  0
    8.3650    0.1190   -2.3840 N   0  0  0  0  0  0  0  0  0  0  0  0
    5.8030    1.3960   -2.6140 N   0  0  0  0  0  0  0  0  0  0  0  0
    4.5410    1.8710   -2.8030 C   0  0  0  0  0  0  0  0  0  0  0  0
    3.5420    1.4610   -1.9910 N   0  0  0  0  0  0  0  0  0  0  0  0
    1.3000    0.7050   -0.2080 C   0  0  0  0  0  0  0  0  0  0  0  0
   -3.1450    0.6360    1.5840 C   0  0  0  0  0  0  0  0  0  0  0  0
   -3.8790    1.3170    2.4490 C   0  0  0  0  0  0  0  0  0  0  0  0
   -5.3410    1.3270    2.3920 C   0  0  0  0  0  0  0  0  0  0  0  0
   -5.9920    0.6480    1.4600 C   0  0  0  0  0  0  0  0  0  0  0  0
   -5.1930   -0.1060    0.5000 C   0  0  0  0  0  0  0  0  0  0  0  0
   -5.7340   -0.8120   -0.4660 C   0  0  0  0  0  0  0  0  0  0  0  0
   -7.1570   -0.9370   -0.7160 C   0  0  0  0  0  0  0  0  0  0  0  0
   -8.1210    0.0470   -0.7830 C   0  0  0  0  0  0  0  0  0  0  0  0
   -9.3260   -0.5750   -1.0420 C   0  0  0  0  0  0  0  0  0  0  0  0
   -9.0480   -1.9230   -1.1230 C   0  0  0  0  0  0  0  0  0  0  0  0
   -7.7830   -2.0990   -0.9310 O   0  0  0  0  0  0  0  0  0  0  0  0
   -3.7850   -0.0750    0.6100 O   0  0  0  0  0  0  0  0  0  0  0  0
  1  2  2  0
  2  3  1  0
  2 20  1  0
  4  3  1  6
  4  5  1  0
  4 19  1  0
  5  6  1  0
  6  7  1  0
  7  8  1  0
  7 19  1  0
  8  9  2  0
  8 18  1  0
  9 10  1  0
 10 11  1  0
 10 16  2  0
 11 12  1  0
 11 15  1  0
 12 13  2  0
 13 14  1  0
 14 15  2  0
 16 17  1  0
 17 18  2  0
 20 21  2  0
 20 31  1  0
 21 22  1  0
 22 23  2  0
 23 24  1  0
 24 25  2  3
 24 31  1  0
 25 26  1  0
 26 27  2  0
 26 30  1  0
 27 28  1  0
 28 29  2  0
 29 30  1  0
M  END
