
     RDKit          3D

 31 34  0  0  0  0  0  0  0  0999 V2000
    6.1600   -2.8810   -0.3820 C   0  0  0  0  0  0  0  0  0  0  0  0
    6.6160   -1.6490    0.2710 C   0  0  0  0  0  0  0  0  0  0  0  0
    7.5710   -1.7260    1.0790 O   0  0  0  0  0  0  0  0  0  0  0  0
    6.0050   -0.3550    0.0200 C   0  0  0  0  0  0  0  0  0  0  0  0
    4.9930   -0.1990   -0.8820 C   0  0  0  0  0  0  0  0  0  0  0  0
    4.3520    0.9620   -1.1620 N   0  0  0  0  0  0  0  0  0  0  0  0
    3.2640    0.9880   -2.1370 C   0  0  0  0  0  0  0  0  0  0  0  0
    1.9690    0.5870   -1.5590 C   0  0  0  0  0  0  0  0  0  0  0  0
    1.9780   -0.5060   -0.8880 O   0  0  0  0  0  0  0  0  0  0  0  0
    0.7470    1.2740   -1.6740 N   0  0  0  0  0  0  0  0  0  0  0  0
   -0.4730    0.8460   -1.0900 C   0  0  0  0  0  0  0  0  0  0  0  0
   -0.5100    0.0510    0.0050 C   0  0  0  0  0  0  0  0  0  0  0  0
   -1.7230   -0.4190    0.5090 C   0  0  0  0  0  0  0  0  0  0  0  0
   -2.8720   -0.0570   -0.1270 C   0  0  0  0  0  0  0  0  0  0  0  0
   -2.8410    0.7590   -1.2500 C   0  0  0  0  0  0  0  0  0  0  0  0
   -1.6430    1.2160   -1.7380 C   0  0  0  0  0  0  0  0  0  0  0  0
   -4.2070    0.9640   -1.7150 C   0  0  0  0  0  0  0  0  0  0  0  0
   -4.5780    1.6480   -2.7080 O   0  0  0  0  0  0  0  0  0  0  0  0
   -5.0440    0.2330   -0.8200 N   0  0  0  0  0  0  0  0  0  0  0  0
   -6.4740    0.2620   -1.0550 C   0  0  0  0  0  0  0  0  0  0  0  0
   -7.1980    0.5570    0.2490 C   0  0  0  0  0  0  0  0  0  0  0  0
   -7.9080   -0.6680    0.7820 C   0  0  0  0  0  0  0  0  0  0  0  0
   -7.0600   -1.5300    1.6040 C   0  0  0  0  0  0  0  0  0  0  0  0
   -5.7680   -1.7380    1.7690 C   0  0  0  0  0  0  0  0  0  0  0  0
   -4.5240   -1.1990    1.2020 C   0  0  0  0  0  0  0  0  0  0  0  0
   -4.2520   -0.4110    0.1740 C   0  0  0  0  0  0  0  0  0  0  0  0
    4.7480    2.0580   -0.4930 C   0  0  0  0  0  0  0  0  0  0  0  0
    4.1830    3.1750   -0.7120 O   0  0  0  0  0  0  0  0  0  0  0  0
    5.7790    1.9790    0.4470 C   0  0  0  0  0  0  0  0  0  0  0  0
    6.4170    0.7630    0.7080 C   0  0  0  0  0  0  0  0  0  0  0  0
    7.5070    0.7720    1.7190 C   0  0  0  0  0  0  0  0  0  0  0  0
  1  2  1  0
  2  3  2  0
  2  4  1  0
  4  5  2  0
  4 30  1  0
  5  6  1  0
  6  7  1  0
  6 27  1  0
  7  8  1  0
  8  9  2  0
  8 10  1  0
 10 11  1  0
 11 12  2  0
 11 16  1  0
 12 13  1  0
 13 14  2  0
 14 15  1  0
 14 26  1  0
 15 16  2  0
 15 17  1  0
 17 18  2  0
 17 19  1  0
 19 20  1  0
 19 26  1  0
 20 21  1  0
 21 22  1  0
 22 23  1  0
 23 24  2  0
 24 25  1  0
 25 26  2  0
 27 28  2  0
 27 29  1  0
 29 30  2  0
 30 31  1  0
M  END
