
     RDKit          3D

 31 35  0  0  0  0  0  0  0  0999 V2000
   -7.4120    2.7950    1.6500 C   0  0  0  0  0  0  0  0  0  0  0  0
   -6.8420    2.2100    0.4940 O   0  0  0  0  0  0  0  0  0  0  0  0
   -5.6860    1.4470    0.5590 C   0  0  0  0  0  0  0  0  0  0  0  0
   -5.0180    1.2080    1.7400 C   0  0  0  0  0  0  0  0  0  0  0  0
   -3.8520    0.4310    1.7580 C   0  0  0  0  0  0  0  0  0  0  0  0
   -3.3230   -0.1240    0.6150 C   0  0  0  0  0  0  0  0  0  0  0  0
   -2.1290   -0.9120    0.6090 N   0  0  0  0  0  0  0  0  0  0  0  0
   -1.7930   -1.5680   -0.6400 C   0  0  0  0  0  0  0  0  0  0  0  0
   -0.6030   -2.4890   -0.4070 C   0  0  0  0  0  0  0  0  0  0  0  0
    0.4410   -1.6530    0.1370 N   0  0  0  0  0  0  0  0  0  0  0  0
    1.6820   -1.4390   -0.5260 C   0  0  0  0  0  0  0  0  0  0  0  0
    2.6700   -0.6360   -0.0020 C   0  0  0  0  0  0  0  0  0  0  0  0
    3.8760   -0.4280   -0.6510 C   0  0  0  0  0  0  0  0  0  0  0  0
    4.8880    0.4130   -0.0860 N   0  0  0  0  0  0  0  0  0  0  0  0
    4.6800    1.5490    0.6190 C   0  0  0  0  0  0  0  0  0  0  0  0
    3.5360    2.0420    0.8860 O   0  0  0  0  0  0  0  0  0  0  0  0
    5.8620    2.0730    0.9910 N   0  0  0  0  0  0  0  0  0  0  0  0
    6.8300    1.2660    0.5210 C   0  0  0  0  0  0  0  0  0  0  0  0
    8.2000    1.0910    0.4620 C   0  0  0  0  0  0  0  0  0  0  0  0
    8.3760   -0.0720   -0.2600 C   0  0  0  0  0  0  0  0  0  0  0  0
    7.1930   -0.5650   -0.6130 N   0  0  0  0  0  0  0  0  0  0  0  0
    6.2080    0.2350   -0.1480 C   0  0  0  0  0  0  0  0  0  0  0  0
    4.1010   -1.0440   -1.8650 C   0  0  0  0  0  0  0  0  0  0  0  0
    3.0920   -1.8500   -2.3780 C   0  0  0  0  0  0  0  0  0  0  0  0
    1.9400   -2.0210   -1.7110 N   0  0  0  0  0  0  0  0  0  0  0  0
    0.1930   -1.0170    1.4080 C   0  0  0  0  0  0  0  0  0  0  0  0
   -1.2930   -1.0480    1.7770 C   0  0  0  0  0  0  0  0  0  0  0  0
   -4.0110    0.1270   -0.5690 C   0  0  0  0  0  0  0  0  0  0  0  0
   -5.1570    0.8910   -0.5860 C   0  0  0  0  0  0  0  0  0  0  0  0
   -5.8540    1.1480   -1.7750 O   0  0  0  0  0  0  0  0  0  0  0  0
   -5.3310    0.5900   -2.9580 C   0  0  0  0  0  0  0  0  0  0  0  0
  1  2  1  0
  2  3  1  0
  3  4  2  0
  3 29  1  0
  4  5  1  0
  5  6  2  0
  6  7  1  0
  6 28  1  0
  7  8  1  0
  7 27  1  0
  8  9  1  0
  9 10  1  0
 10 11  1  0
 10 26  1  0
 11 12  2  0
 11 25  1  0
 12 13  1  0
 13 14  1  0
 13 23  2  0
 14 15  1  0
 14 22  1  0
 15 16  2  0
 15 17  1  0
 17 18  1  0
 18 19  1  0
 18 22  2  0
 19 20  2  0
 20 21  1  0
 21 22  1  0
 23 24  1  0
 24 25  2  0
 26 27  1  0
 28 29  2  0
 29 30  1  0
 30 31  1  0
M  END
