
     RDKit          3D

 31 34  0  0  0  0  0  0  0  0999 V2000
   -5.7890    2.8680   -1.2420 C   0  0  0  0  0  0  0  0  0  0  0  0
   -6.2940    1.5500   -1.1030 O   0  0  0  0  0  0  0  0  0  0  0  0
   -5.5110    0.5010   -0.6320 C   0  0  0  0  0  0  0  0  0  0  0  0
   -4.2280    0.7230   -0.2910 N   0  0  0  0  0  0  0  0  0  0  0  0
   -3.4380   -0.2790    0.1710 C   0  0  0  0  0  0  0  0  0  0  0  0
   -2.1260   -0.0700    0.5240 C   0  0  0  0  0  0  0  0  0  0  0  0
   -1.3400   -1.0900    0.9900 C   0  0  0  0  0  0  0  0  0  0  0  0
    0.0550   -0.9340    1.3790 C   0  0  0  0  0  0  0  0  0  0  0  0
    0.7010   -1.9380    1.7980 O   0  0  0  0  0  0  0  0  0  0  0  0
    0.7390    0.2930    1.3150 N   0  0  0  0  0  0  0  0  0  0  0  0
    2.0910    0.4230    1.6980 N   0  0  0  0  0  0  0  0  0  0  0  0
    2.9490    0.5480    0.7460 C   0  0  0  0  0  0  0  0  0  0  0  0
    2.4850    0.5470   -0.6380 C   0  0  0  0  0  0  0  0  0  0  0  0
    1.3220    0.1360   -0.8220 O   0  0  0  0  0  0  0  0  0  0  0  0
    3.1850    0.9510   -1.7920 O   0  0  0  0  0  0  0  0  0  0  0  0
    4.5230    1.4710   -1.7800 C   0  0  0  0  0  0  0  0  0  0  0  0
    5.4890    0.5400   -1.1250 C   0  0  0  0  0  0  0  0  0  0  0  0
    5.5000    0.6850    0.3560 C   0  0  0  0  0  0  0  0  0  0  0  0
    6.7600    0.8260    0.9010 C   0  0  0  0  0  0  0  0  0  0  0  0
    7.9510    0.8210    0.0130 C   0  0  0  0  0  0  0  0  0  0  0  0
    6.8330    0.9640    2.2690 C   0  0  0  0  0  0  0  0  0  0  0  0
    5.7100    0.9670    3.0850 C   0  0  0  0  0  0  0  0  0  0  0  0
    4.4480    0.8230    2.5070 C   0  0  0  0  0  0  0  0  0  0  0  0
    4.3540    0.6830    1.1450 C   0  0  0  0  0  0  0  0  0  0  0  0
   -1.9330   -2.3380    1.0860 C   0  0  0  0  0  0  0  0  0  0  0  0
   -3.2450   -2.5440    0.7320 C   0  0  0  0  0  0  0  0  0  0  0  0
   -4.0300   -1.5310    0.2690 C   0  0  0  0  0  0  0  0  0  0  0  0
   -5.3420   -1.7750   -0.0760 C   0  0  0  0  0  0  0  0  0  0  0  0
   -5.9110   -3.1420    0.0540 C   0  0  0  0  0  0  0  0  0  0  0  0
   -6.1010   -0.7390   -0.5360 C   0  0  0  0  0  0  0  0  0  0  0  0
   -7.5180   -0.9700   -0.9170 C   0  0  0  0  0  0  0  0  0  0  0  0
  1  2  1  0
  2  3  1  0
  3  4  2  0
  3 30  1  0
  4  5  1  0
  5  6  2  0
  5 27  1  0
  6  7  1  0
  7  8  1  0
  7 25  2  0
  8  9  2  0
  8 10  1  0
 10 11  1  0
 11 12  2  3
 12 13  1  0
 12 24  1  0
 13 14  2  0
 13 15  1  0
 15 16  1  0
 16 17  1  0
 17 18  1  0
 18 19  2  0
 18 24  1  0
 19 20  1  0
 19 21  1  0
 21 22  2  0
 22 23  1  0
 23 24  2  0
 25 26  1  0
 26 27  2  0
 27 28  1  0
 28 29  1  0
 28 30  2  0
 30 31  1  0
M  END
