
     RDKit          3D

 30 32  0  0  0  0  0  0  0  0999 V2000
   -7.7610   -3.5320    0.4460 C   0  0  0  0  0  0  0  0  0  0  0  0
   -7.0500   -2.4700    0.7320 C   0  0  0  0  0  0  0  0  0  0  0  0
   -5.9620   -2.5510    1.7280 C   0  0  2  0  0  0  0  0  0  0  0  0
   -6.3260   -1.9750    2.9640 O   0  0  0  0  0  0  0  0  0  0  0  0
   -4.7510   -1.8050    1.2260 C   0  0  0  0  0  0  0  0  0  0  0  0
   -5.1380   -0.4470    0.7940 C   0  0  0  0  0  0  0  0  0  0  0  0
   -4.2110    0.4160    0.3920 C   0  0  0  0  0  0  0  0  0  0  0  0
   -2.8270   -0.0230    0.3930 C   0  0  0  0  0  0  0  0  0  0  0  0
   -1.8900    0.8260   -0.0040 C   0  0  0  0  0  0  0  0  0  0  0  0
   -2.3010    2.1750   -0.4280 C   0  0  0  0  0  0  0  0  0  0  0  0
   -1.2330    3.0640   -0.9040 C   0  0  0  0  0  0  0  0  0  0  0  0
    0.0550    2.3330   -1.3290 C   0  0  0  0  0  0  0  0  0  0  0  0
    0.4890    1.5350   -0.1990 C   0  0  2  0  0  0  0  0  0  0  0  0
    0.5490    2.4210    1.0590 C   0  0  0  0  0  0  0  0  0  0  0  0
    1.7120    0.7560   -0.1960 C   0  0  0  0  0  0  0  0  0  0  0  0
    2.7830    0.8080   -0.9550 C   0  0  0  0  0  0  0  0  0  0  0  0
    2.8700    1.7950   -2.0400 C   0  0  0  0  0  0  0  0  0  0  0  0
    3.9200   -0.1560   -0.6650 C   0  0  0  0  0  0  0  0  0  0  0  0
    5.0910    0.7270   -0.3440 C   0  0  0  0  0  0  0  0  0  0  0  0
    6.3720    0.1200    0.0240 C   0  0  0  0  0  0  0  0  0  0  0  0
    7.0010   -0.7450   -1.0120 C   0  0  1  0  0  0  0  0  0  0  0  0
    8.3760   -1.2420   -0.4610 C   0  0  0  0  0  0  0  0  0  0  0  0
    6.1890   -2.0090   -1.2030 C   0  0  0  0  0  0  0  0  0  0  0  0
    7.2650   -0.1090   -2.1950 O   0  0  0  0  0  0  0  0  0  0  0  0
    1.5170   -0.2100    0.9270 C   0  0  0  0  0  0  0  0  0  0  0  0
    0.0130   -0.1970    1.2510 C   0  0  0  0  0  0  0  0  0  0  0  0
   -0.5190    0.4150   -0.0100 C   0  0  1  0  0  0  0  0  0  0  0  0
   -6.5810   -0.0730    0.8210 C   0  0  0  0  0  0  0  0  0  0  0  0
   -7.3230   -1.1820    0.0670 C   0  0  1  0  0  0  0  0  0  0  0  0
   -6.8270   -1.1470   -1.2380 O   0  0  0  0  0  0  0  0  0  0  0  0
  1  2  2  0
  2  3  1  0
  2 29  1  0
  3  4  1  1
  3  5  1  0
  5  6  1  0
  6  7  2  3
  6 28  1  0
  7  8  1  0
  8  9  2  3
  9 10  1  0
  9 27  1  0
 10 11  1  0
 11 12  1  0
 12 13  1  0
 13 14  1  1
 13 15  1  0
 13 27  1  0
 15 16  2  3
 15 25  1  0
 16 17  1  0
 16 18  1  0
 18 19  1  0
 19 20  1  0
 20 21  1  0
 21 22  1  1
 21 23  1  0
 21 24  1  0
 25 26  1  0
 27 26  1  1
 28 29  1  0
 29 30  1  6
M  END
