
     RDKit          3D

 20 21  0  0  0  0  0  0  0  0999 V2000
   -2.3290    2.8920   -0.8040 C   0  0  0  0  0  0  0  0  0  0  0  0
   -2.9700    1.7380   -1.0030 C   0  0  0  0  0  0  0  0  0  0  0  0
   -4.1060    1.7860   -1.7230 F   0  0  0  0  0  0  0  0  0  0  0  0
   -2.4380    0.4800   -0.4490 C   0  0  0  0  0  0  0  0  0  0  0  0
   -3.0830   -0.6510   -0.6550 C   0  0  0  0  0  0  0  0  0  0  0  0
   -4.3450   -0.7020   -1.4360 C   0  0  0  0  0  0  0  0  0  0  0  0
   -2.5870   -1.9580   -0.1150 C   0  0  0  0  0  0  0  0  0  0  0  0
   -1.8720   -1.6190    1.1870 C   0  0  0  0  0  0  0  0  0  0  0  0
   -0.8030   -0.7120    0.8220 N   0  0  0  0  0  0  0  0  0  0  0  0
    0.5690   -1.1200    0.9590 C   0  0  0  0  0  0  0  0  0  0  0  0
    0.8160   -2.2590    1.3960 O   0  0  0  0  0  0  0  0  0  0  0  0
    1.6760   -0.2160    0.5940 C   0  0  0  0  0  0  0  0  0  0  0  0
    2.9980   -0.9050    0.8420 C   0  0  0  0  0  0  0  0  0  0  0  0
    4.0720    0.0220    0.4680 C   0  0  0  0  0  0  0  0  0  0  0  0
    5.0120    0.4750    1.2700 C   0  0  0  0  0  0  0  0  0  0  0  0
    5.8670    1.3450    0.5540 N   0  0  0  0  0  0  0  0  0  0  0  0
    5.5000    1.4600   -0.6750 C   0  0  0  0  0  0  0  0  0  0  0  0
    4.3130    0.6160   -0.8330 C   0  0  0  0  0  0  0  0  0  0  0  0
    3.6470    0.4560   -1.9080 O   0  0  0  0  0  0  0  0  0  0  0  0
   -1.1730    0.5910    0.3240 C   0  0  0  0  0  0  0  0  0  0  0  0
  1  2  2  0
  2  3  1  0
  2  4  1  0
  4  5  2  0
  4 20  1  0
  5  6  1  0
  5  7  1  0
  7  8  1  0
  8  9  1  0
  9 10  1  0
  9 20  1  0
 10 11  2  0
 10 12  1  0
 12 13  1  0
 13 14  1  0
 14 15  2  0
 14 18  1  0
 15 16  1  0
 16 17  2  0
 17 18  1  0
 18 19  2  0
M  END
