
     RDKit          3D

  6  5  0  0  0  0  0  0  0  0999 V2000
    1.5430   -0.4860    0.2920 N   0  0  0  0  0  0  0  0  0  0  0  0
    0.1730    0.4930   -0.1430 S   0  0  1  0  0  0  0  0  0  0  0  0
    0.4300    1.9490    0.1450 O   0  0  0  0  0  0  0  0  0  0  0  0
    0.0070    0.3510   -1.6310 O   0  0  0  0  0  0  0  0  0  0  0  0
   -1.2650   -0.0680    0.5980 N   0  0  0  0  0  0  0  0  0  0  0  0
   -1.9220   -0.9750   -0.1470 O   0  0  0  0  0  0  0  0  0  0  0  0
  2  1  1  1
  2  3  2  0
  2  4  2  0
  2  5  1  0
  5  6  1  0
M  END
