
     RDKit          3D

 11 10  0  0  0  0  0  0  0  0999 V2000
   -2.6060   -0.7780    1.2390 C   0  0  0  0  0  0  0  0  0  0  0  0
   -1.5930   -0.0470    0.3620 C   0  0  2  0  0  0  0  0  0  0  0  0
   -2.2320    1.2920   -0.0180 C   0  0  0  0  0  0  0  0  0  0  0  0
   -3.5110    1.0170   -0.6840 N   0  0  0  0  0  0  0  0  0  0  0  0
   -1.4070   -0.7490   -0.7970 O   0  0  0  0  0  0  0  0  0  0  0  0
   -0.0960   -1.0850   -1.0900 C   0  0  0  0  0  0  0  0  0  0  0  0
    0.8070    0.1070   -1.2510 C   0  0  0  0  0  0  0  0  0  0  0  0
    2.1040   -0.2180   -1.5400 O   0  0  0  0  0  0  0  0  0  0  0  0
    2.7390   -0.9900   -0.5990 C   0  0  0  0  0  0  0  0  0  0  0  0
    2.8220   -0.3500    0.7630 C   0  0  0  0  0  0  0  0  0  0  0  0
    3.5480    0.8960    0.6930 N   0  0  0  0  0  0  0  0  0  0  0  0
  2  1  1  1
  2  3  1  0
  2  5  1  0
  3  4  1  0
  5  6  1  0
  6  7  1  0
  7  8  1  0
  8  9  1  0
  9 10  1  0
 10 11  1  0
M  CHG  2   4   1  11   1
M  END
