
     RDKit          3D

 11 10  0  0  0  0  0  0  0  0999 V2000
   -1.2150    3.0860    0.2300 N   0  0  0  0  0  0  0  0  0  0  0  0
   -1.1700    1.7070   -0.0530 C   0  0  0  0  0  0  0  0  0  0  0  0
   -0.0050    1.0800   -0.1480 C   0  0  0  0  0  0  0  0  0  0  0  0
    0.0750   -0.3400   -0.4370 C   0  0  0  0  0  0  0  0  0  0  0  0
    1.1980   -0.9720   -0.5350 C   0  0  0  0  0  0  0  0  0  0  0  0
    2.5060   -0.3350   -0.3670 C   0  0  0  0  0  0  0  0  0  0  0  0
    3.1520   -1.0360    0.7630 N   0  0  0  0  0  0  0  0  0  0  0  0
   -1.1780   -1.1450   -0.6380 C   0  0  0  0  0  0  0  0  0  0  0  0
   -1.9560   -1.0610    0.5640 O   0  0  0  0  0  0  0  0  0  0  0  0
   -3.1760   -1.7060    0.6830 C   0  0  0  0  0  0  0  0  0  0  0  0
   -3.5710   -2.3670   -0.3090 O   0  0  0  0  0  0  0  0  0  0  0  0
  1  2  1  0
  2  3  2  3
  3  4  1  0
  4  5  2  3
  4  8  1  0
  5  6  1  0
  6  7  1  0
  8  9  1  0
  9 10  1  0
 10 11  2  0
M  CHG  2   1   1   7   1
M  END
