
     RDKit          3D

 11 10  0  0  0  0  0  0  0  0999 V2000
   -3.5410   -0.9180   -0.7810 C   0  0  0  0  0  0  0  0  0  0  0  0
   -2.7900    0.3510   -1.0350 C   0  0  0  0  0  0  0  0  0  0  0  0
   -1.7660    0.6740    0.0060 C   0  0  1  0  0  0  0  0  0  0  0  0
   -2.3050    0.8320    1.3250 N   0  0  0  0  0  0  0  0  0  0  0  0
   -0.7220   -0.4190    0.0350 C   0  0  0  0  0  0  0  0  0  0  0  0
    0.3480   -0.1590    1.0660 C   0  0  0  0  0  0  0  0  0  0  0  0
    1.0360    1.0080    0.8630 O   0  0  0  0  0  0  0  0  0  0  0  0
    1.6960    1.0830   -0.3380 C   0  0  0  0  0  0  0  0  0  0  0  0
    2.7230    0.0130   -0.5380 C   0  0  0  0  0  0  0  0  0  0  0  0
    3.7200    0.0460    0.4390 O   0  0  0  0  0  0  0  0  0  0  0  0
    4.6310   -0.9180    0.2460 N   0  0  0  0  0  0  0  0  0  0  0  0
  1  2  1  0
  2  3  1  0
  3  4  1  1
  3  5  1  0
  5  6  1  0
  6  7  1  0
  7  8  1  0
  8  9  1  0
  9 10  1  0
 10 11  1  0
M  CHG  2   4   1  11   1
M  END
