
     RDKit          3D

 11 10  0  0  0  0  0  0  0  0999 V2000
   -0.5610   -0.3460    1.2580 C   0  0  0  0  0  0  0  0  0  0  0  0
   -0.9620   -0.3220   -0.2120 C   0  0  2  0  0  0  0  0  0  0  0  0
   -1.6320    0.9750   -0.5020 C   0  0  0  0  0  0  0  0  0  0  0  0
   -2.8250    1.2030    0.2860 N   0  0  0  0  0  0  0  0  0  0  0  0
   -1.8850   -1.5170   -0.4050 C   0  0  0  0  0  0  0  0  0  0  0  0
   -3.0100   -1.4500    0.3930 O   0  0  0  0  0  0  0  0  0  0  0  0
    0.2040   -0.5290   -1.1210 C   0  0  0  0  0  0  0  0  0  0  0  0
    1.2490    0.4270   -1.0250 N   0  0  0  0  0  0  0  0  0  0  0  0
    2.2120    0.1540    0.0190 C   0  0  0  0  0  0  0  0  0  0  0  0
    3.6290    0.5220   -0.4370 C   0  0  0  0  0  0  0  0  0  0  0  0
    4.4980    0.2330    0.6130 O   0  0  0  0  0  0  0  0  0  0  0  0
  2  1  1  1
  2  3  1  0
  2  5  1  0
  2  7  1  0
  3  4  1  0
  5  6  1  0
  7  8  1  0
  8  9  1  0
  9 10  1  0
 10 11  1  0
M  CHG  2   4   1   8   1
M  END
