
     RDKit          3D

 11 10  0  0  0  0  0  0  0  0999 V2000
   -4.7850    0.1990   -0.5820 C   0  0  0  0  0  0  0  0  0  0  0  0
   -3.4890    0.1090    0.2020 C   0  0  0  0  0  0  0  0  0  0  0  0
   -2.5410   -0.5130   -0.5670 O   0  0  0  0  0  0  0  0  0  0  0  0
   -1.3180   -0.6570    0.0310 C   0  0  0  0  0  0  0  0  0  0  0  0
   -0.6820    0.6540    0.4230 C   0  0  2  0  0  0  0  0  0  0  0  0
   -0.4710    1.5080   -0.7060 N   0  0  0  0  0  0  0  0  0  0  0  0
    0.6390    0.3320    1.1340 C   0  0  0  0  0  0  0  0  0  0  0  0
    1.5150   -0.3150    0.2610 O   0  0  0  0  0  0  0  0  0  0  0  0
    2.6800   -0.5690    0.9830 C   0  0  0  0  0  0  0  0  0  0  0  0
    3.7210   -1.2750    0.1420 C   0  0  0  0  0  0  0  0  0  0  0  0
    4.0960   -0.4820   -1.0130 N   0  0  0  0  0  0  0  0  0  0  0  0
  1  2  1  0
  2  3  1  0
  3  4  1  0
  4  5  1  0
  5  6  1  6
  5  7  1  0
  7  8  1  0
  8  9  1  0
  9 10  1  0
 10 11  1  0
M  CHG  2   6   1  11   1
M  END
