
     RDKit          3D

 34 38  0  0  0  0  0  0  0  0999 V2000
   -8.4400    1.9350    0.8560 C   0  0  0  0  0  0  0  0  0  0  0  0
   -7.5380    0.9040    1.2560 O   0  0  0  0  0  0  0  0  0  0  0  0
   -6.2740    0.8100    0.6490 C   0  0  0  0  0  0  0  0  0  0  0  0
   -5.8710    1.6920   -0.3300 C   0  0  0  0  0  0  0  0  0  0  0  0
   -4.6200    1.5670   -0.9020 C   0  0  0  0  0  0  0  0  0  0  0  0
   -4.2340    2.4440   -1.8630 N   0  0  0  0  0  0  0  0  0  0  0  0
   -3.0170    2.3040   -2.4000 C   0  0  0  0  0  0  0  0  0  0  0  0
   -2.1670    1.3360   -2.0290 N   0  0  0  0  0  0  0  0  0  0  0  0
   -2.4960    0.4270   -1.0720 C   0  0  0  0  0  0  0  0  0  0  0  0
   -1.6360   -0.6020   -0.6730 N   0  0  0  0  0  0  0  0  0  0  0  0
   -1.9500   -2.0280   -0.8540 C   0  0  0  0  0  0  0  0  0  0  0  0
   -0.9970   -2.6350   -1.8440 C   0  0  0  0  0  0  0  0  0  0  0  0
    0.3830   -2.1610   -1.5880 C   0  0  0  0  0  0  0  0  0  0  0  0
    1.4270   -2.8620   -2.2440 C   0  0  0  0  0  0  0  0  0  0  0  0
    2.7030   -2.4420   -2.0270 C   0  0  0  0  0  0  0  0  0  0  0  0
    3.0190   -1.3670   -1.1980 C   0  0  0  0  0  0  0  0  0  0  0  0
    1.9890   -0.7130   -0.5810 C   0  0  0  0  0  0  0  0  0  0  0  0
    2.2850    0.6390    0.4360 S   0  0  1  0  0  0  0  0  0  0  0  0
    1.7630    1.8890   -0.2750 O   0  0  0  0  0  0  0  0  0  0  0  0
    1.6430    0.5140    1.7870 O   0  0  0  0  0  0  0  0  0  0  0  0
    3.9470    0.9040    0.6890 N   0  0  0  0  0  0  0  0  0  0  0  0
    4.6690   -0.1180    1.3320 C   0  0  0  0  0  0  0  0  0  0  0  0
    6.0770   -0.3430    0.8720 C   0  0  0  0  0  0  0  0  0  0  0  0
    6.7220    0.9350    0.6950 N   0  0  2  0  0  0  0  0  0  0  0  0
    6.7130    1.7280    1.9020 C   0  0  0  0  0  0  0  0  0  0  0  0
    6.0540    1.5870   -0.4090 C   0  0  0  0  0  0  0  0  0  0  0  0
    4.5870    1.7120   -0.2650 C   0  0  0  0  0  0  0  0  0  0  0  0
    0.6590   -1.1160   -0.7790 C   0  0  0  0  0  0  0  0  0  0  0  0
   -0.3560   -0.3490   -0.0590 C   0  0  0  0  0  0  0  0  0  0  0  0
   -3.7420    0.5570   -0.5090 C   0  0  0  0  0  0  0  0  0  0  0  0
   -4.1580   -0.3240    0.4780 C   0  0  0  0  0  0  0  0  0  0  0  0
   -5.4150   -0.1920    1.0470 C   0  0  0  0  0  0  0  0  0  0  0  0
   -5.8020   -1.0900    2.0320 O   0  0  0  0  0  0  0  0  0  0  0  0
   -4.9790   -2.1340    2.4880 C   0  0  0  0  0  0  0  0  0  0  0  0
  1  2  1  0
  2  3  1  0
  3  4  2  0
  3 32  1  0
  4  5  1  0
  5  6  2  0
  5 30  1  0
  6  7  1  0
  7  8  2  0
  8  9  1  0
  9 10  1  0
  9 30  2  0
 10 11  1  0
 10 29  1  0
 11 12  1  0
 12 13  1  0
 13 14  2  0
 13 28  1  0
 14 15  1  0
 15 16  2  0
 16 17  1  0
 17 18  1  0
 17 28  2  0
 18 19  2  0
 18 20  2  0
 18 21  1  1
 21 22  1  0
 21 27  1  0
 22 23  1  0
 23 24  1  0
 24 25  1  1
 24 26  1  0
 26 27  1  0
 28 29  1  0
 30 31  1  0
 31 32  2  0
 32 33  1  0
 33 34  1  0
M  CHG  1  24   1
M  END
