
     RDKit          3D

 34 38  0  0  0  0  0  0  0  0999 V2000
   -0.1390    4.4700    0.7870 N   0  0  0  0  0  0  0  0  0  0  0  0
    0.1350    3.3620    0.5690 C   0  0  0  0  0  0  0  0  0  0  0  0
    0.4880    2.0040    0.3210 C   0  0  0  0  0  0  0  0  0  0  0  0
    1.8150    1.6390    0.3630 C   0  0  0  0  0  0  0  0  0  0  0  0
    2.9640    2.9130    0.6650 Cl  0  0  0  0  0  0  0  0  0  0  0  0
    2.2130    0.3570    0.1790 C   0  0  0  0  0  0  0  0  0  0  0  0
    3.5970   -0.0480    0.2130 C   0  0  0  0  0  0  0  0  0  0  0  0
    4.6770    0.6250    0.4010 C   0  0  0  0  0  0  0  0  0  0  0  0
    5.9660   -0.0850    0.3790 C   0  0  0  0  0  0  0  0  0  0  0  0
    7.1750    0.3700    0.5410 C   0  0  0  0  0  0  0  0  0  0  0  0
    8.2330   -0.5740    0.4630 C   0  0  0  0  0  0  0  0  0  0  0  0
    7.8920   -1.8280    0.2340 C   0  0  0  0  0  0  0  0  0  0  0  0
    6.1460   -1.8040    0.1100 S   0  0  1  0  0  0  0  0  0  0  0  0
    5.4980   -2.6160    1.1700 O   0  0  0  0  0  0  0  0  0  0  0  0
    5.6900   -2.1950   -1.2660 O   0  0  0  0  0  0  0  0  0  0  0  0
    1.2100   -0.5770   -0.0510 C   0  0  0  0  0  0  0  0  0  0  0  0
    1.5510   -1.8930   -0.2510 C   0  0  0  0  0  0  0  0  0  0  0  0
    0.5960   -2.8970   -0.4890 C   0  0  0  0  0  0  0  0  0  0  0  0
   -0.6560   -2.5240   -0.5110 N   0  0  0  0  0  0  0  0  0  0  0  0
   -1.0290   -1.1940   -0.3100 C   0  0  0  0  0  0  0  0  0  0  0  0
   -2.4110   -1.1180   -0.1470 N   0  0  0  0  0  0  0  0  0  0  0  0
   -2.8900   -1.3240    1.2120 C   0  0  0  0  0  0  0  0  0  0  0  0
   -4.3820   -1.6040    1.1570 C   0  0  0  0  0  0  0  0  0  0  0  0
   -4.5420   -2.6990    0.1200 C   0  0  0  0  0  0  0  0  0  0  0  0
   -4.1790   -2.2730   -1.2750 C   0  0  0  0  0  0  0  0  0  0  0  0
   -3.3580   -0.9730   -1.1580 C   0  0  0  0  0  0  0  0  0  0  0  0
   -0.1550   -0.2010   -0.0900 C   0  0  0  0  0  0  0  0  0  0  0  0
   -0.5370    1.0830    0.0870 C   0  0  0  0  0  0  0  0  0  0  0  0
   -1.8080    1.6140   -0.1320 N   0  0  0  0  0  0  0  0  0  0  0  0
   -2.8650    1.9590    0.7440 C   0  0  0  0  0  0  0  0  0  0  0  0
   -3.6960    3.0760    0.0690 C   0  0  0  0  0  0  0  0  0  0  0  0
   -2.8560    3.9880   -0.4760 O   0  0  0  0  0  0  0  0  0  0  0  0
   -2.1880    3.5310   -1.6150 C   0  0  0  0  0  0  0  0  0  0  0  0
   -2.0690    2.0040   -1.5570 C   0  0  0  0  0  0  0  0  0  0  0  0
  1  2  3  0
  2  3  1  0
  3  4  2  0
  3 28  1  0
  4  5  1  0
  4  6  1  0
  6  7  1  0
  6 16  2  0
  7  8  2  3
  8  9  1  0
  9 10  2  0
  9 13  1  0
 10 11  1  0
 11 12  2  0
 13 12  1  6
 13 14  2  0
 13 15  2  0
 16 17  1  0
 16 27  1  0
 17 18  2  0
 18 19  1  0
 19 20  2  0
 20 21  1  0
 20 27  1  0
 21 22  1  0
 21 26  1  0
 22 23  1  0
 23 24  1  0
 24 25  1  0
 25 26  1  0
 27 28  2  0
 28 29  1  0
 29 30  1  0
 29 34  1  0
 30 31  1  0
 31 32  1  0
 32 33  1  0
 33 34  1  0
M  END
