
     RDKit          3D

 34 38  0  0  0  0  0  0  0  0999 V2000
    9.9120    0.6230   -0.4980 C   0  0  0  0  0  0  0  0  0  0  0  0
    9.4660   -0.0500    0.7780 C   0  0  0  0  0  0  0  0  0  0  0  0
    8.0050   -0.1980    0.8040 N   0  0  0  0  0  0  0  0  0  0  0  0
    7.4700   -1.3900    0.2310 C   0  0  0  0  0  0  0  0  0  0  0  0
    6.0040   -1.4820    0.2510 C   0  0  0  0  0  0  0  0  0  0  0  0
    5.1960   -0.5910    0.7440 C   0  0  0  0  0  0  0  0  0  0  0  0
    5.7140    0.6330    1.3440 C   0  0  0  0  0  0  0  0  0  0  0  0
    4.6910    1.3470    1.7570 C   0  0  0  0  0  0  0  0  0  0  0  0
    4.8310    2.8890    2.5390 Cl  0  0  0  0  0  0  0  0  0  0  0  0
    3.4360    0.6320    1.4500 C   0  0  0  0  0  0  0  0  0  0  0  0
    2.1410    0.9100    1.6500 N   0  0  0  0  0  0  0  0  0  0  0  0
    1.1240    0.0850    1.2740 C   0  0  0  0  0  0  0  0  0  0  0  0
   -0.5770    0.5830    1.6180 S   0  0  0  0  0  0  0  0  0  0  0  0
   -1.6910   -0.7250    0.9640 C   0  0  0  0  0  0  0  0  0  0  0  0
   -1.6320   -0.7520   -0.5090 C   0  0  0  0  0  0  0  0  0  0  0  0
   -0.5630   -1.1420   -1.1040 O   0  0  0  0  0  0  0  0  0  0  0  0
   -2.6820   -0.3690   -1.3820 N   0  0  0  0  0  0  0  0  0  0  0  0
   -2.4280   -0.0950   -2.8030 C   0  0  0  0  0  0  0  0  0  0  0  0
   -3.1710    1.0850   -3.3000 C   0  0  0  0  0  0  0  0  0  0  0  0
   -3.9360    1.7100   -2.2940 O   0  0  0  0  0  0  0  0  0  0  0  0
   -4.6630    0.9430   -1.4120 C   0  0  0  0  0  0  0  0  0  0  0  0
   -5.9430    1.2050   -1.0090 C   0  0  0  0  0  0  0  0  0  0  0  0
   -6.5570    0.3310   -0.1040 C   0  0  0  0  0  0  0  0  0  0  0  0
   -7.9450    0.6670    0.3200 C   0  0  1  0  0  0  0  0  0  0  0  0
   -8.9600   -0.1600   -0.4630 C   0  0  0  0  0  0  0  0  0  0  0  0
   -8.0970    0.4730    1.8080 C   0  0  0  0  0  0  0  0  0  0  0  0
   -5.8680   -0.7650    0.3580 C   0  0  0  0  0  0  0  0  0  0  0  0
   -4.5720   -1.0490   -0.0350 C   0  0  0  0  0  0  0  0  0  0  0  0
   -4.0010   -0.1840   -0.9120 C   0  0  0  0  0  0  0  0  0  0  0  0
    1.3980   -1.0800    0.6660 N   0  0  0  0  0  0  0  0  0  0  0  0
    2.6880   -1.3900    0.4500 C   0  0  0  0  0  0  0  0  0  0  0  0
    3.7210   -0.5670    0.8240 C   0  0  0  0  0  0  0  0  0  0  0  0
    7.1640    0.7880    1.3520 C   0  0  0  0  0  0  0  0  0  0  0  0
    7.7050    1.8210    1.8550 O   0  0  0  0  0  0  0  0  0  0  0  0
  1  2  1  0
  2  3  1  0
  3  4  1  0
  3 33  1  0
  4  5  1  0
  5  6  2  0
  6  7  1  0
  6 32  1  0
  7  8  2  0
  7 33  1  0
  8  9  1  0
  8 10  1  0
 10 11  2  0
 10 32  1  0
 11 12  1  0
 12 13  1  0
 12 30  2  0
 13 14  1  0
 14 15  1  0
 15 16  2  0
 15 17  1  0
 17 18  1  0
 17 29  1  0
 18 19  1  0
 19 20  1  0
 20 21  1  0
 21 22  2  0
 21 29  1  0
 22 23  1  0
 23 24  1  0
 23 27  2  0
 24 25  1  6
 24 26  1  0
 27 28  1  0
 28 29  2  0
 30 31  1  0
 31 32  2  0
 33 34  2  0
M  END
