
     RDKit          3D

 31 34  0  0  0  0  0  0  0  0999 V2000
   -5.9620   -3.4190    2.7330 C   0  0  0  0  0  0  0  0  0  0  0  0
   -5.3050   -2.2460    2.0500 C   0  0  0  0  0  0  0  0  0  0  0  0
   -3.8930   -2.5030    1.8160 N   0  0  0  0  0  0  0  0  0  0  0  0
   -3.0460   -1.5530    1.1860 C   0  0  0  0  0  0  0  0  0  0  0  0
   -3.5680   -0.4770    0.8410 O   0  0  0  0  0  0  0  0  0  0  0  0
   -1.6200   -1.8040    0.9440 C   0  0  0  0  0  0  0  0  0  0  0  0
   -0.9300   -2.8820    1.2080 O   0  0  0  0  0  0  0  0  0  0  0  0
    0.3110   -2.7260    0.8470 N   0  0  0  0  0  0  0  0  0  0  0  0
    0.4530   -1.4690    0.3130 C   0  0  0  0  0  0  0  0  0  0  0  0
    1.6890   -0.8750   -0.2330 C   0  0  0  0  0  0  0  0  0  0  0  0
    1.6560    0.3130   -0.5530 O   0  0  0  0  0  0  0  0  0  0  0  0
    2.8060   -1.6870   -0.3520 N   0  0  0  0  0  0  0  0  0  0  0  0
    4.0910   -1.2190   -0.8680 C   0  0  0  0  0  0  0  0  0  0  0  0
    4.3520    0.0720   -1.1600 C   0  0  0  0  0  0  0  0  0  0  0  0
    5.5850    0.4060   -1.6180 C   0  0  0  0  0  0  0  0  0  0  0  0
    6.1400    1.7270   -2.0090 C   0  0  0  0  0  0  0  0  0  0  0  0
    6.4680   -1.1450   -1.6590 S   0  0  0  0  0  0  0  0  0  0  0  0
    5.0720   -2.1380   -1.0430 C   0  0  0  0  0  0  0  0  0  0  0  0
    5.1430   -3.6010   -0.8370 C   0  0  0  0  0  0  0  0  0  0  0  0
   -0.7840   -0.8710    0.3710 C   0  0  0  0  0  0  0  0  0  0  0  0
   -1.1530    0.4690   -0.0800 C   0  0  0  0  0  0  0  0  0  0  0  0
   -1.8620    0.6380   -1.2790 C   0  0  0  0  0  0  0  0  0  0  0  0
   -2.1980    1.9060   -1.7030 C   0  0  0  0  0  0  0  0  0  0  0  0
   -1.8620    3.0340   -0.9860 C   0  0  0  0  0  0  0  0  0  0  0  0
   -2.1780    4.2740   -1.3810 N   0  0  0  0  0  0  0  0  0  0  0  0
   -1.8490    5.3720   -0.6820 C   0  0  0  0  0  0  0  0  0  0  0  0
   -1.1550    5.2640    0.4990 C   0  0  0  0  0  0  0  0  0  0  0  0
   -0.8100    4.0060    0.9410 C   0  0  0  0  0  0  0  0  0  0  0  0
   -0.1680    3.8890    2.0300 O   0  0  0  0  0  0  0  0  0  0  0  0
   -1.1580    2.8930    0.2060 C   0  0  0  0  0  0  0  0  0  0  0  0
   -0.8320    1.6190    0.6110 C   0  0  0  0  0  0  0  0  0  0  0  0
  1  2  1  0
  2  3  1  0
  3  4  1  0
  4  5  2  0
  4  6  1  0
  6  7  1  0
  6 20  2  0
  7  8  1  0
  8  9  2  0
  9 10  1  0
  9 20  1  0
 10 11  2  0
 10 12  1  0
 12 13  1  0
 13 14  1  0
 13 18  2  0
 14 15  2  0
 15 16  1  0
 15 17  1  0
 17 18  1  0
 18 19  1  0
 20 21  1  0
 21 22  2  0
 21 31  1  0
 22 23  1  0
 23 24  2  0
 24 25  1  0
 24 30  1  0
 25 26  1  0
 26 27  2  0
 27 28  1  0
 28 29  2  0
 28 30  1  0
 30 31  2  0
M  END
