
     RDKit          3D

 31 34  0  0  0  0  0  0  0  0999 V2000
   -4.1920    2.2620   -0.9010 C   0  0  0  0  0  0  0  0  0  0  0  0
   -5.2370    1.5370   -0.2050 N   0  0  0  0  0  0  0  0  0  0  0  0
   -5.2420    0.2240    0.1380 C   0  0  0  0  0  0  0  0  0  0  0  0
   -6.4080   -0.1140    0.7120 C   0  0  0  0  0  0  0  0  0  0  0  0
   -7.1900    1.0420    0.7470 N   0  0  0  0  0  0  0  0  0  0  0  0
   -6.4380    1.9960    0.1930 C   0  0  0  0  0  0  0  0  0  0  0  0
   -6.8080    3.1890    0.0610 O   0  0  0  0  0  0  0  0  0  0  0  0
   -6.7420   -1.4880    1.0840 C   0  0  0  0  0  0  0  0  0  0  0  0
   -5.6240   -2.4600    1.1700 C   0  0  0  0  0  0  0  0  0  0  0  0
   -4.4240   -2.2210    0.3330 C   0  0  0  0  0  0  0  0  0  0  0  0
   -4.1430   -0.7690    0.1210 C   0  0  0  0  0  0  0  0  0  0  0  0
   -3.0030   -0.3440   -0.0180 N   0  0  0  0  0  0  0  0  0  0  0  0
   -1.6910   -0.3470   -0.1330 C   0  0  0  0  0  0  0  0  0  0  0  0
   -0.9650    0.4030    0.8290 C   0  0  0  0  0  0  0  0  0  0  0  0
    0.4020    0.4460    0.8470 C   0  0  0  0  0  0  0  0  0  0  0  0
    1.1330   -0.2120   -0.0350 C   0  0  0  0  0  0  0  0  0  0  0  0
    2.5610   -0.3690   -0.1160 C   0  0  0  0  0  0  0  0  0  0  0  0
    3.1410   -0.1360   -1.1940 O   0  0  0  0  0  0  0  0  0  0  0  0
    3.4020   -0.8060    1.0130 N   0  0  0  0  0  0  0  0  0  0  0  0
    4.7850   -0.9690    0.6320 C   0  0  0  0  0  0  0  0  0  0  0  0
    5.5580    0.2310    0.3190 C   0  0  0  0  0  0  0  0  0  0  0  0
    5.9500    1.1920    1.2090 C   0  0  0  0  0  0  0  0  0  0  0  0
    6.9160    2.1520    0.8840 C   0  0  0  0  0  0  0  0  0  0  0  0
    7.3350    3.1450    1.8150 O   0  0  0  0  0  0  0  0  0  0  0  0
    7.4460    2.1040   -0.3610 C   0  0  0  0  0  0  0  0  0  0  0  0
    7.0750    1.1420   -1.3120 C   0  0  0  0  0  0  0  0  0  0  0  0
    6.1440    0.2250   -0.9620 C   0  0  0  0  0  0  0  0  0  0  0  0
    5.7560   -0.7460   -1.9110 O   0  0  0  0  0  0  0  0  0  0  0  0
    6.4560   -2.2960   -2.1000 S   0  0  0  0  0  0  0  0  0  0  0  0
    0.4600   -0.9770   -1.0340 C   0  0  0  0  0  0  0  0  0  0  0  0
   -0.9180   -1.0240   -1.0540 C   0  0  0  0  0  0  0  0  0  0  0  0
  1  2  1  0
  2  3  1  0
  2  6  1  0
  3  4  2  0
  3 11  1  0
  4  5  1  0
  4  8  1  0
  5  6  1  0
  6  7  2  0
  8  9  1  0
  9 10  1  0
 10 11  1  0
 11 12  2  3
 12 13  1  0
 13 14  2  0
 13 31  1  0
 14 15  1  0
 15 16  2  0
 16 17  1  0
 16 30  1  0
 17 18  2  0
 17 19  1  0
 19 20  1  0
 20 21  1  0
 21 22  2  0
 21 27  1  0
 22 23  1  0
 23 24  1  0
 23 25  2  0
 25 26  1  0
 26 27  2  0
 27 28  1  0
 28 29  1  0
 30 31  2  0
M  END
