
     RDKit          3D

 29 31  0  0  0  0  0  0  0  0999 V2000
   -7.4520   -0.9550   -0.0250 C   0  0  0  0  0  0  0  0  0  0  0  0
   -6.4340    0.0260   -0.3120 N   0  0  1  0  0  0  0  0  0  0  0  0
   -6.8640    1.2840    0.2290 C   0  0  0  0  0  0  0  0  0  0  0  0
   -6.3930    1.2090    1.6800 C   0  0  0  0  0  0  0  0  0  0  0  0
   -4.9220    0.7590    1.3690 C   0  0  0  0  0  0  0  0  0  0  0  0
   -5.1620   -0.3000    0.3610 C   0  0  2  0  0  0  0  0  0  0  0  0
   -4.1890   -0.5670   -0.7060 C   0  0  0  0  0  0  0  0  0  0  0  0
   -2.8550   -0.9400   -0.4460 N   0  0  0  0  0  0  0  0  0  0  0  0
   -1.8130   -0.1930    0.1560 C   0  0  0  0  0  0  0  0  0  0  0  0
   -2.0060    0.9830    0.5430 O   0  0  0  0  0  0  0  0  0  0  0  0
   -0.4790   -0.7660    0.3440 C   0  0  0  0  0  0  0  0  0  0  0  0
    0.5470   -0.2780   -0.5880 C   0  0  0  0  0  0  0  0  0  0  0  0
    1.8940   -0.5000   -0.2400 C   0  0  0  0  0  0  0  0  0  0  0  0
    2.9410   -0.1590   -1.0490 C   0  0  0  0  0  0  0  0  0  0  0  0
    4.3100   -0.4060   -0.7720 N   0  0  0  0  0  0  0  0  0  0  0  0
    5.0410    0.1750    0.2380 C   0  0  0  0  0  0  0  0  0  0  0  0
    4.4890    1.0270    1.0220 O   0  0  0  0  0  0  0  0  0  0  0  0
    6.4500   -0.1180    0.5000 C   0  0  0  0  0  0  0  0  0  0  0  0
    7.0650   -1.0010   -0.2420 C   0  0  0  0  0  0  0  0  0  0  0  0
    8.5130   -1.3550   -0.0230 C   0  0  0  0  0  0  0  0  0  0  0  0
    9.1270   -0.5510    0.9320 O   0  0  0  0  0  0  0  0  0  0  0  0
    8.4980    0.3850    1.7400 C   0  0  0  0  0  0  0  0  0  0  0  0
    9.1910    1.0840    2.7400 O   0  0  0  0  0  0  0  0  0  0  0  0
    7.2110    0.5830    1.5190 C   0  0  0  0  0  0  0  0  0  0  0  0
    6.5180    1.5170    2.2960 O   0  0  0  0  0  0  0  0  0  0  0  0
    2.5960    0.4440   -2.2770 C   0  0  0  0  0  0  0  0  0  0  0  0
    1.2960    0.6630   -2.6180 C   0  0  0  0  0  0  0  0  0  0  0  0
    0.2280    0.3050   -1.7790 C   0  0  0  0  0  0  0  0  0  0  0  0
   -1.1010    0.5490   -2.2080 N   0  0  0  0  0  0  0  0  0  0  0  0
  2  1  1  1
  2  3  1  0
  2  6  1  0
  3  4  1  0
  4  5  1  0
  5  6  1  0
  6  7  1  6
  7  8  1  0
  8  9  1  0
  9 10  2  0
  9 11  1  0
 11 12  1  0
 12 13  2  0
 12 28  1  0
 13 14  1  0
 14 15  1  0
 14 26  2  0
 15 16  1  0
 16 17  2  0
 16 18  1  0
 18 19  2  0
 18 24  1  0
 19 20  1  0
 20 21  1  0
 21 22  1  0
 22 23  1  0
 22 24  2  0
 24 25  1  0
 26 27  1  0
 27 28  2  0
 28 29  1  0
M  CHG  1   2   1
M  END
