
     RDKit          3D

 31 32  0  0  0  0  0  0  0  0999 V2000
   -4.5260   -0.3030    1.2970 N   0  0  0  0  0  0  0  0  0  0  0  0
   -3.3070   -0.0060    1.5630 C   0  0  0  0  0  0  0  0  0  0  0  0
   -2.3240   -1.0990    1.8740 C   0  0  0  0  0  0  0  0  0  0  0  0
   -1.2490   -1.0210    0.7950 C   0  0  2  0  0  0  0  0  0  0  0  0
   -2.0450   -1.2730   -0.8340 P   0  0  0  0  0  0  0  0  0  0  0  0
   -1.5610   -0.1180   -2.0120 O   0  0  0  0  0  0  0  0  0  0  0  0
   -1.6490   -3.2800   -1.5770 P   0  0  0  0  0  0  0  0  0  0  0  0
   -2.6690   -4.4410   -0.7880 O   0  0  0  0  0  0  0  0  0  0  0  0
    0.0140   -3.7100   -1.4760 O   0  0  0  0  0  0  0  0  0  0  0  0
   -0.1510   -2.0570    1.0910 C   0  0  0  0  0  0  0  0  0  0  0  0
    0.8610   -1.8740    0.2030 O   0  0  0  0  0  0  0  0  0  0  0  0
    1.4390   -0.6520    0.1000 C   0  0  2  0  0  0  0  0  0  0  0  0
    1.6730   -0.2880   -1.3530 C   0  0  0  0  0  0  0  0  0  0  0  0
    1.3700   -1.0490   -2.2910 O   0  0  0  0  0  0  0  0  0  0  0  0
    2.2400    0.9230   -1.6500 O   0  0  0  0  0  0  0  0  0  0  0  0
    2.4860    1.3340   -2.9020 O   0  0  0  0  0  0  0  0  0  0  0  0
    2.5590    2.6480   -2.9610 O   0  0  0  0  0  0  0  0  0  0  0  0
    2.8430   -0.6520    0.7000 C   0  0  0  0  0  0  0  0  0  0  0  0
    3.4040    0.6610    0.7060 N   0  0  0  0  0  0  0  0  0  0  0  0
    4.8220    0.8600    0.5280 C   0  0  0  0  0  0  0  0  0  0  0  0
    5.3510    1.9930    0.5260 O   0  0  0  0  0  0  0  0  0  0  0  0
    5.8520   -0.5780    0.3010 S   0  0  0  0  0  0  0  0  0  0  0  0
    2.6290    1.8550    0.8840 C   0  0  0  0  0  0  0  0  0  0  0  0
    3.2010    2.9690    1.0560 O   0  0  0  0  0  0  0  0  0  0  0  0
    1.2160    1.7520    0.8610 N   0  0  0  0  0  0  0  0  0  0  0  0
    0.6160    0.4300    0.6580 C   0  0  0  0  0  0  0  0  0  0  0  0
   -0.6010    0.2460    0.9660 N   0  0  0  0  0  0  0  0  0  0  0  0
   -2.9190    1.3580    1.5530 N   0  0  0  0  0  0  0  0  0  0  0  0
   -3.7880    2.5960    0.5900 P   0  0  0  0  0  0  0  0  0  0  0  0
   -2.6660    3.7760    0.0420 O   0  0  0  0  0  0  0  0  0  0  0  0
   -5.0930    3.3070    1.4920 O   0  0  0  0  0  0  0  0  0  0  0  0
  1  2  2  0
  2  3  1  0
  2 28  1  0
  4  3  1  1
  4  5  1  0
  4 10  1  0
  4 27  1  0
  5  6  1  0
  5  7  1  0
  7  8  1  0
  7  9  1  0
 10 11  1  0
 11 12  1  0
 12 13  1  6
 12 18  1  0
 12 26  1  0
 13 14  2  0
 13 15  1  0
 15 16  1  0
 16 17  1  0
 18 19  1  0
 19 20  1  0
 19 23  1  0
 20 21  2  0
 20 22  1  0
 23 24  2  0
 23 25  1  0
 25 26  1  0
 26 27  2  0
 28 29  1  0
 29 30  1  0
 29 31  1  0
M  END
