
     RDKit          3D

 32 33  0  0  0  0  0  0  0  0999 V2000
   -3.5610   -4.5320    0.5500 O   0  0  0  0  0  0  0  0  0  0  0  0
   -2.9500   -3.6940   -0.1850 C   0  0  0  0  0  0  0  0  0  0  0  0
   -1.6330   -3.2920    0.1000 N   0  0  0  0  0  0  0  0  0  0  0  0
   -1.3630   -2.0360    0.1830 C   0  0  0  0  0  0  0  0  0  0  0  0
   -2.3030   -1.1060    0.0060 N   0  0  0  0  0  0  0  0  0  0  0  0
   -1.9960    0.2000    0.0980 C   0  0  0  0  0  0  0  0  0  0  0  0
   -2.9720    1.1860   -0.0860 O   0  0  0  0  0  0  0  0  0  0  0  0
   -4.2840    0.7790   -0.3690 C   0  0  0  0  0  0  0  0  0  0  0  0
   -5.3540    2.2840   -0.5600 P   0  0  0  0  0  0  0  0  0  0  0  0
   -4.4440    3.6470   -1.1070 O   0  0  0  0  0  0  0  0  0  0  0  0
   -6.1240    2.6610    0.9520 O   0  0  0  0  0  0  0  0  0  0  0  0
   -0.7210    0.5200    0.3720 N   0  0  0  0  0  0  0  0  0  0  0  0
    0.1940   -0.4540    0.5430 C   0  0  0  0  0  0  0  0  0  0  0  0
    1.5310   -0.1120    0.8310 N   0  0  0  0  0  0  0  0  0  0  0  0
    1.9210    1.2540    0.9240 C   0  0  2  0  0  0  0  0  0  0  0  0
    1.0230    2.2460    2.1750 P   0  0  0  0  0  0  0  0  0  0  0  0
    0.4380    1.3050    3.4860 O   0  0  0  0  0  0  0  0  0  0  0  0
    1.9470    3.5730    2.7880 O   0  0  0  0  0  0  0  0  0  0  0  0
    1.9720    1.8900   -0.3880 N   0  0  0  0  0  0  0  0  0  0  0  0
    2.9860    1.2430   -1.0980 N   0  0  0  0  0  0  0  0  0  0  0  0
    4.2510    1.5340   -0.4520 C   0  0  2  0  0  0  0  0  0  0  0  0
    5.2220    0.4300   -0.6660 C   0  0  0  0  0  0  0  0  0  0  0  0
    4.8590   -0.5580   -1.3400 O   0  0  0  0  0  0  0  0  0  0  0  0
    6.4930    0.4530   -0.1540 O   0  0  0  0  0  0  0  0  0  0  0  0
    7.4450   -0.5790   -0.3330 C   0  0  0  0  0  0  0  0  0  0  0  0
    7.7350   -0.8000   -1.6680 O   0  0  0  0  0  0  0  0  0  0  0  0
    3.7240    1.3680    1.3070 S   0  0  0  0  0  0  0  0  0  0  0  0
   -0.1440   -1.6960    0.4460 O   0  0  0  0  0  0  0  0  0  0  0  0
   -3.6810   -3.2140   -1.2750 O   0  0  0  0  0  0  0  0  0  0  0  0
   -5.3320   -3.7720   -1.5640 P   0  0  0  0  0  0  0  0  0  0  0  0
   -6.4340   -3.0720   -0.4440 O   0  0  0  0  0  0  0  0  0  0  0  0
   -5.7570   -3.3800   -3.2000 O   0  0  0  0  0  0  0  0  0  0  0  0
  1  2  2  0
  2  3  1  0
  2 29  1  0
  3  4  2  3
  4  5  1  0
  4 28  1  0
  5  6  2  0
  6  7  1  0
  6 12  1  0
  7  8  1  0
  8  9  1  0
  9 10  1  0
  9 11  1  0
 12 13  2  0
 13 14  1  0
 13 28  1  0
 15 14  1  6
 15 16  1  0
 15 19  1  0
 15 27  1  0
 16 17  1  0
 16 18  1  0
 19 20  1  0
 20 21  1  0
 21 22  1  6
 21 27  1  0
 22 23  2  0
 22 24  1  0
 24 25  1  0
 25 26  1  0
 29 30  1  0
 30 31  1  0
 30 32  1  0
M  END
