
     RDKit          3D

 31 32  0  0  0  0  0  0  0  0999 V2000
    5.7590    1.5480    0.7490 N   0  0  0  0  0  0  0  0  0  0  0  0
    5.0220    0.9990   -0.1270 C   0  0  0  0  0  0  0  0  0  0  0  0
    3.8850    1.7770   -0.2100 N   0  0  0  0  0  0  0  0  0  0  0  0
    2.6080    1.3880   -0.5240 C   0  0  0  0  0  0  0  0  0  0  0  0
    2.5720    0.1500   -0.6870 O   0  0  0  0  0  0  0  0  0  0  0  0
    1.4850    2.2580   -0.6330 C   0  0  0  0  0  0  0  0  0  0  0  0
    1.4150    3.6450   -0.5190 C   0  0  0  0  0  0  0  0  0  0  0  0
    2.4710    4.4870   -0.3020 O   0  0  0  0  0  0  0  0  0  0  0  0
    0.1120    3.9420   -0.6690 N   0  0  0  0  0  0  0  0  0  0  0  0
   -0.5490    2.8410   -0.8550 O   0  0  0  0  0  0  0  0  0  0  0  0
    0.2210    1.8040   -0.8410 C   0  0  0  0  0  0  0  0  0  0  0  0
   -0.1450    0.3740   -1.0050 C   0  0  0  0  0  0  0  0  0  0  0  0
   -0.3280   -0.3230    0.3110 C   0  0  1  0  0  0  0  0  0  0  0  0
   -1.3530    0.2600    1.0690 O   0  0  0  0  0  0  0  0  0  0  0  0
   -2.6080   -0.1120    0.6580 C   0  0  0  0  0  0  0  0  0  0  0  0
   -2.9180   -1.5490    0.9220 C   0  0  1  0  0  0  0  0  0  0  0  0
   -4.4030   -1.8210    1.0040 C   0  0  0  0  0  0  0  0  0  0  0  0
   -5.0490   -1.5110   -0.1910 O   0  0  0  0  0  0  0  0  0  0  0  0
   -6.7460   -1.8680    0.0370 P   0  0  0  0  0  0  0  0  0  0  0  0
   -7.6640   -0.5230   -0.5510 O   0  0  0  0  0  0  0  0  0  0  0  0
   -7.1200   -2.1050    1.7070 O   0  0  0  0  0  0  0  0  0  0  0  0
   -8.7890   -1.7320    2.0500 P   0  0  0  0  0  0  0  0  0  0  0  0
   -9.3000   -0.2710    1.8790 O   0  0  0  0  0  0  0  0  0  0  0  0
   -2.2780   -2.3330   -0.1260 N   0  0  0  0  0  0  0  0  0  0  0  0
   -0.5630   -2.0510    0.0590 S   0  0  1  0  0  0  0  0  0  0  0  0
    0.2050   -2.5320   -1.1140 O   0  0  0  0  0  0  0  0  0  0  0  0
   -0.1630   -2.7600    1.3420 O   0  0  0  0  0  0  0  0  0  0  0  0
    5.6850    0.0350   -0.9150 N   0  0  0  0  0  0  0  0  0  0  0  0
    6.7450   -1.2350   -0.3190 P   0  0  0  0  0  0  0  0  0  0  0  0
    6.2160   -1.7240    1.2560 O   0  0  0  0  0  0  0  0  0  0  0  0
    8.4160   -0.7850   -0.2920 O   0  0  0  0  0  0  0  0  0  0  0  0
  1  2  2  0
  2  3  1  0
  2 28  1  0
  3  4  1  0
  4  5  2  0
  4  6  1  0
  6  7  1  0
  6 11  2  0
  7  8  1  0
  7  9  2  0
  9 10  1  0
 10 11  1  0
 11 12  1  0
 13 12  1  6
 13 14  1  0
 13 25  1  0
 14 15  1  0
 15 16  1  0
 16 17  1  6
 16 24  1  0
 17 18  1  0
 18 19  1  0
 19 20  1  0
 19 21  1  0
 21 22  1  0
 22 23  2  0
 25 24  1  6
 25 26  2  0
 25 27  2  0
 28 29  1  0
 29 30  1  0
 29 31  1  0
M  END
