
     RDKit          3D

 32 33  0  0  0  0  0  0  0  0999 V2000
   -0.4940    2.9580    2.2830 O   0  0  0  0  0  0  0  0  0  0  0  0
   -0.6520    1.8550    1.4740 C   0  0  0  0  0  0  0  0  0  0  0  0
   -1.9500    1.3540    1.4670 N   0  0  0  0  0  0  0  0  0  0  0  0
   -2.8930    0.6830    0.6040 C   0  0  0  0  0  0  0  0  0  0  0  0
   -4.1900    1.3570    0.2800 C   0  0  0  0  0  0  0  0  0  0  0  0
   -4.6930    2.6100    0.5900 C   0  0  0  0  0  0  0  0  0  0  0  0
   -5.8070    2.9510    0.2060 O   0  0  0  0  0  0  0  0  0  0  0  0
   -3.9680    3.5260    1.3400 O   0  0  0  0  0  0  0  0  0  0  0  0
   -5.1220    0.1300   -0.6770 S   0  0  0  0  0  0  0  0  0  0  0  0
   -3.7770   -1.1220   -0.5740 C   0  0  0  0  0  0  0  0  0  0  0  0
   -3.9320   -2.2330   -1.1070 O   0  0  0  0  0  0  0  0  0  0  0  0
   -2.7690   -0.5290    0.1460 N   0  0  0  0  0  0  0  0  0  0  0  0
   -1.5650   -1.3810    0.3230 C   0  0  0  0  0  0  0  0  0  0  0  0
   -1.6970   -2.6080    1.1080 N   0  0  0  0  0  0  0  0  0  0  0  0
   -0.3220   -3.3710    1.9540 P   0  0  0  0  0  0  0  0  0  0  0  0
   -0.0050   -2.5030    3.4100 O   0  0  0  0  0  0  0  0  0  0  0  0
   -0.7660   -4.9920    2.3610 O   0  0  0  0  0  0  0  0  0  0  0  0
   -0.4550   -1.2170   -0.2200 N   0  0  0  0  0  0  0  0  0  0  0  0
    0.3110   -0.1350   -1.3220 P   0  0  0  0  0  0  0  0  0  0  0  0
   -0.5820    0.3610   -2.6980 O   0  0  0  0  0  0  0  0  0  0  0  0
    2.0210   -0.6620   -1.7130 C   0  0  1  0  0  0  0  0  0  0  0  0
    2.6480    0.3850   -3.1190 P   0  0  0  0  0  0  0  0  0  0  0  0
    3.8270    1.5300   -2.5890 O   0  0  0  0  0  0  0  0  0  0  0  0
    3.1770   -0.5470   -4.4540 O   0  0  0  0  0  0  0  0  0  0  0  0
    3.5720   -1.7410   -4.1420 O   0  0  0  0  0  0  0  0  0  0  0  0
    2.9130   -0.4890   -0.6110 N   0  0  0  0  0  0  0  0  0  0  0  0
    2.2380   -0.1250    0.6070 C   0  0  0  0  0  0  0  0  0  0  0  0
    1.7390    1.3150    0.5590 C   0  0  2  0  0  0  0  0  0  0  0  0
    2.8510    2.0750    1.2780 C   0  0  0  0  0  0  0  0  0  0  0  0
    2.5460    2.8980    2.1670 O   0  0  0  0  0  0  0  0  0  0  0  0
    4.1700    1.8350    0.9300 O   0  0  0  0  0  0  0  0  0  0  0  0
    0.4950    1.5620    0.9110 O   0  0  0  0  0  0  0  0  0  0  0  0
  1  2  2  0
  2  3  1  0
  2 32  1  0
  3  4  1  0
  4  5  2  0
  4 12  1  0
  5  6  1  0
  5  9  1  0
  6  7  2  0
  6  8  1  0
  9 10  1  0
 10 11  2  0
 10 12  1  0
 12 13  1  0
 13 14  1  0
 13 18  2  0
 14 15  1  0
 15 16  1  0
 15 17  1  0
 18 19  1  0
 19 20  1  0
 19 21  1  0
 21 22  1  6
 21 26  1  0
 22 23  1  0
 22 24  1  0
 24 25  1  0
 26 27  1  0
 27 28  1  0
 28 29  1  1
 28 32  1  0
 29 30  2  0
 29 31  1  0
M  END
