
     RDKit          3D

 31 32  0  0  0  0  0  0  0  0999 V2000
   -1.0230    2.4530   -1.7290 C   0  0  0  0  0  0  0  0  0  0  0  0
   -0.2070    1.2980   -1.1630 C   0  0  1  0  0  0  0  0  0  0  0  0
    0.5670    0.6900   -2.2980 C   0  0  0  0  0  0  0  0  0  0  0  0
    1.6600    1.9040   -3.0340 S   0  0  0  0  0  0  0  0  0  0  0  0
    0.6360    3.4940   -4.0220 P   0  0  0  0  0  0  0  0  0  0  0  0
    1.1730    4.9480   -4.0810 O   0  0  0  0  0  0  0  0  0  0  0  0
    0.6040    1.8350   -0.1540 O   0  0  0  0  0  0  0  0  0  0  0  0
    1.4970    1.0500    0.5900 C   0  0  0  0  0  0  0  0  0  0  0  0
    1.4970   -0.1770    0.2640 O   0  0  0  0  0  0  0  0  0  0  0  0
    2.3620    1.5870    1.6560 C   0  0  1  0  0  0  0  0  0  0  0  0
    3.1350    0.4920    2.1870 N   0  0  0  0  0  0  0  0  0  0  0  0
    4.3290    0.4170    1.4370 C   0  0  0  0  0  0  0  0  0  0  0  0
    5.2770   -0.7060    1.3320 C   0  0  0  0  0  0  0  0  0  0  0  0
    6.0340   -0.9750    0.2570 N   0  0  0  0  0  0  0  0  0  0  0  0
    6.7780   -2.0650    0.5070 C   0  0  0  0  0  0  0  0  0  0  0  0
    6.4470   -2.4430    1.7570 N   0  0  0  0  0  0  0  0  0  0  0  0
    5.5440   -1.6230    2.2510 N   0  0  0  0  0  0  0  0  0  0  0  0
    4.4460    1.5520    0.8350 N   0  0  0  0  0  0  0  0  0  0  0  0
    3.4100    2.4000    1.1250 O   0  0  0  0  0  0  0  0  0  0  0  0
   -1.1370    0.3190   -0.5550 C   0  0  0  0  0  0  0  0  0  0  0  0
   -1.0900    0.1110    0.6810 O   0  0  0  0  0  0  0  0  0  0  0  0
   -2.0780   -0.3980   -1.2830 O   0  0  0  0  0  0  0  0  0  0  0  0
   -2.9120   -1.2990   -0.6300 C   0  0  0  0  0  0  0  0  0  0  0  0
   -2.8230   -1.4740    0.6320 O   0  0  0  0  0  0  0  0  0  0  0  0
   -3.8780   -2.0570   -1.2730 O   0  0  0  0  0  0  0  0  0  0  0  0
   -4.9100   -3.1880   -0.3770 P   0  0  0  0  0  0  0  0  0  0  0  0
   -6.4980   -3.0740   -1.0690 O   0  0  0  0  0  0  0  0  0  0  0  0
   -4.9270   -2.8190    1.3020 O   0  0  0  0  0  0  0  0  0  0  0  0
   -5.9260   -1.4300    1.5890 P   0  0  0  0  0  0  0  0  0  0  0  0
   -6.3900   -1.3030    3.2510 O   0  0  0  0  0  0  0  0  0  0  0  0
   -7.3590   -1.5970    0.6290 O   0  0  0  0  0  0  0  0  0  0  0  0
  2  1  1  6
  2  3  1  0
  2  7  1  0
  2 20  1  0
  3  4  1  0
  4  5  1  0
  5  6  2  0
  7  8  1  0
  8  9  2  0
 10  8  1  6
 10 11  1  0
 10 19  1  0
 11 12  1  0
 12 13  1  0
 12 18  2  0
 13 14  1  0
 13 17  2  0
 14 15  2  0
 15 16  1  0
 16 17  1  0
 18 19  1  0
 20 21  2  0
 20 22  1  0
 22 23  1  0
 23 24  2  0
 23 25  1  0
 25 26  1  0
 26 27  1  0
 26 28  1  0
 28 29  1  0
 29 30  1  0
 29 31  1  0
M  END
