
     RDKit          3D

 31 32  0  0  0  0  0  0  0  0999 V2000
   -2.0820   -2.2880   -2.9180 N   0  0  0  0  0  0  0  0  0  0  0  0
   -1.8510   -1.3700   -1.8310 C   0  0  1  0  0  0  0  0  0  0  0  0
   -2.7260   -1.4910   -0.7920 O   0  0  0  0  0  0  0  0  0  0  0  0
   -2.8020   -2.9620    0.0120 P   0  0  0  0  0  0  0  0  0  0  0  0
   -2.3710   -2.8620    1.6900 O   0  0  0  0  0  0  0  0  0  0  0  0
   -2.1180   -4.3050   -0.7730 O   0  0  0  0  0  0  0  0  0  0  0  0
   -0.4040   -1.2730   -1.4330 C   0  0  0  0  0  0  0  0  0  0  0  0
   -0.3380   -0.1050   -0.7310 O   0  0  0  0  0  0  0  0  0  0  0  0
   -1.3390    0.7550   -1.1070 C   0  0  2  0  0  0  0  0  0  0  0  0
   -0.7340    2.0340   -1.5810 C   0  0  0  0  0  0  0  0  0  0  0  0
    0.2580    2.8460   -0.3220 S   0  0  0  0  0  0  0  0  0  0  0  0
    1.7110    1.9190    0.1000 C   0  0  0  0  0  0  0  0  0  0  0  0
    2.8890    2.0650   -0.5140 N   0  0  0  0  0  0  0  0  0  0  0  0
    3.7500    1.2170    0.0550 C   0  0  0  0  0  0  0  0  0  0  0  0
    4.9820    1.1190   -0.3200 N   0  0  0  0  0  0  0  0  0  0  0  0
    5.8020    0.1790    0.3620 C   0  0  0  0  0  0  0  0  0  0  0  0
    5.8430    0.1430    1.6150 O   0  0  0  0  0  0  0  0  0  0  0  0
    6.5860   -0.7330   -0.3760 N   0  0  0  0  0  0  0  0  0  0  0  0
    7.4300   -1.7020    0.2200 C   0  0  0  0  0  0  0  0  0  0  0  0
    7.4830   -1.7520    1.4840 O   0  0  0  0  0  0  0  0  0  0  0  0
    8.2040   -2.6020   -0.4890 O   0  0  0  0  0  0  0  0  0  0  0  0
    3.1050    0.5740    0.9910 O   0  0  0  0  0  0  0  0  0  0  0  0
    1.8740    0.9780    1.0390 N   0  0  0  0  0  0  0  0  0  0  0  0
   -2.2960    0.8140   -0.1560 O   0  0  0  0  0  0  0  0  0  0  0  0
   -1.9980    1.2250    1.0940 C   0  0  0  0  0  0  0  0  0  0  0  0
   -3.5880    1.1460    2.1010 P   0  0  0  0  0  0  0  0  0  0  0  0
   -4.9290    0.7230    1.0870 O   0  0  0  0  0  0  0  0  0  0  0  0
   -4.0350    3.0640    3.0550 P   0  0  0  0  0  0  0  0  0  0  0  0
   -5.7340    3.1140    3.3920 O   0  0  0  0  0  0  0  0  0  0  0  0
   -3.1050    3.1880    4.5240 O   0  0  0  0  0  0  0  0  0  0  0  0
   -2.0170    0.0840   -2.3280 C   0  0  0  0  0  0  0  0  0  0  0  0
  2  1  1  6
  2  3  1  0
  2  7  1  0
  2 31  1  0
  3  4  1  0
  4  5  1  0
  4  6  1  0
  7  8  1  0
  8  9  1  0
  9 10  1  6
  9 24  1  0
  9 31  1  0
 10 11  1  0
 11 12  1  0
 12 13  2  0
 12 23  1  0
 13 14  1  0
 14 15  2  3
 14 22  1  0
 15 16  1  0
 16 17  2  0
 16 18  1  0
 18 19  1  0
 19 20  2  0
 19 21  1  0
 22 23  1  0
 24 25  1  0
 25 26  1  0
 26 27  1  0
 26 28  1  0
 28 29  1  0
 28 30  1  0
M  END
