
     RDKit          3D

 32 33  0  0  0  0  0  0  0  0999 V2000
   -4.3330    1.0120    0.8500 N   0  0  0  0  0  0  0  0  0  0  0  0
   -3.6830   -0.0990    0.6280 C   0  0  0  0  0  0  0  0  0  0  0  0
   -3.8960   -1.1080    1.6310 N   0  0  0  0  0  0  0  0  0  0  0  0
   -5.3100   -0.9980    2.7220 P   0  0  0  0  0  0  0  0  0  0  0  0
   -6.6780   -0.4950    2.0890 O   0  0  0  0  0  0  0  0  0  0  0  0
   -2.9120   -0.2250   -0.5350 N   0  0  0  0  0  0  0  0  0  0  0  0
   -1.7530    0.1970   -0.9210 O   0  0  0  0  0  0  0  0  0  0  0  0
   -0.5600   -0.3180   -0.4940 C   0  0  1  0  0  0  0  0  0  0  0  0
   -0.5870   -0.0470    1.0360 C   0  0  0  0  0  0  0  0  0  0  0  0
   -1.3170    1.1250    1.1830 O   0  0  0  0  0  0  0  0  0  0  0  0
   -0.7570    2.5620    0.5570 P   0  0  0  0  0  0  0  0  0  0  0  0
   -2.0730    3.3430   -0.3250 O   0  0  0  0  0  0  0  0  0  0  0  0
    0.0010    3.7150    1.5260 O   0  0  0  0  0  0  0  0  0  0  0  0
   -0.6380   -1.7610   -0.8620 C   0  0  0  0  0  0  0  0  0  0  0  0
    0.5190   -2.5360   -1.1650 C   0  0  0  0  0  0  0  0  0  0  0  0
    0.4460   -3.7810   -0.8910 O   0  0  0  0  0  0  0  0  0  0  0  0
    1.7650   -2.1820   -1.7390 N   0  0  0  0  0  0  0  0  0  0  0  0
    2.3290   -0.8130   -1.8020 C   0  0  0  0  0  0  0  0  0  0  0  0
    1.7390   -0.0660   -0.5840 C   0  0  1  0  0  0  0  0  0  0  0  0
    2.6870    0.8630    0.0250 C   0  0  0  0  0  0  0  0  0  0  0  0
    2.4250    2.0530    0.5600 N   0  0  0  0  0  0  0  0  0  0  0  0
    3.4970    2.6180    1.0200 N   0  0  0  0  0  0  0  0  0  0  0  0
    4.5090    1.7400    0.7800 C   0  0  0  0  0  0  0  0  0  0  0  0
    6.2150    2.0200    1.2410 S   0  0  0  0  0  0  0  0  0  0  0  0
    7.1440    0.6290    0.8350 O   0  0  0  0  0  0  0  0  0  0  0  0
    8.1460    1.0050    0.0400 O   0  0  0  0  0  0  0  0  0  0  0  0
    7.7780    1.0260   -1.2160 O   0  0  0  0  0  0  0  0  0  0  0  0
    3.9560    0.7090    0.1790 O   0  0  0  0  0  0  0  0  0  0  0  0
    0.5070    0.4020   -0.9850 O   0  0  0  0  0  0  0  0  0  0  0  0
   -3.8520   -1.2370   -1.8030 P   0  0  0  0  0  0  0  0  0  0  0  0
   -4.2170   -2.7330   -1.0200 O   0  0  0  0  0  0  0  0  0  0  0  0
   -5.3470   -0.3510   -2.0640 O   0  0  0  0  0  0  0  0  0  0  0  0
  1  2  2  0
  2  3  1  0
  2  6  1  0
  3  4  1  0
  4  5  2  0
  6  7  1  0
  6 30  1  0
  7  8  1  0
  8  9  1  1
  8 14  1  0
  8 29  1  0
  9 10  1  0
 10 11  1  0
 11 12  1  0
 11 13  1  0
 14 15  1  0
 15 16  2  0
 15 17  1  0
 17 18  1  0
 18 19  1  0
 19 20  1  6
 19 29  1  0
 20 21  2  0
 20 28  1  0
 21 22  1  0
 22 23  2  0
 23 24  1  0
 23 28  1  0
 24 25  1  0
 25 26  1  0
 26 27  1  0
 30 31  1  0
 30 32  1  0
M  END
