
     RDKit          3D

 30 33  0  0  0  0  0  0  0  0999 V2000
    3.6980    2.8020   -1.0510 C   0  0  0  0  0  0  0  0  0  0  0  0
    2.9040    1.9260   -0.4700 C   0  0  0  0  0  0  0  0  0  0  0  0
    2.5710    0.7390   -1.0730 N   0  0  0  0  0  0  0  0  0  0  0  0
    1.7630    0.0700   -0.2430 C   0  0  0  0  0  0  0  0  0  0  0  0
    1.1910   -1.2870   -0.5720 C   0  0  1  0  0  0  0  0  0  0  0  0
    1.9870   -2.2620    0.2720 C   0  0  0  0  0  0  0  0  0  0  0  0
    1.5550   -3.6970    0.0800 C   0  0  0  0  0  0  0  0  0  0  0  0
    2.4040   -4.6080    0.9520 C   0  0  0  0  0  0  0  0  0  0  0  0
   -0.1730   -1.4310   -0.2590 N   0  0  0  0  0  0  0  0  0  0  0  0
   -1.0380   -0.3660   -0.8160 C   0  0  1  0  0  0  0  0  0  0  0  0
   -0.9970   -0.3760   -2.3180 C   0  0  0  0  0  0  0  0  0  0  0  0
   -1.3430   -1.7170   -2.8970 C   0  0  0  0  0  0  0  0  0  0  0  0
   -1.7650   -2.7550   -1.8770 C   0  0  0  0  0  0  0  0  0  0  0  0
   -2.7180   -2.1180   -0.9550 C   0  0  0  0  0  0  0  0  0  0  0  0
   -3.8800   -2.6270   -0.5670 N   0  0  0  0  0  0  0  0  0  0  0  0
   -4.6990   -1.9630    0.2460 N   0  0  0  0  0  0  0  0  0  0  0  0
   -4.4160   -0.7530    0.7220 C   0  0  0  0  0  0  0  0  0  0  0  0
   -5.0620    0.0930    1.5340 N   0  0  0  0  0  0  0  0  0  0  0  0
   -4.3580    1.2070    1.7160 C   0  0  0  0  0  0  0  0  0  0  0  0
   -3.1510    1.1020    0.9710 C   0  0  0  0  0  0  0  0  0  0  0  0
   -2.2100    2.1710    0.8300 C   0  0  0  0  0  0  0  0  0  0  0  0
   -1.9910    2.8240    1.9320 O   0  0  0  0  0  0  0  0  0  0  0  0
   -1.5080    2.6480   -0.2270 O   0  0  0  0  0  0  0  0  0  0  0  0
   -0.6140    3.7330   -0.2140 C   0  0  0  0  0  0  0  0  0  0  0  0
   -3.2170   -0.1220    0.3750 C   0  0  0  0  0  0  0  0  0  0  0  0
   -2.4010   -0.8450   -0.4610 C   0  0  0  0  0  0  0  0  0  0  0  0
    1.5880    0.7950    0.8410 N   0  0  0  0  0  0  0  0  0  0  0  0
    2.2920    1.9860    0.7480 C   0  0  0  0  0  0  0  0  0  0  0  0
    2.3090    2.9040    1.6700 C   0  0  0  0  0  0  0  0  0  0  0  0
    3.0260    4.1850    1.6460 C   0  0  0  0  0  0  0  0  0  0  0  0
  1  2  2  0
  2  3  1  0
  2 28  1  0
  3  4  1  0
  4  5  1  0
  4 27  2  0
  5  6  1  1
  5  9  1  0
  6  7  1  0
  7  8  1  0
 10  9  1  1
 10 11  1  0
 10 26  1  0
 11 12  1  0
 12 13  1  0
 13 14  1  0
 14 15  2  0
 14 26  1  0
 15 16  1  0
 16 17  2  0
 17 18  1  0
 17 25  1  0
 18 19  1  0
 19 20  2  0
 20 21  1  0
 20 25  1  0
 21 22  2  0
 21 23  1  0
 23 24  1  0
 25 26  2  0
 27 28  1  0
 28 29  2  3
 29 30  1  0
M  END
