
     RDKit          3D

 30 34  0  0  0  0  0  0  0  0999 V2000
    2.8200    1.5940    3.1970 C   0  0  0  0  0  0  0  0  0  0  0  0
    3.7150    0.9490    2.1140 C   0  0  0  0  0  0  0  0  0  0  0  0
    3.0080    0.6850    0.9340 N   0  0  0  0  0  0  0  0  0  0  0  0
    2.6060    1.7920    0.2290 C   0  0  0  0  0  0  0  0  0  0  0  0
    3.8740    2.4880   -0.3140 C   0  0  0  0  0  0  0  0  0  0  0  0
    2.5210   -0.6130    0.7940 C   0  0  2  0  0  0  0  0  0  0  0  0
    3.7230   -1.5350    0.6840 C   0  0  0  0  0  0  0  0  0  0  0  0
    4.0220   -1.5700   -0.8220 C   0  0  0  0  0  0  0  0  0  0  0  0
    2.7540   -1.0730   -1.4460 C   0  0  0  0  0  0  0  0  0  0  0  0
    1.7830   -0.9000   -0.4150 N   0  0  0  0  0  0  0  0  0  0  0  0
    0.3410   -0.8890   -0.4430 C   0  0  0  0  0  0  0  0  0  0  0  0
   -0.3330   -2.0410   -0.5360 C   0  0  0  0  0  0  0  0  0  0  0  0
    0.3010   -3.3490   -0.6130 C   0  0  0  0  0  0  0  0  0  0  0  0
    1.5540   -3.4070   -0.5430 O   0  0  0  0  0  0  0  0  0  0  0  0
   -0.4710   -4.5270   -0.7580 N   0  0  0  0  0  0  0  0  0  0  0  0
   -1.8840   -4.4570   -0.8510 C   0  0  0  0  0  0  0  0  0  0  0  0
   -2.6040   -5.4910   -0.9650 O   0  0  0  0  0  0  0  0  0  0  0  0
   -2.5430   -3.1470   -0.8150 C   0  0  0  0  0  0  0  0  0  0  0  0
   -3.8200   -3.0210   -1.0200 N   0  0  0  0  0  0  0  0  0  0  0  0
   -4.4680   -1.7830   -1.0300 N   0  0  0  0  0  0  0  0  0  0  0  0
   -3.7060   -0.5820   -0.8270 C   0  0  0  0  0  0  0  0  0  0  0  0
   -2.4140   -0.7210   -0.6150 C   0  0  0  0  0  0  0  0  0  0  0  0
   -1.6050    0.4750   -0.4520 C   0  0  0  0  0  0  0  0  0  0  0  0
   -0.3590    0.3310   -0.3930 N   0  0  0  0  0  0  0  0  0  0  0  0
   -2.1940    1.8070   -0.3410 C   0  0  0  0  0  0  0  0  0  0  0  0
   -3.6610    1.8790   -0.3890 C   0  0  1  0  0  0  0  0  0  0  0  0
   -4.1770    2.1910    1.0140 C   0  0  0  0  0  0  0  0  0  0  0  0
   -4.0930    3.0840   -1.2400 C   0  0  0  0  0  0  0  0  0  0  0  0
   -4.3900    0.6990   -0.8810 C   0  0  0  0  0  0  0  0  0  0  0  0
   -1.7890   -2.0270   -0.3630 C   0  0  2  0  0  0  0  0  0  0  0  0
  1  2  1  0
  2  3  1  0
  3  4  1  0
  6  3  1  6
  4  5  1  0
  6  7  1  0
  6 10  1  0
  7  8  1  0
  8  9  1  0
  9 10  1  0
 10 11  1  0
 11 12  2  0
 11 24  1  0
 12 13  1  0
 30 12  1  6
 13 14  2  0
 13 15  1  0
 15 16  1  0
 16 17  2  0
 16 18  1  0
 18 19  2  0
 18 30  1  0
 19 20  1  0
 20 21  1  0
 21 22  2  0
 21 29  1  0
 22 23  1  0
 22 30  1  0
 23 24  2  0
 23 25  1  0
 25 26  1  0
 26 27  1  1
 26 28  1  0
 26 29  1  0
M  END
