
     RDKit          3D

 33 35  0  0  0  0  0  0  0  0999 V2000
   -4.8070    1.7360    0.7140 C   0  0  0  0  0  0  0  0  0  0  0  0
   -4.9050    0.5220   -0.0780 N   0  0  0  0  0  0  0  0  0  0  0  0
   -6.1810   -0.0360   -0.2650 C   0  0  0  0  0  0  0  0  0  0  0  0
   -6.2840   -1.3600   -0.6950 C   0  0  0  0  0  0  0  0  0  0  0  0
   -7.5050   -1.8930   -0.8730 N   0  0  0  0  0  0  0  0  0  0  0  0
   -8.6130   -1.1670   -0.6420 C   0  0  0  0  0  0  0  0  0  0  0  0
   -9.8760   -1.7660   -0.8420 N   0  0  0  0  0  0  0  0  0  0  0  0
   -8.5650    0.1090   -0.2270 N   0  0  0  0  0  0  0  0  0  0  0  0
   -7.3450    0.6730   -0.0390 C   0  0  0  0  0  0  0  0  0  0  0  0
   -7.2520    1.8840    0.3540 O   0  0  0  0  0  0  0  0  0  0  0  0
   -5.0840   -2.0680   -0.9200 N   0  0  0  0  0  0  0  0  0  0  0  0
   -3.8370   -1.5980   -0.3500 C   0  0  0  0  0  0  0  0  0  0  0  0
   -3.7520   -0.1200   -0.6710 C   0  0  2  0  0  0  0  0  0  0  0  0
   -2.4400    0.4710   -0.2020 C   0  0  0  0  0  0  0  0  0  0  0  0
   -1.3640   -0.2380   -0.8590 N   0  0  0  0  0  0  0  0  0  0  0  0
   -0.0190    0.1550   -0.5660 C   0  0  0  0  0  0  0  0  0  0  0  0
    0.2230    1.1850    0.3200 C   0  0  0  0  0  0  0  0  0  0  0  0
    1.5270    1.5300    0.5730 C   0  0  0  0  0  0  0  0  0  0  0  0
    2.5960    0.8960   -0.0180 C   0  0  0  0  0  0  0  0  0  0  0  0
    3.9380    1.3250    0.3070 C   0  0  0  0  0  0  0  0  0  0  0  0
    4.1030    2.2860    1.1320 O   0  0  0  0  0  0  0  0  0  0  0  0
    5.1020    0.7180   -0.2560 N   0  0  0  0  0  0  0  0  0  0  0  0
    6.4180    1.1980    0.1140 C   0  0  1  0  0  0  0  0  0  0  0  0
    7.2410    0.1280    0.7970 C   0  0  0  0  0  0  0  0  0  0  0  0
    7.4560   -1.0790   -0.0880 C   0  0  0  0  0  0  0  0  0  0  0  0
    8.2650   -2.0600    0.6690 C   0  0  0  0  0  0  0  0  0  0  0  0
    7.8300   -2.6650    1.6770 O   0  0  0  0  0  0  0  0  0  0  0  0
    9.5580   -2.3270    0.2550 O   0  0  0  0  0  0  0  0  0  0  0  0
    7.0820    1.7350   -1.0860 C   0  0  0  0  0  0  0  0  0  0  0  0
    6.4890    1.7200   -2.1890 O   0  0  0  0  0  0  0  0  0  0  0  0
    8.3650    2.2670   -1.0370 O   0  0  0  0  0  0  0  0  0  0  0  0
    2.3240   -0.1200   -0.8920 C   0  0  0  0  0  0  0  0  0  0  0  0
    1.0310   -0.4990   -1.1740 C   0  0  0  0  0  0  0  0  0  0  0  0
  1  2  1  0
  2  3  1  0
  2 13  1  0
  3  4  2  0
  3  9  1  0
  4  5  1  0
  4 11  1  0
  5  6  2  0
  6  7  1  0
  6  8  1  0
  8  9  1  0
  9 10  2  0
 11 12  1  0
 12 13  1  0
 13 14  1  1
 14 15  1  0
 15 16  1  0
 16 17  2  0
 16 33  1  0
 17 18  1  0
 18 19  2  0
 19 20  1  0
 19 32  1  0
 20 21  2  0
 20 22  1  0
 22 23  1  0
 23 24  1  6
 23 29  1  0
 24 25  1  0
 25 26  1  0
 26 27  2  0
 26 28  1  0
 29 30  2  0
 29 31  1  0
 32 33  2  0
M  END
