
     RDKit          3D

 33 35  0  0  0  0  0  0  0  0999 V2000
   -8.7340    1.0120   -3.4730 C   0  0  0  0  0  0  0  0  0  0  0  0
   -7.4250    0.8650   -3.3590 C   0  0  0  0  0  0  0  0  0  0  0  0
   -6.5180    0.4490   -4.4280 C   0  0  0  0  0  0  0  0  0  0  0  0
   -6.8100    0.1540   -5.6470 N   0  0  0  0  0  0  0  0  0  0  0  0
   -5.2300    0.4430   -3.8130 N   0  0  0  0  0  0  0  0  0  0  0  0
   -5.3250    0.8290   -2.4460 C   0  0  0  0  0  0  0  0  0  0  0  0
   -6.5820    1.0750   -2.1700 C   0  0  0  0  0  0  0  0  0  0  0  0
   -7.1540    1.4820   -0.8970 C   0  0  0  0  0  0  0  0  0  0  0  0
   -6.5510    1.6720    0.2010 N   0  0  0  0  0  0  0  0  0  0  0  0
   -5.1860    1.5520    0.5280 C   0  0  0  0  0  0  0  0  0  0  0  0
   -4.6740    0.3230    0.9470 C   0  0  0  0  0  0  0  0  0  0  0  0
   -3.3680    0.1860    1.2870 C   0  0  0  0  0  0  0  0  0  0  0  0
   -2.5270    1.2790    1.2190 C   0  0  0  0  0  0  0  0  0  0  0  0
   -1.0730    1.1780    1.6030 C   0  0  0  0  0  0  0  0  0  0  0  0
   -0.8870    1.4900    3.0530 C   0  0  0  0  0  0  0  0  0  0  0  0
    0.4950    1.4290    3.5760 C   0  0  0  0  0  0  0  0  0  0  0  0
    1.1450    0.0840    3.4590 C   0  0  0  0  0  0  0  0  0  0  0  0
    0.5440   -0.8560    2.8930 O   0  0  0  0  0  0  0  0  0  0  0  0
    2.4400   -0.0150    4.0240 N   0  0  0  0  0  0  0  0  0  0  0  0
    3.1870   -1.2250    3.9870 C   0  0  0  0  0  0  0  0  0  0  0  0
    3.5400   -1.6830    2.6240 C   0  0  1  0  0  0  0  0  0  0  0  0
    2.5080   -1.9510    1.7570 O   0  0  0  0  0  0  0  0  0  0  0  0
    4.4830   -0.7070    1.9110 C   0  0  0  0  0  0  0  0  0  0  0  0
    4.9690   -1.3830    0.7100 N   0  0  0  0  0  0  0  0  0  0  0  0
    4.3960   -1.3570   -0.6040 C   0  0  0  0  0  0  0  0  0  0  0  0
    5.5320   -1.6690   -1.5550 C   0  0  1  0  0  0  0  0  0  0  0  0
    6.1660   -0.4200   -2.1370 C   0  0  0  0  0  0  0  0  0  0  0  0
    7.2340   -0.8860   -3.0220 N   0  0  0  0  0  0  0  0  0  0  0  0
    6.5750   -2.3870   -0.7610 C   0  0  0  0  0  0  0  0  0  0  0  0
    6.1350   -2.2030    0.6410 C   0  0  0  0  0  0  0  0  0  0  0  0
    6.6740   -2.6800    1.6880 O   0  0  0  0  0  0  0  0  0  0  0  0
   -2.9900    2.5080    0.8110 C   0  0  0  0  0  0  0  0  0  0  0  0
   -4.3120    2.6160    0.4740 C   0  0  0  0  0  0  0  0  0  0  0  0
  1  2  2  0
  2  3  1  0
  2  7  1  0
  3  4  2  0
  3  5  1  0
  5  6  1  0
  6  7  2  0
  7  8  1  0
  8  9  2  3
  9 10  1  0
 10 11  2  0
 10 33  1  0
 11 12  1  0
 12 13  2  0
 13 14  1  0
 13 32  1  0
 14 15  1  0
 15 16  1  0
 16 17  1  0
 17 18  2  0
 17 19  1  0
 19 20  1  0
 20 21  1  0
 21 22  1  6
 21 23  1  0
 23 24  1  0
 24 25  1  0
 24 30  1  0
 25 26  1  0
 26 27  1  1
 26 29  1  0
 27 28  1  0
 29 30  1  0
 30 31  2  0
 32 33  2  0
M  CHG  2   4   1  28   1
M  END
