
     RDKit          3D

 33 35  0  0  0  0  0  0  0  0999 V2000
    5.0940    0.2180   -2.1180 N   0  0  0  0  0  0  0  0  0  0  0  0
    3.9190   -0.1770   -1.4170 C   0  0  0  0  0  0  0  0  0  0  0  0
    3.1860   -0.9270   -2.1190 O   0  0  0  0  0  0  0  0  0  0  0  0
    3.5430    0.1790   -0.0730 C   0  0  0  0  0  0  0  0  0  0  0  0
    2.4740   -0.2740    0.5360 C   0  0  0  0  0  0  0  0  0  0  0  0
    1.3670   -1.0560    0.4900 N   0  0  0  0  0  0  0  0  0  0  0  0
    0.7450   -1.9080   -0.4260 C   0  0  0  0  0  0  0  0  0  0  0  0
    1.1610   -2.1400   -1.5390 O   0  0  0  0  0  0  0  0  0  0  0  0
   -0.5490   -2.5700    0.0510 C   0  0  2  0  0  0  0  0  0  0  0  0
   -0.9240   -3.5970   -0.9550 C   0  0  0  0  0  0  0  0  0  0  0  0
    0.0620   -4.6880   -1.1520 C   0  0  0  0  0  0  0  0  0  0  0  0
    0.3300   -5.4400    0.0630 N   0  0  0  0  0  0  0  0  0  0  0  0
   -1.6050   -1.5270    0.2620 C   0  0  1  0  0  0  0  0  0  0  0  0
   -1.9500   -0.7380   -0.9550 C   0  0  0  0  0  0  0  0  0  0  0  0
   -3.4020   -0.9010   -1.3170 C   0  0  0  0  0  0  0  0  0  0  0  0
   -4.2590   -0.4040   -0.2930 N   0  0  2  0  0  0  0  0  0  0  0  0
   -4.4470    1.0310   -0.3170 C   0  0  1  0  0  0  0  0  0  0  0  0
   -5.2740    1.3910   -1.5170 C   0  0  0  0  0  0  0  0  0  0  0  0
   -5.7600    2.8040   -1.5340 C   0  0  0  0  0  0  0  0  0  0  0  0
   -6.2740    3.3140   -0.2330 C   0  0  0  0  0  0  0  0  0  0  0  0
   -5.2780    2.9960    0.8690 C   0  0  0  0  0  0  0  0  0  0  0  0
   -5.1640    1.4870    0.9230 C   0  0  1  0  0  0  0  0  0  0  0  0
   -6.5060    0.9520    1.0120 N   0  0  0  0  0  0  0  0  0  0  0  0
   -3.8270   -0.8940    0.9820 C   0  0  0  0  0  0  0  0  0  0  0  0
   -2.8760   -2.0920    0.8320 C   0  0  0  0  0  0  0  0  0  0  0  0
    4.4050    1.0450    0.7670 C   0  0  0  0  0  0  0  0  0  0  0  0
    3.8970    1.0190    2.0300 O   0  0  0  0  0  0  0  0  0  0  0  0
    5.5000    1.8130    0.6240 N   0  0  0  0  0  0  0  0  0  0  0  0
    6.0780    2.3220    1.9570 C   0  0  0  0  0  0  0  0  0  0  0  0
    7.3970    1.5910    2.0320 C   0  0  0  0  0  0  0  0  0  0  0  0
    8.2940    2.0350    0.9300 C   0  0  0  0  0  0  0  0  0  0  0  0
    7.6880    1.8970   -0.4570 C   0  0  0  0  0  0  0  0  0  0  0  0
    6.2360    2.3580   -0.4420 C   0  0  0  0  0  0  0  0  0  0  0  0
  1  2  1  0
  2  3  2  0
  2  4  1  0
  4  5  2  3
  4 26  1  0
  5  6  1  0
  6  7  1  0
  7  8  2  0
  7  9  1  0
  9 10  1  6
  9 13  1  0
 10 11  1  0
 11 12  1  0
 13 14  1  6
 13 25  1  0
 14 15  1  0
 16 15  1  6
 16 17  1  0
 16 24  1  0
 17 18  1  6
 17 22  1  0
 18 19  1  0
 19 20  1  0
 20 21  1  0
 21 22  1  0
 22 23  1  6
 24 25  1  0
 26 27  2  0
 26 28  1  0
 28 29  1  0
 28 33  1  0
 29 30  1  0
 30 31  1  0
 31 32  1  0
 32 33  1  0
M  CHG  2  12   1  16   1
M  END
