
     RDKit          3D

 17 18  0  0  0  0  0  0  0  0999 V2000
   -3.9270    1.9810    0.3790 C   0  0  0  0  0  0  0  0  0  0  0  0
   -2.4440    2.1560    0.2420 C   0  0  0  0  0  0  0  0  0  0  0  0
   -1.9510    3.3170    0.2310 O   0  0  0  0  0  0  0  0  0  0  0  0
   -1.5130    1.0150    0.1180 C   0  0  0  0  0  0  0  0  0  0  0  0
   -0.1590    1.2310    0.3930 C   0  0  0  0  0  0  0  0  0  0  0  0
    0.7480    0.2110    0.3820 C   0  0  0  0  0  0  0  0  0  0  0  0
    2.1370    0.4130    0.8000 C   0  0  0  0  0  0  0  0  0  0  0  0
    3.1660   -0.0510   -0.0970 N   0  0  0  0  0  0  0  0  0  0  0  0
    4.4670    0.2210    0.5550 C   0  0  0  0  0  0  0  0  0  0  0  0
    3.2420    0.5070   -1.3980 C   0  0  0  0  0  0  0  0  0  0  0  0
    0.2610   -1.0650    0.0790 C   0  0  0  0  0  0  0  0  0  0  0  0
    1.1470   -2.1080    0.0540 O   0  0  0  0  0  0  0  0  0  0  0  0
   -1.0660   -1.3100   -0.1990 C   0  0  0  0  0  0  0  0  0  0  0  0
   -1.9480   -0.2440   -0.1760 C   0  0  0  0  0  0  0  0  0  0  0  0
   -3.2280   -0.6950   -0.4810 O   0  0  0  0  0  0  0  0  0  0  0  0
   -3.2840   -2.0540   -0.1080 C   0  0  0  0  0  0  0  0  0  0  0  0
   -1.8890   -2.5140   -0.5750 C   0  0  0  0  0  0  0  0  0  0  0  0
  1  2  1  0
  2  3  2  0
  2  4  1  0
  4  5  2  0
  4 14  1  0
  5  6  1  0
  6  7  1  0
  6 11  2  0
  7  8  1  0
  8  9  1  0
  8 10  1  0
 11 12  1  0
 11 13  1  0
 13 14  2  0
 13 17  1  0
 14 15  1  0
 15 16  1  0
 16 17  1  0
M  END
