
     RDKit          3D

 17 17  0  0  0  0  0  0  0  0999 V2000
    4.7440    0.4150   -1.1040 C   0  0  0  0  0  0  0  0  0  0  0  0
    3.4050   -0.2130   -1.1930 C   0  0  0  0  0  0  0  0  0  0  0  0
    3.1160   -0.8530   -2.2280 O   0  0  0  0  0  0  0  0  0  0  0  0
    2.4940   -0.0500   -0.0700 C   0  0  0  0  0  0  0  0  0  0  0  0
    2.8670    0.7090    1.1280 C   0  0  0  0  0  0  0  0  0  0  0  0
    1.2880   -0.6060   -0.1330 C   0  0  0  0  0  0  0  0  0  0  0  0
    0.3670   -0.4770    0.9320 N   0  0  0  0  0  0  0  0  0  0  0  0
   -1.0280   -0.7540    0.7560 C   0  0  0  0  0  0  0  0  0  0  0  0
   -1.5270   -2.0610    1.1790 C   0  0  0  0  0  0  0  0  0  0  0  0
   -1.7820    0.2020    0.2170 C   0  0  0  0  0  0  0  0  0  0  0  0
   -1.3040    1.5310   -0.2200 C   0  0  0  0  0  0  0  0  0  0  0  0
   -0.0990    1.9080   -0.1250 O   0  0  0  0  0  0  0  0  0  0  0  0
   -2.4420    2.2600   -0.7460 C   0  0  0  0  0  0  0  0  0  0  0  0
   -2.4550    3.4170   -1.2140 O   0  0  0  0  0  0  0  0  0  0  0  0
   -3.5790    1.3770   -0.6230 C   0  0  0  0  0  0  0  0  0  0  0  0
   -3.2070    0.2160   -0.0800 C   0  0  0  0  0  0  0  0  0  0  0  0
   -4.1480   -0.9140    0.1830 C   0  0  0  0  0  0  0  0  0  0  0  0
  1  2  1  0
  2  3  2  0
  2  4  1  0
  4  5  1  0
  4  6  2  3
  6  7  1  0
  7  8  1  0
  8  9  1  0
  8 10  2  3
 10 11  1  0
 10 16  1  0
 11 12  2  0
 11 13  1  0
 13 14  2  0
 13 15  1  0
 15 16  2  0
 16 17  1  0
M  END
