
     RDKit          3D

 17 18  0  0  0  0  0  0  0  0999 V2000
    4.1710    1.8430   -2.0000 O   0  0  0  0  0  0  0  0  0  0  0  0
    5.0330    1.5300   -1.1570 C   0  0  0  0  0  0  0  0  0  0  0  0
    4.7360    0.6530   -0.0310 C   0  0  0  0  0  0  0  0  0  0  0  0
    3.5310    0.1470    0.1470 C   0  0  0  0  0  0  0  0  0  0  0  0
    3.1060   -0.7500    1.2420 C   0  0  0  0  0  0  0  0  0  0  0  0
    1.8340   -1.3740    0.6570 C   0  0  0  0  0  0  0  0  0  0  0  0
    1.2570   -0.2820   -0.1010 N   0  0  0  0  0  0  0  0  0  0  0  0
   -0.1260    0.0600   -0.2040 C   0  0  0  0  0  0  0  0  0  0  0  0
   -0.5180    1.0330   -0.8930 O   0  0  0  0  0  0  0  0  0  0  0  0
   -1.1280   -0.7480    0.5180 C   0  0  0  0  0  0  0  0  0  0  0  0
   -2.5020   -0.2410    0.2950 C   0  0  0  0  0  0  0  0  0  0  0  0
   -3.4570   -0.9590   -0.2570 C   0  0  0  0  0  0  0  0  0  0  0  0
   -3.3410   -2.2900   -0.7150 O   0  0  0  0  0  0  0  0  0  0  0  0
   -4.6850   -0.1440   -0.3200 C   0  0  0  0  0  0  0  0  0  0  0  0
   -4.1590    1.2700   -0.3590 C   0  0  0  0  0  0  0  0  0  0  0  0
   -2.9990    1.1320    0.6440 C   0  0  0  0  0  0  0  0  0  0  0  0
    2.3750    0.3940   -0.7350 C   0  0  0  0  0  0  0  0  0  0  0  0
  1  2  2  0
  2  3  1  0
  3  4  2  3
  4  5  1  0
  4 17  1  0
  5  6  1  0
  6  7  1  0
  7  8  1  0
  7 17  1  0
  8  9  2  0
  8 10  1  0
 10 11  1  0
 11 12  2  0
 11 16  1  0
 12 13  1  0
 12 14  1  0
 14 15  1  0
 15 16  1  0
M  END
