
     RDKit          3D

 17 18  0  0  0  0  0  0  0  0999 V2000
    4.0090    1.7060   -0.8480 C   0  0  0  0  0  0  0  0  0  0  0  0
    3.2890    1.0050    0.2550 C   0  0  0  0  0  0  0  0  0  0  0  0
    3.6680   -0.4790    0.1930 C   0  0  0  0  0  0  0  0  0  0  0  0
    2.9420   -1.1670    1.2990 C   0  0  0  0  0  0  0  0  0  0  0  0
    1.5620   -1.0260    1.1600 O   0  0  0  0  0  0  0  0  0  0  0  0
    0.7960   -1.4510    0.1070 C   0  0  0  0  0  0  0  0  0  0  0  0
    1.3570   -2.0270   -0.8400 O   0  0  0  0  0  0  0  0  0  0  0  0
   -0.6030   -1.2490    0.0780 N   0  0  0  0  0  0  0  0  0  0  0  0
   -1.3500   -1.7160   -1.0510 C   0  0  0  0  0  0  0  0  0  0  0  0
   -2.8440   -1.6100   -0.8610 C   0  0  0  0  0  0  0  0  0  0  0  0
   -3.1330   -0.2310   -0.3950 C   0  0  0  0  0  0  0  0  0  0  0  0
   -4.0980    0.5190   -0.8870 C   0  0  0  0  0  0  0  0  0  0  0  0
   -4.2970    1.7740   -0.4040 O   0  0  0  0  0  0  0  0  0  0  0  0
   -3.5490    2.3820    0.6070 C   0  0  0  0  0  0  0  0  0  0  0  0
   -2.4780    1.5220    1.1380 C   0  0  0  0  0  0  0  0  0  0  0  0
   -2.2930    0.3080    0.6640 C   0  0  0  0  0  0  0  0  0  0  0  0
   -1.1920   -0.5700    1.2140 C   0  0  0  0  0  0  0  0  0  0  0  0
  1  2  1  0
  2  3  1  0
  3  4  1  0
  4  5  1  0
  5  6  1  0
  6  7  2  0
  6  8  1  0
  8  9  1  0
  8 17  1  0
  9 10  1  0
 10 11  1  0
 11 12  2  0
 11 16  1  0
 12 13  1  0
 13 14  1  0
 14 15  1  0
 15 16  2  0
 16 17  1  0
M  END
