
     RDKit          3D

 17 18  0  0  0  0  0  0  0  0999 V2000
    1.5070   -1.0170    0.6890 O   0  0  0  0  0  0  0  0  0  0  0  0
    2.0630   -0.2360   -0.1200 C   0  0  0  0  0  0  0  0  0  0  0  0
    1.2980    0.4980   -1.1660 C   0  0  0  0  0  0  0  0  0  0  0  0
   -0.1090    0.1960   -1.1180 N   0  0  0  0  0  0  0  0  0  0  0  0
   -0.8920    0.4630    0.0410 C   0  0  0  0  0  0  0  0  0  0  0  0
   -0.3760    0.9750    1.0710 O   0  0  0  0  0  0  0  0  0  0  0  0
   -2.3430    0.1580    0.1090 C   0  0  2  0  0  0  0  0  0  0  0  0
   -2.5850   -0.8300    1.2200 C   0  0  0  0  0  0  0  0  0  0  0  0
   -4.0250   -1.2590    1.1540 C   0  0  0  0  0  0  0  0  0  0  0  0
   -4.7710   -0.2550    0.3070 C   0  0  0  0  0  0  0  0  0  0  0  0
   -4.1990   -0.2090   -1.1040 C   0  0  0  0  0  0  0  0  0  0  0  0
   -2.8140   -0.4030   -1.0750 O   0  0  0  0  0  0  0  0  0  0  0  0
    3.4990   -0.0530   -0.0220 C   0  0  0  0  0  0  0  0  0  0  0  0
    4.3000   -0.6200    0.8330 C   0  0  0  0  0  0  0  0  0  0  0  0
    5.7030   -0.1940    0.6350 C   0  0  0  0  0  0  0  0  0  0  0  0
    5.5910    0.7460   -0.5120 C   0  0  0  0  0  0  0  0  0  0  0  0
    4.3240    0.8130   -0.8720 C   0  0  0  0  0  0  0  0  0  0  0  0
  1  2  2  0
  2  3  1  0
  2 13  1  0
  3  4  1  0
  4  5  1  0
  5  6  2  0
  7  5  1  6
  7  8  1  0
  7 12  1  0
  8  9  1  0
  9 10  1  0
 10 11  1  0
 11 12  1  0
 13 14  2  0
 13 17  1  0
 14 15  1  0
 15 16  1  0
 16 17  2  0
M  END
