
     RDKit          3D

 11 11  0  0  0  0  0  0  0  0999 V2000
   -2.6860   -0.0120    1.0340 N   0  0  0  0  0  0  0  0  0  0  0  0
   -2.0980    0.0420   -0.2890 C   0  0  2  0  0  0  0  0  0  0  0  0
   -2.3590   -1.0740   -1.0530 O   0  0  0  0  0  0  0  0  0  0  0  0
   -0.6170    0.3370   -0.1820 C   0  0  2  0  0  0  0  0  0  0  0  0
   -0.0250    0.3890   -1.5640 C   0  0  0  0  0  0  0  0  0  0  0  0
    1.2610   -0.3670   -1.5370 C   0  0  0  0  0  0  0  0  0  0  0  0
    1.5420   -0.5680   -0.0670 C   0  0  1  0  0  0  0  0  0  0  0  0
    2.3060    0.5840    0.5260 C   0  0  0  0  0  0  0  0  0  0  0  0
    1.6870    1.8020    0.4470 O   0  0  0  0  0  0  0  0  0  0  0  0
    0.1550   -0.7340    0.4860 C   0  0  1  0  0  0  0  0  0  0  0  0
    0.1160   -0.6860    1.9270 N   0  0  0  0  0  0  0  0  0  0  0  0
  2  1  1  1
  2  3  1  0
  2  4  1  0
  4  5  1  6
  4 10  1  0
  5  6  1  0
  6  7  1  0
  7  8  1  1
  7 10  1  0
  8  9  1  0
 10 11  1  1
M  CHG  1  11   1
M  END
