
     RDKit          3D

 11 11  0  0  0  0  0  0  0  0999 V2000
    3.1690    0.6190    0.3500 N   0  0  0  0  0  0  0  0  0  0  0  0
    1.7470    0.9920    0.3110 C   0  0  0  0  0  0  0  0  0  0  0  0
    0.9770   -0.2900    0.1210 C   0  0  2  0  0  0  0  0  0  0  0  0
    1.3970   -0.8600   -1.0800 O   0  0  0  0  0  0  0  0  0  0  0  0
    0.3360   -1.6440   -1.5140 C   0  0  0  0  0  0  0  0  0  0  0  0
   -0.8690   -0.7670   -1.2410 C   0  0  0  0  0  0  0  0  0  0  0  0
   -0.4950   -0.1000    0.0350 C   0  0  2  0  0  0  0  0  0  0  0  0
   -0.9290    1.3360    0.1260 C   0  0  0  0  0  0  0  0  0  0  0  0
   -2.3530    1.5000    0.0410 N   0  0  0  0  0  0  0  0  0  0  0  0
   -1.1530   -0.8650    1.1770 C   0  0  0  0  0  0  0  0  0  0  0  0
   -0.8760   -2.2260    1.1160 O   0  0  0  0  0  0  0  0  0  0  0  0
  1  2  1  0
  3  2  1  6
  3  4  1  0
  3  7  1  0
  4  5  1  0
  5  6  1  0
  6  7  1  0
  7  8  1  6
  7 10  1  0
  8  9  1  0
 10 11  1  0
M  CHG  2   1   1   9   1
M  END
