
     RDKit          3D

 20 21  0  0  0  0  0  0  0  0999 V2000
    3.3860    4.3110    1.1200 C   0  0  0  0  0  0  0  0  0  0  0  0
    3.7580    2.9210    1.4660 C   0  0  0  0  0  0  0  0  0  0  0  0
    4.0960    1.5770    1.8080 C   0  0  0  0  0  0  0  0  0  0  0  0
    4.3950    0.4510    2.0810 C   0  0  0  0  0  0  0  0  0  0  0  0
    3.9180   -0.5050    0.9630 O   0  0  0  0  0  0  0  0  0  0  0  0
    2.5640   -0.5970    0.7560 C   0  0  0  0  0  0  0  0  0  0  0  0
    1.6760    0.1300    1.5450 C   0  0  0  0  0  0  0  0  0  0  0  0
    0.2870    0.0240    1.4880 C   0  0  0  0  0  0  0  0  0  0  0  0
   -0.2950   -0.8650    0.5870 C   0  0  0  0  0  0  0  0  0  0  0  0
   -1.9800   -1.2670    0.8540 S   0  0  1  0  0  0  0  0  0  0  0  0
   -2.0440   -2.8130    0.5700 O   0  0  0  0  0  0  0  0  0  0  0  0
   -2.2000   -1.2540    2.3960 O   0  0  0  0  0  0  0  0  0  0  0  0
   -3.2080   -0.4850    0.0840 N   0  0  0  0  0  0  0  0  0  0  0  0
   -3.9510   -1.6440   -0.6250 C   0  0  0  0  0  0  0  0  0  0  0  0
   -3.0090   -1.8330   -1.7750 C   0  0  0  0  0  0  0  0  0  0  0  0
   -2.8520   -0.4020   -2.2790 C   0  0  2  0  0  0  0  0  0  0  0  0
   -1.4050   -0.0800   -3.2250 S   0  0  0  0  0  0  0  0  0  0  0  0
   -3.0420    0.4000   -1.0220 C   0  0  0  0  0  0  0  0  0  0  0  0
    0.5530   -1.5460   -0.2150 C   0  0  0  0  0  0  0  0  0  0  0  0
    1.9790   -1.4750   -0.2040 C   0  0  0  0  0  0  0  0  0  0  0  0
  1  2  1  0
  2  3  3  0
  3  4  1  0
  4  5  1  0
  5  6  1  0
  6  7  2  0
  6 20  1  0
  7  8  1  0
  8  9  2  0
  9 10  1  0
  9 19  1  0
 10 11  2  0
 10 12  2  0
 10 13  1  6
 13 14  1  0
 13 18  1  0
 14 15  1  0
 15 16  1  0
 16 17  1  1
 16 18  1  0
 19 20  2  0
M  END
