
     RDKit          3D

 11 11  0  0  0  0  0  0  0  0999 V2000
    3.4720   -0.7450   -0.2010 C   0  0  0  0  0  0  0  0  0  0  0  0
    2.9850   -0.2900    1.0040 O   0  0  0  0  0  0  0  0  0  0  0  0
    1.9520    0.6260    0.8810 C   0  0  0  0  0  0  0  0  0  0  0  0
    0.7470    0.0730    0.1550 C   0  0  1  0  0  0  0  0  0  0  0  0
    0.2990   -1.0220    0.8840 O   0  0  0  0  0  0  0  0  0  0  0  0
   -0.7700   -1.6640    0.2920 C   0  0  0  0  0  0  0  0  0  0  0  0
   -1.9720   -0.7760    0.1150 C   0  0  2  0  0  0  0  0  0  0  0  0
   -2.8610   -1.3470   -0.8690 N   0  0  0  0  0  0  0  0  0  0  0  0
   -1.6430    0.6220   -0.2620 C   0  0  0  0  0  0  0  0  0  0  0  0
   -0.3410    1.1280    0.2790 C   0  0  2  0  0  0  0  0  0  0  0  0
    0.0270    2.3370   -0.3860 N   0  0  0  0  0  0  0  0  0  0  0  0
  1  2  1  0
  2  3  1  0
  4  3  1  1
  4  5  1  0
  4 10  1  0
  5  6  1  0
  6  7  1  0
  7  8  1  6
  7  9  1  0
  9 10  1  0
 10 11  1  6
M  CHG  2   8   1  11   1
M  END
