
     RDKit          3D

 20 20  0  0  0  0  0  0  0  0999 V2000
    0.6910   -0.7610    2.0840 C   0  0  0  0  0  0  0  0  0  0  0  0
   -0.0580   -0.6390    1.0040 O   0  0  0  0  0  0  0  0  0  0  0  0
    0.3510   -0.6390   -0.2690 C   0  0  2  0  0  0  0  0  0  0  0  0
    1.0450   -1.7970   -0.6150 O   0  0  0  0  0  0  0  0  0  0  0  0
    0.5210   -2.9450   -0.3070 N   0  0  0  0  0  0  0  0  0  0  0  0
    1.3550    0.4370   -0.6910 C   0  0  1  0  0  0  0  0  0  0  0  0
    2.7540    0.3830   -0.2530 C   0  0  0  0  0  0  0  0  0  0  0  0
    2.7930    0.8190    1.1020 O   0  0  0  0  0  0  0  0  0  0  0  0
    3.6430    2.3200    1.1430 P   0  0  0  0  0  0  0  0  0  0  0  0
    4.5870    2.9190    0.1250 O   0  0  0  0  0  0  0  0  0  0  0  0
    1.4020    0.0210   -2.1340 O   0  0  0  0  0  0  0  0  0  0  0  0
   -0.0130    0.0500   -2.3980 C   0  0  0  0  0  0  0  0  0  0  0  0
   -0.5100    0.2220   -3.5320 O   0  0  0  0  0  0  0  0  0  0  0  0
   -0.6720   -0.1520   -1.1510 N   0  0  0  0  0  0  0  0  0  0  0  0
   -2.0770    0.1990   -0.9220 C   0  0  1  0  0  0  0  0  0  0  0  0
   -2.6310    0.8730   -1.9900 O   0  0  0  0  0  0  0  0  0  0  0  0
   -3.0220   -1.3180   -0.4830 P   0  0  0  0  0  0  0  0  0  0  0  0
   -2.0370    1.3660    0.5560 P   0  0  0  0  0  0  0  0  0  0  0  0
   -3.6540    1.6380    1.1150 O   0  0  0  0  0  0  0  0  0  0  0  0
   -1.2460    2.8530    0.1250 O   0  0  0  0  0  0  0  0  0  0  0  0
  1  2  1  0
  3  2  1  1
  3  4  1  0
  3  6  1  0
  3 14  1  0
  4  5  1  0
  6  7  1  1
  6 11  1  0
  7  8  1  0
  8  9  1  0
  9 10  2  0
 11 12  1  0
 12 13  2  0
 12 14  1  0
 14 15  1  0
 15 16  1  6
 15 17  1  0
 15 18  1  0
 18 19  1  0
 18 20  1  0
M  END
