
     RDKit          3D

 23 23  0  0  0  0  0  0  0  0999 V2000
   -2.6990   -0.1090    1.6380 C   0  0  0  0  0  0  0  0  0  0  0  0
   -1.7960   -0.1030    0.4400 C   0  0  1  0  0  0  0  0  0  0  0  0
   -1.8670    1.2090   -0.3290 C   0  0  2  0  0  0  0  0  0  0  0  0
   -0.9190    1.1520   -1.3420 O   0  0  0  0  0  0  0  0  0  0  0  0
   -1.5520    2.2620    0.6300 N   0  0  0  0  0  0  0  0  0  0  0  0
   -1.5900    3.8480   -0.0930 S   0  0  0  0  0  0  0  0  0  0  0  0
   -3.1930    1.4420   -0.9200 C   0  0  0  0  0  0  0  0  0  0  0  0
   -3.3350    1.5550   -2.1420 O   0  0  0  0  0  0  0  0  0  0  0  0
   -4.7810    1.5870    0.1270 Br  0  0  0  0  0  0  0  0  0  0  0  0
   -0.4750   -0.1910    0.9300 O   0  0  0  0  0  0  0  0  0  0  0  0
    0.4910   -0.7100   -0.4350 P   0  0  0  0  0  0  0  0  0  0  0  0
    2.1290   -0.2550   -0.1210 O   0  0  0  0  0  0  0  0  0  0  0  0
    2.0940    0.9890    0.3520 O   0  0  0  0  0  0  0  0  0  0  0  0
    3.2420    1.5890    0.2700 O   0  0  0  0  0  0  0  0  0  0  0  0
    4.2310    0.6400   -0.0000 C   0  0  1  0  0  0  0  0  0  0  0  0
    4.0040   -0.0330   -1.1960 O   0  0  0  0  0  0  0  0  0  0  0  0
    5.4490    1.3470   -0.0410 O   0  0  0  0  0  0  0  0  0  0  0  0
    4.2310   -0.2930    1.0500 O   0  0  0  0  0  0  0  0  0  0  0  0
    0.2880   -2.5180   -0.7030 C   0  0  1  0  0  0  0  0  0  0  0  0
    1.3020   -3.3040   -0.0580 N   0  0  0  0  0  0  0  0  0  0  0  0
   -0.9980   -2.8720   -0.2800 O   0  0  0  0  0  0  0  0  0  0  0  0
   -2.0890   -1.5680   -0.6280 P   0  0  0  0  0  0  0  0  0  0  0  0
   -3.7280   -2.0800   -0.6450 O   0  0  0  0  0  0  0  0  0  0  0  0
  2  1  1  1
  2  3  1  0
  2 10  1  0
  2 22  1  0
  3  4  1  6
  3  5  1  0
  3  7  1  0
  5  6  1  0
  7  8  2  0
  7  9  1  0
 10 11  1  0
 11 12  1  0
 11 19  1  0
 12 13  1  0
 13 14  1  0
 14 15  1  0
 15 16  1  6
 15 17  1  0
 15 18  1  0
 19 20  1  1
 19 21  1  0
 21 22  1  0
 22 23  1  0
M  END
