
     RDKit          3D

 18 17  0  0  0  0  0  0  0  0999 V2000
   -2.5780   -1.1020    0.3430 C   0  0  0  0  0  0  0  0  0  0  0  0
   -2.3360    0.3320   -0.0280 C   0  0  1  0  0  0  0  0  0  0  0  0
   -1.6800    1.0080    0.9900 O   0  0  0  0  0  0  0  0  0  0  0  0
   -1.5030    0.4370   -1.2870 C   0  0  0  0  0  0  0  0  0  0  0  0
   -0.1670   -0.2220   -1.1050 C   0  0  0  0  0  0  0  0  0  0  0  0
    0.5460    0.3810   -0.0640 O   0  0  0  0  0  0  0  0  0  0  0  0
    1.9350   -0.2640    0.1750 P   0  0  0  0  0  0  0  0  0  0  0  0
    1.1490   -1.6780    0.5990 O   0  0  0  0  0  0  0  0  0  0  0  0
    2.4780   -0.1140   -1.3380 O   0  0  0  0  0  0  0  0  0  0  0  0
    3.2290   -0.8650    0.7470 O   0  0  0  0  0  0  0  0  0  0  0  0
    4.7060   -0.4210    0.1550 P   0  0  0  0  0  0  0  0  0  0  0  0
    4.2360    1.0060   -0.0910 O   0  0  0  0  0  0  0  0  0  0  0  0
    5.1520   -0.6810   -1.3770 O   0  0  0  0  0  0  0  0  0  0  0  0
    5.8700    0.1420    1.2400 O   0  0  0  0  0  0  0  0  0  0  0  0
   -3.6890    0.9900   -0.2820 C   0  0  0  0  0  0  0  0  0  0  0  0
   -4.5290    0.9220    0.9400 C   0  0  0  0  0  0  0  0  0  0  0  0
   -4.1640    0.3960    2.0150 O   0  0  0  0  0  0  0  0  0  0  0  0
   -5.8030    1.4880    0.8520 O   0  0  0  0  0  0  0  0  0  0  0  0
  2  1  1  1
  2  3  1  0
  2  4  1  0
  2 15  1  0
  4  5  1  0
  5  6  1  0
  6  7  1  0
  7  8  1  0
  7  9  1  0
  7 10  1  0
 10 11  1  0
 11 12  1  0
 11 13  1  0
 11 14  1  0
 15 16  1  0
 16 17  2  0
 16 18  1  0
M  END
