
     RDKit          3D

 36 40  0  0  0  0  0  0  0  0999 V2000
    6.8740    2.2050    0.5860 C   0  0  0  0  0  0  0  0  0  0  0  0
    6.1520    0.9570    0.2390 C   0  0  0  0  0  0  0  0  0  0  0  0
    5.7990    0.7400   -1.0390 C   0  0  0  0  0  0  0  0  0  0  0  0
    5.0900   -0.4640   -1.4360 C   0  0  0  0  0  0  0  0  0  0  0  0
    4.7360   -0.6240   -2.8750 C   0  0  0  0  0  0  0  0  0  0  0  0
    3.8840    0.4970   -3.2190 N   0  0  0  0  0  0  0  0  0  0  0  0
    2.6600    0.6510   -2.5120 C   0  0  0  0  0  0  0  0  0  0  0  0
    1.8370    1.6970   -2.8140 C   0  0  0  0  0  0  0  0  0  0  0  0
    0.6280    1.8750   -2.1390 C   0  0  0  0  0  0  0  0  0  0  0  0
   -0.0950    2.9450   -2.5920 F   0  0  0  0  0  0  0  0  0  0  0  0
    0.2010    1.0150   -1.1350 C   0  0  0  0  0  0  0  0  0  0  0  0
   -1.0260    1.3080   -0.4370 C   0  0  0  0  0  0  0  0  0  0  0  0
   -1.4080    2.6530   -0.3180 C   0  0  0  0  0  0  0  0  0  0  0  0
   -2.5310    3.0540    0.4080 C   0  0  0  0  0  0  0  0  0  0  0  0
   -3.2860    2.0960    1.0270 C   0  0  0  0  0  0  0  0  0  0  0  0
   -2.9010    0.7780    0.9040 C   0  0  0  0  0  0  0  0  0  0  0  0
   -3.7120   -0.2760    1.5720 C   0  0  0  0  0  0  0  0  0  0  0  0
   -4.7500   -0.7530    0.6880 N   0  0  1  0  0  0  0  0  0  0  0  0
   -5.8640   -1.2190    1.4500 C   0  0  0  0  0  0  0  0  0  0  0  0
   -7.1950   -0.8740    0.8590 C   0  0  0  0  0  0  0  0  0  0  0  0
   -7.2350   -0.9140   -0.6330 C   0  0  0  0  0  0  0  0  0  0  0  0
   -6.0080   -0.3870   -1.3010 C   0  0  0  0  0  0  0  0  0  0  0  0
   -5.1440    0.2900   -0.2440 C   0  0  0  0  0  0  0  0  0  0  0  0
   -1.8090    0.4180    0.1930 N   0  0  0  0  0  0  0  0  0  0  0  0
    1.0690   -0.0170   -0.8740 C   0  0  0  0  0  0  0  0  0  0  0  0
    0.8530   -0.9500    0.1180 N   0  0  0  0  0  0  0  0  0  0  0  0
    0.6380   -2.2670   -0.0510 C   0  0  0  0  0  0  0  0  0  0  0  0
    0.5030   -2.8840    1.1650 C   0  0  0  0  0  0  0  0  0  0  0  0
    0.6380   -1.9300    2.0870 N   0  0  0  0  0  0  0  0  0  0  0  0
    0.8520   -0.7440    1.4420 C   0  0  0  0  0  0  0  0  0  0  0  0
    1.0470    0.5370    2.1300 C   0  0  0  0  0  0  0  0  0  0  0  0
    2.2580   -0.1790   -1.5520 N   0  0  0  0  0  0  0  0  0  0  0  0
    4.7580   -1.3990   -0.5820 C   0  0  0  0  0  0  0  0  0  0  0  0
    5.1170   -1.2090    0.7990 N   0  0  0  0  0  0  0  0  0  0  0  0
    4.7620   -2.2310    1.7790 C   0  0  0  0  0  0  0  0  0  0  0  0
    5.7980   -0.0440    1.1640 N   0  0  0  0  0  0  0  0  0  0  0  0
  1  2  1  0
  2  3  2  0
  2 36  1  0
  3  4  1  0
  4  5  1  0
  4 33  2  0
  5  6  1  0
  6  7  1  0
  7  8  2  0
  7 32  1  0
  8  9  1  0
  9 10  1  0
  9 11  2  0
 11 12  1  0
 11 25  1  0
 12 13  2  0
 12 24  1  0
 13 14  1  0
 14 15  2  0
 15 16  1  0
 16 17  1  0
 16 24  2  0
 18 17  1  1
 18 19  1  0
 18 23  1  0
 19 20  1  0
 20 21  1  0
 21 22  1  0
 22 23  1  0
 25 26  1  0
 25 32  2  0
 26 27  1  0
 26 30  1  0
 27 28  2  0
 28 29  1  0
 29 30  2  0
 30 31  1  0
 33 34  1  0
 34 35  1  0
 34 36  1  0
M  CHG  2  18   1  24   1
M  END
