
     RDKit          3D

 37 41  0  0  0  0  0  0  0  0999 V2000
   -7.3550    0.4770    1.4240 C   0  0  0  0  0  0  0  0  0  0  0  0
   -6.4960    1.2510    0.4390 C   0  0  2  0  0  0  0  0  0  0  0  0
   -6.1010    0.4290   -0.7350 C   0  0  0  0  0  0  0  0  0  0  0  0
   -5.3460   -0.7500   -0.4800 N   0  0  0  0  0  0  0  0  0  0  0  0
   -3.9450   -0.8400   -0.5800 C   0  0  0  0  0  0  0  0  0  0  0  0
   -3.1640    0.2300   -0.9740 C   0  0  0  0  0  0  0  0  0  0  0  0
   -1.8240    0.2020   -1.0690 N   0  0  0  0  0  0  0  0  0  0  0  0
   -0.9110    1.1170   -1.4240 N   0  0  0  0  0  0  0  0  0  0  0  0
    0.3070    0.5620   -1.3450 C   0  0  0  0  0  0  0  0  0  0  0  0
    1.6260    1.2240   -1.6530 C   0  0  0  0  0  0  0  0  0  0  0  0
    2.7060    0.3030   -1.4760 N   0  0  0  0  0  0  0  0  0  0  0  0
    2.7800   -0.1920   -0.1360 C   0  0  0  0  0  0  0  0  0  0  0  0
    4.2080   -0.4490    0.3090 C   0  0  0  0  0  0  0  0  0  0  0  0
    5.0010    0.8310    0.2860 C   0  0  1  0  0  0  0  0  0  0  0  0
    6.3980    0.5620    0.4760 N   0  0  2  0  0  0  0  0  0  0  0  0
    7.0980    1.6920    1.0490 C   0  0  0  0  0  0  0  0  0  0  0  0
    8.5770    1.5860    0.8580 C   0  0  0  0  0  0  0  0  0  0  0  0
    9.0710    0.1750    0.7910 C   0  0  0  0  0  0  0  0  0  0  0  0
    8.3510   -0.6180   -0.2540 C   0  0  0  0  0  0  0  0  0  0  0  0
    7.0890    0.1270   -0.6970 C   0  0  0  0  0  0  0  0  0  0  0  0
    4.6870    1.6550   -0.9190 C   0  0  0  0  0  0  0  0  0  0  0  0
    3.9250    0.8630   -1.9780 C   0  0  0  0  0  0  0  0  0  0  0  0
    0.1120   -0.7020   -0.9360 N   0  0  0  0  0  0  0  0  0  0  0  0
   -1.2020   -0.9480   -0.7580 C   0  0  0  0  0  0  0  0  0  0  0  0
   -1.9270   -2.0090   -0.3720 N   0  0  0  0  0  0  0  0  0  0  0  0
   -3.2750   -2.0140   -0.2680 C   0  0  0  0  0  0  0  0  0  0  0  0
   -3.9800   -3.2120    0.1690 C   0  0  0  0  0  0  0  0  0  0  0  0
   -5.0070   -3.8020   -0.5270 C   0  0  0  0  0  0  0  0  0  0  0  0
   -5.6600   -4.9270   -0.0550 C   0  0  0  0  0  0  0  0  0  0  0  0
   -6.6850   -5.4960   -0.7720 F   0  0  0  0  0  0  0  0  0  0  0  0
   -5.3030   -5.5070    1.1420 C   0  0  0  0  0  0  0  0  0  0  0  0
   -4.2750   -4.9340    1.8570 C   0  0  0  0  0  0  0  0  0  0  0  0
   -3.9390   -5.5220    3.0340 F   0  0  0  0  0  0  0  0  0  0  0  0
   -3.6400   -3.8180    1.3740 C   0  0  0  0  0  0  0  0  0  0  0  0
   -5.4290    1.9460    1.0360 N   0  0  2  0  0  0  0  0  0  0  0  0
   -5.7480    2.4510    2.3730 C   0  0  0  0  0  0  0  0  0  0  0  0
   -5.1270    3.1150    0.2070 C   0  0  0  0  0  0  0  0  0  0  0  0
  2  1  1  1
  2  3  1  0
  2 35  1  0
  3  4  1  0
  4  5  1  0
  5  6  2  0
  5 26  1  0
  6  7  1  0
  7  8  1  0
  7 24  1  0
  8  9  2  0
  9 10  1  0
  9 23  1  0
 10 11  1  0
 11 12  1  0
 11 22  1  0
 12 13  1  0
 14 13  1  6
 14 15  1  0
 14 21  1  0
 15 16  1  6
 15 20  1  0
 16 17  1  0
 17 18  1  0
 18 19  1  0
 19 20  1  0
 21 22  1  0
 23 24  2  0
 24 25  1  0
 25 26  2  0
 26 27  1  0
 27 28  2  0
 27 34  1  0
 28 29  1  0
 29 30  1  0
 29 31  2  0
 31 32  1  0
 32 33  1  0
 32 34  2  0
 35 36  1  1
 35 37  1  0
M  CHG  2  15   1  35   1
M  END
