
     RDKit          3D

 37 41  0  0  0  0  0  0  0  0999 V2000
    2.7810   -1.0190    0.8860 C   0  0  0  0  0  0  0  0  0  0  0  0
    2.9150    0.2550    0.0840 C   0  0  1  0  0  0  0  0  0  0  0  0
    4.2680    0.2680   -0.5670 C   0  0  0  0  0  0  0  0  0  0  0  0
    5.3660    0.2220    0.3430 N   0  0  1  0  0  0  0  0  0  0  0  0
    6.4720   -0.4180   -0.3190 C   0  0  0  0  0  0  0  0  0  0  0  0
    7.7180    0.4380   -0.3360 C   0  0  0  0  0  0  0  0  0  0  0  0
    8.0450    0.7380    1.1230 C   0  0  1  0  0  0  0  0  0  0  0  0
    9.3870    1.4200    1.2540 C   0  0  0  0  0  0  0  0  0  0  0  0
    6.9300    1.5800    1.6630 C   0  0  0  0  0  0  0  0  0  0  0  0
    5.6830    1.5380    0.8400 C   0  0  0  0  0  0  0  0  0  0  0  0
    1.9250    0.3470   -0.9880 N   0  0  0  0  0  0  0  0  0  0  0  0
    0.6140   -0.0990   -0.5450 C   0  0  0  0  0  0  0  0  0  0  0  0
    0.4330   -1.5000   -0.9570 C   0  0  0  0  0  0  0  0  0  0  0  0
    1.4560   -2.0930   -1.6490 N   0  0  0  0  0  0  0  0  0  0  0  0
    1.4070   -3.3670   -2.0610 C   0  0  0  0  0  0  0  0  0  0  0  0
    0.2780   -4.0930   -1.7700 C   0  0  0  0  0  0  0  0  0  0  0  0
   -0.7290   -3.5300   -1.0970 N   0  0  0  0  0  0  0  0  0  0  0  0
   -0.6780   -2.2520   -0.6840 C   0  0  0  0  0  0  0  0  0  0  0  0
   -1.8120   -1.6870    0.0320 N   0  0  0  0  0  0  0  0  0  0  0  0
   -2.7530   -0.9440   -0.7120 C   0  0  0  0  0  0  0  0  0  0  0  0
   -3.8600   -0.4180    0.1350 C   0  0  0  0  0  0  0  0  0  0  0  0
   -4.8990    0.3600   -0.4560 N   0  0  0  0  0  0  0  0  0  0  0  0
   -4.9120    1.7870   -0.6480 C   0  0  0  0  0  0  0  0  0  0  0  0
   -5.1010    1.7930   -2.1780 C   0  0  0  0  0  0  0  0  0  0  0  0
   -6.2380    0.8000   -2.3210 C   0  0  0  0  0  0  0  0  0  0  0  0
   -6.1340   -0.0840   -1.0370 C   0  0  2  0  0  0  0  0  0  0  0  0
   -7.2890    0.2470   -0.1650 C   0  0  0  0  0  0  0  0  0  0  0  0
   -7.2420    0.4350    1.1830 C   0  0  0  0  0  0  0  0  0  0  0  0
   -8.3980    0.7140    1.9090 C   0  0  0  0  0  0  0  0  0  0  0  0
   -8.3120    0.8950    3.2420 F   0  0  0  0  0  0  0  0  0  0  0  0
   -9.6180    0.8090    1.2980 C   0  0  0  0  0  0  0  0  0  0  0  0
   -9.6550    0.6180   -0.0560 C   0  0  0  0  0  0  0  0  0  0  0  0
  -10.8470    0.7070   -0.6860 F   0  0  0  0  0  0  0  0  0  0  0  0
   -8.5310    0.3440   -0.7800 C   0  0  0  0  0  0  0  0  0  0  0  0
   -3.8530   -0.6760    1.3830 N   0  0  0  0  0  0  0  0  0  0  0  0
   -2.8950   -1.4250    2.0940 C   0  0  0  0  0  0  0  0  0  0  0  0
   -1.9260   -1.8940    1.3990 N   0  0  0  0  0  0  0  0  0  0  0  0
  2  1  1  6
  2  3  1  0
  2 11  1  0
  4  3  1  6
  4  5  1  0
  4 10  1  0
  5  6  1  0
  6  7  1  0
  7  8  1  6
  7  9  1  0
  9 10  1  0
 11 12  1  0
 12 13  1  0
 13 14  2  0
 13 18  1  0
 14 15  1  0
 15 16  2  0
 16 17  1  0
 17 18  2  0
 18 19  1  0
 19 20  1  0
 19 37  1  0
 20 21  1  0
 21 22  1  0
 21 35  2  0
 22 23  1  0
 22 26  1  0
 23 24  1  0
 24 25  1  0
 25 26  1  0
 26 27  1  1
 27 28  2  0
 27 34  1  0
 28 29  1  0
 29 30  1  0
 29 31  2  0
 31 32  1  0
 32 33  1  0
 32 34  2  0
 35 36  1  0
 36 37  2  0
M  CHG  2   4   1  11   1
M  END
