
     RDKit          3D

 21 23  0  0  0  0  0  0  0  0999 V2000
    4.2190    2.2890   -1.5480 C   0  0  0  0  0  0  0  0  0  0  0  0
    3.6120    1.0900   -0.8810 N   0  0  0  0  0  0  0  0  0  0  0  0
    4.4260   -0.1060   -0.9220 C   0  0  0  0  0  0  0  0  0  0  0  0
    2.3540    1.2370   -0.3070 C   0  0  0  0  0  0  0  0  0  0  0  0
    1.8390    2.4240   -0.4220 O   0  0  0  0  0  0  0  0  0  0  0  0
    1.5690    0.2500    0.3870 C   0  0  0  0  0  0  0  0  0  0  0  0
    0.2920    0.4660    0.9320 C   0  0  0  0  0  0  0  0  0  0  0  0
   -0.1520   -0.6900    1.5100 C   0  0  0  0  0  0  0  0  0  0  0  0
   -1.4320   -0.9140    2.1930 C   0  0  0  0  0  0  0  0  0  0  0  0
   -1.6750   -1.2560    3.4710 N   0  0  0  0  0  0  0  0  0  0  0  0
   -2.9910   -1.3560    3.6740 N   0  0  0  0  0  0  0  0  0  0  0  0
   -3.6090   -1.0740    2.5100 C   0  0  0  0  0  0  0  0  0  0  0  0
   -2.6660   -0.7880    1.5440 C   0  0  0  0  0  0  0  0  0  0  0  0
   -2.8400   -0.4290    0.1450 C   0  0  0  0  0  0  0  0  0  0  0  0
   -2.3440   -1.2290   -0.8650 C   0  0  0  0  0  0  0  0  0  0  0  0
   -2.5050   -0.8940   -2.2050 C   0  0  0  0  0  0  0  0  0  0  0  0
   -3.1700    0.2560   -2.5330 C   0  0  0  0  0  0  0  0  0  0  0  0
   -3.6660    1.0570   -1.5340 C   0  0  0  0  0  0  0  0  0  0  0  0
   -3.5090    0.7280   -0.1950 C   0  0  0  0  0  0  0  0  0  0  0  0
    0.8520   -1.6030    1.3160 C   0  0  0  0  0  0  0  0  0  0  0  0
    1.8790   -1.0170    0.6380 N   0  0  0  0  0  0  0  0  0  0  0  0
  1  2  1  0
  2  3  1  0
  2  4  1  0
  4  5  2  0
  4  6  1  0
  6  7  2  0
  6 21  1  0
  7  8  1  0
  8  9  1  0
  8 20  2  0
  9 10  1  0
  9 13  2  0
 10 11  1  0
 11 12  2  0
 12 13  1  0
 13 14  1  0
 14 15  2  0
 14 19  1  0
 15 16  1  0
 16 17  2  0
 17 18  1  0
 18 19  2  0
 20 21  1  0
M  END
