
     RDKit          3D

 11 10  0  0  0  0  0  0  0  0999 V2000
    3.3460   -0.3730    0.4100 C   0  0  0  0  0  0  0  0  0  0  0  0
    2.0500   -0.2540    0.5690 C   0  0  0  0  0  0  0  0  0  0  0  0
    0.7630   -0.1500    0.4060 C   0  0  0  0  0  0  0  0  0  0  0  0
   -0.4530   -0.0760   -0.0860 C   0  0  0  0  0  0  0  0  0  0  0  0
   -1.0590    1.1720   -0.3840 N   0  0  0  0  0  0  0  0  0  0  0  0
   -2.1410    1.5250    0.1770 N   0  0  0  0  0  0  0  0  0  0  0  0
   -2.7300    0.7150    1.0680 F   0  0  0  0  0  0  0  0  0  0  0  0
   -2.8400    3.2150   -0.3130 Br  0  0  0  0  0  0  0  0  0  0  0  0
   -1.2130   -1.2860   -0.3410 C   0  0  0  0  0  0  0  0  0  0  0  0
   -0.6880   -2.4210   -0.0810 O   0  0  0  0  0  0  0  0  0  0  0  0
   -2.8170   -1.2120   -0.9900 Cl  0  0  0  0  0  0  0  0  0  0  0  0
  1  2  2  0
  2  3  2  0
  3  4  2  0
  4  5  1  0
  4  9  1  0
  5  6  2  3
  6  7  1  0
  6  8  1  0
  9 10  2  0
  9 11  1  0
M  CHG  1   6   1
M  END
