
     RDKit          3D

 13 13  0  0  0  0  0  0  0  0999 V2000
    3.7470   -2.3320    0.2880 O   0  0  0  0  0  0  0  0  0  0  0  0
    3.0990   -1.3130   -0.0160 C   0  0  0  0  0  0  0  0  0  0  0  0
    2.2510   -0.4150   -0.3080 N   0  0  0  0  0  0  0  0  0  0  0  0
    1.2930    0.0300    0.6130 N   0  0  0  0  0  0  0  0  0  0  0  0
    1.8010    0.8040    2.0880 Cl  0  0  0  0  0  0  0  0  0  0  0  0
   -0.0970   -0.1400    0.3620 C   0  0  0  0  0  0  0  0  0  0  0  0
   -0.8970   -1.0460    0.7960 N   0  0  0  0  0  0  0  0  0  0  0  0
   -2.2350   -0.8720    0.3120 C   0  0  0  0  0  0  0  0  0  0  0  0
   -2.1990    0.2790   -0.5000 O   0  0  0  0  0  0  0  0  0  0  0  0
   -0.8930    0.7430   -0.4830 C   0  0  0  0  0  0  0  0  0  0  0  0
   -0.4380    1.8140   -1.1270 C   0  0  0  0  0  0  0  0  0  0  0  0
   -1.2770    2.5510   -1.8790 F   0  0  0  0  0  0  0  0  0  0  0  0
    1.3800    2.3400   -1.0150 Br  0  0  0  0  0  0  0  0  0  0  0  0
  1  2  2  0
  2  3  2  0
  3  4  1  0
  4  5  1  0
  4  6  1  0
  6  7  2  0
  6 10  1  0
  7  8  1  0
  8  9  1  0
  9 10  1  0
 10 11  2  3
 11 12  1  0
 11 13  1  0
M  END
