
     RDKit          3D

 13 13  0  0  0  0  0  0  0  0999 V2000
   -2.9220   -1.9140   -0.8970 O   0  0  0  0  0  0  0  0  0  0  0  0
   -1.8920   -1.2080   -0.7460 C   0  0  0  0  0  0  0  0  0  0  0  0
   -0.7940   -0.6110   -0.3830 C   0  0  0  0  0  0  0  0  0  0  0  0
    0.5450   -1.0750   -0.4520 N   0  0  0  0  0  0  0  0  0  0  0  0
    1.3400   -0.1440    0.0260 C   0  0  0  0  0  0  0  0  0  0  0  0
    2.7820   -0.2270    0.1300 C   0  0  0  0  0  0  0  0  0  0  0  0
    3.3810   -1.2430   -0.2490 O   0  0  0  0  0  0  0  0  0  0  0  0
    3.7460    1.2280    0.8490 Br  0  0  0  0  0  0  0  0  0  0  0  0
    0.5240    0.9380    0.4110 N   0  0  0  0  0  0  0  0  0  0  0  0
   -0.7280    0.7300    0.2000 C   0  0  0  0  0  0  0  0  0  0  0  0
   -1.8350    1.5910    0.4630 N   0  0  0  0  0  0  0  0  0  0  0  0
   -2.0480    2.6880   -0.2870 F   0  0  0  0  0  0  0  0  0  0  0  0
   -2.9410    1.2530    1.7560 Cl  0  0  0  0  0  0  0  0  0  0  0  0
  1  2  2  0
  2  3  2  0
  3  4  1  0
  3 10  1  0
  4  5  2  0
  5  6  1  0
  5  9  1  0
  6  7  2  0
  6  8  1  0
  9 10  2  0
 10 11  1  0
 11 12  1  0
 11 13  1  0
M  CHG  1   4   1
M  END
