
     RDKit          3D

 21 22  0  0  0  0  0  0  0  0999 V2000
   -3.1700    1.4780   -1.2720 N   0  0  0  0  0  0  0  0  0  0  0  0
   -2.0670    0.6780   -1.6390 C   0  0  0  0  0  0  0  0  0  0  0  0
   -1.8360    0.4010   -2.8820 N   0  0  0  0  0  0  0  0  0  0  0  0
   -2.9090    1.0340   -4.0790 Cl  0  0  0  0  0  0  0  0  0  0  0  0
   -1.1730    0.1590   -0.5650 C   0  0  2  0  0  0  0  0  0  0  0  0
   -1.9390   -0.7620    0.3110 C   0  0  0  0  0  0  0  0  0  0  0  0
   -3.1170   -0.2270    1.0240 C   0  0  0  0  0  0  0  0  0  0  0  0
   -3.6890   -1.3210    1.8430 N   0  0  0  0  0  0  0  0  0  0  0  0
   -0.6430    1.3710    0.1650 C   0  0  0  0  0  0  0  0  0  0  0  0
    0.4420    1.9640   -0.7150 C   0  0  0  0  0  0  0  0  0  0  0  0
    1.6980    1.1580   -0.3740 C   0  0  0  0  0  0  0  0  0  0  0  0
    1.2770   -0.2400   -0.5640 N   0  0  0  0  0  0  0  0  0  0  0  0
    2.1520   -1.2470   -0.1310 C   0  0  0  0  0  0  0  0  0  0  0  0
    1.8300   -2.4490   -0.2680 O   0  0  0  0  0  0  0  0  0  0  0  0
    3.4280   -0.9300    0.4750 C   0  0  0  0  0  0  0  0  0  0  0  0
    3.9570    0.2780    0.7020 N   0  0  0  0  0  0  0  0  0  0  0  0
    5.1400    0.1890    1.2680 N   0  0  0  0  0  0  0  0  0  0  0  0
    5.4060   -1.1190    1.4210 C   0  0  0  0  0  0  0  0  0  0  0  0
    6.4520   -1.6000    1.9300 O   0  0  0  0  0  0  0  0  0  0  0  0
    4.3570   -1.7990    0.9360 N   0  0  0  0  0  0  0  0  0  0  0  0
    0.0180   -0.5620   -1.1800 C   0  0  0  0  0  0  0  0  0  0  0  0
  1  2  1  0
  2  3  2  3
  2  5  1  0
  3  4  1  0
  5  6  1  1
  5  9  1  0
  5 21  1  0
  6  7  1  0
  7  8  1  0
  9 10  1  0
 10 11  1  0
 11 12  1  0
 12 13  1  0
 12 21  1  0
 13 14  2  0
 13 15  1  0
 15 16  2  0
 15 20  1  0
 16 17  1  0
 17 18  1  0
 18 19  2  0
 18 20  1  0
M  CHG  1   8   1
M  END
