
     RDKit          3D

 30 32  0  0  0  0  0  0  0  0999 V2000
   -4.4790   -4.1060   -0.9120 C   0  0  0  0  0  0  0  0  0  0  0  0
   -3.5470   -3.2320   -0.1140 C   0  0  1  0  0  0  0  0  0  0  0  0
   -2.4070   -2.7720   -0.9950 C   0  0  0  0  0  0  0  0  0  0  0  0
   -2.0410   -1.4500   -0.3900 C   0  0  0  0  0  0  0  0  0  0  0  0
   -3.0350   -0.9510    0.3110 C   0  0  0  0  0  0  0  0  0  0  0  0
   -4.1570   -1.8950    0.2370 C   0  0  2  0  0  0  0  0  0  0  0  0
   -4.9290   -2.0510    1.4970 C   0  0  0  0  0  0  0  0  0  0  0  0
   -2.7990    0.3660    0.9720 C   0  0  2  0  0  0  0  0  0  0  0  0
   -3.8530    1.3710    0.6250 C   0  0  2  0  0  0  0  0  0  0  0  0
   -5.1500    0.8740    0.8560 O   0  0  0  0  0  0  0  0  0  0  0  0
   -3.7330    1.9320   -0.7730 C   0  0  0  0  0  0  0  0  0  0  0  0
   -4.8690    2.9190   -0.9470 C   0  0  0  0  0  0  0  0  0  0  0  0
   -6.0580    2.2340   -0.7750 O   0  0  0  0  0  0  0  0  0  0  0  0
   -1.5550    0.9090    0.7440 O   0  0  0  0  0  0  0  0  0  0  0  0
   -0.5110    0.3470   -0.0100 C   0  0  0  0  0  0  0  0  0  0  0  0
    0.7150    1.1710   -0.0520 C   0  0  2  0  0  0  0  0  0  0  0  0
    0.2730    2.5160   -0.6300 C   0  0  0  0  0  0  0  0  0  0  0  0
    1.8560    0.6560   -0.8460 C   0  0  1  0  0  0  0  0  0  0  0  0
    1.3920    0.5080   -2.2910 C   0  0  0  0  0  0  0  0  0  0  0  0
    2.9940    1.6490   -0.9030 C   0  0  0  0  0  0  0  0  0  0  0  0
    3.8670    1.7370    0.2870 C   0  0  1  0  0  0  0  0  0  0  0  0
    3.4530    2.6780    1.3660 C   0  0  0  0  0  0  0  0  0  0  0  0
    4.2470    0.4160    0.8940 C   0  0  1  0  0  0  0  0  0  0  0  0
    5.7720    0.2920    1.0500 C   0  0  0  0  0  0  0  0  0  0  0  0
    3.6840    0.2080    2.2830 C   0  0  0  0  0  0  0  0  0  0  0  0
    3.8260   -0.7110    0.0210 C   0  0  2  0  0  0  0  0  0  0  0  0
    3.9590   -1.9930    0.8670 C   0  0  0  0  0  0  0  0  0  0  0  0
    4.7590   -0.9250   -1.1570 C   0  0  0  0  0  0  0  0  0  0  0  0
    2.3790   -0.6810   -0.4140 C   0  0  0  0  0  0  0  0  0  0  0  0
   -0.7320   -0.7950   -0.5660 C   0  0  0  0  0  0  0  0  0  0  0  0
  2  1  1  6
  2  3  1  0
  2  6  1  0
  3  4  1  0
  4  5  2  0
  4 30  1  0
  5  6  1  0
  5  8  1  0
  6  7  1  1
  8  9  1  0
  8 14  1  6
  9 10  1  6
  9 11  1  0
 11 12  1  0
 12 13  1  0
 14 15  1  0
 15 16  1  0
 15 30  2  0
 16 17  1  6
 16 18  1  0
 18 19  1  6
 18 20  1  0
 18 29  1  0
 20 21  1  0
 21 22  1  1
 21 23  1  0
 23 24  1  1
 23 25  1  0
 23 26  1  0
 26 27  1  1
 26 28  1  0
 26 29  1  0
M  END
