
     RDKit          3D

 29 30  0  0  0  0  0  0  0  0999 V2000
   -4.6630    2.2400    1.5840 C   0  0  0  0  0  0  0  0  0  0  0  0
   -3.7040    1.2080    1.2250 N   0  0  0  0  0  0  0  0  0  0  0  0
   -4.0310    0.1970    0.3120 C   0  0  0  0  0  0  0  0  0  0  0  0
   -5.2070    0.2340   -0.1810 O   0  0  0  0  0  0  0  0  0  0  0  0
   -3.1720   -0.8950   -0.1370 C   0  0  2  0  0  0  0  0  0  0  0  0
   -3.7520   -2.1810    0.4720 C   0  0  0  0  0  0  0  0  0  0  0  0
   -3.3400   -1.9600    1.9330 C   0  0  0  0  0  0  0  0  0  0  0  0
   -1.9400   -1.4200    1.7630 C   0  0  0  0  0  0  0  0  0  0  0  0
   -1.8500   -0.9180    0.4110 N   0  0  0  0  0  0  0  0  0  0  0  0
   -0.6600   -0.5310   -0.2430 C   0  0  0  0  0  0  0  0  0  0  0  0
   -0.7270   -0.1100   -1.4210 O   0  0  0  0  0  0  0  0  0  0  0  0
    0.6260   -0.6340    0.4800 C   0  0  0  0  0  0  0  0  0  0  0  0
    1.7830   -0.2420   -0.2250 N   0  0  0  0  0  0  0  0  0  0  0  0
    2.5200    0.8960   -0.2920 C   0  0  0  0  0  0  0  0  0  0  0  0
    3.7220    0.5930   -0.9290 O   0  0  0  0  0  0  0  0  0  0  0  0
    2.5680    2.3060    0.0310 C   0  0  0  0  0  0  0  0  0  0  0  0
    3.7240    2.9680   -0.2520 C   0  0  0  0  0  0  0  0  0  0  0  0
    4.1370    4.3550   -0.0740 C   0  0  0  0  0  0  0  0  0  0  0  0
    2.8640    5.3700    0.5990 S   0  0  0  0  0  0  0  0  0  0  0  0
    3.3090    6.1930    1.7980 O   0  0  0  0  0  0  0  0  0  0  0  0
    1.4850    4.3810    0.8850 C   0  0  0  0  0  0  0  0  0  0  0  0
    1.4750    3.0800    0.6010 C   0  0  0  0  0  0  0  0  0  0  0  0
   -0.0720    2.2680    0.9090 Cl  0  0  0  0  0  0  0  0  0  0  0  0
    2.1560   -1.2740   -1.2440 C   0  0  0  0  0  0  0  0  0  0  0  0
    2.8640   -0.8260   -2.4640 C   0  0  0  0  0  0  0  0  0  0  0  0
    1.7880   -2.5170   -1.1750 C   0  0  0  0  0  0  0  0  0  0  0  0
    2.1480   -3.5310   -2.1530 C   0  0  0  0  0  0  0  0  0  0  0  0
    1.6240   -4.9360   -1.9490 C   0  0  0  0  0  0  0  0  0  0  0  0
    2.8530   -3.3780   -3.1660 O   0  0  0  0  0  0  0  0  0  0  0  0
  1  2  1  0
  2  3  1  0
  3  4  2  0
  5  3  1  1
  5  6  1  0
  5  9  1  0
  6  7  1  0
  7  8  1  0
  8  9  1  0
  9 10  1  0
 10 11  2  0
 10 12  1  0
 12 13  1  0
 13 14  1  0
 13 24  1  0
 14 15  2  0
 14 16  1  0
 16 17  2  0
 16 22  1  0
 17 18  1  0
 19 18  1  1
 19 20  2  0
 19 21  1  0
 21 22  2  0
 22 23  1  0
 24 25  1  0
 24 26  2  3
 26 27  1  0
 27 28  1  0
 27 29  2  0
M  END
