
     RDKit          3D

 30 32  0  0  0  0  0  0  0  0999 V2000
    4.9760    0.7660    1.7920 C   0  0  0  0  0  0  0  0  0  0  0  0
    3.8640    0.8760    0.7100 C   0  0  0  0  0  0  0  0  0  0  0  0
    2.8030   -0.0900    1.0240 C   0  0  0  0  0  0  0  0  0  0  0  0
    1.6210   -0.2320    0.1180 C   0  0  2  0  0  0  0  0  0  0  0  0
    2.1170   -0.6340   -1.2150 C   0  0  0  0  0  0  0  0  0  0  0  0
    2.8110   -1.8960   -1.4740 C   0  0  1  0  0  0  0  0  0  0  0  0
    4.0860   -2.2790   -0.8350 C   0  0  0  0  0  0  0  0  0  0  0  0
    1.9330   -3.1430   -1.4760 C   0  0  0  0  0  0  0  0  0  0  0  0
    0.5580    0.8080    0.2000 C   0  0  2  0  0  0  0  0  0  0  0  0
    1.1160    2.1430   -0.2370 C   0  0  0  0  0  0  0  0  0  0  0  0
    1.2780    3.2620    0.4340 C   0  0  0  0  0  0  0  0  0  0  0  0
    1.8590    4.3390   -0.3710 C   0  0  0  0  0  0  0  0  0  0  0  0
    2.0280    3.7040   -1.6780 C   0  0  0  0  0  0  0  0  0  0  0  0
    1.6000    2.4580   -1.5790 C   0  0  0  0  0  0  0  0  0  0  0  0
    0.2420    1.1080    1.6910 C   0  0  0  0  0  0  0  0  0  0  0  0
   -0.6420    0.1410    2.3440 C   0  0  0  0  0  0  0  0  0  0  0  0
   -1.9840    0.2040    1.6090 C   0  0  2  0  0  0  0  0  0  0  0  0
   -2.4930    1.6080    1.8650 C   0  0  0  0  0  0  0  0  0  0  0  0
   -2.8480   -0.6410    2.2990 O   0  0  0  0  0  0  0  0  0  0  0  0
   -1.8490   -0.1450    0.1750 C   0  0  2  0  0  0  0  0  0  0  0  0
   -3.1180    0.4210   -0.5240 C   0  0  0  0  0  0  0  0  0  0  0  0
   -4.1450   -0.6450   -0.4260 C   0  0  2  0  0  0  0  0  0  0  0  0
   -4.7440   -0.9610   -1.8040 C   0  0  0  0  0  0  0  0  0  0  0  0
   -5.3180   -0.1630    0.4420 C   0  0  0  0  0  0  0  0  0  0  0  0
   -3.5130   -1.7200    0.1170 O   0  0  0  0  0  0  0  0  0  0  0  0
   -2.1150   -1.5580   -0.0960 C   0  0  1  0  0  0  0  0  0  0  0  0
   -1.9070   -1.9960   -1.5260 C   0  0  0  0  0  0  0  0  0  0  0  0
   -1.5130   -2.6200    0.7530 C   0  0  0  0  0  0  0  0  0  0  0  0
   -0.7080    0.5350   -0.5160 C   0  0  2  0  0  0  0  0  0  0  0  0
   -0.5490    0.1120   -1.7910 O   0  0  0  0  0  0  0  0  0  0  0  0
  1  2  1  0
  2  3  1  0
  4  3  1  1
  4  5  1  0
  4  9  1  0
  5  6  1  0
  6  7  1  1
  6  8  1  0
  9 10  1  6
  9 15  1  0
  9 29  1  0
 10 11  2  0
 10 14  1  0
 11 12  1  0
 12 13  1  0
 13 14  2  0
 15 16  1  0
 16 17  1  0
 17 18  1  6
 17 19  1  0
 17 20  1  0
 20 21  1  6
 20 26  1  0
 20 29  1  0
 21 22  1  0
 22 23  1  6
 22 24  1  0
 22 25  1  0
 25 26  1  0
 26 27  1  6
 26 28  1  0
 29 30  1  6
M  END
