
     RDKit          3D

 31 34  0  0  0  0  0  0  0  0999 V2000
   -1.5300   -2.4970   -1.4880 O   0  0  0  0  0  0  0  0  0  0  0  0
   -1.3510   -1.2790   -1.2380 C   0  0  0  0  0  0  0  0  0  0  0  0
   -2.3870   -0.5110   -0.6720 N   0  0  0  0  0  0  0  0  0  0  0  0
   -3.6620   -1.1230   -0.3760 C   0  0  2  0  0  0  0  0  0  0  0  0
   -4.7380   -0.3440   -1.1020 C   0  0  0  0  0  0  0  0  0  0  0  0
   -6.0080   -0.8460   -0.8870 O   0  0  0  0  0  0  0  0  0  0  0  0
   -3.9630   -1.0690    1.0800 C   0  0  0  0  0  0  0  0  0  0  0  0
   -4.4530   -2.2040    1.7180 C   0  0  0  0  0  0  0  0  0  0  0  0
   -4.7470   -2.2130    3.0670 C   0  0  0  0  0  0  0  0  0  0  0  0
   -4.5600   -1.0870    3.8310 C   0  0  0  0  0  0  0  0  0  0  0  0
   -4.8470   -1.0850    5.1730 F   0  0  0  0  0  0  0  0  0  0  0  0
   -4.0750    0.0450    3.2120 C   0  0  0  0  0  0  0  0  0  0  0  0
   -3.8390    1.4750    4.1860 Cl  0  0  0  0  0  0  0  0  0  0  0  0
   -3.7780    0.0550    1.8510 C   0  0  0  0  0  0  0  0  0  0  0  0
   -0.0520   -0.7010   -1.5510 C   0  0  0  0  0  0  0  0  0  0  0  0
    0.3740    0.6060   -1.3730 C   0  0  0  0  0  0  0  0  0  0  0  0
    1.6860    0.7530   -1.7980 C   0  0  0  0  0  0  0  0  0  0  0  0
    2.4610    1.9850   -1.7610 C   0  0  0  0  0  0  0  0  0  0  0  0
    2.1620    3.1630   -2.3720 N   0  0  0  0  0  0  0  0  0  0  0  0
    3.0870    4.0630   -2.1210 N   0  0  0  0  0  0  0  0  0  0  0  0
    4.0040    3.4860   -1.3420 C   0  0  0  0  0  0  0  0  0  0  0  0
    3.6280    2.1580   -1.0970 C   0  0  0  0  0  0  0  0  0  0  0  0
    4.3830    1.2400   -0.2920 C   0  0  0  0  0  0  0  0  0  0  0  0
    5.6430    0.8170   -0.6950 C   0  0  0  0  0  0  0  0  0  0  0  0
    6.3710   -0.0580    0.0740 C   0  0  0  0  0  0  0  0  0  0  0  0
    5.9060   -0.5600    1.2690 C   0  0  0  0  0  0  0  0  0  0  0  0
    4.6560   -0.1520    1.6870 C   0  0  0  0  0  0  0  0  0  0  0  0
    4.0590   -0.7830    3.2030 Cl  0  0  0  0  0  0  0  0  0  0  0  0
    3.9200    0.7350    0.9050 C   0  0  0  0  0  0  0  0  0  0  0  0
    2.0460   -0.5080   -2.2400 C   0  0  0  0  0  0  0  0  0  0  0  0
    1.0050   -1.3410   -2.0830 N   0  0  0  0  0  0  0  0  0  0  0  0
  1  2  2  0
  2  3  1  0
  2 15  1  0
  3  4  1  0
  4  5  1  6
  4  7  1  0
  5  6  1  0
  7  8  2  0
  7 14  1  0
  8  9  1  0
  9 10  2  0
 10 11  1  0
 10 12  1  0
 12 13  1  0
 12 14  2  0
 15 16  2  0
 15 31  1  0
 16 17  1  0
 17 18  1  0
 17 30  2  0
 18 19  1  0
 18 22  2  0
 19 20  1  0
 20 21  2  0
 21 22  1  0
 22 23  1  0
 23 24  2  0
 23 29  1  0
 24 25  1  0
 25 26  2  0
 26 27  1  0
 27 28  1  0
 27 29  2  0
 30 31  1  0
M  END
