
     RDKit          3D

 29 31  0  0  0  0  0  0  0  0999 V2000
   -1.7110   -2.6960   -1.0270 C   0  0  0  0  0  0  0  0  0  0  0  0
   -2.3980   -1.3790   -0.8830 C   0  0  1  0  0  0  0  0  0  0  0  0
   -3.3680   -1.4650    0.3190 C   0  0  0  0  0  0  0  0  0  0  0  0
   -1.4400   -0.2490   -0.6700 C   0  0  0  0  0  0  0  0  0  0  0  0
   -0.6210    0.1060   -1.8010 N   0  0  0  0  0  0  0  0  0  0  0  0
    0.6490    0.7400   -1.6320 C   0  0  0  0  0  0  0  0  0  0  0  0
    1.2980    1.0290   -2.6790 O   0  0  0  0  0  0  0  0  0  0  0  0
    1.2710    1.0940   -0.3540 C   0  0  1  0  0  0  0  0  0  0  0  0
    2.3200    0.0850    0.0600 C   0  0  0  0  0  0  0  0  0  0  0  0
    1.8740   -1.2460    0.2430 N   0  0  0  0  0  0  0  0  0  0  0  0
    1.8350   -2.1970   -0.7030 C   0  0  0  0  0  0  0  0  0  0  0  0
    2.1690   -2.0800   -1.9100 O   0  0  0  0  0  0  0  0  0  0  0  0
    1.3830   -3.2880   -0.1490 O   0  0  0  0  0  0  0  0  0  0  0  0
    1.1190   -3.1100    1.1170 C   0  0  0  0  0  0  0  0  0  0  0  0
    0.6340   -3.9560    2.0850 C   0  0  0  0  0  0  0  0  0  0  0  0
    0.4690   -3.4390    3.3470 C   0  0  0  0  0  0  0  0  0  0  0  0
    0.7630   -2.1370    3.6730 C   0  0  0  0  0  0  0  0  0  0  0  0
    1.2490   -1.3150    2.6720 C   0  0  0  0  0  0  0  0  0  0  0  0
    1.4250   -1.8130    1.3920 C   0  0  0  0  0  0  0  0  0  0  0  0
    1.9270    2.4190   -0.4660 N   0  0  0  0  0  0  0  0  0  0  0  0
    1.5390    3.4920    0.3720 C   0  0  0  0  0  0  0  0  0  0  0  0
    0.6330    3.2990    1.2070 O   0  0  0  0  0  0  0  0  0  0  0  0
    2.1800    4.8450    0.2860 C   0  0  0  0  0  0  0  0  0  0  0  0
    1.5630    5.7870    1.2980 C   0  0  0  0  0  0  0  0  0  0  0  0
   -0.1770    5.9200    0.9320 Cl  0  0  0  0  0  0  0  0  0  0  0  0
   -1.0750   -0.1500   -3.1490 C   0  0  0  0  0  0  0  0  0  0  0  0
   -2.5520    0.2030   -3.3040 C   0  0  0  0  0  0  0  0  0  0  0  0
   -3.4520   -0.9730   -2.2980 S   0  0  0  0  0  0  0  0  0  0  0  0
   -4.7680   -0.3640   -1.8590 O   0  0  0  0  0  0  0  0  0  0  0  0
  2  1  1  6
  2  3  1  0
  2  4  1  0
  2 28  1  0
  4  5  1  0
  5  6  1  0
  5 26  1  0
  6  7  2  0
  6  8  1  0
  8  9  1  6
  8 20  1  0
  9 10  1  0
 10 11  1  0
 10 19  1  0
 11 12  2  0
 11 13  1  0
 13 14  1  0
 14 15  2  0
 14 19  1  0
 15 16  1  0
 16 17  2  0
 17 18  1  0
 18 19  2  0
 20 21  1  0
 21 22  2  0
 21 23  1  0
 23 24  1  0
 24 25  1  0
 26 27  1  0
 28 27  1  6
 28 29  2  0
M  END
