
     RDKit          3D

 28 30  0  0  0  0  0  0  0  0999 V2000
    8.8100   -0.4320    0.9950 C   0  0  0  0  0  0  0  0  0  0  0  0
    7.3390   -0.4710    0.6430 C   0  0  0  0  0  0  0  0  0  0  0  0
    6.5710   -1.5990    0.6440 C   0  0  0  0  0  0  0  0  0  0  0  0
    5.2820   -1.2000    0.2640 C   0  0  0  0  0  0  0  0  0  0  0  0
    5.3150    0.1370    0.0490 C   0  0  0  0  0  0  0  0  0  0  0  0
    4.3050    1.1040   -0.3590 C   0  0  0  0  0  0  0  0  0  0  0  0
    4.7200    2.3410   -0.4500 O   0  0  0  0  0  0  0  0  0  0  0  0
    2.9660    0.8230   -0.6520 N   0  0  0  0  0  0  0  0  0  0  0  0
    2.4150   -0.4760   -0.5920 C   0  0  0  0  0  0  0  0  0  0  0  0
    0.9620   -0.6130   -0.9930 C   0  0  0  0  0  0  0  0  0  0  0  0
    0.1570    0.6260   -0.9250 C   0  0  1  0  0  0  0  0  0  0  0  0
   -0.3390    1.0320    0.3880 C   0  0  0  0  0  0  0  0  0  0  0  0
    0.2880    1.9970    0.9440 O   0  0  0  0  0  0  0  0  0  0  0  0
   -1.4280    0.4720    1.1020 N   0  0  0  0  0  0  0  0  0  0  0  0
   -1.6850    1.0530    2.4330 C   0  0  0  0  0  0  0  0  0  0  0  0
   -2.2710   -0.5960    0.6120 C   0  0  0  0  0  0  0  0  0  0  0  0
   -3.4600   -0.1320   -0.1820 C   0  0  2  0  0  0  0  0  0  0  0  0
   -4.3580    0.7510    0.6460 C   0  0  0  0  0  0  0  0  0  0  0  0
   -5.1140   -0.0960    1.6490 C   0  0  0  0  0  0  0  0  0  0  0  0
   -5.9620   -1.0010    0.9750 O   0  0  0  0  0  0  0  0  0  0  0  0
   -5.1270   -1.9380    0.3660 C   0  0  0  0  0  0  0  0  0  0  0  0
   -4.2910   -1.2900   -0.6870 C   0  0  1  0  0  0  0  0  0  0  0  0
   -5.2160   -0.7210   -1.6790 N   0  0  0  0  0  0  0  0  0  0  0  0
   -6.2540   -1.9190   -2.3660 S   0  0  0  0  0  0  0  0  0  0  0  0
   -6.5160   -1.6340   -3.8580 O   0  0  0  0  0  0  0  0  0  0  0  0
    0.8810    1.7110   -1.6580 C   0  0  0  0  0  0  0  0  0  0  0  0
    2.1750    2.0080   -1.0290 C   0  0  0  0  0  0  0  0  0  0  0  0
    6.5880    0.5070    0.2980 O   0  0  0  0  0  0  0  0  0  0  0  0
  1  2  1  0
  2  3  2  0
  2 28  1  0
  3  4  1  0
  4  5  2  0
  5  6  1  0
  5 28  1  0
  6  7  2  0
  6  8  1  0
  8  9  1  0
  8 27  1  0
  9 10  1  0
 10 11  1  0
 11 12  1  1
 11 26  1  0
 12 13  2  0
 12 14  1  0
 14 15  1  0
 14 16  1  0
 17 16  1  1
 17 18  1  0
 17 22  1  0
 18 19  1  0
 19 20  1  0
 20 21  1  0
 21 22  1  0
 22 23  1  6
 23 24  1  0
 24 25  2  0
 26 27  1  0
M  END
