
     RDKit          3D

 29 31  0  0  0  0  0  0  0  0999 V2000
    4.8010    4.4520    1.5250 C   0  0  0  0  0  0  0  0  0  0  0  0
    4.9840    3.9270    0.0940 C   0  0  0  0  0  0  0  0  0  0  0  0
    3.7310    4.2700   -0.6390 C   0  0  0  0  0  0  0  0  0  0  0  0
    2.3210    3.4780    0.1480 S   0  0  0  0  0  0  0  0  0  0  0  0
    2.3220    1.7340   -0.1290 C   0  0  0  0  0  0  0  0  0  0  0  0
    3.1730    1.1050   -0.8850 C   0  0  0  0  0  0  0  0  0  0  0  0
    3.1310   -0.3220   -1.1010 C   0  0  0  0  0  0  0  0  0  0  0  0
    2.1860   -1.0800   -0.5520 C   0  0  0  0  0  0  0  0  0  0  0  0
    2.2240   -2.5390   -0.7990 C   0  0  0  0  0  0  0  0  0  0  0  0
    3.1020   -3.1520   -1.6990 C   0  0  0  0  0  0  0  0  0  0  0  0
    2.8900   -4.5120   -1.6480 C   0  0  0  0  0  0  0  0  0  0  0  0
    1.9300   -4.7560   -0.7630 N   0  0  0  0  0  0  0  0  0  0  0  0
    1.5240   -3.5510   -0.2440 C   0  0  0  0  0  0  0  0  0  0  0  0
    0.4710   -3.4650    0.8050 C   0  0  0  0  0  0  0  0  0  0  0  0
    0.0070   -4.7860    1.0860 O   0  0  0  0  0  0  0  0  0  0  0  0
    1.0230   -0.3970    0.0670 C   0  0  2  0  0  0  0  0  0  0  0  0
    0.0490   -0.2160   -1.1100 C   0  0  0  0  0  0  0  0  0  0  0  0
   -1.2030    0.4380   -0.7920 C   0  0  0  0  0  0  0  0  0  0  0  0
   -1.1260    1.7170   -0.5850 O   0  0  0  0  0  0  0  0  0  0  0  0
   -2.4800   -0.1510   -0.6830 N   0  0  0  0  0  0  0  0  0  0  0  0
   -2.6600   -1.5520   -0.9350 C   0  0  0  0  0  0  0  0  0  0  0  0
   -3.2440   -2.0630    0.3960 C   0  0  0  0  0  0  0  0  0  0  0  0
   -4.5090   -1.5840    0.4830 O   0  0  0  0  0  0  0  0  0  0  0  0
   -4.7820   -0.3040    0.1570 C   0  0  1  0  0  0  0  0  0  0  0  0
   -5.5800    0.3420    1.2980 C   0  0  0  0  0  0  0  0  0  0  0  0
   -5.9280    1.7700    1.0090 C   0  0  0  0  0  0  0  0  0  0  0  0
   -6.6470    2.2430    2.1090 O   0  0  0  0  0  0  0  0  0  0  0  0
   -3.6680    0.5750   -0.3050 C   0  0  0  0  0  0  0  0  0  0  0  0
    1.3700    0.9130    0.6560 C   0  0  0  0  0  0  0  0  0  0  0  0
  1  2  1  0
  2  3  1  0
  3  4  1  0
  4  5  1  0
  5  6  2  0
  5 29  1  0
  6  7  1  0
  7  8  2  0
  8  9  1  0
  8 16  1  0
  9 10  1  0
  9 13  2  0
 10 11  2  0
 11 12  1  0
 12 13  1  0
 13 14  1  0
 14 15  1  0
 16 17  1  6
 16 29  1  0
 17 18  1  0
 18 19  2  0
 18 20  1  0
 20 21  1  0
 20 28  1  0
 21 22  1  0
 22 23  1  0
 23 24  1  0
 24 25  1  1
 24 28  1  0
 25 26  1  0
 26 27  1  0
M  END
