
     RDKit          3D

 29 31  0  0  0  0  0  0  0  0999 V2000
   -6.7900   -0.9630    0.7920 C   0  0  0  0  0  0  0  0  0  0  0  0
   -5.6220   -0.5100    1.1150 C   0  0  0  0  0  0  0  0  0  0  0  0
   -4.7250   -1.3590    2.4870 S   0  0  0  0  0  0  0  0  0  0  0  0
   -3.3190   -0.3730    2.4010 C   0  0  0  0  0  0  0  0  0  0  0  0
   -3.5440    0.5610    1.3600 C   0  0  0  0  0  0  0  0  0  0  0  0
   -2.3110    1.4150    1.0940 C   0  0  0  0  0  0  0  0  0  0  0  0
   -1.3810    0.7350    0.1690 C   0  0  0  0  0  0  0  0  0  0  0  0
   -1.6120    0.5300   -1.0160 O   0  0  0  0  0  0  0  0  0  0  0  0
   -0.1250    0.2810    0.6900 N   0  0  0  0  0  0  0  0  0  0  0  0
    0.8200   -0.3910   -0.2220 C   0  0  1  0  0  0  0  0  0  0  0  0
    2.1510   -0.0400    0.2300 C   0  0  0  0  0  0  0  0  0  0  0  0
    2.3200    1.1760    0.6010 O   0  0  0  0  0  0  0  0  0  0  0  0
    3.2990   -0.8420    0.3310 N   0  0  0  0  0  0  0  0  0  0  0  0
    4.5820   -0.4430    0.7860 C   0  0  0  0  0  0  0  0  0  0  0  0
    5.2370    0.6050   -0.0090 C   0  0  0  0  0  0  0  0  0  0  0  0
    4.7820    1.1330   -1.1970 C   0  0  0  0  0  0  0  0  0  0  0  0
    5.7090    2.0920   -1.5970 C   0  0  0  0  0  0  0  0  0  0  0  0
    6.6830    2.0920   -0.6210 C   0  0  0  0  0  0  0  0  0  0  0  0
    7.8880    3.0000   -0.6730 C   0  0  0  0  0  0  0  0  0  0  0  0
    6.3720    1.2210    0.2740 O   0  0  0  0  0  0  0  0  0  0  0  0
    0.4410   -1.8330   -0.2370 C   0  0  1  0  0  0  0  0  0  0  0  0
    0.9060   -2.6460   -1.3840 C   0  0  0  0  0  0  0  0  0  0  0  0
    0.6310   -4.0640   -0.8610 C   0  0  0  0  0  0  0  0  0  0  0  0
    0.7110   -3.8750    0.6150 C   0  0  0  0  0  0  0  0  0  0  0  0
    0.5550   -2.5300    0.9200 O   0  0  0  0  0  0  0  0  0  0  0  0
   -4.7330    0.4630    0.7300 C   0  0  0  0  0  0  0  0  0  0  0  0
   -5.1320    1.3680   -0.2080 C   0  0  0  0  0  0  0  0  0  0  0  0
   -4.3370    2.4690   -0.7500 C   0  0  0  0  0  0  0  0  0  0  0  0
   -6.5500    1.3240   -0.7340 C   0  0  0  0  0  0  0  0  0  0  0  0
  1  2  2  0
  2  3  1  0
  2 26  1  0
  3  4  1  0
  4  5  2  0
  5  6  1  0
  5 26  1  0
  6  7  1  0
  7  8  2  0
  7  9  1  0
 10  9  1  1
 10 11  1  0
 10 21  1  0
 11 12  2  0
 11 13  1  0
 13 14  1  0
 14 15  1  0
 15 16  2  0
 15 20  1  0
 16 17  1  0
 17 18  2  0
 18 19  1  0
 18 20  1  0
 21 22  1  6
 21 25  1  0
 22 23  1  0
 23 24  1  0
 24 25  1  0
 26 27  2  3
 27 28  1  0
 27 29  1  0
M  END
