
     RDKit          3D

 30 33  0  0  0  0  0  0  0  0999 V2000
   -2.7450    3.4880   -2.6850 C   0  0  0  0  0  0  0  0  0  0  0  0
   -2.7900    2.6490   -1.4280 C   0  0  1  0  0  0  0  0  0  0  0  0
   -3.8070    1.5190   -1.5860 C   0  0  0  0  0  0  0  0  0  0  0  0
   -3.2960    0.2440   -0.9740 C   0  0  0  0  0  0  0  0  0  0  0  0
   -2.6890    0.4830    0.4280 C   0  0  1  0  0  0  0  0  0  0  0  0
   -3.8090    1.0430    1.1270 O   0  0  0  0  0  0  0  0  0  0  0  0
   -2.5180   -0.8330    1.0660 C   0  0  0  0  0  0  0  0  0  0  0  0
   -3.7940   -1.5960    1.2550 C   0  0  0  0  0  0  0  0  0  0  0  0
   -4.0860   -2.7690    0.7250 C   0  0  0  0  0  0  0  0  0  0  0  0
   -5.4300   -3.1430    1.1710 C   0  0  0  0  0  0  0  0  0  0  0  0
   -5.8510   -2.0380    2.0240 C   0  0  0  0  0  0  0  0  0  0  0  0
   -4.8930   -1.1300    2.0730 C   0  0  0  0  0  0  0  0  0  0  0  0
   -1.5840    1.4280    0.3030 C   0  0  1  0  0  0  0  0  0  0  0  0
   -0.2920    1.3100    0.9400 C   0  0  0  0  0  0  0  0  0  0  0  0
    0.7460    0.3440    0.8510 C   0  0  2  0  0  0  0  0  0  0  0  0
    0.7310   -1.0730    1.1580 C   0  0  0  0  0  0  0  0  0  0  0  0
    1.8930    0.8820    1.5850 O   0  0  0  0  0  0  0  0  0  0  0  0
    3.0430    0.4060    0.9860 C   0  0  0  0  0  0  0  0  0  0  0  0
    2.8250    0.1060   -0.2650 C   0  0  0  0  0  0  0  0  0  0  0  0
    3.8630   -0.4330   -1.1840 C   0  0  0  0  0  0  0  0  0  0  0  0
    5.1530   -0.5840   -0.5140 C   0  0  0  0  0  0  0  0  0  0  0  0
    6.0790    0.4360   -0.4980 C   0  0  0  0  0  0  0  0  0  0  0  0
    7.2980    0.2840    0.1390 C   0  0  0  0  0  0  0  0  0  0  0  0
    7.6270   -0.8840    0.7740 C   0  0  0  0  0  0  0  0  0  0  0  0
    8.8660   -1.0450    1.4240 O   0  0  0  0  0  0  0  0  0  0  0  0
    6.7120   -1.9140    0.7670 C   0  0  0  0  0  0  0  0  0  0  0  0
    5.4900   -1.7560    0.1260 C   0  0  0  0  0  0  0  0  0  0  0  0
    1.4210    0.3990   -0.5540 C   0  0  1  0  0  0  0  0  0  0  0  0
    0.7990   -0.5430   -1.4420 N   0  0  0  0  0  0  0  0  0  0  0  0
   -1.4660    1.9640   -1.1640 C   0  0  0  0  0  0  0  0  0  0  0  0
  2  1  1  6
  2  3  1  0
  2 30  1  0
  3  4  1  0
  4  5  1  0
  5  6  1  1
  5  7  1  0
  5 13  1  0
  7  8  1  0
  8  9  2  0
  8 12  1  0
  9 10  1  0
 10 11  1  0
 11 12  2  0
 13 14  1  6
 13 30  1  0
 14 15  1  0
 15 16  1  1
 15 17  1  0
 15 28  1  0
 17 18  1  0
 18 19  2  0
 19 20  1  0
 19 28  1  0
 20 21  1  0
 21 22  2  0
 21 27  1  0
 22 23  1  0
 23 24  2  0
 24 25  1  0
 24 26  1  0
 26 27  2  0
 28 29  1  6
M  END
