
     RDKit          3D

 29 31  0  0  0  0  0  0  0  0999 V2000
    6.6520   -1.9610    0.5530 C   0  0  0  0  0  0  0  0  0  0  0  0
    6.2510   -1.6200   -0.6510 C   0  0  0  0  0  0  0  0  0  0  0  0
    7.0820   -1.0840   -1.7430 C   0  0  0  0  0  0  0  0  0  0  0  0
    6.2340   -0.9040   -2.7560 C   0  0  0  0  0  0  0  0  0  0  0  0
    4.8760   -1.3030   -2.3670 C   0  0  0  0  0  0  0  0  0  0  0  0
    4.8660   -1.7300   -1.1230 C   0  0  0  0  0  0  0  0  0  0  0  0
    3.8110   -2.1930   -0.3740 O   0  0  0  0  0  0  0  0  0  0  0  0
    2.5450   -1.6340   -0.2600 C   0  0  0  0  0  0  0  0  0  0  0  0
    2.6630   -0.2530    0.2680 C   0  0  0  0  0  0  0  0  0  0  0  0
    3.8180    0.2180    0.4700 O   0  0  0  0  0  0  0  0  0  0  0  0
    1.4890    0.4900    0.5280 N   0  0  0  0  0  0  0  0  0  0  0  0
    0.2000   -0.1060    0.2980 C   0  0  0  0  0  0  0  0  0  0  0  0
   -0.8020    0.4000    1.3040 C   0  0  0  0  0  0  0  0  0  0  0  0
   -2.0500    0.3660    0.9950 C   0  0  0  0  0  0  0  0  0  0  0  0
   -3.2600    0.7400    1.6610 C   0  0  0  0  0  0  0  0  0  0  0  0
   -4.4230    0.5910    1.0310 C   0  0  0  0  0  0  0  0  0  0  0  0
   -4.6730    0.0930   -0.2900 C   0  0  0  0  0  0  0  0  0  0  0  0
   -4.0590    0.4350   -1.4610 C   0  0  0  0  0  0  0  0  0  0  0  0
   -4.6510   -0.3250   -2.4850 C   0  0  0  0  0  0  0  0  0  0  0  0
   -5.5950   -1.0850   -1.8540 C   0  0  0  0  0  0  0  0  0  0  0  0
   -6.5200   -2.0790   -2.4960 C   0  0  0  0  0  0  0  0  0  0  0  0
   -5.5830   -0.8200   -0.5870 O   0  0  0  0  0  0  0  0  0  0  0  0
   -3.3330    1.2760    2.9890 C   0  0  0  0  0  0  0  0  0  0  0  0
   -4.6800    1.6070    3.4850 N   0  0  0  0  0  0  0  0  0  0  0  0
   -2.4280    1.5010    3.7770 O   0  0  0  0  0  0  0  0  0  0  0  0
   -0.1570    1.0020    2.8090 S   0  0  0  0  0  0  0  0  0  0  0  0
    1.3500    1.9330    2.4760 C   0  0  0  0  0  0  0  0  0  0  0  0
    1.6510    1.8420    1.0240 C   0  0  2  0  0  0  0  0  0  0  0  0
    0.6690    2.7160    0.2660 C   0  0  0  0  0  0  0  0  0  0  0  0
  1  2  2  0
  2  3  1  0
  2  6  1  0
  3  4  2  0
  4  5  1  0
  5  6  2  0
  6  7  1  0
  7  8  1  0
  8  9  1  0
  9 10  2  0
  9 11  1  0
 11 12  1  0
 11 28  1  0
 12 13  1  0
 13 14  2  3
 13 26  1  0
 14 15  1  0
 15 16  2  3
 15 23  1  0
 16 17  1  0
 17 18  2  0
 17 22  1  0
 18 19  1  0
 19 20  2  0
 20 21  1  0
 20 22  1  0
 23 24  1  0
 23 25  2  0
 26 27  1  0
 27 28  1  0
 28 29  1  6
M  END
