
     RDKit          3D

 29 30  0  0  0  0  0  0  0  0999 V2000
    4.8720   -0.3560   -0.0060 C   0  0  0  0  0  0  0  0  0  0  0  0
    3.7430   -1.0250   -0.0820 C   0  0  0  0  0  0  0  0  0  0  0  0
    2.5570   -0.5100    0.6150 C   0  0  0  0  0  0  0  0  0  0  0  0
    1.4020   -1.1320    0.5820 C   0  0  0  0  0  0  0  0  0  0  0  0
    1.3230   -2.3680   -0.1750 C   0  0  0  0  0  0  0  0  0  0  0  0
    2.3670   -2.8680   -0.8190 C   0  0  0  0  0  0  0  0  0  0  0  0
    3.7060   -2.2750   -0.8640 C   0  0  2  0  0  0  0  0  0  0  0  0
    4.8880   -3.4650   -0.2040 S   0  0  1  0  0  0  0  0  0  0  0  0
    4.4610   -4.8640   -0.4860 O   0  0  0  0  0  0  0  0  0  0  0  0
    6.2320   -3.2570   -0.8720 O   0  0  0  0  0  0  0  0  0  0  0  0
    0.0740   -3.1570   -0.2700 C   0  0  0  0  0  0  0  0  0  0  0  0
   -1.0830   -2.6630    0.4910 C   0  0  0  0  0  0  0  0  0  0  0  0
   -0.7620   -1.7190    1.5680 C   0  0  0  0  0  0  0  0  0  0  0  0
    0.2210   -0.6450    1.2710 C   0  0  2  0  0  0  0  0  0  0  0  0
   -0.3730    0.5710    0.6950 N   0  0  0  0  0  0  0  0  0  0  0  0
   -0.4080    1.7190    1.4930 C   0  0  0  0  0  0  0  0  0  0  0  0
    0.0580    1.5640    2.7110 O   0  0  0  0  0  0  0  0  0  0  0  0
   -0.8670    3.0680    1.2120 C   0  0  0  0  0  0  0  0  0  0  0  0
   -0.9990    3.9200    2.4690 C   0  0  0  0  0  0  0  0  0  0  0  0
    0.3270    4.0480    3.1830 C   0  0  0  0  0  0  0  0  0  0  0  0
   -0.9310    0.5130   -0.6370 C   0  0  1  0  0  0  0  0  0  0  0  0
   -2.4400    0.5050   -0.5320 C   0  0  0  0  0  0  0  0  0  0  0  0
   -3.0250    0.7880    0.5660 O   0  0  0  0  0  0  0  0  0  0  0  0
   -3.3130    0.1910   -1.5990 N   0  0  0  0  0  0  0  0  0  0  0  0
   -4.7780    0.2170   -1.4050 C   0  0  0  0  0  0  0  0  0  0  0  0
   -5.1840   -0.7680   -0.3240 C   0  0  0  0  0  0  0  0  0  0  0  0
   -0.4180    1.5390   -1.5830 C   0  0  1  0  0  0  0  0  0  0  0  0
    1.1120    1.4260   -1.7450 C   0  0  0  0  0  0  0  0  0  0  0  0
   -0.9280    1.3550   -3.0240 C   0  0  0  0  0  0  0  0  0  0  0  0
  1  2  2  0
  2  3  1  0
  2  7  1  0
  3  4  2  0
  4  5  1  0
  4 14  1  0
  5  6  2  0
  5 11  1  0
  7  6  1  1
  8  7  1  6
  8  9  2  0
  8 10  2  0
 11 12  1  0
 12 13  1  0
 13 14  1  0
 14 15  1  6
 15 16  1  0
 21 15  1  1
 16 17  2  0
 16 18  1  0
 18 19  1  0
 19 20  1  0
 21 22  1  0
 21 27  1  0
 22 23  2  0
 22 24  1  0
 24 25  1  0
 25 26  1  0
 27 28  1  6
 27 29  1  0
M  END
