
     RDKit          3D

 30 34  0  0  0  0  0  0  0  0999 V2000
    6.7800    1.8360    0.4940 C   0  0  0  0  0  0  0  0  0  0  0  0
    6.0230    0.5630    0.5950 C   0  0  0  0  0  0  0  0  0  0  0  0
    6.6130   -0.6660    0.3770 C   0  0  0  0  0  0  0  0  0  0  0  0
    5.8840   -1.8290    0.4100 C   0  0  0  0  0  0  0  0  0  0  0  0
    4.5230   -1.7480    0.6690 C   0  0  0  0  0  0  0  0  0  0  0  0
    3.9040   -0.5450    0.8880 C   0  0  0  0  0  0  0  0  0  0  0  0
    2.4530   -0.4840    0.9540 C   0  0  0  0  0  0  0  0  0  0  0  0
    1.6960    0.3140    1.7430 C   0  0  0  0  0  0  0  0  0  0  0  0
    0.3110    0.4270    1.5690 C   0  0  0  0  0  0  0  0  0  0  0  0
   -0.3470   -0.2820    0.5650 C   0  0  0  0  0  0  0  0  0  0  0  0
   -1.7990   -0.0930    0.2660 C   0  0  2  0  0  0  0  0  0  0  0  0
   -1.8240    0.5970   -1.0150 C   0  0  1  0  0  0  0  0  0  0  0  0
   -2.9810    1.0850   -1.7230 C   0  0  0  0  0  0  0  0  0  0  0  0
   -2.9190    2.6050   -1.4610 C   0  0  0  0  0  0  0  0  0  0  0  0
   -1.5200    2.8010   -2.0290 C   0  0  0  0  0  0  0  0  0  0  0  0
   -0.7990    1.7080   -1.2120 C   0  0  1  0  0  0  0  0  0  0  0  0
   -0.4200    2.3750   -0.0900 O   0  0  0  0  0  0  0  0  0  0  0  0
   -2.4550    0.4410    1.4820 C   0  0  1  0  0  0  0  0  0  0  0  0
   -3.9570    0.3480    1.1360 C   0  0  0  0  0  0  0  0  0  0  0  0
   -4.0090   -1.0090    0.5900 C   0  0  0  0  0  0  0  0  0  0  0  0
   -2.5360   -1.3910    0.2440 C   0  0  1  0  0  0  0  0  0  0  0  0
   -2.4790   -2.3060   -0.8310 C   0  0  0  0  0  0  0  0  0  0  0  0
   -3.0970   -2.0640   -2.0660 N   0  0  0  0  0  0  0  0  0  0  0  0
   -1.8590   -3.4070   -0.7200 O   0  0  0  0  0  0  0  0  0  0  0  0
   -1.9830   -1.9450    1.5770 C   0  0  2  0  0  0  0  0  0  0  0  0
   -2.6690   -3.0770    1.9330 O   0  0  0  0  0  0  0  0  0  0  0  0
   -2.3090   -0.7300    2.4400 C   0  0  0  0  0  0  0  0  0  0  0  0
    0.4380   -1.0930   -0.2220 C   0  0  0  0  0  0  0  0  0  0  0  0
    1.7940   -1.2210   -0.0640 C   0  0  0  0  0  0  0  0  0  0  0  0
    4.6440    0.6020    0.8550 C   0  0  0  0  0  0  0  0  0  0  0  0
  1  2  1  0
  2  3  2  0
  2 30  1  0
  3  4  1  0
  4  5  2  0
  5  6  1  0
  6  7  1  0
  6 30  2  0
  7  8  2  0
  7 29  1  0
  8  9  1  0
  9 10  2  0
 11 10  1  1
 10 28  1  0
 11 12  1  0
 11 18  1  0
 11 21  1  0
 12 13  1  1
 12 16  1  0
 13 14  1  0
 14 15  1  0
 15 16  1  0
 16 17  1  1
 18 19  1  6
 18 27  1  0
 19 20  1  0
 20 21  1  0
 21 22  1  6
 21 25  1  0
 22 23  1  0
 22 24  2  0
 25 26  1  1
 25 27  1  0
 28 29  2  0
M  END
