
     RDKit          3D

 13 13  0  0  0  0  0  0  0  0999 V2000
    3.0630    0.8920    0.1980 C   0  0  0  0  0  0  0  0  0  0  0  0
    2.6810   -0.4560    0.0170 O   0  0  0  0  0  0  0  0  0  0  0  0
    1.3260   -0.7410   -0.0890 C   0  0  0  0  0  0  0  0  0  0  0  0
    0.9350   -2.0510   -0.2660 C   0  0  0  0  0  0  0  0  0  0  0  0
   -0.4120   -2.3180   -0.3700 C   0  0  0  0  0  0  0  0  0  0  0  0
   -1.3490   -1.3120   -0.2990 C   0  0  0  0  0  0  0  0  0  0  0  0
   -2.6880   -1.6470   -0.4100 O   0  0  0  0  0  0  0  0  0  0  0  0
   -0.9490   -0.0110   -0.1220 C   0  0  0  0  0  0  0  0  0  0  0  0
   -1.9760    1.0460   -0.0530 C   0  0  0  0  0  0  0  0  0  0  0  0
   -1.4690    2.3660    0.1390 N   0  0  0  0  0  0  0  0  0  0  0  0
   -1.6570    3.2520   -0.7100 O   0  0  0  0  0  0  0  0  0  0  0  0
   -0.7630    2.6920    1.2660 O   0  0  0  0  0  0  0  0  0  0  0  0
    0.3820    0.2850   -0.0160 C   0  0  0  0  0  0  0  0  0  0  0  0
  1  2  1  0
  2  3  1  0
  3  4  2  0
  3 13  1  0
  4  5  1  0
  5  6  2  0
  6  7  1  0
  6  8  1  0
  8  9  1  0
  8 13  2  0
  9 10  1  0
 10 11  2  0
 10 12  1  0
M  CHG  2  10   1  12  -1
M  END
