
     RDKit          3D

 13 13  0  0  0  0  0  0  0  0999 V2000
   -1.8830    2.2450    0.4550 C   0  0  0  0  0  0  0  0  0  0  0  0
   -1.4570    0.9200    0.3560 O   0  0  0  0  0  0  0  0  0  0  0  0
   -0.1380    0.5690    0.1580 C   0  0  0  0  0  0  0  0  0  0  0  0
    0.9170    1.4500    0.0230 C   0  0  0  0  0  0  0  0  0  0  0  0
    2.1850    0.9690   -0.1790 C   0  0  0  0  0  0  0  0  0  0  0  0
    2.4470   -0.3790   -0.2520 C   0  0  0  0  0  0  0  0  0  0  0  0
    3.7370   -0.9060   -0.4670 O   0  0  0  0  0  0  0  0  0  0  0  0
    1.3780   -1.2590   -0.1110 C   0  0  0  0  0  0  0  0  0  0  0  0
    0.1020   -0.7930    0.0910 C   0  0  0  0  0  0  0  0  0  0  0  0
   -0.9980   -1.7520    0.3030 C   0  0  0  0  0  0  0  0  0  0  0  0
   -2.1600   -1.5150   -0.5170 N   0  0  0  0  0  0  0  0  0  0  0  0
   -3.2550   -1.3220    0.0200 O   0  0  0  0  0  0  0  0  0  0  0  0
   -2.0640   -1.5170   -1.8820 O   0  0  0  0  0  0  0  0  0  0  0  0
  1  2  1  0
  2  3  1  0
  3  4  2  0
  3  9  1  0
  4  5  1  0
  5  6  2  0
  6  7  1  0
  6  8  1  0
  8  9  2  0
  9 10  1  0
 10 11  1  0
 11 12  2  0
 11 13  1  0
M  CHG  2  11   1  13  -1
M  END
