
     RDKit          3D

 13 13  0  0  0  0  0  0  0  0999 V2000
    3.1890   -0.8970   -0.8790 C   0  0  0  0  0  0  0  0  0  0  0  0
    1.8430   -1.1740   -1.2240 O   0  0  0  0  0  0  0  0  0  0  0  0
    0.7980   -0.5360   -0.5680 C   0  0  0  0  0  0  0  0  0  0  0  0
    1.0410    0.3870    0.4400 C   0  0  0  0  0  0  0  0  0  0  0  0
   -0.0430    0.9940    1.0590 C   0  0  0  0  0  0  0  0  0  0  0  0
    0.1590    1.9200    2.0690 O   0  0  0  0  0  0  0  0  0  0  0  0
   -1.3380    0.6970    0.6930 C   0  0  0  0  0  0  0  0  0  0  0  0
   -2.4480    1.3760    1.3900 C   0  0  0  0  0  0  0  0  0  0  0  0
   -1.5670   -0.2200   -0.3080 C   0  0  0  0  0  0  0  0  0  0  0  0
   -0.5010   -0.8400   -0.9420 C   0  0  0  0  0  0  0  0  0  0  0  0
   -0.7000   -1.7890   -1.9740 N   0  0  0  0  0  0  0  0  0  0  0  0
    0.0750   -1.9630   -2.9280 O   0  0  0  0  0  0  0  0  0  0  0  0
   -1.8220   -2.5750   -1.9270 O   0  0  0  0  0  0  0  0  0  0  0  0
  1  2  1  0
  2  3  1  0
  3  4  2  0
  3 10  1  0
  4  5  1  0
  5  6  1  0
  5  7  2  0
  7  8  1  0
  7  9  1  0
  9 10  2  0
 10 11  1  0
 11 12  2  0
 11 13  1  0
M  CHG  2  11   1  13  -1
M  END
