
     RDKit          3D

 13 13  0  0  0  0  0  0  0  0999 V2000
    0.9680    0.2130   -0.7570 O   0  0  0  0  0  0  0  0  0  0  0  0
    1.0910   -0.2640    0.4020 C   0  0  0  0  0  0  0  0  0  0  0  0
    2.4340   -0.4210    0.9730 C   0  0  0  0  0  0  0  0  0  0  0  0
    3.4520    0.0600   -0.0320 C   0  0  0  0  0  0  0  0  0  0  0  0
    3.2020    1.4460   -0.3250 N   0  0  0  0  0  0  0  0  0  0  0  0
    2.9360    1.8700   -1.4620 O   0  0  0  0  0  0  0  0  0  0  0  0
    3.2610    2.3460    0.7100 O   0  0  0  0  0  0  0  0  0  0  0  0
   -0.0690   -0.6170    1.0830 O   0  0  0  0  0  0  0  0  0  0  0  0
   -1.2800   -0.4210    0.4380 C   0  0  0  0  0  0  0  0  0  0  0  0
   -1.9850    0.6950    0.5180 C   0  0  0  0  0  0  0  0  0  0  0  0
   -3.2240    0.5640   -0.2920 C   0  0  0  0  0  0  0  0  0  0  0  0
   -2.7840   -0.4540   -1.3260 C   0  0  0  0  0  0  0  0  0  0  0  0
   -1.9840   -1.4100   -0.4370 C   0  0  0  0  0  0  0  0  0  0  0  0
  1  2  2  0
  2  3  1  0
  2  8  1  0
  3  4  1  0
  4  5  1  0
  5  6  2  0
  5  7  1  0
  8  9  1  0
  9 10  2  0
  9 13  1  0
 10 11  1  0
 11 12  1  0
 12 13  1  0
M  CHG  2   5   1   7  -1
M  END
