
     RDKit          3D

 13 13  0  0  0  0  0  0  0  0999 V2000
    3.1090    2.2920    0.4550 O   0  0  0  0  0  0  0  0  0  0  0  0
    2.4870    1.2130    0.3490 C   0  0  0  0  0  0  0  0  0  0  0  0
    1.0500    1.1720    0.5610 C   0  0  0  0  0  0  0  0  0  0  0  0
    0.3670    0.1490    0.0860 C   0  0  0  0  0  0  0  0  0  0  0  0
   -1.0030    0.1340    0.3030 O   0  0  0  0  0  0  0  0  0  0  0  0
   -1.8150   -0.4360   -0.7050 C   0  0  0  0  0  0  0  0  0  0  0  0
   -3.2890   -0.3660   -0.3030 C   0  0  0  0  0  0  0  0  0  0  0  0
   -3.6740    1.0090   -0.1130 N   0  0  0  0  0  0  0  0  0  0  0  0
   -4.1060    1.4640    0.9640 O   0  0  0  0  0  0  0  0  0  0  0  0
   -3.5680    1.8870   -1.1640 O   0  0  0  0  0  0  0  0  0  0  0  0
    0.9660   -0.9710   -0.6550 C   0  0  0  0  0  0  0  0  0  0  0  0
    2.3820   -0.7120   -1.1020 C   0  0  0  0  0  0  0  0  0  0  0  0
    3.1730   -0.0810    0.0020 C   0  0  0  0  0  0  0  0  0  0  0  0
  1  2  2  0
  2  3  1  0
  2 13  1  0
  3  4  2  0
  4  5  1  0
  4 11  1  0
  5  6  1  0
  6  7  1  0
  7  8  1  0
  8  9  2  0
  8 10  1  0
 11 12  1  0
 12 13  1  0
M  CHG  2   8   1  10  -1
M  END
