
     RDKit          3D

 13 13  0  0  0  0  0  0  0  0999 V2000
    3.4270    0.1820   -1.2460 C   0  0  0  0  0  0  0  0  0  0  0  0
    2.0970    0.0860   -0.7330 O   0  0  0  0  0  0  0  0  0  0  0  0
    1.8400    0.0280    0.6370 C   0  0  0  0  0  0  0  0  0  0  0  0
    2.8260    0.0640    1.4070 O   0  0  0  0  0  0  0  0  0  0  0  0
    0.4700   -0.0690    1.1390 C   0  0  0  0  0  0  0  0  0  0  0  0
   -0.5490   -0.1050    0.3050 C   0  0  0  0  0  0  0  0  0  0  0  0
   -1.9670   -0.2030    0.7350 C   0  0  0  0  0  0  0  0  0  0  0  0
   -2.6670    0.4540   -0.4630 C   0  0  0  0  0  0  0  0  0  0  0  0
   -1.9370   -0.2120   -1.6100 C   0  0  0  0  0  0  0  0  0  0  0  0
   -0.4920   -0.0560   -1.1890 C   0  0  0  0  0  0  0  0  0  0  0  0
    0.2750   -0.1230    2.5300 N   0  0  0  0  0  0  0  0  0  0  0  0
    0.3170    0.9080    3.2050 O   0  0  0  0  0  0  0  0  0  0  0  0
    0.0390   -1.3180    3.1370 O   0  0  0  0  0  0  0  0  0  0  0  0
  1  2  1  0
  2  3  1  0
  3  4  2  0
  3  5  1  0
  5  6  2  3
  5 11  1  0
  6  7  1  0
  6 10  1  0
  7  8  1  0
  8  9  1  0
  9 10  1  0
 11 12  2  0
 11 13  1  0
M  CHG  2  11   1  13  -1
M  END
