
     RDKit          3D

 12 12  0  0  0  0  0  0  0  0999 V2000
    4.1750    0.0530   -0.1270 C   0  0  0  0  0  0  0  0  0  0  0  0
    2.9370   -0.6300   -0.0630 O   0  0  0  0  0  0  0  0  0  0  0  0
    1.7570    0.0840   -0.0580 C   0  0  0  0  0  0  0  0  0  0  0  0
    1.8160    1.3360   -0.1110 O   0  0  0  0  0  0  0  0  0  0  0  0
    0.4380   -0.5180    0.0060 C   0  0  0  0  0  0  0  0  0  0  0  0
   -0.6730    0.1940    0.0090 C   0  0  0  0  0  0  0  0  0  0  0  0
   -0.7130    1.5880   -0.0470 O   0  0  0  0  0  0  0  0  0  0  0  0
   -2.0290    2.0240   -0.0270 C   0  0  0  0  0  0  0  0  0  0  0  0
   -2.3630    3.2310   -0.0660 O   0  0  0  0  0  0  0  0  0  0  0  0
   -2.8460    0.8260    0.0470 C   0  0  0  0  0  0  0  0  0  0  0  0
   -2.0580   -0.2510    0.0680 C   0  0  0  0  0  0  0  0  0  0  0  0
   -2.4900   -1.6640    0.1390 C   0  0  0  0  0  0  0  0  0  0  0  0
  1  2  1  0
  2  3  1  0
  3  4  2  0
  3  5  1  0
  5  6  2  3
  6  7  1  0
  6 11  1  0
  7  8  1  0
  8  9  2  0
  8 10  1  0
 10 11  2  0
 11 12  1  0
M  END
