
     RDKit          3D

 20 19  0  0  0  0  0  0  0  0999 V2000
   -4.1520   -1.5080   -1.0420 O   0  0  0  0  0  0  0  0  0  0  0  0
   -4.3310   -1.6990    0.1800 C   0  0  0  0  0  0  0  0  0  0  0  0
   -4.5830   -2.9920    0.6340 O   0  0  0  0  0  0  0  0  0  0  0  0
   -4.6260   -3.9960   -0.2690 O   0  0  0  0  0  0  0  0  0  0  0  0
   -4.2650   -0.6050    1.0060 O   0  0  0  0  0  0  0  0  0  0  0  0
   -4.0220    0.7010    0.6430 C   0  0  0  0  0  0  0  0  0  0  0  0
   -2.7160    0.9670   -0.0340 C   0  0  0  0  0  0  0  0  0  0  0  0
   -1.6920    0.5830    0.8620 O   0  0  0  0  0  0  0  0  0  0  0  0
   -0.5630    0.8330    0.2290 O   0  0  0  0  0  0  0  0  0  0  0  0
    0.5320    0.8630    1.0540 C   0  0  1  0  0  0  0  0  0  0  0  0
    1.5690   -0.1430    0.6450 C   0  0  0  0  0  0  0  0  0  0  0  0
    1.3110   -0.8530   -0.3580 O   0  0  0  0  0  0  0  0  0  0  0  0
    2.7530   -0.2950    1.3250 O   0  0  0  0  0  0  0  0  0  0  0  0
    3.7430   -1.2460    0.9460 C   0  0  0  0  0  0  0  0  0  0  0  0
    4.3570   -0.9360   -0.7790 P   0  0  0  0  0  0  0  0  0  0  0  0
    5.5350    0.3270   -0.7480 O   0  0  0  0  0  0  0  0  0  0  0  0
    5.0140   -2.4110   -1.3970 O   0  0  0  0  0  0  0  0  0  0  0  0
    1.2930    2.5800    1.0600 P   0  0  0  0  0  0  0  0  0  0  0  0
    2.1730    2.8480   -0.4210 O   0  0  0  0  0  0  0  0  0  0  0  0
    0.0220    3.7550    1.1330 O   0  0  0  0  0  0  0  0  0  0  0  0
  1  2  2  0
  2  3  1  0
  2  5  1  0
  3  4  1  0
  5  6  1  0
  6  7  1  0
  7  8  1  0
  8  9  1  0
 10  9  1  6
 10 11  1  0
 10 18  1  0
 11 12  2  0
 11 13  1  0
 13 14  1  0
 14 15  1  0
 15 16  1  0
 15 17  1  0
 18 19  1  0
 18 20  1  0
M  END
