
     RDKit          3D

 19 18  0  0  0  0  0  0  0  0999 V2000
    3.3040   -2.8500   -0.0810 C   0  0  0  0  0  0  0  0  0  0  0  0
    2.3130   -1.8870   -0.0550 O   0  0  0  0  0  0  0  0  0  0  0  0
    2.6080   -0.7880   -0.8430 C   0  0  0  0  0  0  0  0  0  0  0  0
    1.5180    0.1200   -0.7300 O   0  0  0  0  0  0  0  0  0  0  0  0
    1.1660    0.6440    0.5050 C   0  0  0  0  0  0  0  0  0  0  0  0
    1.7850    0.3440    1.5570 O   0  0  0  0  0  0  0  0  0  0  0  0
    0.0330    1.5890    0.6280 C   0  0  1  0  0  0  0  0  0  0  0  0
   -0.5550    1.8230   -0.6290 O   0  0  0  0  0  0  0  0  0  0  0  0
   -0.9240    1.0870    1.4800 O   0  0  0  0  0  0  0  0  0  0  0  0
   -1.4040   -0.1010    0.9400 C   0  0  0  0  0  0  0  0  0  0  0  0
   -2.3730   -0.6570    1.7540 O   0  0  0  0  0  0  0  0  0  0  0  0
   -2.8390   -1.8310    1.2070 C   0  0  0  0  0  0  0  0  0  0  0  0
   -3.5930   -1.5740   -0.4710 P   0  0  0  0  0  0  0  0  0  0  0  0
   -4.9790   -2.6030   -0.6500 O   0  0  0  0  0  0  0  0  0  0  0  0
   -4.0110    0.0920   -0.7110 O   0  0  0  0  0  0  0  0  0  0  0  0
    0.5180    2.8270    1.0870 O   0  0  0  0  0  0  0  0  0  0  0  0
    1.6730    3.3520   -0.1270 P   0  0  0  0  0  0  0  0  0  0  0  0
    0.8980    4.4510   -1.2090 O   0  0  0  0  0  0  0  0  0  0  0  0
    3.0890    4.0020    0.5920 O   0  0  0  0  0  0  0  0  0  0  0  0
  1  2  1  0
  2  3  1  0
  3  4  1  0
  4  5  1  0
  5  6  2  0
  5  7  1  0
  7  8  1  6
  7  9  1  0
  7 16  1  0
  9 10  1  0
 10 11  1  0
 11 12  1  0
 12 13  1  0
 13 14  1  0
 13 15  1  0
 16 17  1  0
 17 18  1  0
 17 19  1  0
M  END
