
     RDKit          3D

 19 19  0  0  0  0  0  0  0  0999 V2000
   -2.8110    2.7680    1.0950 O   0  0  0  0  0  0  0  0  0  0  0  0
   -2.3250    2.1650    0.1360 C   0  0  0  0  0  0  0  0  0  0  0  0
   -2.9360    2.3050   -1.1500 O   0  0  0  0  0  0  0  0  0  0  0  0
   -1.1420    1.3050    0.1350 C   0  0  2  0  0  0  0  0  0  0  0  0
   -0.3710    1.6100    1.2330 O   0  0  0  0  0  0  0  0  0  0  0  0
   -0.4000    1.5570   -1.1730 C   0  0  0  0  0  0  0  0  0  0  0  0
    0.2560    0.3660   -1.5530 O   0  0  0  0  0  0  0  0  0  0  0  0
    0.7610   -0.2190   -0.4310 C   0  0  2  0  0  0  0  0  0  0  0  0
    2.0290   -0.9770   -0.7450 C   0  0  0  0  0  0  0  0  0  0  0  0
    2.5210   -1.3190    0.5490 O   0  0  0  0  0  0  0  0  0  0  0  0
    4.1970   -0.7470    0.5760 P   0  0  0  0  0  0  0  0  0  0  0  0
    4.0030    1.0350    0.3650 O   0  0  0  0  0  0  0  0  0  0  0  0
    5.1490   -1.2960   -0.7040 O   0  0  0  0  0  0  0  0  0  0  0  0
   -0.1670   -0.8400    0.3490 O   0  0  0  0  0  0  0  0  0  0  0  0
   -1.4180   -0.1580    0.2270 C   0  0  1  0  0  0  0  0  0  0  0  0
   -2.0990   -0.4930    1.3890 O   0  0  0  0  0  0  0  0  0  0  0  0
   -2.8080   -2.0870    1.2590 P   0  0  0  0  0  0  0  0  0  0  0  0
   -1.9050   -3.1750    2.2990 O   0  0  0  0  0  0  0  0  0  0  0  0
   -2.6690   -2.6830   -0.3920 O   0  0  0  0  0  0  0  0  0  0  0  0
  1  2  2  0
  2  3  1  0
  2  4  1  0
  4  5  1  1
  4  6  1  0
  4 15  1  0
  6  7  1  0
  7  8  1  0
  8  9  1  6
  8 14  1  0
  9 10  1  0
 10 11  1  0
 11 12  1  0
 11 13  1  0
 14 15  1  0
 15 16  1  1
 16 17  1  0
 17 18  1  0
 17 19  1  0
M  END
