
     RDKit          3D

 39 42  0  0  0  0  0  0  0  0999 V2000
    5.3070   -0.9970   -2.9680 C   0  0  0  0  0  0  0  0  0  0  0  0
    5.6140   -2.0790   -2.2300 C   0  0  0  0  0  0  0  0  0  0  0  0
    4.8060   -2.5040   -1.1190 C   0  0  0  0  0  0  0  0  0  0  0  0
    5.1040   -3.5620   -0.4160 C   0  0  0  0  0  0  0  0  0  0  0  0
    6.2410   -4.4590   -0.6130 C   0  0  0  0  0  0  0  0  0  0  0  0
    7.3910   -4.5140    0.9570 Br  0  0  0  0  0  0  0  0  0  0  0  0
    3.6290   -1.7390   -0.7790 N   0  0  0  0  0  0  0  0  0  0  0  0
    3.7130   -0.4210   -0.3040 C   0  0  0  0  0  0  0  0  0  0  0  0
    4.8350    0.0950   -0.1610 O   0  0  0  0  0  0  0  0  0  0  0  0
    2.5130    0.3980    0.0400 C   0  0  0  0  0  0  0  0  0  0  0  0
    2.6320    1.7190    0.5310 C   0  0  0  0  0  0  0  0  0  0  0  0
    0.9720    2.2360    0.7460 S   0  0  0  0  0  0  0  0  0  0  0  0
    0.2540    0.5890    0.1430 C   0  0  0  0  0  0  0  0  0  0  0  0
   -1.2050    0.4170    0.0480 C   0  0  0  0  0  0  0  0  0  0  0  0
   -1.6430   -0.9100   -0.0010 C   0  0  0  0  0  0  0  0  0  0  0  0
   -0.7420   -1.9660    0.2100 N   0  0  0  0  0  0  0  0  0  0  0  0
   -0.9680   -3.3050   -0.0890 C   0  0  0  0  0  0  0  0  0  0  0  0
   -2.0630   -3.6420   -0.6220 O   0  0  0  0  0  0  0  0  0  0  0  0
    0.0230   -4.3550    0.1940 C   0  0  0  0  0  0  0  0  0  0  0  0
    1.2880   -4.2750    0.7980 C   0  0  0  0  0  0  0  0  0  0  0  0
    1.9760   -5.3880    0.9510 C   0  0  0  0  0  0  0  0  0  0  0  0
    1.4940   -6.6290    0.5360 C   0  0  0  0  0  0  0  0  0  0  0  0
   -0.1420   -6.0200   -0.1380 S   0  0  0  0  0  0  0  0  0  0  0  0
   -2.9880   -1.1800   -0.1550 C   0  0  0  0  0  0  0  0  0  0  0  0
   -3.8930   -0.1290   -0.2600 C   0  0  0  0  0  0  0  0  0  0  0  0
   -3.4460    1.1030   -0.2090 N   0  0  0  0  0  0  0  0  0  0  0  0
   -2.1160    1.4190   -0.0580 C   0  0  0  0  0  0  0  0  0  0  0  0
   -1.7620    2.7880   -0.1010 N   0  0  0  0  0  0  0  0  0  0  0  0
   -2.8110    3.7850   -0.1590 C   0  0  0  0  0  0  0  0  0  0  0  0
   -3.6510    3.7700    1.0780 C   0  0  0  0  0  0  0  0  0  0  0  0
   -4.6950    4.7720    1.0130 N   0  0  0  0  0  0  0  0  0  0  0  0
   -4.4770    6.0100    1.4730 C   0  0  0  0  0  0  0  0  0  0  0  0
   -3.3630    6.3540    1.9780 O   0  0  0  0  0  0  0  0  0  0  0  0
   -5.4820    6.9460    1.4010 C   0  0  0  0  0  0  0  0  0  0  0  0
   -6.7090    6.6110    0.8580 C   0  0  0  0  0  0  0  0  0  0  0  0
   -6.8590    5.3650    0.4200 O   0  0  0  0  0  0  0  0  0  0  0  0
   -5.8990    4.4790    0.4910 C   0  0  0  0  0  0  0  0  0  0  0  0
   -6.1700    3.3240    0.0380 O   0  0  0  0  0  0  0  0  0  0  0  0
    1.2710    0.0340   -0.0780 N   0  0  0  0  0  0  0  0  0  0  0  0
  1  2  2  0
  2  3  1  0
  3  4  2  3
  3  7  1  0
  4  5  1  0
  5  6  1  0
  7  8  1  0
  8  9  2  0
  8 10  1  0
 10 11  2  0
 10 39  1  0
 11 12  1  0
 12 13  1  0
 13 14  1  0
 13 39  2  0
 14 15  1  0
 14 27  2  0
 15 16  1  0
 15 24  2  0
 16 17  1  0
 17 18  2  0
 17 19  1  0
 19 20  2  0
 19 23  1  0
 20 21  1  0
 21 22  2  0
 22 23  1  0
 24 25  1  0
 25 26  2  0
 26 27  1  0
 27 28  1  0
 28 29  1  0
 29 30  1  0
 30 31  1  0
 31 32  1  0
 31 37  1  0
 32 33  2  0
 32 34  1  0
 34 35  2  0
 35 36  1  0
 36 37  1  0
 37 38  2  0
M  END
