
     RDKit          3D

 39 43  0  0  0  0  0  0  0  0999 V2000
   -6.9860   -3.7320    2.7260 C   0  0  0  0  0  0  0  0  0  0  0  0
   -7.1410   -2.7330    1.7380 O   0  0  0  0  0  0  0  0  0  0  0  0
   -6.0310   -1.9600    1.3470 C   0  0  0  0  0  0  0  0  0  0  0  0
   -4.8020   -2.1560    1.9060 C   0  0  0  0  0  0  0  0  0  0  0  0
   -3.7330   -1.3750    1.4950 C   0  0  0  0  0  0  0  0  0  0  0  0
   -3.8950   -0.4080    0.5350 C   0  0  0  0  0  0  0  0  0  0  0  0
   -2.7770    0.3760    0.1020 C   0  0  0  0  0  0  0  0  0  0  0  0
   -1.6470   -0.0290   -0.4340 C   0  0  0  0  0  0  0  0  0  0  0  0
   -1.3770   -1.4370   -0.6810 C   0  0  0  0  0  0  0  0  0  0  0  0
   -2.2020   -2.3560   -0.4450 O   0  0  0  0  0  0  0  0  0  0  0  0
   -0.0900   -1.7580   -1.2290 N   0  0  0  0  0  0  0  0  0  0  0  0
    0.7810   -0.8640   -1.4920 C   0  0  0  0  0  0  0  0  0  0  0  0
    2.4250   -1.0400   -2.1690 S   0  0  0  0  0  0  0  0  0  0  0  0
    2.7870    0.7070   -2.1430 C   0  0  0  0  0  0  0  0  0  0  0  0
    4.0570    1.3160   -2.5910 C   0  0  0  0  0  0  0  0  0  0  0  0
    4.2450    2.5550   -2.5440 O   0  0  0  0  0  0  0  0  0  0  0  0
    5.1020    0.4960   -3.0890 N   0  0  0  0  0  0  0  0  0  0  0  0
    6.3170    1.0050   -3.5240 N   0  0  0  0  0  0  0  0  0  0  0  0
    7.3780    1.0780   -2.7870 C   0  0  0  0  0  0  0  0  0  0  0  0
    7.4130    0.6420   -1.4430 C   0  0  0  0  0  0  0  0  0  0  0  0
    8.4380    0.6220   -0.4650 C   0  0  0  0  0  0  0  0  0  0  0  0
    8.1830    0.1460    0.7420 C   0  0  0  0  0  0  0  0  0  0  0  0
    8.9110   -0.0400    1.9530 C   0  0  0  0  0  0  0  0  0  0  0  0
   10.3280    0.2860    2.2380 C   0  0  0  0  0  0  0  0  0  0  0  0
    8.0960   -0.5870    2.8710 N   0  0  0  0  0  0  0  0  0  0  0  0
    6.8860   -0.7760    2.3560 N   0  0  0  0  0  0  0  0  0  0  0  0
    6.9250   -0.3390    1.0750 C   0  0  0  0  0  0  0  0  0  0  0  0
    6.0540   -0.0800   -0.4860 S   0  0  0  0  0  0  0  0  0  0  0  0
    1.7350    1.3060   -1.6630 C   0  0  0  0  0  0  0  0  0  0  0  0
    0.6480    0.5300   -1.3030 N   0  0  0  0  0  0  0  0  0  0  0  0
   -0.6140    0.9690   -0.7520 C   0  0  0  0  0  0  0  0  0  0  0  0
   -0.8590    2.1840   -0.5350 O   0  0  0  0  0  0  0  0  0  0  0  0
   -5.1720   -0.2010   -0.0480 C   0  0  0  0  0  0  0  0  0  0  0  0
   -5.2870    0.7330   -0.9650 O   0  0  0  0  0  0  0  0  0  0  0  0
   -6.0630    1.4010   -1.8130 C   0  0  0  0  0  0  0  0  0  0  0  0
   -7.1830    2.2580   -1.3540 C   0  0  0  0  0  0  0  0  0  0  0  0
   -8.2740    1.6420   -0.5740 C   0  0  0  0  0  0  0  0  0  0  0  0
   -9.5610    3.0680   -0.1760 Br  0  0  0  0  0  0  0  0  0  0  0  0
   -6.1900   -0.9920    0.3870 C   0  0  0  0  0  0  0  0  0  0  0  0
  1  2  1  0
  2  3  1  0
  3  4  2  0
  3 39  1  0
  4  5  1  0
  5  6  2  0
  6  7  1  0
  6 33  1  0
  7  8  2  3
  8  9  1  0
  8 31  1  0
  9 10  2  0
  9 11  1  0
 11 12  2  0
 12 13  1  0
 12 30  1  0
 13 14  1  0
 14 15  1  0
 14 29  2  0
 15 16  2  0
 15 17  1  0
 17 18  1  0
 18 19  2  3
 19 20  1  0
 20 21  2  0
 20 28  1  0
 21 22  1  0
 22 23  2  0
 22 27  1  0
 23 24  1  0
 23 25  1  0
 25 26  1  0
 26 27  2  0
 27 28  1  0
 29 30  1  0
 30 31  1  0
 31 32  2  0
 33 34  1  0
 33 39  2  0
 34 35  1  0
 35 36  1  0
 36 37  1  0
 37 38  1  0
M  END
