
     RDKit          3D

 39 42  0  0  0  0  0  0  0  0999 V2000
    4.6530    1.3990    3.3120 C   0  0  0  0  0  0  0  0  0  0  0  0
    3.3630    1.1320    2.5910 C   0  0  0  0  0  0  0  0  0  0  0  0
    2.1560    1.4180    3.1830 C   0  0  0  0  0  0  0  0  0  0  0  0
    0.9760    1.1600    2.5290 C   0  0  0  0  0  0  0  0  0  0  0  0
    0.9290    0.6130    1.2730 C   0  0  0  0  0  0  0  0  0  0  0  0
   -0.3580    0.2990    0.6450 C   0  0  0  0  0  0  0  0  0  0  0  0
   -1.4250    0.4670    1.3390 O   0  0  0  0  0  0  0  0  0  0  0  0
   -0.5280   -0.1860   -0.6700 N   0  0  0  0  0  0  0  0  0  0  0  0
   -1.8130   -0.5260   -1.2050 C   0  0  0  0  0  0  0  0  0  0  0  0
   -2.7240   -1.0790   -0.3530 C   0  0  0  0  0  0  0  0  0  0  0  0
   -4.0300   -1.4250   -0.7620 C   0  0  0  0  0  0  0  0  0  0  0  0
   -4.8800   -2.0050    0.3130 C   0  0  0  0  0  0  0  0  0  0  0  0
   -5.6170   -0.9150    1.0750 C   0  0  0  0  0  0  0  0  0  0  0  0
   -6.5440   -0.1440    0.1940 C   0  0  0  0  0  0  0  0  0  0  0  0
   -7.2630    0.9150    0.8800 N   0  0  0  0  0  0  0  0  0  0  0  0
   -8.2150    0.3840    1.8540 C   0  0  0  0  0  0  0  0  0  0  0  0
   -8.0940    1.5640   -0.1490 C   0  0  0  0  0  0  0  0  0  0  0  0
   -4.3970   -1.2040   -2.0470 C   0  0  0  0  0  0  0  0  0  0  0  0
   -3.4930   -0.6470   -2.9230 C   0  0  0  0  0  0  0  0  0  0  0  0
   -3.9360   -0.4360   -4.3140 C   0  0  1  0  0  0  0  0  0  0  0  0
   -5.1180    0.2360   -4.3740 F   0  0  0  0  0  0  0  0  0  0  0  0
   -2.9990    0.3050   -5.0440 F   0  0  0  0  0  0  0  0  0  0  0  0
   -4.1010   -1.6530   -4.9750 F   0  0  0  0  0  0  0  0  0  0  0  0
   -2.2070   -0.3110   -2.5020 C   0  0  0  0  0  0  0  0  0  0  0  0
    2.1410    0.3180    0.6540 C   0  0  0  0  0  0  0  0  0  0  0  0
    3.3540    0.5740    1.3060 C   0  0  0  0  0  0  0  0  0  0  0  0
    4.6170    0.2740    0.7590 N   0  0  0  0  0  0  0  0  0  0  0  0
    4.9140   -0.0740   -0.5770 C   0  0  0  0  0  0  0  0  0  0  0  0
    3.9260   -0.3400   -1.4760 N   0  0  0  0  0  0  0  0  0  0  0  0
    4.1000   -0.7730   -2.7240 C   0  0  0  0  0  0  0  0  0  0  0  0
    5.3940   -0.9710   -3.1430 C   0  0  0  0  0  0  0  0  0  0  0  0
    6.4340   -0.7210   -2.2890 C   0  0  0  0  0  0  0  0  0  0  0  0
    6.2270   -0.2650   -0.9880 C   0  0  0  0  0  0  0  0  0  0  0  0
    7.3760   -0.0310   -0.1140 C   0  0  0  0  0  0  0  0  0  0  0  0
    7.5170    0.9790    0.7770 C   0  0  0  0  0  0  0  0  0  0  0  0
    8.6620    1.1440    1.5320 C   0  0  0  0  0  0  0  0  0  0  0  0
    9.6980    0.2680    1.3830 N   0  0  0  0  0  0  0  0  0  0  0  0
    9.5300   -0.7060    0.5020 C   0  0  0  0  0  0  0  0  0  0  0  0
    8.4300   -0.9010   -0.2500 N   0  0  0  0  0  0  0  0  0  0  0  0
  1  2  1  0
  2  3  2  0
  2 26  1  0
  3  4  1  0
  4  5  2  0
  5  6  1  0
  5 25  1  0
  6  7  2  0
  6  8  1  0
  8  9  1  0
  9 10  2  0
  9 24  1  0
 10 11  1  0
 11 12  1  0
 11 18  2  0
 12 13  1  0
 13 14  1  0
 14 15  1  0
 15 16  1  0
 15 17  1  0
 18 19  1  0
 19 20  1  0
 19 24  2  0
 20 21  1  1
 20 22  1  0
 20 23  1  0
 25 26  2  0
 26 27  1  0
 27 28  1  0
 28 29  2  0
 28 33  1  0
 29 30  1  0
 30 31  2  0
 31 32  1  0
 32 33  2  0
 33 34  1  0
 34 35  2  0
 34 39  1  0
 35 36  1  0
 36 37  2  0
 37 38  1  0
 38 39  2  0
M  END
