
     RDKit          3D

 39 43  0  0  0  0  0  0  0  0999 V2000
    9.4780    3.1090   -1.6800 C   0  0  0  0  0  0  0  0  0  0  0  0
    8.8630    2.1860   -0.6400 C   0  0  0  0  0  0  0  0  0  0  0  0
    7.7580    2.5020   -0.2010 O   0  0  0  0  0  0  0  0  0  0  0  0
    9.4970    1.0450   -0.1960 N   0  0  0  0  0  0  0  0  0  0  0  0
    9.2030    0.0120    0.7170 C   0  0  0  0  0  0  0  0  0  0  0  0
    8.0430   -0.8370    0.4070 C   0  0  0  0  0  0  0  0  0  0  0  0
    6.6890   -0.2960    0.5330 C   0  0  0  0  0  0  0  0  0  0  0  0
    5.6100   -0.9460   -0.0330 N   0  0  0  0  0  0  0  0  0  0  0  0
    4.4950   -0.2740    0.2210 C   0  0  0  0  0  0  0  0  0  0  0  0
    3.1100   -0.5620   -0.1610 C   0  0  0  0  0  0  0  0  0  0  0  0
    2.8430   -1.7030   -0.9070 C   0  0  0  0  0  0  0  0  0  0  0  0
    1.5390   -1.9460   -1.2450 C   0  0  0  0  0  0  0  0  0  0  0  0
    0.5200   -1.0970   -0.8650 C   0  0  0  0  0  0  0  0  0  0  0  0
    0.7770    0.0270   -0.1280 C   0  0  0  0  0  0  0  0  0  0  0  0
   -0.2470    0.9070    0.2160 N   0  0  0  0  0  0  0  0  0  0  0  0
   -1.5930    0.6150    1.1930 S   0  0  1  0  0  0  0  0  0  0  0  0
   -1.0800    0.2460    2.6040 O   0  0  0  0  0  0  0  0  0  0  0  0
   -2.3730    1.8970    1.4440 O   0  0  0  0  0  0  0  0  0  0  0  0
   -2.7060   -0.5860    0.7200 C   0  0  0  0  0  0  0  0  0  0  0  0
   -4.0070   -0.5430    0.3130 C   0  0  0  0  0  0  0  0  0  0  0  0
   -4.6680   -1.6580   -0.0040 C   0  0  0  0  0  0  0  0  0  0  0  0
   -5.9980   -1.7760   -0.4570 C   0  0  0  0  0  0  0  0  0  0  0  0
   -6.9220   -0.6420   -0.5180 C   0  0  0  0  0  0  0  0  0  0  0  0
   -7.7460   -0.5200   -1.4770 O   0  0  0  0  0  0  0  0  0  0  0  0
   -6.9380    0.3410    0.4740 N   0  0  0  0  0  0  0  0  0  0  0  0
   -7.8230    1.4780    0.4310 C   0  0  0  0  0  0  0  0  0  0  0  0
   -7.4420    2.7420    0.4030 C   0  0  0  0  0  0  0  0  0  0  0  0
   -8.6370    3.6190    0.3640 C   0  0  0  0  0  0  0  0  0  0  0  0
   -9.7290    2.6800    0.3750 N   0  0  0  0  0  0  0  0  0  0  0  0
   -9.2730    1.4860    0.4120 C   0  0  0  0  0  0  0  0  0  0  0  0
   -6.5340   -2.9890   -0.7710 C   0  0  0  0  0  0  0  0  0  0  0  0
   -5.8550   -4.1680   -0.6750 C   0  0  0  0  0  0  0  0  0  0  0  0
   -6.5890   -5.8610   -1.1080 Br  0  0  0  0  0  0  0  0  0  0  0  0
   -4.5400   -4.0970   -0.2280 C   0  0  0  0  0  0  0  0  0  0  0  0
   -4.0090   -2.8640    0.0840 C   0  0  0  0  0  0  0  0  0  0  0  0
   -2.3580   -2.3810    0.6540 S   0  0  0  0  0  0  0  0  0  0  0  0
    2.1000    0.2680    0.2100 C   0  0  0  0  0  0  0  0  0  0  0  0
    4.8710    0.7920    0.9440 N   0  0  0  0  0  0  0  0  0  0  0  0
    6.1580    0.7390    1.1020 O   0  0  0  0  0  0  0  0  0  0  0  0
  1  2  1  0
  2  3  2  0
  2  4  1  0
  4  5  1  0
  5  6  1  0
  6  7  1  0
  7  8  2  0
  7 39  1  0
  8  9  1  0
  9 10  1  0
  9 38  2  0
 10 11  2  0
 10 37  1  0
 11 12  1  0
 12 13  2  0
 13 14  1  0
 14 15  1  0
 14 37  2  0
 16 15  1  6
 16 17  2  0
 16 18  2  0
 16 19  1  0
 19 20  2  0
 19 36  1  0
 20 21  1  0
 21 22  2  0
 21 35  1  0
 22 23  1  0
 22 31  1  0
 23 24  2  0
 23 25  1  0
 25 26  1  0
 26 27  2  0
 26 30  1  0
 27 28  1  0
 28 29  1  0
 29 30  2  0
 31 32  2  0
 32 33  1  0
 32 34  1  0
 34 35  2  0
 35 36  1  0
 38 39  1  0
M  END
