
     RDKit          3D

 39 42  0  0  0  0  0  0  0  0999 V2000
   -9.5010    1.6430    0.7320 C   0  0  0  0  0  0  0  0  0  0  0  0
   -8.1470    1.2650    0.4000 N   0  0  0  0  0  0  0  0  0  0  0  0
   -7.2280    2.1980    0.0660 C   0  0  0  0  0  0  0  0  0  0  0  0
   -5.9210    1.8450   -0.2560 C   0  0  0  0  0  0  0  0  0  0  0  0
   -5.0090    2.8840   -0.5980 N   0  0  0  0  0  0  0  0  0  0  0  0
   -5.5860    0.5450   -0.2280 N   0  0  0  0  0  0  0  0  0  0  0  0
   -4.2590    0.1760   -0.5530 C   0  0  0  0  0  0  0  0  0  0  0  0
   -4.0530   -0.8710   -1.4090 C   0  0  0  0  0  0  0  0  0  0  0  0
   -2.8020   -1.3020   -1.7830 C   0  0  0  0  0  0  0  0  0  0  0  0
   -1.6590   -0.6620   -1.2830 C   0  0  0  0  0  0  0  0  0  0  0  0
   -0.4580   -1.1490   -1.7040 O   0  0  0  0  0  0  0  0  0  0  0  0
    0.2030   -2.2820   -1.3300 C   0  0  0  0  0  0  0  0  0  0  0  0
    0.4690   -3.1950   -2.3480 C   0  0  0  0  0  0  0  0  0  0  0  0
    1.1280   -4.3580   -2.0590 C   0  0  0  0  0  0  0  0  0  0  0  0
    1.5260   -4.6170   -0.7550 C   0  0  0  0  0  0  0  0  0  0  0  0
    2.4410   -6.2370   -0.3710 Br  0  0  0  0  0  0  0  0  0  0  0  0
    1.2540   -3.7000    0.2390 C   0  0  0  0  0  0  0  0  0  0  0  0
    0.5780   -2.5000   -0.0330 C   0  0  0  0  0  0  0  0  0  0  0  0
    0.2440   -1.3410    1.2820 S   0  0  0  0  0  0  0  0  0  0  0  0
    1.5770   -0.1790    1.4570 C   0  0  0  0  0  0  0  0  0  0  0  0
    2.7880   -0.4620    1.0510 C   0  0  0  0  0  0  0  0  0  0  0  0
    3.9480    0.3940    1.1380 C   0  0  0  0  0  0  0  0  0  0  0  0
    3.8750    1.6530    1.6860 C   0  0  0  0  0  0  0  0  0  0  0  0
    5.0110    2.4610    1.7590 C   0  0  0  0  0  0  0  0  0  0  0  0
    6.1650    1.9920    1.2880 N   0  0  0  0  0  0  0  0  0  0  0  0
    6.2920    0.7740    0.7440 C   0  0  0  0  0  0  0  0  0  0  0  0
    7.5070    0.2980    0.2570 O   0  0  0  0  0  0  0  0  0  0  0  0
    8.6960    1.0170    0.2790 C   0  0  1  0  0  0  0  0  0  0  0  0
    9.6370    0.2640    1.0930 N   0  0  0  0  0  0  0  0  0  0  0  0
   10.1160   -0.7020    0.5840 O   0  0  0  0  0  0  0  0  0  0  0  0
    9.3100    1.1640   -1.0200 N   0  0  0  0  0  0  0  0  0  0  0  0
   10.7970    2.0660   -0.9720 S   0  0  0  0  0  0  0  0  0  0  0  0
    5.1750   -0.0280    0.6700 C   0  0  0  0  0  0  0  0  0  0  0  0
   -1.8760    0.3880   -0.4250 C   0  0  0  0  0  0  0  0  0  0  0  0
   -3.1450    0.8110   -0.0560 C   0  0  0  0  0  0  0  0  0  0  0  0
   -6.4980   -0.3810    0.1050 C   0  0  0  0  0  0  0  0  0  0  0  0
   -6.1920   -1.6010    0.1340 O   0  0  0  0  0  0  0  0  0  0  0  0
   -7.8110   -0.0260    0.4280 C   0  0  0  0  0  0  0  0  0  0  0  0
   -8.6110   -0.9430    0.7280 O   0  0  0  0  0  0  0  0  0  0  0  0
  1  2  1  0
  2  3  1  0
  2 38  1  0
  3  4  2  0
  4  5  1  0
  4  6  1  0
  6  7  1  0
  6 36  1  0
  7  8  2  0
  7 35  1  0
  8  9  1  0
  9 10  2  0
 10 11  1  0
 10 34  1  0
 11 12  1  0
 12 13  2  0
 12 18  1  0
 13 14  1  0
 14 15  2  0
 15 16  1  0
 15 17  1  0
 17 18  2  0
 18 19  1  0
 19 20  1  0
 20 21  2  3
 21 22  1  0
 22 23  2  0
 22 33  1  0
 23 24  1  0
 24 25  2  0
 25 26  1  0
 26 27  1  0
 26 33  2  0
 27 28  1  0
 28 29  1  0
 28 31  1  6
 29 30  2  0
 31 32  1  0
 34 35  2  0
 36 37  2  0
 36 38  1  0
 38 39  2  0
M  END
