
     RDKit          3D

 43 45  0  0  0  0  0  0  0  0999 V2000
   -4.9500    1.4250    2.7890 C   0  0  0  0  0  0  0  0  0  0  0  0
   -3.8630    0.4340    2.3700 C   0  0  1  0  0  0  0  0  0  0  0  0
   -4.5820   -0.8310    1.9660 C   0  0  0  0  0  0  0  0  0  0  0  0
   -3.1730    0.9480    1.2430 O   0  0  0  0  0  0  0  0  0  0  0  0
   -2.1310    0.2080    0.6380 C   0  0  0  0  0  0  0  0  0  0  0  0
   -1.9140   -0.8880    1.1870 O   0  0  0  0  0  0  0  0  0  0  0  0
   -1.5010    0.8340   -0.5010 C   0  0  2  0  0  0  0  0  0  0  0  0
   -2.5140    1.1510   -1.6180 C   0  0  0  0  0  0  0  0  0  0  0  0
   -2.0130    2.4010   -2.3410 C   0  0  0  0  0  0  0  0  0  0  0  0
   -0.7160    2.0200   -2.8780 N   0  0  0  0  0  0  0  0  0  0  0  0
   -0.1060    0.7890   -2.4930 C   0  0  0  0  0  0  0  0  0  0  0  0
   -0.3250    0.2260   -1.1440 C   0  0  2  0  0  0  0  0  0  0  0  0
   -0.5890   -1.2680   -1.4200 C   0  0  0  0  0  0  0  0  0  0  0  0
   -1.6830   -1.7960   -1.2100 O   0  0  0  0  0  0  0  0  0  0  0  0
    0.4510   -2.0880   -1.9390 N   0  0  0  0  0  0  0  0  0  0  0  0
    0.1780   -3.5040   -2.1950 C   0  0  0  0  0  0  0  0  0  0  0  0
    1.4000   -4.2060   -2.7400 C   0  0  0  0  0  0  0  0  0  0  0  0
    2.4560   -4.1290   -1.8370 O   0  0  0  0  0  0  0  0  0  0  0  0
    0.8760    0.1840   -0.2410 C   0  0  0  0  0  0  0  0  0  0  0  0
    0.6910   -0.8540    0.7750 N   0  0  0  0  0  0  0  0  0  0  0  0
    1.2380   -0.8720    1.9040 C   0  0  0  0  0  0  0  0  0  0  0  0
    2.1050    0.1230    2.3300 O   0  0  0  0  0  0  0  0  0  0  0  0
    0.9600   -1.9940    2.8340 C   0  0  0  0  0  0  0  0  0  0  0  0
    2.1310   -2.7230    3.1960 N   0  0  0  0  0  0  0  0  0  0  0  0
    2.0300   -3.8290    4.0740 C   0  0  0  0  0  0  0  0  0  0  0  0
    0.9390   -4.2200    4.5640 O   0  0  0  0  0  0  0  0  0  0  0  0
    3.2100   -4.5210    4.4100 O   0  0  0  0  0  0  0  0  0  0  0  0
    1.8470    0.8640   -0.3120 N   0  0  0  0  0  0  0  0  0  0  0  0
    2.7800    1.7850   -0.6780 C   0  0  0  0  0  0  0  0  0  0  0  0
    4.0360    1.9210   -0.0450 C   0  0  0  0  0  0  0  0  0  0  0  0
    4.9740    2.8380   -0.4080 C   0  0  0  0  0  0  0  0  0  0  0  0
    4.6710    3.6840   -1.4630 C   0  0  0  0  0  0  0  0  0  0  0  0
    3.4570    3.5680   -2.0930 C   0  0  0  0  0  0  0  0  0  0  0  0
    2.5910    2.6630   -1.6970 N   0  0  0  0  0  0  0  0  0  0  0  0
    3.1210    4.4650   -3.2400 C   0  0  0  0  0  0  0  0  0  0  0  0
    4.0200    5.2700   -3.5520 O   0  0  0  0  0  0  0  0  0  0  0  0
    1.8850    4.3520   -3.8550 O   0  0  0  0  0  0  0  0  0  0  0  0
    1.1670    3.2040   -3.8650 O   0  0  0  0  0  0  0  0  0  0  0  0
   -0.1490    2.9580   -3.8360 C   0  0  0  0  0  0  0  0  0  0  0  0
   -1.0630    3.4760   -4.6010 O   0  0  0  0  0  0  0  0  0  0  0  0
   -2.9360    0.1840    3.5080 C   0  0  0  0  0  0  0  0  0  0  0  0
   -1.7180    0.4600    3.4070 O   0  0  0  0  0  0  0  0  0  0  0  0
   -3.3850   -0.3570    4.7010 O   0  0  0  0  0  0  0  0  0  0  0  0
  2  1  1  1
  2  3  1  0
  2  4  1  0
  2 41  1  0
  4  5  1  0
  5  6  2  0
  7  5  1  1
  7  8  1  0
  7 12  1  0
  8  9  1  0
  9 10  1  0
 10 11  1  0
 10 39  1  0
 11 12  1  0
 12 13  1  6
 12 19  1  0
 13 14  2  0
 13 15  1  0
 15 16  1  0
 16 17  1  0
 17 18  1  0
 19 20  1  0
 19 28  2  0
 20 21  2  3
 21 22  1  0
 21 23  1  0
 23 24  1  0
 24 25  1  0
 25 26  2  0
 25 27  1  0
 28 29  1  0
 29 30  2  0
 29 34  1  0
 30 31  1  0
 31 32  2  0
 32 33  1  0
 33 34  2  0
 33 35  1  0
 35 36  2  0
 35 37  1  0
 37 38  1  0
 38 39  1  0
 39 40  2  0
 41 42  2  0
 41 43  1  0
M  END
