
     RDKit          3D

 43 47  0  0  0  0  0  0  0  0999 V2000
    0.7360   -4.5500   -1.6620 O   0  0  0  0  0  0  0  0  0  0  0  0
    0.4680   -4.0070   -0.5590 C   0  0  0  0  0  0  0  0  0  0  0  0
   -0.2750   -2.8090   -0.6010 N   0  0  0  0  0  0  0  0  0  0  0  0
   -0.8900   -2.1940    0.5520 C   0  0  0  0  0  0  0  0  0  0  0  0
   -1.5010   -0.8610    0.2760 C   0  0  1  0  0  0  0  0  0  0  0  0
   -2.8880   -1.0300   -0.3000 C   0  0  0  0  0  0  0  0  0  0  0  0
   -3.6750    0.1290   -0.2910 O   0  0  0  0  0  0  0  0  0  0  0  0
   -4.9540    0.2200   -0.7560 C   0  0  0  0  0  0  0  0  0  0  0  0
   -5.4870   -0.8060   -1.2330 O   0  0  0  0  0  0  0  0  0  0  0  0
   -5.7320    1.4790   -0.7170 C   0  0  2  0  0  0  0  0  0  0  0  0
   -6.0610    1.8480    0.7140 C   0  0  0  0  0  0  0  0  0  0  0  0
   -7.2360    2.5720    0.5540 O   0  0  0  0  0  0  0  0  0  0  0  0
   -7.7070    2.3450   -0.7170 C   0  0  0  0  0  0  0  0  0  0  0  0
   -6.9960    1.2780   -1.2540 O   0  0  0  0  0  0  0  0  0  0  0  0
   -1.7330   -0.2170    1.6590 C   0  0  0  0  0  0  0  0  0  0  0  0
   -2.4760    0.9490    1.5210 O   0  0  0  0  0  0  0  0  0  0  0  0
   -1.8920    1.8990    0.7290 C   0  0  0  0  0  0  0  0  0  0  0  0
   -1.3200    1.3820   -0.5730 C   0  0  0  0  0  0  0  0  0  0  0  0
   -0.6710    0.0860   -0.4230 N   0  0  0  0  0  0  0  0  0  0  0  0
    0.6400   -0.1490   -0.9420 C   0  0  0  0  0  0  0  0  0  0  0  0
    0.7630    0.0940   -2.1740 O   0  0  0  0  0  0  0  0  0  0  0  0
    1.8270   -0.6260   -0.2240 C   0  0  2  0  0  0  0  0  0  0  0  0
    2.7150    0.5410    0.0290 C   0  0  0  0  0  0  0  0  0  0  0  0
    2.9620    1.4870   -0.9340 C   0  0  0  0  0  0  0  0  0  0  0  0
    3.7960    2.5870   -0.6940 C   0  0  0  0  0  0  0  0  0  0  0  0
    4.3970    2.7490    0.5270 C   0  0  0  0  0  0  0  0  0  0  0  0
    5.2310    3.8530    0.7610 O   0  0  0  0  0  0  0  0  0  0  0  0
    5.4300    4.7370   -0.2170 O   0  0  0  0  0  0  0  0  0  0  0  0
    6.7200    4.9950   -0.3850 O   0  0  0  0  0  0  0  0  0  0  0  0
    7.2760    5.3450    0.7650 O   0  0  0  0  0  0  0  0  0  0  0  0
    4.1650    1.8110    1.5150 C   0  0  0  0  0  0  0  0  0  0  0  0
    3.3350    0.7320    1.2480 C   0  0  0  0  0  0  0  0  0  0  0  0
    2.6480   -1.5930   -0.9350 N   0  0  0  0  0  0  0  0  0  0  0  0
    2.8460   -1.7380   -2.2480 C   0  0  0  0  0  0  0  0  0  0  0  0
    3.7190   -2.7970   -2.4730 C   0  0  0  0  0  0  0  0  0  0  0  0
    4.0060   -3.2410   -1.2540 N   0  0  0  0  0  0  0  0  0  0  0  0
    3.3690   -2.5290   -0.3040 C   0  0  0  0  0  0  0  0  0  0  0  0
    3.4440   -2.7190    1.1120 N   0  0  0  0  0  0  0  0  0  0  0  0
    2.3940   -3.0410    1.9840 C   0  0  0  0  0  0  0  0  0  0  0  0
    2.3260   -2.3560    3.0690 O   0  0  0  0  0  0  0  0  0  0  0  0
    1.3720   -4.0610    1.8050 C   0  0  0  0  0  0  0  0  0  0  0  0
    0.8010   -4.4670    2.8900 O   0  0  0  0  0  0  0  0  0  0  0  0
    0.9360   -4.6510    0.6170 N   0  0  0  0  0  0  0  0  0  0  0  0
  1  2  2  0
  2  3  1  0
  2 43  1  0
  3  4  1  0
  4  5  1  0
  5  6  1  6
  5 15  1  0
  5 19  1  0
  6  7  1  0
  7  8  1  0
  8  9  2  0
 10  8  1  1
 10 11  1  0
 10 14  1  0
 11 12  1  0
 12 13  1  0
 13 14  1  0
 15 16  1  0
 16 17  1  0
 17 18  1  0
 18 19  1  0
 19 20  1  0
 20 21  2  0
 20 22  1  0
 22 23  1  6
 22 33  1  0
 23 24  2  0
 23 32  1  0
 24 25  1  0
 25 26  2  0
 26 27  1  0
 26 31  1  0
 27 28  1  0
 28 29  1  0
 29 30  1  0
 31 32  2  0
 33 34  1  0
 33 37  1  0
 34 35  2  0
 35 36  1  0
 36 37  2  0
 37 38  1  0
 38 39  1  0
 39 40  2  0
 39 41  1  0
 41 42  2  0
 41 43  1  0
M  END
