
     RDKit          3D

 29 32  0  0  0  0  0  0  0  0999 V2000
   -4.0810   -3.5980   -1.6430 C   0  0  0  0  0  0  0  0  0  0  0  0
   -3.0550   -2.9080   -0.9640 O   0  0  0  0  0  0  0  0  0  0  0  0
   -3.2190   -1.5440   -0.7500 C   0  0  0  0  0  0  0  0  0  0  0  0
   -4.3570   -0.9210   -1.2000 C   0  0  0  0  0  0  0  0  0  0  0  0
   -4.5690    0.4280   -1.0130 C   0  0  0  0  0  0  0  0  0  0  0  0
   -5.7230    1.0510   -1.4710 C   0  0  0  0  0  0  0  0  0  0  0  0
   -6.6490    0.3120   -2.1100 F   0  0  0  0  0  0  0  0  0  0  0  0
   -5.9310    2.3830   -1.2870 C   0  0  0  0  0  0  0  0  0  0  0  0
   -4.9420    3.1100   -0.6180 C   0  0  0  0  0  0  0  0  0  0  0  0
   -3.8040    2.4780   -0.1710 C   0  0  0  0  0  0  0  0  0  0  0  0
   -3.5950    1.1310   -0.3580 C   0  0  0  0  0  0  0  0  0  0  0  0
   -2.4320    0.4890    0.1000 C   0  0  0  0  0  0  0  0  0  0  0  0
   -2.2060   -0.8370   -0.0740 C   0  0  0  0  0  0  0  0  0  0  0  0
   -1.0620   -1.5340    0.3630 N   0  0  0  0  0  0  0  0  0  0  0  0
    0.0370   -0.9930    1.0470 C   0  0  0  0  0  0  0  0  0  0  0  0
    0.0740    0.2090    1.3290 O   0  0  0  0  0  0  0  0  0  0  0  0
    1.1680   -1.9270    1.4250 C   0  0  0  0  0  0  0  0  0  0  0  0
    2.2670   -1.2010    2.1020 C   0  0  0  0  0  0  0  0  0  0  0  0
    2.9230   -0.1270    1.3010 C   0  0  2  0  0  0  0  0  0  0  0  0
    3.6660   -0.8090   -0.2450 S   0  0  0  0  0  0  0  0  0  0  0  0
    5.0270    0.3360   -0.2740 C   0  0  0  0  0  0  0  0  0  0  0  0
    5.8830    0.7330   -1.2440 C   0  0  0  0  0  0  0  0  0  0  0  0
    6.8870    1.6840   -0.9980 C   0  0  0  0  0  0  0  0  0  0  0  0
    7.6820    2.0640   -1.8680 O   0  0  0  0  0  0  0  0  0  0  0  0
    6.9700    2.1900    0.2420 N   0  0  0  0  0  0  0  0  0  0  0  0
    6.1380    1.8170    1.2250 C   0  0  0  0  0  0  0  0  0  0  0  0
    5.1380    0.8700    0.9810 C   0  0  0  0  0  0  0  0  0  0  0  0
    4.1810    0.3620    1.9220 C   0  0  0  0  0  0  0  0  0  0  0  0
    4.3450    0.3110    3.1880 O   0  0  0  0  0  0  0  0  0  0  0  0
  1  2  1  0
  2  3  1  0
  3  4  2  0
  3 13  1  0
  4  5  1  0
  5  6  2  0
  5 11  1  0
  6  7  1  0
  6  8  1  0
  8  9  2  0
  9 10  1  0
 10 11  2  0
 11 12  1  0
 12 13  2  0
 13 14  1  0
 14 15  1  0
 15 16  2  0
 15 17  1  0
 17 18  1  0
 19 18  1  1
 19 20  1  0
 19 28  1  0
 20 21  1  0
 21 22  2  0
 21 27  1  0
 22 23  1  0
 23 24  2  0
 23 25  1  0
 25 26  1  0
 26 27  2  0
 27 28  1  0
 28 29  2  0
M  END
