
     RDKit          3D

 31 35  0  0  0  0  0  0  0  0999 V2000
   -5.6970    1.7820   -1.3290 C   0  0  0  0  0  0  0  0  0  0  0  0
   -5.5670    0.6800   -0.3210 C   0  0  0  0  0  0  0  0  0  0  0  0
   -4.2190    0.0550   -0.3180 C   0  0  0  0  0  0  0  0  0  0  0  0
   -3.1990    0.5410    0.4990 C   0  0  0  0  0  0  0  0  0  0  0  0
   -1.9510    0.0250    0.5560 C   0  0  0  0  0  0  0  0  0  0  0  0
   -0.8580    0.4410    1.3410 N   0  0  0  0  0  0  0  0  0  0  0  0
   -0.8240    1.5260    2.2540 C   0  0  0  0  0  0  0  0  0  0  0  0
   -1.8530    2.2190    2.4140 O   0  0  0  0  0  0  0  0  0  0  0  0
    0.4030    1.8620    3.0270 C   0  0  1  0  0  0  0  0  0  0  0  0
    0.8500    0.7190    3.9090 C   0  0  0  0  0  0  0  0  0  0  0  0
    2.2500    0.4630    3.5240 C   0  0  0  0  0  0  0  0  0  0  0  0
    2.9450   -0.4770    3.9810 O   0  0  0  0  0  0  0  0  0  0  0  0
    2.6810    1.4270    2.5740 N   0  0  0  0  0  0  0  0  0  0  0  0
    4.0490    1.5810    2.0980 C   0  0  0  0  0  0  0  0  0  0  0  0
    4.2900    0.7320    0.8870 C   0  0  0  0  0  0  0  0  0  0  0  0
    5.1810    0.4640    0.1060 N   0  0  0  0  0  0  0  0  0  0  0  0
    5.1290   -0.3460   -0.9110 C   0  0  0  0  0  0  0  0  0  0  0  0
    6.1430   -0.6650   -1.8160 C   0  0  0  0  0  0  0  0  0  0  0  0
    5.9180   -1.5480   -2.8420 C   0  0  0  0  0  0  0  0  0  0  0  0
    4.7110   -2.1650   -3.0460 C   0  0  0  0  0  0  0  0  0  0  0  0
    3.6910   -1.8690   -2.1660 C   0  0  0  0  0  0  0  0  0  0  0  0
    3.9150   -0.9730   -1.1230 C   0  0  0  0  0  0  0  0  0  0  0  0
    2.9310   -0.3240    0.1950 S   0  0  0  0  0  0  0  0  0  0  0  0
    1.5520    2.1940    2.1870 C   0  0  0  0  0  0  0  0  0  0  0  0
    1.5490    3.0320    1.2590 O   0  0  0  0  0  0  0  0  0  0  0  0
   -1.7090   -1.0730   -0.2790 C   0  0  0  0  0  0  0  0  0  0  0  0
   -2.7160   -1.5560   -1.0890 C   0  0  0  0  0  0  0  0  0  0  0  0
   -2.7690   -2.6110   -2.0060 C   0  0  0  0  0  0  0  0  0  0  0  0
   -4.0230   -2.6780   -2.5600 C   0  0  0  0  0  0  0  0  0  0  0  0
   -4.7460   -1.6620   -1.9840 C   0  0  0  0  0  0  0  0  0  0  0  0
   -3.9410   -1.0010   -1.1030 N   0  0  0  0  0  0  0  0  0  0  0  0
  1  2  1  0
  2  3  1  0
  3  4  2  0
  3 31  1  0
  4  5  1  0
  5  6  1  0
  5 26  2  0
  6  7  1  0
  7  8  2  0
  9  7  1  6
  9 10  1  0
  9 24  1  0
 10 11  1  0
 11 12  2  0
 11 13  1  0
 13 14  1  0
 13 24  1  0
 14 15  1  0
 15 16  2  0
 15 23  1  0
 16 17  1  0
 17 18  2  0
 17 22  1  0
 18 19  1  0
 19 20  2  0
 20 21  1  0
 21 22  2  0
 22 23  1  0
 24 25  2  0
 26 27  1  0
 27 28  2  0
 27 31  1  0
 28 29  1  0
 29 30  2  0
 30 31  1  0
M  END
