
     RDKit          3D

 29 32  0  0  0  0  0  0  0  0999 V2000
   -7.7930    0.6120   -0.0840 C   0  0  0  0  0  0  0  0  0  0  0  0
   -7.1210   -0.0710    0.9720 N   0  0  0  0  0  0  0  0  0  0  0  0
   -5.7350   -0.0200    1.1520 C   0  0  0  0  0  0  0  0  0  0  0  0
   -4.9030   -0.9200    2.5080 S   0  0  0  0  0  0  0  0  0  0  0  0
   -3.2860   -0.4240    2.1300 C   0  0  0  0  0  0  0  0  0  0  0  0
   -2.1120   -0.8430    2.9110 C   0  0  0  0  0  0  0  0  0  0  0  0
   -0.9130   -0.5240    2.2630 O   0  0  0  0  0  0  0  0  0  0  0  0
   -0.5360   -0.9910    1.0330 C   0  0  0  0  0  0  0  0  0  0  0  0
   -1.3400   -1.7680    0.4470 O   0  0  0  0  0  0  0  0  0  0  0  0
    0.7100   -0.6640    0.3570 C   0  0  0  0  0  0  0  0  0  0  0  0
    1.0700   -1.2200   -0.8500 C   0  0  0  0  0  0  0  0  0  0  0  0
    2.2380   -0.9360   -1.4950 C   0  0  0  0  0  0  0  0  0  0  0  0
    3.1250   -0.0280   -0.8980 C   0  0  0  0  0  0  0  0  0  0  0  0
    2.7990    0.5530    0.3110 C   0  0  0  0  0  0  0  0  0  0  0  0
    1.5860    0.2270    0.9320 C   0  0  0  0  0  0  0  0  0  0  0  0
    1.2820    0.8030    2.1200 F   0  0  0  0  0  0  0  0  0  0  0  0
    4.2940    0.1050   -1.7470 C   0  0  0  0  0  0  0  0  0  0  0  0
    5.5180    0.3780   -1.4620 C   0  0  0  0  0  0  0  0  0  0  0  0
    5.9940    0.6180   -0.1140 C   0  0  0  0  0  0  0  0  0  0  0  0
    5.7460   -0.0750    1.0110 N   0  0  0  0  0  0  0  0  0  0  0  0
    6.3770    0.4760    2.0550 C   0  0  0  0  0  0  0  0  0  0  0  0
    7.0430    1.5600    1.5360 C   0  0  0  0  0  0  0  0  0  0  0  0
    6.7960    1.6140    0.2570 O   0  0  0  0  0  0  0  0  0  0  0  0
    3.8010   -0.2080   -3.1470 C   0  0  0  0  0  0  0  0  0  0  0  0
    2.8610   -1.3560   -2.8030 C   0  0  2  0  0  0  0  0  0  0  0  0
    1.8950   -1.4380   -3.8050 O   0  0  0  0  0  0  0  0  0  0  0  0
   -3.4400    0.3650    1.0460 C   0  0  0  0  0  0  0  0  0  0  0  0
   -4.6830    0.5660    0.5560 C   0  0  0  0  0  0  0  0  0  0  0  0
   -4.9040    1.4630   -0.6680 C   0  0  0  0  0  0  0  0  0  0  0  0
  1  2  1  0
  2  3  1  0
  3  4  1  0
  3 28  2  0
  4  5  1  0
  5  6  1  0
  5 27  2  0
  6  7  1  0
  7  8  1  0
  8  9  2  0
  8 10  1  0
 10 11  2  0
 10 15  1  0
 11 12  1  0
 12 13  2  0
 12 25  1  0
 13 14  1  0
 13 17  1  0
 14 15  2  0
 15 16  1  0
 17 18  2  3
 17 24  1  0
 18 19  1  0
 19 20  2  0
 19 23  1  0
 20 21  1  0
 21 22  2  0
 22 23  1  0
 24 25  1  0
 25 26  1  6
 27 28  1  0
 28 29  1  0
M  END
