
     RDKit          3D

 29 31  0  0  0  0  0  0  0  0999 V2000
   -3.3110    3.2360    1.0060 C   0  0  0  0  0  0  0  0  0  0  0  0
   -4.6500    2.6320    0.7440 C   0  0  0  0  0  0  0  0  0  0  0  0
   -4.7820    1.3440    0.4740 C   0  0  0  0  0  0  0  0  0  0  0  0
   -3.6340    0.4530    0.4170 C   0  0  0  0  0  0  0  0  0  0  0  0
   -3.8010   -0.8570    0.1390 C   0  0  0  0  0  0  0  0  0  0  0  0
   -5.0390   -1.3170   -0.0830 F   0  0  0  0  0  0  0  0  0  0  0  0
   -2.6340   -1.7060    0.1350 C   0  0  0  0  0  0  0  0  0  0  0  0
   -2.6630   -2.9650   -0.1310 C   0  0  0  0  0  0  0  0  0  0  0  0
   -3.9410   -3.6650   -0.4770 C   0  0  0  0  0  0  0  0  0  0  0  0
   -4.3890   -4.7260    0.3240 C   0  0  0  0  0  0  0  0  0  0  0  0
   -5.8810   -5.2660   -0.5360 S   0  0  0  0  0  0  0  0  0  0  0  0
   -5.7380   -4.0380   -1.8410 C   0  0  0  0  0  0  0  0  0  0  0  0
   -6.5540   -3.9240   -2.7940 O   0  0  0  0  0  0  0  0  0  0  0  0
   -4.6530   -3.3770   -1.5320 N   0  0  0  0  0  0  0  0  0  0  0  0
   -1.3770   -1.1320    0.4410 O   0  0  0  0  0  0  0  0  0  0  0  0
   -0.3950   -0.9390   -0.5270 C   0  0  0  0  0  0  0  0  0  0  0  0
    0.7980   -0.3100    0.1650 C   0  0  0  0  0  0  0  0  0  0  0  0
    0.7570   -0.0670    1.3920 O   0  0  0  0  0  0  0  0  0  0  0  0
    1.9590    0.0070   -0.5600 N   0  0  0  0  0  0  0  0  0  0  0  0
    3.1500    0.5890   -0.0900 C   0  0  0  0  0  0  0  0  0  0  0  0
    3.3490    0.9450    1.2190 C   0  0  0  0  0  0  0  0  0  0  0  0
    4.5630    1.5200    1.6130 C   0  0  0  0  0  0  0  0  0  0  0  0
    4.7090    1.8810    3.0430 C   0  0  0  0  0  0  0  0  0  0  0  0
    5.5980    1.7560    0.7440 C   0  0  0  0  0  0  0  0  0  0  0  0
    5.3780    1.3880   -0.5790 C   0  0  0  0  0  0  0  0  0  0  0  0
    4.2030    0.8290   -0.9690 C   0  0  0  0  0  0  0  0  0  0  0  0
    4.3110    0.5640   -2.4250 C   0  0  0  0  0  0  0  0  0  0  0  0
    5.6950    0.5600   -2.6510 O   0  0  0  0  0  0  0  0  0  0  0  0
    6.2360    1.4810   -1.7910 C   0  0  0  0  0  0  0  0  0  0  0  0
  1  2  1  0
  2  3  2  3
  3  4  1  0
  4  5  2  3
  5  6  1  0
  5  7  1  0
  7  8  2  3
  7 15  1  0
  8  9  1  0
  9 10  2  0
  9 14  1  0
 10 11  1  0
 11 12  1  0
 12 13  2  0
 12 14  1  0
 15 16  1  0
 16 17  1  0
 17 18  2  0
 17 19  1  0
 19 20  1  0
 20 21  2  0
 20 26  1  0
 21 22  1  0
 22 23  1  0
 22 24  2  0
 24 25  1  0
 25 26  2  0
 25 29  1  0
 26 27  1  0
 27 28  1  0
 28 29  1  0
M  END
