
     RDKit          3D

 29 31  0  0  0  0  0  0  0  0999 V2000
    8.3840   -1.4420    2.8810 C   0  0  0  0  0  0  0  0  0  0  0  0
    7.6730   -0.9060    1.7000 C   0  0  0  0  0  0  0  0  0  0  0  0
    6.3380   -0.7060    1.4800 C   0  0  0  0  0  0  0  0  0  0  0  0
    5.9040   -0.2050    0.3300 C   0  0  0  0  0  0  0  0  0  0  0  0
    4.5240    0.0510   -0.0200 N   0  0  0  0  0  0  0  0  0  0  0  0
    3.4150   -0.1840    0.7910 C   0  0  0  0  0  0  0  0  0  0  0  0
    3.5940   -0.6620    1.9390 O   0  0  0  0  0  0  0  0  0  0  0  0
    2.0280    0.0750    0.4350 C   0  0  0  0  0  0  0  0  0  0  0  0
    1.7050    0.5750   -0.7360 C   0  0  0  0  0  0  0  0  0  0  0  0
    0.2800    0.8220   -1.0520 C   0  0  0  0  0  0  0  0  0  0  0  0
   -0.0880    1.3430   -2.2650 C   0  0  0  0  0  0  0  0  0  0  0  0
   -1.3980    1.5870   -2.5990 C   0  0  0  0  0  0  0  0  0  0  0  0
   -1.7560    2.0590   -3.6950 O   0  0  0  0  0  0  0  0  0  0  0  0
   -2.3680    1.2880   -1.6600 C   0  0  0  0  0  0  0  0  0  0  0  0
   -1.9510    0.7680   -0.4590 C   0  0  0  0  0  0  0  0  0  0  0  0
   -0.6750    0.5610   -0.2100 O   0  0  0  0  0  0  0  0  0  0  0  0
   -3.1560    0.5130    0.4190 C   0  0  0  0  0  0  0  0  0  0  0  0
   -4.2150    0.2930   -0.6530 C   0  0  1  0  0  0  0  0  0  0  0  0
   -3.9330   -1.0220   -1.3030 C   0  0  0  0  0  0  0  0  0  0  0  0
   -5.5770    0.4270   -0.1280 C   0  0  0  0  0  0  0  0  0  0  0  0
   -6.3370    1.2980   -0.6070 O   0  0  0  0  0  0  0  0  0  0  0  0
   -6.0610   -0.4040    0.9110 N   0  0  0  0  0  0  0  0  0  0  0  0
   -7.3740   -0.3260    1.4680 C   0  0  0  0  0  0  0  0  0  0  0  0
   -7.5150   -1.3730    2.5520 C   0  0  0  0  0  0  0  0  0  0  0  0
   -7.3010   -2.6020    1.9380 F   0  0  0  0  0  0  0  0  0  0  0  0
   -3.8430    1.3990   -1.6130 C   0  0  0  0  0  0  0  0  0  0  0  0
    6.9300    0.1000   -0.6370 C   0  0  0  0  0  0  0  0  0  0  0  0
    6.7580    0.6600   -1.9880 C   0  0  0  0  0  0  0  0  0  0  0  0
    8.4230   -0.3550    0.1820 S   0  0  0  0  0  0  0  0  0  0  0  0
  1  2  1  0
  2  3  2  0
  2 29  1  0
  3  4  1  0
  4  5  1  0
  4 27  2  0
  5  6  1  0
  6  7  2  0
  6  8  1  0
  8  9  2  3
  9 10  1  0
 10 11  2  0
 10 16  1  0
 11 12  1  0
 12 13  2  0
 12 14  1  0
 14 15  2  0
 14 26  1  0
 15 16  1  0
 15 17  1  0
 17 18  1  0
 18 19  1  6
 18 20  1  0
 18 26  1  0
 20 21  2  0
 20 22  1  0
 22 23  1  0
 23 24  1  0
 24 25  1  0
 27 28  1  0
 27 29  1  0
M  END
