
     RDKit          3D

 25 27  0  0  0  0  0  0  0  0999 V2000
    1.8520    0.7980   -1.5750 O   0  0  0  0  0  0  0  0  0  0  0  0
    1.1040    0.2070   -0.6930 C   0  0  0  0  0  0  0  0  0  0  0  0
    1.7740   -0.8180   -0.0140 N   0  0  0  0  0  0  0  0  0  0  0  0
    3.1120   -1.2440   -0.2030 C   0  0  0  0  0  0  0  0  0  0  0  0
    3.8710   -0.9440   -1.2800 C   0  0  0  0  0  0  0  0  0  0  0  0
    5.2070   -1.3840   -1.3980 C   0  0  0  0  0  0  0  0  0  0  0  0
    5.7710   -2.1360   -0.4110 C   0  0  0  0  0  0  0  0  0  0  0  0
    7.4300   -2.7220   -0.4880 Cl  0  0  0  0  0  0  0  0  0  0  0  0
    5.0240   -2.4540    0.6880 C   0  0  0  0  0  0  0  0  0  0  0  0
    3.7400   -2.0170    0.7790 C   0  0  0  0  0  0  0  0  0  0  0  0
   -0.2550    0.6730   -0.5460 C   0  0  0  0  0  0  0  0  0  0  0  0
   -0.6560    1.7320   -1.3730 C   0  0  0  0  0  0  0  0  0  0  0  0
   -1.9240    2.2700   -1.3330 C   0  0  0  0  0  0  0  0  0  0  0  0
   -2.2950    3.3170   -2.1620 C   0  0  0  0  0  0  0  0  0  0  0  0
   -3.5690    3.8240   -2.0890 C   0  0  0  0  0  0  0  0  0  0  0  0
   -4.4740    3.2890   -1.1900 C   0  0  0  0  0  0  0  0  0  0  0  0
   -4.1220    2.2560   -0.3670 C   0  0  0  0  0  0  0  0  0  0  0  0
   -2.8360    1.7600   -0.4550 C   0  0  0  0  0  0  0  0  0  0  0  0
   -2.4770    0.7350    0.3580 C   0  0  0  0  0  0  0  0  0  0  0  0
   -1.1820    0.1810    0.3210 C   0  0  0  0  0  0  0  0  0  0  0  0
   -0.8010   -0.8300    1.1130 O   0  0  0  0  0  0  0  0  0  0  0  0
   -1.4270   -1.7000    2.2040 P   0  0  0  0  0  0  0  0  0  0  0  0
   -2.4100   -2.4270    1.1070 O   0  0  0  0  0  0  0  0  0  0  0  0
   -1.9470   -0.3080    2.9690 O   0  0  0  0  0  0  0  0  0  0  0  0
   -2.0420   -2.4810    3.3350 O   0  0  0  0  0  0  0  0  0  0  0  0
  1  2  2  0
  2  3  1  0
  2 11  1  0
  3  4  1  0
  4  5  2  0
  4 10  1  0
  5  6  1  0
  6  7  2  0
  7  8  1  0
  7  9  1  0
  9 10  2  0
 11 12  2  0
 11 20  1  0
 12 13  1  0
 13 14  2  0
 13 18  1  0
 14 15  1  0
 15 16  2  0
 16 17  1  0
 17 18  2  0
 18 19  1  0
 19 20  2  0
 20 21  1  0
 21 22  1  0
 22 23  1  0
 22 24  1  0
 22 25  1  0
M  END
