
     RDKit          3D

 43 46  0  0  0  0  0  0  0  0999 V2000
   -9.4060   -2.4440   -0.6090 C   0  0  0  0  0  0  0  0  0  0  0  0
   -9.3250   -1.0850   -0.8900 O   0  0  0  0  0  0  0  0  0  0  0  0
   -7.7130   -0.4770   -0.6540 P   0  0  0  0  0  0  0  0  0  0  0  0
   -6.5410   -1.7500   -0.7110 O   0  0  0  0  0  0  0  0  0  0  0  0
   -5.1930   -1.6740   -0.5550 C   0  0  0  0  0  0  0  0  0  0  0  0
   -4.4810   -2.8640   -0.6470 C   0  0  0  0  0  0  0  0  0  0  0  0
   -3.1170   -2.9130   -0.5050 C   0  0  0  0  0  0  0  0  0  0  0  0
   -2.3720   -1.7540   -0.2580 C   0  0  0  0  0  0  0  0  0  0  0  0
   -0.9590   -1.8290   -0.1250 N   0  0  0  0  0  0  0  0  0  0  0  0
   -0.2330   -0.7140    0.4000 C   0  0  2  0  0  0  0  0  0  0  0  0
    1.2510   -0.9950    0.3040 C   0  0  0  0  0  0  0  0  0  0  0  0
    1.7410   -2.2440    0.6210 C   0  0  0  0  0  0  0  0  0  0  0  0
    3.0880   -2.5380    0.5570 C   0  0  0  0  0  0  0  0  0  0  0  0
    4.0050   -1.5810    0.1690 C   0  0  0  0  0  0  0  0  0  0  0  0
    5.4340   -1.8740    0.0960 C   0  0  0  0  0  0  0  0  0  0  0  0
    5.8110   -3.0590    0.3930 O   0  0  0  0  0  0  0  0  0  0  0  0
    6.4380   -0.9760   -0.2700 N   0  0  0  0  0  0  0  0  0  0  0  0
    7.3200   -1.1500   -1.1640 C   0  0  0  0  0  0  0  0  0  0  0  0
    7.5160   -2.2730   -2.0100 N   0  0  0  0  0  0  0  0  0  0  0  0
    8.1150   -1.8170   -3.2470 C   0  0  0  0  0  0  0  0  0  0  0  0
    8.3640   -0.3360   -3.0690 C   0  0  0  0  0  0  0  0  0  0  0  0
    8.4080   -0.1790   -1.5460 C   0  0  1  0  0  0  0  0  0  0  0  0
    8.1070    1.1030   -1.1150 O   0  0  0  0  0  0  0  0  0  0  0  0
    8.8040    1.9290   -0.2930 C   0  0  0  0  0  0  0  0  0  0  0  0
    8.2960    3.1770   -0.0100 C   0  0  0  0  0  0  0  0  0  0  0  0
    8.9740    4.0410    0.8180 C   0  0  0  0  0  0  0  0  0  0  0  0
   10.1720    3.6440    1.3640 C   0  0  0  0  0  0  0  0  0  0  0  0
   10.6880    2.3960    1.0860 C   0  0  0  0  0  0  0  0  0  0  0  0
    9.9990    1.5330    0.2510 C   0  0  0  0  0  0  0  0  0  0  0  0
    3.5180   -0.3310   -0.1490 C   0  0  0  0  0  0  0  0  0  0  0  0
    2.1580   -0.0350   -0.0850 C   0  0  0  0  0  0  0  0  0  0  0  0
   -0.5580   -0.5730    1.8810 C   0  0  1  0  0  0  0  0  0  0  0  0
   -0.1550   -1.7740    2.5110 O   0  0  0  0  0  0  0  0  0  0  0  0
    0.2410    0.5500    2.5030 C   0  0  0  0  0  0  0  0  0  0  0  0
   -0.1240    1.7630    1.9100 O   0  0  0  0  0  0  0  0  0  0  0  0
   -3.0750   -0.5780   -0.1680 C   0  0  0  0  0  0  0  0  0  0  0  0
   -4.4570   -0.5370   -0.3130 C   0  0  0  0  0  0  0  0  0  0  0  0
   -7.6480    0.5360    0.8880 C   0  0  2  0  0  0  0  0  0  0  0  0
   -8.6670    0.1960    1.7800 O   0  0  0  0  0  0  0  0  0  0  0  0
   -7.5080    1.9870    0.6670 C   0  0  0  0  0  0  0  0  0  0  0  0
   -8.5420    2.7060   -0.0940 C   0  0  1  0  0  0  0  0  0  0  0  0
   -8.7360    2.2410   -1.5100 C   0  0  0  0  0  0  0  0  0  0  0  0
   -9.8870    2.7740    0.5850 C   0  0  0  0  0  0  0  0  0  0  0  0
  1  2  1  0
  2  3  1  0
  3  4  1  0
  3 38  1  0
  4  5  1  0
  5  6  2  0
  5 37  1  0
  6  7  1  0
  7  8  2  0
  8  9  1  0
  8 36  1  0
 10  9  1  1
 10 11  1  0
 10 32  1  0
 11 12  2  0
 11 31  1  0
 12 13  1  0
 13 14  2  0
 14 15  1  0
 14 30  1  0
 15 16  2  0
 15 17  1  0
 17 18  2  3
 18 19  1  0
 18 22  1  0
 19 20  1  0
 20 21  1  0
 21 22  1  0
 22 23  1  6
 23 24  1  0
 24 25  2  0
 24 29  1  0
 25 26  1  0
 26 27  2  0
 27 28  1  0
 28 29  2  0
 30 31  2  0
 32 33  1  1
 32 34  1  0
 34 35  1  0
 36 37  2  0
 38 39  1  6
 38 40  1  0
 40 41  1  0
 41 42  1  6
 41 43  1  0
M  END
