
     RDKit          3D

 44 47  0  0  0  0  0  0  0  0999 V2000
    0.1920   -2.1330   -4.5180 C   0  0  0  0  0  0  0  0  0  0  0  0
   -0.1730   -1.1200   -3.6350 O   0  0  0  0  0  0  0  0  0  0  0  0
    0.6760   -1.0660   -2.5270 C   0  0  1  0  0  0  0  0  0  0  0  0
    1.3610    0.2570   -2.5540 C   0  0  0  0  0  0  0  0  0  0  0  0
    1.7640    0.6480   -1.1240 C   0  0  2  0  0  0  0  0  0  0  0  0
    2.5420   -0.3010   -0.5010 O   0  0  0  0  0  0  0  0  0  0  0  0
    3.8740   -0.1950   -0.1800 C   0  0  0  0  0  0  0  0  0  0  0  0
    4.6960    0.8600   -0.4460 C   0  0  0  0  0  0  0  0  0  0  0  0
    6.0530    0.9040   -0.0880 C   0  0  0  0  0  0  0  0  0  0  0  0
    6.5760   -0.1740    0.5650 C   0  0  0  0  0  0  0  0  0  0  0  0
    7.9320   -0.2510    0.9470 N   0  0  0  0  0  0  0  0  0  0  0  0
    9.0000    0.5210    0.4660 C   0  0  0  0  0  0  0  0  0  0  0  0
    8.8180    1.3880   -0.3980 O   0  0  0  0  0  0  0  0  0  0  0  0
   10.3630    0.3210    0.9730 C   0  0  0  0  0  0  0  0  0  0  0  0
   10.5720   -0.1540    2.2690 C   0  0  0  0  0  0  0  0  0  0  0  0
   11.8610   -0.3550    2.7440 C   0  0  0  0  0  0  0  0  0  0  0  0
   12.9530   -0.0950    1.9570 C   0  0  0  0  0  0  0  0  0  0  0  0
   14.2300   -0.3080    2.4650 O   0  0  0  0  0  0  0  0  0  0  0  0
   12.7570    0.3720    0.6840 C   0  0  0  0  0  0  0  0  0  0  0  0
   11.4650    0.5760    0.2020 C   0  0  0  0  0  0  0  0  0  0  0  0
    5.7410   -1.2550    0.8420 C   0  0  0  0  0  0  0  0  0  0  0  0
    4.4280   -1.2830    0.4880 C   0  0  0  0  0  0  0  0  0  0  0  0
    0.4960    0.9930   -0.4250 C   0  0  0  0  0  0  0  0  0  0  0  0
   -0.4690   -0.0520   -0.6220 N   0  0  0  0  0  0  0  0  0  0  0  0
   -1.8220    0.1690   -0.1840 C   0  0  0  0  0  0  0  0  0  0  0  0
   -2.0660    1.2490    0.6250 C   0  0  0  0  0  0  0  0  0  0  0  0
   -3.3650    1.5190    1.0820 C   0  0  0  0  0  0  0  0  0  0  0  0
   -4.4430    0.7390    0.7580 C   0  0  0  0  0  0  0  0  0  0  0  0
   -5.7720    0.9300    1.1780 N   0  0  0  0  0  0  0  0  0  0  0  0
   -6.1970    1.9760    2.0230 C   0  0  0  0  0  0  0  0  0  0  0  0
   -5.4110    2.8300    2.4700 O   0  0  0  0  0  0  0  0  0  0  0  0
   -7.6530    2.0960    2.4210 C   0  0  0  0  0  0  0  0  0  0  0  0
   -8.4090    1.0780    1.7970 O   0  0  0  0  0  0  0  0  0  0  0  0
   -9.7680    0.9840    2.0240 C   0  0  0  0  0  0  0  0  0  0  0  0
  -10.3010    1.8200    2.7940 O   0  0  0  0  0  0  0  0  0  0  0  0
  -10.6240   -0.0750    1.3840 C   0  0  1  0  0  0  0  0  0  0  0  0
  -11.6510    0.6220    0.5290 C   0  0  0  0  0  0  0  0  0  0  0  0
   -9.8360   -0.8880    0.5550 O   0  0  0  0  0  0  0  0  0  0  0  0
   -4.1710   -0.3630   -0.0730 C   0  0  0  0  0  0  0  0  0  0  0  0
   -5.2990   -1.2200   -0.4650 C   0  0  2  0  0  0  0  0  0  0  0  0
   -4.7620   -2.4190   -1.2550 C   0  0  0  0  0  0  0  0  0  0  0  0
   -6.2430   -0.5100   -1.4270 C   0  0  0  0  0  0  0  0  0  0  0  0
   -2.8790   -0.6310   -0.5280 C   0  0  0  0  0  0  0  0  0  0  0  0
   -0.0340   -1.2720   -1.2300 C   0  0  0  0  0  0  0  0  0  0  0  0
  1  2  1  0
  3  2  1  6
  3  4  1  0
  3 44  1  0
  4  5  1  0
  5  6  1  1
  5 23  1  0
  6  7  1  0
  7  8  2  0
  7 22  1  0
  8  9  1  0
  9 10  2  0
 10 11  1  0
 10 21  1  0
 11 12  1  0
 12 13  2  0
 12 14  1  0
 14 15  2  0
 14 20  1  0
 15 16  1  0
 16 17  2  0
 17 18  1  0
 17 19  1  0
 19 20  2  0
 21 22  2  0
 23 24  1  0
 24 25  1  0
 24 44  1  0
 25 26  2  0
 25 43  1  0
 26 27  1  0
 27 28  2  0
 28 29  1  0
 28 39  1  0
 29 30  1  0
 30 31  2  0
 30 32  1  0
 32 33  1  0
 33 34  1  0
 34 35  2  0
 34 36  1  0
 36 37  1  6
 36 38  1  0
 39 40  1  0
 39 43  2  0
 40 41  1  6
 40 42  1  0
M  END
