
     RDKit          3D

 44 48  0  0  0  0  0  0  0  0999 V2000
    3.9530    3.7130   -3.0260 C   0  0  0  0  0  0  0  0  0  0  0  0
    3.4160    3.0810   -1.8620 O   0  0  0  0  0  0  0  0  0  0  0  0
    4.2370    2.3660   -0.9830 C   0  0  0  0  0  0  0  0  0  0  0  0
    5.4580    2.3170   -1.2800 O   0  0  0  0  0  0  0  0  0  0  0  0
    3.6650    1.7100    0.2300 C   0  0  1  0  0  0  0  0  0  0  0  0
    4.8220    1.0350    0.9490 C   0  0  0  0  0  0  0  0  0  0  0  0
    5.5760    2.0330    1.7940 C   0  0  0  0  0  0  0  0  0  0  0  0
    5.4110    3.3100    1.2580 O   0  0  0  0  0  0  0  0  0  0  0  0
    4.1220    3.7250    1.5850 C   0  0  0  0  0  0  0  0  0  0  0  0
    3.0650    2.7400    1.1780 C   0  0  2  0  0  0  0  0  0  0  0  0
    2.6180    2.0100    2.3120 O   0  0  0  0  0  0  0  0  0  0  0  0
    2.0150    0.7810    2.1860 C   0  0  0  0  0  0  0  0  0  0  0  0
    1.7310    0.1210    3.2030 O   0  0  0  0  0  0  0  0  0  0  0  0
    1.7060    0.2470    0.8490 C   0  0  2  0  0  0  0  0  0  0  0  0
    0.2920    0.6790    0.5000 C   0  0  0  0  0  0  0  0  0  0  0  0
   -0.3560   -0.2700   -0.2740 O   0  0  0  0  0  0  0  0  0  0  0  0
   -1.4140   -0.1440   -1.1310 C   0  0  0  0  0  0  0  0  0  0  0  0
   -1.3000   -0.2820   -2.4150 O   0  0  0  0  0  0  0  0  0  0  0  0
   -2.7790    0.1510   -0.7440 N   0  0  0  0  0  0  0  0  0  0  0  0
   -3.4830    1.1270   -1.5550 C   0  0  0  0  0  0  0  0  0  0  0  0
   -2.9120    1.6910   -2.5330 O   0  0  0  0  0  0  0  0  0  0  0  0
   -4.8240    1.5150   -1.3290 N   0  0  0  0  0  0  0  0  0  0  0  0
   -5.5980    2.4630   -2.0510 C   0  0  0  0  0  0  0  0  0  0  0  0
   -5.1270    3.8760   -2.0540 C   0  0  0  0  0  0  0  0  0  0  0  0
   -3.8850    4.0110   -2.5940 O   0  0  0  0  0  0  0  0  0  0  0  0
   -3.4430    5.2370   -2.6120 O   0  0  0  0  0  0  0  0  0  0  0  0
   -3.4270   -0.4690    0.3580 C   0  0  0  0  0  0  0  0  0  0  0  0
   -3.9750    0.3240    1.2060 O   0  0  0  0  0  0  0  0  0  0  0  0
   -3.5340   -1.8500    0.6200 N   0  0  0  0  0  0  0  0  0  0  0  0
   -3.5840   -2.8990   -0.3750 C   0  0  0  0  0  0  0  0  0  0  0  0
   -3.4690   -4.2640    0.2700 C   0  0  0  0  0  0  0  0  0  0  0  0
   -2.1850   -4.3210    0.9800 C   0  0  1  0  0  0  0  0  0  0  0  0
   -1.9830   -5.2920    1.9190 O   0  0  0  0  0  0  0  0  0  0  0  0
   -0.9700   -6.1840    1.6910 C   0  0  0  0  0  0  0  0  0  0  0  0
    0.4320   -5.5450    1.6200 C   0  0  0  0  0  0  0  0  0  0  0  0
    0.1810   -4.3630    0.7530 N   0  0  0  0  0  0  0  0  0  0  0  0
   -1.0000   -4.4510    0.0050 C   0  0  0  0  0  0  0  0  0  0  0  0
   -1.2860   -4.6060   -1.2060 O   0  0  0  0  0  0  0  0  0  0  0  0
    1.1240   -3.3230    0.8610 C   0  0  0  0  0  0  0  0  0  0  0  0
    0.7400   -2.0070    0.7700 N   0  0  0  0  0  0  0  0  0  0  0  0
    1.7910   -1.2420    0.9030 C   0  0  0  0  0  0  0  0  0  0  0  0
    2.8420   -2.0310    1.0770 N   0  0  0  0  0  0  0  0  0  0  0  0
    2.4430   -3.2400    1.0510 O   0  0  0  0  0  0  0  0  0  0  0  0
    2.6270    0.7420   -0.2220 C   0  0  0  0  0  0  0  0  0  0  0  0
  1  2  1  0
  2  3  1  0
  3  4  2  0
  5  3  1  6
  5  6  1  0
  5 10  1  0
  5 44  1  0
  6  7  1  0
  7  8  1  0
  8  9  1  0
 10  9  1  1
 10 11  1  0
 11 12  1  0
 12 13  2  0
 12 14  1  0
 14 15  1  6
 14 41  1  0
 14 44  1  0
 15 16  1  0
 16 17  1  0
 17 18  2  0
 17 19  1  0
 19 20  1  0
 19 27  1  0
 20 21  2  0
 20 22  1  0
 22 23  1  0
 23 24  1  0
 24 25  1  0
 25 26  1  0
 27 28  2  0
 27 29  1  0
 29 30  1  0
 30 31  1  0
 32 31  1  6
 32 33  1  0
 32 37  1  0
 33 34  1  0
 34 35  1  0
 35 36  1  0
 36 37  1  0
 36 39  1  0
 37 38  2  0
 39 40  2  0
 39 43  1  0
 40 41  1  0
 41 42  2  0
 42 43  1  0
M  END
