
     RDKit          3D

 31 34  0  0  0  0  0  0  0  0999 V2000
   -0.5870    1.2400    1.1980 C   0  0  0  0  0  0  0  0  0  0  0  0
   -0.3240    1.1570   -0.2050 N   0  0  0  0  0  0  0  0  0  0  0  0
    0.9420    1.7060   -0.6020 C   0  0  0  0  0  0  0  0  0  0  0  0
    2.1190    0.8990   -0.1030 C   0  0  0  0  0  0  0  0  0  0  0  0
    3.4290    1.5370   -0.5650 C   0  0  0  0  0  0  0  0  0  0  0  0
    4.5890    0.7290   -0.0700 C   0  0  0  0  0  0  0  0  0  0  0  0
    4.3570   -0.2850    0.6170 O   0  0  0  0  0  0  0  0  0  0  0  0
    5.9190    1.0940   -0.3650 N   0  0  0  0  0  0  0  0  0  0  0  0
    7.0850    0.4220    0.0370 C   0  0  0  0  0  0  0  0  0  0  0  0
    7.1210   -0.7250    0.7910 C   0  0  0  0  0  0  0  0  0  0  0  0
    8.3470   -1.2970    1.1240 C   0  0  0  0  0  0  0  0  0  0  0  0
    9.5010   -0.6960    0.6860 C   0  0  0  0  0  0  0  0  0  0  0  0
    9.4930    0.4260   -0.0520 N   0  0  0  0  0  0  0  0  0  0  0  0
    8.3090    0.9710   -0.3680 C   0  0  0  0  0  0  0  0  0  0  0  0
    8.3030    2.0190   -1.0590 O   0  0  0  0  0  0  0  0  0  0  0  0
   -0.4520   -0.1680   -0.7470 C   0  0  0  0  0  0  0  0  0  0  0  0
   -1.8680   -0.6250   -0.5580 C   0  0  0  0  0  0  0  0  0  0  0  0
   -2.1590   -1.9670   -0.7760 C   0  0  0  0  0  0  0  0  0  0  0  0
   -3.4640   -2.3630   -0.6070 C   0  0  0  0  0  0  0  0  0  0  0  0
   -4.4310   -1.4190   -0.2260 C   0  0  0  0  0  0  0  0  0  0  0  0
   -4.1320   -0.1090   -0.0240 C   0  0  0  0  0  0  0  0  0  0  0  0
   -5.1510    0.8850    0.2340 C   0  0  0  0  0  0  0  0  0  0  0  0
   -6.4520    0.8730    0.0990 C   0  0  0  0  0  0  0  0  0  0  0  0
   -6.9880    2.1850    0.5280 C   0  0  0  0  0  0  0  0  0  0  0  0
   -5.8310    2.9720    0.9350 C   0  0  0  0  0  0  0  0  0  0  0  0
   -4.7660    2.2200    0.7650 C   0  0  0  0  0  0  0  0  0  0  0  0
   -2.8200    0.2460   -0.2010 N   0  0  0  0  0  0  0  0  0  0  0  0
   -5.6970   -1.9910    0.0920 N   0  0  0  0  0  0  0  0  0  0  0  0
   -6.2270   -3.1940   -0.4880 C   0  0  0  0  0  0  0  0  0  0  0  0
   -5.1370   -4.1380   -0.8660 C   0  0  0  0  0  0  0  0  0  0  0  0
   -3.8970   -3.7110   -0.9080 C   0  0  0  0  0  0  0  0  0  0  0  0
  1  2  1  0
  2  3  1  0
  2 16  1  0
  3  4  1  0
  4  5  1  0
  5  6  1  0
  6  7  2  0
  6  8  1  0
  8  9  1  0
  9 10  2  0
  9 14  1  0
 10 11  1  0
 11 12  2  0
 12 13  1  0
 13 14  1  0
 14 15  2  0
 16 17  1  0
 17 18  2  0
 17 27  1  0
 18 19  1  0
 19 20  2  0
 19 31  1  0
 20 21  1  0
 20 28  1  0
 21 22  1  0
 21 27  2  0
 22 23  2  0
 22 26  1  0
 23 24  1  0
 24 25  1  0
 25 26  2  0
 28 29  1  0
 29 30  1  0
 30 31  2  0
M  END
