
     RDKit          3D

 26 28  0  0  0  0  0  0  0  0999 V2000
   -3.6730   -1.2950    0.7070 C   0  0  0  0  0  0  0  0  0  0  0  0
   -2.6340   -1.6160    0.0140 C   0  0  0  0  0  0  0  0  0  0  0  0
   -2.5330   -1.8740   -1.4380 C   0  0  0  0  0  0  0  0  0  0  0  0
   -1.3900   -2.6600   -1.6060 O   0  0  0  0  0  0  0  0  0  0  0  0
   -1.0320   -3.1400   -0.3430 C   0  0  0  0  0  0  0  0  0  0  0  0
   -1.2430   -1.8400    0.4900 C   0  0  1  0  0  0  0  0  0  0  0  0
   -0.2570   -0.8210   -0.0460 C   0  0  1  0  0  0  0  0  0  0  0  0
   -0.1960   -0.8810   -1.3980 F   0  0  0  0  0  0  0  0  0  0  0  0
   -0.7890    0.5690    0.2640 C   0  0  0  0  0  0  0  0  0  0  0  0
   -1.8630    0.9100    0.8990 C   0  0  0  0  0  0  0  0  0  0  0  0
   -2.1600    2.1950    0.8380 C   0  0  0  0  0  0  0  0  0  0  0  0
   -3.3860    2.8900    1.2710 C   0  0  0  0  0  0  0  0  0  0  0  0
   -4.0010    3.5480    0.1890 O   0  0  0  0  0  0  0  0  0  0  0  0
   -1.0440    2.7850    0.2630 O   0  0  0  0  0  0  0  0  0  0  0  0
   -0.1990    1.7690   -0.0890 O   0  0  0  0  0  0  0  0  0  0  0  0
    1.0730   -0.9720    0.6370 C   0  0  2  0  0  0  0  0  0  0  0  0
    1.6290   -2.2440    0.4670 O   0  0  0  0  0  0  0  0  0  0  0  0
    0.8930   -0.7780    1.9870 F   0  0  0  0  0  0  0  0  0  0  0  0
    2.0510    0.0280    0.2000 N   0  0  0  0  0  0  0  0  0  0  0  0
    3.2330   -0.1120    0.9450 N   0  0  0  0  0  0  0  0  0  0  0  0
    4.0420    1.0650    0.6950 C   0  0  0  0  0  0  0  0  0  0  0  0
    4.0190    1.4740   -0.7120 C   0  0  0  0  0  0  0  0  0  0  0  0
    4.9630    2.0750   -1.1800 O   0  0  0  0  0  0  0  0  0  0  0  0
    2.8620    1.1750   -1.6000 C   0  0  0  0  0  0  0  0  0  0  0  0
    2.2950   -0.0790   -1.1700 N   0  0  0  0  0  0  0  0  0  0  0  0
    3.2700   -1.0620   -1.3900 N   0  0  0  0  0  0  0  0  0  0  0  0
  1  2  2  0
  2  3  1  0
  2  6  1  0
  3  4  1  0
  4  5  1  0
  6  5  1  6
  6  7  1  0
  7  8  1  6
  7  9  1  0
  7 16  1  0
  9 10  2  0
  9 15  1  0
 10 11  2  0
 11 12  1  0
 11 14  1  0
 12 13  1  0
 14 15  1  0
 16 17  1  1
 16 18  1  0
 16 19  1  0
 19 20  1  0
 19 25  1  0
 20 21  1  0
 21 22  1  0
 22 23  2  0
 22 24  1  0
 24 25  1  0
 25 26  1  0
M  CHG  1  17  -1
M  END
