
     RDKit          3D

 31 34  0  0  0  0  0  0  0  0999 V2000
    5.2090    3.4420    0.8790 N   0  0  0  0  0  0  0  0  0  0  0  0
    3.9230    3.6670    1.5690 C   0  0  0  0  0  0  0  0  0  0  0  0
    2.9330    3.9790    0.4930 C   0  0  0  0  0  0  0  0  0  0  0  0
    2.8020    2.9490   -0.4090 O   0  0  0  0  0  0  0  0  0  0  0  0
    2.2930    1.7030   -0.1940 C   0  0  0  0  0  0  0  0  0  0  0  0
    2.3170    0.8080   -1.2810 C   0  0  0  0  0  0  0  0  0  0  0  0
    1.8180   -0.4430   -1.1170 C   0  0  0  0  0  0  0  0  0  0  0  0
    1.2790   -0.9200    0.0460 C   0  0  0  0  0  0  0  0  0  0  0  0
    0.7310   -2.2240    0.2270 N   0  0  0  0  0  0  0  0  0  0  0  0
    0.3490   -3.0720   -0.8390 C   0  0  0  0  0  0  0  0  0  0  0  0
   -0.4380   -2.6690   -1.7510 N   0  0  0  0  0  0  0  0  0  0  0  0
   -0.9880   -1.3860   -1.7840 C   0  0  0  0  0  0  0  0  0  0  0  0
   -0.9830   -0.6860   -2.9820 C   0  0  0  0  0  0  0  0  0  0  0  0
   -1.5150    0.5860   -3.0840 C   0  0  0  0  0  0  0  0  0  0  0  0
   -2.0560    1.1390   -1.9440 C   0  0  0  0  0  0  0  0  0  0  0  0
   -2.0840    0.4830   -0.7330 C   0  0  0  0  0  0  0  0  0  0  0  0
   -2.6550    1.0850    0.4210 N   0  0  0  0  0  0  0  0  0  0  0  0
   -3.2240    2.4120    0.3120 C   0  0  2  0  0  0  0  0  0  0  0  0
   -3.8110    2.8480    1.6580 C   0  0  0  0  0  0  0  0  0  0  0  0
   -5.1050    2.0220    1.6080 C   0  0  0  0  0  0  0  0  0  0  0  0
   -5.5650    2.3630    0.3420 O   0  0  0  0  0  0  0  0  0  0  0  0
   -4.4790    2.3140   -0.5150 C   0  0  0  0  0  0  0  0  0  0  0  0
   -1.5390   -0.8020   -0.6570 C   0  0  0  0  0  0  0  0  0  0  0  0
    0.8530   -4.4650   -0.8830 C   0  0  0  0  0  0  0  0  0  0  0  0
    1.1690   -5.1480    0.2560 C   0  0  0  0  0  0  0  0  0  0  0  0
    1.6310   -6.4520    0.1020 C   0  0  0  0  0  0  0  0  0  0  0  0
    1.7520   -6.9960   -1.1650 C   0  0  0  0  0  0  0  0  0  0  0  0
    1.4170   -6.2580   -2.2960 C   0  0  0  0  0  0  0  0  0  0  0  0
    0.9760   -5.0090   -2.1070 N   0  0  0  0  0  0  0  0  0  0  0  0
    1.2520   -0.0430    1.1240 C   0  0  0  0  0  0  0  0  0  0  0  0
    1.7570    1.2530    0.9880 C   0  0  0  0  0  0  0  0  0  0  0  0
  1  2  1  0
  2  3  1  0
  3  4  1  0
  4  5  1  0
  5  6  2  0
  5 31  1  0
  6  7  1  0
  7  8  2  0
  8  9  1  0
  8 30  1  0
  9 10  1  0
 10 11  2  3
 10 24  1  0
 11 12  1  0
 12 13  2  0
 12 23  1  0
 13 14  1  0
 14 15  2  0
 15 16  1  0
 16 17  1  0
 16 23  2  0
 18 17  1  1
 18 19  1  0
 18 22  1  0
 19 20  1  0
 20 21  1  0
 21 22  1  0
 24 25  2  0
 24 29  1  0
 25 26  1  0
 26 27  2  0
 27 28  1  0
 28 29  2  0
 30 31  2  0
M  END
