
     RDKit          3D

 29 32  0  0  0  0  0  0  0  0999 V2000
   10.0090   -2.1790   -1.9220 C   0  0  0  0  0  0  0  0  0  0  0  0
    8.7280   -1.5160   -1.4600 C   0  0  0  0  0  0  0  0  0  0  0  0
    8.5570   -0.1580   -1.3300 C   0  0  0  0  0  0  0  0  0  0  0  0
    7.2610   -0.0060   -0.8940 C   0  0  0  0  0  0  0  0  0  0  0  0
    6.6670   -1.2450   -0.7670 C   0  0  0  0  0  0  0  0  0  0  0  0
    5.3560   -1.6590   -0.3670 C   0  0  0  0  0  0  0  0  0  0  0  0
    4.8970   -2.6900   -0.1770 O   0  0  0  0  0  0  0  0  0  0  0  0
    4.2930   -0.3190   -0.1570 N   0  0  0  0  0  0  0  0  0  0  0  0
    3.0970   -1.0800    0.0720 C   0  0  0  0  0  0  0  0  0  0  0  0
    2.8760   -2.2320    0.2010 O   0  0  0  0  0  0  0  0  0  0  0  0
    1.9860   -0.0920    0.1280 N   0  0  0  0  0  0  0  0  0  0  0  0
    0.6770   -0.4290    0.2750 C   0  0  0  0  0  0  0  0  0  0  0  0
    0.1240   -1.6650    0.0450 C   0  0  0  0  0  0  0  0  0  0  0  0
   -1.2220   -1.9030    0.1820 C   0  0  0  0  0  0  0  0  0  0  0  0
   -2.0100   -0.8370    0.5650 C   0  0  0  0  0  0  0  0  0  0  0  0
   -1.4910    0.4140    0.8050 C   0  0  0  0  0  0  0  0  0  0  0  0
   -0.1630    0.6480    0.6720 C   0  0  0  0  0  0  0  0  0  0  0  0
   -2.2850    1.5000    1.1720 C   0  0  0  0  0  0  0  0  0  0  0  0
   -3.6310    1.2920    1.2900 C   0  0  0  0  0  0  0  0  0  0  0  0
   -4.1400    0.0350    1.0450 C   0  0  0  0  0  0  0  0  0  0  0  0
   -3.3360   -0.9830    0.6970 N   0  0  0  0  0  0  0  0  0  0  0  0
   -3.8950   -2.2290    0.4660 O   0  0  0  0  0  0  0  0  0  0  0  0
   -5.5480   -0.4770    1.0660 C   0  0  0  0  0  0  0  0  0  0  0  0
   -6.0980   -0.2720   -0.3300 C   0  0  0  0  0  0  0  0  0  0  0  0
   -6.5730    1.1310   -0.5060 C   0  0  0  0  0  0  0  0  0  0  0  0
   -5.4980    2.1720   -0.4110 C   0  0  0  0  0  0  0  0  0  0  0  0
   -5.5140    2.8360    0.9510 C   0  0  0  0  0  0  0  0  0  0  0  0
   -4.1990    2.6120    1.6760 C   0  0  0  0  0  0  0  0  0  0  0  0
    7.6250   -2.0970   -1.1270 O   0  0  0  0  0  0  0  0  0  0  0  0
  1  2  1  0
  2  3  2  0
  2 29  1  0
  3  4  1  0
  4  5  2  0
  5  6  1  0
  5 29  1  0
  6  7  2  0
  6  8  1  0
  8  9  1  0
  9 10  2  0
  9 11  1  0
 11 12  1  0
 12 13  2  0
 12 17  1  0
 13 14  1  0
 14 15  2  0
 15 16  1  0
 15 21  1  0
 16 17  2  0
 16 18  1  0
 18 19  2  0
 19 20  1  0
 19 28  1  0
 20 21  2  0
 20 23  1  0
 21 22  1  0
 23 24  1  0
 24 25  1  0
 25 26  1  0
 26 27  1  0
 27 28  1  0
M  CHG  2  21   1  22  -1
M  END
