
     RDKit          3D

 29 31  0  0  0  0  0  0  0  0999 V2000
   -8.5720   -0.3150    2.5510 C   0  0  0  0  0  0  0  0  0  0  0  0
   -7.3670   -0.1170    1.6920 C   0  0  0  0  0  0  0  0  0  0  0  0
   -6.1500   -0.4990    2.1960 C   0  0  0  0  0  0  0  0  0  0  0  0
   -5.0240   -0.3130    1.3940 C   0  0  0  0  0  0  0  0  0  0  0  0
   -5.0630    0.2280    0.1300 C   0  0  0  0  0  0  0  0  0  0  0  0
   -3.9660    0.4400   -0.7220 N   0  0  0  0  0  0  0  0  0  0  0  0
   -2.5990    0.1510   -0.4790 C   0  0  0  0  0  0  0  0  0  0  0  0
   -2.3160   -0.3520    0.6150 O   0  0  0  0  0  0  0  0  0  0  0  0
   -1.5810    0.4060   -1.4080 N   0  0  0  0  0  0  0  0  0  0  0  0
   -0.2110    0.1460   -1.2310 C   0  0  0  0  0  0  0  0  0  0  0  0
    0.4130   -0.2990   -0.1100 C   0  0  0  0  0  0  0  0  0  0  0  0
    1.7850   -0.5320   -0.0720 C   0  0  0  0  0  0  0  0  0  0  0  0
    2.5630   -0.3190   -1.1720 C   0  0  0  0  0  0  0  0  0  0  0  0
    4.0070   -0.5680   -1.1820 C   0  0  0  0  0  0  0  0  0  0  0  0
    4.7090   -0.0120   -2.0580 O   0  0  0  0  0  0  0  0  0  0  0  0
    4.6330   -1.4220   -0.2280 N   0  0  0  0  0  0  0  0  0  0  0  0
    6.0350   -1.7140   -0.1730 C   0  0  0  0  0  0  0  0  0  0  0  0
    6.8730   -0.6590    0.4200 C   0  0  0  0  0  0  0  0  0  0  0  0
    7.4630    0.3500   -0.2920 C   0  0  0  0  0  0  0  0  0  0  0  0
    8.2450    1.3120    0.2970 C   0  0  0  0  0  0  0  0  0  0  0  0
    8.4390    1.2570    1.6410 N   0  0  0  0  0  0  0  0  0  0  0  0
    9.2250    2.2210    2.2340 O   0  0  0  0  0  0  0  0  0  0  0  0
    7.8660    0.2690    2.3700 C   0  0  0  0  0  0  0  0  0  0  0  0
    7.0810   -0.6990    1.7880 C   0  0  0  0  0  0  0  0  0  0  0  0
    1.9740    0.1330   -2.3310 C   0  0  0  0  0  0  0  0  0  0  0  0
    0.6220    0.3560   -2.3480 C   0  0  0  0  0  0  0  0  0  0  0  0
   -6.3290    0.6060   -0.3490 C   0  0  0  0  0  0  0  0  0  0  0  0
   -6.5000    1.2000   -1.6920 C   0  0  0  0  0  0  0  0  0  0  0  0
   -7.4380    0.4240    0.4400 C   0  0  0  0  0  0  0  0  0  0  0  0
  1  2  1  0
  2  3  2  0
  2 29  1  0
  3  4  1  0
  4  5  2  0
  5  6  1  0
  5 27  1  0
  6  7  1  0
  7  8  2  0
  7  9  1  0
  9 10  1  0
 10 11  2  0
 10 26  1  0
 11 12  1  0
 12 13  2  0
 13 14  1  0
 13 25  1  0
 14 15  2  0
 14 16  1  0
 16 17  1  0
 17 18  1  0
 18 19  2  0
 18 24  1  0
 19 20  1  0
 20 21  2  0
 21 22  1  0
 21 23  1  0
 23 24  2  0
 25 26  2  0
 27 28  1  0
 27 29  2  0
M  CHG  2  21   1  22  -1
M  END
