
     RDKit          3D

 31 34  0  0  0  0  0  0  0  0999 V2000
   -4.6530   -3.4140   -2.6590 O   0  0  0  0  0  0  0  0  0  0  0  0
   -3.5970   -2.4950   -2.6680 C   0  0  0  0  0  0  0  0  0  0  0  0
   -4.0720   -1.1130   -2.8220 C   0  0  0  0  0  0  0  0  0  0  0  0
   -3.8780   -0.1390   -1.9680 C   0  0  0  0  0  0  0  0  0  0  0  0
   -4.4260    1.2040   -2.2730 C   0  0  0  0  0  0  0  0  0  0  0  0
   -4.2580    2.2200   -1.4430 C   0  0  0  0  0  0  0  0  0  0  0  0
   -3.5220    2.0580   -0.1870 C   0  0  0  0  0  0  0  0  0  0  0  0
   -3.0130    0.8930    0.1390 C   0  0  0  0  0  0  0  0  0  0  0  0
   -2.2560    0.6960    1.4170 C   0  0  2  0  0  0  0  0  0  0  0  0
   -3.1000   -0.3150    2.1910 C   0  0  0  0  0  0  0  0  0  0  0  0
   -4.3240    0.2200    2.5670 O   0  0  0  0  0  0  0  0  0  0  0  0
   -2.1760    1.9470    2.1960 C   0  0  0  0  0  0  0  0  0  0  0  0
   -1.4510    1.8780    3.5040 C   0  0  0  0  0  0  0  0  0  0  0  0
   -1.9990    0.9950    4.4220 O   0  0  0  0  0  0  0  0  0  0  0  0
   -1.0010    0.0970    1.0680 N   0  0  0  0  0  0  0  0  0  0  0  0
    0.1290    0.9440    0.9520 C   0  0  0  0  0  0  0  0  0  0  0  0
    0.8350    0.7960   -0.3990 C   0  0  1  0  0  0  0  0  0  0  0  0
    2.0260    1.7230   -0.3690 C   0  0  0  0  0  0  0  0  0  0  0  0
    3.0630    1.3540    0.6510 C   0  0  0  0  0  0  0  0  0  0  0  0
    3.3510   -0.1140    0.6220 C   0  0  2  0  0  0  0  0  0  0  0  0
    4.7240   -0.3680    0.6680 O   0  0  0  0  0  0  0  0  0  0  0  0
    5.4460   -1.1320   -0.2080 C   0  0  0  0  0  0  0  0  0  0  0  0
    6.8230   -1.3220   -0.0540 C   0  0  0  0  0  0  0  0  0  0  0  0
    7.5040   -2.1030   -0.9680 C   0  0  0  0  0  0  0  0  0  0  0  0
    6.8400   -2.6970   -2.0300 C   0  0  0  0  0  0  0  0  0  0  0  0
    5.4840   -2.4970   -2.1630 C   0  0  0  0  0  0  0  0  0  0  0  0
    4.7810   -1.7160   -1.2570 C   0  0  0  0  0  0  0  0  0  0  0  0
    3.3500   -1.4970   -1.3840 C   0  0  0  0  0  0  0  0  0  0  0  0
    2.6610   -0.7630   -0.5360 C   0  0  0  0  0  0  0  0  0  0  0  0
    1.2960   -0.5230   -0.6180 O   0  0  0  0  0  0  0  0  0  0  0  0
   -3.1750   -0.2480   -0.7440 N   0  0  0  0  0  0  0  0  0  0  0  0
  1  2  1  0
  2  3  1  0
  3  4  2  3
  4  5  1  0
  4 31  1  0
  5  6  2  0
  6  7  1  0
  7  8  2  0
  8  9  1  0
  8 31  1  0
  9 10  1  1
  9 12  1  0
  9 15  1  0
 10 11  1  0
 12 13  1  0
 13 14  1  0
 15 16  1  0
 17 16  1  1
 17 18  1  0
 17 30  1  0
 18 19  1  0
 20 19  1  6
 20 21  1  0
 20 29  1  0
 21 22  1  0
 22 23  2  0
 22 27  1  0
 23 24  1  0
 24 25  2  0
 25 26  1  0
 26 27  2  0
 27 28  1  0
 28 29  2  0
 29 30  1  0
M  CHG  1  15   1
M  END
