
     RDKit          3D

 20 20  0  0  0  0  0  0  0  0999 V2000
   -6.2590    1.4070    0.4560 O   0  0  0  0  0  0  0  0  0  0  0  0
   -4.8770    1.5310    0.2910 C   0  0  0  0  0  0  0  0  0  0  0  0
   -4.4470    0.5990   -0.8220 C   0  0  2  0  0  0  0  0  0  0  0  0
   -4.7450   -0.7210   -0.5430 O   0  0  0  0  0  0  0  0  0  0  0  0
   -3.6770   -1.1880    0.2540 C   0  0  0  0  0  0  0  0  0  0  0  0
   -2.5430   -0.2570   -0.0150 C   0  0  1  0  0  0  0  0  0  0  0  0
   -1.3290   -0.9910   -0.6000 C   0  0  1  0  0  0  0  0  0  0  0  0
   -1.7990   -1.6500   -1.7350 O   0  0  0  0  0  0  0  0  0  0  0  0
   -0.2620   -0.0150   -1.0010 C   0  0  0  0  0  0  0  0  0  0  0  0
    0.3020    0.7070   -0.0280 O   0  0  0  0  0  0  0  0  0  0  0  0
    0.9530    0.1440    1.0030 C   0  0  0  0  0  0  0  0  0  0  0  0
    2.1470   -0.7050    0.7130 C   0  0  1  0  0  0  0  0  0  0  0  0
    1.9030   -1.8070   -0.0860 O   0  0  0  0  0  0  0  0  0  0  0  0
    3.3170    0.0340    0.1660 C   0  0  1  0  0  0  0  0  0  0  0  0
    3.0980    0.4660   -1.1470 O   0  0  0  0  0  0  0  0  0  0  0  0
    3.6880    1.2670    0.9510 C   0  0  0  0  0  0  0  0  0  0  0  0
    4.8530    1.7800    0.3470 O   0  0  0  0  0  0  0  0  0  0  0  0
    4.5480   -0.8460    0.1400 C   0  0  0  0  0  0  0  0  0  0  0  0
    4.8720   -1.3440    1.3960 O   0  0  0  0  0  0  0  0  0  0  0  0
   -3.0640    0.6460   -0.9180 O   0  0  0  0  0  0  0  0  0  0  0  0
  1  2  1  0
  3  2  1  1
  3  4  1  0
  3 20  1  0
  4  5  1  0
  6  5  1  6
  6  7  1  0
  6 20  1  0
  7  8  1  6
  7  9  1  0
  9 10  1  0
 10 11  1  0
 11 12  1  0
 12 13  1  6
 12 14  1  0
 14 15  1  6
 14 16  1  0
 14 18  1  0
 16 17  1  0
 18 19  1  0
M  END
