
     RDKit          3D

 14 15  0  0  0  0  0  0  0  0999 V2000
   -3.7260    0.2740   -0.1490 O   0  0  0  0  0  0  0  0  0  0  0  0
   -2.4720    0.2040   -0.0980 C   0  0  0  0  0  0  0  0  0  0  0  0
   -1.6290    1.2470   -0.0380 N   0  0  0  0  0  0  0  0  0  0  0  0
   -0.3660    0.7310    0.0020 C   0  0  0  0  0  0  0  0  0  0  0  0
    0.8980    1.2940    0.0680 C   0  0  0  0  0  0  0  0  0  0  0  0
    0.9840    3.2150    0.1170 Br  0  0  0  0  0  0  0  0  0  0  0  0
    2.0310    0.5200    0.0970 C   0  0  0  0  0  0  0  0  0  0  0  0
    3.7500    1.3310    0.1880 Br  0  0  0  0  0  0  0  0  0  0  0  0
    1.9430   -0.8460    0.0610 C   0  0  0  0  0  0  0  0  0  0  0  0
    3.4860   -1.9750    0.0980 Br  0  0  0  0  0  0  0  0  0  0  0  0
    0.7020   -1.4290   -0.0050 C   0  0  0  0  0  0  0  0  0  0  0  0
    0.5430   -3.3410   -0.0570 Br  0  0  0  0  0  0  0  0  0  0  0  0
   -0.4400   -0.6540   -0.0340 C   0  0  0  0  0  0  0  0  0  0  0  0
   -1.7560   -0.9340   -0.0950 N   0  0  0  0  0  0  0  0  0  0  0  0
  1  2  2  0
  2  3  1  0
  2 14  1  0
  3  4  1  0
  4  5  2  0
  4 13  1  0
  5  6  1  0
  5  7  1  0
  7  8  1  0
  7  9  2  0
  9 10  1  0
  9 11  1  0
 11 12  1  0
 11 13  2  0
 13 14  1  0
M  END
