
     RDKit          3D

 15 16  0  0  0  0  0  0  0  0999 V2000
   -2.8150    0.1520   -1.3320 C   0  0  0  0  0  0  0  0  0  0  0  0
   -2.6780    0.0080    0.1590 C   0  0  2  0  0  0  0  0  0  0  0  0
   -2.9960   -1.3880    0.6130 C   0  0  0  0  0  0  0  0  0  0  0  0
   -3.6250    0.8640    0.7650 O   0  0  0  0  0  0  0  0  0  0  0  0
   -1.3230    0.4790    0.5820 C   0  0  2  0  0  0  0  0  0  0  0  0
   -1.1580    1.8420    0.1330 N   0  0  0  0  0  0  0  0  0  0  0  0
   -0.2610   -0.4250    0.0750 C   0  0  0  0  0  0  0  0  0  0  0  0
   -0.4460   -1.6500   -0.4480 N   0  0  0  0  0  0  0  0  0  0  0  0
    0.7170   -2.1370   -0.7810 N   0  0  0  0  0  0  0  0  0  0  0  0
    1.6720   -1.2200   -0.4720 C   0  0  0  0  0  0  0  0  0  0  0  0
    1.0630   -0.1470    0.0640 N   0  0  0  0  0  0  0  0  0  0  0  0
    1.7630    1.0260    0.5110 C   0  0  0  0  0  0  0  0  0  0  0  0
    3.2560    0.7130    0.6760 C   0  0  0  0  0  0  0  0  0  0  0  0
    3.6810    0.1010   -0.6650 C   0  0  0  0  0  0  0  0  0  0  0  0
    3.1430   -1.3150   -0.6630 C   0  0  0  0  0  0  0  0  0  0  0  0
  2  1  1  6
  2  3  1  0
  2  4  1  0
  2  5  1  0
  5  6  1  6
  5  7  1  0
  7  8  2  0
  7 11  1  0
  8  9  1  0
  9 10  2  0
 10 11  1  0
 10 15  1  0
 11 12  1  0
 12 13  1  0
 13 14  1  0
 14 15  1  0
M  END
