
     RDKit          3D

 20 19  0  0  0  0  0  0  0  0999 V2000
    5.1990    0.3420    0.7810 N   0  0  0  0  0  0  0  0  0  0  0  0
    3.9520   -0.0660    0.5620 O   0  0  0  0  0  0  0  0  0  0  0  0
    3.6930   -0.2730   -0.7900 C   0  0  0  0  0  0  0  0  0  0  0  0
    2.1990   -0.7510   -0.9330 C   0  0  1  0  0  0  0  0  0  0  0  0
    2.2880   -1.9410   -0.1380 O   0  0  0  0  0  0  0  0  0  0  0  0
    1.3780    0.2910   -0.3270 C   0  0  0  0  0  0  0  0  0  0  0  0
   -0.0890    0.2960   -0.2920 C   0  0  2  0  0  0  0  0  0  0  0  0
   -0.4400    1.4600    0.4000 O   0  0  0  0  0  0  0  0  0  0  0  0
   -0.8250    2.5100   -0.3800 C   0  0  0  0  0  0  0  0  0  0  0  0
   -1.1680    3.7270    0.4880 C   0  0  0  0  0  0  0  0  0  0  0  0
   -0.0740    4.1240    1.2390 O   0  0  0  0  0  0  0  0  0  0  0  0
   -0.8900   -0.8600    0.1330 C   0  0  2  0  0  0  0  0  0  0  0  0
   -0.5890   -1.3600    1.5120 C   0  0  0  0  0  0  0  0  0  0  0  0
   -1.2980   -2.4810    1.9060 O   0  0  0  0  0  0  0  0  0  0  0  0
   -1.1850   -1.8870   -0.9090 C   0  0  0  0  0  0  0  0  0  0  0  0
   -0.1480   -2.5030   -1.5350 O   0  0  0  0  0  0  0  0  0  0  0  0
   -2.3060   -0.1910    0.3300 C   0  0  2  0  0  0  0  0  0  0  0  0
   -2.2490    0.7950    1.2740 O   0  0  0  0  0  0  0  0  0  0  0  0
   -3.3270   -1.1930    0.7420 C   0  0  0  0  0  0  0  0  0  0  0  0
   -4.6130   -0.5640    0.8090 O   0  0  0  0  0  0  0  0  0  0  0  0
  1  2  1  0
  2  3  1  0
  3  4  1  0
  4  5  1  1
  4  6  1  0
  7  6  1  1
  7  8  1  0
  7 12  1  0
  8  9  1  0
  9 10  1  0
 10 11  1  0
 12 13  1  1
 12 15  1  0
 12 17  1  0
 13 14  1  0
 15 16  1  0
 17 18  1  1
 17 19  1  0
 19 20  1  0
M  END
