
     RDKit          3D

 15 16  0  0  0  0  0  0  0  0999 V2000
   -1.2780    1.6570    0.7540 C   0  0  0  0  0  0  0  0  0  0  0  0
   -1.6760    0.3230    0.2910 C   0  0  0  0  0  0  0  0  0  0  0  0
   -2.9990   -0.1210    0.4320 C   0  0  0  0  0  0  0  0  0  0  0  0
   -3.3280   -1.3830   -0.0180 C   0  0  0  0  0  0  0  0  0  0  0  0
   -4.5170   -1.7720    0.1130 O   0  0  0  0  0  0  0  0  0  0  0  0
   -2.3300   -2.1400   -0.5850 C   0  0  0  0  0  0  0  0  0  0  0  0
   -1.0520   -1.6600   -0.7000 N   0  0  0  0  0  0  0  0  0  0  0  0
   -0.7390   -0.4540   -0.2690 N   0  0  0  0  0  0  0  0  0  0  0  0
    0.6010    0.0380   -0.3940 C   0  0  0  0  0  0  0  0  0  0  0  0
    0.8830    1.1740   -1.1060 C   0  0  0  0  0  0  0  0  0  0  0  0
    2.1890    1.5890   -1.1860 C   0  0  0  0  0  0  0  0  0  0  0  0
    3.1670    0.9030   -0.5830 N   0  0  0  0  0  0  0  0  0  0  0  0
    2.9490   -0.2080    0.1220 C   0  0  0  0  0  0  0  0  0  0  0  0
    3.9480   -0.9570    0.7690 N   0  0  0  0  0  0  0  0  0  0  0  0
    1.6400   -0.6330    0.2080 C   0  0  0  0  0  0  0  0  0  0  0  0
  1  2  1  0
  2  3  2  0
  2  8  1  0
  3  4  1  0
  4  5  2  0
  4  6  1  0
  6  7  2  0
  7  8  1  0
  8  9  1  0
  9 10  2  0
  9 15  1  0
 10 11  1  0
 11 12  2  0
 12 13  1  0
 13 14  1  0
 13 15  2  0
M  END
