
     RDKit          3D

 25 26  0  0  0  0  0  0  0  0999 V2000
    0.3820    4.7570   -0.0800 C   0  0  0  0  0  0  0  0  0  0  0  0
   -0.0700    3.6720   -0.6860 C   0  0  0  0  0  0  0  0  0  0  0  0
    0.6790    2.4310   -0.6760 C   0  0  0  0  0  0  0  0  0  0  0  0
    0.0590    1.2880    0.0800 C   0  0  0  0  0  0  0  0  0  0  0  0
   -1.0540    1.5210    0.7700 C   0  0  0  0  0  0  0  0  0  0  0  0
   -1.5480    2.8440    0.7170 O   0  0  0  0  0  0  0  0  0  0  0  0
   -1.8410    0.6120    1.5840 C   0  0  0  0  0  0  0  0  0  0  0  0
   -2.0320    1.0890    2.7980 O   0  0  0  0  0  0  0  0  0  0  0  0
   -2.3820   -0.5930    1.3050 O   0  0  0  0  0  0  0  0  0  0  0  0
   -3.4630   -0.9810    0.4920 C   0  0  0  0  0  0  0  0  0  0  0  0
   -3.8240   -0.0100   -0.5690 C   0  0  0  0  0  0  0  0  0  0  0  0
   -3.9400   -0.5260   -1.8330 O   0  0  0  0  0  0  0  0  0  0  0  0
   -2.8850   -1.2760   -2.2790 C   0  0  0  0  0  0  0  0  0  0  0  0
   -1.5350   -0.6040   -2.0330 C   0  0  0  0  0  0  0  0  0  0  0  0
   -0.8570   -1.3810   -1.0940 O   0  0  0  0  0  0  0  0  0  0  0  0
    0.3660   -1.1360   -0.5050 C   0  0  0  0  0  0  0  0  0  0  0  0
    0.7850    0.0070    0.0050 C   0  0  0  0  0  0  0  0  0  0  0  0
    2.2030   -0.1500    0.4710 C   0  0  0  0  0  0  0  0  0  0  0  0
    3.1000    0.6790    0.6370 O   0  0  0  0  0  0  0  0  0  0  0  0
    2.3370   -1.6040    0.7120 C   0  0  2  0  0  0  0  0  0  0  0  0
    3.6700   -2.0840    0.4910 N   0  0  0  0  0  0  0  0  0  0  0  0
    4.3730   -2.8040    1.4860 C   0  0  0  0  0  0  0  0  0  0  0  0
    5.6910   -3.2740    1.2560 N   0  0  0  0  0  0  0  0  0  0  0  0
    3.8200   -3.0260    2.5790 O   0  0  0  0  0  0  0  0  0  0  0  0
    1.4180   -2.0890   -0.3320 N   0  0  0  0  0  0  0  0  0  0  0  0
  1  2  2  0
  2  3  1  0
  3  4  1  0
  4  5  2  0
  4 17  1  0
  5  6  1  0
  5  7  1  0
  7  8  2  0
  7  9  1  0
  9 10  1  0
 10 11  1  0
 11 12  1  0
 12 13  1  0
 13 14  1  0
 14 15  1  0
 15 16  1  0
 16 17  2  0
 16 25  1  0
 17 18  1  0
 18 19  2  0
 18 20  1  0
 20 21  1  6
 20 25  1  0
 21 22  1  0
 22 23  1  0
 22 24  2  0
M  END
