
     RDKit          3D

 25 26  0  0  0  0  0  0  0  0999 V2000
    5.5190    1.3800    2.4130 C   0  0  0  0  0  0  0  0  0  0  0  0
    4.7030    1.3590    1.1430 C   0  0  0  0  0  0  0  0  0  0  0  0
    3.3260    1.9330    1.4930 C   0  0  2  0  0  0  0  0  0  0  0  0
    2.7080    1.1670    2.4730 O   0  0  0  0  0  0  0  0  0  0  0  0
    2.5120    1.8370    0.2610 C   0  0  0  0  0  0  0  0  0  0  0  0
    2.8820    2.4570   -0.7730 O   0  0  0  0  0  0  0  0  0  0  0  0
    1.3240    1.0650    0.2070 N   0  0  0  0  0  0  0  0  0  0  0  0
    0.5850    1.0210   -1.0300 C   0  0  0  0  0  0  0  0  0  0  0  0
   -0.6400    0.1490   -0.8740 C   0  0  0  0  0  0  0  0  0  0  0  0
   -0.8270   -0.9190   -1.6070 C   0  0  0  0  0  0  0  0  0  0  0  0
    0.2610   -1.2030   -2.6040 C   0  0  0  0  0  0  0  0  0  0  0  0
   -1.9980   -1.7670   -1.4690 C   0  0  2  0  0  0  0  0  0  0  0  0
   -2.9360   -1.3050   -0.4350 C   0  0  0  0  0  0  0  0  0  0  0  0
   -2.7070   -0.2290    0.2750 C   0  0  0  0  0  0  0  0  0  0  0  0
   -3.6740    0.2130    1.3120 C   0  0  0  0  0  0  0  0  0  0  0  0
   -4.7150   -0.4550    1.5040 O   0  0  0  0  0  0  0  0  0  0  0  0
   -3.4550    1.3370    2.0700 O   0  0  0  0  0  0  0  0  0  0  0  0
   -4.3520    1.7950    3.0710 C   0  0  0  0  0  0  0  0  0  0  0  0
   -1.5710    0.5360    0.0950 O   0  0  0  0  0  0  0  0  0  0  0  0
   -1.6500   -3.1710   -1.2690 N   0  0  0  0  0  0  0  0  0  0  0  0
   -1.6370   -3.7550   -2.5610 C   0  0  0  0  0  0  0  0  0  0  0  0
   -1.0820   -4.8610   -2.8770 O   0  0  0  0  0  0  0  0  0  0  0  0
   -2.3410   -2.9250   -3.4810 N   0  0  0  0  0  0  0  0  0  0  0  0
   -2.7880   -1.8220   -2.7380 C   0  0  0  0  0  0  0  0  0  0  0  0
   -3.6790   -1.0160   -3.0520 O   0  0  0  0  0  0  0  0  0  0  0  0
  1  2  1  0
  2  3  1  0
  3  4  1  1
  3  5  1  0
  5  6  2  0
  5  7  1  0
  7  8  1  0
  8  9  1  0
  9 10  2  0
  9 19  1  0
 10 11  1  0
 10 12  1  0
 12 13  1  0
 12 20  1  1
 12 24  1  0
 13 14  2  0
 14 15  1  0
 14 19  1  0
 15 16  2  0
 15 17  1  0
 17 18  1  0
 20 21  1  0
 21 22  2  0
 21 23  1  0
 23 24  1  0
 24 25  2  0
M  END
