
     RDKit          3D

 25 26  0  0  0  0  0  0  0  0999 V2000
    2.3100    4.3840    0.0480 C   0  0  0  0  0  0  0  0  0  0  0  0
    1.7940    3.1420    0.5990 O   0  0  0  0  0  0  0  0  0  0  0  0
    2.1610    1.9310    0.0180 C   0  0  0  0  0  0  0  0  0  0  0  0
    2.9210    1.9690   -0.9070 O   0  0  0  0  0  0  0  0  0  0  0  0
    1.4620    0.7110    0.6060 C   0  0  1  0  0  0  0  0  0  0  0  0
    0.3170    0.5700   -0.4070 N   0  0  0  0  0  0  0  0  0  0  0  0
   -0.9510    0.2100    0.2310 C   0  0  0  0  0  0  0  0  0  0  0  0
   -1.0750   -0.0730    1.3340 O   0  0  0  0  0  0  0  0  0  0  0  0
   -2.1070    0.2350   -0.6610 N   0  0  0  0  0  0  0  0  0  0  0  0
   -3.3550    0.2200    0.0400 C   0  0  0  0  0  0  0  0  0  0  0  0
   -3.5390    0.8010    1.2090 C   0  0  0  0  0  0  0  0  0  0  0  0
   -4.8040    0.5650    1.8800 C   0  0  0  0  0  0  0  0  0  0  0  0
   -5.8740    0.6350    0.9600 O   0  0  0  0  0  0  0  0  0  0  0  0
   -5.7970   -0.0080   -0.3440 C   0  0  0  0  0  0  0  0  0  0  0  0
   -4.4680   -0.1910   -0.6770 C   0  0  0  0  0  0  0  0  0  0  0  0
   -4.3380   -1.1670   -1.8610 C   0  0  0  0  0  0  0  0  0  0  0  0
   -4.5220   -1.0070   -3.0030 O   0  0  0  0  0  0  0  0  0  0  0  0
   -3.9460   -2.5000   -1.4060 O   0  0  0  0  0  0  0  0  0  0  0  0
    2.3060   -0.4720    0.5980 C   0  0  2  0  0  0  0  0  0  0  0  0
    3.7290   -0.3280    0.1580 C   0  0  0  0  0  0  0  0  0  0  0  0
    4.4700   -1.6100    0.5380 C   0  0  0  0  0  0  0  0  0  0  0  0
    4.0170   -2.5720   -0.6070 C   0  0  0  0  0  0  0  0  0  0  0  0
    2.6340   -2.8410   -0.3340 C   0  0  0  0  0  0  0  0  0  0  0  0
    2.1130   -3.8460   -0.5130 O   0  0  0  0  0  0  0  0  0  0  0  0
    1.7910   -1.7840    0.2000 N   0  0  0  0  0  0  0  0  0  0  0  0
  1  2  1  0
  2  3  1  0
  3  4  2  0
  3  5  1  0
  5  6  1  6
  5 19  1  0
  6  7  1  0
  7  8  2  0
  7  9  1  0
  9 10  1  0
 10 11  2  0
 10 15  1  0
 11 12  1  0
 12 13  1  0
 13 14  1  0
 14 15  2  0
 15 16  1  0
 16 17  2  0
 16 18  1  0
 19 20  1  6
 19 25  1  0
 20 21  1  0
 21 22  1  0
 22 23  1  0
 23 24  2  0
 23 25  1  0
M  END
