
     RDKit          3D

 25 26  0  0  0  0  0  0  0  0999 V2000
    6.9320    1.5220   -1.8360 C   0  0  0  0  0  0  0  0  0  0  0  0
    6.0720    0.8670   -0.9450 O   0  0  0  0  0  0  0  0  0  0  0  0
    6.4530    0.5650    0.3370 C   0  0  0  0  0  0  0  0  0  0  0  0
    7.6640    0.9400    0.6320 O   0  0  0  0  0  0  0  0  0  0  0  0
    5.6580   -0.0960    1.3190 C   0  0  0  0  0  0  0  0  0  0  0  0
    4.4660   -0.5430    1.2500 C   0  0  0  0  0  0  0  0  0  0  0  0
    3.9520   -1.1700    2.4490 O   0  0  0  0  0  0  0  0  0  0  0  0
    3.5040   -0.5390    0.1600 C   0  0  0  0  0  0  0  0  0  0  0  0
    2.2870   -1.0590    0.2690 C   0  0  0  0  0  0  0  0  0  0  0  0
    1.2780   -1.0790   -0.8060 C   0  0  1  0  0  0  0  0  0  0  0  0
    0.0730   -0.3580   -0.3760 N   0  0  0  0  0  0  0  0  0  0  0  0
   -1.2040   -0.9720   -0.3340 C   0  0  0  0  0  0  0  0  0  0  0  0
   -1.2560   -2.1960   -0.6920 O   0  0  0  0  0  0  0  0  0  0  0  0
   -2.3820   -0.2900    0.0790 N   0  0  0  0  0  0  0  0  0  0  0  0
   -3.6630   -0.9710    0.1020 C   0  0  1  0  0  0  0  0  0  0  0  0
   -4.1890   -0.9720    1.5070 C   0  0  0  0  0  0  0  0  0  0  0  0
   -4.8320    0.3460    1.8310 C   0  0  0  0  0  0  0  0  0  0  0  0
   -4.4820    1.3680    0.9800 O   0  0  0  0  0  0  0  0  0  0  0  0
   -4.7950    1.1390   -0.3360 C   0  0  2  0  0  0  0  0  0  0  0  0
   -6.1550    1.6850   -0.7330 C   0  0  0  0  0  0  0  0  0  0  0  0
   -4.6890   -0.2830   -0.7720 C   0  0  0  0  0  0  0  0  0  0  0  0
    1.6910   -0.4790   -2.0430 N   0  0  0  0  0  0  0  0  0  0  0  0
    2.9840    0.0710   -2.1510 C   0  0  0  0  0  0  0  0  0  0  0  0
    3.3220    0.5920   -3.2480 O   0  0  0  0  0  0  0  0  0  0  0  0
    3.8220    0.0150   -1.0540 O   0  0  0  0  0  0  0  0  0  0  0  0
  1  2  1  0
  2  3  1  0
  3  4  2  0
  3  5  1  0
  5  6  2  3
  6  7  1  0
  6  8  1  0
  8  9  2  0
  8 25  1  0
  9 10  1  0
 10 11  1  1
 10 22  1  0
 11 12  1  0
 12 13  2  0
 12 14  1  0
 15 14  1  1
 15 16  1  0
 15 21  1  0
 16 17  1  0
 17 18  1  0
 18 19  1  0
 19 20  1  1
 19 21  1  0
 22 23  1  0
 23 24  2  0
 23 25  1  0
M  END
