
     RDKit          3D

 25 26  0  0  0  0  0  0  0  0999 V2000
   -3.2790   -0.5990    2.7290 C   0  0  0  0  0  0  0  0  0  0  0  0
   -2.6390   -0.2710    1.4530 C   0  0  0  0  0  0  0  0  0  0  0  0
   -3.1480   -0.5910    0.3000 C   0  0  0  0  0  0  0  0  0  0  0  0
   -4.4090   -1.3080    0.2270 C   0  0  0  0  0  0  0  0  0  0  0  0
   -5.0560   -1.6460    1.2720 N   0  0  0  0  0  0  0  0  0  0  0  0
   -4.9720   -1.6620   -1.0160 O   0  0  0  0  0  0  0  0  0  0  0  0
   -2.4860   -0.2510   -0.9700 C   0  0  0  0  0  0  0  0  0  0  0  0
   -3.0400   -0.5950   -2.0430 O   0  0  0  0  0  0  0  0  0  0  0  0
   -1.2670    0.4370   -1.0710 N   0  0  0  0  0  0  0  0  0  0  0  0
   -0.6860    0.7310   -2.3390 C   0  0  1  0  0  0  0  0  0  0  0  0
   -0.4120    2.2080   -2.5470 C   0  0  0  0  0  0  0  0  0  0  0  0
    0.5970    2.2160   -3.5210 O   0  0  0  0  0  0  0  0  0  0  0  0
    1.2180    0.9820   -3.6280 C   0  0  0  0  0  0  0  0  0  0  0  0
    2.0500    0.6290   -4.5270 O   0  0  0  0  0  0  0  0  0  0  0  0
    0.7220    0.1580   -2.4940 C   0  0  1  0  0  0  0  0  0  0  0  0
    1.5470    0.5210   -1.3260 N   0  0  0  0  0  0  0  0  0  0  0  0
    2.2160   -0.4860   -0.6230 C   0  0  0  0  0  0  0  0  0  0  0  0
    2.0340   -1.6780   -1.0870 O   0  0  0  0  0  0  0  0  0  0  0  0
    3.0630   -0.3020    0.5400 C   0  0  0  0  0  0  0  0  0  0  0  0
    3.6290   -1.3690    1.0960 C   0  0  0  0  0  0  0  0  0  0  0  0
    4.5100   -1.3250    2.2780 C   0  0  0  0  0  0  0  0  0  0  0  0
    4.7070   -0.0400    2.7800 O   0  0  0  0  0  0  0  0  0  0  0  0
    4.1360    1.0720    2.2260 C   0  0  0  0  0  0  0  0  0  0  0  0
    3.3460    0.9720    1.1550 C   0  0  0  0  0  0  0  0  0  0  0  0
    2.8250    2.1630    0.6830 O   0  0  0  0  0  0  0  0  0  0  0  0
  1  2  1  0
  2  3  2  3
  3  4  1  0
  3  7  1  0
  4  5  2  0
  4  6  1  0
  7  8  2  0
  7  9  1  0
 10  9  1  1
 10 11  1  0
 10 15  1  0
 11 12  1  0
 12 13  1  0
 13 14  2  0
 13 15  1  0
 15 16  1  1
 16 17  1  0
 17 18  2  0
 17 19  1  0
 19 20  2  0
 19 24  1  0
 20 21  1  0
 21 22  1  0
 22 23  1  0
 23 24  2  0
 24 25  1  0
M  END
