
     RDKit          3D

 25 26  0  0  0  0  0  0  0  0999 V2000
   -6.1770    2.4930   -0.6510 C   0  0  0  0  0  0  0  0  0  0  0  0
   -5.0610    1.5570   -0.2630 C   0  0  1  0  0  0  0  0  0  0  0  0
   -4.6060    1.8990    0.9950 O   0  0  0  0  0  0  0  0  0  0  0  0
   -5.5680    0.1040   -0.2170 C   0  0  0  0  0  0  0  0  0  0  0  0
   -4.4300   -0.7280    0.2940 C   0  0  0  0  0  0  0  0  0  0  0  0
   -3.4070   -0.8610   -0.8510 C   0  0  2  0  0  0  0  0  0  0  0  0
   -2.0610   -0.8330   -0.1870 C   0  0  0  0  0  0  0  0  0  0  0  0
   -1.5800    0.2730    0.1560 O   0  0  0  0  0  0  0  0  0  0  0  0
   -1.3750   -1.9910    0.0380 O   0  0  0  0  0  0  0  0  0  0  0  0
   -0.1370   -2.0800    0.6450 C   0  0  0  0  0  0  0  0  0  0  0  0
    0.8960   -1.2570    0.0180 C   0  0  0  0  0  0  0  0  0  0  0  0
    1.0060   -0.4630   -0.7930 O   0  0  0  0  0  0  0  0  0  0  0  0
    2.4250   -1.6680    0.7820 N   0  0  0  0  0  0  0  0  0  0  0  0
    3.2140   -0.7670    0.0360 C   0  0  0  0  0  0  0  0  0  0  0  0
    2.9700    0.0920   -0.7370 O   0  0  0  0  0  0  0  0  0  0  0  0
    4.6320   -1.0450    0.3760 N   0  0  0  0  0  0  0  0  0  0  0  0
    5.7280   -0.3630   -0.1200 C   0  0  0  0  0  0  0  0  0  0  0  0
    5.6620    0.7000   -0.8590 C   0  0  0  0  0  0  0  0  0  0  0  0
    6.8480    1.4070   -1.3750 C   0  0  0  0  0  0  0  0  0  0  0  0
    8.0460    0.7960   -1.0550 O   0  0  0  0  0  0  0  0  0  0  0  0
    8.1300   -0.3360   -0.2680 C   0  0  0  0  0  0  0  0  0  0  0  0
    7.0730   -0.9180    0.1940 C   0  0  0  0  0  0  0  0  0  0  0  0
   -3.4930    0.2940   -1.7130 N   0  0  0  0  0  0  0  0  0  0  0  0
   -3.9780    1.5370   -1.2750 C   0  0  0  0  0  0  0  0  0  0  0  0
   -3.4930    2.6090   -1.7390 O   0  0  0  0  0  0  0  0  0  0  0  0
  2  1  1  6
  2  3  1  0
  2  4  1  0
  2 24  1  0
  4  5  1  0
  5  6  1  0
  6  7  1  1
  6 23  1  0
  7  8  2  0
  7  9  1  0
  9 10  1  0
 10 11  1  0
 11 12  2  0
 11 13  1  0
 13 14  1  0
 14 15  2  0
 14 16  1  0
 16 17  1  0
 17 18  2  0
 17 22  1  0
 18 19  1  0
 19 20  1  0
 20 21  1  0
 21 22  2  0
 23 24  1  0
 24 25  2  0
M  END
