
     RDKit          3D

 25 26  0  0  0  0  0  0  0  0999 V2000
   -6.3620   -1.6480    0.0040 C   0  0  0  0  0  0  0  0  0  0  0  0
   -6.1830   -0.4730    0.6850 O   0  0  0  0  0  0  0  0  0  0  0  0
   -4.9000    0.0020    0.6930 C   0  0  0  0  0  0  0  0  0  0  0  0
   -4.4730    0.2610   -0.7600 C   0  0  2  0  0  0  0  0  0  0  0  0
   -3.2100    0.8160   -0.9030 N   0  0  0  0  0  0  0  0  0  0  0  0
   -1.9690    0.4390   -0.1710 C   0  0  0  0  0  0  0  0  0  0  0  0
   -2.0650   -0.4260    0.6650 O   0  0  0  0  0  0  0  0  0  0  0  0
   -0.9460    1.2400   -0.6560 N   0  0  0  0  0  0  0  0  0  0  0  0
    0.2830    0.6310    0.4180 C   0  0  0  0  0  0  0  0  0  0  0  0
   -0.0870   -0.1140    1.1960 O   0  0  0  0  0  0  0  0  0  0  0  0
    1.5630    1.2040    0.0930 C   0  0  0  0  0  0  0  0  0  0  0  0
    2.5540    0.6490    1.1330 C   0  0  1  0  0  0  0  0  0  0  0  0
    2.5710   -0.8530    1.0840 C   0  0  0  0  0  0  0  0  0  0  0  0
    4.0150   -1.2090    1.1020 C   0  0  0  0  0  0  0  0  0  0  0  0
    4.7270   -0.0050    0.6500 C   0  0  0  0  0  0  0  0  0  0  0  0
    6.0110    0.0370    0.2620 C   0  0  0  0  0  0  0  0  0  0  0  0
    6.8120    1.0560   -0.1770 O   0  0  0  0  0  0  0  0  0  0  0  0
    8.0940    0.6050   -0.4630 C   0  0  0  0  0  0  0  0  0  0  0  0
    8.1770   -0.6770   -0.2320 C   0  0  0  0  0  0  0  0  0  0  0  0
    6.8930   -1.1530    0.2430 C   0  0  0  0  0  0  0  0  0  0  0  0
    6.5510   -2.3350    0.5830 O   0  0  0  0  0  0  0  0  0  0  0  0
    3.8390    1.0470    0.7000 O   0  0  0  0  0  0  0  0  0  0  0  0
   -5.4900    0.9970   -1.5200 C   0  0  0  0  0  0  0  0  0  0  0  0
   -6.8310    1.1550   -1.0290 N   0  0  0  0  0  0  0  0  0  0  0  0
   -5.2750    1.5570   -2.6480 O   0  0  0  0  0  0  0  0  0  0  0  0
  1  2  1  0
  2  3  1  0
  4  3  1  1
  4  5  1  0
  4 23  1  0
  5  6  1  0
  6  7  2  0
  6  8  1  0
  8  9  1  0
  9 10  2  0
  9 11  1  0
 12 11  1  6
 12 13  1  0
 12 22  1  0
 13 14  1  0
 14 15  1  0
 15 16  2  3
 15 22  1  0
 16 17  1  0
 16 20  1  0
 17 18  1  0
 18 19  2  0
 19 20  1  0
 20 21  2  0
 23 24  1  0
 23 25  2  0
M  END
