
     RDKit          3D

 14 14  0  0  0  0  0  0  0  0999 V2000
    4.5790    1.8020    0.1210 N   0  0  0  0  0  0  0  0  0  0  0  0
    3.7410    0.8490    0.2280 C   0  0  0  0  0  0  0  0  0  0  0  0
    4.3830   -0.9340    0.4210 Br  0  0  0  0  0  0  0  0  0  0  0  0
    1.9780    1.1680    0.1970 S   0  0  0  0  0  0  0  0  0  0  0  0
    1.0710   -0.3520    0.3660 C   0  0  0  0  0  0  0  0  0  0  0  0
   -0.2400   -0.3480    0.3590 C   0  0  0  0  0  0  0  0  0  0  0  0
   -0.9510    0.8750    0.2180 N   0  0  0  0  0  0  0  0  0  0  0  0
   -2.3930    0.8180    0.2180 C   0  0  0  0  0  0  0  0  0  0  0  0
   -3.3870    2.4340    0.0300 Br  0  0  0  0  0  0  0  0  0  0  0  0
   -3.0260   -0.3340    0.3460 C   0  0  0  0  0  0  0  0  0  0  0  0
   -4.9400   -0.2860    0.3320 Br  0  0  0  0  0  0  0  0  0  0  0  0
   -2.3160   -1.6120    0.4940 C   0  0  0  0  0  0  0  0  0  0  0  0
   -0.9960   -1.5880    0.4970 C   0  0  0  0  0  0  0  0  0  0  0  0
   -0.0820   -3.2640    0.6910 Br  0  0  0  0  0  0  0  0  0  0  0  0
  1  2  2  0
  2  3  1  0
  2  4  1  0
  4  5  1  0
  5  6  2  3
  6  7  1  0
  6 13  1  0
  7  8  1  0
  8  9  1  0
  8 10  2  0
 10 11  1  0
 10 12  1  0
 12 13  2  0
 13 14  1  0
M  END
