
     RDKit          3D

 13 13  0  0  0  0  0  0  0  0999 V2000
    2.1200    0.1280    0.3930 N   0  0  0  0  0  0  0  0  0  0  0  0
    0.7420    0.3950    0.1350 C   0  0  0  0  0  0  0  0  0  0  0  0
    0.3470    1.6530    0.2150 C   0  0  0  0  0  0  0  0  0  0  0  0
    1.5140    3.0960    0.6510 Br  0  0  0  0  0  0  0  0  0  0  0  0
   -1.0570    1.9360   -0.0470 C   0  0  0  0  0  0  0  0  0  0  0  0
   -1.7440    3.7290    0.0400 Br  0  0  0  0  0  0  0  0  0  0  0  0
   -1.9270    0.9880   -0.3560 C   0  0  0  0  0  0  0  0  0  0  0  0
   -1.5860   -0.4340   -0.4690 C   0  0  1  0  0  0  0  0  0  0  0  0
   -2.6710   -1.4120    0.8190 Br  0  0  0  0  0  0  0  0  0  0  0  0
   -2.0760   -1.0660   -2.2390 Br  0  0  0  0  0  0  0  0  0  0  0  0
   -0.1560   -0.7100   -0.2010 C   0  0  0  0  0  0  0  0  0  0  0  0
    0.2950   -1.9450   -0.2660 C   0  0  0  0  0  0  0  0  0  0  0  0
    2.0210   -2.2360    0.0630 S   0  0  0  0  0  0  0  0  0  0  0  0
  1  2  1  0
  2  3  2  0
  2 11  1  0
  3  4  1  0
  3  5  1  0
  5  6  1  0
  5  7  2  0
  7  8  1  0
  8  9  1  1
  8 10  1  0
  8 11  1  0
 11 12  2  3
 12 13  1  0
M  END
