
     RDKit          3D

  9  9  0  0  0  0  0  0  0  0999 V2000
    2.2370   -0.4210   -1.2670 O   0  0  0  0  0  0  0  0  0  0  0  0
    2.3090   -0.6450    0.0740 C   0  0  0  0  0  0  0  0  0  0  0  0
    0.9860   -0.9680    0.7140 C   0  0  0  0  0  0  0  0  0  0  0  0
    0.0550    0.2040    0.5020 C   0  0  2  0  0  0  0  0  0  0  0  0
    0.5790    1.3660    1.0710 O   0  0  0  0  0  0  0  0  0  0  0  0
   -1.3270   -0.0810    1.0470 C   0  0  0  0  0  0  0  0  0  0  0  0
   -2.3150    0.1890   -0.0620 C   0  0  0  0  0  0  0  0  0  0  0  0
   -1.5810    0.8830   -1.1560 C   0  0  0  0  0  0  0  0  0  0  0  0
   -0.1640    0.3940   -0.9630 C   0  0  0  0  0  0  0  0  0  0  0  0
  1  2  1  0
  2  3  1  0
  3  4  1  0
  4  5  1  1
  4  6  1  0
  4  9  1  0
  6  7  1  0
  7  8  1  0
  8  9  1  0
M  END
