
     RDKit          3D

 14 14  0  0  0  0  0  0  0  0999 V2000
   -1.8260    1.3970   -0.4590 N   0  0  0  0  0  0  0  0  0  0  0  0
   -0.4550    0.9540   -0.3200 C   0  0  0  0  0  0  0  0  0  0  0  0
    0.4700    1.8570   -0.6340 C   0  0  0  0  0  0  0  0  0  0  0  0
   -0.0860    3.5780   -1.2130 Br  0  0  0  0  0  0  0  0  0  0  0  0
    2.1980    1.5160   -0.5330 S   0  0  0  0  0  0  0  0  0  0  0  0
    2.2850   -0.1700    0.0390 C   0  0  0  0  0  0  0  0  0  0  0  0
    3.4580   -0.7460    0.2250 C   0  0  0  0  0  0  0  0  0  0  0  0
    3.6570   -2.5310    0.8290 Br  0  0  0  0  0  0  0  0  0  0  0  0
    5.0740    0.2450   -0.1240 Br  0  0  0  0  0  0  0  0  0  0  0  0
    1.0850   -0.8100    0.2660 N   0  0  0  0  0  0  0  0  0  0  0  0
   -0.1430   -0.3780    0.1290 C   0  0  0  0  0  0  0  0  0  0  0  0
   -1.1840   -1.3450    0.4660 C   0  0  0  0  0  0  0  0  0  0  0  0
   -2.4680   -1.2410    0.4410 C   0  0  0  0  0  0  0  0  0  0  0  0
   -3.6160   -2.7180    0.9510 Br  0  0  0  0  0  0  0  0  0  0  0  0
  1  2  1  0
  2  3  2  0
  2 11  1  0
  3  4  1  0
  3  5  1  0
  5  6  1  0
  6  7  2  3
  6 10  1  0
  7  8  1  0
  7  9  1  0
 10 11  2  0
 11 12  1  0
 12 13  2  3
 13 14  1  0
M  END
