
     RDKit          3D

 13 14  0  0  0  0  0  0  0  0999 V2000
    3.4000    1.0680    0.6660 Br  0  0  0  0  0  0  0  0  0  0  0  0
    2.9000   -0.5840   -0.0880 C   0  0  0  0  0  0  0  0  0  0  0  0
    1.4930   -0.8190   -0.3520 C   0  0  0  0  0  0  0  0  0  0  0  0
    0.3780   -0.1940   -0.3360 C   0  0  0  0  0  0  0  0  0  0  0  0
   -0.8170   -0.9700   -0.6920 N   0  0  0  0  0  0  0  0  0  0  0  0
   -2.1800   -0.6860   -0.3020 C   0  0  0  0  0  0  0  0  0  0  0  0
   -2.3410    0.1040    0.9280 C   0  0  0  0  0  0  0  0  0  0  0  0
   -3.7370   -0.5110    2.1250 Br  0  0  0  0  0  0  0  0  0  0  0  0
   -1.7050    1.1560    1.3570 N   0  0  0  0  0  0  0  0  0  0  0  0
   -0.6240    1.8270    0.6770 C   0  0  0  0  0  0  0  0  0  0  0  0
   -0.5450    3.7010    0.9140 Br  0  0  0  0  0  0  0  0  0  0  0  0
    0.3100    1.2410   -0.0830 C   0  0  0  0  0  0  0  0  0  0  0  0
    1.5300    2.3690   -0.9600 Br  0  0  0  0  0  0  0  0  0  0  0  0
  1  2  1  0
  2  3  1  0
  3  4  2  0
  4  5  1  0
  4 12  1  0
  5  6  1  0
  6  7  1  0
  7  8  1  0
  7  9  2  0
  9 10  1  0
 10 11  1  0
 10 12  2  0
 12 13  1  0
 13  1  1  0
M  END
