
     RDKit          3D

 13 14  0  0  0  0  0  0  0  0999 V2000
   -2.9710    2.3680    0.1130 Br  0  0  0  0  0  0  0  0  0  0  0  0
   -1.5140    1.1030    0.1250 C   0  0  0  0  0  0  0  0  0  0  0  0
   -0.2670    1.4710   -0.0170 C   0  0  0  0  0  0  0  0  0  0  0  0
    0.1550    3.3160   -0.2330 Br  0  0  0  0  0  0  0  0  0  0  0  0
    0.8290    0.5130   -0.1030 C   0  0  0  0  0  0  0  0  0  0  0  0
    2.2010    0.6250   -0.1710 C   0  0  0  0  0  0  0  0  0  0  0  0
    2.7050   -0.6160   -0.1500 N   0  0  0  0  0  0  0  0  0  0  0  0
    1.7190   -1.4840   -0.0740 N   0  0  0  0  0  0  0  0  0  0  0  0
    0.5220   -0.8030   -0.0440 C   0  0  0  0  0  0  0  0  0  0  0  0
   -0.8630   -1.2850   -0.0340 C   0  0  1  0  0  0  0  0  0  0  0  0
   -1.2240   -1.8330   -1.9020 Br  0  0  0  0  0  0  0  0  0  0  0  0
   -0.9940   -2.9090    1.0640 Br  0  0  0  0  0  0  0  0  0  0  0  0
   -1.8610   -0.2870    0.3910 C   0  0  0  0  0  0  0  0  0  0  0  0
  1  2  1  0
  2  3  2  0
  2 13  1  0
  3  4  1  0
  3  5  1  0
  5  6  2  0
  5  9  1  0
  6  7  1  0
  7  8  1  0
  8  9  2  0
  9 10  1  0
 10 11  1  6
 10 12  1  0
 10 13  1  0
M  END
