
     RDKit          3D

 13 14  0  0  0  0  0  0  0  0999 V2000
   -1.3420   -2.7270   -1.9720 Br  0  0  0  0  0  0  0  0  0  0  0  0
   -1.7480   -1.0190   -1.1690 C   0  0  0  0  0  0  0  0  0  0  0  0
   -3.4690   -0.2630   -1.3460 Br  0  0  0  0  0  0  0  0  0  0  0  0
   -0.7820   -0.4150   -0.5000 C   0  0  0  0  0  0  0  0  0  0  0  0
   -0.5730    0.7960    0.2420 C   0  0  0  0  0  0  0  0  0  0  0  0
   -1.2240    1.8960    0.6250 C   0  0  0  0  0  0  0  0  0  0  0  0
   -3.0210    2.2820    0.2160 Br  0  0  0  0  0  0  0  0  0  0  0  0
   -0.2620    3.1960    1.6760 Br  0  0  0  0  0  0  0  0  0  0  0  0
    0.7990    0.3530    0.4720 C   0  0  0  0  0  0  0  0  0  0  0  0
    2.0970    0.3290    0.9080 N   0  0  0  0  0  0  0  0  0  0  0  0
    2.6540   -0.7840    0.4850 N   0  0  0  0  0  0  0  0  0  0  0  0
    1.7970   -1.5120   -0.2140 C   0  0  0  0  0  0  0  0  0  0  0  0
    0.6170   -0.7880   -0.2220 C   0  0  0  0  0  0  0  0  0  0  0  0
  1  2  1  0
  2  3  1  0
  2  4  2  3
  4  5  1  0
  4 13  1  0
  5  6  2  3
  5  9  1  0
  6  7  1  0
  6  8  1  0
  9 10  1  0
  9 13  2  0
 10 11  1  0
 11 12  2  0
 12 13  1  0
M  END
