
     RDKit          3D

 13 13  0  0  0  0  0  0  0  0999 V2000
    4.2090    1.3740   -0.1270 Br  0  0  0  0  0  0  0  0  0  0  0  0
    2.4650    1.3850   -1.0150 C   0  0  0  0  0  0  0  0  0  0  0  0
    1.9340    0.0310   -1.1500 C   0  0  0  0  0  0  0  0  0  0  0  0
    0.8060   -0.4220   -0.6470 C   0  0  0  0  0  0  0  0  0  0  0  0
    0.4150   -1.7870   -0.8660 N   0  0  0  0  0  0  0  0  0  0  0  0
   -0.6620   -2.2950   -0.4080 C   0  0  0  0  0  0  0  0  0  0  0  0
   -1.5410   -1.4430    0.3790 C   0  0  0  0  0  0  0  0  0  0  0  0
   -1.2610   -0.1770    0.6300 C   0  0  0  0  0  0  0  0  0  0  0  0
   -2.2080    0.6540    1.4490 C   0  0  2  0  0  0  0  0  0  0  0  0
   -1.3060    1.2970    3.0230 Br  0  0  0  0  0  0  0  0  0  0  0  0
   -3.7230   -0.3930    2.0130 Br  0  0  0  0  0  0  0  0  0  0  0  0
   -2.8320    2.0850    0.3390 Br  0  0  0  0  0  0  0  0  0  0  0  0
   -0.0520    0.3930    0.1170 N   0  0  0  0  0  0  0  0  0  0  0  0
  1  2  1  0
  2  3  1  0
  3  4  2  3
  4  5  1  0
  4 13  1  0
  5  6  2  0
  6  7  1  0
  7  8  2  0
  8  9  1  0
  8 13  1  0
  9 10  1  1
  9 11  1  0
  9 12  1  0
M  END
