
     RDKit          3D

 24 25  0  0  0  0  0  0  0  0999 V2000
    8.0840    0.2180   -1.3560 N   0  0  0  0  0  0  0  0  0  0  0  0
    6.6860   -0.0650   -1.4200 C   0  0  0  0  0  0  0  0  0  0  0  0
    6.3350   -0.9670   -2.2110 O   0  0  0  0  0  0  0  0  0  0  0  0
    5.7520    0.5900   -0.6770 O   0  0  0  0  0  0  0  0  0  0  0  0
    4.3740    0.4090   -0.6350 C   0  0  0  0  0  0  0  0  0  0  0  0
    3.9500   -0.9190   -0.1310 C   0  0  2  0  0  0  0  0  0  0  0  0
    4.4140   -1.9440   -0.9260 O   0  0  0  0  0  0  0  0  0  0  0  0
    2.4450   -1.0530   -0.0100 C   0  0  0  0  0  0  0  0  0  0  0  0
    1.8830   -0.0720    0.7670 O   0  0  0  0  0  0  0  0  0  0  0  0
    0.5090   -0.2710    0.8230 C   0  0  1  0  0  0  0  0  0  0  0  0
    0.0330   -0.4900    2.2430 C   0  0  0  0  0  0  0  0  0  0  0  0
   -1.3410   -0.6130    2.2060 O   0  0  0  0  0  0  0  0  0  0  0  0
   -1.9870    0.5440    1.8570 C   0  0  2  0  0  0  0  0  0  0  0  0
   -3.3260    0.1760    1.1850 C   0  0  1  0  0  0  0  0  0  0  0  0
   -4.2640    1.3060    1.3410 C   0  0  0  0  0  0  0  0  0  0  0  0
   -5.6220    1.1300    0.7550 C   0  0  0  0  0  0  0  0  0  0  0  0
   -6.3030    0.0300    1.3180 O   0  0  0  0  0  0  0  0  0  0  0  0
   -2.5220    0.0350   -0.0610 C   0  0  1  0  0  0  0  0  0  0  0  0
   -3.1040    0.2640   -1.3160 N   0  0  0  0  0  0  0  0  0  0  0  0
   -3.0070   -0.6980   -2.3570 C   0  0  0  0  0  0  0  0  0  0  0  0
   -2.3810   -1.7640   -2.1180 O   0  0  0  0  0  0  0  0  0  0  0  0
   -3.5500   -0.5440   -3.6120 O   0  0  0  0  0  0  0  0  0  0  0  0
   -1.5870    1.0780    0.4970 C   0  0  2  0  0  0  0  0  0  0  0  0
   -0.1480    0.9230    0.1860 C   0  0  0  0  0  0  0  0  0  0  0  0
  1  2  1  0
  2  3  2  0
  2  4  1  0
  4  5  1  0
  5  6  1  0
  6  7  1  6
  6  8  1  0
  8  9  1  0
 10  9  1  1
 10 11  1  0
 10 24  1  0
 11 12  1  0
 13 12  1  6
 13 14  1  0
 13 23  1  0
 14 15  1  6
 14 18  1  0
 15 16  1  0
 16 17  1  0
 18 19  1  6
 18 23  1  0
 19 20  1  0
 20 21  2  0
 20 22  1  0
 23 24  1  6
M  END
