
     RDKit          3D

 24 25  0  0  0  0  0  0  0  0999 V2000
    7.2580    0.7150    0.2550 C   0  0  0  0  0  0  0  0  0  0  0  0
    6.4910   -0.3280    0.7750 O   0  0  0  0  0  0  0  0  0  0  0  0
    5.2990    0.1080    1.3030 C   0  0  2  0  0  0  0  0  0  0  0  0
    5.1720   -0.2690    2.6410 O   0  0  0  0  0  0  0  0  0  0  0  0
    4.1810   -0.5020    0.5260 C   0  0  0  0  0  0  0  0  0  0  0  0
    3.2100    0.2570    0.0630 C   0  0  0  0  0  0  0  0  0  0  0  0
    2.1240   -0.3510   -0.6940 C   0  0  0  0  0  0  0  0  0  0  0  0
    2.0660   -1.5770   -0.9300 O   0  0  0  0  0  0  0  0  0  0  0  0
    1.0540    0.4480   -1.2110 N   0  0  0  0  0  0  0  0  0  0  0  0
   -0.0240   -0.1420   -1.9600 C   0  0  2  0  0  0  0  0  0  0  0  0
   -0.0820    0.3390   -3.2670 O   0  0  0  0  0  0  0  0  0  0  0  0
   -1.3700    0.0790   -1.3370 C   0  0  1  0  0  0  0  0  0  0  0  0
   -1.5030   -0.5420    0.0340 C   0  0  0  0  0  0  0  0  0  0  0  0
   -2.9620   -0.5600    0.3560 C   0  0  1  0  0  0  0  0  0  0  0  0
   -3.5920   -1.3770   -0.5980 O   0  0  0  0  0  0  0  0  0  0  0  0
   -3.2960   -1.0920    1.7070 C   0  0  0  0  0  0  0  0  0  0  0  0
   -4.7950   -1.1540    1.8010 C   0  0  0  0  0  0  0  0  0  0  0  0
   -5.3360   -1.9050    2.6320 O   0  0  0  0  0  0  0  0  0  0  0  0
   -5.6170   -0.3520    0.9370 N   0  0  0  0  0  0  0  0  0  0  0  0
   -5.0250    0.6620    0.1440 C   0  0  0  0  0  0  0  0  0  0  0  0
   -5.7260    1.4020   -0.5800 O   0  0  0  0  0  0  0  0  0  0  0  0
   -3.5540    0.8200    0.1990 C   0  0  2  0  0  0  0  0  0  0  0  0
   -3.0510    1.5310   -1.0330 C   0  0  0  0  0  0  0  0  0  0  0  0
   -1.6950    1.4220   -1.2130 O   0  0  0  0  0  0  0  0  0  0  0  0
  1  2  1  0
  2  3  1  0
  3  4  1  1
  3  5  1  0
  5  6  2  3
  6  7  1  0
  7  8  2  0
  7  9  1  0
  9 10  1  0
 10 11  1  6
 10 12  1  0
 12 13  1  1
 12 24  1  0
 13 14  1  0
 14 15  1  6
 14 16  1  0
 14 22  1  0
 16 17  1  0
 17 18  2  0
 17 19  1  0
 19 20  1  0
 20 21  2  0
 20 22  1  0
 22 23  1  6
 23 24  1  0
M  END
