
     RDKit          3D

 24 26  0  0  0  0  0  0  0  0999 V2000
   -0.1480    0.2610    0.6540 O   0  0  0  0  0  0  0  0  0  0  0  0
   -0.6580   -0.1420   -0.4040 C   0  0  0  0  0  0  0  0  0  0  0  0
   -2.0530   -0.0780   -0.5650 N   0  0  0  0  0  0  0  0  0  0  0  0
   -3.0230    0.3920    0.3170 C   0  0  0  0  0  0  0  0  0  0  0  0
   -2.7040    0.8880    1.5520 C   0  0  0  0  0  0  0  0  0  0  0  0
   -3.6850    1.3650    2.4500 C   0  0  0  0  0  0  0  0  0  0  0  0
   -5.0030    1.3330    2.0780 C   0  0  0  0  0  0  0  0  0  0  0  0
   -5.3360    0.8360    0.8420 C   0  0  0  0  0  0  0  0  0  0  0  0
   -4.3680    0.3630   -0.0510 C   0  0  0  0  0  0  0  0  0  0  0  0
   -4.9710   -0.0490   -1.1500 C   0  0  0  0  0  0  0  0  0  0  0  0
   -4.3870   -0.5750   -2.2510 F   0  0  0  0  0  0  0  0  0  0  0  0
   -6.4680    0.1440   -1.0320 C   0  0  0  0  0  0  0  0  0  0  0  0
   -6.5420    0.7270    0.3170 C   0  0  0  0  0  0  0  0  0  0  0  0
    0.1960   -0.6410   -1.3800 O   0  0  0  0  0  0  0  0  0  0  0  0
    1.6090   -0.7190   -1.2380 C   0  0  0  0  0  0  0  0  0  0  0  0
    2.0520   -1.5900   -0.1100 C   0  0  0  0  0  0  0  0  0  0  0  0
    3.4000   -1.6610    0.0180 O   0  0  0  0  0  0  0  0  0  0  0  0
    4.4070   -0.8040    0.2990 C   0  0  0  0  0  0  0  0  0  0  0  0
    4.2250    0.5270    0.5860 C   0  0  0  0  0  0  0  0  0  0  0  0
    5.2990    1.3500    0.8620 C   0  0  0  0  0  0  0  0  0  0  0  0
    6.5820    0.8560    0.8570 C   0  0  0  0  0  0  0  0  0  0  0  0
    6.8080   -0.4630    0.5770 C   0  0  0  0  0  0  0  0  0  0  0  0
    5.7290   -1.2620    0.3060 C   0  0  0  0  0  0  0  0  0  0  0  0
    5.9390   -2.5990    0.0200 O   0  0  0  0  0  0  0  0  0  0  0  0
  1  2  2  0
  2  3  1  0
  2 14  1  0
  3  4  1  0
  4  5  2  0
  4  9  1  0
  5  6  1  0
  6  7  2  0
  7  8  1  0
  8  9  1  0
  8 13  2  0
  9 10  2  0
 10 11  1  0
 10 12  1  0
 12 13  1  0
 14 15  1  0
 15 16  1  0
 16 17  1  0
 17 18  1  0
 18 19  2  0
 18 23  1  0
 19 20  1  0
 20 21  2  0
 21 22  1  0
 22 23  2  0
 23 24  1  0
M  END
