
     RDKit          3D

 17 18  0  0  0  0  0  0  0  0999 V2000
    0.2940    2.1190   -1.1050 C   0  0  0  0  0  0  0  0  0  0  0  0
    0.1740    0.7330   -1.2190 O   0  0  0  0  0  0  0  0  0  0  0  0
   -0.0990   -0.1300   -0.1760 C   0  0  0  0  0  0  0  0  0  0  0  0
    0.9660   -0.6540    0.5220 C   0  0  0  0  0  0  0  0  0  0  0  0
    2.3500   -0.3380    0.2070 C   0  0  0  0  0  0  0  0  0  0  0  0
    2.7800    0.4780   -0.7690 N   0  0  0  0  0  0  0  0  0  0  0  0
    4.1070    0.5170   -0.7470 N   0  0  0  0  0  0  0  0  0  0  0  0
    4.4950   -0.2810    0.2510 C   0  0  0  0  0  0  0  0  0  0  0  0
    6.0540   -0.5450    0.6560 S   0  0  0  0  0  0  0  0  0  0  0  0
    3.3970   -0.7870    0.8120 O   0  0  0  0  0  0  0  0  0  0  0  0
    0.6560   -1.4990    1.5410 N   0  0  0  0  0  0  0  0  0  0  0  0
   -0.6030   -1.8160    1.8630 C   0  0  0  0  0  0  0  0  0  0  0  0
   -0.8320   -2.6130    2.8280 O   0  0  0  0  0  0  0  0  0  0  0  0
   -1.6370   -1.2790    1.1510 N   0  0  0  0  0  0  0  0  0  0  0  0
   -1.4040   -0.4340    0.1280 C   0  0  0  0  0  0  0  0  0  0  0  0
   -2.5750    0.1120   -0.6020 C   0  0  0  0  0  0  0  0  0  0  0  0
   -3.8100   -0.3840   -0.0590 N   0  0  0  0  0  0  0  0  0  0  0  0
  1  2  1  0
  2  3  1  0
  3  4  1  0
  3 15  2  0
  4  5  1  0
  4 11  2  0
  5  6  2  0
  5 10  1  0
  6  7  1  0
  7  8  1  0
  8  9  2  0
  8 10  1  0
 11 12  1  0
 12 13  2  0
 12 14  1  0
 14 15  1  0
 15 16  1  0
 16 17  1  0
M  CHG  1  17   1
M  END
