
     RDKit          3D

 24 26  0  0  0  0  0  0  0  0999 V2000
    6.8710   -0.8640   -1.2340 C   0  0  0  0  0  0  0  0  0  0  0  0
    6.4780    0.1380   -0.3280 O   0  0  0  0  0  0  0  0  0  0  0  0
    5.2130    0.1320    0.2400 C   0  0  0  0  0  0  0  0  0  0  0  0
    4.8090    1.1080    1.1320 C   0  0  0  0  0  0  0  0  0  0  0  0
    3.5470    1.0970    1.6960 C   0  0  0  0  0  0  0  0  0  0  0  0
    2.6580    0.0800    1.3600 C   0  0  0  0  0  0  0  0  0  0  0  0
    1.3890    0.0220    1.8950 O   0  0  0  0  0  0  0  0  0  0  0  0
    0.3050    0.1150    0.9920 C   0  0  0  0  0  0  0  0  0  0  0  0
    0.5010    0.3890   -0.3450 C   0  0  0  0  0  0  0  0  0  0  0  0
   -0.5800    0.4710   -1.1960 C   0  0  0  0  0  0  0  0  0  0  0  0
   -1.8680    0.2860   -0.7540 C   0  0  0  0  0  0  0  0  0  0  0  0
   -2.0830    0.0140    0.5700 C   0  0  0  0  0  0  0  0  0  0  0  0
   -0.9750   -0.0680    1.4320 C   0  0  0  0  0  0  0  0  0  0  0  0
   -3.4180   -0.1930    1.1100 C   0  0  1  0  0  0  0  0  0  0  0  0
   -3.6190    0.7550    2.1260 O   0  0  0  0  0  0  0  0  0  0  0  0
   -4.4840   -0.0820    0.1150 C   0  0  0  0  0  0  0  0  0  0  0  0
   -5.8830   -0.2830    0.5970 C   0  0  0  0  0  0  0  0  0  0  0  0
   -6.0500   -0.5270    1.7970 O   0  0  0  0  0  0  0  0  0  0  0  0
   -4.3000    0.1790   -1.1660 C   0  0  0  0  0  0  0  0  0  0  0  0
   -5.4940    0.2580   -2.0460 C   0  0  0  0  0  0  0  0  0  0  0  0
   -2.9860    0.3750   -1.6550 N   0  0  0  0  0  0  0  0  0  0  0  0
    3.0880   -0.8830    0.4670 C   0  0  0  0  0  0  0  0  0  0  0  0
    2.2060   -1.8840    0.1500 F   0  0  0  0  0  0  0  0  0  0  0  0
    4.3420   -0.8710   -0.0940 C   0  0  0  0  0  0  0  0  0  0  0  0
  1  2  1  0
  2  3  1  0
  3  4  2  0
  3 24  1  0
  4  5  1  0
  5  6  2  0
  6  7  1  0
  6 22  1  0
  7  8  1  0
  8  9  2  0
  8 13  1  0
  9 10  1  0
 10 11  2  0
 11 12  1  0
 11 21  1  0
 12 13  2  0
 12 14  1  0
 14 15  1  1
 14 16  1  0
 16 17  1  0
 16 19  2  0
 17 18  2  0
 19 20  1  0
 19 21  1  0
 22 23  1  0
 22 24  2  0
M  END
