
     RDKit          3D

 21 21  0  0  0  0  0  0  0  0999 V2000
   -0.5520    4.4190   -0.5130 C   0  0  0  0  0  0  0  0  0  0  0  0
   -0.2290    3.0180   -0.4490 O   0  0  0  0  0  0  0  0  0  0  0  0
   -0.9400    2.2030    0.3780 C   0  0  0  0  0  0  0  0  0  0  0  0
   -1.8670    2.7270    1.0690 O   0  0  0  0  0  0  0  0  0  0  0  0
   -0.7360    0.7560    0.5460 C   0  0  1  0  0  0  0  0  0  0  0  0
   -1.7830   -0.0320   -0.1960 C   0  0  0  0  0  0  0  0  0  0  0  0
   -3.1270    0.4060   -0.3370 N   0  0  0  0  0  0  0  0  0  0  0  0
   -4.1590   -0.4680   -0.8480 C   0  0  0  0  0  0  0  0  0  0  0  0
   -4.4760   -1.5930    0.1050 C   0  0  0  0  0  0  0  0  0  0  0  0
   -5.4740   -2.3930   -0.4420 O   0  0  0  0  0  0  0  0  0  0  0  0
   -1.2480   -1.1050   -0.6510 N   0  0  0  0  0  0  0  0  0  0  0  0
    0.1470   -1.1230   -0.2670 C   0  0  2  0  0  0  0  0  0  0  0  0
    0.9900   -1.8390   -1.3050 C   0  0  0  0  0  0  0  0  0  0  0  0
    0.2210   -1.8850    1.0320 C   0  0  0  0  0  0  0  0  0  0  0  0
    0.4600    0.2620   -0.1580 N   0  0  0  0  0  0  0  0  0  0  0  0
    1.6360    0.5600    0.6180 C   0  0  0  0  0  0  0  0  0  0  0  0
    2.9270    0.1070    0.0070 C   0  0  0  0  0  0  0  0  0  0  0  0
    3.9370    0.5070    0.9210 O   0  0  0  0  0  0  0  0  0  0  0  0
    5.4950    0.0490    0.3610 P   0  0  0  0  0  0  0  0  0  0  0  0
    5.5310   -1.6390   -0.0890 O   0  0  0  0  0  0  0  0  0  0  0  0
    5.9910    1.0450   -0.9770 O   0  0  0  0  0  0  0  0  0  0  0  0
  1  2  1  0
  2  3  1  0
  3  4  2  0
  5  3  1  6
  5  6  1  0
  5 15  1  0
  6  7  1  0
  6 11  2  0
  7  8  1  0
  8  9  1  0
  9 10  1  0
 11 12  1  0
 12 13  1  6
 12 14  1  0
 12 15  1  0
 15 16  1  0
 16 17  1  0
 17 18  1  0
 18 19  1  0
 19 20  1  0
 19 21  1  0
M  END
