
     RDKit          3D

 22 23  0  0  0  0  0  0  0  0999 V2000
   -2.5280   -1.9540   -1.9400 C   0  0  0  0  0  0  0  0  0  0  0  0
   -2.6180   -1.3470   -0.6660 O   0  0  0  0  0  0  0  0  0  0  0  0
   -1.7780   -1.7830    0.3330 C   0  0  0  0  0  0  0  0  0  0  0  0
   -1.9640   -2.7910    1.2580 C   0  0  0  0  0  0  0  0  0  0  0  0
   -3.1570   -3.6160    1.3410 C   0  0  0  0  0  0  0  0  0  0  0  0
   -4.0960   -3.4220    0.5390 O   0  0  0  0  0  0  0  0  0  0  0  0
   -3.2770   -4.6200    2.2960 O   0  0  0  0  0  0  0  0  0  0  0  0
   -0.8910   -2.8710    2.0370 O   0  0  0  0  0  0  0  0  0  0  0  0
    0.0040   -1.9660    1.6800 C   0  0  0  0  0  0  0  0  0  0  0  0
    1.2100   -1.4360    1.9140 N   0  0  0  0  0  0  0  0  0  0  0  0
    1.4820   -0.4310    1.0510 C   0  0  0  0  0  0  0  0  0  0  0  0
    2.6500    0.3310    1.0360 N   0  0  0  0  0  0  0  0  0  0  0  0
    3.0410    1.3700    0.1570 C   0  0  0  0  0  0  0  0  0  0  0  0
    4.3760    2.0110    0.6030 C   0  0  0  0  0  0  0  0  0  0  0  0
    5.3890    1.0380    0.6180 O   0  0  0  0  0  0  0  0  0  0  0  0
    0.4060   -0.3370    0.2550 N   0  0  0  0  0  0  0  0  0  0  0  0
    0.1520    0.5790   -0.8230 C   0  0  0  0  0  0  0  0  0  0  0  0
   -0.5560    1.8440   -0.3100 C   0  0  0  0  0  0  0  0  0  0  0  0
   -0.8380    2.9650   -1.7600 P   0  0  0  0  0  0  0  0  0  0  0  0
   -2.4630    2.8390   -2.3530 O   0  0  0  0  0  0  0  0  0  0  0  0
   -0.4450    4.5990   -1.4020 O   0  0  0  0  0  0  0  0  0  0  0  0
   -0.5200   -1.2670    0.6160 C   0  0  0  0  0  0  0  0  0  0  0  0
  1  2  1  0
  2  3  1  0
  3  4  2  0
  3 22  1  0
  4  5  1  0
  4  8  1  0
  5  6  2  0
  5  7  1  0
  8  9  1  0
  9 10  1  0
  9 22  2  0
 10 11  2  0
 11 12  1  0
 11 16  1  0
 12 13  1  0
 13 14  1  0
 14 15  1  0
 16 17  1  0
 16 22  1  0
 17 18  1  0
 18 19  1  0
 19 20  1  0
 19 21  1  0
M  END
