
     RDKit          3D

 21 22  0  0  0  0  0  0  0  0999 V2000
    5.7560    0.2000    1.6010 C   0  0  0  0  0  0  0  0  0  0  0  0
    4.7420    1.1840    1.7160 O   0  0  0  0  0  0  0  0  0  0  0  0
    3.4090    0.8700    1.7890 N   0  0  0  0  0  0  0  0  0  0  0  0
    2.7790    0.5160    0.7390 C   0  0  0  0  0  0  0  0  0  0  0  0
    1.4150    0.1890    0.7720 C   0  0  0  0  0  0  0  0  0  0  0  0
    0.7310   -0.1960   -0.3580 C   0  0  0  0  0  0  0  0  0  0  0  0
   -0.6820   -0.5340   -0.2790 C   0  0  0  0  0  0  0  0  0  0  0  0
   -1.2070   -0.4750    1.0570 N   0  0  0  0  0  0  0  0  0  0  0  0
   -2.6090   -0.8350    1.1170 C   0  0  0  0  0  0  0  0  0  0  0  0
   -3.5300    0.1440    0.4740 C   0  0  0  0  0  0  0  0  0  0  0  0
   -4.8380   -0.3560    0.6230 O   0  0  0  0  0  0  0  0  0  0  0  0
   -6.0030    0.7130   -0.0870 P   0  0  0  0  0  0  0  0  0  0  0  0
   -5.6770    2.3200    0.5250 O   0  0  0  0  0  0  0  0  0  0  0  0
   -7.5890    0.2750    0.5270 O   0  0  0  0  0  0  0  0  0  0  0  0
    1.4050   -0.2530   -1.5200 N   0  0  0  0  0  0  0  0  0  0  0  0
    2.7310    0.0620   -1.5750 C   0  0  0  0  0  0  0  0  0  0  0  0
    3.4410    0.4490   -0.4630 C   0  0  0  0  0  0  0  0  0  0  0  0
    3.1840   -0.0790   -2.8900 O   0  0  0  0  0  0  0  0  0  0  0  0
    2.2900   -0.9820   -3.5340 C   0  0  0  0  0  0  0  0  0  0  0  0
    1.0070   -0.6050   -2.8490 C   0  0  0  0  0  0  0  0  0  0  0  0
   -0.1560   -0.5810   -3.2740 O   0  0  0  0  0  0  0  0  0  0  0  0
  1  2  1  0
  2  3  1  0
  3  4  2  3
  4  5  1  0
  4 17  1  0
  5  6  2  0
  6  7  1  0
  6 15  1  0
  7  8  1  0
  8  9  1  0
  9 10  1  0
 10 11  1  0
 11 12  1  0
 12 13  1  0
 12 14  1  0
 15 16  1  0
 15 20  1  0
 16 17  2  0
 16 18  1  0
 18 19  1  0
 19 20  1  0
 20 21  2  0
M  END
