
     RDKit          3D

 21 22  0  0  0  0  0  0  0  0999 V2000
   -4.6200   -2.2940   -0.6480 C   0  0  0  0  0  0  0  0  0  0  0  0
   -4.7060   -0.8860   -0.0930 C   0  0  2  0  0  0  0  0  0  0  0  0
   -5.9200   -0.8450    0.6310 O   0  0  0  0  0  0  0  0  0  0  0  0
   -4.6750    0.0410   -1.1010 O   0  0  0  0  0  0  0  0  0  0  0  0
   -4.2760    1.3010   -0.7380 C   0  0  0  0  0  0  0  0  0  0  0  0
   -4.5410    1.5560    0.7090 C   0  0  0  0  0  0  0  0  0  0  0  0
   -3.9550    0.6170    1.5200 O   0  0  0  0  0  0  0  0  0  0  0  0
   -3.6230   -0.5740    0.8970 C   0  0  2  0  0  0  0  0  0  0  0  0
   -2.2750   -0.4960    0.2520 C   0  0  0  0  0  0  0  0  0  0  0  0
   -1.1880    0.0350    0.8250 N   0  0  0  0  0  0  0  0  0  0  0  0
   -0.1460   -0.0510   -0.0190 C   0  0  0  0  0  0  0  0  0  0  0  0
    1.2290    0.4380    0.2720 C   0  0  0  0  0  0  0  0  0  0  0  0
    2.1130    0.1260   -0.8020 N   0  0  0  0  0  0  0  0  0  0  0  0
    3.4680    0.5820   -0.5830 C   0  0  0  0  0  0  0  0  0  0  0  0
    4.1050   -0.1950    0.5260 C   0  0  0  0  0  0  0  0  0  0  0  0
    5.5310    0.2440    0.7870 C   0  0  0  0  0  0  0  0  0  0  0  0
    6.5820    0.0070   -0.7300 P   0  0  0  0  0  0  0  0  0  0  0  0
    7.9400   -1.0160   -0.3920 O   0  0  0  0  0  0  0  0  0  0  0  0
    7.1530    1.5080   -1.3400 O   0  0  0  0  0  0  0  0  0  0  0  0
   -0.6520   -0.6530   -1.1090 N   0  0  0  0  0  0  0  0  0  0  0  0
   -1.9110   -0.9080   -0.9310 O   0  0  0  0  0  0  0  0  0  0  0  0
  2  1  1  6
  2  3  1  0
  2  4  1  0
  2  8  1  0
  4  5  1  0
  5  6  1  0
  6  7  1  0
  7  8  1  0
  8  9  1  6
  9 10  2  0
  9 21  1  0
 10 11  1  0
 11 12  1  0
 11 20  2  0
 12 13  1  0
 13 14  1  0
 14 15  1  0
 15 16  1  0
 16 17  1  0
 17 18  1  0
 17 19  1  0
 20 21  1  0
M  END
