
     RDKit          3D

 32 36  0  0  0  0  0  0  0  0999 V2000
   -0.3800   -2.5210    0.7080 C   0  0  0  0  0  0  0  0  0  0  0  0
    0.1020   -1.2250    0.1090 C   0  0  2  0  0  0  0  0  0  0  0  0
    0.0420   -0.0910    1.0700 C   0  0  0  0  0  0  0  0  0  0  0  0
   -1.3790    0.1520    1.4760 C   0  0  0  0  0  0  0  0  0  0  0  0
   -2.2280    0.4680    0.2690 C   0  0  2  0  0  0  0  0  0  0  0  0
   -3.6110    0.8000    0.6090 C   0  0  0  0  0  0  0  0  0  0  0  0
   -3.8340    1.7310    1.6030 C   0  0  0  0  0  0  0  0  0  0  0  0
   -5.1180    2.1020    1.9870 C   0  0  0  0  0  0  0  0  0  0  0  0
   -6.2020    1.5290    1.3610 C   0  0  0  0  0  0  0  0  0  0  0  0
   -7.5250    1.8550    1.6950 O   0  0  0  0  0  0  0  0  0  0  0  0
   -5.9820    0.5980    0.3660 C   0  0  0  0  0  0  0  0  0  0  0  0
   -4.7000    0.2280   -0.0160 C   0  0  0  0  0  0  0  0  0  0  0  0
   -4.5360   -0.7910   -1.1060 C   0  0  0  0  0  0  0  0  0  0  0  0
   -3.1600   -0.5920   -1.7560 C   0  0  0  0  0  0  0  0  0  0  0  0
   -2.1480   -0.7420   -0.6720 C   0  0  1  0  0  0  0  0  0  0  0  0
   -0.7440   -0.8200   -1.1060 C   0  0  2  0  0  0  0  0  0  0  0  0
   -0.3880   -1.8580   -2.0900 C   0  0  0  0  0  0  0  0  0  0  0  0
    1.1280   -1.9140   -1.9480 C   0  0  0  0  0  0  0  0  0  0  0  0
    1.4290   -1.4600   -0.5230 C   0  0  2  0  0  0  0  0  0  0  0  0
    2.1460   -2.5050    0.0810 O   0  0  0  0  0  0  0  0  0  0  0  0
    2.2950   -0.2520   -0.5060 C   0  0  0  0  0  0  0  0  0  0  0  0
    3.5320   -0.2870   -0.1000 C   0  0  0  0  0  0  0  0  0  0  0  0
    4.4140    0.8630   -0.0660 C   0  0  0  0  0  0  0  0  0  0  0  0
    3.9680    2.0890   -0.4760 C   0  0  0  0  0  0  0  0  0  0  0  0
    4.7960    3.2170   -0.4550 C   0  0  0  0  0  0  0  0  0  0  0  0
    6.0800    3.1120   -0.0180 C   0  0  0  0  0  0  0  0  0  0  0  0
    6.5290    1.8710    0.3970 C   0  0  0  0  0  0  0  0  0  0  0  0
    5.7220    0.7610    0.3780 C   0  0  0  0  0  0  0  0  0  0  0  0
    6.2460   -0.5650    0.8360 C   0  0  1  0  0  0  0  0  0  0  0  0
    5.4980   -1.0240    1.8990 F   0  0  0  0  0  0  0  0  0  0  0  0
    6.1500   -1.4110   -0.2540 F   0  0  0  0  0  0  0  0  0  0  0  0
    7.5520   -0.4080    1.2390 F   0  0  0  0  0  0  0  0  0  0  0  0
  2  1  1  1
  2  3  1  0
  2 16  1  0
  2 19  1  0
  3  4  1  0
  5  4  1  1
  5  6  1  0
  5 15  1  0
  6  7  2  0
  6 12  1  0
  7  8  1  0
  8  9  2  0
  9 10  1  0
  9 11  1  0
 11 12  2  0
 12 13  1  0
 13 14  1  0
 15 14  1  6
 15 16  1  0
 16 17  1  6
 17 18  1  0
 18 19  1  0
 19 20  1  1
 19 21  1  0
 21 22  2  3
 22 23  1  0
 23 24  2  0
 23 28  1  0
 24 25  1  0
 25 26  2  0
 26 27  1  0
 27 28  2  0
 28 29  1  0
 29 30  1  1
 29 31  1  0
 29 32  1  0
M  END
