
     RDKit          3D

 25 26  0  0  0  0  0  0  0  0999 V2000
   -4.3110    3.6740    1.3280 C   0  0  0  0  0  0  0  0  0  0  0  0
   -3.7400    2.4390    1.6340 O   0  0  0  0  0  0  0  0  0  0  0  0
   -4.2000    1.3390    0.3750 P   0  0  0  0  0  0  0  0  0  0  0  0
   -3.6970   -0.3150    0.7730 O   0  0  0  0  0  0  0  0  0  0  0  0
   -2.6570   -0.8700    0.0410 C   0  0  0  0  0  0  0  0  0  0  0  0
   -2.8060   -2.2110    0.1770 C   0  0  0  0  0  0  0  0  0  0  0  0
   -3.8660   -2.6710    0.9420 O   0  0  0  0  0  0  0  0  0  0  0  0
   -2.0150   -3.2880   -0.3610 N   0  0  0  0  0  0  0  0  0  0  0  0
   -0.6500   -3.2440   -0.6900 N   0  0  0  0  0  0  0  0  0  0  0  0
    0.0990   -4.8330   -0.9920 P   0  0  0  0  0  0  0  0  0  0  0  0
    0.2050   -5.4780   -2.3900 O   0  0  0  0  0  0  0  0  0  0  0  0
    0.1720   -2.0880   -0.8070 C   0  0  0  0  0  0  0  0  0  0  0  0
    1.4260   -2.2900   -1.0160 N   0  0  0  0  0  0  0  0  0  0  0  0
   -0.2850   -0.6710   -0.7090 C   0  0  0  0  0  0  0  0  0  0  0  0
    0.6580    0.2160   -0.6430 C   0  0  0  0  0  0  0  0  0  0  0  0
    0.3750    1.6530   -0.5410 C   0  0  0  0  0  0  0  0  0  0  0  0
    2.0240   -0.1870   -0.6690 N   0  0  0  0  0  0  0  0  0  0  0  0
    2.7110   -0.4770    0.4610 O   0  0  0  0  0  0  0  0  0  0  0  0
    3.9970    0.0080    0.3030 C   0  0  0  0  0  0  0  0  0  0  0  0
    4.7910   -0.3060    1.5640 C   0  0  0  0  0  0  0  0  0  0  0  0
    6.5280    0.3080    1.4420 P   0  0  0  0  0  0  0  0  0  0  0  0
   -1.6600   -0.2030   -0.6860 N   0  0  0  0  0  0  0  0  0  0  0  0
   -1.7080    0.8800   -1.4610 O   0  0  0  0  0  0  0  0  0  0  0  0
   -3.1290    1.7940   -1.5090 P   0  0  0  0  0  0  0  0  0  0  0  0
   -2.8330    3.4780   -1.6700 O   0  0  0  0  0  0  0  0  0  0  0  0
  1  2  1  0
  2  3  1  0
  3  4  1  0
  3 24  1  0
  4  5  1  0
  5  6  2  0
  5 22  1  0
  6  7  1  0
  6  8  1  0
  8  9  1  0
  9 10  1  0
  9 12  1  0
 10 11  2  0
 12 13  2  0
 12 14  1  0
 14 15  2  3
 14 22  1  0
 15 16  1  0
 15 17  1  0
 17 18  1  0
 18 19  1  0
 19 20  1  0
 20 21  1  0
 22 23  1  0
 23 24  1  0
 24 25  1  0
M  END
