
     RDKit          3D

 26 27  0  0  0  0  0  0  0  0999 V2000
    4.3540   -1.2680    2.8940 O   0  0  0  0  0  0  0  0  0  0  0  0
    3.2660   -2.2010    2.2840 P   0  0  0  0  0  0  0  0  0  0  0  0
    2.5390   -1.7910    0.6590 N   0  0  0  0  0  0  0  0  0  0  0  0
    1.9890   -2.7910   -0.0580 N   0  0  0  0  0  0  0  0  0  0  0  0
    2.3230   -3.7870   -0.6480 N   0  0  0  0  0  0  0  0  0  0  0  0
    3.6170   -4.2180   -0.7540 O   0  0  0  0  0  0  0  0  0  0  0  0
    2.5980   -0.4070    0.2600 C   0  0  0  0  0  0  0  0  0  0  0  0
    3.7250    0.2320    0.2040 N   0  0  0  0  0  0  0  0  0  0  0  0
    3.5510    1.5960   -0.2160 C   0  0  0  0  0  0  0  0  0  0  0  0
    2.0570    1.8290   -0.0440 C   0  0  1  0  0  0  0  0  0  0  0  0
    1.6450    2.7780   -1.0710 C   0  0  0  0  0  0  0  0  0  0  0  0
    0.9410    2.5770   -2.0810 O   0  0  0  0  0  0  0  0  0  0  0  0
    2.0900    4.1080   -0.9230 O   0  0  0  0  0  0  0  0  0  0  0  0
    1.5020    0.4740   -0.1220 C   0  0  0  0  0  0  0  0  0  0  0  0
    0.2570    0.1100   -0.4370 C   0  0  0  0  0  0  0  0  0  0  0  0
   -0.1820   -1.1860   -0.4450 O   0  0  0  0  0  0  0  0  0  0  0  0
   -1.3620   -1.6280    0.1160 N   0  0  0  0  0  0  0  0  0  0  0  0
   -2.5410   -1.1480   -0.5950 C   0  0  2  0  0  0  0  0  0  0  0  0
   -4.0040   -1.3650    0.5360 P   0  0  0  0  0  0  0  0  0  0  0  0
   -2.6950   -2.2650   -2.0990 P   0  0  0  0  0  0  0  0  0  0  0  0
   -2.3450    0.6070   -1.1040 P   0  0  0  0  0  0  0  0  0  0  0  0
   -3.3710    1.6720    0.0530 C   0  0  0  0  0  0  0  0  0  0  0  0
   -2.6160    1.6620    1.3470 C   0  0  0  0  0  0  0  0  0  0  0  0
   -1.5730    2.3950    1.4100 O   0  0  0  0  0  0  0  0  0  0  0  0
   -2.9840    0.9210    2.4470 O   0  0  0  0  0  0  0  0  0  0  0  0
   -0.6670    1.0810   -0.7850 O   0  0  0  0  0  0  0  0  0  0  0  0
  1  2  2  0
  2  3  1  0
  3  4  1  0
  3  7  1  0
  4  5  2  3
  5  6  1  0
  7  8  2  0
  7 14  1  0
  8  9  1  0
  9 10  1  0
 10 11  1  6
 10 14  1  0
 11 12  2  0
 11 13  1  0
 14 15  2  3
 15 16  1  0
 15 26  1  0
 16 17  1  0
 17 18  1  0
 18 19  1  1
 18 20  1  0
 18 21  1  0
 21 22  1  0
 21 26  1  0
 22 23  1  0
 23 24  2  0
 23 25  1  0
M  END
