
     RDKit          3D

 26 26  0  0  0  0  0  0  0  0999 V2000
   -5.6920   -2.5880    0.9290 C   0  0  0  0  0  0  0  0  0  0  0  0
   -5.3430   -1.5640    1.8110 O   0  0  0  0  0  0  0  0  0  0  0  0
   -5.2060   -0.1030    0.9260 P   0  0  0  0  0  0  0  0  0  0  0  0
   -3.7760    0.5590    0.4370 C   0  0  0  0  0  0  0  0  0  0  0  0
   -2.5070   -0.1180    0.7630 C   0  0  0  0  0  0  0  0  0  0  0  0
   -1.5590   -0.5770   -0.7680 P   0  0  0  0  0  0  0  0  0  0  0  0
   -2.5410   -1.6580   -1.6970 O   0  0  0  0  0  0  0  0  0  0  0  0
    0.0270   -1.4180   -0.3690 C   0  0  0  0  0  0  0  0  0  0  0  0
    1.1110   -0.4810   -0.0250 C   0  0  0  0  0  0  0  0  0  0  0  0
    0.9590    0.3860    1.0740 N   0  0  0  0  0  0  0  0  0  0  0  0
    2.2330   -0.4230   -0.7190 C   0  0  0  0  0  0  0  0  0  0  0  0
    2.5580   -1.1910   -1.8240 O   0  0  0  0  0  0  0  0  0  0  0  0
    3.8070   -0.8750   -2.3070 C   0  0  0  0  0  0  0  0  0  0  0  0
    4.4570   -1.4790   -3.4420 N   0  0  0  0  0  0  0  0  0  0  0  0
    5.3670   -2.2970   -3.3220 O   0  0  0  0  0  0  0  0  0  0  0  0
    4.2900    0.0820   -1.5330 C   0  0  0  0  0  0  0  0  0  0  0  0
    3.3520    0.4230   -0.5060 N   0  0  0  0  0  0  0  0  0  0  0  0
    3.5040    1.3860    0.5000 C   0  0  0  0  0  0  0  0  0  0  0  0
    4.5760    1.4320    1.2060 N   0  0  0  0  0  0  0  0  0  0  0  0
    5.8710    0.2640    0.9000 P   0  0  0  0  0  0  0  0  0  0  0  0
    7.4910    1.0460    0.6470 C   0  0  0  0  0  0  0  0  0  0  0  0
    7.5220    2.1500    0.1300 O   0  0  0  0  0  0  0  0  0  0  0  0
   -3.7780    1.7390   -0.2710 O   0  0  0  0  0  0  0  0  0  0  0  0
   -4.9630    2.3850   -0.5830 C   0  0  0  0  0  0  0  0  0  0  0  0
   -4.9790    3.6040   -1.3140 N   0  0  0  0  0  0  0  0  0  0  0  0
   -6.0430    1.8690   -0.2050 O   0  0  0  0  0  0  0  0  0  0  0  0
  1  2  1  0
  2  3  1  0
  3  4  2  3
  4  5  1  0
  4 23  1  0
  5  6  1  0
  6  7  1  0
  6  8  1  0
  8  9  1  0
  9 10  1  0
  9 11  2  3
 11 12  1  0
 11 17  1  0
 12 13  1  0
 13 14  1  0
 13 16  2  0
 14 15  2  0
 16 17  1  0
 17 18  1  0
 18 19  2  3
 19 20  1  0
 20 21  1  0
 21 22  2  0
 23 24  1  0
 24 25  1  0
 24 26  2  0
M  END
