
     RDKit          3D

 25 26  0  0  0  0  0  0  0  0999 V2000
    6.7030    0.4960    1.6040 C   0  0  0  0  0  0  0  0  0  0  0  0
    6.9340    0.3720    0.1960 N   0  0  0  0  0  0  0  0  0  0  0  0
    6.1490   -0.1990   -0.6270 C   0  0  0  0  0  0  0  0  0  0  0  0
    6.5450   -0.2390   -2.0610 C   0  0  0  0  0  0  0  0  0  0  0  0
    4.9610   -0.7720   -0.2200 O   0  0  0  0  0  0  0  0  0  0  0  0
    4.3910   -0.3710    0.9230 O   0  0  0  0  0  0  0  0  0  0  0  0
    2.8020    0.3090    0.6290 P   0  0  0  0  0  0  0  0  0  0  0  0
    1.6430   -0.9500    1.1170 O   0  0  0  0  0  0  0  0  0  0  0  0
    0.2270   -0.9260    0.8930 C   0  0  0  0  0  0  0  0  0  0  0  0
   -0.4830   -2.3790    1.3030 P   0  0  0  0  0  0  0  0  0  0  0  0
   -2.6600   -2.2070    0.9180 P   0  0  0  0  0  0  0  0  0  0  0  0
   -2.9730   -0.6940    0.3450 C   0  0  0  0  0  0  0  0  0  0  0  0
   -4.3660   -0.3380    0.0060 C   0  0  0  0  0  0  0  0  0  0  0  0
   -4.6930    0.9950   -0.5000 C   0  0  0  0  0  0  0  0  0  0  0  0
   -4.4820    1.9800    0.4990 N   0  0  0  0  0  0  0  0  0  0  0  0
   -5.2860   -1.2090    0.1640 N   0  0  0  0  0  0  0  0  0  0  0  0
   -6.6400   -1.0050   -0.1170 C   0  0  0  0  0  0  0  0  0  0  0  0
   -7.5300   -1.0600    0.8020 N   0  0  0  0  0  0  0  0  0  0  0  0
   -7.1630   -1.3220    2.0850 O   0  0  0  0  0  0  0  0  0  0  0  0
   -1.9380    0.3090    0.2000 C   0  0  0  0  0  0  0  0  0  0  0  0
   -0.5770    0.0990    0.4020 N   0  0  0  0  0  0  0  0  0  0  0  0
    0.0660    1.2930   -0.0330 O   0  0  0  0  0  0  0  0  0  0  0  0
    0.9620    0.8180   -1.4080 P   0  0  0  0  0  0  0  0  0  0  0  0
    0.2710   -0.4770   -2.2840 O   0  0  0  0  0  0  0  0  0  0  0  0
    2.6440    0.6140   -1.0890 O   0  0  0  0  0  0  0  0  0  0  0  0
  1  2  1  0
  2  3  2  3
  3  4  1  0
  3  5  1  0
  5  6  1  0
  6  7  1  0
  7  8  1  0
  7 25  1  0
  8  9  1  0
  9 10  2  0
  9 21  1  0
 10 11  1  0
 11 12  2  0
 12 13  1  0
 12 20  1  0
 13 14  1  0
 13 16  2  3
 14 15  1  0
 16 17  1  0
 17 18  2  3
 18 19  1  0
 20 21  1  0
 21 22  1  0
 22 23  1  0
 23 24  1  0
 23 25  1  0
M  END
