
     RDKit          3D

 23 25  0  0  0  0  0  0  0  0999 V2000
    4.2470    0.7640    2.2600 C   0  0  0  0  0  0  0  0  0  0  0  0
    4.7420   -0.1370    1.2890 O   0  0  0  0  0  0  0  0  0  0  0  0
    4.0080   -0.3810    0.1290 C   0  0  0  0  0  0  0  0  0  0  0  0
    2.7880    0.2480   -0.0960 C   0  0  0  0  0  0  0  0  0  0  0  0
    2.0810   -0.0090   -1.2490 C   0  0  0  0  0  0  0  0  0  0  0  0
    0.7650    0.6370   -1.5470 C   0  0  1  0  0  0  0  0  0  0  0  0
    0.8230    1.0510   -2.8880 O   0  0  0  0  0  0  0  0  0  0  0  0
   -0.3020   -0.2050   -1.4140 O   0  0  0  0  0  0  0  0  0  0  0  0
   -1.3800    0.0230   -0.5940 C   0  0  0  0  0  0  0  0  0  0  0  0
   -1.5460    1.1260    0.2120 C   0  0  0  0  0  0  0  0  0  0  0  0
   -2.6850    1.2610    1.0110 C   0  0  0  0  0  0  0  0  0  0  0  0
   -2.7750    2.4860    1.8460 C   0  0  0  0  0  0  0  0  0  0  0  0
   -3.6840    0.3140    1.0350 C   0  0  0  0  0  0  0  0  0  0  0  0
   -4.8500    0.1970    1.6910 N   0  0  0  0  0  0  0  0  0  0  0  0
   -5.4800   -0.9430    1.3620 C   0  0  0  0  0  0  0  0  0  0  0  0
   -4.6580   -1.5740    0.4450 C   0  0  0  0  0  0  0  0  0  0  0  0
   -3.5340   -0.7970    0.2350 C   0  0  0  0  0  0  0  0  0  0  0  0
   -2.4180   -0.9270   -0.5470 C   0  0  0  0  0  0  0  0  0  0  0  0
   -2.3030   -2.0910   -1.3590 N   0  0  0  0  0  0  0  0  0  0  0  0
    2.6210   -0.8980   -2.1520 C   0  0  0  0  0  0  0  0  0  0  0  0
    3.8460   -1.5260   -1.9200 C   0  0  0  0  0  0  0  0  0  0  0  0
    4.5590   -1.2730   -0.7670 C   0  0  0  0  0  0  0  0  0  0  0  0
    5.7820   -1.9050   -0.5420 O   0  0  0  0  0  0  0  0  0  0  0  0
  1  2  1  0
  2  3  1  0
  3  4  2  0
  3 22  1  0
  4  5  1  0
  5  6  1  0
  5 20  2  0
  6  7  1  6
  6  8  1  0
  8  9  1  0
  9 10  2  0
  9 18  1  0
 10 11  1  0
 11 12  1  0
 11 13  2  0
 13 14  1  0
 13 17  1  0
 14 15  1  0
 15 16  2  0
 16 17  1  0
 17 18  2  0
 18 19  1  0
 20 21  1  0
 21 22  2  0
 22 23  1  0
M  END
