
     RDKit          3D

 23 24  0  0  0  0  0  0  0  0999 V2000
    1.3300    3.1210   -2.7450 N   0  0  0  0  0  0  0  0  0  0  0  0
    0.3650    2.2880   -2.0330 C   0  0  0  0  0  0  0  0  0  0  0  0
   -0.7810    2.4170   -2.4860 O   0  0  0  0  0  0  0  0  0  0  0  0
    0.8010    1.4680   -0.9640 C   0  0  0  0  0  0  0  0  0  0  0  0
    0.2690    0.6530   -0.1590 C   0  0  0  0  0  0  0  0  0  0  0  0
    1.2730    0.0820    0.7720 O   0  0  0  0  0  0  0  0  0  0  0  0
    1.6150   -1.2160    0.4820 C   0  0  0  0  0  0  0  0  0  0  0  0
    2.8490   -1.6280    0.5030 C   0  0  0  0  0  0  0  0  0  0  0  0
    3.9750   -0.7670    0.8320 C   0  0  0  0  0  0  0  0  0  0  0  0
    5.2490   -1.2060    0.8510 C   0  0  0  0  0  0  0  0  0  0  0  0
    6.1350   -0.0960    1.2180 C   0  0  0  0  0  0  0  0  0  0  0  0
    5.2350    1.0540    1.4150 C   0  0  0  0  0  0  0  0  0  0  0  0
    4.0100    0.6460    1.1890 C   0  0  0  0  0  0  0  0  0  0  0  0
   -1.0280    0.1310    0.1030 C   0  0  0  0  0  0  0  0  0  0  0  0
   -1.1060   -0.7250    1.0780 O   0  0  0  0  0  0  0  0  0  0  0  0
   -2.2570    0.3740   -0.5090 N   0  0  0  0  0  0  0  0  0  0  0  0
   -3.5110   -0.2020   -0.1560 C   0  0  0  0  0  0  0  0  0  0  0  0
   -3.7560   -0.7640    1.0600 C   0  0  0  0  0  0  0  0  0  0  0  0
   -5.0200   -1.3250    1.2960 C   0  0  0  0  0  0  0  0  0  0  0  0
   -6.0200   -1.3300    0.3550 C   0  0  0  0  0  0  0  0  0  0  0  0
   -7.2740   -1.8930    0.6050 O   0  0  0  0  0  0  0  0  0  0  0  0
   -5.7650   -0.7590   -0.8710 C   0  0  0  0  0  0  0  0  0  0  0  0
   -4.5420   -0.2110   -1.1150 C   0  0  0  0  0  0  0  0  0  0  0  0
  1  2  1  0
  2  3  2  0
  2  4  1  0
  4  5  2  3
  5  6  1  0
  5 14  1  0
  6  7  1  0
  7  8  2  3
  8  9  1  0
  9 10  2  0
  9 13  1  0
 10 11  1  0
 11 12  1  0
 12 13  2  0
 14 15  2  0
 14 16  1  0
 16 17  1  0
 17 18  2  0
 17 23  1  0
 18 19  1  0
 19 20  2  0
 20 21  1  0
 20 22  1  0
 22 23  2  0
M  END
