
     RDKit          3D

 23 25  0  0  0  0  0  0  0  0999 V2000
    5.0320    3.8520    3.1880 C   0  0  0  0  0  0  0  0  0  0  0  0
    5.0140    3.0780    2.1300 C   0  0  0  0  0  0  0  0  0  0  0  0
    5.7400    2.2710    1.1480 C   0  0  0  0  0  0  0  0  0  0  0  0
    6.8800    1.7970    0.6840 C   0  0  0  0  0  0  0  0  0  0  0  0
    4.2460    2.3980    1.0800 C   0  0  1  0  0  0  0  0  0  0  0  0
    3.5110    1.2140    1.4360 N   0  0  0  0  0  0  0  0  0  0  0  0
    2.2790    0.9470    0.8100 C   0  0  0  0  0  0  0  0  0  0  0  0
    1.8540    1.7770   -0.0620 O   0  0  0  0  0  0  0  0  0  0  0  0
    1.5100   -0.2590    1.1580 C   0  0  0  0  0  0  0  0  0  0  0  0
    0.2380   -0.3260    0.3650 C   0  0  0  0  0  0  0  0  0  0  0  0
    0.0450    0.6090   -0.4260 O   0  0  0  0  0  0  0  0  0  0  0  0
   -0.6790   -1.3620    0.4950 N   0  0  0  0  0  0  0  0  0  0  0  0
   -1.8960   -1.5140   -0.2020 C   0  0  0  0  0  0  0  0  0  0  0  0
   -2.3280   -0.5980   -1.1380 C   0  0  0  0  0  0  0  0  0  0  0  0
   -3.5430   -0.7950   -1.8010 C   0  0  0  0  0  0  0  0  0  0  0  0
   -4.2910   -1.9020   -1.5100 C   0  0  0  0  0  0  0  0  0  0  0  0
   -3.8440   -2.8290   -0.5560 C   0  0  0  0  0  0  0  0  0  0  0  0
   -2.6590   -2.6440    0.0950 C   0  0  0  0  0  0  0  0  0  0  0  0
   -2.1750   -3.5300    1.0440 O   0  0  0  0  0  0  0  0  0  0  0  0
   -5.5710   -2.1520   -2.1800 C   0  0  0  0  0  0  0  0  0  0  0  0
   -5.9330   -1.1790   -3.1070 O   0  0  0  0  0  0  0  0  0  0  0  0
   -5.1710   -0.0840   -3.3810 C   0  0  0  0  0  0  0  0  0  0  0  0
   -4.0120    0.1640   -2.7910 C   0  0  0  0  0  0  0  0  0  0  0  0
  1  2  2  0
  2  3  1  0
  2  5  1  0
  3  4  2  0
  3  5  1  0
  5  6  1  1
  6  7  1  0
  7  8  2  0
  7  9  1  0
  9 10  1  0
 10 11  2  0
 10 12  1  0
 12 13  1  0
 13 14  2  0
 13 18  1  0
 14 15  1  0
 15 16  2  0
 15 23  1  0
 16 17  1  0
 16 20  1  0
 17 18  2  0
 18 19  1  0
 20 21  1  0
 21 22  1  0
 22 23  2  0
M  END
