
     RDKit          3D

 23 25  0  0  0  0  0  0  0  0999 V2000
   -6.6710    0.2060   -0.0060 N   0  0  0  0  0  0  0  0  0  0  0  0
   -5.4270   -0.2240   -0.5820 C   0  0  0  0  0  0  0  0  0  0  0  0
   -4.2240    0.2230   -0.0780 C   0  0  0  0  0  0  0  0  0  0  0  0
   -3.0270   -0.1900   -0.6310 C   0  0  0  0  0  0  0  0  0  0  0  0
   -1.7430    0.2670   -0.1180 C   0  0  0  0  0  0  0  0  0  0  0  0
   -1.5740    1.6030    0.1670 C   0  0  0  0  0  0  0  0  0  0  0  0
   -0.3780    2.0660    0.6510 C   0  0  0  0  0  0  0  0  0  0  0  0
    0.7270    1.2120    0.8790 C   0  0  0  0  0  0  0  0  0  0  0  0
    1.8570    1.7330    1.3530 O   0  0  0  0  0  0  0  0  0  0  0  0
    3.1140    1.4540    1.7120 C   0  0  0  0  0  0  0  0  0  0  0  0
    4.0920    0.9570    0.6720 C   0  0  1  0  0  0  0  0  0  0  0  0
    5.4960    1.0100    1.1850 C   0  0  0  0  0  0  0  0  0  0  0  0
    6.3820    0.1740    0.5930 O   0  0  0  0  0  0  0  0  0  0  0  0
    5.9110   -0.6070   -0.4200 C   0  0  0  0  0  0  0  0  0  0  0  0
    4.5950   -1.2240    0.0760 C   0  0  0  0  0  0  0  0  0  0  0  0
    3.6910   -0.1950    0.1210 O   0  0  0  0  0  0  0  0  0  0  0  0
    0.5140   -0.1070    0.5830 C   0  0  0  0  0  0  0  0  0  0  0  0
   -0.6920   -0.5940    0.0920 C   0  0  0  0  0  0  0  0  0  0  0  0
   -0.8910   -1.9700   -0.2090 N   0  0  0  0  0  0  0  0  0  0  0  0
   -3.1040   -1.0640   -1.7040 C   0  0  0  0  0  0  0  0  0  0  0  0
   -4.3070   -1.5150   -2.2130 C   0  0  0  0  0  0  0  0  0  0  0  0
   -5.4940   -1.0940   -1.6500 C   0  0  0  0  0  0  0  0  0  0  0  0
   -6.7310   -1.5130   -2.1190 O   0  0  0  0  0  0  0  0  0  0  0  0
  1  2  1  0
  2  3  2  0
  2 22  1  0
  3  4  1  0
  4  5  1  0
  4 20  2  0
  5  6  2  0
  5 18  1  0
  6  7  1  0
  7  8  2  0
  8  9  1  0
  8 17  1  0
  9 10  1  0
 11 10  1  1
 11 12  1  0
 11 16  1  0
 12 13  1  0
 13 14  1  0
 14 15  1  0
 15 16  1  0
 17 18  2  0
 18 19  1  0
 20 21  1  0
 21 22  2  0
 22 23  1  0
M  END
