
     RDKit          3D

 23 24  0  0  0  0  0  0  0  0999 V2000
   -4.7750    2.6720   -0.6030 C   0  0  0  0  0  0  0  0  0  0  0  0
   -5.0430    1.4110   -0.4900 C   0  0  0  0  0  0  0  0  0  0  0  0
   -6.4730    1.1730   -0.5740 O   0  0  0  0  0  0  0  0  0  0  0  0
   -4.2430    0.2760   -0.3080 C   0  0  0  0  0  0  0  0  0  0  0  0
   -2.8070    0.1950   -0.1880 C   0  0  0  0  0  0  0  0  0  0  0  0
   -1.9640    1.1620   -0.2260 C   0  0  0  0  0  0  0  0  0  0  0  0
   -0.5150    0.8950   -0.0860 C   0  0  0  0  0  0  0  0  0  0  0  0
    0.2240    1.9170   -0.1370 O   0  0  0  0  0  0  0  0  0  0  0  0
    0.0860   -0.3470    0.0920 N   0  0  0  0  0  0  0  0  0  0  0  0
    1.4870   -0.6190    0.2250 C   0  0  0  0  0  0  0  0  0  0  0  0
    1.8680   -1.9170    0.5890 C   0  0  0  0  0  0  0  0  0  0  0  0
    3.1900   -2.2510    0.7240 C   0  0  0  0  0  0  0  0  0  0  0  0
    4.1560   -1.3160    0.5040 C   0  0  0  0  0  0  0  0  0  0  0  0
    3.8330   -0.0250    0.1440 C   0  0  0  0  0  0  0  0  0  0  0  0
    2.4870    0.2820    0.0150 C   0  0  0  0  0  0  0  0  0  0  0  0
    4.6970    1.0550   -0.1190 N   0  0  0  0  0  0  0  0  0  0  0  0
    6.1000    1.1050   -0.4340 C   0  0  0  0  0  0  0  0  0  0  0  0
    6.9220    0.1350    0.3020 C   0  0  0  0  0  0  0  0  0  0  0  0
    6.6420   -1.0680    0.7570 C   0  0  0  0  0  0  0  0  0  0  0  0
    5.4590   -1.8100    0.6820 O   0  0  0  0  0  0  0  0  0  0  0  0
   -4.8500   -0.9540   -0.2240 C   0  0  0  0  0  0  0  0  0  0  0  0
   -6.2760   -1.2090   -0.3070 C   0  0  0  0  0  0  0  0  0  0  0  0
   -4.0300   -2.0980   -0.0390 O   0  0  0  0  0  0  0  0  0  0  0  0
  1  2  2  0
  2  3  1  0
  2  4  1  0
  4  5  1  0
  4 21  2  3
  5  6  2  3
  6  7  1  0
  7  8  2  0
  7  9  1  0
  9 10  1  0
 10 11  2  0
 10 15  1  0
 11 12  1  0
 12 13  2  0
 13 14  1  0
 13 20  1  0
 14 15  2  0
 14 16  1  0
 16 17  1  0
 17 18  1  0
 18 19  2  0
 19 20  1  0
 21 22  1  0
 21 23  1  0
M  END
