
     RDKit          3D

 22 24  0  0  0  0  0  0  0  0999 V2000
   -6.0810    1.4500   -0.8060 N   0  0  0  0  0  0  0  0  0  0  0  0
   -5.0470    0.6210   -0.3040 C   0  0  0  0  0  0  0  0  0  0  0  0
   -5.2640   -0.6970    0.0320 C   0  0  0  0  0  0  0  0  0  0  0  0
   -4.2430   -1.4660    0.5130 C   0  0  0  0  0  0  0  0  0  0  0  0
   -2.9800   -0.9330    0.6670 C   0  0  0  0  0  0  0  0  0  0  0  0
   -1.9750   -1.7020    1.1420 N   0  0  0  0  0  0  0  0  0  0  0  0
   -0.7430   -1.1500    1.2800 C   0  0  0  0  0  0  0  0  0  0  0  0
   -0.4600    0.1490    0.9650 C   0  0  0  0  0  0  0  0  0  0  0  0
    0.9000    0.7600    1.1240 C   0  0  0  0  0  0  0  0  0  0  0  0
    1.5860    0.9240   -0.1840 C   0  0  0  0  0  0  0  0  0  0  0  0
    1.8380   -0.3110   -0.9760 C   0  0  1  0  0  0  0  0  0  0  0  0
    2.4820    0.0900   -2.1580 O   0  0  0  0  0  0  0  0  0  0  0  0
    2.7810   -1.2870   -0.3320 C   0  0  0  0  0  0  0  0  0  0  0  0
    4.0810   -0.6090   -0.1290 C   0  0  0  0  0  0  0  0  0  0  0  0
    4.4660    0.0980    1.0040 C   0  0  0  0  0  0  0  0  0  0  0  0
    5.7390    0.5730    0.7880 C   0  0  0  0  0  0  0  0  0  0  0  0
    6.1100    0.1810   -0.4020 O   0  0  0  0  0  0  0  0  0  0  0  0
    5.1590   -0.5200   -0.9760 C   0  0  0  0  0  0  0  0  0  0  0  0
   -1.5220    0.9120    0.4790 C   0  0  0  0  0  0  0  0  0  0  0  0
   -1.3080    2.1120    0.1760 O   0  0  0  0  0  0  0  0  0  0  0  0
   -2.7820    0.3950    0.3230 C   0  0  0  0  0  0  0  0  0  0  0  0
   -3.8000    1.1940   -0.1660 C   0  0  0  0  0  0  0  0  0  0  0  0
  1  2  1  0
  2  3  2  0
  2 22  1  0
  3  4  1  0
  4  5  2  0
  5  6  1  0
  5 21  1  0
  6  7  1  0
  7  8  2  0
  8  9  1  0
  8 19  1  0
  9 10  1  0
 10 11  1  0
 11 12  1  6
 11 13  1  0
 13 14  1  0
 14 15  1  0
 14 18  2  0
 15 16  2  0
 16 17  1  0
 17 18  1  0
 19 20  2  0
 19 21  1  0
 21 22  2  0
M  END
