
     RDKit          3D

 21 21  0  0  0  0  0  0  0  0999 V2000
    4.9820    1.9490   -0.0360 C   0  0  0  0  0  0  0  0  0  0  0  0
    5.0410    0.9650   -0.9770 O   0  0  0  0  0  0  0  0  0  0  0  0
    5.0040   -0.3060   -0.4640 C   0  0  0  0  0  0  0  0  0  0  0  0
    3.7240   -0.5640    0.3010 C   0  0  2  0  0  0  0  0  0  0  0  0
    3.6900   -1.8540    0.7980 O   0  0  0  0  0  0  0  0  0  0  0  0
    2.5880   -0.2010   -0.5780 C   0  0  0  0  0  0  0  0  0  0  0  0
    1.3770   -0.2080    0.0310 O   0  0  0  0  0  0  0  0  0  0  0  0
    1.0010   -1.4170    0.5320 C   0  0  0  0  0  0  0  0  0  0  0  0
   -0.2880   -1.2630    1.1100 O   0  0  0  0  0  0  0  0  0  0  0  0
   -1.1940   -0.8390    0.1260 C   0  0  2  0  0  0  0  0  0  0  0  0
   -1.7000    0.5140    0.5590 C   0  0  0  0  0  0  0  0  0  0  0  0
   -2.7230    1.0810   -0.3940 C   0  0  2  0  0  0  0  0  0  0  0  0
   -2.0020    1.9370   -1.3260 N   0  0  0  0  0  0  0  0  0  0  0  0
   -3.6570    1.9130    0.4040 C   0  0  0  0  0  0  0  0  0  0  0  0
   -3.7290    3.1510    0.2170 O   0  0  0  0  0  0  0  0  0  0  0  0
   -4.4750    1.3570    1.3740 O   0  0  0  0  0  0  0  0  0  0  0  0
   -5.3270    2.0810    2.1090 O   0  0  0  0  0  0  0  0  0  0  0  0
   -3.4320    0.0370   -1.1990 C   0  0  0  0  0  0  0  0  0  0  0  0
   -3.5850   -1.2770   -0.5150 C   0  0  0  0  0  0  0  0  0  0  0  0
   -2.3430   -1.8070    0.1230 C   0  0  1  0  0  0  0  0  0  0  0  0
   -1.8930   -3.0000   -0.4400 O   0  0  0  0  0  0  0  0  0  0  0  0
  1  2  1  0
  2  3  1  0
  3  4  1  0
  4  5  1  6
  4  6  1  0
  6  7  1  0
  7  8  1  0
  8  9  1  0
 10  9  1  1
 10 11  1  0
 10 20  1  0
 11 12  1  0
 12 13  1  6
 12 14  1  0
 12 18  1  0
 14 15  2  0
 14 16  1  0
 16 17  1  0
 18 19  1  0
 19 20  1  0
 20 21  1  6
M  END
