
     RDKit          3D

 22 22  0  0  0  0  0  0  0  0999 V2000
   -0.9270    3.6970   -1.9880 N   0  0  0  0  0  0  0  0  0  0  0  0
   -0.9300    2.3270   -1.8350 O   0  0  0  0  0  0  0  0  0  0  0  0
   -1.3470    1.7340   -0.6270 C   0  0  0  0  0  0  0  0  0  0  0  0
   -1.7050    2.5040    0.2740 O   0  0  0  0  0  0  0  0  0  0  0  0
   -1.3460    0.2830   -0.4740 C   0  0  2  0  0  0  0  0  0  0  0  0
    0.0650   -0.2420   -0.5480 C   0  0  1  0  0  0  0  0  0  0  0  0
    0.4950    0.1660   -1.8430 O   0  0  0  0  0  0  0  0  0  0  0  0
    1.0330    0.3120    0.3920 C   0  0  0  0  0  0  0  0  0  0  0  0
    2.4020   -0.2960    0.2360 C   0  0  1  0  0  0  0  0  0  0  0  0
    3.0610   -0.1380   -1.0770 C   0  0  0  0  0  0  0  0  0  0  0  0
    4.3320   -0.7680   -0.9370 O   0  0  0  0  0  0  0  0  0  0  0  0
    3.1900    0.3120    1.2180 O   0  0  0  0  0  0  0  0  0  0  0  0
    3.6590   -0.6010    2.1510 C   0  0  0  0  0  0  0  0  0  0  0  0
    4.4280    0.0820    3.0840 O   0  0  0  0  0  0  0  0  0  0  0  0
   -1.9100   -0.3300   -1.7990 C   0  0  0  0  0  0  0  0  0  0  0  0
   -1.6080   -1.6630   -1.7140 O   0  0  0  0  0  0  0  0  0  0  0  0
   -2.1120   -2.3610   -0.6650 C   0  0  0  0  0  0  0  0  0  0  0  0
   -1.8420   -1.7530    0.7000 C   0  0  0  0  0  0  0  0  0  0  0  0
   -2.2320   -0.2930    0.5460 C   0  0  2  0  0  0  0  0  0  0  0  0
   -3.5520   -0.4150   -0.0090 O   0  0  0  0  0  0  0  0  0  0  0  0
   -2.5200    0.4120    1.7940 C   0  0  0  0  0  0  0  0  0  0  0  0
   -1.5620    0.7590    2.6610 O   0  0  0  0  0  0  0  0  0  0  0  0
  1  2  1  0
  2  3  1  0
  3  4  2  0
  5  3  1  6
  5  6  1  0
  5 15  1  0
  5 19  1  0
  6  7  1  6
  6  8  1  0
  9  8  1  6
  9 10  1  0
  9 12  1  0
 10 11  1  0
 12 13  1  0
 13 14  1  0
 15 16  1  0
 16 17  1  0
 17 18  1  0
 18 19  1  0
 19 20  1  6
 19 21  1  0
 21 22  1  0
M  END
