
     RDKit          3D

 21 21  0  0  0  0  0  0  0  0999 V2000
    5.6700    0.3810    0.0320 C   0  0  0  0  0  0  0  0  0  0  0  0
    4.3640    0.2080   -0.4280 O   0  0  0  0  0  0  0  0  0  0  0  0
    3.7930    1.4060   -0.8310 C   0  0  0  0  0  0  0  0  0  0  0  0
    2.3820    1.0790   -1.3060 C   0  0  1  0  0  0  0  0  0  0  0  0
    2.5270    0.1770   -2.3630 O   0  0  0  0  0  0  0  0  0  0  0  0
    1.6840    0.3940   -0.1330 C   0  0  0  0  0  0  0  0  0  0  0  0
    0.4230   -0.0620   -0.5010 O   0  0  0  0  0  0  0  0  0  0  0  0
   -0.1430   -0.6620    0.5890 C   0  0  2  0  0  0  0  0  0  0  0  0
   -0.2550    0.1950    1.8110 C   0  0  0  0  0  0  0  0  0  0  0  0
    0.7130   -1.7390    0.9600 O   0  0  0  0  0  0  0  0  0  0  0  0
   -1.4780   -1.3240    0.3300 C   0  0  2  0  0  0  0  0  0  0  0  0
   -1.8920   -1.8300    1.5770 O   0  0  0  0  0  0  0  0  0  0  0  0
   -1.3490   -2.4460   -0.4940 O   0  0  0  0  0  0  0  0  0  0  0  0
   -2.1880   -2.3390   -1.5630 C   0  0  0  0  0  0  0  0  0  0  0  0
   -2.3450   -3.1750   -2.5320 O   0  0  0  0  0  0  0  0  0  0  0  0
   -2.8900   -1.0760   -1.4030 C   0  0  0  0  0  0  0  0  0  0  0  0
   -3.8820   -0.5660   -2.3200 N   0  0  0  0  0  0  0  0  0  0  0  0
   -2.4800   -0.4800   -0.2990 C   0  0  0  0  0  0  0  0  0  0  0  0
   -3.0300    0.8440    0.1410 C   0  0  2  0  0  0  0  0  0  0  0  0
   -3.7020    0.7870    1.4800 C   0  0  0  0  0  0  0  0  0  0  0  0
   -3.9700    1.3350   -0.7810 O   0  0  0  0  0  0  0  0  0  0  0  0
  1  2  1  0
  2  3  1  0
  3  4  1  0
  4  5  1  6
  4  6  1  0
  6  7  1  0
  7  8  1  0
  8  9  1  1
  8 10  1  0
  8 11  1  0
 11 12  1  1
 11 13  1  0
 11 18  1  0
 13 14  1  0
 14 15  2  0
 14 16  1  0
 16 17  1  0
 16 18  2  0
 18 19  1  0
 19 20  1  1
 19 21  1  0
M  END
