
     RDKit          3D

 23 24  0  0  0  0  0  0  0  0999 V2000
    4.2000    0.7640    1.7480 O   0  0  0  0  0  0  0  0  0  0  0  0
    4.9820   -0.2320    1.2840 C   0  0  0  0  0  0  0  0  0  0  0  0
    4.6700   -0.8820    0.1230 C   0  0  0  0  0  0  0  0  0  0  0  0
    3.4430   -0.4490   -0.6000 C   0  0  0  0  0  0  0  0  0  0  0  0
    3.1710   -1.0060   -1.7470 C   0  0  0  0  0  0  0  0  0  0  0  0
    2.0600   -0.6940   -2.4740 O   0  0  0  0  0  0  0  0  0  0  0  0
    2.6570    0.4830   -0.0610 O   0  0  0  0  0  0  0  0  0  0  0  0
    1.5800    0.7120    0.6510 C   0  0  0  0  0  0  0  0  0  0  0  0
    0.2100    0.3290    0.2270 C   0  0  0  0  0  0  0  0  0  0  0  0
   -0.6890    1.3800    0.1940 C   0  0  0  0  0  0  0  0  0  0  0  0
   -0.1590    2.6690    0.4280 O   0  0  0  0  0  0  0  0  0  0  0  0
   -2.0020    1.1570   -0.0570 C   0  0  0  0  0  0  0  0  0  0  0  0
   -2.8790    2.3920   -0.1400 C   0  0  2  0  0  0  0  0  0  0  0  0
   -3.1000    2.8550    1.1640 O   0  0  0  0  0  0  0  0  0  0  0  0
   -4.1940    2.0510   -0.7570 C   0  0  0  0  0  0  0  0  0  0  0  0
   -4.9530    3.2510   -0.7760 O   0  0  0  0  0  0  0  0  0  0  0  0
   -2.4660   -0.1020   -0.2710 C   0  0  0  0  0  0  0  0  0  0  0  0
   -1.5760   -1.1720   -0.2360 C   0  0  0  0  0  0  0  0  0  0  0  0
   -0.2300   -0.9300    0.0180 C   0  0  0  0  0  0  0  0  0  0  0  0
    0.5710   -2.0910    0.0340 O   0  0  0  0  0  0  0  0  0  0  0  0
   -0.1000   -3.2890    0.4690 C   0  0  0  0  0  0  0  0  0  0  0  0
   -1.2440   -3.5520   -0.4410 C   0  0  0  0  0  0  0  0  0  0  0  0
   -2.0800   -2.4090   -0.4520 O   0  0  0  0  0  0  0  0  0  0  0  0
  1  2  1  0
  2  3  2  3
  3  4  1  0
  4  5  2  3
  4  7  1  0
  5  6  1  0
  7  8  1  0
  8  9  1  0
  9 10  2  0
  9 19  1  0
 10 11  1  0
 10 12  1  0
 12 13  1  0
 12 17  2  0
 13 14  1  1
 13 15  1  0
 15 16  1  0
 17 18  1  0
 18 19  2  0
 18 23  1  0
 19 20  1  0
 20 21  1  0
 21 22  1  0
 22 23  1  0
M  END
