
     RDKit          3D

 23 24  0  0  0  0  0  0  0  0999 V2000
    5.2200   -2.1320   -0.5540 O   0  0  0  0  0  0  0  0  0  0  0  0
    4.4580   -1.0820    0.0030 C   0  0  0  0  0  0  0  0  0  0  0  0
    5.0430    0.2490   -0.3330 C   0  0  1  0  0  0  0  0  0  0  0  0
    4.9570    0.3730   -1.7390 O   0  0  0  0  0  0  0  0  0  0  0  0
    4.2790    1.3770    0.2780 C   0  0  0  0  0  0  0  0  0  0  0  0
    2.9890    1.4290    0.0040 O   0  0  0  0  0  0  0  0  0  0  0  0
    1.7470    1.0540    0.0050 C   0  0  0  0  0  0  0  0  0  0  0  0
    0.8190    1.8390   -0.7120 C   0  0  0  0  0  0  0  0  0  0  0  0
   -0.4910    1.4830   -0.7310 C   0  0  0  0  0  0  0  0  0  0  0  0
   -0.9450    0.3730   -0.0680 C   0  0  0  0  0  0  0  0  0  0  0  0
   -2.3700   -0.0170   -0.1070 C   0  0  0  0  0  0  0  0  0  0  0  0
   -2.6600   -1.3260   -0.3600 C   0  0  0  0  0  0  0  0  0  0  0  0
   -4.0000   -1.7260   -0.4060 C   0  0  0  0  0  0  0  0  0  0  0  0
   -4.2450   -3.0690   -0.6660 O   0  0  0  0  0  0  0  0  0  0  0  0
   -4.9810   -0.7940   -0.1970 C   0  0  0  0  0  0  0  0  0  0  0  0
   -6.3320   -1.1710   -0.2390 O   0  0  0  0  0  0  0  0  0  0  0  0
   -4.6420    0.5320    0.0580 C   0  0  0  0  0  0  0  0  0  0  0  0
   -5.6740    1.4240    0.2610 O   0  0  0  0  0  0  0  0  0  0  0  0
   -3.3350    0.9360    0.1060 C   0  0  0  0  0  0  0  0  0  0  0  0
   -2.9510    2.2510    0.3580 O   0  0  0  0  0  0  0  0  0  0  0  0
   -0.0750   -0.4000    0.6310 C   0  0  0  0  0  0  0  0  0  0  0  0
   -0.5520   -1.5370    1.3100 O   0  0  0  0  0  0  0  0  0  0  0  0
    1.2510   -0.0630    0.6670 C   0  0  0  0  0  0  0  0  0  0  0  0
  1  2  1  0
  2  3  1  0
  3  4  1  6
  3  5  1  0
  5  6  1  0
  6  7  1  0
  7  8  2  0
  7 23  1  0
  8  9  1  0
  9 10  2  0
 10 11  1  0
 10 21  1  0
 11 12  2  0
 11 19  1  0
 12 13  1  0
 13 14  1  0
 13 15  2  0
 15 16  1  0
 15 17  1  0
 17 18  1  0
 17 19  2  0
 19 20  1  0
 21 22  1  0
 21 23  2  0
M  END
