
     RDKit          3D

 14 14  0  0  0  0  0  0  0  0999 V2000
    4.9690   -0.1970   -0.6360 C   0  0  0  0  0  0  0  0  0  0  0  0
    3.7680   -0.7380   -0.1200 O   0  0  0  0  0  0  0  0  0  0  0  0
    2.6210    0.0270   -0.0040 C   0  0  0  0  0  0  0  0  0  0  0  0
    2.6410    1.2270   -0.3620 O   0  0  0  0  0  0  0  0  0  0  0  0
    1.3990   -0.4770    0.5080 N   0  0  0  0  0  0  0  0  0  0  0  0
    0.2270    0.3220    0.6220 C   0  0  2  0  0  0  0  0  0  0  0  0
   -0.2530    0.5170    2.0400 C   0  0  0  0  0  0  0  0  0  0  0  0
   -1.3440    1.4140    1.9620 O   0  0  0  0  0  0  0  0  0  0  0  0
   -2.4270    0.7160    1.4660 C   0  0  0  0  0  0  0  0  0  0  0  0
   -2.2180    0.3320    0.0420 C   0  0  1  0  0  0  0  0  0  0  0  0
   -2.5310    1.4890   -0.7920 N   0  0  0  0  0  0  0  0  0  0  0  0
   -0.8700   -0.2040   -0.2780 C   0  0  2  0  0  0  0  0  0  0  0  0
   -0.8940   -1.7120   -0.3200 C   0  0  0  0  0  0  0  0  0  0  0  0
   -1.9440   -2.0720   -1.1790 O   0  0  0  0  0  0  0  0  0  0  0  0
  1  2  1  0
  2  3  1  0
  3  4  2  0
  3  5  1  0
  6  5  1  1
  6  7  1  0
  6 12  1  0
  7  8  1  0
  8  9  1  0
  9 10  1  0
 10 11  1  6
 10 12  1  0
 12 13  1  1
 13 14  1  0
M  CHG  1  11   1
M  END
