
     RDKit          3D

 23 24  0  0  0  0  0  0  0  0999 V2000
    3.5520   -1.3300    1.2290 O   0  0  0  0  0  0  0  0  0  0  0  0
    4.6200   -0.4970    1.4490 C   0  0  0  0  0  0  0  0  0  0  0  0
    5.0430    0.3010    0.2350 C   0  0  0  0  0  0  0  0  0  0  0  0
    4.0810    1.1320   -0.2770 O   0  0  0  0  0  0  0  0  0  0  0  0
    2.8460    0.9340   -0.7760 C   0  0  0  0  0  0  0  0  0  0  0  0
    2.6310    0.6560   -2.1120 C   0  0  0  0  0  0  0  0  0  0  0  0
    3.7610    0.5930   -2.8990 O   0  0  0  0  0  0  0  0  0  0  0  0
    1.3510    0.4620   -2.5720 C   0  0  0  0  0  0  0  0  0  0  0  0
    1.1550    0.1850   -3.9050 O   0  0  0  0  0  0  0  0  0  0  0  0
    0.2440    0.5420   -1.7050 C   0  0  0  0  0  0  0  0  0  0  0  0
    0.4410    0.8170   -0.3780 C   0  0  0  0  0  0  0  0  0  0  0  0
   -0.5600    0.9060    0.5050 O   0  0  0  0  0  0  0  0  0  0  0  0
   -1.9110    0.7750    0.5180 C   0  0  0  0  0  0  0  0  0  0  0  0
   -2.3810   -0.5950    0.1680 C   0  0  1  0  0  0  0  0  0  0  0  0
   -1.8340   -1.4840    1.1060 O   0  0  0  0  0  0  0  0  0  0  0  0
   -3.8640   -0.7370    0.2910 C   0  0  0  0  0  0  0  0  0  0  0  0
   -4.7750    0.1470    0.6520 C   0  0  0  0  0  0  0  0  0  0  0  0
   -6.1060   -0.4950    0.6120 C   0  0  0  0  0  0  0  0  0  0  0  0
   -7.3360    0.0380    0.9020 O   0  0  0  0  0  0  0  0  0  0  0  0
   -5.8420   -1.7320    0.2230 C   0  0  0  0  0  0  0  0  0  0  0  0
   -4.5680   -1.9750    0.0060 C   0  0  0  0  0  0  0  0  0  0  0  0
    1.7490    1.0070    0.0510 C   0  0  0  0  0  0  0  0  0  0  0  0
    1.9380    1.2890    1.4080 O   0  0  0  0  0  0  0  0  0  0  0  0
  1  2  1  0
  2  3  1  0
  3  4  1  0
  4  5  1  0
  5  6  2  0
  5 22  1  0
  6  7  1  0
  6  8  1  0
  8  9  1  0
  8 10  2  0
 10 11  1  0
 11 12  1  0
 11 22  2  0
 12 13  1  0
 13 14  1  0
 14 15  1  1
 14 16  1  0
 16 17  2  0
 16 21  1  0
 17 18  1  0
 18 19  1  0
 18 20  2  0
 20 21  2  0
 22 23  1  0
M  END
