
     RDKit          3D

 23 24  0  0  0  0  0  0  0  0999 V2000
   -2.2930   -2.6220   -1.6540 O   0  0  0  0  0  0  0  0  0  0  0  0
   -1.1720   -2.6120   -0.8600 C   0  0  0  0  0  0  0  0  0  0  0  0
   -1.0750   -1.3200   -0.0290 C   0  0  1  0  0  0  0  0  0  0  0  0
   -2.2550   -1.3950    0.9240 C   0  0  0  0  0  0  0  0  0  0  0  0
   -3.4930   -0.7500    0.3630 C   0  0  0  0  0  0  0  0  0  0  0  0
   -3.2720    0.1170   -0.6750 O   0  0  0  0  0  0  0  0  0  0  0  0
   -4.2330    1.1500   -0.5910 C   0  0  0  0  0  0  0  0  0  0  0  0
   -3.6920    2.3000    0.2450 C   0  0  0  0  0  0  0  0  0  0  0  0
   -2.6030    1.8040    0.9660 O   0  0  0  0  0  0  0  0  0  0  0  0
   -1.4280    2.1980    0.3030 C   0  0  0  0  0  0  0  0  0  0  0  0
   -0.2030    1.6470    0.9950 C   0  0  0  0  0  0  0  0  0  0  0  0
    0.7140    1.2680   -0.0140 O   0  0  0  0  0  0  0  0  0  0  0  0
    1.6950    0.2910    0.0850 C   0  0  0  0  0  0  0  0  0  0  0  0
    1.3690   -1.0200    0.4520 C   0  0  0  0  0  0  0  0  0  0  0  0
    2.4110   -1.9190    0.5270 C   0  0  0  0  0  0  0  0  0  0  0  0
    3.7390   -1.5890    0.2580 C   0  0  0  0  0  0  0  0  0  0  0  0
    4.0500   -0.3200   -0.0980 C   0  0  0  0  0  0  0  0  0  0  0  0
    5.4650    0.0370   -0.3860 C   0  0  2  0  0  0  0  0  0  0  0  0
    5.7060    1.2610    0.2760 O   0  0  0  0  0  0  0  0  0  0  0  0
    5.6630    0.2630   -1.7500 O   0  0  0  0  0  0  0  0  0  0  0  0
    3.0170    0.6080   -0.1800 C   0  0  0  0  0  0  0  0  0  0  0  0
    3.4480    1.8900   -0.5590 O   0  0  0  0  0  0  0  0  0  0  0  0
    0.1060   -1.4410    0.7310 O   0  0  0  0  0  0  0  0  0  0  0  0
  1  2  1  0
  3  2  1  6
  3  4  1  0
  3 23  1  0
  4  5  1  0
  5  6  1  0
  6  7  1  0
  7  8  1  0
  8  9  1  0
  9 10  1  0
 10 11  1  0
 11 12  1  0
 12 13  1  0
 13 14  2  0
 13 21  1  0
 14 15  1  0
 14 23  1  0
 15 16  2  0
 16 17  1  0
 17 18  1  0
 17 21  2  0
 18 19  1  1
 18 20  1  0
 21 22  1  0
M  END
