
     RDKit          3D

 40 43  0  0  0  0  0  0  0  0999 V2000
    1.8960    6.3480   -0.8040 C   0  0  0  0  0  0  0  0  0  0  0  0
    0.8450    6.4220    0.2680 C   0  0  0  0  0  0  0  0  0  0  0  0
    1.2670    5.7470    1.3980 O   0  0  0  0  0  0  0  0  0  0  0  0
    1.5730    4.4220    1.5020 C   0  0  0  0  0  0  0  0  0  0  0  0
    1.4690    3.5940    0.4090 C   0  0  0  0  0  0  0  0  0  0  0  0
    1.7900    2.2510    0.5550 C   0  0  0  0  0  0  0  0  0  0  0  0
    2.2050    1.7220    1.7440 C   0  0  0  0  0  0  0  0  0  0  0  0
    2.4710    0.3390    1.9150 C   0  0  0  0  0  0  0  0  0  0  0  0
    3.0990    0.0210    3.0140 O   0  0  0  0  0  0  0  0  0  0  0  0
    2.1600   -0.7940    1.0640 C   0  0  0  0  0  0  0  0  0  0  0  0
    2.5990   -1.9810    1.3990 C   0  0  0  0  0  0  0  0  0  0  0  0
    2.4380   -3.2390    0.7440 C   0  0  0  0  0  0  0  0  0  0  0  0
    1.6720   -3.3660   -0.5430 C   0  0  0  0  0  0  0  0  0  0  0  0
    2.9750   -4.3490    1.2510 C   0  0  0  0  0  0  0  0  0  0  0  0
    2.7980   -5.6770    0.5570 C   0  0  0  0  0  0  0  0  0  0  0  0
    3.6770   -6.7160    1.2180 C   0  0  0  0  0  0  0  0  0  0  0  0
    3.4760   -6.7870    2.6980 C   0  0  0  0  0  0  0  0  0  0  0  0
    3.5120   -5.4940    3.4260 C   0  0  0  0  0  0  0  0  0  0  0  0
    3.7770   -4.3950    2.4540 C   0  0  0  0  0  0  0  0  0  0  0  0
    4.6690   -3.5170    2.6500 O   0  0  0  0  0  0  0  0  0  0  0  0
    1.3410   -0.6240   -0.0660 N   0  0  0  0  0  0  0  0  0  0  0  0
   -0.0560   -0.2300    0.1080 C   0  0  0  0  0  0  0  0  0  0  0  0
   -0.4240   -0.0720    1.2660 O   0  0  0  0  0  0  0  0  0  0  0  0
   -0.9240   -0.0450   -0.9710 N   0  0  0  0  0  0  0  0  0  0  0  0
   -2.2930    0.3350   -0.9260 C   0  0  0  0  0  0  0  0  0  0  0  0
   -2.9520    0.5730    0.2590 C   0  0  0  0  0  0  0  0  0  0  0  0
   -4.3010    0.9430    0.2600 C   0  0  0  0  0  0  0  0  0  0  0  0
   -5.0020    1.1960    1.5140 C   0  0  0  0  0  0  0  0  0  0  0  0
   -4.3350    1.0780    2.8170 C   0  0  0  0  0  0  0  0  0  0  0  0
   -6.2140    1.5260    1.4810 O   0  0  0  0  0  0  0  0  0  0  0  0
   -4.9180    1.0540   -0.9570 C   0  0  0  0  0  0  0  0  0  0  0  0
   -4.2680    0.8180   -2.1480 C   0  0  0  0  0  0  0  0  0  0  0  0
   -2.9460    0.4550   -2.1530 C   0  0  0  0  0  0  0  0  0  0  0  0
   -2.5110    0.2720   -3.4710 O   0  0  0  0  0  0  0  0  0  0  0  0
   -3.3960    1.0440   -4.2960 C   0  0  2  0  0  0  0  0  0  0  0  0
   -3.4200    0.5210   -5.7050 C   0  0  0  0  0  0  0  0  0  0  0  0
   -2.9640    2.4720   -4.2010 C   0  0  0  0  0  0  0  0  0  0  0  0
   -4.7030    0.8670   -3.5670 C   0  0  0  0  0  0  0  0  0  0  0  0
    2.3150    2.5590    2.8640 C   0  0  0  0  0  0  0  0  0  0  0  0
    1.9980    3.8860    2.7190 C   0  0  0  0  0  0  0  0  0  0  0  0
  1  2  1  0
  2  3  1  0
  3  4  1  0
  4  5  2  0
  4 40  1  0
  5  6  1  0
  6  7  2  0
  7  8  1  0
  7 39  1  0
  8  9  2  0
  8 10  1  0
 10 11  2  3
 10 21  1  0
 11 12  1  0
 12 13  1  0
 12 14  2  3
 14 15  1  0
 14 19  1  0
 15 16  1  0
 16 17  1  0
 17 18  1  0
 18 19  1  0
 19 20  2  0
 21 22  1  0
 22 23  2  0
 22 24  1  0
 24 25  1  0
 25 26  2  0
 25 33  1  0
 26 27  1  0
 27 28  1  0
 27 31  2  0
 28 29  1  0
 28 30  2  0
 31 32  1  0
 32 33  2  0
 32 38  1  0
 33 34  1  0
 34 35  1  0
 35 36  1  6
 35 37  1  0
 35 38  1  0
 39 40  2  0
M  END
