
     RDKit          3D

 40 43  0  0  0  0  0  0  0  0999 V2000
   -3.6120    1.7520    2.5360 C   0  0  0  0  0  0  0  0  0  0  0  0
   -3.0610    0.4560    3.1090 C   0  0  0  0  0  0  0  0  0  0  0  0
   -3.3560   -0.6640    2.1860 C   0  0  0  0  0  0  0  0  0  0  0  0
   -2.8480   -1.7440    2.4080 O   0  0  0  0  0  0  0  0  0  0  0  0
   -4.2430   -0.4690    1.0320 C   0  0  0  0  0  0  0  0  0  0  0  0
   -4.3490   -1.6580    0.1630 C   0  0  0  0  0  0  0  0  0  0  0  0
   -5.3400   -2.6050    0.3520 C   0  0  0  0  0  0  0  0  0  0  0  0
   -5.3950   -3.7490   -0.4480 C   0  0  0  0  0  0  0  0  0  0  0  0
   -6.4480   -4.7400   -0.2240 C   0  0  0  0  0  0  0  0  0  0  0  0
   -7.4260   -4.5120    0.8520 C   0  0  0  0  0  0  0  0  0  0  0  0
   -6.5020   -5.7480   -0.9320 O   0  0  0  0  0  0  0  0  0  0  0  0
   -4.4400   -3.9060   -1.4250 C   0  0  0  0  0  0  0  0  0  0  0  0
   -3.4270   -2.9690   -1.6430 C   0  0  0  0  0  0  0  0  0  0  0  0
   -2.4130   -3.1770   -2.7070 C   0  0  0  0  0  0  0  0  0  0  0  0
   -3.4300   -1.8760   -0.8300 C   0  0  0  0  0  0  0  0  0  0  0  0
   -2.4350   -0.8580   -1.0700 N   0  0  0  0  0  0  0  0  0  0  0  0
   -1.1740   -0.9010   -0.5260 C   0  0  0  0  0  0  0  0  0  0  0  0
   -0.8510   -1.9100    0.2010 O   0  0  0  0  0  0  0  0  0  0  0  0
   -0.1460    0.1770   -0.7300 C   0  0  0  0  0  0  0  0  0  0  0  0
    1.0110   -0.0780   -0.1790 C   0  0  0  0  0  0  0  0  0  0  0  0
    2.1970    0.7210   -0.1470 C   0  0  0  0  0  0  0  0  0  0  0  0
    3.3140    0.1960    0.4170 C   0  0  0  0  0  0  0  0  0  0  0  0
    4.5590    0.9190    0.4680 C   0  0  0  0  0  0  0  0  0  0  0  0
    5.6910    0.3950    1.0880 C   0  0  0  0  0  0  0  0  0  0  0  0
    6.8550    1.1140    1.1330 C   0  0  0  0  0  0  0  0  0  0  0  0
    7.9580    0.5600    1.7620 O   0  0  0  0  0  0  0  0  0  0  0  0
    7.8960   -0.7320    2.3630 C   0  0  0  0  0  0  0  0  0  0  0  0
    6.9430    2.3700    0.5690 C   0  0  0  0  0  0  0  0  0  0  0  0
    8.1390    3.0560    0.6410 O   0  0  0  0  0  0  0  0  0  0  0  0
    8.2270    4.3390    0.0720 C   0  0  0  0  0  0  0  0  0  0  0  0
    5.8190    2.8610   -0.0340 C   0  0  0  0  0  0  0  0  0  0  0  0
    4.6300    2.1720   -0.1010 C   0  0  0  0  0  0  0  0  0  0  0  0
    3.4980    2.6660   -0.7060 O   0  0  0  0  0  0  0  0  0  0  0  0
    2.2490    2.2050   -0.3330 C   0  0  0  0  0  0  0  0  0  0  0  0
   -0.3860    1.2310   -1.6620 C   0  0  0  0  0  0  0  0  0  0  0  0
   -1.5380    1.9740   -1.6630 C   0  0  0  0  0  0  0  0  0  0  0  0
   -1.8780    2.8860   -2.6310 C   0  0  0  0  0  0  0  0  0  0  0  0
   -1.0280    3.0920   -3.6780 N   0  0  0  0  0  0  0  0  0  0  0  0
    0.1130    2.3820   -3.7100 C   0  0  0  0  0  0  0  0  0  0  0  0
    0.4690    1.4700   -2.7580 C   0  0  0  0  0  0  0  0  0  0  0  0
  1  2  1  0
  2  3  1  0
  3  4  2  0
  3  5  1  0
  5  6  1  0
  6  7  2  0
  6 15  1  0
  7  8  1  0
  8  9  1  0
  8 12  2  0
  9 10  1  0
  9 11  2  0
 12 13  1  0
 13 14  1  0
 13 15  2  0
 15 16  1  0
 16 17  1  0
 17 18  2  0
 17 19  1  0
 19 20  2  3
 19 35  1  0
 20 21  1  0
 21 22  2  0
 21 34  1  0
 22 23  1  0
 23 24  2  0
 23 32  1  0
 24 25  1  0
 25 26  1  0
 25 28  2  0
 26 27  1  0
 28 29  1  0
 28 31  1  0
 29 30  1  0
 31 32  2  0
 32 33  1  0
 33 34  1  0
 35 36  2  0
 35 40  1  0
 36 37  1  0
 37 38  2  0
 38 39  1  0
 39 40  2  0
M  END
