
     RDKit          3D

 40 44  0  0  0  0  0  0  0  0999 V2000
    6.0410   -4.3920    3.0460 C   0  0  0  0  0  0  0  0  0  0  0  0
    4.8600   -3.6610    3.3070 O   0  0  0  0  0  0  0  0  0  0  0  0
    4.3340   -2.7690    2.3940 C   0  0  0  0  0  0  0  0  0  0  0  0
    3.1750   -2.0620    2.6720 C   0  0  0  0  0  0  0  0  0  0  0  0
    2.6820   -1.1830    1.7370 C   0  0  0  0  0  0  0  0  0  0  0  0
    3.3170   -0.9970    0.5420 C   0  0  0  0  0  0  0  0  0  0  0  0
    3.0740   -0.2100   -0.5620 C   0  0  0  0  0  0  0  0  0  0  0  0
    1.9680    0.7070   -0.7520 C   0  0  0  0  0  0  0  0  0  0  0  0
    0.7090    0.4940   -1.2600 C   0  0  0  0  0  0  0  0  0  0  0  0
    0.2620   -0.8670   -1.7460 C   0  0  0  0  0  0  0  0  0  0  0  0
   -0.0190    1.6360   -1.2620 N   0  0  0  0  0  0  0  0  0  0  0  0
   -1.3280    1.7330   -1.7860 C   0  0  0  0  0  0  0  0  0  0  0  0
   -2.4430    1.1890   -1.0180 C   0  0  0  0  0  0  0  0  0  0  0  0
   -2.9890   -0.0510   -1.4370 C   0  0  0  0  0  0  0  0  0  0  0  0
   -4.0390   -0.6580   -0.7820 C   0  0  0  0  0  0  0  0  0  0  0  0
   -4.5020   -1.8520   -1.2520 O   0  0  0  0  0  0  0  0  0  0  0  0
   -5.5160   -2.6700   -0.8090 C   0  0  2  0  0  0  0  0  0  0  0  0
   -5.0390   -4.0420   -0.3690 C   0  0  0  0  0  0  0  0  0  0  0  0
   -6.6180   -2.8290   -1.8060 C   0  0  0  0  0  0  0  0  0  0  0  0
   -6.5750   -2.2540   -2.9200 O   0  0  0  0  0  0  0  0  0  0  0  0
   -7.7190   -3.6160   -1.5250 O   0  0  0  0  0  0  0  0  0  0  0  0
   -4.5990   -0.0600    0.3210 C   0  0  0  0  0  0  0  0  0  0  0  0
   -4.0840    1.1380    0.7380 C   0  0  0  0  0  0  0  0  0  0  0  0
   -3.0080    1.7560    0.0640 C   0  0  0  0  0  0  0  0  0  0  0  0
   -2.4560    3.2860    0.6820 Cl  0  0  0  0  0  0  0  0  0  0  0  0
    0.7630    2.5940   -0.7600 C   0  0  0  0  0  0  0  0  0  0  0  0
    0.6110    3.9680   -0.5400 C   0  0  0  0  0  0  0  0  0  0  0  0
    1.6110    4.7540   -0.0260 C   0  0  0  0  0  0  0  0  0  0  0  0
    1.4290    6.1190    0.1820 O   0  0  0  0  0  0  0  0  0  0  0  0
    1.7760    6.9480   -0.9190 C   0  0  1  0  0  0  0  0  0  0  0  0
    3.1120    6.7640   -1.2160 F   0  0  0  0  0  0  0  0  0  0  0  0
    1.0570    6.4570   -2.0070 F   0  0  0  0  0  0  0  0  0  0  0  0
    1.4970    8.2560   -0.6550 F   0  0  0  0  0  0  0  0  0  0  0  0
    2.8250    4.1710    0.2890 C   0  0  0  0  0  0  0  0  0  0  0  0
    3.0250    2.8200    0.0880 C   0  0  0  0  0  0  0  0  0  0  0  0
    2.0020    2.0450   -0.4330 C   0  0  0  0  0  0  0  0  0  0  0  0
    4.0930   -0.4950   -1.4190 N   0  0  0  0  0  0  0  0  0  0  0  0
    4.8820   -1.3630   -0.9040 O   0  0  0  0  0  0  0  0  0  0  0  0
    4.4680   -1.7100    0.2860 C   0  0  0  0  0  0  0  0  0  0  0  0
    4.9950   -2.6010    1.1970 C   0  0  0  0  0  0  0  0  0  0  0  0
  1  2  1  0
  2  3  1  0
  3  4  2  0
  3 40  1  0
  4  5  1  0
  5  6  2  0
  6  7  1  0
  6 39  1  0
  7  8  1  0
  7 37  2  0
  8  9  2  0
  8 36  1  0
  9 10  1  0
  9 11  1  0
 11 12  1  0
 11 26  1  0
 12 13  1  0
 13 14  2  0
 13 24  1  0
 14 15  1  0
 15 16  1  0
 15 22  2  0
 16 17  1  0
 17 18  1  6
 17 19  1  0
 19 20  2  0
 19 21  1  0
 22 23  1  0
 23 24  2  0
 24 25  1  0
 26 27  2  0
 26 36  1  0
 27 28  1  0
 28 29  1  0
 28 34  2  0
 29 30  1  0
 30 31  1  6
 30 32  1  0
 30 33  1  0
 34 35  1  0
 35 36  2  0
 37 38  1  0
 38 39  1  0
 39 40  2  0
M  END
