
     RDKit          3D

 40 41  0  0  0  0  0  0  0  0999 V2000
    6.8300    0.9480   -2.0710 C   0  0  0  0  0  0  0  0  0  0  0  0
    6.8770   -0.5390   -1.9550 C   0  0  0  0  0  0  0  0  0  0  0  0
    6.1710   -1.0480   -0.8600 O   0  0  0  0  0  0  0  0  0  0  0  0
    4.8240   -0.8140   -0.7260 C   0  0  0  0  0  0  0  0  0  0  0  0
    4.2170   -0.1460   -1.5790 O   0  0  0  0  0  0  0  0  0  0  0  0
    4.0940   -1.3550    0.4360 C   0  0  1  0  0  0  0  0  0  0  0  0
    4.8700   -0.9040    1.6820 C   0  0  0  0  0  0  0  0  0  0  0  0
    4.9370    0.6000    1.7420 C   0  0  0  0  0  0  0  0  0  0  0  0
    2.7350   -0.6890    0.5440 C   0  0  0  0  0  0  0  0  0  0  0  0
    1.8170   -1.5610    1.4190 C   0  0  1  0  0  0  0  0  0  0  0  0
    0.6260   -0.7300    1.7330 C   0  0  0  0  0  0  0  0  0  0  0  0
   -0.1060   -0.3140    0.5640 O   0  0  0  0  0  0  0  0  0  0  0  0
   -1.2040    0.5000    0.7020 C   0  0  0  0  0  0  0  0  0  0  0  0
   -1.5460    0.8670    1.8470 O   0  0  0  0  0  0  0  0  0  0  0  0
   -2.0350    0.9960   -0.4440 C   0  0  2  0  0  0  0  0  0  0  0  0
   -1.6880    0.3430   -1.6910 N   0  0  0  0  0  0  0  0  0  0  0  0
   -1.6260    2.4370   -0.6080 C   0  0  0  0  0  0  0  0  0  0  0  0
   -2.3770    3.3730    0.2950 C   0  0  1  0  0  0  0  0  0  0  0  0
   -1.9060    4.7910    0.1980 C   0  0  0  0  0  0  0  0  0  0  0  0
   -2.6260    5.7320    1.1320 C   0  0  0  0  0  0  0  0  0  0  0  0
   -3.9720    5.7950    0.9070 O   0  0  0  0  0  0  0  0  0  0  0  0
   -3.8580    3.3140    0.0300 C   0  0  0  0  0  0  0  0  0  0  0  0
   -4.2210    2.0370   -0.7240 C   0  0  1  0  0  0  0  0  0  0  0  0
   -3.9830    2.1680   -2.0920 O   0  0  0  0  0  0  0  0  0  0  0  0
   -3.4880    0.9230   -0.0890 C   0  0  1  0  0  0  0  0  0  0  0  0
   -4.0850   -0.4450   -0.2780 C   0  0  1  0  0  0  0  0  0  0  0  0
   -3.3340   -1.2930    0.5670 O   0  0  0  0  0  0  0  0  0  0  0  0
   -5.4920   -0.4310    0.2660 C   0  0  0  0  0  0  0  0  0  0  0  0
   -5.6190   -0.1120    1.7130 C   0  0  0  0  0  0  0  0  0  0  0  0
   -4.9020   -1.1430    2.5260 C   0  0  0  0  0  0  0  0  0  0  0  0
   -4.3340   -1.9370    3.1650 N   0  0  0  0  0  0  0  0  0  0  0  0
   -4.0910   -0.9130   -1.6760 C   0  0  0  0  0  0  0  0  0  0  0  0
   -4.8080   -0.2810   -2.4830 O   0  0  0  0  0  0  0  0  0  0  0  0
   -3.3690   -1.9880   -2.1430 O   0  0  0  0  0  0  0  0  0  0  0  0
   -3.4030   -2.4180   -3.5140 C   0  0  0  0  0  0  0  0  0  0  0  0
    1.4870   -2.7720    0.6210 C   0  0  0  0  0  0  0  0  0  0  0  0
    2.7120   -3.4290    0.0160 C   0  0  2  0  0  0  0  0  0  0  0  0
    2.6460   -3.4330   -1.4940 C   0  0  0  0  0  0  0  0  0  0  0  0
    2.7540   -4.9120    0.4180 C   0  0  0  0  0  0  0  0  0  0  0  0
    4.0110   -2.8390    0.4510 C   0  0  0  0  0  0  0  0  0  0  0  0
  1  2  1  0
  2  3  1  0
  3  4  1  0
  4  5  2  0
  4  6  1  0
  6  7  1  1
  6  9  1  0
  6 40  1  0
  7  8  1  0
  9 10  1  0
 10 11  1  6
 10 36  1  0
 11 12  1  0
 12 13  1  0
 13 14  2  0
 13 15  1  0
 15 16  1  6
 15 17  1  0
 15 25  1  0
 17 18  1  0
 18 19  1  6
 18 22  1  0
 19 20  1  0
 20 21  1  0
 22 23  1  0
 23 24  1  6
 23 25  1  0
 25 26  1  6
 26 27  1  1
 26 28  1  0
 26 32  1  0
 28 29  1  0
 29 30  1  0
 30 31  3  0
 32 33  2  0
 32 34  1  0
 34 35  1  0
 36 37  1  0
 37 38  1  6
 37 39  1  0
 37 40  1  0
M  END
