
     RDKit          3D

 40 43  0  0  0  0  0  0  0  0999 V2000
   -8.0620    3.4710   -3.3390 C   0  0  0  0  0  0  0  0  0  0  0  0
   -7.0730    3.6760   -2.2030 C   0  0  0  0  0  0  0  0  0  0  0  0
   -6.6170    2.3960   -1.6500 C   0  0  0  0  0  0  0  0  0  0  0  0
   -5.3510    2.0450   -1.6370 C   0  0  0  0  0  0  0  0  0  0  0  0
   -4.3220    2.8610   -2.1550 N   0  0  0  0  0  0  0  0  0  0  0  0
   -2.9690    2.4800   -2.1220 C   0  0  0  0  0  0  0  0  0  0  0  0
   -2.5650    1.2890   -1.5970 C   0  0  0  0  0  0  0  0  0  0  0  0
   -1.1550    1.0870   -1.6490 C   0  0  0  0  0  0  0  0  0  0  0  0
   -0.4220    2.1830   -1.8570 O   0  0  0  0  0  0  0  0  0  0  0  0
   -0.3550   -0.1020   -1.5340 C   0  0  0  0  0  0  0  0  0  0  0  0
   -0.7310   -1.3540   -1.9470 C   0  0  0  0  0  0  0  0  0  0  0  0
    0.0840   -2.4120   -1.7160 C   0  0  0  0  0  0  0  0  0  0  0  0
    1.3360   -2.3340   -1.0620 C   0  0  0  0  0  0  0  0  0  0  0  0
    2.0580   -3.3960   -0.8810 O   0  0  0  0  0  0  0  0  0  0  0  0
    2.8610   -4.3690   -0.6510 C   0  0  1  0  0  0  0  0  0  0  0  0
    2.3280   -5.5550    0.1450 C   0  0  0  0  0  0  0  0  0  0  0  0
    3.3950   -5.0360   -1.9720 C   0  0  0  0  0  0  0  0  0  0  0  0
    1.7110   -1.0660   -0.6490 C   0  0  0  0  0  0  0  0  0  0  0  0
    2.9470   -0.7920    0.0930 C   0  0  0  0  0  0  0  0  0  0  0  0
    3.7730   -1.6170    0.4780 O   0  0  0  0  0  0  0  0  0  0  0  0
    3.2240    0.5390    0.4020 O   0  0  0  0  0  0  0  0  0  0  0  0
    4.3380    0.9660    1.1000 C   0  0  0  0  0  0  0  0  0  0  0  0
    4.2410    1.5440    2.3420 C   0  0  0  0  0  0  0  0  0  0  0  0
    5.3810    1.9730    3.0430 C   0  0  0  0  0  0  0  0  0  0  0  0
    6.6340    1.8270    2.5080 C   0  0  0  0  0  0  0  0  0  0  0  0
    7.8210    2.2380    3.1260 N   0  0  0  0  0  0  0  0  0  0  0  0
    7.9490    3.0270    4.2890 C   0  0  0  0  0  0  0  0  0  0  0  0
    9.3040    3.3950    4.8450 C   0  0  0  0  0  0  0  0  0  0  0  0
    6.9470    3.4380    4.8820 O   0  0  0  0  0  0  0  0  0  0  0  0
    6.7290    1.2370    1.2410 C   0  0  0  0  0  0  0  0  0  0  0  0
    5.6030    0.8230    0.5680 C   0  0  0  0  0  0  0  0  0  0  0  0
    0.8890    0.0080   -0.8820 C   0  0  0  0  0  0  0  0  0  0  0  0
   -3.5410    0.4090   -1.0330 C   0  0  0  0  0  0  0  0  0  0  0  0
   -3.1720   -0.7500   -0.3620 C   0  0  0  0  0  0  0  0  0  0  0  0
   -4.1230   -1.5060    0.2350 C   0  0  0  0  0  0  0  0  0  0  0  0
   -5.4850   -1.2310    0.2510 C   0  0  0  0  0  0  0  0  0  0  0  0
   -6.3820   -1.9700    0.8220 O   0  0  0  0  0  0  0  0  0  0  0  0
   -7.3230   -2.6540    1.3640 C   0  0  0  0  0  0  0  0  0  0  0  0
   -5.8120   -0.0380   -0.4330 C   0  0  0  0  0  0  0  0  0  0  0  0
   -4.8960    0.7590   -1.0480 C   0  0  0  0  0  0  0  0  0  0  0  0
  1  2  1  0
  2  3  1  0
  3  4  2  3
  4  5  1  0
  4 40  1  0
  5  6  1  0
  6  7  2  0
  7  8  1  0
  7 33  1  0
  8  9  2  0
  8 10  1  0
 10 11  2  0
 10 32  1  0
 11 12  1  0
 12 13  2  0
 13 14  1  0
 13 18  1  0
 14 15  1  0
 15 16  1  1
 15 17  1  0
 18 19  1  0
 18 32  2  0
 19 20  2  0
 19 21  1  0
 21 22  1  0
 22 23  2  0
 22 31  1  0
 23 24  1  0
 24 25  2  0
 25 26  1  0
 25 30  1  0
 26 27  1  0
 27 28  1  0
 27 29  2  0
 30 31  2  0
 33 34  2  0
 33 40  1  0
 34 35  1  0
 35 36  2  0
 36 37  1  0
 36 39  1  0
 37 38  1  0
 39 40  2  0
M  END
