
     RDKit          3D

 40 43  0  0  0  0  0  0  0  0999 V2000
   -6.9480   -1.8170    0.3390 C   0  0  0  0  0  0  0  0  0  0  0  0
   -5.6750   -1.0910    0.2100 C   0  0  0  0  0  0  0  0  0  0  0  0
   -4.5520   -1.7280    0.5330 C   0  0  0  0  0  0  0  0  0  0  0  0
   -3.3130   -0.9830    0.3940 C   0  0  0  0  0  0  0  0  0  0  0  0
   -2.1780   -1.5690    0.7010 C   0  0  0  0  0  0  0  0  0  0  0  0
   -0.9420   -0.8820    0.5810 N   0  0  0  0  0  0  0  0  0  0  0  0
   -0.1550   -0.7260    1.7850 C   0  0  0  0  0  0  0  0  0  0  0  0
   -0.5440   -0.3920   -0.6740 C   0  0  0  0  0  0  0  0  0  0  0  0
   -1.2480   -0.5450   -1.6890 O   0  0  0  0  0  0  0  0  0  0  0  0
    0.7230    0.3130   -0.8030 C   0  0  0  0  0  0  0  0  0  0  0  0
    0.7080    1.6960   -0.6230 C   0  0  0  0  0  0  0  0  0  0  0  0
   -0.4850    2.3020   -0.3390 O   0  0  0  0  0  0  0  0  0  0  0  0
   -0.7180    3.6430   -0.1270 C   0  0  2  0  0  0  0  0  0  0  0  0
   -1.1860    3.8400    1.3070 C   0  0  0  0  0  0  0  0  0  0  0  0
   -1.1150    5.3130    1.6320 C   0  0  0  0  0  0  0  0  0  0  0  0
   -2.0870    6.1360    0.8500 C   0  0  0  0  0  0  0  0  0  0  0  0
   -3.3240    5.3820    0.4460 C   0  0  0  0  0  0  0  0  0  0  0  0
   -3.0900    4.3180   -0.5650 C   0  0  0  0  0  0  0  0  0  0  0  0
   -1.7010    4.2520   -1.1040 C   0  0  0  0  0  0  0  0  0  0  0  0
    1.9160    2.3380   -0.7500 C   0  0  0  0  0  0  0  0  0  0  0  0
    3.1020    1.6890   -1.0380 C   0  0  0  0  0  0  0  0  0  0  0  0
    3.0780    0.3180   -1.2090 C   0  0  0  0  0  0  0  0  0  0  0  0
    4.2590   -0.3190   -1.4960 O   0  0  0  0  0  0  0  0  0  0  0  0
    4.8800   -1.2830   -0.7440 C   0  0  0  0  0  0  0  0  0  0  0  0
    4.3700   -1.6490    0.4730 C   0  0  0  0  0  0  0  0  0  0  0  0
    4.9700   -2.6200    1.2610 C   0  0  0  0  0  0  0  0  0  0  0  0
    6.1110   -3.2230    0.7900 C   0  0  0  0  0  0  0  0  0  0  0  0
    6.6430   -2.8690   -0.4330 C   0  0  0  0  0  0  0  0  0  0  0  0
    7.8490   -3.5180   -0.9120 C   0  0  0  0  0  0  0  0  0  0  0  0
    8.4860   -4.5190   -0.1270 N   0  0  0  0  0  0  0  0  0  0  0  0
    8.3710   -3.2290   -2.0160 O   0  0  0  0  0  0  0  0  0  0  0  0
    6.0220   -1.8980   -1.1960 C   0  0  0  0  0  0  0  0  0  0  0  0
    1.8890   -0.3620   -1.0910 C   0  0  0  0  0  0  0  0  0  0  0  0
    1.8910   -1.7360   -1.2690 O   0  0  0  0  0  0  0  0  0  0  0  0
    1.6870   -2.2910   -2.5460 C   0  0  0  0  0  0  0  0  0  0  0  0
   -2.1650   -2.9270    1.1680 C   0  0  0  0  0  0  0  0  0  0  0  0
   -3.2420   -3.6690    1.3220 C   0  0  0  0  0  0  0  0  0  0  0  0
   -3.1090   -5.0440    1.8050 C   0  0  0  0  0  0  0  0  0  0  0  0
   -1.9930   -5.5210    2.0730 O   0  0  0  0  0  0  0  0  0  0  0  0
   -4.5700   -3.1220    1.0100 C   0  0  0  0  0  0  0  0  0  0  0  0
  1  2  1  0
  2  3  2  3
  3  4  1  0
  3 40  1  0
  4  5  2  0
  5  6  1  0
  5 36  1  0
  6  7  1  0
  6  8  1  0
  8  9  2  0
  8 10  1  0
 10 11  1  0
 10 33  2  0
 11 12  1  0
 11 20  2  0
 13 12  1  6
 13 14  1  0
 13 19  1  0
 14 15  1  0
 15 16  1  0
 16 17  1  0
 17 18  1  0
 18 19  1  0
 20 21  1  0
 21 22  2  0
 22 23  1  0
 22 33  1  0
 23 24  1  0
 24 25  2  0
 24 32  1  0
 25 26  1  0
 26 27  2  0
 27 28  1  0
 28 29  1  0
 28 32  2  0
 29 30  1  0
 29 31  2  0
 33 34  1  0
 34 35  1  0
 36 37  2  0
 37 38  1  0
 37 40  1  0
 38 39  2  0
M  END
