
     RDKit          3D

 22 23  0  0  0  0  0  0  0  0999 V2000
   -5.2460   -2.3540    0.0790 O   0  0  0  0  0  0  0  0  0  0  0  0
   -5.1480   -1.1060   -0.0750 C   0  0  0  0  0  0  0  0  0  0  0  0
   -4.0950   -0.4130    0.5250 N   0  0  0  0  0  0  0  0  0  0  0  0
   -3.6420    0.9540    0.2250 C   0  0  1  0  0  0  0  0  0  0  0  0
   -2.2350    0.7790   -0.3270 C   0  0  0  0  0  0  0  0  0  0  0  0
   -1.9580    0.9840   -1.5230 O   0  0  0  0  0  0  0  0  0  0  0  0
   -1.2490    0.3610    0.5880 N   0  0  0  0  0  0  0  0  0  0  0  0
    0.0240   -0.0470    0.1080 C   0  0  0  0  0  0  0  0  0  0  0  0
    0.3850    0.2890   -1.0820 O   0  0  0  0  0  0  0  0  0  0  0  0
    0.8830   -0.7940    0.8730 O   0  0  0  0  0  0  0  0  0  0  0  0
    2.0560   -1.2580    0.6320 O   0  0  0  0  0  0  0  0  0  0  0  0
    2.8140   -0.5570   -0.2690 C   0  0  0  0  0  0  0  0  0  0  0  0
    4.1500   -1.2370   -0.3850 C   0  0  1  0  0  0  0  0  0  0  0  0
    5.0390   -0.4750   -1.3400 C   0  0  0  0  0  0  0  0  0  0  0  0
    5.1730    0.8540   -0.8390 O   0  0  0  0  0  0  0  0  0  0  0  0
    5.1110    1.1180    0.5090 C   0  0  0  0  0  0  0  0  0  0  0  0
    5.2150    2.2740    0.9450 O   0  0  0  0  0  0  0  0  0  0  0  0
    4.9310    0.0720    1.4320 O   0  0  0  0  0  0  0  0  0  0  0  0
    4.8110   -1.2680    0.9910 C   0  0  0  0  0  0  0  0  0  0  0  0
   -4.5280    1.4120   -0.9520 C   0  0  0  0  0  0  0  0  0  0  0  0
   -5.9640    1.0350   -0.6140 C   0  0  0  0  0  0  0  0  0  0  0  0
   -6.0770   -0.3900   -0.8400 O   0  0  0  0  0  0  0  0  0  0  0  0
  1  2  2  0
  2  3  1  0
  2 22  1  0
  3  4  1  0
  4  5  1  6
  4 20  1  0
  5  6  2  0
  5  7  1  0
  7  8  1  0
  8  9  2  0
  8 10  1  0
 10 11  1  0
 11 12  1  0
 13 12  1  1
 13 14  1  0
 13 19  1  0
 14 15  1  0
 15 16  1  0
 16 17  2  0
 16 18  1  0
 18 19  1  0
 20 21  1  0
 21 22  1  0
M  END
