
     RDKit          3D

 22 23  0  0  0  0  0  0  0  0999 V2000
   -3.9090    0.8930    1.0780 C   0  0  0  0  0  0  0  0  0  0  0  0
   -3.5300    0.2020   -0.1870 C   0  0  1  0  0  0  0  0  0  0  0  0
   -3.5070    1.2820   -1.3040 C   0  0  0  0  0  0  0  0  0  0  0  0
   -2.2120   -0.3750   -0.2170 O   0  0  0  0  0  0  0  0  0  0  0  0
   -1.1550    0.3520   -0.2100 C   0  0  0  0  0  0  0  0  0  0  0  0
   -1.0200    1.6450   -0.0240 N   0  0  0  0  0  0  0  0  0  0  0  0
    0.2530    2.0980   -0.0800 O   0  0  0  0  0  0  0  0  0  0  0  0
    1.0710    0.9950    0.1470 C   0  0  2  0  0  0  0  0  0  0  0  0
    2.4300    1.2090   -0.5060 C   0  0  0  0  0  0  0  0  0  0  0  0
    2.8010    2.4540    0.0830 O   0  0  0  0  0  0  0  0  0  0  0  0
    3.9090    2.2510    0.6970 O   0  0  0  0  0  0  0  0  0  0  0  0
    4.8700    3.0270    0.6180 O   0  0  0  0  0  0  0  0  0  0  0  0
    4.6990    4.0430   -0.1850 O   0  0  0  0  0  0  0  0  0  0  0  0
    0.3670   -0.1020   -0.4190 C   0  0  1  0  0  0  0  0  0  0  0  0
    0.5950   -1.4510    0.0200 N   0  0  0  0  0  0  0  0  0  0  0  0
    1.6570   -1.7560    0.9460 C   0  0  0  0  0  0  0  0  0  0  0  0
    1.6780   -3.1240    1.4530 C   0  0  0  0  0  0  0  0  0  0  0  0
    2.3250   -3.3730    2.4270 O   0  0  0  0  0  0  0  0  0  0  0  0
    0.9520   -4.0930    0.8110 O   0  0  0  0  0  0  0  0  0  0  0  0
    0.2590   -3.9330   -0.3790 C   0  0  0  0  0  0  0  0  0  0  0  0
   -0.0290   -2.5160   -0.6600 C   0  0  0  0  0  0  0  0  0  0  0  0
   -0.8890   -2.2840   -1.5860 O   0  0  0  0  0  0  0  0  0  0  0  0
  2  1  1  1
  2  3  1  0
  2  4  1  0
  4  5  1  0
  5  6  2  0
  5 14  1  0
  6  7  1  0
  7  8  1  0
  8  9  1  6
  8 14  1  0
  9 10  1  0
 10 11  1  0
 11 12  1  0
 12 13  1  0
 14 15  1  1
 15 16  1  0
 15 21  1  0
 16 17  1  0
 17 18  2  0
 17 19  1  0
 19 20  1  0
 20 21  1  0
 21 22  2  0
M  END
