
     RDKit          3D

  8  8  0  0  0  0  0  0  0  0999 V2000
   -3.1960    1.0950    0.2280 O   0  0  0  0  0  0  0  0  0  0  0  0
   -2.7960   -0.2150    0.0350 C   0  0  0  0  0  0  0  0  0  0  0  0
   -1.4510   -0.2970   -0.5400 C   0  0  0  0  0  0  0  0  0  0  0  0
   -0.4570   -0.9120    0.0850 C   0  0  0  0  0  0  0  0  0  0  0  0
    0.9230   -1.0210   -0.4580 C   0  0  0  0  0  0  0  0  0  0  0  0
    1.8520   -0.3560    0.5240 C   0  0  2  0  0  0  0  0  0  0  0  0
    1.5320    1.1180    0.7480 C   0  0  0  0  0  0  0  0  0  0  0  0
    2.8090    0.6780    0.1390 C   0  0  0  0  0  0  0  0  0  0  0  0
  1  2  1  0
  2  3  1  0
  3  4  2  3
  4  5  1  0
  6  5  1  6
  6  7  1  0
  6  8  1  0
  7  8  1  0
M  END
