
     RDKit          3D

  8  8  0  0  0  0  0  0  0  0999 V2000
   -0.2350    1.7540   -0.9970 C   0  0  0  0  0  0  0  0  0  0  0  0
    0.2110    0.4960   -0.2920 C   0  0  0  0  0  0  0  0  0  0  0  0
    1.4680    0.1560   -0.3860 C   0  0  0  0  0  0  0  0  0  0  0  0
    2.0320   -1.0430    0.2470 C   0  0  0  0  0  0  0  0  0  0  0  0
    3.0310   -0.6150    1.1350 O   0  0  0  0  0  0  0  0  0  0  0  0
   -0.7460   -0.3120    0.4990 C   0  0  1  0  0  0  0  0  0  0  0  0
   -2.1440    0.1830    0.6750 C   0  0  0  0  0  0  0  0  0  0  0  0
   -1.8880   -0.8900   -0.3120 C   0  0  0  0  0  0  0  0  0  0  0  0
  1  2  1  0
  2  3  2  3
  6  2  1  6
  3  4  1  0
  4  5  1  0
  6  7  1  0
  6  8  1  0
  7  8  1  0
M  END
