
     RDKit          3D

 25 26  0  0  0  0  0  0  0  0999 V2000
   -3.4690   -3.3650    0.6540 C   0  0  0  0  0  0  0  0  0  0  0  0
   -2.9280   -2.6610   -0.4300 O   0  0  0  0  0  0  0  0  0  0  0  0
   -2.3670   -1.3800   -0.2350 C   0  0  0  0  0  0  0  0  0  0  0  0
   -1.0200   -1.2280    0.0630 C   0  0  0  0  0  0  0  0  0  0  0  0
   -0.2790   -2.5250    0.2500 C   0  0  0  0  0  0  0  0  0  0  0  0
   -0.4730   -0.0020    0.2490 C   0  0  0  0  0  0  0  0  0  0  0  0
    0.9340    0.2010    0.4350 C   0  0  0  0  0  0  0  0  0  0  0  0
    1.9040   -0.6040    0.1330 C   0  0  0  0  0  0  0  0  0  0  0  0
    3.3150   -0.1860    0.4240 C   0  0  0  0  0  0  0  0  0  0  0  0
    3.6990    0.9570    0.9730 N   0  0  0  0  0  0  0  0  0  0  0  0
    5.0310    0.9960    1.0870 N   0  0  0  0  0  0  0  0  0  0  0  0
    5.5180   -0.1350    0.6070 C   0  0  0  0  0  0  0  0  0  0  0  0
    6.9490   -0.5010    0.5440 C   0  0  0  0  0  0  0  0  0  0  0  0
    4.4610   -0.9110    0.1770 C   0  0  0  0  0  0  0  0  0  0  0  0
    4.5240   -2.2330   -0.4210 C   0  0  0  0  0  0  0  0  0  0  0  0
    4.4850   -3.2920    0.2390 O   0  0  0  0  0  0  0  0  0  0  0  0
   -1.2870    1.1800    0.1450 C   0  0  0  0  0  0  0  0  0  0  0  0
   -0.5890    2.4380    0.3730 C   0  0  2  0  0  0  0  0  0  0  0  0
   -1.3120    3.7180    0.3950 C   0  0  0  0  0  0  0  0  0  0  0  0
    0.4460    2.5720   -0.6720 N   0  0  0  0  0  0  0  0  0  0  0  0
   -2.5980    0.9830   -0.1480 C   0  0  0  0  0  0  0  0  0  0  0  0
   -3.5470    2.1380   -0.2990 C   0  0  0  0  0  0  0  0  0  0  0  0
   -3.1640   -0.2830   -0.3440 C   0  0  0  0  0  0  0  0  0  0  0  0
   -4.5330   -0.3900   -0.6440 O   0  0  0  0  0  0  0  0  0  0  0  0
   -4.9100   -0.3740   -2.0080 C   0  0  0  0  0  0  0  0  0  0  0  0
  1  2  1  0
  2  3  1  0
  3  4  2  0
  3 23  1  0
  4  5  1  0
  4  6  1  0
  6  7  1  0
  6 17  2  0
  7  8  2  3
  8  9  1  0
  9 10  1  0
  9 14  2  0
 10 11  1  0
 11 12  2  0
 12 13  1  0
 12 14  1  0
 14 15  1  0
 15 16  2  0
 17 18  1  0
 17 21  1  0
 18 19  1  6
 18 20  1  0
 21 22  1  0
 21 23  2  0
 23 24  1  0
 24 25  1  0
M  END
