
     RDKit          3D

  9  8  0  0  0  0  0  0  0  0999 V2000
    2.4520    0.5950    0.5720 C   0  0  0  0  0  0  0  0  0  0  0  0
    1.6420    0.6720   -0.6890 C   0  0  0  0  0  0  0  0  0  0  0  0
    0.3240   -0.0820   -0.5330 C   0  0  2  0  0  0  0  0  0  0  0  0
    0.6140   -1.5120   -0.2280 C   0  0  0  0  0  0  0  0  0  0  0  0
   -0.4170    0.0720   -1.7070 O   0  0  0  0  0  0  0  0  0  0  0  0
   -0.3860    0.5630    0.6300 C   0  0  0  0  0  0  0  0  0  0  0  0
   -1.7050   -0.0320    0.9710 C   0  0  0  0  0  0  0  0  0  0  0  0
   -2.7020    0.0320   -0.1370 C   0  0  0  0  0  0  0  0  0  0  0  0
   -3.0220    1.7140   -0.6500 Cl  0  0  0  0  0  0  0  0  0  0  0  0
  1  2  1  0
  2  3  1  0
  3  4  1  1
  3  5  1  0
  3  6  1  0
  6  7  1  0
  7  8  1  0
  8  9  1  0
M  END
