
     RDKit          3D

  8  7  0  0  0  0  0  0  0  0999 V2000
    2.1230    1.6350    0.5260 O   0  0  0  0  0  0  0  0  0  0  0  0
    2.4940    0.3650    0.0970 C   0  0  0  0  0  0  0  0  0  0  0  0
    1.3600   -0.6040    0.2420 C   0  0  0  0  0  0  0  0  0  0  0  0
    0.1550   -0.1570   -0.5890 C   0  0  0  0  0  0  0  0  0  0  0  0
   -0.9640   -1.0880   -0.4630 C   0  0  0  0  0  0  0  0  0  0  0  0
   -2.1490   -0.8010   -0.0130 C   0  0  0  0  0  0  0  0  0  0  0  0
   -2.5280    0.5430    0.4430 C   0  0  0  0  0  0  0  0  0  0  0  0
   -3.0110    0.4720    2.1560 Cl  0  0  0  0  0  0  0  0  0  0  0  0
  1  2  1  0
  2  3  1  0
  3  4  1  0
  4  5  1  0
  5  6  2  3
  6  7  1  0
  7  8  1  0
M  END
