
     RDKit          3D

  9  9  0  0  0  0  0  0  0  0999 V2000
   -2.2600   -0.6570   -0.1030 C   0  0  0  0  0  0  0  0  0  0  0  0
   -0.8640   -0.1270   -0.0680 C   0  0  0  0  0  0  0  0  0  0  0  0
    0.2130   -0.9860   -0.1390 C   0  0  0  0  0  0  0  0  0  0  0  0
    1.5250   -0.5410   -0.1110 C   0  0  0  0  0  0  0  0  0  0  0  0
    2.6060   -1.4120   -0.1830 O   0  0  0  0  0  0  0  0  0  0  0  0
    1.7940    0.8090   -0.0070 C   0  0  0  0  0  0  0  0  0  0  0  0
    0.7150    1.6680    0.0640 C   0  0  0  0  0  0  0  0  0  0  0  0
   -0.5920    1.2220    0.0360 C   0  0  0  0  0  0  0  0  0  0  0  0
   -1.9420    2.3550    0.1300 Cl  0  0  0  0  0  0  0  0  0  0  0  0
  1  2  1  0
  2  3  2  0
  2  8  1  0
  3  4  1  0
  4  5  1  0
  4  6  2  0
  6  7  1  0
  7  8  2  0
  8  9  1  0
M  END
