
     RDKit          3D

  9  8  0  0  0  0  0  0  0  0999 V2000
   -1.3110    0.2490    1.2290 C   0  0  0  0  0  0  0  0  0  0  0  0
   -1.3840   -0.3060   -0.1380 C   0  0  1  0  0  0  0  0  0  0  0  0
   -2.2780   -1.5690   -0.0470 C   0  0  0  0  0  0  0  0  0  0  0  0
   -2.1790    0.5860   -0.9200 O   0  0  0  0  0  0  0  0  0  0  0  0
   -0.1470   -0.6210   -0.8720 C   0  0  0  0  0  0  0  0  0  0  0  0
    0.8210    0.4470   -1.1750 C   0  0  0  0  0  0  0  0  0  0  0  0
    1.4790    1.1290   -0.0150 C   0  0  0  0  0  0  0  0  0  0  0  0
    2.2630    0.1090    0.7770 C   0  0  0  0  0  0  0  0  0  0  0  0
    2.8990    0.6230    1.8790 O   0  0  0  0  0  0  0  0  0  0  0  0
  2  1  1  1
  2  3  1  0
  2  4  1  0
  2  5  1  0
  5  6  1  0
  6  7  1  0
  7  8  1  0
  8  9  1  0
M  END
