
     RDKit          3D

  9  8  0  0  0  0  0  0  0  0999 V2000
   -1.7170   -1.2600   -0.2990 C   0  0  0  0  0  0  0  0  0  0  0  0
   -1.9510    0.0400   -0.2880 C   0  0  0  0  0  0  0  0  0  0  0  0
   -3.2300    0.5710   -0.8390 C   0  0  0  0  0  0  0  0  0  0  0  0
   -0.9990    1.0390    0.2460 C   0  0  0  0  0  0  0  0  0  0  0  0
    0.2000    0.5210    0.7470 O   0  0  0  0  0  0  0  0  0  0  0  0
    1.0940   -0.1000   -0.0950 C   0  0  0  0  0  0  0  0  0  0  0  0
    0.8740   -0.2120   -1.3320 O   0  0  0  0  0  0  0  0  0  0  0  0
    2.3820   -0.6810    0.3860 C   0  0  0  0  0  0  0  0  0  0  0  0
    3.5070   -0.0360   -0.4250 C   0  0  0  0  0  0  0  0  0  0  0  0
  1  2  2  0
  2  3  1  0
  2  4  1  0
  4  5  1  0
  5  6  1  0
  6  7  2  0
  6  8  1  0
  8  9  1  0
M  END
