
     RDKit          3D

  9  8  0  0  0  0  0  0  0  0999 V2000
    3.0160    1.9870    0.1880 C   0  0  0  0  0  0  0  0  0  0  0  0
    2.5460    0.7680    0.2070 C   0  0  0  0  0  0  0  0  0  0  0  0
    3.4440   -0.3760    0.0020 C   0  0  0  0  0  0  0  0  0  0  0  0
    1.2070    0.5590    0.4210 O   0  0  0  0  0  0  0  0  0  0  0  0
    0.4870   -0.2740   -0.4920 C   0  0  0  0  0  0  0  0  0  0  0  0
   -0.9430   -0.3420   -0.0430 C   0  0  0  0  0  0  0  0  0  0  0  0
   -1.6540   -1.1520   -0.9260 O   0  0  0  0  0  0  0  0  0  0  0  0
   -3.0050   -1.2300   -0.5210 C   0  0  0  0  0  0  0  0  0  0  0  0
   -3.6420    0.1390   -0.5030 C   0  0  0  0  0  0  0  0  0  0  0  0
  1  2  2  0
  2  3  1  0
  2  4  1  0
  4  5  1  0
  5  6  1  0
  6  7  1  0
  7  8  1  0
  8  9  1  0
M  END
