
     RDKit          3D

  9  9  0  0  0  0  0  0  0  0999 V2000
    3.6250   -0.1070    0.4890 C   0  0  0  0  0  0  0  0  0  0  0  0
    2.3590    0.0030   -0.1660 O   0  0  0  0  0  0  0  0  0  0  0  0
    1.1960    0.2670    0.5350 C   0  0  0  0  0  0  0  0  0  0  0  0
    1.2900    0.4080    1.7800 O   0  0  0  0  0  0  0  0  0  0  0  0
   -0.1290    0.3920   -0.0720 C   0  0  1  0  0  0  0  0  0  0  0  0
   -0.5700   -0.8600   -0.8010 C   0  0  0  0  0  0  0  0  0  0  0  0
   -2.0340   -0.5440   -1.0650 C   0  0  0  0  0  0  0  0  0  0  0  0
   -2.4640    0.3870    0.0560 C   0  0  0  0  0  0  0  0  0  0  0  0
   -1.2350    0.5630    0.9390 C   0  0  0  0  0  0  0  0  0  0  0  0
  1  2  1  0
  2  3  1  0
  3  4  2  0
  5  3  1  1
  5  6  1  0
  5  9  1  0
  6  7  1  0
  7  8  1  0
  8  9  1  0
M  END
