
     RDKit          3D

  8  7  0  0  0  0  0  0  0  0999 V2000
    3.5140    0.3370   -0.0470 C   0  0  0  0  0  0  0  0  0  0  0  0
    2.5090   -0.4060   -0.5250 C   0  0  0  0  0  0  0  0  0  0  0  0
    1.2140   -0.4820    0.2060 C   0  0  0  0  0  0  0  0  0  0  0  0
    0.0730    0.0130   -0.6340 C   0  0  0  0  0  0  0  0  0  0  0  0
   -1.1790   -0.0880    0.1460 C   0  0  0  0  0  0  0  0  0  0  0  0
   -1.1450   -0.5360    1.3160 O   0  0  0  0  0  0  0  0  0  0  0  0
   -2.4200    0.2900   -0.3450 O   0  0  0  0  0  0  0  0  0  0  0  0
   -3.6150    0.2030    0.3740 C   0  0  0  0  0  0  0  0  0  0  0  0
  1  2  2  0
  2  3  1  0
  3  4  1  0
  4  5  1  0
  5  6  2  0
  5  7  1  0
  7  8  1  0
M  END
