
     RDKit          3D

  9  9  0  0  0  0  0  0  0  0999 V2000
    3.0970   -0.0370    0.1920 C   0  0  0  0  0  0  0  0  0  0  0  0
    1.6310    0.1660    0.0450 C   0  0  0  0  0  0  0  0  0  0  0  0
    0.6940   -0.8710    0.1480 C   0  0  0  0  0  0  0  0  0  0  0  0
   -0.5610   -0.3340   -0.0390 C   0  0  0  0  0  0  0  0  0  0  0  0
   -1.8600   -1.0490   -0.0180 C   0  0  0  0  0  0  0  0  0  0  0  0
   -1.6110   -2.4120    0.2310 O   0  0  0  0  0  0  0  0  0  0  0  0
   -0.3510    1.0110   -0.2500 C   0  0  0  0  0  0  0  0  0  0  0  0
   -1.4440    2.0070   -0.5020 C   0  0  0  0  0  0  0  0  0  0  0  0
    0.9370    1.2300   -0.1880 O   0  0  0  0  0  0  0  0  0  0  0  0
  1  2  1  0
  2  3  2  0
  2  9  1  0
  3  4  1  0
  4  5  1  0
  4  7  2  0
  5  6  1  0
  7  8  1  0
  7  9  1  0
M  END
