
     RDKit          3D

  8  8  0  0  0  0  0  0  0  0999 V2000
    2.7170   -0.1840    0.6820 C   0  0  0  0  0  0  0  0  0  0  0  0
    2.0970   -0.2450   -0.6820 C   0  0  0  0  0  0  0  0  0  0  0  0
    0.7500   -0.5210   -0.6760 O   0  0  0  0  0  0  0  0  0  0  0  0
   -0.0110    0.3980    0.0030 C   0  0  1  0  0  0  0  0  0  0  0  0
   -1.0720    0.9550   -0.9580 C   0  0  0  0  0  0  0  0  0  0  0  0
   -2.0690   -0.2100   -0.9210 C   0  0  0  0  0  0  0  0  0  0  0  0
   -2.2600   -0.2900    0.5990 C   0  0  0  0  0  0  0  0  0  0  0  0
   -0.8210   -0.3480    1.0530 C   0  0  0  0  0  0  0  0  0  0  0  0
  1  2  1  0
  2  3  1  0
  4  3  1  6
  4  5  1  0
  4  8  1  0
  5  6  1  0
  6  7  1  0
  7  8  1  0
M  END
