
     RDKit          3D

 26 27  0  0  0  0  0  0  0  0999 V2000
    3.8360    0.7830   -1.7740 C   0  0  0  0  0  0  0  0  0  0  0  0
    3.0770    0.2340   -0.6970 O   0  0  0  0  0  0  0  0  0  0  0  0
    1.7090   -0.0430   -0.8260 C   0  0  0  0  0  0  0  0  0  0  0  0
    1.2410    0.2360   -1.9700 O   0  0  0  0  0  0  0  0  0  0  0  0
    0.9470   -0.5800    0.2320 N   0  0  0  0  0  0  0  0  0  0  0  0
   -0.3280   -0.8050    0.1410 O   0  0  0  0  0  0  0  0  0  0  0  0
   -1.1830    0.2090    0.0080 N   0  0  0  0  0  0  0  0  0  0  0  0
   -2.4130    0.0260   -0.7180 C   0  0  0  0  0  0  0  0  0  0  0  0
   -2.7330   -1.2000   -1.5510 C   0  0  1  0  0  0  0  0  0  0  0  0
   -3.9900   -1.0960   -2.0800 F   0  0  0  0  0  0  0  0  0  0  0  0
   -1.7160   -1.4540   -2.6100 C   0  0  0  0  0  0  0  0  0  0  0  0
   -0.9190   -2.4590   -2.0080 O   0  0  0  0  0  0  0  0  0  0  0  0
   -1.6120   -3.0440   -0.9810 N   0  0  0  0  0  0  0  0  0  0  0  0
   -2.6610   -2.3800   -0.6650 C   0  0  0  0  0  0  0  0  0  0  0  0
   -3.5420   -2.7250    0.3240 O   0  0  0  0  0  0  0  0  0  0  0  0
   -3.2050    1.0540   -0.5480 C   0  0  0  0  0  0  0  0  0  0  0  0
   -2.5970    2.0640    0.3260 C   0  0  2  0  0  0  0  0  0  0  0  0
   -3.2620    2.0290    1.5560 O   0  0  0  0  0  0  0  0  0  0  0  0
   -2.6450    3.3310   -0.2290 F   0  0  0  0  0  0  0  0  0  0  0  0
   -1.1720    1.5770    0.4680 C   0  0  2  0  0  0  0  0  0  0  0  0
   -0.3350    2.5060   -0.3700 C   0  0  0  0  0  0  0  0  0  0  0  0
   -0.8120    1.7000    1.9340 C   0  0  0  0  0  0  0  0  0  0  0  0
    1.6380   -0.9240    1.4620 C   0  0  1  0  0  0  0  0  0  0  0  0
    2.6500   -2.0020    1.0320 C   0  0  0  0  0  0  0  0  0  0  0  0
    2.4620    0.2020    2.0210 C   0  0  0  0  0  0  0  0  0  0  0  0
    0.8150   -1.5320    2.3800 O   0  0  0  0  0  0  0  0  0  0  0  0
  1  2  1  0
  2  3  1  0
  3  4  2  0
  3  5  1  0
  5  6  1  0
  5 23  1  0
  6  7  1  0
  7  8  1  0
  7 20  1  0
  8  9  1  0
  8 16  2  0
  9 10  1  6
  9 11  1  0
  9 14  1  0
 11 12  1  0
 12 13  1  0
 13 14  2  0
 14 15  1  0
 16 17  1  0
 17 18  1  1
 17 19  1  0
 17 20  1  0
 20 21  1  6
 20 22  1  0
 23 24  1  6
 23 25  1  0
 23 26  1  0
M  CHG  1  18  -1
M  END
