
     RDKit          3D

 29 31  0  0  0  0  0  0  0  0999 V2000
    5.9480    0.4730   -1.7770 C   0  0  0  0  0  0  0  0  0  0  0  0
    4.8520   -0.4350   -2.3210 C   0  0  0  0  0  0  0  0  0  0  0  0
    4.1870    0.2720   -3.2940 O   0  0  0  0  0  0  0  0  0  0  0  0
    3.1490   -0.4160   -3.8960 C   0  0  0  0  0  0  0  0  0  0  0  0
    2.1500   -0.7350   -2.8310 C   0  0  0  0  0  0  0  0  0  0  0  0
    1.8500   -1.9980   -2.5810 C   0  0  0  0  0  0  0  0  0  0  0  0
    0.8890   -2.3820   -1.5740 C   0  0  0  0  0  0  0  0  0  0  0  0
    0.0370   -1.3910   -1.0530 C   0  0  0  0  0  0  0  0  0  0  0  0
   -0.8800   -1.6650   -0.0800 C   0  0  0  0  0  0  0  0  0  0  0  0
   -1.7990   -0.7330    0.4540 N   0  0  0  0  0  0  0  0  0  0  0  0
   -1.7540    0.6720    0.3560 C   0  0  0  0  0  0  0  0  0  0  0  0
   -0.7760    1.1870   -0.2400 O   0  0  0  0  0  0  0  0  0  0  0  0
   -2.8130    1.5610    0.9180 C   0  0  0  0  0  0  0  0  0  0  0  0
   -2.5320    3.0040    0.7200 C   0  0  1  0  0  0  0  0  0  0  0  0
   -2.3380    3.3510   -0.6080 O   0  0  0  0  0  0  0  0  0  0  0  0
   -3.8820    3.7010    1.1480 C   0  0  0  0  0  0  0  0  0  0  0  0
   -3.8550    3.6670    2.6270 C   0  0  0  0  0  0  0  0  0  0  0  0
   -2.3760    3.7720    2.9780 C   0  0  0  0  0  0  0  0  0  0  0  0
   -1.9730    3.9170    4.2120 C   0  0  0  0  0  0  0  0  0  0  0  0
   -2.8690    3.9890    5.3130 C   0  0  0  0  0  0  0  0  0  0  0  0
   -4.1160    3.9010    5.1590 O   0  0  0  0  0  0  0  0  0  0  0  0
   -1.6190    3.6600    1.6840 C   0  0  0  0  0  0  0  0  0  0  0  0
   -0.9300   -2.9810    0.3830 C   0  0  0  0  0  0  0  0  0  0  0  0
   -0.1300   -3.9940   -0.0770 C   0  0  0  0  0  0  0  0  0  0  0  0
   -0.2020   -5.2750    0.4120 C   0  0  0  0  0  0  0  0  0  0  0  0
    0.6290   -6.2530   -0.0710 C   0  0  0  0  0  0  0  0  0  0  0  0
    1.5400   -5.9610   -1.0460 C   0  0  0  0  0  0  0  0  0  0  0  0
    1.5990   -4.6630   -1.5290 C   0  0  0  0  0  0  0  0  0  0  0  0
    0.7940   -3.6670   -1.0790 C   0  0  0  0  0  0  0  0  0  0  0  0
  1  2  1  0
  2  3  1  0
  3  4  1  0
  4  5  1  0
  5  6  2  3
  6  7  1  0
  7  8  2  0
  7 29  1  0
  8  9  1  0
  9 10  1  0
  9 23  2  0
 10 11  1  0
 11 12  2  0
 11 13  1  0
 13 14  1  0
 14 15  1  6
 14 16  1  0
 14 22  1  0
 16 17  1  0
 17 18  1  0
 18 19  2  3
 18 22  1  0
 19 20  1  0
 20 21  2  0
 23 24  1  0
 24 25  2  0
 24 29  1  0
 25 26  1  0
 26 27  2  0
 27 28  1  0
 28 29  2  0
M  END
