
     RDKit          3D

 27 30  0  0  0  0  0  0  0  0999 V2000
   -3.1330    2.1240    0.4340 C   0  0  0  0  0  0  0  0  0  0  0  0
   -2.4520    1.1130   -0.0530 C   0  0  0  0  0  0  0  0  0  0  0  0
   -2.9650    0.2820   -1.0410 O   0  0  0  0  0  0  0  0  0  0  0  0
   -2.1630   -0.2460   -2.0700 C   0  0  0  0  0  0  0  0  0  0  0  0
   -0.7260   -0.0860   -1.7270 C   0  0  0  0  0  0  0  0  0  0  0  0
    0.0360    0.1550   -2.6300 O   0  0  0  0  0  0  0  0  0  0  0  0
   -0.3640   -0.2400   -0.2980 C   0  0  2  0  0  0  0  0  0  0  0  0
   -0.6620   -1.6290    0.1390 C   0  0  1  0  0  0  0  0  0  0  0  0
    0.5540   -2.3720    0.4700 N   0  0  0  0  0  0  0  0  0  0  0  0
   -1.5640   -1.7710    1.2890 C   0  0  0  0  0  0  0  0  0  0  0  0
   -1.7880   -0.7610    2.0960 C   0  0  0  0  0  0  0  0  0  0  0  0
   -1.1490    0.4410    1.8300 O   0  0  0  0  0  0  0  0  0  0  0  0
   -1.0860    0.8430    0.4700 C   0  0  2  0  0  0  0  0  0  0  0  0
   -0.1860    2.0220    0.3710 C   0  0  0  0  0  0  0  0  0  0  0  0
   -0.5020    3.1570    0.6330 O   0  0  0  0  0  0  0  0  0  0  0  0
    1.1510    1.5830   -0.0960 C   0  0  2  0  0  0  0  0  0  0  0  0
    2.1500    1.9820    0.7810 F   0  0  0  0  0  0  0  0  0  0  0  0
    1.3670    2.1180   -1.4190 N   0  0  0  0  0  0  0  0  0  0  0  0
    1.2950    3.4830   -1.2900 O   0  0  0  0  0  0  0  0  0  0  0  0
    2.5780    1.8550   -1.9210 F   0  0  0  0  0  0  0  0  0  0  0  0
    1.0820    0.0950   -0.0260 C   0  0  2  0  0  0  0  0  0  0  0  0
    1.9850   -0.5700   -0.9020 N   0  0  0  0  0  0  0  0  0  0  0  0
    3.2860   -0.8270   -0.4200 C   0  0  0  0  0  0  0  0  0  0  0  0
    3.4280   -1.1100    0.9350 O   0  0  0  0  0  0  0  0  0  0  0  0
    2.5420   -0.4960    1.8230 C   0  0  0  0  0  0  0  0  0  0  0  0
    2.8550   -0.1670    2.9960 O   0  0  0  0  0  0  0  0  0  0  0  0
    1.2800   -0.2590    1.3480 O   0  0  0  0  0  0  0  0  0  0  0  0
  1  2  2  0
  2  3  1  0
  2 13  1  0
  3  4  1  0
  4  5  1  0
  5  6  2  0
  7  5  1  6
  7  8  1  0
  7 13  1  0
  7 21  1  0
  8  9  1  1
  8 10  1  0
 10 11  2  0
 11 12  1  0
 13 12  1  1
 13 14  1  0
 14 15  2  0
 14 16  1  0
 16 17  1  1
 16 18  1  0
 16 21  1  0
 18 19  1  0
 18 20  1  0
 21 22  1  6
 21 27  1  0
 22 23  1  0
 23 24  1  0
 24 25  1  0
 25 26  2  0
 25 27  1  0
M  CHG  1  19  -1
M  END
