
     RDKit          3D

 29 32  0  0  0  0  0  0  0  0999 V2000
    4.3710    1.7090    1.0050 C   0  0  0  0  0  0  0  0  0  0  0  0
    4.3240    0.5370    0.0800 C   0  0  0  0  0  0  0  0  0  0  0  0
    5.4920   -0.1360   -0.2310 O   0  0  0  0  0  0  0  0  0  0  0  0
    3.1920    0.1310   -0.4480 C   0  0  0  0  0  0  0  0  0  0  0  0
    1.9560    0.8350   -0.1260 C   0  0  0  0  0  0  0  0  0  0  0  0
    0.8280   -0.1480    0.2550 C   0  0  2  0  0  0  0  0  0  0  0  0
    1.1690   -0.5790    1.6630 C   0  0  0  0  0  0  0  0  0  0  0  0
    0.8480   -1.2690   -0.6570 N   0  0  0  0  0  0  0  0  0  0  0  0
    1.9740   -1.6650   -1.3990 C   0  0  0  0  0  0  0  0  0  0  0  0
    2.0240   -2.6480   -2.1950 O   0  0  0  0  0  0  0  0  0  0  0  0
    3.1800   -0.9480   -1.2950 O   0  0  0  0  0  0  0  0  0  0  0  0
   -0.3770   -2.0030   -0.8180 C   0  0  2  0  0  0  0  0  0  0  0  0
   -0.7940   -2.3600    0.4680 O   0  0  0  0  0  0  0  0  0  0  0  0
   -0.2950   -3.1630   -1.6510 N   0  0  0  0  0  0  0  0  0  0  0  0
   -1.5840   -3.6470   -1.7180 F   0  0  0  0  0  0  0  0  0  0  0  0
    0.3650   -4.1070   -0.9240 F   0  0  0  0  0  0  0  0  0  0  0  0
   -1.3160   -0.9260   -1.3980 C   0  0  0  0  0  0  0  0  0  0  0  0
   -1.5490    0.0030   -0.2510 C   0  0  2  0  0  0  0  0  0  0  0  0
   -1.7900    1.4500   -0.6330 C   0  0  2  0  0  0  0  0  0  0  0  0
   -0.3970    1.4590   -0.7960 O   0  0  0  0  0  0  0  0  0  0  0  0
   -0.3780    0.5860    0.2690 N   0  0  0  0  0  0  0  0  0  0  0  0
   -2.1310    2.2480    0.5590 C   0  0  0  0  0  0  0  0  0  0  0  0
   -1.7570    3.3890    0.7700 O   0  0  0  0  0  0  0  0  0  0  0  0
   -3.0000    1.6230    1.5920 C   0  0  0  0  0  0  0  0  0  0  0  0
   -3.6060    0.4010    0.9570 C   0  0  1  0  0  0  0  0  0  0  0  0
   -4.2280    0.6920   -0.2600 O   0  0  0  0  0  0  0  0  0  0  0  0
   -5.4520    0.2830   -0.3270 O   0  0  0  0  0  0  0  0  0  0  0  0
   -2.5340   -0.5290    0.6370 N   0  0  0  0  0  0  0  0  0  0  0  0
   -3.2220   -1.5640    0.0440 F   0  0  0  0  0  0  0  0  0  0  0  0
  1  2  1  0
  2  3  1  0
  2  4  2  3
  4  5  1  0
  4 11  1  0
  5  6  1  0
  6  7  1  1
  6  8  1  0
  6 21  1  0
  8  9  1  0
  8 12  1  0
  9 10  2  0
  9 11  1  0
 12 13  1  1
 12 14  1  0
 12 17  1  0
 14 15  1  0
 14 16  1  0
 18 17  1  6
 18 19  1  0
 18 21  1  0
 18 28  1  0
 19 20  1  1
 19 22  1  0
 20 21  1  0
 22 23  2  0
 22 24  1  0
 24 25  1  0
 25 26  1  6
 25 28  1  0
 26 27  1  0
 28 29  1  0
M  CHG  1  13  -1
M  END
