
     RDKit          3D

 28 28  0  0  0  0  0  0  0  0999 V2000
    4.3520   -0.2620    0.4870 C   0  0  0  0  0  0  0  0  0  0  0  0
    3.4520   -1.4690    0.6170 C   0  0  2  0  0  0  0  0  0  0  0  0
    4.2200   -2.6360    0.3190 N   0  0  0  0  0  0  0  0  0  0  0  0
    2.3020   -1.3020   -0.4130 C   0  0  0  0  0  0  0  0  0  0  0  0
    1.6400   -0.2070   -0.0720 O   0  0  0  0  0  0  0  0  0  0  0  0
    0.5230    0.2370   -0.7200 C   0  0  1  0  0  0  0  0  0  0  0  0
    0.8440    0.4640   -2.1710 C   0  0  2  0  0  0  0  0  0  0  0  0
    1.2560   -0.7070   -2.7700 F   0  0  0  0  0  0  0  0  0  0  0  0
    1.9400    1.4600   -2.3860 C   0  0  0  0  0  0  0  0  0  0  0  0
    1.8690    2.7250   -1.8990 F   0  0  0  0  0  0  0  0  0  0  0  0
    3.1290    1.1570   -3.1270 S   0  0  0  0  0  0  0  0  0  0  0  0
   -0.4100   -0.7340   -0.6410 O   0  0  0  0  0  0  0  0  0  0  0  0
   -1.4480   -0.6920    0.2360 C   0  0  2  0  0  0  0  0  0  0  0  0
   -0.8300   -0.5300    1.5360 N   0  0  0  0  0  0  0  0  0  0  0  0
   -1.6600   -0.4110    2.6020 N   0  0  0  0  0  0  0  0  0  0  0  0
   -2.1420   -2.0030    0.0280 C   0  0  2  0  0  0  0  0  0  0  0  0
   -3.2440   -2.3780    0.9180 C   0  0  0  0  0  0  0  0  0  0  0  0
   -1.1760   -3.0450    0.0820 O   0  0  0  0  0  0  0  0  0  0  0  0
   -2.6670   -1.9460   -1.2880 O   0  0  0  0  0  0  0  0  0  0  0  0
   -2.4060    0.4030    0.0470 C   0  0  0  0  0  0  0  0  0  0  0  0
   -3.7260    0.0890    0.3050 O   0  0  0  0  0  0  0  0  0  0  0  0
   -2.1850    1.6400   -0.3350 C   0  0  0  0  0  0  0  0  0  0  0  0
   -3.2850    2.5680   -0.4590 C   0  0  0  0  0  0  0  0  0  0  0  0
   -4.4460    2.1690   -0.1970 O   0  0  0  0  0  0  0  0  0  0  0  0
   -3.0860    3.8770   -0.8580 O   0  0  0  0  0  0  0  0  0  0  0  0
   -0.8500    2.2040   -0.6640 C   0  0  0  0  0  0  0  0  0  0  0  0
    0.1680    1.4640   -0.0430 N   0  0  0  0  0  0  0  0  0  0  0  0
    1.1560    2.1050    0.7090 C   0  0  0  0  0  0  0  0  0  0  0  0
  2  1  1  6
  2  3  1  0
  2  4  1  0
  4  5  1  0
  6  5  1  1
  6  7  1  0
  6 12  1  0
  6 27  1  0
  7  8  1  1
  7  9  1  0
  9 10  1  0
  9 11  2  0
 12 13  1  0
 13 14  1  1
 13 16  1  0
 13 20  1  0
 14 15  1  0
 16 17  1  1
 16 18  1  0
 16 19  1  0
 20 21  1  0
 20 22  2  0
 22 23  1  0
 22 26  1  0
 23 24  2  0
 23 25  1  0
 26 27  1  0
 27 28  1  0
M  CHG  1  18  -1
M  END
