
     RDKit          3D

 30 32  0  0  0  0  0  0  0  0999 V2000
    8.5180    0.5140   -0.0050 C   0  0  0  0  0  0  0  0  0  0  0  0
    7.6220   -0.3940    0.3380 C   0  0  0  0  0  0  0  0  0  0  0  0
    8.1540   -1.6910    0.8990 C   0  0  0  0  0  0  0  0  0  0  0  0
    6.1870   -0.2240    0.2110 C   0  0  0  0  0  0  0  0  0  0  0  0
    5.6580    0.9330   -0.2940 C   0  0  0  0  0  0  0  0  0  0  0  0
    4.2720    1.0590   -0.4010 C   0  0  0  0  0  0  0  0  0  0  0  0
    3.4190    0.0610   -0.0170 C   0  0  0  0  0  0  0  0  0  0  0  0
    1.9830    0.1790   -0.1230 C   0  0  0  0  0  0  0  0  0  0  0  0
    1.3830    1.2380   -0.5890 C   0  0  0  0  0  0  0  0  0  0  0  0
   -0.0920    1.3580   -0.6970 C   0  0  0  0  0  0  0  0  0  0  0  0
   -0.5580    2.4290   -1.1630 O   0  0  0  0  0  0  0  0  0  0  0  0
   -0.9530    0.3310   -0.3010 N   0  0  0  0  0  0  0  0  0  0  0  0
   -2.3710    0.3560   -0.3670 C   0  0  0  0  0  0  0  0  0  0  0  0
   -3.0840    1.4240   -0.8410 C   0  0  0  0  0  0  0  0  0  0  0  0
   -4.4680    1.3720   -0.8740 C   0  0  0  0  0  0  0  0  0  0  0  0
   -5.1260    0.2510   -0.4300 C   0  0  0  0  0  0  0  0  0  0  0  0
   -4.4390   -0.8290    0.0480 N   0  0  0  0  0  0  0  0  0  0  0  0
   -5.1420   -2.0130    0.5220 C   0  0  0  0  0  0  0  0  0  0  0  0
   -5.4650   -1.9580    1.9910 C   0  0  2  0  0  0  0  0  0  0  0  0
   -6.1340   -3.1240    2.3450 F   0  0  0  0  0  0  0  0  0  0  0  0
   -6.2290   -0.9020    2.3770 F   0  0  0  0  0  0  0  0  0  0  0  0
   -3.8410   -1.9600    3.0760 Br  0  0  0  0  0  0  0  0  0  0  0  0
   -3.1020   -0.7590    0.0710 C   0  0  0  0  0  0  0  0  0  0  0  0
   -2.4700   -1.7490    0.5090 O   0  0  0  0  0  0  0  0  0  0  0  0
   -6.5770    0.2300   -0.4850 C   0  0  0  0  0  0  0  0  0  0  0  0
   -7.2420    1.2650   -0.9480 C   0  0  0  0  0  0  0  0  0  0  0  0
   -6.5950    2.4930   -1.4360 C   0  0  0  0  0  0  0  0  0  0  0  0
   -5.1880    2.4540   -1.3540 O   0  0  0  0  0  0  0  0  0  0  0  0
    3.9810   -1.1070    0.4930 C   0  0  0  0  0  0  0  0  0  0  0  0
    5.3440   -1.2620    0.6110 C   0  0  0  0  0  0  0  0  0  0  0  0
  1  2  2  0
  2  3  1  0
  2  4  1  0
  4  5  2  0
  4 30  1  0
  5  6  1  0
  6  7  2  0
  7  8  1  0
  7 29  1  0
  8  9  2  3
  9 10  1  0
 10 11  2  0
 10 12  1  0
 12 13  1  0
 13 14  2  0
 13 23  1  0
 14 15  1  0
 15 16  2  0
 15 28  1  0
 16 17  1  0
 16 25  1  0
 17 18  1  0
 17 23  1  0
 18 19  1  0
 19 20  1  1
 19 21  1  0
 19 22  1  0
 23 24  2  0
 25 26  2  0
 26 27  1  0
 27 28  1  0
 29 30  2  0
M  END
