
     RDKit          3D

 30 32  0  0  0  0  0  0  0  0999 V2000
    2.3000    0.2850   -2.2670 C   0  0  0  0  0  0  0  0  0  0  0  0
    2.2050    0.9150   -1.0130 O   0  0  0  0  0  0  0  0  0  0  0  0
    2.3500    0.2970    0.1940 C   0  0  0  0  0  0  0  0  0  0  0  0
    3.6160    0.2220    0.7660 C   0  0  0  0  0  0  0  0  0  0  0  0
    4.6860    0.7950    0.0560 N   0  0  0  0  0  0  0  0  0  0  0  0
    6.0350    0.8280    0.4540 C   0  0  0  0  0  0  0  0  0  0  0  0
    6.3920    0.3140    1.5370 O   0  0  0  0  0  0  0  0  0  0  0  0
    7.0800    1.4670   -0.3870 C   0  0  0  0  0  0  0  0  0  0  0  0
    6.6950    1.9720   -1.4650 O   0  0  0  0  0  0  0  0  0  0  0  0
    8.4880    1.4890    0.0490 C   0  0  2  0  0  0  0  0  0  0  0  0
    9.2260    2.1400   -0.9200 F   0  0  0  0  0  0  0  0  0  0  0  0
    9.0200    0.2120    0.1520 F   0  0  0  0  0  0  0  0  0  0  0  0
    8.6680    2.3570    1.7800 Br  0  0  0  0  0  0  0  0  0  0  0  0
    3.7190   -0.4050    1.9760 C   0  0  0  0  0  0  0  0  0  0  0  0
    2.6120   -0.9550    2.6300 C   0  0  0  0  0  0  0  0  0  0  0  0
    1.3550   -0.8590    2.0230 C   0  0  0  0  0  0  0  0  0  0  0  0
    1.2360   -0.2380    0.8190 C   0  0  0  0  0  0  0  0  0  0  0  0
   -0.0530   -0.1320    0.1770 C   0  0  0  0  0  0  0  0  0  0  0  0
   -1.1260   -0.6310    0.7430 C   0  0  0  0  0  0  0  0  0  0  0  0
   -2.3700   -0.4740    0.0210 N   0  0  0  0  0  0  0  0  0  0  0  0
   -3.1710   -1.5940   -0.3110 C   0  0  0  0  0  0  0  0  0  0  0  0
   -4.3180   -1.4510   -0.9680 C   0  0  0  0  0  0  0  0  0  0  0  0
   -5.1270   -2.6500   -1.2960 C   0  0  0  0  0  0  0  0  0  0  0  0
   -4.8050   -0.1150   -1.3810 C   0  0  0  0  0  0  0  0  0  0  0  0
   -4.3140    0.9380   -0.4270 C   0  0  2  0  0  0  0  0  0  0  0  0
   -4.8340    0.7160    0.9790 C   0  0  0  0  0  0  0  0  0  0  0  0
   -4.6890    2.3030   -0.9460 C   0  0  0  0  0  0  0  0  0  0  0  0
   -2.8040    0.8440   -0.3670 C   0  0  0  0  0  0  0  0  0  0  0  0
   -1.0870   -1.3130    2.0310 C   0  0  0  0  0  0  0  0  0  0  0  0
    0.2020   -1.4460    2.7330 C   0  0  0  0  0  0  0  0  0  0  0  0
  1  2  1  0
  2  3  1  0
  3  4  2  0
  3 17  1  0
  4  5  1  0
  4 14  1  0
  5  6  1  0
  6  7  2  0
  6  8  1  0
  8  9  2  0
  8 10  1  0
 10 11  1  6
 10 12  1  0
 10 13  1  0
 14 15  2  0
 15 16  1  0
 16 17  2  0
 16 30  1  0
 17 18  1  0
 18 19  2  0
 19 20  1  0
 19 29  1  0
 20 21  1  0
 20 28  1  0
 21 22  2  0
 22 23  1  0
 22 24  1  0
 24 25  1  0
 25 26  1  1
 25 27  1  0
 25 28  1  0
 29 30  1  0
M  END
