
     RDKit          3D

 22 22  0  0  0  0  0  0  0  0999 V2000
    0.4260   -0.0220    1.8790 C   0  0  0  0  0  0  0  0  0  0  0  0
   -0.0150    0.3450    0.4970 C   0  0  0  0  0  0  0  0  0  0  0  0
    0.9590    0.4600   -0.3960 C   0  0  0  0  0  0  0  0  0  0  0  0
    2.3800    0.2390   -0.0460 C   0  0  0  0  0  0  0  0  0  0  0  0
    3.2770    0.3720   -0.9850 C   0  0  0  0  0  0  0  0  0  0  0  0
    4.7100    0.1700   -0.7200 C   0  0  1  0  0  0  0  0  0  0  0  0
    5.4830    1.4560   -1.0580 C   0  0  0  0  0  0  0  0  0  0  0  0
    4.9690   -0.2000    0.6760 C   0  0  0  0  0  0  0  0  0  0  0  0
    5.6360    0.5610    1.4220 O   0  0  0  0  0  0  0  0  0  0  0  0
    4.4670   -1.4030    1.1610 O   0  0  0  0  0  0  0  0  0  0  0  0
   -1.3740    0.5690    0.1050 C   0  0  1  0  0  0  0  0  0  0  0  0
   -1.4940    0.8010   -1.3840 C   0  0  0  0  0  0  0  0  0  0  0  0
   -2.9080    0.5940   -1.6710 N   0  0  0  0  0  0  0  0  0  0  0  0
   -3.5560    0.1370   -0.4650 C   0  0  2  0  0  0  0  0  0  0  0  0
   -4.0310    1.3070    0.2910 C   0  0  0  0  0  0  0  0  0  0  0  0
   -3.8230    2.4530   -0.1840 O   0  0  0  0  0  0  0  0  0  0  0  0
   -4.6980    1.2610    1.5010 O   0  0  0  0  0  0  0  0  0  0  0  0
   -2.3740   -0.5340    0.2870 C   0  0  1  0  0  0  0  0  0  0  0  0
   -2.1080   -1.7970   -0.4420 C   0  0  0  0  0  0  0  0  0  0  0  0
   -3.2300   -2.7380   -0.0930 C   0  0  0  0  0  0  0  0  0  0  0  0
   -3.2430   -3.3260    1.0240 O   0  0  0  0  0  0  0  0  0  0  0  0
   -4.2700   -2.9810   -0.9780 O   0  0  0  0  0  0  0  0  0  0  0  0
  1  2  1  0
  2  3  2  3
 11  2  1  6
  3  4  1  0
  4  5  2  3
  5  6  1  0
  6  7  1  1
  6  8  1  0
  8  9  2  0
  8 10  1  0
 11 12  1  0
 11 18  1  0
 12 13  1  0
 13 14  1  0
 14 15  1  1
 14 18  1  0
 15 16  2  0
 15 17  1  0
 18 19  1  6
 19 20  1  0
 20 21  2  0
 20 22  1  0
M  CHG  1  13   1
M  END
