
     RDKit          3D

 22 23  0  0  0  0  0  0  0  0999 V2000
   -4.3530   -0.3800   -2.0410 N   0  0  0  0  0  0  0  0  0  0  0  0
   -3.2160   -0.5490   -1.1620 C   0  0  0  0  0  0  0  0  0  0  0  0
   -2.9860    0.6390   -0.2750 C   0  0  1  0  0  0  0  0  0  0  0  0
   -2.7240    1.8740   -1.0830 C   0  0  0  0  0  0  0  0  0  0  0  0
   -3.8630    2.0880   -1.8760 O   0  0  0  0  0  0  0  0  0  0  0  0
   -4.1670    0.8290    0.6710 C   0  0  0  0  0  0  0  0  0  0  0  0
   -4.5390   -0.5050    0.9580 O   0  0  0  0  0  0  0  0  0  0  0  0
   -3.6270   -1.1280    1.7330 C   0  0  0  0  0  0  0  0  0  0  0  0
   -2.1730   -0.8640    1.4850 C   0  0  0  0  0  0  0  0  0  0  0  0
   -1.8180    0.3190    0.6910 C   0  0  2  0  0  0  0  0  0  0  0  0
   -1.8460    1.4370    1.5790 O   0  0  0  0  0  0  0  0  0  0  0  0
   -0.5350    0.3570   -0.0140 C   0  0  0  0  0  0  0  0  0  0  0  0
    0.6890    0.0820    0.7560 C   0  0  1  0  0  0  0  0  0  0  0  0
    0.8400   -1.2630    1.3830 C   0  0  0  0  0  0  0  0  0  0  0  0
    2.3770   -1.3150    1.6380 C   0  0  0  0  0  0  0  0  0  0  0  0
    2.8360   -0.1110    0.8730 C   0  0  1  0  0  0  0  0  0  0  0  0
    4.1930   -0.3280    0.2210 C   0  0  0  0  0  0  0  0  0  0  0  0
    4.4840    0.8270   -0.4850 O   0  0  0  0  0  0  0  0  0  0  0  0
    5.6890    0.8140   -1.1450 C   0  0  0  0  0  0  0  0  0  0  0  0
    5.7720   -0.3020   -2.1680 C   0  0  0  0  0  0  0  0  0  0  0  0
    7.0280   -0.2600   -2.8090 O   0  0  0  0  0  0  0  0  0  0  0  0
    1.8430    0.1280   -0.0760 O   0  0  0  0  0  0  0  0  0  0  0  0
  1  2  1  0
  3  2  1  6
  3  4  1  0
  3  6  1  0
  3 10  1  0
  4  5  1  0
  6  7  1  0
  7  8  1  0
  8  9  1  0
  9 10  1  0
 10 11  1  1
 10 12  1  0
 13 12  1  6
 13 14  1  0
 13 22  1  0
 14 15  1  0
 15 16  1  0
 16 17  1  6
 16 22  1  0
 17 18  1  0
 18 19  1  0
 19 20  1  0
 20 21  1  0
M  CHG  1   1   1
M  END
