
     RDKit          3D

 22 22  0  0  0  0  0  0  0  0999 V2000
    3.7600    3.2670   -0.8670 C   0  0  0  0  0  0  0  0  0  0  0  0
    3.5740    1.7750   -0.5710 C   0  0  1  0  0  0  0  0  0  0  0  0
    4.9830    1.1850   -0.6460 C   0  0  0  0  0  0  0  0  0  0  0  0
    5.5060    1.2860   -1.9340 O   0  0  0  0  0  0  0  0  0  0  0  0
    3.1000    1.6570    0.7030 O   0  0  0  0  0  0  0  0  0  0  0  0
    1.8620    1.0140    0.8160 C   0  0  0  0  0  0  0  0  0  0  0  0
    1.9250   -0.3950    0.3260 C   0  0  0  0  0  0  0  0  0  0  0  0
    0.6310   -1.1700    0.4430 C   0  0  2  0  0  0  0  0  0  0  0  0
    0.9300   -2.5560   -0.0970 C   0  0  0  0  0  0  0  0  0  0  0  0
    1.2380   -2.5440   -1.4850 N   0  0  0  0  0  0  0  0  0  0  0  0
   -0.4550   -0.4610   -0.2800 C   0  0  0  0  0  0  0  0  0  0  0  0
   -1.8360   -0.9920    0.0550 C   0  0  2  0  0  0  0  0  0  0  0  0
   -2.1630   -2.1830   -0.8060 C   0  0  0  0  0  0  0  0  0  0  0  0
   -2.8520    0.0890   -0.2130 C   0  0  0  0  0  0  0  0  0  0  0  0
   -2.4610    1.1980   -0.6430 O   0  0  0  0  0  0  0  0  0  0  0  0
   -4.1880   -0.0830   -0.0080 O   0  0  0  0  0  0  0  0  0  0  0  0
   -5.2280    0.8040   -0.2020 C   0  0  0  0  0  0  0  0  0  0  0  0
   -5.2270    2.0640    0.5770 C   0  0  0  0  0  0  0  0  0  0  0  0
   -4.1470    2.8860    0.3870 O   0  0  0  0  0  0  0  0  0  0  0  0
   -1.9770   -1.3630    1.4900 C   0  0  0  0  0  0  0  0  0  0  0  0
   -0.7710   -1.9610    2.1290 C   0  0  0  0  0  0  0  0  0  0  0  0
    0.3570   -1.2670    1.8120 O   0  0  0  0  0  0  0  0  0  0  0  0
  2  1  1  1
  2  3  1  0
  2  5  1  0
  3  4  1  0
  5  6  1  0
  6  7  1  0
  8  7  1  1
  8  9  1  0
  8 11  1  0
  8 22  1  0
  9 10  1  0
 11 12  1  0
 12 13  1  6
 12 14  1  0
 12 20  1  0
 14 15  2  0
 14 16  1  0
 16 17  1  0
 17 18  1  0
 18 19  1  0
 20 21  1  0
 21 22  1  0
M  CHG  1  10   1
M  END
