
     RDKit          3D

 21 21  0  0  0  0  0  0  0  0999 V2000
   -3.5890    3.0290    0.1820 C   0  0  0  0  0  0  0  0  0  0  0  0
   -3.2350    1.8040    0.5840 C   0  0  0  0  0  0  0  0  0  0  0  0
   -1.8080    1.4130    0.7550 C   0  0  0  0  0  0  0  0  0  0  0  0
   -1.4930    0.2580   -0.2100 C   0  0  2  0  0  0  0  0  0  0  0  0
   -1.7510    0.8180   -1.5950 C   0  0  0  0  0  0  0  0  0  0  0  0
   -2.4850   -0.7410    0.1410 N   0  0  0  0  0  0  0  0  0  0  0  0
   -2.2730   -2.0570   -0.3460 C   0  0  0  0  0  0  0  0  0  0  0  0
   -3.6210   -2.7910   -0.1200 C   0  0  0  0  0  0  0  0  0  0  0  0
   -3.9210   -2.7850    1.2390 O   0  0  0  0  0  0  0  0  0  0  0  0
   -0.1470   -0.3040   -0.0210 C   0  0  1  0  0  0  0  0  0  0  0  0
   -0.0330   -1.4370   -0.8740 O   0  0  0  0  0  0  0  0  0  0  0  0
    1.0420    0.5120   -0.3640 C   0  0  1  0  0  0  0  0  0  0  0  0
    1.2540    1.7900    0.3480 C   0  0  0  0  0  0  0  0  0  0  0  0
    2.7690    1.8640    0.3600 C   0  0  0  0  0  0  0  0  0  0  0  0
    3.2890    0.6770    0.2500 C   0  0  0  0  0  0  0  0  0  0  0  0
    4.7350    0.3600    0.2260 C   0  0  0  0  0  0  0  0  0  0  0  0
    5.6110    1.2580    0.3130 O   0  0  0  0  0  0  0  0  0  0  0  0
    5.1760   -0.9410    0.1050 O   0  0  0  0  0  0  0  0  0  0  0  0
    6.5140   -1.3350    0.0720 C   0  0  0  0  0  0  0  0  0  0  0  0
    2.2270   -0.3230    0.1570 C   0  0  1  0  0  0  0  0  0  0  0  0
    1.8350   -0.8210    1.3980 O   0  0  0  0  0  0  0  0  0  0  0  0
  1  2  2  0
  2  3  1  0
  3  4  1  0
  4  5  1  6
  4  6  1  0
  4 10  1  0
  6  7  1  0
  7  8  1  0
  8  9  1  0
 10 11  1  6
 10 12  1  0
 12 13  1  1
 12 20  1  0
 13 14  1  0
 14 15  2  0
 15 16  1  0
 15 20  1  0
 16 17  2  0
 16 18  1  0
 18 19  1  0
 20 21  1  1
M  CHG  1   6   1
M  END
