
     RDKit          3D

 21 21  0  0  0  0  0  0  0  0999 V2000
    3.4640    2.2680   -2.7510 C   0  0  0  0  0  0  0  0  0  0  0  0
    3.1430    1.5230   -1.6090 O   0  0  0  0  0  0  0  0  0  0  0  0
    4.3410    1.2480   -0.9590 C   0  0  0  0  0  0  0  0  0  0  0  0
    4.0950    0.4430    0.2910 C   0  0  0  0  0  0  0  0  0  0  0  0
    3.4260   -0.8610   -0.0770 C   0  0  2  0  0  0  0  0  0  0  0  0
    2.1330   -0.6810   -0.7520 C   0  0  0  0  0  0  0  0  0  0  0  0
    1.1110   -0.7500    0.1250 C   0  0  0  0  0  0  0  0  0  0  0  0
   -0.2730   -0.6130   -0.2460 C   0  0  0  0  0  0  0  0  0  0  0  0
   -1.3160   -0.6710    0.5480 C   0  0  0  0  0  0  0  0  0  0  0  0
   -1.2030   -0.8820    1.9060 O   0  0  0  0  0  0  0  0  0  0  0  0
   -2.6430   -0.5070   -0.0280 C   0  0  0  0  0  0  0  0  0  0  0  0
   -3.7610   -0.5460    0.6200 C   0  0  0  0  0  0  0  0  0  0  0  0
   -3.8820   -0.7660    2.0730 C   0  0  0  0  0  0  0  0  0  0  0  0
   -4.9820   -0.3670   -0.0820 O   0  0  0  0  0  0  0  0  0  0  0  0
   -5.2160    0.7820   -0.8500 C   0  0  0  0  0  0  0  0  0  0  0  0
   -5.1590    2.0480   -0.0340 C   0  0  0  0  0  0  0  0  0  0  0  0
   -6.0930    2.0730    0.9830 O   0  0  0  0  0  0  0  0  0  0  0  0
    1.6650   -0.9690    1.4510 C   0  0  0  0  0  0  0  0  0  0  0  0
    1.2030   -0.7260    2.5710 O   0  0  0  0  0  0  0  0  0  0  0  0
    3.0140   -1.5930    1.2100 C   0  0  1  0  0  0  0  0  0  0  0  0
    2.8450   -2.9840    0.9140 N   0  0  0  0  0  0  0  0  0  0  0  0
  1  2  1  0
  2  3  1  0
  3  4  1  0
  5  4  1  1
  5  6  1  0
  5 20  1  0
  6  7  2  0
  7  8  1  0
  7 18  1  0
  8  9  2  3
  9 10  1  0
  9 11  1  0
 11 12  2  3
 12 13  1  0
 12 14  1  0
 14 15  1  0
 15 16  1  0
 16 17  1  0
 18 19  2  0
 18 20  1  0
 20 21  1  6
M  CHG  1  21   1
M  END
