
     RDKit          3D

 21 21  0  0  0  0  0  0  0  0999 V2000
    5.4990    0.8470    0.9770 C   0  0  0  0  0  0  0  0  0  0  0  0
    4.1890    0.4730    0.7430 O   0  0  0  0  0  0  0  0  0  0  0  0
    4.0230   -0.8870    0.6920 C   0  0  1  0  0  0  0  0  0  0  0  0
    5.0080   -1.4380   -0.3170 C   0  0  0  0  0  0  0  0  0  0  0  0
    4.4340   -1.3920    1.9480 O   0  0  0  0  0  0  0  0  0  0  0  0
    2.6370   -1.3730    0.4660 C   0  0  0  0  0  0  0  0  0  0  0  0
    2.0240   -0.9940   -0.6900 O   0  0  0  0  0  0  0  0  0  0  0  0
    1.8480    0.3420   -0.9060 C   0  0  0  0  0  0  0  0  0  0  0  0
    1.0150    1.0210    0.1560 C   0  0  0  0  0  0  0  0  0  0  0  0
   -0.2560    0.5270    0.2900 O   0  0  0  0  0  0  0  0  0  0  0  0
   -1.0620    0.6070   -0.8140 C   0  0  1  0  0  0  0  0  0  0  0  0
   -1.5040   -0.8280   -1.1390 C   0  0  0  0  0  0  0  0  0  0  0  0
   -2.5510   -1.3080   -0.1800 C   0  0  1  0  0  0  0  0  0  0  0  0
   -3.8560   -1.5750   -0.9050 C   0  0  0  0  0  0  0  0  0  0  0  0
   -2.0700   -2.6770    0.3290 C   0  0  0  0  0  0  0  0  0  0  0  0
   -2.7110   -0.5220    0.9310 O   0  0  0  0  0  0  0  0  0  0  0  0
   -2.9600    0.7960    0.7080 C   0  0  1  0  0  0  0  0  0  0  0  0
   -4.4410    1.1500    0.7370 C   0  0  0  0  0  0  0  0  0  0  0  0
   -2.3420    1.5680    1.8850 C   0  0  0  0  0  0  0  0  0  0  0  0
   -2.3600    1.3490   -0.5430 C   0  0  1  0  0  0  0  0  0  0  0  0
   -2.1880    2.7740   -0.5260 N   0  0  0  0  0  0  0  0  0  0  0  0
  1  2  1  0
  2  3  1  0
  3  4  1  6
  3  5  1  0
  3  6  1  0
  6  7  1  0
  7  8  1  0
  8  9  1  0
  9 10  1  0
 11 10  1  1
 11 12  1  0
 11 20  1  0
 12 13  1  0
 13 14  1  6
 13 15  1  0
 13 16  1  0
 16 17  1  0
 17 18  1  6
 17 19  1  0
 17 20  1  0
 20 21  1  1
M  CHG  1  21   1
M  END
