
     RDKit          3D

 11 11  0  0  0  0  0  0  0  0999 V2000
    3.9520   -0.8430    0.5400 C   0  0  0  0  0  0  0  0  0  0  0  0
    2.9060    0.0660   -0.0260 C   0  0  0  0  0  0  0  0  0  0  0  0
    1.5910   -0.4030    0.2420 O   0  0  0  0  0  0  0  0  0  0  0  0
    0.4580    0.2910   -0.1940 C   0  0  0  0  0  0  0  0  0  0  0  0
    0.4250    1.5390   -0.4780 N   0  0  0  0  0  0  0  0  0  0  0  0
   -0.8770    1.9270   -0.8910 N   0  0  0  0  0  0  0  0  0  0  0  0
   -1.3750    0.6780   -1.4960 C   0  0  0  0  0  0  0  0  0  0  0  0
   -0.8970   -0.2590   -0.4100 C   0  0  1  0  0  0  0  0  0  0  0  0
   -0.9020   -1.5810   -0.7950 O   0  0  0  0  0  0  0  0  0  0  0  0
   -1.7310    0.0010    0.8230 C   0  0  0  0  0  0  0  0  0  0  0  0
   -3.0890   -0.3820    0.5380 N   0  0  0  0  0  0  0  0  0  0  0  0
  1  2  1  0
  2  3  1  0
  3  4  1  0
  4  5  2  0
  4  8  1  0
  5  6  1  0
  6  7  1  0
  7  8  1  0
  8  9  1  6
  8 10  1  0
 10 11  1  0
M  CHG  1  11   1
M  END
