
     RDKit          3D

 11 11  0  0  0  0  0  0  0  0999 V2000
   -1.6580   -1.7490   -0.0010 C   0  0  0  0  0  0  0  0  0  0  0  0
   -1.8230   -0.2860    0.1860 C   0  0  0  0  0  0  0  0  0  0  0  0
   -3.0150    0.3290    0.1210 N   0  0  0  0  0  0  0  0  0  0  0  0
   -2.8820    1.6250    0.3220 N   0  0  0  0  0  0  0  0  0  0  0  0
   -1.5770    1.8600    0.5220 C   0  0  0  0  0  0  0  0  0  0  0  0
   -1.0280    2.9840    0.7520 O   0  0  0  0  0  0  0  0  0  0  0  0
   -0.8860    0.6770    0.4430 C   0  0  0  0  0  0  0  0  0  0  0  0
    0.4590    0.4590    0.5840 O   0  0  0  0  0  0  0  0  0  0  0  0
    1.3600    0.5080   -0.5330 C   0  0  0  0  0  0  0  0  0  0  0  0
    2.7690    0.2360   -0.1140 C   0  0  0  0  0  0  0  0  0  0  0  0
    2.9350   -1.0680    0.4950 N   0  0  0  0  0  0  0  0  0  0  0  0
  1  2  1  0
  2  3  1  0
  2  7  2  0
  3  4  1  0
  4  5  1  0
  5  6  2  0
  5  7  1  0
  7  8  1  0
  8  9  1  0
  9 10  1  0
 10 11  1  0
M  CHG  1  11   1
M  END
