
     RDKit          3D

 18 20  0  0  0  0  0  0  0  0999 V2000
   -2.0110    3.5150    0.3870 C   0  0  0  0  0  0  0  0  0  0  0  0
   -1.5430    2.8150    1.4770 C   0  0  0  0  0  0  0  0  0  0  0  0
   -1.0530    1.5380    1.2850 C   0  0  0  0  0  0  0  0  0  0  0  0
   -1.0220    0.9500    0.0100 C   0  0  0  0  0  0  0  0  0  0  0  0
   -0.3790   -0.4010   -0.0490 C   0  0  1  0  0  0  0  0  0  0  0  0
    1.0340   -0.1600    0.0960 N   0  0  1  0  0  0  0  0  0  0  0  0
    1.9080   -1.2510   -0.0430 C   0  0  0  0  0  0  0  0  0  0  0  0
    3.0150   -0.9990   -1.0650 C   0  0  0  0  0  0  0  0  0  0  0  0
    3.8040    0.2540   -0.7980 C   0  0  0  0  0  0  0  0  0  0  0  0
    2.8820    1.3040   -0.2840 C   0  0  0  0  0  0  0  0  0  0  0  0
    1.4570    0.9950   -0.7200 C   0  0  0  0  0  0  0  0  0  0  0  0
   -0.8620   -1.1800    1.1310 C   0  0  0  0  0  0  0  0  0  0  0  0
   -1.3970   -2.5390    0.7460 C   0  0  0  0  0  0  0  0  0  0  0  0
   -2.5620   -2.4490   -0.1850 C   0  0  0  0  0  0  0  0  0  0  0  0
   -2.3010   -1.3270   -1.1940 C   0  0  0  0  0  0  0  0  0  0  0  0
   -0.7860   -1.1050   -1.2930 C   0  0  0  0  0  0  0  0  0  0  0  0
   -1.4940    1.6420   -1.0720 C   0  0  0  0  0  0  0  0  0  0  0  0
   -1.9820    2.9050   -0.8670 C   0  0  0  0  0  0  0  0  0  0  0  0
  1  2  2  0
  1 18  1  0
  2  3  1  0
  3  4  2  0
  5  4  1  6
  4 17  1  0
  5  6  1  0
  5 12  1  0
  5 16  1  0
  6  7  1  6
  6 11  1  0
  7  8  1  0
  8  9  1  0
  9 10  1  0
 10 11  1  0
 12 13  1  0
 13 14  1  0
 14 15  1  0
 15 16  1  0
 17 18  2  0
M  CHG  1   6   1
M  END
