
     RDKit          3D

 10 10  0  0  0  0  0  0  0  0999 V2000
    0.3140    2.2330    0.8020 N   0  0  0  0  0  0  0  0  0  0  0  0
    0.7090    0.9280    0.3540 C   0  0  0  0  0  0  0  0  0  0  0  0
   -0.1040    0.1660   -0.3600 C   0  0  0  0  0  0  0  0  0  0  0  0
   -1.4450    0.6810   -0.6960 C   0  0  0  0  0  0  0  0  0  0  0  0
   -2.4780   -0.2110   -0.0650 C   0  0  0  0  0  0  0  0  0  0  0  0
   -2.3760   -1.5040   -0.5270 O   0  0  0  0  0  0  0  0  0  0  0  0
    0.3610   -1.1050   -0.7740 N   0  0  0  0  0  0  0  0  0  0  0  0
    1.5510   -1.5460   -0.4770 C   0  0  0  0  0  0  0  0  0  0  0  0
    2.5220   -0.7810    0.3070 C   0  0  0  0  0  0  0  0  0  0  0  0
    2.0130    0.5070    0.7190 N   0  0  0  0  0  0  0  0  0  0  0  0
  1  2  1  0
  2  3  2  0
  2 10  1  0
  3  4  1  0
  3  7  1  0
  4  5  1  0
  5  6  1  0
  7  8  2  0
  8  9  1  0
  9 10  1  0
M  CHG  1   7   1
M  END
