
     RDKit          3D

 22 24  0  0  0  0  0  0  0  0999 V2000
   -3.7790    2.5610    1.7090 O   0  0  0  0  0  0  0  0  0  0  0  0
   -3.1220    1.5810    1.2720 C   0  0  0  0  0  0  0  0  0  0  0  0
   -3.5880    0.7520    0.2720 O   0  0  0  0  0  0  0  0  0  0  0  0
   -2.7510   -0.0800   -0.5040 C   0  0  2  0  0  0  0  0  0  0  0  0
   -3.2930   -1.3760   -0.4410 O   0  0  0  0  0  0  0  0  0  0  0  0
   -1.3370   -0.1280   -0.0120 C   0  0  1  0  0  0  0  0  0  0  0  0
   -0.7330   -1.4380   -0.4750 C   0  0  2  0  0  0  0  0  0  0  0  0
   -1.4770   -2.5320   -0.1080 O   0  0  0  0  0  0  0  0  0  0  0  0
    0.7250   -1.5570   -0.0770 C   0  0  1  0  0  0  0  0  0  0  0  0
    1.1930   -2.7410   -0.6950 O   0  0  0  0  0  0  0  0  0  0  0  0
    1.4680   -0.4220   -0.7390 C   0  0  2  0  0  0  0  0  0  0  0  0
    2.9390   -0.4450   -0.4870 C   0  0  0  0  0  0  0  0  0  0  0  0
    3.2760    0.1620    0.8640 C   0  0  0  0  0  0  0  0  0  0  0  0
    2.6280    1.5250    0.9420 C   0  0  0  0  0  0  0  0  0  0  0  0
    1.2350    1.3000    0.9180 O   0  0  0  0  0  0  0  0  0  0  0  0
    0.9180    0.9220   -0.3670 C   0  0  1  0  0  0  0  0  0  0  0  0
    1.5330    1.8620   -1.2270 O   0  0  0  0  0  0  0  0  0  0  0  0
   -0.5550    0.9770   -0.6710 C   0  0  2  0  0  0  0  0  0  0  0  0
   -1.0420    2.2340   -0.4240 O   0  0  0  0  0  0  0  0  0  0  0  0
   -1.3520   -0.0060    1.4860 C   0  0  2  0  0  0  0  0  0  0  0  0
   -2.3160   -0.9160    1.9760 O   0  0  0  0  0  0  0  0  0  0  0  0
   -1.8620    1.2850    1.7950 O   0  0  0  0  0  0  0  0  0  0  0  0
  1  2  2  0
  2  3  1  0
  2 22  1  0
  3  4  1  0
  4  5  1  1
  6  4  1  6
  6  7  1  0
  6 18  1  0
  6 20  1  0
  7  8  1  1
  7  9  1  0
  9 10  1  6
  9 11  1  0
 11 12  1  1
 11 16  1  0
 12 13  1  0
 13 14  1  0
 14 15  1  0
 15 16  1  0
 16 17  1  6
 16 18  1  0
 18 19  1  1
 20 21  1  1
 20 22  1  0
M  END
