
     RDKit          3D

 22 22  0  0  0  0  0  0  0  0999 V2000
    5.6910    1.3700    1.0250 O   0  0  0  0  0  0  0  0  0  0  0  0
    4.4540    1.5930    0.8120 C   0  0  0  0  0  0  0  0  0  0  0  0
    3.9950    2.8850    1.0000 O   0  0  0  0  0  0  0  0  0  0  0  0
    3.6090    0.5630    0.4060 O   0  0  0  0  0  0  0  0  0  0  0  0
    4.1370   -0.7320    0.2320 C   0  0  0  0  0  0  0  0  0  0  0  0
    3.0410   -1.6640   -0.2060 C   0  0  2  0  0  0  0  0  0  0  0  0
    2.4880   -1.2440   -1.3990 O   0  0  0  0  0  0  0  0  0  0  0  0
    1.9370   -1.7520    0.8330 C   0  0  1  0  0  0  0  0  0  0  0  0
    2.6450   -2.2040    2.0080 O   0  0  0  0  0  0  0  0  0  0  0  0
    1.3590   -0.5520    1.0830 O   0  0  0  0  0  0  0  0  0  0  0  0
    0.0190   -0.4430    1.0500 C   0  0  0  0  0  0  0  0  0  0  0  0
   -0.6990   -0.6470   -0.2570 C   0  0  2  0  0  0  0  0  0  0  0  0
   -0.4430   -1.9170   -0.7460 O   0  0  0  0  0  0  0  0  0  0  0  0
   -0.2580    0.4070   -1.2010 C   0  0  0  0  0  0  0  0  0  0  0  0
   -1.1500    1.5440   -1.4740 C   0  0  0  0  0  0  0  0  0  0  0  0
   -2.6140    1.3350   -1.2490 C   0  0  0  0  0  0  0  0  0  0  0  0
   -2.7440    0.7640    0.1560 C   0  0  1  0  0  0  0  0  0  0  0  0
   -4.1420    0.7520    0.6510 C   0  0  1  0  0  0  0  0  0  0  0  0
   -4.5990    2.0900    0.6590 O   0  0  0  0  0  0  0  0  0  0  0  0
   -5.0140    0.0100   -0.1090 O   0  0  0  0  0  0  0  0  0  0  0  0
   -2.1740   -0.6180    0.0720 C   0  0  1  0  0  0  0  0  0  0  0  0
   -2.9160   -1.3300   -0.8720 O   0  0  0  0  0  0  0  0  0  0  0  0
  1  2  2  0
  2  3  1  0
  2  4  1  0
  4  5  1  0
  5  6  1  0
  6  7  1  6
  6  8  1  0
  8  9  1  1
  8 10  1  0
 10 11  1  0
 11 12  1  0
 12 13  1  6
 12 14  1  0
 12 21  1  0
 14 15  1  0
 15 16  1  0
 17 16  1  6
 17 18  1  0
 17 21  1  0
 18 19  1  6
 18 20  1  0
 21 22  1  6
M  END
