
     RDKit          3D

 23 23  0  0  0  0  0  0  0  0999 V2000
   -4.0330   -0.8820   -1.1250 O   0  0  0  0  0  0  0  0  0  0  0  0
   -3.5190   -0.5150   -0.0380 C   0  0  0  0  0  0  0  0  0  0  0  0
   -4.3240    0.2420    0.8100 O   0  0  0  0  0  0  0  0  0  0  0  0
   -2.1430   -0.8470    0.3560 C   0  0  2  0  0  0  0  0  0  0  0  0
   -2.0040   -1.0060    1.8620 C   0  0  0  0  0  0  0  0  0  0  0  0
   -2.8730   -2.0490    2.2370 O   0  0  0  0  0  0  0  0  0  0  0  0
   -1.0230   -0.1860   -0.3190 C   0  0  1  0  0  0  0  0  0  0  0  0
   -0.8620    1.2710   -0.2890 C   0  0  0  0  0  0  0  0  0  0  0  0
   -1.9200    2.1230   -0.8920 C   0  0  1  0  0  0  0  0  0  0  0  0
   -1.5610    3.4950   -0.7590 O   0  0  0  0  0  0  0  0  0  0  0  0
   -1.9950    1.9490   -2.2960 O   0  0  0  0  0  0  0  0  0  0  0  0
    0.2780   -0.8070    0.2340 C   0  0  0  0  0  0  0  0  0  0  0  0
    1.2480   -0.7170   -0.8900 C   0  0  2  0  0  0  0  0  0  0  0  0
    1.9010   -2.0750   -1.1210 C   0  0  0  0  0  0  0  0  0  0  0  0
    0.8570   -2.9840   -1.3030 O   0  0  0  0  0  0  0  0  0  0  0  0
    2.1680    0.2740   -0.6960 O   0  0  0  0  0  0  0  0  0  0  0  0
    2.9110    0.0950    0.4410 C   0  0  1  0  0  0  0  0  0  0  0  0
    4.2400   -0.1740   -0.0580 O   0  0  0  0  0  0  0  0  0  0  0  0
    3.0890    1.2860    1.3150 C   0  0  2  0  0  0  0  0  0  0  0  0
    3.8630    0.9540    2.4520 O   0  0  0  0  0  0  0  0  0  0  0  0
    1.9530    1.9110    1.7540 O   0  0  0  0  0  0  0  0  0  0  0  0
    0.3470   -0.4540   -2.0790 C   0  0  0  0  0  0  0  0  0  0  0  0
   -0.9570   -0.6030   -1.6670 O   0  0  0  0  0  0  0  0  0  0  0  0
  1  2  2  0
  2  3  1  0
  2  4  1  0
  4  5  1  1
  4  7  1  0
  5  6  1  0
  7  8  1  6
  7 12  1  0
  7 23  1  0
  8  9  1  0
  9 10  1  6
  9 11  1  0
 12 13  1  0
 13 14  1  6
 13 16  1  0
 13 22  1  0
 14 15  1  0
 16 17  1  0
 17 18  1  6
 17 19  1  0
 19 20  1  1
 19 21  1  0
 22 23  1  0
M  END
