
     RDKit          3D

 13 12  0  0  0  0  0  0  0  0999 V2000
   -3.2650   -1.5070    0.3020 C   0  0  0  0  0  0  0  0  0  0  0  0
   -2.0830   -1.2240   -0.4030 O   0  0  0  0  0  0  0  0  0  0  0  0
   -0.9000   -0.8220    0.2180 C   0  0  0  0  0  0  0  0  0  0  0  0
   -0.5800   -1.4620    1.3100 C   0  0  0  0  0  0  0  0  0  0  0  0
    0.5760   -1.1820    2.0570 O   0  0  0  0  0  0  0  0  0  0  0  0
   -0.1050    0.2550   -0.3600 C   0  0  0  0  0  0  0  0  0  0  0  0
   -0.3490    0.9320   -1.4260 C   0  0  0  0  0  0  0  0  0  0  0  0
   -1.4470    0.8700   -2.3870 C   0  0  0  0  0  0  0  0  0  0  0  0
   -2.1400    2.1740   -2.4240 N   0  0  0  0  0  0  0  0  0  0  0  0
    1.0690    0.5570    0.3760 O   0  0  0  0  0  0  0  0  0  0  0  0
    2.3150    0.0100   -0.0120 C   0  0  0  0  0  0  0  0  0  0  0  0
    3.3630    0.5120    0.9570 C   0  0  0  0  0  0  0  0  0  0  0  0
    4.6250    0.0110    0.6350 O   0  0  0  0  0  0  0  0  0  0  0  0
  1  2  1  0
  2  3  1  0
  3  4  2  3
  3  6  1  0
  4  5  1  0
  6  7  2  3
  6 10  1  0
  7  8  1  0
  8  9  1  0
 10 11  1  0
 11 12  1  0
 12 13  1  0
M  END
