
     RDKit          3D

  9  9  0  0  0  0  0  0  0  0999 V2000
   -0.9910    2.1220    1.7040 O   0  0  0  0  0  0  0  0  0  0  0  0
   -0.8240    1.0270    1.0970 C   0  0  0  0  0  0  0  0  0  0  0  0
   -1.5550    0.6390   -0.1380 C   0  0  0  0  0  0  0  0  0  0  0  0
   -0.7950   -0.5410   -0.6450 C   0  0  0  0  0  0  0  0  0  0  0  0
    0.3800   -0.7470    0.2830 C   0  0  1  0  0  0  0  0  0  0  0  0
    1.6480   -0.2750   -0.2980 C   0  0  0  0  0  0  0  0  0  0  0  0
    2.2780    0.6690    0.2700 O   0  0  0  0  0  0  0  0  0  0  0  0
    2.2170   -0.7910   -1.4390 O   0  0  0  0  0  0  0  0  0  0  0  0
    0.0650    0.0070    1.4800 N   0  0  0  0  0  0  0  0  0  0  0  0
  1  2  2  0
  2  3  1  0
  2  9  1  0
  3  4  1  0
  4  5  1  0
  5  6  1  6
  5  9  1  0
  6  7  2  0
  6  8  1  0
M  END
