
     RDKit          3D

 14 14  0  0  0  0  0  0  0  0999 V2000
   -4.5950   -0.2530    0.0870 C   0  0  0  0  0  0  0  0  0  0  0  0
   -3.5270   -1.0190    0.5050 O   0  0  0  0  0  0  0  0  0  0  0  0
   -2.3260   -0.3430    0.6000 C   0  0  0  0  0  0  0  0  0  0  0  0
   -1.8570    0.2510   -0.6890 C   0  0  0  0  0  0  0  0  0  0  0  0
   -0.6640    0.9320   -0.6660 O   0  0  0  0  0  0  0  0  0  0  0  0
    0.6200    0.5730   -0.4100 C   0  0  0  0  0  0  0  0  0  0  0  0
    1.0340   -0.7150   -0.1110 C   0  0  0  0  0  0  0  0  0  0  0  0
    2.3560   -1.0310    0.1460 C   0  0  0  0  0  0  0  0  0  0  0  0
    2.7690   -2.3620    0.4540 N   0  0  0  0  0  0  0  0  0  0  0  0
    3.2730   -0.0030    0.0960 C   0  0  0  0  0  0  0  0  0  0  0  0
    4.9810   -0.4090    0.4280 S   0  0  0  0  0  0  0  0  0  0  0  0
    2.8740    1.2860   -0.2020 C   0  0  0  0  0  0  0  0  0  0  0  0
    1.5700    1.6110   -0.4580 C   0  0  0  0  0  0  0  0  0  0  0  0
    1.1680    2.9020   -0.7560 O   0  0  0  0  0  0  0  0  0  0  0  0
  1  2  1  0
  2  3  1  0
  3  4  1  0
  4  5  1  0
  5  6  1  0
  6  7  2  0
  6 13  1  0
  7  8  1  0
  8  9  1  0
  8 10  2  0
 10 11  1  0
 10 12  1  0
 12 13  2  0
 13 14  1  0
M  END
