
     RDKit          3D

 15 15  0  0  0  0  0  0  0  0999 V2000
   -4.4180   -0.2180   -0.5080 C   0  0  0  0  0  0  0  0  0  0  0  0
   -3.8120    0.9400    0.2530 C   0  0  0  0  0  0  0  0  0  0  0  0
   -2.3410    0.9570   -0.0210 C   0  0  0  0  0  0  0  0  0  0  0  0
   -1.4640    2.0000   -1.0800 S   0  0  0  0  0  0  0  0  0  0  0  0
    0.1590    1.3090   -0.7760 C   0  0  0  0  0  0  0  0  0  0  0  0
   -0.1060    0.3070    0.1380 C   0  0  0  0  0  0  0  0  0  0  0  0
    1.0570   -0.5190    0.6420 C   0  0  0  0  0  0  0  0  0  0  0  0
    0.8560   -1.4350    1.4700 O   0  0  0  0  0  0  0  0  0  0  0  0
    2.3220   -0.2890    0.2160 O   0  0  0  0  0  0  0  0  0  0  0  0
    3.4020   -1.0640    0.6920 C   0  0  0  0  0  0  0  0  0  0  0  0
    4.6780   -0.6280    0.0890 C   0  0  0  0  0  0  0  0  0  0  0  0
    4.6740    0.4420   -0.8410 N   0  0  0  0  0  0  0  0  0  0  0  0
    5.7110   -1.2210    0.4230 O   0  0  0  0  0  0  0  0  0  0  0  0
   -1.3790    0.1310    0.5190 C   0  0  0  0  0  0  0  0  0  0  0  0
   -1.7710   -0.8790    1.4640 O   0  0  0  0  0  0  0  0  0  0  0  0
  1  2  1  0
  2  3  1  0
  3  4  1  0
  3 14  2  0
  4  5  1  0
  5  6  2  0
  6  7  1  0
  6 14  1  0
  7  8  2  0
  7  9  1  0
  9 10  1  0
 10 11  1  0
 11 12  1  0
 11 13  2  0
 14 15  1  0
M  END
