
     RDKit          3D

 15 15  0  0  0  0  0  0  0  0999 V2000
   -2.4530   -1.1740    0.2890 C   0  0  0  0  0  0  0  0  0  0  0  0
   -1.7790   -0.4390   -0.8230 C   0  0  0  0  0  0  0  0  0  0  0  0
   -0.4960    0.1740   -0.2650 C   0  0  0  0  0  0  0  0  0  0  0  0
   -0.5720    1.3400    0.3990 C   0  0  0  0  0  0  0  0  0  0  0  0
   -1.6750    2.2540    0.7060 C   0  0  0  0  0  0  0  0  0  0  0  0
   -2.8430    2.0990    0.3610 O   0  0  0  0  0  0  0  0  0  0  0  0
   -1.4140    3.4170    1.4580 O   0  0  0  0  0  0  0  0  0  0  0  0
    1.0850    1.7000    0.9070 S   0  0  0  0  0  0  0  0  0  0  0  0
    1.7850    0.1800    0.1460 C   0  0  0  0  0  0  0  0  0  0  0  0
    3.1420   -0.1460    0.1990 O   0  0  0  0  0  0  0  0  0  0  0  0
    4.0070    0.7400    0.8680 C   0  0  0  0  0  0  0  0  0  0  0  0
    0.7030   -0.4370   -0.4060 C   0  0  0  0  0  0  0  0  0  0  0  0
    0.9200   -1.7480   -1.0890 C   0  0  0  0  0  0  0  0  0  0  0  0
   -0.1020   -2.5680   -1.5900 N   0  0  0  0  0  0  0  0  0  0  0  0
    2.1070   -2.1490   -1.2250 O   0  0  0  0  0  0  0  0  0  0  0  0
  1  2  1  0
  2  3  1  0
  3  4  2  0
  3 12  1  0
  4  5  1  0
  4  8  1  0
  5  6  2  0
  5  7  1  0
  8  9  1  0
  9 10  1  0
  9 12  2  0
 10 11  1  0
 12 13  1  0
 13 14  1  0
 13 15  2  0
M  END
