
     RDKit          3D

 15 15  0  0  0  0  0  0  0  0999 V2000
   -2.9400    1.9650    0.6410 C   0  0  0  0  0  0  0  0  0  0  0  0
   -2.0140    0.8860    0.1020 C   0  0  0  0  0  0  0  0  0  0  0  0
   -0.7450    1.0830   -0.2590 C   0  0  0  0  0  0  0  0  0  0  0  0
   -0.0170    0.0070   -0.7340 C   0  0  0  0  0  0  0  0  0  0  0  0
    1.3900    0.0330   -1.1800 C   0  0  0  0  0  0  0  0  0  0  0  0
    2.2880   -0.2540   -0.1490 O   0  0  0  0  0  0  0  0  0  0  0  0
    3.6440   -0.2600   -0.4450 C   0  0  0  0  0  0  0  0  0  0  0  0
    4.0480   -0.0140   -1.6080 O   0  0  0  0  0  0  0  0  0  0  0  0
    4.6470   -0.5580    0.6070 C   0  0  0  0  0  0  0  0  0  0  0  0
    5.9290   -0.5040    0.0710 O   0  0  0  0  0  0  0  0  0  0  0  0
   -1.1490   -1.3070   -0.6670 S   0  0  0  0  0  0  0  0  0  0  0  0
   -2.5300   -0.4000   -0.0220 C   0  0  0  0  0  0  0  0  0  0  0  0
   -3.8390   -0.9000    0.2860 C   0  0  0  0  0  0  0  0  0  0  0  0
   -4.1470   -2.2580    0.0770 N   0  0  0  0  0  0  0  0  0  0  0  0
   -4.7040   -0.1330    0.7370 O   0  0  0  0  0  0  0  0  0  0  0  0
  1  2  1  0
  2  3  1  0
  2 12  2  0
  3  4  2  0
  4  5  1  0
  4 11  1  0
  5  6  1  0
  6  7  1  0
  7  8  2  0
  7  9  1  0
  9 10  1  0
 11 12  1  0
 12 13  1  0
 13 14  1  0
 13 15  2  0
M  END
