
     RDKit          3D

 15 15  0  0  0  0  0  0  0  0999 V2000
    5.5750   -0.8440   -1.6010 O   0  0  0  0  0  0  0  0  0  0  0  0
    5.1620   -0.3570   -0.5160 C   0  0  0  0  0  0  0  0  0  0  0  0
    6.0750    0.0490    0.4450 O   0  0  0  0  0  0  0  0  0  0  0  0
    3.6960   -0.2500   -0.3400 C   0  0  0  0  0  0  0  0  0  0  0  0
    3.2330    0.4560    1.2370 S   0  0  0  0  0  0  0  0  0  0  0  0
    1.4600    0.5380    1.3430 C   0  0  0  0  0  0  0  0  0  0  0  0
    0.9420    1.0070    2.3800 O   0  0  0  0  0  0  0  0  0  0  0  0
    0.6410    0.0870    0.2820 N   0  0  0  0  0  0  0  0  0  0  0  0
   -0.8170    0.1650    0.3950 C   0  0  2  0  0  0  0  0  0  0  0  0
   -1.4420   -1.1900    0.2600 C   0  0  0  0  0  0  0  0  0  0  0  0
   -2.8030   -1.2690    0.8860 C   0  0  0  0  0  0  0  0  0  0  0  0
   -3.6780   -0.1770    0.3080 C   0  0  0  0  0  0  0  0  0  0  0  0
   -3.1530    1.0440    0.6710 O   0  0  0  0  0  0  0  0  0  0  0  0
   -2.6450    1.6420   -0.4860 C   0  0  0  0  0  0  0  0  0  0  0  0
   -1.2660    1.0890   -0.7360 C   0  0  0  0  0  0  0  0  0  0  0  0
  1  2  2  0
  2  3  1  0
  2  4  1  0
  4  5  1  0
  5  6  1  0
  6  7  2  0
  6  8  1  0
  9  8  1  6
  9 10  1  0
  9 15  1  0
 10 11  1  0
 11 12  1  0
 12 13  1  0
 13 14  1  0
 14 15  1  0
M  END
