
     RDKit          3D

 35 38  0  0  0  0  0  0  0  0999 V2000
   -2.1110   -2.2450    2.0180 O   0  0  0  0  0  0  0  0  0  0  0  0
   -2.6150   -1.6560    1.0590 C   0  0  0  0  0  0  0  0  0  0  0  0
   -3.8570   -2.2110    0.5850 N   0  0  0  0  0  0  0  0  0  0  0  0
   -4.5910   -3.6420    1.3470 P   0  0  0  0  0  0  0  0  0  0  0  0
   -5.1830   -4.7570    0.1540 O   0  0  0  0  0  0  0  0  0  0  0  0
   -3.5480   -4.3900    2.4940 O   0  0  0  0  0  0  0  0  0  0  0  0
   -3.7730   -5.6830    2.4730 O   0  0  0  0  0  0  0  0  0  0  0  0
   -2.0720   -0.4890    0.3930 C   0  0  0  0  0  0  0  0  0  0  0  0
   -2.7980    0.0820   -0.7180 N   0  0  0  0  0  0  0  0  0  0  0  0
   -3.7350    1.1400   -0.6240 C   0  0  2  0  0  0  0  0  0  0  0  0
   -4.3750    1.4560   -1.9660 C   0  0  0  0  0  0  0  0  0  0  0  0
   -4.7690    2.7850   -1.9840 O   0  0  0  0  0  0  0  0  0  0  0  0
   -3.7420    3.5860   -2.1240 O   0  0  0  0  0  0  0  0  0  0  0  0
   -3.3330    4.0580   -0.9710 O   0  0  0  0  0  0  0  0  0  0  0  0
   -2.9840    2.7320    0.0710 P   0  0  0  0  0  0  0  0  0  0  0  0
   -4.0480    2.7790    1.4820 O   0  0  0  0  0  0  0  0  0  0  0  0
   -5.1280    2.2280    0.9220 O   0  0  0  0  0  0  0  0  0  0  0  0
   -4.7670    0.9640    0.4750 C   0  0  0  0  0  0  0  0  0  0  0  0
   -0.9270    0.1160    0.7020 C   0  0  0  0  0  0  0  0  0  0  0  0
   -0.0530   -0.2830    1.7310 N   0  0  0  0  0  0  0  0  0  0  0  0
    1.1690    0.4270    1.9990 C   0  0  0  0  0  0  0  0  0  0  0  0
    1.8010    0.2200    3.0660 O   0  0  0  0  0  0  0  0  0  0  0  0
    1.7040    1.4030    1.0420 C   0  0  1  0  0  0  0  0  0  0  0  0
    2.6860    0.7630    0.2370 O   0  0  0  0  0  0  0  0  0  0  0  0
    3.9850    1.2710    0.1680 C   0  0  0  0  0  0  0  0  0  0  0  0
    4.2070    2.3040    0.8480 O   0  0  0  0  0  0  0  0  0  0  0  0
    4.9810    0.6740   -0.6090 N   0  0  0  0  0  0  0  0  0  0  0  0
    4.6550   -0.5470   -1.3600 C   0  0  0  0  0  0  0  0  0  0  0  0
    5.8900   -1.4330   -1.0860 C   0  0  0  0  0  0  0  0  0  0  0  0
    6.9360   -0.8800   -1.7580 O   0  0  0  0  0  0  0  0  0  0  0  0
    7.1950    0.4420   -1.6160 C   0  0  0  0  0  0  0  0  0  0  0  0
    6.2940    1.2180   -0.6940 C   0  0  0  0  0  0  0  0  0  0  0  0
    0.6150    1.9540    0.1780 C   0  0  0  0  0  0  0  0  0  0  0  0
    0.7820    3.0810   -0.3370 O   0  0  0  0  0  0  0  0  0  0  0  0
   -0.5410    1.2500   -0.0500 O   0  0  0  0  0  0  0  0  0  0  0  0
  1  2  2  0
  2  3  1  0
  2  8  1  0
  3  4  1  0
  4  5  1  0
  4  6  1  0
  6  7  1  0
  8  9  1  0
  8 19  2  3
 10  9  1  6
 10 11  1  0
 10 15  1  0
 10 18  1  0
 11 12  1  0
 12 13  1  0
 13 14  1  0
 14 15  1  0
 15 16  1  0
 16 17  1  0
 17 18  1  0
 19 20  1  0
 19 35  1  0
 20 21  1  0
 21 22  2  0
 21 23  1  0
 23 24  1  6
 23 33  1  0
 24 25  1  0
 25 26  2  0
 25 27  1  0
 27 28  1  0
 27 32  1  0
 28 29  1  0
 29 30  1  0
 30 31  1  0
 31 32  1  0
 33 34  2  0
 33 35  1  0
M  END
