
     RDKit          3D

 35 37  0  0  0  0  0  0  0  0999 V2000
   -3.9820    0.5240    3.4100 O   0  0  0  0  0  0  0  0  0  0  0  0
   -3.6060    0.8150    2.2440 C   0  0  0  0  0  0  0  0  0  0  0  0
   -2.4360    0.0660    1.7180 C   0  0  0  0  0  0  0  0  0  0  0  0
   -1.9300    0.6770    0.5520 O   0  0  0  0  0  0  0  0  0  0  0  0
   -0.5930    0.4380    0.3810 C   0  0  0  0  0  0  0  0  0  0  0  0
   -0.2340    0.0770   -1.0750 C   0  0  1  0  0  0  0  0  0  0  0  0
   -1.4330   -0.3060   -1.7170 O   0  0  0  0  0  0  0  0  0  0  0  0
   -2.0770    0.9240   -2.0290 C   0  0  0  0  0  0  0  0  0  0  0  0
   -1.2380    1.9280   -1.8640 N   0  0  0  0  0  0  0  0  0  0  0  0
    0.0850    1.3020   -1.8320 C   0  0  0  0  0  0  0  0  0  0  0  0
    1.2330    1.5260   -2.2950 N   0  0  0  0  0  0  0  0  0  0  0  0
    2.3570    0.6750   -2.1940 C   0  0  0  0  0  0  0  0  0  0  0  0
    3.4840    0.9410   -2.6510 O   0  0  0  0  0  0  0  0  0  0  0  0
    2.1660   -0.5560   -1.5240 N   0  0  0  0  0  0  0  0  0  0  0  0
    3.2550   -1.5190   -1.3430 C   0  0  0  0  0  0  0  0  0  0  0  0
    3.9800   -1.2650   -0.0760 C   0  0  0  0  0  0  0  0  0  0  0  0
    3.5910   -0.3060    0.6520 O   0  0  0  0  0  0  0  0  0  0  0  0
    5.0440   -1.9910    0.3730 O   0  0  0  0  0  0  0  0  0  0  0  0
    5.7040   -1.7280    1.5680 C   0  0  0  0  0  0  0  0  0  0  0  0
    6.3120   -0.3540    1.6530 C   0  0  0  0  0  0  0  0  0  0  0  0
    7.5680   -0.0860    0.3100 P   0  0  0  0  0  0  0  0  0  0  0  0
    9.0000   -0.9920    0.5700 O   0  0  0  0  0  0  0  0  0  0  0  0
    7.8840    1.6170    0.1210 O   0  0  0  0  0  0  0  0  0  0  0  0
    0.8610   -0.8470   -1.0170 C   0  0  0  0  0  0  0  0  0  0  0  0
    0.7300   -2.0270   -0.4900 O   0  0  0  0  0  0  0  0  0  0  0  0
   -3.4750    0.9750   -2.4630 C   0  0  0  0  0  0  0  0  0  0  0  0
   -3.7360    1.6610   -3.5240 O   0  0  0  0  0  0  0  0  0  0  0  0
   -4.5010    0.3270   -1.7920 O   0  0  0  0  0  0  0  0  0  0  0  0
   -4.8450    0.4500   -0.4430 C   0  0  2  0  0  0  0  0  0  0  0  0
   -6.2510    0.2540   -0.3940 O   0  0  0  0  0  0  0  0  0  0  0  0
   -6.7000   -1.0990    0.5560 P   0  0  0  0  0  0  0  0  0  0  0  0
   -7.5970   -2.1940   -0.4590 O   0  0  0  0  0  0  0  0  0  0  0  0
   -7.7560   -0.6600    1.8780 O   0  0  0  0  0  0  0  0  0  0  0  0
   -4.6180    1.8120    0.1510 C   0  0  0  0  0  0  0  0  0  0  0  0
   -4.3140    1.8080    1.5450 N   0  0  0  0  0  0  0  0  0  0  0  0
  1  2  2  0
  2  3  1  0
  2 35  1  0
  3  4  1  0
  4  5  1  0
  6  5  1  1
  6  7  1  0
  6 10  1  0
  6 24  1  0
  7  8  1  0
  8  9  2  0
  8 26  1  0
  9 10  1  0
 10 11  2  0
 11 12  1  0
 12 13  2  0
 12 14  1  0
 14 15  1  0
 14 24  1  0
 15 16  1  0
 16 17  2  0
 16 18  1  0
 18 19  1  0
 19 20  1  0
 20 21  1  0
 21 22  1  0
 21 23  1  0
 24 25  2  0
 26 27  2  0
 26 28  1  0
 28 29  1  0
 29 30  1  6
 29 34  1  0
 30 31  1  0
 31 32  1  0
 31 33  1  0
 34 35  1  0
M  END
