
     RDKit          3D

 34 37  0  0  0  0  0  0  0  0999 V2000
   -0.6770   -1.5420    3.3130 O   0  0  0  0  0  0  0  0  0  0  0  0
   -0.3630   -1.9100    2.1530 C   0  0  0  0  0  0  0  0  0  0  0  0
    0.9060   -1.5790    1.5880 N   0  0  0  0  0  0  0  0  0  0  0  0
    0.6350   -1.6830    0.1570 C   0  0  2  0  0  0  0  0  0  0  0  0
    1.9990   -1.8700   -0.4430 C   0  0  0  0  0  0  0  0  0  0  0  0
    2.8150   -0.5980   -0.2370 C   0  0  1  0  0  0  0  0  0  0  0  0
    3.5910   -0.3160   -1.3500 O   0  0  0  0  0  0  0  0  0  0  0  0
    4.9410   -0.5350   -1.1870 C   0  0  0  0  0  0  0  0  0  0  0  0
    5.6270    0.2660   -0.1440 C   0  0  0  0  0  0  0  0  0  0  0  0
    5.5350    2.0830   -0.4870 P   0  0  0  0  0  0  0  0  0  0  0  0
    6.9100    2.5930   -1.4010 O   0  0  0  0  0  0  0  0  0  0  0  0
    5.4850    2.9990    0.9780 O   0  0  0  0  0  0  0  0  0  0  0  0
    2.0820    0.5810    0.2490 C   0  0  0  0  0  0  0  0  0  0  0  0
    0.6850    0.6730    0.0790 N   0  0  0  0  0  0  0  0  0  0  0  0
    0.0680   -0.4800   -0.5010 C   0  0  0  0  0  0  0  0  0  0  0  0
    0.0030    1.1180    1.1900 O   0  0  0  0  0  0  0  0  0  0  0  0
   -1.2660    1.6320    1.1890 C   0  0  0  0  0  0  0  0  0  0  0  0
   -1.5320    2.8610    1.4680 O   0  0  0  0  0  0  0  0  0  0  0  0
   -2.4030    0.8350    0.8750 N   0  0  0  0  0  0  0  0  0  0  0  0
   -2.6730   -0.3450    1.4840 O   0  0  0  0  0  0  0  0  0  0  0  0
   -3.6820   -0.9700    0.8430 C   0  0  2  0  0  0  0  0  0  0  0  0
   -3.4730   -2.4250    0.5000 C   0  0  0  0  0  0  0  0  0  0  0  0
   -2.4940   -3.1110    1.4360 C   0  0  0  0  0  0  0  0  0  0  0  0
   -1.1250   -2.6920    1.1810 N   0  0  0  0  0  0  0  0  0  0  0  0
   -0.3080   -2.8320    0.0690 C   0  0  0  0  0  0  0  0  0  0  0  0
   -0.1280   -3.5990   -0.9450 O   0  0  0  0  0  0  0  0  0  0  0  0
   -4.0080   -0.2180   -0.3140 O   0  0  0  0  0  0  0  0  0  0  0  0
   -3.4650    1.0490   -0.0560 C   0  0  0  0  0  0  0  0  0  0  0  0
   -3.8470    2.1910   -0.5580 C   0  0  0  0  0  0  0  0  0  0  0  0
   -3.2820    3.4140   -0.2740 O   0  0  0  0  0  0  0  0  0  0  0  0
   -3.2050    4.3180   -1.2560 O   0  0  0  0  0  0  0  0  0  0  0  0
   -5.2580    2.1850   -1.7470 P   0  0  0  0  0  0  0  0  0  0  0  0
   -5.9000    3.7860   -1.9550 O   0  0  0  0  0  0  0  0  0  0  0  0
   -6.4680    1.1210   -1.0770 O   0  0  0  0  0  0  0  0  0  0  0  0
  1  2  2  0
  2  3  1  0
  2 24  1  0
  3  4  1  0
  4  5  1  6
  4 15  1  0
  4 25  1  0
  5  6  1  0
  6  7  1  6
  6 13  1  0
  7  8  1  0
  8  9  1  0
  9 10  1  0
 10 11  1  0
 10 12  1  0
 13 14  1  0
 14 15  1  0
 14 16  1  0
 16 17  1  0
 17 18  2  0
 17 19  1  0
 19 20  1  0
 19 28  1  0
 20 21  1  0
 21 22  1  6
 21 27  1  0
 22 23  1  0
 23 24  1  0
 24 25  1  0
 25 26  2  0
 27 28  1  0
 28 29  2  3
 29 30  1  0
 29 32  1  0
 30 31  1  0
 32 33  1  0
 32 34  1  0
M  END
