
     RDKit          3D

 34 37  0  0  0  0  0  0  0  0999 V2000
   -1.8260   -4.7100   -0.6330 O   0  0  0  0  0  0  0  0  0  0  0  0
   -2.5760   -3.7530   -0.4070 C   0  0  0  0  0  0  0  0  0  0  0  0
   -2.1880   -2.5650    0.3350 N   0  0  0  0  0  0  0  0  0  0  0  0
   -3.2420   -1.6270    0.4490 C   0  0  0  0  0  0  0  0  0  0  0  0
   -3.8630   -1.4700   -0.9520 C   0  0  0  0  0  0  0  0  0  0  0  0
   -4.2140   -0.1420   -1.1850 O   0  0  0  0  0  0  0  0  0  0  0  0
   -4.8960    0.4500   -0.1550 C   0  0  0  0  0  0  0  0  0  0  0  0
   -4.0950    1.6360    0.3340 C   0  0  0  0  0  0  0  0  0  0  0  0
   -2.9550    1.8760   -0.4180 O   0  0  0  0  0  0  0  0  0  0  0  0
   -1.9550    2.5340    0.2940 C   0  0  0  0  0  0  0  0  0  0  0  0
   -0.6130    2.0680   -0.2380 C   0  0  2  0  0  0  0  0  0  0  0  0
   -0.6310    0.5540   -0.2880 C   0  0  0  0  0  0  0  0  0  0  0  0
   -0.3810   -0.0600    1.0390 C   0  0  0  0  0  0  0  0  0  0  0  0
    0.1000   -1.4680    0.8310 N   0  0  0  0  0  0  0  0  0  0  0  0
   -0.8550   -2.5180    0.8310 C   0  0  0  0  0  0  0  0  0  0  0  0
   -0.5430   -3.6610    1.3510 O   0  0  0  0  0  0  0  0  0  0  0  0
    1.5000   -1.4690    0.6690 C   0  0  0  0  0  0  0  0  0  0  0  0
    2.2030   -1.6420   -0.4130 N   0  0  0  0  0  0  0  0  0  0  0  0
    3.4240   -0.9890   -0.6640 C   0  0  0  0  0  0  0  0  0  0  0  0
    3.8530   -0.9400   -1.8610 N   0  0  0  0  0  0  0  0  0  0  0  0
    3.1310   -1.5130   -2.8720 O   0  0  0  0  0  0  0  0  0  0  0  0
    4.1780   -0.3780    0.4730 C   0  0  1  0  0  0  0  0  0  0  0  0
    5.5100   -0.4130    0.3820 O   0  0  0  0  0  0  0  0  0  0  0  0
    6.1450    0.4950   -0.4150 C   0  0  0  0  0  0  0  0  0  0  0  0
    5.3430    1.2080   -1.2970 O   0  0  0  0  0  0  0  0  0  0  0  0
    4.1140    2.0250   -0.3790 P   0  0  0  0  0  0  0  0  0  0  0  0
    2.6860    2.3100   -1.3520 O   0  0  0  0  0  0  0  0  0  0  0  0
    1.6200    3.3400   -0.4890 P   0  0  0  0  0  0  0  0  0  0  0  0
    2.5080    4.4270    0.5580 O   0  0  0  0  0  0  0  0  0  0  0  0
    0.4630    2.5170    0.4760 O   0  0  0  0  0  0  0  0  0  0  0  0
    3.6350    0.8760    0.8350 O   0  0  0  0  0  0  0  0  0  0  0  0
    3.7510   -1.2400    1.6470 C   0  0  0  0  0  0  0  0  0  0  0  0
    4.5530   -1.8440    2.3770 O   0  0  0  0  0  0  0  0  0  0  0  0
    2.3770   -1.2520    1.7800 O   0  0  0  0  0  0  0  0  0  0  0  0
  1  2  2  0
  2  3  1  0
  3  4  1  0
  3 15  1  0
  4  5  1  0
  5  6  1  0
  6  7  1  0
  7  8  1  0
  8  9  1  0
  9 10  1  0
 11 10  1  1
 11 12  1  0
 11 30  1  0
 12 13  1  0
 13 14  1  0
 14 15  1  0
 14 17  1  0
 15 16  2  0
 17 18  2  0
 17 34  1  0
 18 19  1  0
 19 20  2  3
 19 22  1  0
 20 21  1  0
 22 23  1  6
 22 31  1  0
 22 32  1  0
 23 24  1  0
 24 25  1  0
 25 26  1  0
 26 27  1  0
 26 31  1  0
 27 28  1  0
 28 29  1  0
 28 30  1  0
 32 33  2  0
 32 34  1  0
M  END
