
     RDKit          3D

 34 36  0  0  0  0  0  0  0  0999 V2000
    2.9360   -1.6370    0.2870 N   0  0  0  0  0  0  0  0  0  0  0  0
    3.9880   -0.6530    0.5320 C   0  0  0  0  0  0  0  0  0  0  0  0
    5.1110   -1.0940    0.9110 N   0  0  0  0  0  0  0  0  0  0  0  0
    6.2220   -0.4180    1.1990 O   0  0  0  0  0  0  0  0  0  0  0  0
    6.7680   -0.4470    2.4320 O   0  0  0  0  0  0  0  0  0  0  0  0
    3.7130    0.7670    0.3530 C   0  0  2  0  0  0  0  0  0  0  0  0
    4.8670    1.6840    0.3220 C   0  0  0  0  0  0  0  0  0  0  0  0
    5.8100    1.3820   -0.7910 C   0  0  0  0  0  0  0  0  0  0  0  0
    6.8840    1.9980   -0.9740 O   0  0  0  0  0  0  0  0  0  0  0  0
    5.4770    0.3680   -1.6670 O   0  0  0  0  0  0  0  0  0  0  0  0
    2.7910    1.2580    1.5470 C   0  0  0  0  0  0  0  0  0  0  0  0
    1.5640    1.3590    0.8280 N   0  0  0  0  0  0  0  0  0  0  0  0
    2.0080    2.2200   -0.2970 C   0  0  0  0  0  0  0  0  0  0  0  0
    2.8080    1.0070   -0.8760 C   0  0  2  0  0  0  0  0  0  0  0  0
    1.9260   -0.0830   -0.8960 O   0  0  0  0  0  0  0  0  0  0  0  0
    0.6670    0.1200   -1.3700 C   0  0  0  0  0  0  0  0  0  0  0  0
   -0.4040    0.0570   -0.2410 C   0  0  1  0  0  0  0  0  0  0  0  0
   -1.5510    0.9310   -0.5860 C   0  0  0  0  0  0  0  0  0  0  0  0
   -2.6650    0.7230    0.1870 O   0  0  0  0  0  0  0  0  0  0  0  0
   -4.0150    1.6810   -0.2270 P   0  0  0  0  0  0  0  0  0  0  0  0
   -4.5630    2.4880    1.2280 O   0  0  0  0  0  0  0  0  0  0  0  0
   -5.3110    0.5850   -0.6850 O   0  0  0  0  0  0  0  0  0  0  0  0
   -4.7760   -0.2950   -1.6200 C   0  0  0  0  0  0  0  0  0  0  0  0
   -5.6310   -1.4800   -1.9190 C   0  0  0  0  0  0  0  0  0  0  0  0
   -6.2310   -2.1170   -0.7860 N   0  0  0  0  0  0  0  0  0  0  0  0
   -5.5570   -2.8240    0.2380 C   0  0  0  0  0  0  0  0  0  0  0  0
   -5.9650   -3.9840    0.5870 O   0  0  0  0  0  0  0  0  0  0  0  0
   -4.3700   -2.3410    0.9870 C   0  0  0  0  0  0  0  0  0  0  0  0
   -3.1630   -2.6160    0.3160 O   0  0  0  0  0  0  0  0  0  0  0  0
   -1.8680   -1.7370    0.9860 P   0  0  0  0  0  0  0  0  0  0  0  0
   -2.1900   -0.8950    2.4050 O   0  0  0  0  0  0  0  0  0  0  0  0
   -0.6400   -1.2510   -0.0030 O   0  0  0  0  0  0  0  0  0  0  0  0
    0.3280    0.7440    0.9240 C   0  0  0  0  0  0  0  0  0  0  0  0
   -0.1880    0.7660    2.0390 O   0  0  0  0  0  0  0  0  0  0  0  0
  1  2  1  0
  2  3  2  3
  2  6  1  0
  3  4  1  0
  4  5  1  0
  6  7  1  6
  6 11  1  0
  6 14  1  0
  7  8  1  0
  8  9  2  0
  8 10  1  0
 11 12  1  0
 12 13  1  0
 12 33  1  0
 13 14  1  0
 14 15  1  1
 15 16  1  0
 17 16  1  6
 17 18  1  0
 17 32  1  0
 17 33  1  0
 18 19  1  0
 19 20  1  0
 20 21  1  0
 20 22  1  0
 22 23  1  0
 23 24  1  0
 24 25  1  0
 25 26  1  0
 26 27  2  0
 26 28  1  0
 28 29  1  0
 29 30  1  0
 30 31  1  0
 30 32  1  0
 33 34  2  0
M  END
