
     RDKit          3D

 35 37  0  0  0  0  0  0  0  0999 V2000
    2.4700    3.9560    0.4620 C   0  0  0  0  0  0  0  0  0  0  0  0
    2.0360    2.5850    0.2500 N   0  0  0  0  0  0  0  0  0  0  0  0
    2.7420    1.7120   -0.6860 C   0  0  0  0  0  0  0  0  0  0  0  0
    3.5960    0.3270    0.2250 P   0  0  0  0  0  0  0  0  0  0  0  0
    5.3130    0.3570   -0.0260 O   0  0  0  0  0  0  0  0  0  0  0  0
    2.8900   -1.1630   -0.3200 O   0  0  0  0  0  0  0  0  0  0  0  0
    2.9110   -2.0670    0.7450 C   0  0  2  0  0  0  0  0  0  0  0  0
    4.2790   -2.4160    0.8710 O   0  0  0  0  0  0  0  0  0  0  0  0
    4.4330   -3.0270   -0.3370 O   0  0  0  0  0  0  0  0  0  0  0  0
    3.3580   -3.9400   -0.3710 C   0  0  0  0  0  0  0  0  0  0  0  0
    2.3430   -3.3790    0.3110 C   0  0  0  0  0  0  0  0  0  0  0  0
    0.9900   -3.8080    0.6370 C   0  0  0  0  0  0  0  0  0  0  0  0
    0.8530   -5.0550    0.8750 O   0  0  0  0  0  0  0  0  0  0  0  0
   -0.0580   -2.9560    0.6900 O   0  0  0  0  0  0  0  0  0  0  0  0
   -0.5260   -2.0520   -0.2860 C   0  0  1  0  0  0  0  0  0  0  0  0
   -0.7670   -2.7400   -1.6070 C   0  0  0  0  0  0  0  0  0  0  0  0
   -1.1750   -2.1470   -2.6090 O   0  0  0  0  0  0  0  0  0  0  0  0
   -0.5050   -4.0980   -1.6480 O   0  0  0  0  0  0  0  0  0  0  0  0
   -1.8860   -1.6380    0.1750 C   0  0  0  0  0  0  0  0  0  0  0  0
   -2.6850   -2.6300    0.3820 O   0  0  0  0  0  0  0  0  0  0  0  0
   -2.3250   -0.3140    0.3840 N   0  0  0  0  0  0  0  0  0  0  0  0
   -3.0200   -0.0820    1.6300 C   0  0  0  0  0  0  0  0  0  0  0  0
   -4.1230   -0.7570    1.7880 N   0  0  0  0  0  0  0  0  0  0  0  0
   -2.5820    0.7880    2.6320 N   0  0  0  0  0  0  0  0  0  0  0  0
   -3.8290    1.6180    3.6580 P   0  0  0  0  0  0  0  0  0  0  0  0
   -4.4600    0.7600    4.8110 O   0  0  0  0  0  0  0  0  0  0  0  0
   -2.1880    0.8000   -0.5100 C   0  0  1  0  0  0  0  0  0  0  0  0
   -0.8040    1.3720   -0.6370 C   0  0  0  0  0  0  0  0  0  0  0  0
   -0.0800    1.3130    0.5470 O   0  0  0  0  0  0  0  0  0  0  0  0
    0.9040    2.1470    0.9960 C   0  0  0  0  0  0  0  0  0  0  0  0
    0.8410    2.6010    2.1950 O   0  0  0  0  0  0  0  0  0  0  0  0
   -2.5930    0.4780   -1.8130 O   0  0  0  0  0  0  0  0  0  0  0  0
   -3.2470    1.5530   -2.3440 C   0  0  0  0  0  0  0  0  0  0  0  0
   -3.3180    2.5810   -1.2570 C   0  0  0  0  0  0  0  0  0  0  0  0
   -3.0140    1.8700   -0.1290 O   0  0  0  0  0  0  0  0  0  0  0  0
  1  2  1  0
  2  3  1  0
  2 30  1  0
  3  4  1  0
  4  5  1  0
  4  6  1  0
  7  6  1  6
  7  8  1  0
  7 11  1  0
  8  9  1  0
  9 10  1  0
 10 11  2  0
 11 12  1  0
 12 13  2  0
 12 14  1  0
 14 15  1  0
 15 16  1  6
 15 19  1  0
 16 17  2  0
 16 18  1  0
 19 20  2  0
 19 21  1  0
 21 22  1  0
 21 27  1  0
 22 23  2  0
 22 24  1  0
 24 25  1  0
 25 26  2  0
 27 28  1  6
 27 32  1  0
 27 35  1  0
 28 29  1  0
 29 30  1  0
 30 31  2  0
 32 33  1  0
 33 34  1  0
 34 35  1  0
M  END
