
     RDKit          3D

 34 37  0  0  0  0  0  0  0  0999 V2000
    4.0660   -3.6950    3.5020 O   0  0  0  0  0  0  0  0  0  0  0  0
    2.8490   -2.8780    2.9450 P   0  0  0  0  0  0  0  0  0  0  0  0
    3.1030   -2.0740    1.4050 O   0  0  0  0  0  0  0  0  0  0  0  0
    4.0530   -1.0650    1.5670 C   0  0  0  0  0  0  0  0  0  0  0  0
    4.2630   -0.3860    0.2310 C   0  0  0  0  0  0  0  0  0  0  0  0
    3.0630    0.1940   -0.2720 N   0  0  0  0  0  0  0  0  0  0  0  0
    2.5760    1.3240    0.4770 C   0  0  1  0  0  0  0  0  0  0  0  0
    3.5530    2.4830    0.4610 C   0  0  0  0  0  0  0  0  0  0  0  0
    3.2960    2.9220   -0.8930 O   0  0  0  0  0  0  0  0  0  0  0  0
    1.9120    2.8190   -1.0460 N   0  0  0  0  0  0  0  0  0  0  0  0
    1.4330    1.9000   -0.2690 C   0  0  0  0  0  0  0  0  0  0  0  0
    0.0720    1.5150   -0.1420 N   0  0  0  0  0  0  0  0  0  0  0  0
   -0.4150    0.3600   -0.2030 C   0  0  0  0  0  0  0  0  0  0  0  0
    0.5490   -0.6290   -0.4250 O   0  0  0  0  0  0  0  0  0  0  0  0
    0.3670   -1.9910   -0.7880 C   0  0  2  0  0  0  0  0  0  0  0  0
   -0.8830   -2.1010   -1.6140 C   0  0  0  0  0  0  0  0  0  0  0  0
   -1.2990   -0.9120   -2.1730 O   0  0  0  0  0  0  0  0  0  0  0  0
   -2.3500   -0.3100   -1.4500 C   0  0  0  0  0  0  0  0  0  0  0  0
   -1.8410    0.0890   -0.0560 C   0  0  1  0  0  0  0  0  0  0  0  0
   -1.9610   -1.0660    0.7340 O   0  0  0  0  0  0  0  0  0  0  0  0
   -3.2640   -1.0470    1.2250 C   0  0  0  0  0  0  0  0  0  0  0  0
   -3.6210    0.3820    1.3470 C   0  0  0  0  0  0  0  0  0  0  0  0
   -4.5610    0.8300    2.0160 O   0  0  0  0  0  0  0  0  0  0  0  0
   -2.6510    1.0950    0.5330 N   0  0  0  0  0  0  0  0  0  0  0  0
   -2.6850    2.5330    0.4660 C   0  0  0  0  0  0  0  0  0  0  0  0
   -3.7750    3.1300   -0.9180 P   0  0  0  0  0  0  0  0  0  0  0  0
   -5.3500    2.4700   -0.7490 O   0  0  0  0  0  0  0  0  0  0  0  0
   -3.7420    4.8350   -1.0780 O   0  0  0  0  0  0  0  0  0  0  0  0
   -4.8410    5.3400   -0.5810 O   0  0  0  0  0  0  0  0  0  0  0  0
    0.2610   -2.7630    0.3800 O   0  0  0  0  0  0  0  0  0  0  0  0
    0.7550   -4.0020   -0.0240 C   0  0  0  0  0  0  0  0  0  0  0  0
    1.8440   -3.7310   -0.9110 O   0  0  0  0  0  0  0  0  0  0  0  0
    1.5620   -2.5050   -1.4870 C   0  0  0  0  0  0  0  0  0  0  0  0
    2.2240   -1.9890   -2.4130 O   0  0  0  0  0  0  0  0  0  0  0  0
  1  2  2  0
  2  3  1  0
  3  4  1  0
  4  5  1  0
  5  6  1  0
  7  6  1  6
  7  8  1  0
  7 11  1  0
  8  9  1  0
  9 10  1  0
 10 11  2  0
 11 12  1  0
 12 13  2  3
 13 14  1  0
 13 19  1  0
 14 15  1  0
 15 16  1  6
 15 30  1  0
 15 33  1  0
 16 17  1  0
 17 18  1  0
 19 18  1  6
 19 20  1  0
 19 24  1  0
 20 21  1  0
 21 22  1  0
 22 23  2  0
 22 24  1  0
 24 25  1  0
 25 26  1  0
 26 27  1  0
 26 28  1  0
 28 29  1  0
 30 31  1  0
 31 32  1  0
 32 33  1  0
 33 34  2  0
M  END
