
     RDKit          3D

 21 23  0  0  0  0  0  0  0  0999 V2000
    5.5820    0.6230    0.1270 C   0  0  0  0  0  0  0  0  0  0  0  0
    4.5080    0.8840   -0.7530 O   0  0  0  0  0  0  0  0  0  0  0  0
    3.2750    0.3200   -0.5400 C   0  0  0  0  0  0  0  0  0  0  0  0
    3.0380   -0.5200    0.5390 C   0  0  0  0  0  0  0  0  0  0  0  0
    1.7990   -1.0890    0.7570 C   0  0  0  0  0  0  0  0  0  0  0  0
    1.5680   -2.1520    2.1540 Cl  0  0  0  0  0  0  0  0  0  0  0  0
    0.7680   -0.8170   -0.1190 C   0  0  0  0  0  0  0  0  0  0  0  0
    0.9660    0.0230   -1.2150 C   0  0  0  0  0  0  0  0  0  0  0  0
    2.2200    0.5690   -1.3940 C   0  0  0  0  0  0  0  0  0  0  0  0
   -0.0290    0.3950   -2.2170 C   0  0  0  0  0  0  0  0  0  0  0  0
   -1.2760    0.7560   -1.7100 O   0  0  0  0  0  0  0  0  0  0  0  0
   -2.0080    0.3720   -0.5990 C   0  0  0  0  0  0  0  0  0  0  0  0
   -3.1830    1.1180   -0.4540 C   0  0  0  0  0  0  0  0  0  0  0  0
   -4.0240    0.8560    0.6070 C   0  0  0  0  0  0  0  0  0  0  0  0
   -5.2050    1.5600    0.8080 O   0  0  0  0  0  0  0  0  0  0  0  0
   -3.6680   -0.1420    1.4900 C   0  0  0  0  0  0  0  0  0  0  0  0
   -4.5000   -0.4250    2.5680 O   0  0  0  0  0  0  0  0  0  0  0  0
   -2.5060   -0.8780    1.3450 C   0  0  0  0  0  0  0  0  0  0  0  0
   -1.6590   -0.6220    0.2860 C   0  0  0  0  0  0  0  0  0  0  0  0
   -0.4510   -1.5120    0.2860 C   0  0  1  0  0  0  0  0  0  0  0  0
   -0.6440   -2.6110   -0.5510 O   0  0  0  0  0  0  0  0  0  0  0  0
  1  2  1  0
  2  3  1  0
  3  4  2  0
  3  9  1  0
  4  5  1  0
  5  6  1  0
  5  7  2  0
  7  8  1  0
  7 20  1  0
  8  9  2  0
  8 10  1  0
 10 11  1  0
 11 12  1  0
 12 13  2  0
 12 19  1  0
 13 14  1  0
 14 15  1  0
 14 16  2  0
 16 17  1  0
 16 18  1  0
 18 19  2  0
 19 20  1  0
 20 21  1  6
M  END
