
     RDKit          3D

 11 12  0  0  0  0  0  0  0  0999 V2000
   -3.2140    1.8310   -0.3460 Cl  0  0  0  0  0  0  0  0  0  0  0  0
   -1.7320    0.8890   -0.1730 C   0  0  0  0  0  0  0  0  0  0  0  0
   -1.9060   -0.4730    0.0120 C   0  0  0  0  0  0  0  0  0  0  0  0
   -0.7610   -1.2300    0.1500 C   0  0  0  0  0  0  0  0  0  0  0  0
    0.4710   -0.6080    0.0980 C   0  0  0  0  0  0  0  0  0  0  0  0
    1.7310   -1.0720    0.1980 N   0  0  0  0  0  0  0  0  0  0  0  0
    2.5880   -0.0480    0.0800 N   0  0  0  0  0  0  0  0  0  0  0  0
    1.9200    1.0990   -0.0990 C   0  0  0  0  0  0  0  0  0  0  0  0
    2.6750    2.6510   -0.2940 Cl  0  0  0  0  0  0  0  0  0  0  0  0
    0.5870    0.7580   -0.0890 C   0  0  0  0  0  0  0  0  0  0  0  0
   -0.5300    1.4930   -0.2230 N   0  0  0  0  0  0  0  0  0  0  0  0
  1  2  1  0
  2  3  2  0
  2 11  1  0
  3  4  1  0
  4  5  2  0
  5  6  1  0
  5 10  1  0
  6  7  1  0
  7  8  2  0
  8  9  1  0
  8 10  1  0
 10 11  2  0
M  END
