
     RDKit          3D

 11 12  0  0  0  0  0  0  0  0999 V2000
    3.4050   -1.0550   -0.8740 Cl  0  0  0  0  0  0  0  0  0  0  0  0
    1.9140   -0.3140   -0.3270 C   0  0  0  0  0  0  0  0  0  0  0  0
    0.6760   -0.8970   -0.5790 C   0  0  0  0  0  0  0  0  0  0  0  0
   -0.5070   -0.3300   -0.1570 C   0  0  0  0  0  0  0  0  0  0  0  0
   -1.8070   -0.6550   -0.2530 N   0  0  0  0  0  0  0  0  0  0  0  0
   -2.5540    0.2790    0.3540 C   0  0  0  0  0  0  0  0  0  0  0  0
   -1.6910    1.1930    0.8290 N   0  0  0  0  0  0  0  0  0  0  0  0
   -0.4230    0.8640    0.5410 C   0  0  0  0  0  0  0  0  0  0  0  0
    0.7860    1.4390    0.7910 N   0  0  0  0  0  0  0  0  0  0  0  0
    1.9320    0.8710    0.3710 C   0  0  0  0  0  0  0  0  0  0  0  0
    3.4910    1.6400    0.7100 Cl  0  0  0  0  0  0  0  0  0  0  0  0
  1  2  1  0
  2  3  2  0
  2 10  1  0
  3  4  1  0
  4  5  1  0
  4  8  2  0
  5  6  1  0
  6  7  2  0
  7  8  1  0
  8  9  1  0
  9 10  2  0
 10 11  1  0
M  END
