
     RDKit          3D

 11 12  0  0  0  0  0  0  0  0999 V2000
   -3.6290    1.2170    1.1170 Cl  0  0  0  0  0  0  0  0  0  0  0  0
   -2.0410    0.6370    0.5890 C   0  0  0  0  0  0  0  0  0  0  0  0
   -1.9740   -0.4340   -0.2860 C   0  0  0  0  0  0  0  0  0  0  0  0
   -0.7370   -0.8860   -0.6970 C   0  0  0  0  0  0  0  0  0  0  0  0
    0.3980   -0.2590   -0.2250 C   0  0  0  0  0  0  0  0  0  0  0  0
    1.7160   -0.4840   -0.4540 N   0  0  0  0  0  0  0  0  0  0  0  0
    2.4530    0.4040    0.2450 C   0  0  0  0  0  0  0  0  0  0  0  0
    4.2100    0.4870    0.2520 Cl  0  0  0  0  0  0  0  0  0  0  0  0
    1.5810    1.1710    0.9000 N   0  0  0  0  0  0  0  0  0  0  0  0
    0.3140    0.8040    0.6450 C   0  0  0  0  0  0  0  0  0  0  0  0
   -0.9100    1.2170    1.0240 N   0  0  0  0  0  0  0  0  0  0  0  0
  1  2  1  0
  2  3  2  0
  2 11  1  0
  3  4  1  0
  4  5  2  0
  5  6  1  0
  5 10  1  0
  6  7  1  0
  7  8  1  0
  7  9  2  0
  9 10  1  0
 10 11  2  0
M  END
