
     RDKit          3D

 21 21  0  0  0  0  0  0  0  0999 V2000
   -0.8440    0.3370    1.2040 C   0  0  0  0  0  0  0  0  0  0  0  0
   -0.9250    0.1640   -0.3230 C   0  0  1  0  0  0  0  0  0  0  0  0
   -2.1990   -0.3550   -0.5500 O   0  0  0  0  0  0  0  0  0  0  0  0
   -3.2100    0.4650   -0.1130 C   0  0  0  0  0  0  0  0  0  0  0  0
   -4.5680   -0.1640   -0.3900 C   0  0  0  0  0  0  0  0  0  0  0  0
   -5.5440    0.7180    0.0760 O   0  0  0  0  0  0  0  0  0  0  0  0
   -0.7980    1.5330   -0.9040 C   0  0  0  0  0  0  0  0  0  0  0  0
    0.5750    2.1180   -0.9460 C   0  0  0  0  0  0  0  0  0  0  0  0
    1.0370    2.3380    0.3320 O   0  0  0  0  0  0  0  0  0  0  0  0
    2.2460    2.6710    0.8350 C   0  0  0  0  0  0  0  0  0  0  0  0
    2.5440    3.7070    1.4880 O   0  0  0  0  0  0  0  0  0  0  0  0
    3.4010    1.7610    0.6330 C   0  0  0  0  0  0  0  0  0  0  0  0
    3.0280    0.4820    0.2590 O   0  0  0  0  0  0  0  0  0  0  0  0
    3.6430   -0.4660    0.8800 O   0  0  0  0  0  0  0  0  0  0  0  0
    2.8610   -1.5720    1.1750 C   0  0  1  0  0  0  0  0  0  0  0  0
    2.1450   -1.3170    2.3180 O   0  0  0  0  0  0  0  0  0  0  0  0
    2.0350   -2.0520    0.0180 C   0  0  1  0  0  0  0  0  0  0  0  0
    2.3120   -3.3950   -0.2990 O   0  0  0  0  0  0  0  0  0  0  0  0
    0.5590   -1.8030    0.1930 C   0  0  0  0  0  0  0  0  0  0  0  0
    0.0370   -0.8410   -0.8300 C   0  0  1  0  0  0  0  0  0  0  0  0
   -0.5850   -1.5760   -1.9460 N   0  0  0  0  0  0  0  0  0  0  0  0
  2  1  1  1
  2  3  1  0
  2  7  1  0
  2 20  1  0
  3  4  1  0
  4  5  1  0
  5  6  1  0
  7  8  1  0
  8  9  1  0
  9 10  1  0
 10 11  2  0
 10 12  1  0
 12 13  1  0
 13 14  1  0
 14 15  1  0
 15 16  1  1
 15 17  1  0
 17 18  1  1
 17 19  1  0
 19 20  1  0
 20 21  1  6
M  CHG  1  21   1
M  END
