
     RDKit          3D

 20 20  0  0  0  0  0  0  0  0999 V2000
   -1.7630   -0.0470    1.9900 N   0  0  0  0  0  0  0  0  0  0  0  0
   -2.2890    0.4640    0.7400 C   0  0  2  0  0  0  0  0  0  0  0  0
   -2.2420   -0.5350   -0.3740 C   0  0  2  0  0  0  0  0  0  0  0  0
   -3.3380   -0.3210   -1.2060 O   0  0  0  0  0  0  0  0  0  0  0  0
   -2.3270   -1.9410    0.1410 C   0  0  0  0  0  0  0  0  0  0  0  0
   -1.0730   -2.4560    0.4520 O   0  0  0  0  0  0  0  0  0  0  0  0
   -0.4320   -2.9930   -0.6590 C   0  0  0  0  0  0  0  0  0  0  0  0
    1.0490   -3.0900   -0.4770 C   0  0  0  0  0  0  0  0  0  0  0  0
    1.6490   -1.8060    0.0780 C   0  0  0  0  0  0  0  0  0  0  0  0
    1.5900   -0.8600   -0.9160 O   0  0  0  0  0  0  0  0  0  0  0  0
    1.6280    0.4370   -0.4770 C   0  0  2  0  0  0  0  0  0  0  0  0
    2.8720    0.7410    0.3470 C   0  0  2  0  0  0  0  0  0  0  0  0
    2.8220    2.0740    0.7460 O   0  0  0  0  0  0  0  0  0  0  0  0
    4.1210    0.5990   -0.5260 C   0  0  0  0  0  0  0  0  0  0  0  0
    5.2120    0.9550    0.2800 O   0  0  0  0  0  0  0  0  0  0  0  0
    0.5270    0.7900    0.2990 O   0  0  0  0  0  0  0  0  0  0  0  0
   -0.3510    1.6180   -0.3620 C   0  0  0  0  0  0  0  0  0  0  0  0
   -1.6130    1.7550    0.4220 C   0  0  1  0  0  0  0  0  0  0  0  0
   -2.5780    2.7470   -0.2330 C   0  0  0  0  0  0  0  0  0  0  0  0
   -1.9300    3.9410   -0.5210 O   0  0  0  0  0  0  0  0  0  0  0  0
  2  1  1  1
  2  3  1  0
  2 18  1  0
  3  4  1  6
  3  5  1  0
  5  6  1  0
  6  7  1  0
  7  8  1  0
  8  9  1  0
  9 10  1  0
 11 10  1  1
 11 12  1  0
 11 16  1  0
 12 13  1  6
 12 14  1  0
 14 15  1  0
 16 17  1  0
 17 18  1  0
 18 19  1  6
 19 20  1  0
M  CHG  1   1   1
M  END
