
     RDKit          3D

 20 20  0  0  0  0  0  0  0  0999 V2000
    3.8790   -0.0660    1.3410 O   0  0  0  0  0  0  0  0  0  0  0  0
    3.9430    0.9790    0.4510 C   0  0  0  0  0  0  0  0  0  0  0  0
    2.5970    1.5820    0.1590 C   0  0  2  0  0  0  0  0  0  0  0  0
    2.0620    2.0540    1.3370 O   0  0  0  0  0  0  0  0  0  0  0  0
    1.6650    0.5840   -0.5060 C   0  0  2  0  0  0  0  0  0  0  0  0
    0.4200    1.2680   -0.9810 C   0  0  0  0  0  0  0  0  0  0  0  0
   -0.0660    2.2230   -0.1120 O   0  0  0  0  0  0  0  0  0  0  0  0
   -0.8720    1.7250    0.8900 C   0  0  0  0  0  0  0  0  0  0  0  0
   -2.3090    1.5590    0.4960 C   0  0  1  0  0  0  0  0  0  0  0  0
   -2.6900    2.8050   -0.3170 C   0  0  0  0  0  0  0  0  0  0  0  0
   -1.9080    2.7960   -1.4440 O   0  0  0  0  0  0  0  0  0  0  0  0
   -2.5680    0.4830   -0.3030 O   0  0  0  0  0  0  0  0  0  0  0  0
   -2.7890   -0.7050    0.3630 C   0  0  0  0  0  0  0  0  0  0  0  0
   -2.4060   -1.8320   -0.5600 C   0  0  0  0  0  0  0  0  0  0  0  0
   -1.7450   -2.9210    0.0970 N   0  0  0  0  0  0  0  0  0  0  0  0
   -0.4410   -2.5340    0.5610 C   0  0  0  0  0  0  0  0  0  0  0  0
    0.5890   -2.5780   -0.5360 C   0  0  2  0  0  0  0  0  0  0  0  0
    1.0610   -3.8800   -0.7340 O   0  0  0  0  0  0  0  0  0  0  0  0
    1.7950   -1.7100   -0.2060 C   0  0  0  0  0  0  0  0  0  0  0  0
    1.4380   -0.4950    0.3210 O   0  0  0  0  0  0  0  0  0  0  0  0
  1  2  1  0
  2  3  1  0
  3  4  1  1
  3  5  1  0
  5  6  1  1
  5 20  1  0
  6  7  1  0
  7  8  1  0
  8  9  1  0
  9 10  1  6
  9 12  1  0
 10 11  1  0
 12 13  1  0
 13 14  1  0
 14 15  1  0
 15 16  1  0
 16 17  1  0
 17 18  1  1
 17 19  1  0
 19 20  1  0
M  CHG  1  15   1
M  END
