
     RDKit          3D

 20 20  0  0  0  0  0  0  0  0999 V2000
    0.9220   -0.5140   -2.7090 C   0  0  0  0  0  0  0  0  0  0  0  0
    0.7750    0.3600   -1.5230 C   0  0  2  0  0  0  0  0  0  0  0  0
    0.5510    1.6630   -1.9900 O   0  0  0  0  0  0  0  0  0  0  0  0
    2.0800    0.4150   -0.7650 C   0  0  0  0  0  0  0  0  0  0  0  0
    2.4030   -0.8290   -0.2560 O   0  0  0  0  0  0  0  0  0  0  0  0
    3.5870   -0.8330    0.4440 C   0  0  0  0  0  0  0  0  0  0  0  0
    3.5910    0.0960    1.6300 C   0  0  2  0  0  0  0  0  0  0  0  0
    4.8630   -0.0270    2.2330 O   0  0  0  0  0  0  0  0  0  0  0  0
    2.6420   -0.2260    2.5780 O   0  0  0  0  0  0  0  0  0  0  0  0
   -0.3090    0.0270   -0.5770 C   0  0  2  0  0  0  0  0  0  0  0  0
   -0.2200   -1.3430    0.0410 C   0  0  2  0  0  0  0  0  0  0  0  0
    0.3150   -2.2820   -0.8730 O   0  0  0  0  0  0  0  0  0  0  0  0
   -1.5340   -1.7850    0.2250 O   0  0  0  0  0  0  0  0  0  0  0  0
   -2.3850   -0.6990    0.0200 C   0  0  1  0  0  0  0  0  0  0  0  0
   -2.4750    0.0130    1.3350 C   0  0  0  0  0  0  0  0  0  0  0  0
   -3.0490   -0.9890    2.3500 C   0  0  0  0  0  0  0  0  0  0  0  0
   -3.1630   -0.4020    3.5950 O   0  0  0  0  0  0  0  0  0  0  0  0
   -1.6820    0.0190   -1.0770 C   0  0  1  0  0  0  0  0  0  0  0  0
   -2.2820    1.2670   -1.5550 C   0  0  0  0  0  0  0  0  0  0  0  0
   -2.3990    2.3540   -0.6740 N   0  0  0  0  0  0  0  0  0  0  0  0
  2  1  1  6
  2  3  1  0
  2  4  1  0
 10  2  1  6
  4  5  1  0
  5  6  1  0
  6  7  1  0
  7  8  1  1
  7  9  1  0
 10 11  1  0
 10 18  1  0
 11 12  1  6
 11 13  1  0
 13 14  1  0
 14 15  1  1
 14 18  1  0
 15 16  1  0
 16 17  1  0
 18 19  1  1
 19 20  1  0
M  CHG  1  20   1
M  END
