
     RDKit          3D

 10 10  0  0  0  0  0  0  0  0999 V2000
    3.8250    0.5330   -1.3360 N   0  0  0  0  0  0  0  0  0  0  0  0
    2.4610    0.3440   -1.0860 C   0  0  0  0  0  0  0  0  0  0  0  0
    1.8770    0.5310    0.0770 C   0  0  0  0  0  0  0  0  0  0  0  0
    0.4600    0.3230    0.2950 C   0  0  0  0  0  0  0  0  0  0  0  0
   -0.2510    0.4840    1.4490 C   0  0  0  0  0  0  0  0  0  0  0  0
   -1.5750    0.1760    1.2030 C   0  0  0  0  0  0  0  0  0  0  0  0
   -1.6020   -0.1720   -0.1450 C   0  0  0  0  0  0  0  0  0  0  0  0
   -2.8270   -0.5920   -0.9020 C   0  0  0  0  0  0  0  0  0  0  0  0
   -2.9270   -1.9810   -0.7880 O   0  0  0  0  0  0  0  0  0  0  0  0
   -0.3900   -0.0680   -0.6220 O   0  0  0  0  0  0  0  0  0  0  0  0
  1  2  1  0
  2  3  2  3
  3  4  1  0
  4  5  2  0
  4 10  1  0
  5  6  1  0
  6  7  2  0
  7  8  1  0
  7 10  1  0
  8  9  1  0
M  END
