
     RDKit          3D

 12 13  0  0  0  0  0  0  0  0999 V2000
   -3.2000    0.0980   -1.1830 C   0  0  0  0  0  0  0  0  0  0  0  0
   -2.4510   -0.9660   -0.3900 C   0  0  0  0  0  0  0  0  0  0  0  0
   -1.0710   -0.5080   -0.0750 C   0  0  0  0  0  0  0  0  0  0  0  0
    0.0650   -0.6580   -0.7680 N   0  0  0  0  0  0  0  0  0  0  0  0
    1.1060   -0.0950   -0.1360 C   0  0  0  0  0  0  0  0  0  0  0  0
    2.4600    0.0380   -0.3980 C   0  0  0  0  0  0  0  0  0  0  0  0
    3.1370   -0.6500   -1.8940 S   0  0  0  0  0  0  0  0  0  0  0  0
    3.3180    0.6910    0.4660 C   0  0  0  0  0  0  0  0  0  0  0  0
    2.7730    1.1980    1.5860 N   0  0  0  0  0  0  0  0  0  0  0  0
    1.4590    1.0860    1.8720 C   0  0  0  0  0  0  0  0  0  0  0  0
    0.5850    0.4430    1.0320 C   0  0  0  0  0  0  0  0  0  0  0  0
   -0.7360    0.1780    1.0440 N   0  0  0  0  0  0  0  0  0  0  0  0
  1  2  1  0
  2  3  1  0
  3  4  2  0
  3 12  1  0
  4  5  1  0
  5  6  2  0
  5 11  1  0
  6  7  1  0
  6  8  1  0
  8  9  2  0
  9 10  1  0
 10 11  2  0
 11 12  1  0
M  END
