
     RDKit          3D

 11 11  0  0  0  0  0  0  0  0999 V2000
    0.6960    2.4160    0.6650 N   0  0  0  0  0  0  0  0  0  0  0  0
   -0.0860    1.3030    0.2860 C   0  0  0  0  0  0  0  0  0  0  0  0
   -1.4580    1.4120    0.1750 C   0  0  0  0  0  0  0  0  0  0  0  0
   -2.2560    0.3450   -0.1930 C   0  0  0  0  0  0  0  0  0  0  0  0
   -1.6890   -0.8900   -0.4660 C   0  0  0  0  0  0  0  0  0  0  0  0
   -2.5070   -1.9400   -0.8320 O   0  0  0  0  0  0  0  0  0  0  0  0
   -0.3180   -0.9870   -0.3520 C   0  0  0  0  0  0  0  0  0  0  0  0
    0.4910    0.0570    0.0110 C   0  0  0  0  0  0  0  0  0  0  0  0
    1.8580   -0.0210    0.1300 O   0  0  0  0  0  0  0  0  0  0  0  0
    2.6460   -1.1430   -0.0910 C   0  0  0  0  0  0  0  0  0  0  0  0
    2.3500   -2.2140    0.7200 F   0  0  0  0  0  0  0  0  0  0  0  0
  1  2  1  0
  2  3  2  0
  2  8  1  0
  3  4  1  0
  4  5  2  0
  5  6  1  0
  5  7  1  0
  7  8  2  0
  8  9  1  0
  9 10  1  0
 10 11  1  0
M  END
