
     RDKit          3D

 11 11  0  0  0  0  0  0  0  0999 V2000
   -3.4370   -0.5500   -0.0130 C   0  0  0  0  0  0  0  0  0  0  0  0
   -1.9490   -0.6800    0.2180 C   0  0  0  0  0  0  0  0  0  0  0  0
   -1.3470    0.5040   -0.2530 O   0  0  0  0  0  0  0  0  0  0  0  0
    0.0400    0.6520   -0.1600 C   0  0  0  0  0  0  0  0  0  0  0  0
    0.6880    1.7900   -0.0680 C   0  0  0  0  0  0  0  0  0  0  0  0
    2.1020    1.5150    0.0070 C   0  0  0  0  0  0  0  0  0  0  0  0
    3.0610    2.3390    0.1040 O   0  0  0  0  0  0  0  0  0  0  0  0
    2.2340    0.0680   -0.0500 C   0  0  0  0  0  0  0  0  0  0  0  0
    3.4710   -0.6240   -0.0040 N   0  0  0  0  0  0  0  0  0  0  0  0
    1.0140   -0.4290   -0.1480 C   0  0  0  0  0  0  0  0  0  0  0  0
    0.7310   -1.7660   -0.2260 F   0  0  0  0  0  0  0  0  0  0  0  0
  1  2  1  0
  2  3  1  0
  3  4  1  0
  4  5  2  0
  4 10  1  0
  5  6  1  0
  6  7  2  0
  6  8  1  0
  8  9  1  0
  8 10  2  0
 10 11  1  0
M  END
