
     RDKit          3D

 10 10  0  0  0  0  0  0  0  0999 V2000
   -2.6640    0.0200   -1.5350 O   0  0  0  0  0  0  0  0  0  0  0  0
   -2.6070   -0.4040   -0.2080 C   0  0  0  0  0  0  0  0  0  0  0  0
   -1.6110    0.4360    0.5680 C   0  0  0  0  0  0  0  0  0  0  0  0
   -0.2570    0.2950   -0.0510 C   0  0  1  0  0  0  0  0  0  0  0  0
   -0.3400    0.7410   -1.3820 O   0  0  0  0  0  0  0  0  0  0  0  0
    0.7530    1.1860    0.6330 C   0  0  0  0  0  0  0  0  0  0  0  0
    2.0920    0.9860    0.0040 C   0  0  0  0  0  0  0  0  0  0  0  0
    2.4630   -0.3900   -0.1660 N   0  0  0  0  0  0  0  0  0  0  0  0
    1.5790   -1.3160    0.4800 C   0  0  0  0  0  0  0  0  0  0  0  0
    0.1670   -1.1380   -0.0370 C   0  0  0  0  0  0  0  0  0  0  0  0
  1  2  1  0
  2  3  1  0
  3  4  1  0
  4  5  1  6
  4  6  1  0
  4 10  1  0
  6  7  1  0
  7  8  1  0
  8  9  1  0
  9 10  1  0
M  END
