
     RDKit          3D

 16 16  0  0  0  0  0  0  0  0999 V2000
    3.6100   -0.8030   -0.9150 N   0  0  0  0  0  0  0  0  0  0  0  0
    2.6810   -1.1840    0.5050 S   0  0  2  0  0  0  0  0  0  0  0  0
    3.4530   -0.8450    1.7470 O   0  0  0  0  0  0  0  0  0  0  0  0
    2.3800   -2.6510    0.4460 O   0  0  0  0  0  0  0  0  0  0  0  0
    1.2460   -0.2100    0.4720 C   0  0  0  0  0  0  0  0  0  0  0  0
    1.2950    1.0310    1.0700 C   0  0  0  0  0  0  0  0  0  0  0  0
    0.2130    1.8540    1.0870 C   0  0  0  0  0  0  0  0  0  0  0  0
    0.3080    3.4230    1.8530 Cl  0  0  0  0  0  0  0  0  0  0  0  0
   -0.9500    1.4170    0.4870 C   0  0  0  0  0  0  0  0  0  0  0  0
   -2.3230    2.5070    0.5290 Cl  0  0  0  0  0  0  0  0  0  0  0  0
   -1.0540    0.1850   -0.1250 C   0  0  0  0  0  0  0  0  0  0  0  0
   -2.5470   -0.3060   -0.8630 S   0  0  1  0  0  0  0  0  0  0  0  0
   -3.8510   -0.3550    0.2760 N   0  0  0  0  0  0  0  0  0  0  0  0
   -2.9540    0.7130   -1.9180 O   0  0  0  0  0  0  0  0  0  0  0  0
   -2.3590   -1.6060   -1.5650 O   0  0  0  0  0  0  0  0  0  0  0  0
    0.0650   -0.6220   -0.1220 C   0  0  0  0  0  0  0  0  0  0  0  0
  2  1  1  6
  2  3  2  0
  2  4  2  0
  2  5  1  0
  5  6  2  0
  5 16  1  0
  6  7  1  0
  7  8  1  0
  7  9  2  0
  9 10  1  0
  9 11  1  0
 11 12  1  0
 11 16  2  0
 12 13  1  1
 12 14  2  0
 12 15  2  0
M  END
