
     RDKit          3D

 15 14  0  0  0  0  0  0  0  0999 V2000
    4.8030    0.6050   -0.6500 C   0  0  0  0  0  0  0  0  0  0  0  0
    3.6970   -0.2050    0.0290 C   0  0  0  0  0  0  0  0  0  0  0  0
    2.4740    0.3160   -0.4620 O   0  0  0  0  0  0  0  0  0  0  0  0
    1.2500   -0.1940   -0.0480 C   0  0  0  0  0  0  0  0  0  0  0  0
    1.2640   -1.1350    0.7780 O   0  0  0  0  0  0  0  0  0  0  0  0
    0.0070    0.2790   -0.4990 N   0  0  0  0  0  0  0  0  0  0  0  0
   -1.2320   -0.2620   -0.0580 C   0  0  0  0  0  0  0  0  0  0  0  0
   -1.2190   -1.4860    1.0160 S   0  0  0  0  0  0  0  0  0  0  0  0
   -2.4640    0.2260   -0.5220 N   0  0  0  0  0  0  0  0  0  0  0  0
   -3.6680   -0.3380   -0.0600 C   0  0  0  0  0  0  0  0  0  0  0  0
   -4.7690    0.6470    0.9320 S   0  0  0  0  0  0  0  0  0  0  0  0
   -4.0980    2.2000    1.1440 O   0  0  0  0  0  0  0  0  0  0  0  0
   -3.9460   -1.5980   -0.3810 C   0  0  0  0  0  0  0  0  0  0  0  0
   -2.8530   -2.5440   -1.3540 Cl  0  0  0  0  0  0  0  0  0  0  0  0
   -5.4480   -2.2830    0.2020 Cl  0  0  0  0  0  0  0  0  0  0  0  0
  1  2  1  0
  2  3  1  0
  3  4  1  0
  4  5  2  0
  4  6  1  0
  6  7  1  0
  7  8  2  0
  7  9  1  0
  9 10  1  0
 10 11  1  0
 10 13  2  3
 11 12  1  0
 13 14  1  0
 13 15  1  0
M  END
