
     RDKit          3D

 15 15  0  0  0  0  0  0  0  0999 V2000
   -2.4810   -0.3650   -2.5470 N   0  0  0  0  0  0  0  0  0  0  0  0
   -2.6230    0.2940   -0.9610 S   0  0  1  0  0  0  0  0  0  0  0  0
   -2.1970    1.7080   -0.9830 O   0  0  0  0  0  0  0  0  0  0  0  0
   -4.1130    0.2970   -0.6420 O   0  0  0  0  0  0  0  0  0  0  0  0
   -1.8390   -0.6720    0.2240 N   0  0  0  0  0  0  0  0  0  0  0  0
   -0.4830   -0.5220    0.5850 C   0  0  0  0  0  0  0  0  0  0  0  0
    0.3790    0.3600   -0.0250 C   0  0  0  0  0  0  0  0  0  0  0  0
    1.7120    0.4750    0.3630 C   0  0  0  0  0  0  0  0  0  0  0  0
    2.8190    1.5890   -0.4010 S   0  0  2  0  0  0  0  0  0  0  0  0
    4.0560    0.8210   -0.7630 O   0  0  0  0  0  0  0  0  0  0  0  0
    3.2190    2.6720    0.5730 O   0  0  0  0  0  0  0  0  0  0  0  0
    2.1900   -0.3120    1.3860 C   0  0  0  0  0  0  0  0  0  0  0  0
    1.3610   -1.1870    2.0020 C   0  0  0  0  0  0  0  0  0  0  0  0
    0.0300   -1.2900    1.6020 C   0  0  0  0  0  0  0  0  0  0  0  0
   -0.9730   -2.4310    2.4350 Cl  0  0  0  0  0  0  0  0  0  0  0  0
  2  1  1  6
  2  3  2  0
  2  4  2  0
  2  5  1  0
  5  6  1  0
  6  7  2  0
  6 14  1  0
  7  8  1  0
  9  8  1  1
  8 12  2  0
  9 10  2  0
  9 11  2  0
 12 13  1  0
 13 14  2  0
 14 15  1  0
M  END
