
     RDKit          3D

 15 14  0  0  0  0  0  0  0  0999 V2000
    3.4170   -1.8670    1.4710 C   0  0  0  0  0  0  0  0  0  0  0  0
    3.8960   -0.6660    1.0340 O   0  0  0  0  0  0  0  0  0  0  0  0
    3.2860   -0.1180   -0.0440 C   0  0  0  0  0  0  0  0  0  0  0  0
    1.8470    0.2070    0.1100 C   0  0  0  0  0  0  0  0  0  0  0  0
    1.2160    0.0210    1.1800 O   0  0  0  0  0  0  0  0  0  0  0  0
    1.0760    0.7570   -0.9570 N   0  0  0  0  0  0  0  0  0  0  0  0
   -0.2780    1.0800   -0.8650 N   0  0  0  0  0  0  0  0  0  0  0  0
   -1.3090    0.1840   -0.5090 C   0  0  0  0  0  0  0  0  0  0  0  0
   -0.9670   -1.0040   -0.2530 O   0  0  0  0  0  0  0  0  0  0  0  0
   -2.6710    0.6520   -0.4550 C   0  0  0  0  0  0  0  0  0  0  0  0
   -3.0510    2.3420   -0.8320 S   0  0  0  0  0  0  0  0  0  0  0  0
   -4.7320    2.6580   -0.6970 O   0  0  0  0  0  0  0  0  0  0  0  0
   -3.6400   -0.1650   -0.1260 C   0  0  0  0  0  0  0  0  0  0  0  0
   -3.2660   -1.8620    0.2550 S   0  0  0  0  0  0  0  0  0  0  0  0
   -5.3140    0.3940   -0.0590 Cl  0  0  0  0  0  0  0  0  0  0  0  0
  1  2  1  0
  2  3  1  0
  3  4  1  0
  4  5  2  0
  4  6  1  0
  6  7  1  0
  7  8  1  0
  8  9  2  0
  8 10  1  0
 10 11  1  0
 10 13  2  3
 11 12  1  0
 13 14  1  0
 13 15  1  0
M  END
