
     RDKit          3D

 15 14  0  0  0  0  0  0  0  0999 V2000
   -2.5530   -1.3910   -0.7010 N   0  0  0  0  0  0  0  0  0  0  0  0
   -1.9450   -0.5160    0.2750 C   0  0  0  0  0  0  0  0  0  0  0  0
   -1.7070    0.8700   -0.2150 C   0  0  2  0  0  0  0  0  0  0  0  0
   -0.9410    1.8480    1.0950 S   0  0  0  0  0  0  0  0  0  0  0  0
    0.7200    1.3340    1.4320 C   0  0  0  0  0  0  0  0  0  0  0  0
    1.4910    2.0010    2.7010 S   0  0  0  0  0  0  0  0  0  0  0  0
    1.3860    0.3660    0.6530 N   0  0  0  0  0  0  0  0  0  0  0  0
    2.7260   -0.0280    0.9780 C   0  0  0  0  0  0  0  0  0  0  0  0
    3.2670    0.5210    1.9730 O   0  0  0  0  0  0  0  0  0  0  0  0
    3.4440   -1.0230    0.1980 C   0  0  0  0  0  0  0  0  0  0  0  0
    4.7570   -1.3820    0.5550 N   0  0  0  0  0  0  0  0  0  0  0  0
    2.8620   -1.5520   -0.8000 O   0  0  0  0  0  0  0  0  0  0  0  0
   -2.9270    1.5380   -0.7160 C   0  0  0  0  0  0  0  0  0  0  0  0
   -3.3080    2.5890   -0.1730 O   0  0  0  0  0  0  0  0  0  0  0  0
   -3.6250    0.9930   -1.7720 O   0  0  0  0  0  0  0  0  0  0  0  0
  1  2  1  0
  3  2  1  1
  3  4  1  0
  3 13  1  0
  4  5  1  0
  5  6  2  0
  5  7  1  0
  7  8  1  0
  8  9  2  0
  8 10  1  0
 10 11  1  0
 10 12  2  0
 13 14  2  0
 13 15  1  0
M  END
