
     RDKit          3D

 15 14  0  0  0  0  0  0  0  0999 V2000
    5.1480    0.9550    0.0960 N   0  0  0  0  0  0  0  0  0  0  0  0
    4.4540   -0.0430    0.8240 C   0  0  0  0  0  0  0  0  0  0  0  0
    5.2090   -0.8500    2.0330 S   0  0  0  0  0  0  0  0  0  0  0  0
    3.0750   -0.3730    0.5210 C   0  0  0  0  0  0  0  0  0  0  0  0
    2.4520   -1.2570    1.1600 O   0  0  0  0  0  0  0  0  0  0  0  0
    2.4120    0.3060   -0.5090 N   0  0  0  0  0  0  0  0  0  0  0  0
    1.0790    0.0470   -0.8650 N   0  0  0  0  0  0  0  0  0  0  0  0
    0.0820    0.0900    0.1500 C   0  0  0  0  0  0  0  0  0  0  0  0
    0.3550    0.3520    1.3570 O   0  0  0  0  0  0  0  0  0  0  0  0
   -1.3230   -0.1950   -0.2850 C   0  0  0  0  0  0  0  0  0  0  0  0
   -2.2800   -0.1180    0.8840 C   0  0  0  0  0  0  0  0  0  0  0  0
   -3.6650   -0.4220    0.3240 C   0  0  0  0  0  0  0  0  0  0  0  0
   -3.9710    0.8480   -0.9140 S   0  0  1  0  0  0  0  0  0  0  0  0
   -5.4440    1.0250   -1.0030 O   0  0  0  0  0  0  0  0  0  0  0  0
   -3.3120    2.1390   -0.4970 O   0  0  0  0  0  0  0  0  0  0  0  0
  1  2  1  0
  2  3  2  0
  2  4  1  0
  4  5  2  0
  4  6  1  0
  6  7  1  0
  7  8  1  0
  8  9  2  0
  8 10  1  0
 10 11  1  0
 11 12  1  0
 13 12  1  1
 13 14  2  0
 13 15  2  0
M  END
