
     RDKit          3D

 15 14  0  0  0  0  0  0  0  0999 V2000
    5.0480   -0.3550    2.3390 N   0  0  0  0  0  0  0  0  0  0  0  0
    3.7810    0.0360    1.9190 C   0  0  0  0  0  0  0  0  0  0  0  0
    2.9140    0.6530    2.3920 O   0  0  0  0  0  0  0  0  0  0  0  0
    3.4830   -0.5610    0.3210 N   0  0  0  0  0  0  0  0  0  0  0  0
    2.1890    0.0120    0.2270 C   0  0  0  0  0  0  0  0  0  0  0  0
    1.4920    0.7360    0.8670 O   0  0  0  0  0  0  0  0  0  0  0  0
    1.5790   -0.4660   -1.0690 N   0  0  0  0  0  0  0  0  0  0  0  0
    0.3120   -0.0070   -1.4080 C   0  0  0  0  0  0  0  0  0  0  0  0
   -0.3230   -0.5490   -2.8100 S   0  0  0  0  0  0  0  0  0  0  0  0
   -0.5120    1.1720   -0.4130 S   0  0  0  0  0  0  0  0  0  0  0  0
   -2.2310    1.4610   -0.7060 C   0  0  0  0  0  0  0  0  0  0  0  0
   -3.1720    0.4010   -0.2260 C   0  0  2  0  0  0  0  0  0  0  0  0
   -3.0860    0.2030    1.1550 O   0  0  0  0  0  0  0  0  0  0  0  0
   -3.0290   -0.9300   -0.9040 C   0  0  0  0  0  0  0  0  0  0  0  0
   -4.0240   -1.8210   -0.5130 O   0  0  0  0  0  0  0  0  0  0  0  0
  1  2  1  0
  2  3  2  0
  2  4  1  0
  4  5  1  0
  5  6  2  0
  5  7  1  0
  7  8  1  0
  8  9  2  0
  8 10  1  0
 10 11  1  0
 11 12  1  0
 12 13  1  1
 12 14  1  0
 14 15  1  0
M  END
