
     RDKit          3D

 15 14  0  0  0  0  0  0  0  0999 V2000
   -5.5520   -0.9450    0.2120 N   0  0  0  0  0  0  0  0  0  0  0  0
   -4.6100    0.0300    0.6320 C   0  0  0  0  0  0  0  0  0  0  0  0
   -4.9730    0.9030    1.4410 O   0  0  0  0  0  0  0  0  0  0  0  0
   -3.2620   -0.0430    0.0930 C   0  0  0  0  0  0  0  0  0  0  0  0
   -2.9210   -0.9260   -0.7180 O   0  0  0  0  0  0  0  0  0  0  0  0
   -2.3080    0.9300    0.5100 N   0  0  0  0  0  0  0  0  0  0  0  0
   -0.9800    0.9370    0.0390 C   0  0  0  0  0  0  0  0  0  0  0  0
    0.0460    2.0690    0.5540 S   0  0  0  0  0  0  0  0  0  0  0  0
   -0.4560   -0.2950   -1.1110 S   0  0  0  0  0  0  0  0  0  0  0  0
    1.2850   -0.0150   -1.5200 C   0  0  0  0  0  0  0  0  0  0  0  0
    2.0910   -0.2530   -0.3140 C   0  0  0  0  0  0  0  0  0  0  0  0
    1.5510   -0.5870    0.7550 O   0  0  0  0  0  0  0  0  0  0  0  0
    3.4950   -0.0970   -0.3870 N   0  0  0  0  0  0  0  0  0  0  0  0
    4.3600   -0.3130    0.7520 C   0  0  0  0  0  0  0  0  0  0  0  0
    5.6710   -0.0880    0.3660 O   0  0  0  0  0  0  0  0  0  0  0  0
  1  2  1  0
  2  3  2  0
  2  4  1  0
  4  5  2  0
  4  6  1  0
  6  7  1  0
  7  8  2  0
  7  9  1  0
  9 10  1  0
 10 11  1  0
 11 12  2  0
 11 13  1  0
 13 14  1  0
 14 15  1  0
M  END
