
     RDKit          3D

 15 15  0  0  0  0  0  0  0  0999 V2000
   -1.6020    2.1730   -0.0770 N   0  0  0  0  0  0  0  0  0  0  0  0
   -1.6500    1.1100   -1.0010 C   0  0  0  0  0  0  0  0  0  0  0  0
   -2.3960    1.2400   -2.0050 O   0  0  0  0  0  0  0  0  0  0  0  0
   -0.8640   -0.1560   -0.8490 C   0  0  1  0  0  0  0  0  0  0  0  0
   -0.0790   -0.1510    0.2980 O   0  0  0  0  0  0  0  0  0  0  0  0
    1.3610   -0.1040    0.2300 C   0  0  0  0  0  0  0  0  0  0  0  0
    2.0240   -1.2890    0.1770 C   0  0  0  0  0  0  0  0  0  0  0  0
    1.4530   -2.9300    0.1740 Cl  0  0  0  0  0  0  0  0  0  0  0  0
    3.7640   -0.8220    0.1020 S   0  0  0  0  0  0  0  0  0  0  0  0
    3.4060    0.9670    0.1510 N   0  0  0  0  0  0  0  0  0  0  0  0
    2.0960    1.0280    0.2150 C   0  0  0  0  0  0  0  0  0  0  0  0
    1.5160    2.2010    0.2640 O   0  0  0  0  0  0  0  0  0  0  0  0
   -1.7990   -1.2970   -0.7920 C   0  0  0  0  0  0  0  0  0  0  0  0
   -1.8090   -2.1380    0.3380 N   0  0  0  0  0  0  0  0  0  0  0  0
   -2.5750   -1.5020   -1.7530 O   0  0  0  0  0  0  0  0  0  0  0  0
  1  2  1  0
  2  3  2  0
  2  4  1  0
  4  5  1  1
  4 13  1  0
  5  6  1  0
  6  7  2  0
  6 11  1  0
  7  8  1  0
  7  9  1  0
  9 10  1  0
 10 11  1  0
 11 12  2  0
 13 14  1  0
 13 15  2  0
M  END
