
     RDKit          3D

 17 18  0  0  0  0  0  0  0  0999 V2000
    4.0690    1.6430    0.2750 C   0  0  0  0  0  0  0  0  0  0  0  0
    2.8920    0.7610   -0.0280 C   0  0  0  0  0  0  0  0  0  0  0  0
    3.0220   -0.5250   -0.1590 C   0  0  0  0  0  0  0  0  0  0  0  0
    1.9360   -1.4380   -0.4500 C   0  0  0  0  0  0  0  0  0  0  0  0
    0.5020   -1.1780   -0.6610 C   0  0  0  0  0  0  0  0  0  0  0  0
   -0.1680   -0.5750    0.4310 N   0  0  0  0  0  0  0  0  0  0  0  0
   -0.9540    0.5660   -0.0010 C   0  0  0  0  0  0  0  0  0  0  0  0
   -2.3270    0.5870    0.6140 C   0  0  2  0  0  0  0  0  0  0  0  0
   -2.3210    0.6450    1.9890 O   0  0  0  0  0  0  0  0  0  0  0  0
   -3.2150   -0.5080    0.0650 C   0  0  0  0  0  0  0  0  0  0  0  0
   -4.4670    0.2480   -0.3370 C   0  0  0  0  0  0  0  0  0  0  0  0
   -4.3720    1.4960    0.2850 O   0  0  0  0  0  0  0  0  0  0  0  0
   -3.0300    1.8310    0.1060 C   0  0  0  0  0  0  0  0  0  0  0  0
    2.4580   -2.6520   -0.5060 C   0  0  0  0  0  0  0  0  0  0  0  0
    3.8360   -2.5680   -0.2640 N   0  0  0  0  0  0  0  0  0  0  0  0
    4.2150   -1.3550   -0.0560 C   0  0  0  0  0  0  0  0  0  0  0  0
    5.9620   -0.7000    0.3160 Br  0  0  0  0  0  0  0  0  0  0  0  0
  1  2  1  0
  2  3  2  3
  3  4  1  0
  3 16  1  0
  4  5  1  0
  4 14  2  0
  5  6  1  0
  6  7  1  0
  7  8  1  0
  8  9  1  1
  8 10  1  0
  8 13  1  0
 10 11  1  0
 11 12  1  0
 12 13  1  0
 14 15  1  0
 15 16  2  0
 16 17  1  0
M  CHG  1   6   1
M  END
