
     RDKit          3D

 17 17  0  0  0  0  0  0  0  0999 V2000
   -5.2500    1.1060   -0.6710 C   0  0  0  0  0  0  0  0  0  0  0  0
   -3.8470    1.3670   -0.1600 C   0  0  0  0  0  0  0  0  0  0  0  0
   -3.1820    0.1290   -0.0800 O   0  0  0  0  0  0  0  0  0  0  0  0
   -1.8700   -0.0150    0.3510 C   0  0  0  0  0  0  0  0  0  0  0  0
   -0.9580   -0.6330   -0.3830 C   0  0  0  0  0  0  0  0  0  0  0  0
    0.3900   -0.7260    0.1710 C   0  0  0  0  0  0  0  0  0  0  0  0
    1.3780   -0.7010   -0.6220 N   0  0  0  0  0  0  0  0  0  0  0  0
    2.7330   -0.7850   -0.1950 C   0  0  0  0  0  0  0  0  0  0  0  0
    3.5260    0.3860    0.1060 C   0  0  0  0  0  0  0  0  0  0  0  0
    3.1260    1.6400    0.0280 C   0  0  0  0  0  0  0  0  0  0  0  0
    1.8450    2.0610   -0.3670 N   0  0  0  0  0  0  0  0  0  0  0  0
    3.2810   -1.9860   -0.0720 C   0  0  0  0  0  0  0  0  0  0  0  0
    2.4870   -3.2060   -0.3760 C   0  0  0  0  0  0  0  0  0  0  0  0
    2.4150   -4.3050    1.2130 Br  0  0  0  0  0  0  0  0  0  0  0  0
    0.5120   -0.8430    1.6460 C   0  0  0  0  0  0  0  0  0  0  0  0
   -0.5500   -0.3310    2.3370 O   0  0  0  0  0  0  0  0  0  0  0  0
   -1.3860    0.5060    1.6550 C   0  0  0  0  0  0  0  0  0  0  0  0
  1  2  1  0
  2  3  1  0
  3  4  1  0
  4  5  2  0
  4 17  1  0
  5  6  1  0
  6  7  2  3
  6 15  1  0
  7  8  1  0
  8  9  1  0
  8 12  2  3
  9 10  2  3
 10 11  1  0
 12 13  1  0
 13 14  1  0
 15 16  1  0
 16 17  1  0
M  CHG  1  11   1
M  END
