
     RDKit          3D

 17 17  0  0  0  0  0  0  0  0999 V2000
    1.8700    2.0460    1.6230 C   0  0  0  0  0  0  0  0  0  0  0  0
    2.6400    1.2890    0.8380 C   0  0  0  0  0  0  0  0  0  0  0  0
    4.4450    1.7990    0.5600 Br  0  0  0  0  0  0  0  0  0  0  0  0
    2.1070    0.1060    0.2130 C   0  0  0  0  0  0  0  0  0  0  0  0
    2.8140   -0.6610   -0.5580 C   0  0  0  0  0  0  0  0  0  0  0  0
    4.2150   -0.5390   -0.9610 C   0  0  0  0  0  0  0  0  0  0  0  0
    0.7200   -0.2810    0.4300 N   0  0  0  0  0  0  0  0  0  0  0  0
    0.5380   -1.1150    1.5740 C   0  0  0  0  0  0  0  0  0  0  0  0
   -0.2580   -2.3620    1.2160 C   0  0  0  0  0  0  0  0  0  0  0  0
   -1.5880   -1.9650    1.0910 O   0  0  0  0  0  0  0  0  0  0  0  0
   -1.7680   -1.5900   -0.2390 C   0  0  0  0  0  0  0  0  0  0  0  0
   -1.5850   -0.0850   -0.4110 C   0  0  1  0  0  0  0  0  0  0  0  0
   -2.3290    0.2860   -1.6730 C   0  0  0  0  0  0  0  0  0  0  0  0
   -2.3020    1.6220   -1.9730 O   0  0  0  0  0  0  0  0  0  0  0  0
   -2.1500    0.5960    0.7080 N   0  0  0  0  0  0  0  0  0  0  0  0
   -3.1320    1.6010    0.3860 C   0  0  0  0  0  0  0  0  0  0  0  0
   -0.1360    0.2790   -0.5720 C   0  0  0  0  0  0  0  0  0  0  0  0
  1  2  2  0
  2  3  1  0
  2  4  1  0
  4  5  2  3
  4  7  1  0
  5  6  1  0
  7  8  1  0
  7 17  1  0
  8  9  1  0
  9 10  1  0
 10 11  1  0
 11 12  1  0
 12 13  1  6
 12 15  1  0
 12 17  1  0
 13 14  1  0
 15 16  1  0
M  CHG  1  15   1
M  END
