
     RDKit          3D

 19 19  0  0  0  0  0  0  0  0999 V2000
   -2.3450   -1.7770    0.6620 N   0  0  0  0  0  0  0  0  0  0  0  0
   -1.1890   -1.0330    0.3140 C   0  0  0  0  0  0  0  0  0  0  0  0
   -0.0950   -1.6910   -0.1970 C   0  0  0  0  0  0  0  0  0  0  0  0
    1.0440   -0.9380   -0.5380 C   0  0  0  0  0  0  0  0  0  0  0  0
    2.2370   -1.5840   -1.0870 C   0  0  1  0  0  0  0  0  0  0  0  0
    1.9400   -2.9650   -1.1800 F   0  0  0  0  0  0  0  0  0  0  0  0
    2.5440   -1.2390   -2.3830 F   0  0  0  0  0  0  0  0  0  0  0  0
    3.3330   -1.5780   -0.2420 F   0  0  0  0  0  0  0  0  0  0  0  0
    1.0280    0.4190   -0.3510 C   0  0  0  0  0  0  0  0  0  0  0  0
    2.3940    1.4010   -0.7450 S   0  0  1  0  0  0  0  0  0  0  0  0
    3.7320    0.9120    0.2320 N   0  0  0  0  0  0  0  0  0  0  0  0
    2.8280    1.3020   -2.1660 O   0  0  0  0  0  0  0  0  0  0  0  0
    2.0810    2.8560   -0.4150 O   0  0  0  0  0  0  0  0  0  0  0  0
   -0.1040    1.0540    0.1720 C   0  0  0  0  0  0  0  0  0  0  0  0
   -1.2230    0.3300    0.5080 C   0  0  0  0  0  0  0  0  0  0  0  0
   -2.6610    1.0750    1.1640 S   0  0  2  0  0  0  0  0  0  0  0  0
   -4.0320    0.8120    0.1800 N   0  0  0  0  0  0  0  0  0  0  0  0
   -2.4650    2.5420    1.4020 O   0  0  0  0  0  0  0  0  0  0  0  0
   -2.9520    0.4520    2.5150 O   0  0  0  0  0  0  0  0  0  0  0  0
  1  2  1  0
  2  3  2  0
  2 15  1  0
  3  4  1  0
  4  5  1  0
  4  9  2  0
  5  6  1  6
  5  7  1  0
  5  8  1  0
  9 10  1  0
  9 14  1  0
 10 11  1  1
 10 12  2  0
 10 13  2  0
 14 15  2  0
 15 16  1  0
 16 17  1  6
 16 18  2  0
 16 19  2  0
M  END
