
     RDKit          3D

 24 25  0  0  0  0  0  0  0  0999 V2000
   -6.4110   -1.4580   -0.3280 N   0  0  0  0  0  0  0  0  0  0  0  0
   -6.6740   -0.7840    0.7930 O   0  0  0  0  0  0  0  0  0  0  0  0
   -5.8330    0.3640    0.7720 C   0  0  1  0  0  0  0  0  0  0  0  0
   -6.0960    1.1320    1.9940 N   0  0  0  0  0  0  0  0  0  0  0  0
   -4.4550   -0.0190    0.8050 N   0  0  0  0  0  0  0  0  0  0  0  0
   -3.6150    0.3380   -0.0640 C   0  0  0  0  0  0  0  0  0  0  0  0
   -2.2990   -0.0960    0.0710 C   0  0  0  0  0  0  0  0  0  0  0  0
   -1.3830    0.2910   -0.8750 C   0  0  0  0  0  0  0  0  0  0  0  0
   -0.0500   -0.1130   -0.7910 O   0  0  0  0  0  0  0  0  0  0  0  0
    0.7730    0.5900   -0.0390 O   0  0  0  0  0  0  0  0  0  0  0  0
    2.0430    0.3760   -0.4560 O   0  0  0  0  0  0  0  0  0  0  0  0
    2.8990   -0.4710    0.2160 C   0  0  0  0  0  0  0  0  0  0  0  0
    2.4100   -1.0350    1.2520 O   0  0  0  0  0  0  0  0  0  0  0  0
    4.2950   -0.7170   -0.2290 C   0  0  0  0  0  0  0  0  0  0  0  0
    4.9580   -1.6000    0.5960 O   0  0  0  0  0  0  0  0  0  0  0  0
    6.2510   -1.8520    0.2190 C   0  0  0  0  0  0  0  0  0  0  0  0
    7.1190   -0.6180    0.1940 C   0  0  0  0  0  0  0  0  0  0  0  0
    7.1700   -0.0300    1.4700 O   0  0  0  0  0  0  0  0  0  0  0  0
    7.9320    1.0380    1.4090 O   0  0  0  0  0  0  0  0  0  0  0  0
   -1.7290    1.0740   -1.9190 N   0  0  0  0  0  0  0  0  0  0  0  0
   -2.9850    1.4940   -2.0570 C   0  0  0  0  0  0  0  0  0  0  0  0
   -3.9380    1.1270   -1.1270 C   0  0  0  0  0  0  0  0  0  0  0  0
   -5.1740    1.5280   -1.2440 C   0  0  0  0  0  0  0  0  0  0  0  0
   -6.1140    1.1640   -0.3220 O   0  0  0  0  0  0  0  0  0  0  0  0
  1  2  1  0
  2  3  1  0
  3  4  1  1
  3  5  1  0
  3 24  1  0
  5  6  2  0
  6  7  1  0
  6 22  1  0
  7  8  2  0
  8  9  1  0
  8 20  1  0
  9 10  1  0
 10 11  1  0
 11 12  1  0
 12 13  2  0
 12 14  1  0
 14 15  1  0
 15 16  1  0
 16 17  1  0
 17 18  1  0
 18 19  1  0
 20 21  2  0
 21 22  1  0
 22 23  2  0
 23 24  1  0
M  END
