
     RDKit          3D

 24 24  0  0  0  0  0  0  0  0999 V2000
   -4.1920   -1.2740    0.6740 N   0  0  0  0  0  0  0  0  0  0  0  0
   -2.9630   -1.9880    0.5340 C   0  0  0  0  0  0  0  0  0  0  0  0
   -2.0030   -1.2370   -0.3860 C   0  0  0  0  0  0  0  0  0  0  0  0
   -1.7000    0.1150    0.1670 C   0  0  0  0  0  0  0  0  0  0  0  0
   -2.2620    0.4050    1.2570 O   0  0  0  0  0  0  0  0  0  0  0  0
   -0.8270    1.0230   -0.4980 N   0  0  0  0  0  0  0  0  0  0  0  0
   -0.6220    2.3100    0.1610 C   0  0  0  0  0  0  0  0  0  0  0  0
    0.0130    2.1440    1.5030 C   0  0  0  0  0  0  0  0  0  0  0  0
    0.3210    3.2630    2.0520 O   0  0  0  0  0  0  0  0  0  0  0  0
    0.2020    0.9140    2.0030 O   0  0  0  0  0  0  0  0  0  0  0  0
    1.0680   -0.0420    1.9330 O   0  0  0  0  0  0  0  0  0  0  0  0
    1.3190   -1.2260    1.3840 C   0  0  0  0  0  0  0  0  0  0  0  0
    0.6680   -2.3340    1.5410 O   0  0  0  0  0  0  0  0  0  0  0  0
    2.4240   -1.4170    0.4930 N   0  0  0  0  0  0  0  0  0  0  0  0
    3.1810   -2.6290    0.5510 N   0  0  0  0  0  0  0  0  0  0  0  0
    3.0160   -3.5430   -0.2500 O   0  0  0  0  0  0  0  0  0  0  0  0
    2.8660   -0.4730   -0.5000 C   0  0  0  0  0  0  0  0  0  0  0  0
    2.8410    0.8930    0.0090 C   0  0  0  0  0  0  0  0  0  0  0  0
    3.2810    1.0740    1.1980 O   0  0  0  0  0  0  0  0  0  0  0  0
    2.3900    1.9640   -0.6860 O   0  0  0  0  0  0  0  0  0  0  0  0
    1.8780    2.0760   -1.9400 C   0  0  0  0  0  0  0  0  0  0  0  0
    0.7750    1.5570   -2.4170 C   0  0  0  0  0  0  0  0  0  0  0  0
   -0.1870    0.7280   -1.7260 C   0  0  0  0  0  0  0  0  0  0  0  0
   -0.5040   -0.3900   -2.2680 O   0  0  0  0  0  0  0  0  0  0  0  0
  1  2  1  0
  2  3  1  0
  3  4  1  0
  4  5  2  0
  4  6  1  0
  6  7  1  0
  6 23  1  0
  7  8  1  0
  8  9  2  0
  8 10  1  0
 10 11  1  0
 11 12  1  0
 12 13  2  0
 12 14  1  0
 14 15  1  0
 14 17  1  0
 15 16  2  0
 17 18  1  0
 18 19  2  0
 18 20  1  0
 20 21  1  0
 21 22  2  0
 22 23  1  0
 23 24  2  0
M  END
