
     RDKit          3D

 24 25  0  0  0  0  0  0  0  0999 V2000
   -5.2740    1.8440    0.5210 C   0  0  0  0  0  0  0  0  0  0  0  0
   -4.6850    0.5530    0.2460 N   0  0  0  0  0  0  0  0  0  0  0  0
   -5.5860   -0.5480    0.3010 C   0  0  0  0  0  0  0  0  0  0  0  0
   -6.7960   -0.1990    0.4060 O   0  0  0  0  0  0  0  0  0  0  0  0
   -5.3150   -1.9270    0.2550 O   0  0  0  0  0  0  0  0  0  0  0  0
   -4.1360   -2.5570   -0.0700 O   0  0  0  0  0  0  0  0  0  0  0  0
   -2.8490   -2.0260   -0.1320 C   0  0  0  0  0  0  0  0  0  0  0  0
   -1.9160   -2.8620   -0.0060 O   0  0  0  0  0  0  0  0  0  0  0  0
   -2.4860   -0.6620   -0.3210 N   0  0  0  0  0  0  0  0  0  0  0  0
   -1.1660   -0.4530   -0.8380 C   0  0  0  0  0  0  0  0  0  0  0  0
   -0.1460   -0.3250    0.2110 C   0  0  0  0  0  0  0  0  0  0  0  0
   -0.4770   -0.4010    1.4260 O   0  0  0  0  0  0  0  0  0  0  0  0
    1.2090   -0.1140   -0.1690 N   0  0  0  0  0  0  0  0  0  0  0  0
    1.7110   -0.0090   -1.5340 C   0  0  0  0  0  0  0  0  0  0  0  0
    3.0450    0.6820   -1.3410 C   0  0  0  0  0  0  0  0  0  0  0  0
    3.5230   -0.0450   -0.0760 C   0  0  1  0  0  0  0  0  0  0  0  0
    4.6380    0.5450    0.4910 O   0  0  0  0  0  0  0  0  0  0  0  0
    5.8040   -0.1920    0.6440 C   0  0  0  0  0  0  0  0  0  0  0  0
    6.9890    0.3260    1.2120 N   0  0  0  0  0  0  0  0  0  0  0  0
    5.7770   -1.3980    0.2420 O   0  0  0  0  0  0  0  0  0  0  0  0
    2.2990    0.0270    0.7460 C   0  0  0  0  0  0  0  0  0  0  0  0
    2.1290    0.1770    1.9820 O   0  0  0  0  0  0  0  0  0  0  0  0
   -3.2950    0.4860   -0.0480 C   0  0  0  0  0  0  0  0  0  0  0  0
   -2.6900    1.5890   -0.0720 O   0  0  0  0  0  0  0  0  0  0  0  0
  1  2  1  0
  2  3  1  0
  2 23  1  0
  3  4  2  0
  3  5  1  0
  5  6  1  0
  6  7  1  0
  7  8  2  0
  7  9  1  0
  9 10  1  0
  9 23  1  0
 10 11  1  0
 11 12  2  0
 11 13  1  0
 13 14  1  0
 13 21  1  0
 14 15  1  0
 15 16  1  0
 16 17  1  1
 16 21  1  0
 17 18  1  0
 18 19  1  0
 18 20  2  0
 21 22  2  0
 23 24  2  0
M  END
