
     RDKit          3D

 24 24  0  0  0  0  0  0  0  0999 V2000
   -6.1010   -0.8040    1.0500 N   0  0  0  0  0  0  0  0  0  0  0  0
   -4.6920   -1.0980    0.9540 C   0  0  0  0  0  0  0  0  0  0  0  0
   -4.3220   -2.1530    0.3840 O   0  0  0  0  0  0  0  0  0  0  0  0
   -3.7840   -0.2070    1.4930 O   0  0  0  0  0  0  0  0  0  0  0  0
   -2.3930   -0.3680    1.4640 C   0  0  0  0  0  0  0  0  0  0  0  0
   -1.8930   -0.3980    0.0390 C   0  0  2  0  0  0  0  0  0  0  0  0
   -0.4300   -0.7260   -0.0440 C   0  0  0  0  0  0  0  0  0  0  0  0
   -0.1010   -1.9260   -0.5940 O   0  0  0  0  0  0  0  0  0  0  0  0
    1.0580   -1.7710   -1.3700 C   0  0  0  0  0  0  0  0  0  0  0  0
    2.0180   -0.7610   -0.8470 C   0  0  1  0  0  0  0  0  0  0  0  0
    3.3080   -1.4580   -0.7030 N   0  0  0  0  0  0  0  0  0  0  0  0
    3.9910   -1.5940    0.5150 C   0  0  0  0  0  0  0  0  0  0  0  0
    3.4700   -1.0900    1.5490 O   0  0  0  0  0  0  0  0  0  0  0  0
    5.2060   -2.2560    0.6280 O   0  0  0  0  0  0  0  0  0  0  0  0
    2.2590    0.4170   -1.7230 C   0  0  0  0  0  0  0  0  0  0  0  0
    2.2950    1.7550   -1.0680 C   0  0  0  0  0  0  0  0  0  0  0  0
    2.1410    1.6630    0.3050 O   0  0  0  0  0  0  0  0  0  0  0  0
    1.1140    1.9980    1.1380 C   0  0  0  0  0  0  0  0  0  0  0  0
    1.2990    1.5680    2.3460 O   0  0  0  0  0  0  0  0  0  0  0  0
   -0.0680    2.7180    0.8700 N   0  0  0  0  0  0  0  0  0  0  0  0
   -0.8140    2.8260   -0.3020 N   0  0  0  0  0  0  0  0  0  0  0  0
   -1.5050    1.8600   -1.0650 C   0  0  0  0  0  0  0  0  0  0  0  0
   -1.5250    2.0420   -2.3400 O   0  0  0  0  0  0  0  0  0  0  0  0
   -2.1750    0.7410   -0.6810 O   0  0  0  0  0  0  0  0  0  0  0  0
  1  2  1  0
  2  3  2  0
  2  4  1  0
  4  5  1  0
  6  5  1  1
  6  7  1  0
  6 24  1  0
  7  8  1  0
  8  9  1  0
  9 10  1  0
 10 11  1  6
 10 15  1  0
 11 12  1  0
 12 13  2  0
 12 14  1  0
 15 16  1  0
 16 17  1  0
 17 18  1  0
 18 19  2  0
 18 20  1  0
 20 21  1  0
 21 22  1  0
 22 23  2  0
 22 24  1  0
M  END
