
     RDKit          3D

 24 25  0  0  0  0  0  0  0  0999 V2000
   -4.8330   -0.4490   -1.0160 C   0  0  0  0  0  0  0  0  0  0  0  0
   -3.5660   -0.4250   -0.1890 C   0  0  1  0  0  0  0  0  0  0  0  0
   -2.8040   -1.5990   -0.5090 O   0  0  0  0  0  0  0  0  0  0  0  0
   -1.4960   -1.5870   -0.0980 N   0  0  0  0  0  0  0  0  0  0  0  0
   -0.6470   -0.7660   -0.6170 N   0  0  0  0  0  0  0  0  0  0  0  0
    0.7270   -0.7720   -0.1670 C   0  0  0  0  0  0  0  0  0  0  0  0
    1.6450   -0.4310   -1.0610 C   0  0  0  0  0  0  0  0  0  0  0  0
    3.0320   -0.3920   -0.7640 N   0  0  0  0  0  0  0  0  0  0  0  0
    4.0690   -0.0330   -1.6860 C   0  0  0  0  0  0  0  0  0  0  0  0
    4.2560    1.3630   -1.5810 O   0  0  0  0  0  0  0  0  0  0  0  0
    3.1320    1.9930   -1.8820 O   0  0  0  0  0  0  0  0  0  0  0  0
    2.9040    1.8820   -3.1710 O   0  0  0  0  0  0  0  0  0  0  0  0
    3.3830   -0.7490    0.5740 C   0  0  0  0  0  0  0  0  0  0  0  0
    4.4940   -0.4210    1.0360 O   0  0  0  0  0  0  0  0  0  0  0  0
    2.4470   -1.5110    1.4420 C   0  0  0  0  0  0  0  0  0  0  0  0
    1.0530   -1.1230    1.1710 N   0  0  0  0  0  0  0  0  0  0  0  0
    0.1050   -1.1150    2.2340 C   0  0  0  0  0  0  0  0  0  0  0  0
    0.2570   -1.9810    3.1330 O   0  0  0  0  0  0  0  0  0  0  0  0
   -0.9530   -0.2360    2.3460 O   0  0  0  0  0  0  0  0  0  0  0  0
   -0.9390    1.1130    1.9700 C   0  0  0  0  0  0  0  0  0  0  0  0
   -2.3500    1.6250    1.6810 C   0  0  0  0  0  0  0  0  0  0  0  0
   -2.4840    1.7330    0.3000 O   0  0  0  0  0  0  0  0  0  0  0  0
   -2.7890    0.7560   -0.6000 C   0  0  0  0  0  0  0  0  0  0  0  0
   -2.3840    0.8960   -1.7940 O   0  0  0  0  0  0  0  0  0  0  0  0
  2  1  1  6
  2  3  1  0
  2 23  1  0
  3  4  1  0
  4  5  2  0
  5  6  1  0
  6  7  2  0
  6 16  1  0
  7  8  1  0
  8  9  1  0
  8 13  1  0
  9 10  1  0
 10 11  1  0
 11 12  1  0
 13 14  2  0
 13 15  1  0
 15 16  1  0
 16 17  1  0
 17 18  2  0
 17 19  1  0
 19 20  1  0
 20 21  1  0
 21 22  1  0
 22 23  1  0
 23 24  2  0
M  END
