
     RDKit          3D

 24 26  0  0  0  0  0  0  0  0999 V2000
    2.3180    0.0340    3.0890 O   0  0  0  0  0  0  0  0  0  0  0  0
    1.3720   -0.0790    2.2800 C   0  0  0  0  0  0  0  0  0  0  0  0
    0.0200    0.0480    2.7200 N   0  0  0  0  0  0  0  0  0  0  0  0
   -1.1470   -0.4610    2.1020 C   0  0  0  0  0  0  0  0  0  0  0  0
   -1.4680   -0.1610    0.7080 C   0  0  1  0  0  0  0  0  0  0  0  0
   -2.3050   -1.3310    0.1800 C   0  0  0  0  0  0  0  0  0  0  0  0
   -2.7270   -1.1460   -1.1060 O   0  0  0  0  0  0  0  0  0  0  0  0
   -4.0300   -0.6510   -1.0700 C   0  0  0  0  0  0  0  0  0  0  0  0
   -3.9470    0.8380   -1.1010 C   0  0  0  0  0  0  0  0  0  0  0  0
   -3.4230    1.3970    0.0630 O   0  0  0  0  0  0  0  0  0  0  0  0
   -2.2490    1.1030    0.6820 C   0  0  0  0  0  0  0  0  0  0  0  0
   -1.7170    2.0230    1.3450 O   0  0  0  0  0  0  0  0  0  0  0  0
   -0.4030    0.0110   -0.2710 C   0  0  0  0  0  0  0  0  0  0  0  0
   -0.6970    0.2680   -1.5700 N   0  0  0  0  0  0  0  0  0  0  0  0
    0.3770    0.4020   -2.2420 O   0  0  0  0  0  0  0  0  0  0  0  0
    1.4740    0.2560   -1.4930 C   0  0  0  0  0  0  0  0  0  0  0  0
    2.7760    0.3510   -1.9750 N   0  0  0  0  0  0  0  0  0  0  0  0
    3.9920    0.5800   -1.3190 C   0  0  0  0  0  0  0  0  0  0  0  0
    4.0180    0.7730   -0.0920 O   0  0  0  0  0  0  0  0  0  0  0  0
    5.2150    0.5990   -2.0170 O   0  0  0  0  0  0  0  0  0  0  0  0
    6.3120    0.8260   -1.2930 O   0  0  0  0  0  0  0  0  0  0  0  0
    6.5770   -0.2560   -0.5860 O   0  0  0  0  0  0  0  0  0  0  0  0
    0.9780    0.0050   -0.2540 C   0  0  0  0  0  0  0  0  0  0  0  0
    1.7130   -0.3390    0.9150 N   0  0  0  0  0  0  0  0  0  0  0  0
  1  2  2  0
  2  3  1  0
  2 24  1  0
  3  4  1  0
  5  4  1  1
  5  6  1  0
  5 11  1  0
  5 13  1  0
  6  7  1  0
  7  8  1  0
  8  9  1  0
  9 10  1  0
 10 11  1  0
 11 12  2  0
 13 14  2  0
 13 23  1  0
 14 15  1  0
 15 16  1  0
 16 17  1  0
 16 23  2  0
 17 18  1  0
 18 19  2  0
 18 20  1  0
 20 21  1  0
 21 22  1  0
 23 24  1  0
M  END
