
     RDKit          3D

 24 25  0  0  0  0  0  0  0  0999 V2000
    4.6450    1.1560    1.8780 C   0  0  0  0  0  0  0  0  0  0  0  0
    4.3310    0.4220    0.6630 N   0  0  0  0  0  0  0  0  0  0  0  0
    5.2850    0.4870   -0.4090 C   0  0  0  0  0  0  0  0  0  0  0  0
    6.2490    1.2740   -0.2110 O   0  0  0  0  0  0  0  0  0  0  0  0
    5.2810   -0.1890   -1.6030 O   0  0  0  0  0  0  0  0  0  0  0  0
    4.3340   -1.0240   -2.1390 O   0  0  0  0  0  0  0  0  0  0  0  0
    3.0550   -1.3090   -1.6570 C   0  0  0  0  0  0  0  0  0  0  0  0
    2.3250   -1.9840   -2.4510 O   0  0  0  0  0  0  0  0  0  0  0  0
    2.4740   -0.9500   -0.4180 N   0  0  0  0  0  0  0  0  0  0  0  0
    1.0910   -1.2830   -0.2090 C   0  0  0  0  0  0  0  0  0  0  0  0
    0.2320   -0.1610   -0.6730 C   0  0  0  0  0  0  0  0  0  0  0  0
    0.7660    0.8720   -1.1580 O   0  0  0  0  0  0  0  0  0  0  0  0
   -1.1880   -0.2740   -0.5620 N   0  0  0  0  0  0  0  0  0  0  0  0
   -1.9120   -1.4030   -0.0260 C   0  0  0  0  0  0  0  0  0  0  0  0
   -3.2530   -1.2660   -0.7160 C   0  0  0  0  0  0  0  0  0  0  0  0
   -3.4650    0.2240   -0.7340 C   0  0  1  0  0  0  0  0  0  0  0  0
   -4.0200    0.7100    0.4690 O   0  0  0  0  0  0  0  0  0  0  0  0
   -5.2210    1.3880    0.5300 C   0  0  0  0  0  0  0  0  0  0  0  0
   -5.7960    1.8840    1.7240 N   0  0  0  0  0  0  0  0  0  0  0  0
   -5.8320    1.5670   -0.5570 O   0  0  0  0  0  0  0  0  0  0  0  0
   -2.1000    0.7410   -0.9760 C   0  0  0  0  0  0  0  0  0  0  0  0
   -1.8610    1.8740   -1.4590 O   0  0  0  0  0  0  0  0  0  0  0  0
    3.0990   -0.2830    0.6780 C   0  0  0  0  0  0  0  0  0  0  0  0
    2.4970   -0.3230    1.7730 O   0  0  0  0  0  0  0  0  0  0  0  0
  1  2  1  0
  2  3  1  0
  2 23  1  0
  3  4  2  0
  3  5  1  0
  5  6  1  0
  6  7  1  0
  7  8  2  0
  7  9  1  0
  9 10  1  0
  9 23  1  0
 10 11  1  0
 11 12  2  0
 11 13  1  0
 13 14  1  0
 13 21  1  0
 14 15  1  0
 15 16  1  0
 16 17  1  1
 16 21  1  0
 17 18  1  0
 18 19  1  0
 18 20  2  0
 21 22  2  0
 23 24  2  0
M  END
