
     RDKit          3D

 24 25  0  0  0  0  0  0  0  0999 V2000
   -7.3920    1.9080   -1.1240 N   0  0  0  0  0  0  0  0  0  0  0  0
   -6.1090    1.7080   -1.5270 O   0  0  0  0  0  0  0  0  0  0  0  0
   -5.6500    0.4610   -1.0510 C   0  0  1  0  0  0  0  0  0  0  0  0
   -6.4980   -0.6070   -1.5840 N   0  0  0  0  0  0  0  0  0  0  0  0
   -4.2960    0.3030   -1.4660 N   0  0  0  0  0  0  0  0  0  0  0  0
   -3.3320    0.2050   -0.6360 C   0  0  0  0  0  0  0  0  0  0  0  0
   -2.0340    0.0520   -1.1270 C   0  0  0  0  0  0  0  0  0  0  0  0
   -0.9840   -0.0540   -0.2470 C   0  0  0  0  0  0  0  0  0  0  0  0
    0.3220   -0.2080   -0.7430 O   0  0  0  0  0  0  0  0  0  0  0  0
    0.7450   -1.4210   -1.0540 O   0  0  0  0  0  0  0  0  0  0  0  0
    2.0820   -1.4980   -1.0960 O   0  0  0  0  0  0  0  0  0  0  0  0
    2.8820   -1.0020   -0.0910 C   0  0  0  0  0  0  0  0  0  0  0  0
    2.3710   -0.4530    0.9130 O   0  0  0  0  0  0  0  0  0  0  0  0
    4.3710   -1.0940   -0.1500 C   0  0  0  0  0  0  0  0  0  0  0  0
    4.9290   -0.5250    0.9680 O   0  0  0  0  0  0  0  0  0  0  0  0
    6.2840   -0.6220    0.9660 C   0  0  0  0  0  0  0  0  0  0  0  0
    6.8920    0.0680   -0.2170 C   0  0  0  0  0  0  0  0  0  0  0  0
    8.2870   -0.0910   -0.1020 O   0  0  0  0  0  0  0  0  0  0  0  0
    8.8750    0.5030   -1.1280 O   0  0  0  0  0  0  0  0  0  0  0  0
   -1.2110   -0.0100    1.0820 N   0  0  0  0  0  0  0  0  0  0  0  0
   -2.4210    0.1340    1.6030 C   0  0  0  0  0  0  0  0  0  0  0  0
   -3.4980    0.2430    0.7310 C   0  0  0  0  0  0  0  0  0  0  0  0
   -4.7400    0.3890    1.1980 C   0  0  0  0  0  0  0  0  0  0  0  0
   -5.7880    0.4960    0.3300 O   0  0  0  0  0  0  0  0  0  0  0  0
  1  2  1  0
  2  3  1  0
  3  4  1  6
  3  5  1  0
  3 24  1  0
  5  6  2  0
  6  7  1  0
  6 22  1  0
  7  8  2  0
  8  9  1  0
  8 20  1  0
  9 10  1  0
 10 11  1  0
 11 12  1  0
 12 13  2  0
 12 14  1  0
 14 15  1  0
 15 16  1  0
 16 17  1  0
 17 18  1  0
 18 19  1  0
 20 21  2  0
 21 22  1  0
 22 23  2  0
 23 24  1  0
M  END
