
     RDKit          3D

 24 24  0  0  0  0  0  0  0  0999 V2000
    4.3240   -0.2580   -0.9040 O   0  0  0  0  0  0  0  0  0  0  0  0
    4.4220   -0.4100    0.2970 C   0  0  0  0  0  0  0  0  0  0  0  0
    5.4910    0.1940    1.0580 N   0  0  0  0  0  0  0  0  0  0  0  0
    6.4080    1.0680    0.4720 C   0  0  0  0  0  0  0  0  0  0  0  0
    7.2390    0.5730   -0.6190 C   0  0  0  0  0  0  0  0  0  0  0  0
    8.0470    1.6520   -1.0760 O   0  0  0  0  0  0  0  0  0  0  0  0
    3.5240   -1.1060    0.9780 O   0  0  0  0  0  0  0  0  0  0  0  0
    2.3300   -1.7110    0.7540 C   0  0  0  0  0  0  0  0  0  0  0  0
    1.4910   -0.7530   -0.1120 C   0  0  0  0  0  0  0  0  0  0  0  0
    0.1190   -1.0080   -0.0790 N   0  0  0  0  0  0  0  0  0  0  0  0
   -0.8950   -0.5750   -0.9650 C   0  0  0  0  0  0  0  0  0  0  0  0
   -0.5460   -0.0380   -2.0330 O   0  0  0  0  0  0  0  0  0  0  0  0
   -2.2850   -0.7240   -0.5820 C   0  0  1  0  0  0  0  0  0  0  0  0
   -3.1490    0.3340   -1.4510 C   0  0  0  0  0  0  0  0  0  0  0  0
   -4.1600    0.8400   -0.4600 C   0  0  0  0  0  0  0  0  0  0  0  0
   -4.8650   -0.2460    0.1950 N   0  0  0  0  0  0  0  0  0  0  0  0
   -6.1080    0.0990    0.7980 C   0  0  0  0  0  0  0  0  0  0  0  0
   -6.7460   -0.6340    1.4960 O   0  0  0  0  0  0  0  0  0  0  0  0
   -6.6340    1.4070    0.5330 O   0  0  0  0  0  0  0  0  0  0  0  0
   -7.8370    1.7450    1.0510 O   0  0  0  0  0  0  0  0  0  0  0  0
   -8.3130    2.8000    0.4530 O   0  0  0  0  0  0  0  0  0  0  0  0
   -4.3710   -1.5940    0.1640 C   0  0  0  0  0  0  0  0  0  0  0  0
   -4.9650   -2.4940    0.7590 O   0  0  0  0  0  0  0  0  0  0  0  0
   -3.1200   -1.8330   -0.6050 N   0  0  0  0  0  0  0  0  0  0  0  0
  1  2  2  0
  2  3  1  0
  2  7  1  0
  3  4  1  0
  4  5  1  0
  5  6  1  0
  7  8  1  0
  8  9  1  0
  9 10  1  0
 10 11  1  0
 11 12  2  0
 13 11  1  6
 13 14  1  0
 13 24  1  0
 14 15  1  0
 15 16  1  0
 16 17  1  0
 16 22  1  0
 17 18  2  0
 17 19  1  0
 19 20  1  0
 20 21  1  0
 22 23  2  0
 22 24  1  0
M  END
