
     RDKit          3D

 28 28  0  0  0  0  0  0  0  0999 V2000
    1.6720    3.0610   -2.7930 O   0  0  0  0  0  0  0  0  0  0  0  0
    2.3110    2.6970   -1.7860 C   0  0  0  0  0  0  0  0  0  0  0  0
    3.4610    3.3780   -1.4600 O   0  0  0  0  0  0  0  0  0  0  0  0
    1.8800    1.5830   -0.9540 C   0  0  0  0  0  0  0  0  0  0  0  0
    2.6070    1.2490    0.1040 C   0  0  0  0  0  0  0  0  0  0  0  0
    2.0010    0.0780    0.8390 C   0  0  1  0  0  0  0  0  0  0  0  0
    2.6820   -0.2610    1.9590 O   0  0  0  0  0  0  0  0  0  0  0  0
    3.3100   -1.7450    2.0830 P   0  0  0  0  0  0  0  0  0  0  0  0
    3.8030   -1.7800    0.6340 O   0  0  0  0  0  0  0  0  0  0  0  0
    2.3450   -3.0650    1.6800 O   0  0  0  0  0  0  0  0  0  0  0  0
    2.8760   -1.9840    3.5440 O   0  0  0  0  0  0  0  0  0  0  0  0
    0.6050    0.5530    1.1830 C   0  0  1  0  0  0  0  0  0  0  0  0
    0.7210    1.7020    1.9870 O   0  0  0  0  0  0  0  0  0  0  0  0
   -0.2350    0.8160   -0.0500 C   0  0  2  0  0  0  0  0  0  0  0  0
   -1.2730   -0.0020   -0.0290 O   0  0  0  0  0  0  0  0  0  0  0  0
   -2.5560    0.2540    0.0370 C   0  0  1  0  0  0  0  0  0  0  0  0
   -3.2820   -0.9190    0.0280 O   0  0  0  0  0  0  0  0  0  0  0  0
   -3.0370   -1.8530   -1.2380 P   0  0  0  0  0  0  0  0  0  0  0  0
   -4.1090   -1.2020   -2.1170 O   0  0  0  0  0  0  0  0  0  0  0  0
   -1.9260   -2.7550   -0.6340 O   0  0  0  0  0  0  0  0  0  0  0  0
   -1.9270   -1.4290   -2.4100 O   0  0  0  0  0  0  0  0  0  0  0  0
   -3.0140    0.8470    1.3630 C   0  0  0  0  0  0  0  0  0  0  0  0
   -2.2370    1.0500    2.3080 O   0  0  0  0  0  0  0  0  0  0  0  0
   -4.3490    1.1690    1.5130 O   0  0  0  0  0  0  0  0  0  0  0  0
   -2.9930    1.2610   -0.9930 C   0  0  1  0  0  0  0  0  0  0  0  0
   -2.7730    0.9330   -2.2810 F   0  0  0  0  0  0  0  0  0  0  0  0
   -4.3020    1.6810   -0.7590 F   0  0  0  0  0  0  0  0  0  0  0  0
    0.6660    0.7840   -1.2410 C   0  0  0  0  0  0  0  0  0  0  0  0
  1  2  2  0
  2  3  1  0
  2  4  1  0
  4  5  2  0
  4 28  1  0
  5  6  1  0
  6  7  1  1
  6 12  1  0
  7  8  1  0
  8  9  1  0
  8 10  1  0
  8 11  1  0
 12 13  1  6
 12 14  1  0
 14 15  1  6
 14 28  1  0
 16 15  1  1
 16 17  1  0
 16 22  1  0
 16 25  1  0
 17 18  1  0
 18 19  1  0
 18 20  1  0
 18 21  1  0
 22 23  2  0
 22 24  1  0
 25 26  1  6
 25 27  1  0
M  END
