
     RDKit          3D

 24 24  0  0  0  0  0  0  0  0999 V2000
   -4.1460   -1.2210   -1.6260 N   0  0  0  0  0  0  0  0  0  0  0  0
   -3.3410   -0.0420   -1.4330 C   0  0  0  0  0  0  0  0  0  0  0  0
   -2.5730   -0.2030   -0.1380 C   0  0  0  0  0  0  0  0  0  0  0  0
   -1.7150    0.9590    0.1490 C   0  0  0  0  0  0  0  0  0  0  0  0
   -1.7640    1.9230   -0.6530 O   0  0  0  0  0  0  0  0  0  0  0  0
   -0.8470    1.0640    1.2600 N   0  0  0  0  0  0  0  0  0  0  0  0
   -0.0700    2.2750    1.4190 C   0  0  0  0  0  0  0  0  0  0  0  0
    1.2790    2.2290    0.8270 C   0  0  0  0  0  0  0  0  0  0  0  0
    2.2620    2.4360    1.5870 O   0  0  0  0  0  0  0  0  0  0  0  0
    1.4570    1.9750   -0.4770 O   0  0  0  0  0  0  0  0  0  0  0  0
    1.1060    1.0000   -1.3020 O   0  0  0  0  0  0  0  0  0  0  0  0
    1.8160    0.4260   -2.3480 C   0  0  0  0  0  0  0  0  0  0  0  0
    1.5840    0.7120   -3.5890 O   0  0  0  0  0  0  0  0  0  0  0  0
    2.8570   -0.5280   -2.0990 N   0  0  0  0  0  0  0  0  0  0  0  0
    4.0480   -0.3400   -2.8130 N   0  0  0  0  0  0  0  0  0  0  0  0
    5.1730   -0.5480   -2.3510 O   0  0  0  0  0  0  0  0  0  0  0  0
    2.7490   -1.6420   -1.1870 C   0  0  0  0  0  0  0  0  0  0  0  0
    1.5510   -1.4680   -0.2750 C   0  0  0  0  0  0  0  0  0  0  0  0
    0.5050   -1.9180   -0.8150 O   0  0  0  0  0  0  0  0  0  0  0  0
    1.7270   -0.9020    0.9010 O   0  0  0  0  0  0  0  0  0  0  0  0
    1.5170   -0.9060    2.2060 C   0  0  0  0  0  0  0  0  0  0  0  0
    0.3930   -0.5270    2.8420 C   0  0  0  0  0  0  0  0  0  0  0  0
   -0.8020   -0.0380    2.1710 C   0  0  0  0  0  0  0  0  0  0  0  0
   -1.9090   -0.6550    2.4270 O   0  0  0  0  0  0  0  0  0  0  0  0
  1  2  1  0
  2  3  1  0
  3  4  1  0
  4  5  2  0
  4  6  1  0
  6  7  1  0
  6 23  1  0
  7  8  1  0
  8  9  2  0
  8 10  1  0
 10 11  1  0
 11 12  1  0
 12 13  2  0
 12 14  1  0
 14 15  1  0
 14 17  1  0
 15 16  2  0
 17 18  1  0
 18 19  2  0
 18 20  1  0
 20 21  1  0
 21 22  2  0
 22 23  1  0
 23 24  2  0
M  END
