
     RDKit          3D

 20 20  0  0  0  0  0  0  0  0999 V2000
    5.4080    3.1210   -0.2210 C   0  0  0  0  0  0  0  0  0  0  0  0
    4.9410    1.7320    0.1320 C   0  0  0  0  0  0  0  0  0  0  0  0
    3.6120    1.7070    0.5060 O   0  0  0  0  0  0  0  0  0  0  0  0
    3.1380    0.0920    0.8970 P   0  0  0  0  0  0  0  0  0  0  0  0
    1.2890   -0.0590    1.0510 C   0  0  0  0  0  0  0  0  0  0  0  0
    0.7410   -0.2080   -0.3340 C   0  0  0  0  0  0  0  0  0  0  0  0
   -0.6320   -0.3350   -0.4230 O   0  0  0  0  0  0  0  0  0  0  0  0
   -1.5590    0.5690    0.0000 C   0  0  0  0  0  0  0  0  0  0  0  0
   -1.0530    1.6150    0.5220 O   0  0  0  0  0  0  0  0  0  0  0  0
   -3.0300    0.4330   -0.0960 C   0  0  0  0  0  0  0  0  0  0  0  0
   -3.7620   -0.5280   -0.5780 C   0  0  0  0  0  0  0  0  0  0  0  0
   -3.2310   -1.7890   -1.1800 C   0  0  0  0  0  0  0  0  0  0  0  0
   -3.6550   -1.9220   -2.6250 C   0  0  0  0  0  0  0  0  0  0  0  0
   -5.2430   -0.2040   -0.4700 C   0  0  0  0  0  0  0  0  0  0  0  0
   -5.1620    1.3250   -0.4660 C   0  0  0  0  0  0  0  0  0  0  0  0
   -3.9560    1.4970    0.4220 C   0  0  1  0  0  0  0  0  0  0  0  0
   -4.3230    1.1560    1.8440 C   0  0  0  0  0  0  0  0  0  0  0  0
    3.8030   -1.0840   -0.1560 O   0  0  0  0  0  0  0  0  0  0  0  0
    4.8670   -1.7570    0.4760 C   0  0  0  0  0  0  0  0  0  0  0  0
    5.4710   -2.7960   -0.4220 C   0  0  0  0  0  0  0  0  0  0  0  0
  1  2  1  0
  2  3  1  0
  3  4  1  0
  4  5  1  0
  4 18  1  0
  5  6  1  0
  6  7  1  0
  7  8  1  0
  8  9  2  0
  8 10  1  0
 10 11  2  0
 10 16  1  0
 11 12  1  0
 11 14  1  0
 12 13  1  0
 14 15  1  0
 15 16  1  0
 16 17  1  1
 18 19  1  0
 19 20  1  0
M  END
