
     RDKit          3D

 24 26  0  0  0  0  0  0  0  0999 V2000
   -5.9070   -1.2920    0.8960 C   0  0  0  0  0  0  0  0  0  0  0  0
   -5.0910   -0.1150    1.0900 N   0  0  0  0  0  0  0  0  0  0  0  0
   -4.0520    0.1420    0.1160 C   0  0  0  0  0  0  0  0  0  0  0  0
   -3.1380   -0.8030   -0.0510 C   0  0  0  0  0  0  0  0  0  0  0  0
   -2.0700   -0.5990   -1.0170 C   0  0  0  0  0  0  0  0  0  0  0  0
   -1.1350   -1.6120   -1.1600 O   0  0  0  0  0  0  0  0  0  0  0  0
    0.2240   -1.4800   -0.9020 C   0  0  0  0  0  0  0  0  0  0  0  0
    0.5300   -1.0900    0.5250 C   0  0  0  0  0  0  0  0  0  0  0  0
    2.0000   -0.9920    0.6320 N   0  0  0  0  0  0  0  0  0  0  0  0
    2.6250   -2.1280    0.9830 C   0  0  0  0  0  0  0  0  0  0  0  0
    1.9490   -3.1620    1.1900 O   0  0  0  0  0  0  0  0  0  0  0  0
    4.3250   -1.9820    1.0990 S   0  0  0  0  0  0  0  0  0  0  0  0
    4.8840   -0.4160    0.7430 C   0  0  0  0  0  0  0  0  0  0  0  0
    6.2360   -0.0540    0.7710 C   0  0  0  0  0  0  0  0  0  0  0  0
    6.6300    1.2310    0.4740 C   0  0  0  0  0  0  0  0  0  0  0  0
    5.6490    2.1370    0.1510 C   0  0  0  0  0  0  0  0  0  0  0  0
    4.3180    1.7950    0.1190 C   0  0  0  0  0  0  0  0  0  0  0  0
    3.9060    0.4900    0.4200 C   0  0  0  0  0  0  0  0  0  0  0  0
    2.5710    0.1730    0.3820 C   0  0  0  0  0  0  0  0  0  0  0  0
    1.7890    1.1370    0.0620 O   0  0  0  0  0  0  0  0  0  0  0  0
   -1.9840    0.4910   -1.7290 C   0  0  0  0  0  0  0  0  0  0  0  0
   -0.8990    0.5910   -2.6470 O   0  0  0  0  0  0  0  0  0  0  0  0
   -2.9510    1.5820   -1.6080 C   0  0  0  0  0  0  0  0  0  0  0  0
   -4.0390    1.4060   -0.6380 C   0  0  0  0  0  0  0  0  0  0  0  0
  1  2  1  0
  2  3  1  0
  3  4  2  0
  3 24  1  0
  4  5  1  0
  5  6  1  0
  5 21  2  0
  6  7  1  0
  7  8  1  0
  8  9  1  0
  9 10  1  0
  9 19  1  0
 10 11  2  0
 10 12  1  0
 12 13  1  0
 13 14  2  0
 13 18  1  0
 14 15  1  0
 15 16  2  0
 16 17  1  0
 17 18  2  0
 18 19  1  0
 19 20  2  0
 21 22  1  0
 21 23  1  0
 23 24  1  0
M  END
