
     RDKit          3D

 24 26  0  0  0  0  0  0  0  0999 V2000
    7.1280    0.0550   -1.2210 C   0  0  0  0  0  0  0  0  0  0  0  0
    6.3350   -0.4650   -0.0240 C   0  0  0  0  0  0  0  0  0  0  0  0
    4.9890   -0.3110   -0.3500 O   0  0  0  0  0  0  0  0  0  0  0  0
    4.0830   -0.8630    0.9230 S   0  0  1  0  0  0  0  0  0  0  0  0
    4.1130   -2.3800    0.9570 O   0  0  0  0  0  0  0  0  0  0  0  0
    4.5260   -0.3640    2.2420 O   0  0  0  0  0  0  0  0  0  0  0  0
    2.3750   -0.4360    0.7250 C   0  0  0  0  0  0  0  0  0  0  0  0
    1.7540    0.3470    1.6610 C   0  0  0  0  0  0  0  0  0  0  0  0
    0.4290    0.6690    1.4870 C   0  0  0  0  0  0  0  0  0  0  0  0
   -0.2310    1.4460    2.4170 C   0  0  0  0  0  0  0  0  0  0  0  0
   -1.5520    1.7990    2.3200 C   0  0  0  0  0  0  0  0  0  0  0  0
   -2.2250    1.3310    1.2120 C   0  0  0  0  0  0  0  0  0  0  0  0
   -1.5890    0.5350    0.2360 C   0  0  0  0  0  0  0  0  0  0  0  0
   -0.2720    0.2010    0.3670 C   0  0  0  0  0  0  0  0  0  0  0  0
    0.3340   -0.5640   -0.5440 N   0  0  0  0  0  0  0  0  0  0  0  0
    1.6480   -0.8590   -0.3340 C   0  0  0  0  0  0  0  0  0  0  0  0
    2.2440   -1.5870   -1.1940 O   0  0  0  0  0  0  0  0  0  0  0  0
   -2.1610    0.0240   -0.9950 C   0  0  0  0  0  0  0  0  0  0  0  0
   -3.4640   -0.1320   -1.2620 C   0  0  0  0  0  0  0  0  0  0  0  0
   -3.7990   -0.6850   -2.6130 C   0  0  0  0  0  0  0  0  0  0  0  0
   -4.6310    0.1770   -0.4510 C   0  0  0  0  0  0  0  0  0  0  0  0
   -5.9250   -0.4450   -0.8170 C   0  0  0  0  0  0  0  0  0  0  0  0
   -4.6780    0.9830    0.6230 C   0  0  0  0  0  0  0  0  0  0  0  0
   -3.5890    1.7130    1.2030 N   0  0  0  0  0  0  0  0  0  0  0  0
  1  2  1  0
  2  3  1  0
  4  3  1  6
  4  5  2  0
  4  6  2  0
  4  7  1  0
  7  8  2  0
  7 16  1  0
  8  9  1  0
  9 10  2  0
  9 14  1  0
 10 11  1  0
 11 12  2  0
 12 13  1  0
 12 24  1  0
 13 14  2  0
 13 18  1  0
 14 15  1  0
 15 16  1  0
 16 17  2  0
 18 19  2  0
 19 20  1  0
 19 21  1  0
 21 22  1  0
 21 23  2  0
 23 24  1  0
M  END
