
     RDKit          3D

 24 26  0  0  0  0  0  0  0  0999 V2000
    5.1400   -1.7330    0.4300 C   0  0  0  0  0  0  0  0  0  0  0  0
    4.6390   -0.8550   -0.5860 O   0  0  0  0  0  0  0  0  0  0  0  0
    3.3570   -0.3640   -0.3900 C   0  0  0  0  0  0  0  0  0  0  0  0
    2.8470    0.4830   -1.3490 C   0  0  0  0  0  0  0  0  0  0  0  0
    1.5590    1.0150   -1.2130 C   0  0  0  0  0  0  0  0  0  0  0  0
    0.7880    0.6930   -0.1140 C   0  0  0  0  0  0  0  0  0  0  0  0
   -0.5470    1.2920   -0.0510 C   0  0  0  0  0  0  0  0  0  0  0  0
   -0.8460    2.9670    0.0070 S   0  0  0  0  0  0  0  0  0  0  0  0
   -2.4940    3.3870    0.0770 C   0  0  0  0  0  0  0  0  0  0  0  0
   -3.0230    4.7790    0.1340 C   0  0  0  0  0  0  0  0  0  0  0  0
   -3.3460    2.3130    0.0770 C   0  0  0  0  0  0  0  0  0  0  0  0
   -2.9690    0.9990    0.0270 C   0  0  0  0  0  0  0  0  0  0  0  0
   -3.9240    0.1450    0.0360 O   0  0  0  0  0  0  0  0  0  0  0  0
   -1.6930    0.5030   -0.0320 C   0  0  0  0  0  0  0  0  0  0  0  0
   -1.4500   -0.9360   -0.0810 C   0  0  0  0  0  0  0  0  0  0  0  0
   -0.8430   -1.5460   -1.1470 C   0  0  0  0  0  0  0  0  0  0  0  0
   -0.6740   -2.8870   -1.0740 N   0  0  0  0  0  0  0  0  0  0  0  0
   -1.0710   -3.6180   -0.0180 C   0  0  0  0  0  0  0  0  0  0  0  0
   -0.8770   -4.8790   -0.0210 O   0  0  0  0  0  0  0  0  0  0  0  0
   -1.6670   -3.0370    1.0350 N   0  0  0  0  0  0  0  0  0  0  0  0
   -1.8470   -1.7030    0.9860 C   0  0  0  0  0  0  0  0  0  0  0  0
   -2.4050   -1.1610    1.9750 O   0  0  0  0  0  0  0  0  0  0  0  0
    1.2820   -0.1420    0.8380 C   0  0  0  0  0  0  0  0  0  0  0  0
    2.5620   -0.6660    0.6960 C   0  0  0  0  0  0  0  0  0  0  0  0
  1  2  1  0
  2  3  1  0
  3  4  2  0
  3 24  1  0
  4  5  1  0
  5  6  2  0
  6  7  1  0
  6 23  1  0
  7  8  1  0
  7 14  2  0
  8  9  1  0
  9 10  1  0
  9 11  2  0
 11 12  1  0
 12 13  2  0
 12 14  1  0
 14 15  1  0
 15 16  2  0
 15 21  1  0
 16 17  1  0
 17 18  1  0
 18 19  2  0
 18 20  1  0
 20 21  1  0
 21 22  2  0
 23 24  2  0
M  END
