
     RDKit          3D

 23 26  0  0  0  0  0  0  0  0999 V2000
   -3.8480   -1.0640   -1.9830 O   0  0  0  0  0  0  0  0  0  0  0  0
   -3.1880   -0.4510   -1.1140 C   0  0  0  0  0  0  0  0  0  0  0  0
   -3.3790    0.9060   -0.8900 O   0  0  0  0  0  0  0  0  0  0  0  0
   -2.6350    1.8180   -0.1290 C   0  0  0  0  0  0  0  0  0  0  0  0
   -3.3390    2.9790    0.0720 C   0  0  0  0  0  0  0  0  0  0  0  0
   -2.7180    3.9860    0.8180 C   0  0  0  0  0  0  0  0  0  0  0  0
   -1.4500    3.8090    1.3260 C   0  0  0  0  0  0  0  0  0  0  0  0
   -0.7630    2.6370    1.1120 C   0  0  0  0  0  0  0  0  0  0  0  0
   -1.3500    1.6640    0.3960 C   0  0  0  0  0  0  0  0  0  0  0  0
   -0.4730    0.4640    0.2080 C   0  0  0  0  0  0  0  0  0  0  0  0
    0.7670    0.6580    0.0800 C   0  0  0  0  0  0  0  0  0  0  0  0
    1.9440   -0.1940   -0.1380 C   0  0  0  0  0  0  0  0  0  0  0  0
    1.9560   -1.4310   -0.3220 N   0  0  0  0  0  0  0  0  0  0  0  0
    3.0580   -2.2410   -0.5270 C   0  0  0  0  0  0  0  0  0  0  0  0
    4.2480   -1.6910   -0.5380 C   0  0  0  0  0  0  0  0  0  0  0  0
    4.4230   -0.3240   -0.3490 N   0  0  0  0  0  0  0  0  0  0  0  0
    3.3010    0.4740   -0.1440 C   0  0  0  0  0  0  0  0  0  0  0  0
   -1.0660   -0.8660    0.2420 C   0  0  0  0  0  0  0  0  0  0  0  0
   -0.3140   -1.7550    0.9780 C   0  0  0  0  0  0  0  0  0  0  0  0
   -0.6980   -3.0480    1.0810 C   0  0  0  0  0  0  0  0  0  0  0  0
   -1.8690   -3.4680    0.4360 C   0  0  0  0  0  0  0  0  0  0  0  0
   -2.6430   -2.5910   -0.3030 C   0  0  0  0  0  0  0  0  0  0  0  0
   -2.2270   -1.3000   -0.3860 C   0  0  0  0  0  0  0  0  0  0  0  0
  1  2  2  0
  2  3  1  0
  2 23  1  0
  3  4  1  0
  4  5  2  0
  4  9  1  0
  5  6  1  0
  6  7  2  0
  7  8  1  0
  8  9  2  0
  9 10  1  0
 10 11  2  3
 10 18  1  0
 11 12  1  0
 12 13  2  0
 12 17  1  0
 13 14  1  0
 14 15  2  0
 15 16  1  0
 16 17  1  0
 18 19  2  0
 18 23  1  0
 19 20  1  0
 20 21  2  0
 21 22  1  0
 22 23  2  0
M  CHG  1  16   1
M  END
