
     RDKit          3D

 24 26  0  0  0  0  0  0  0  0999 V2000
   -6.5290    1.6520    0.0520 C   0  0  0  0  0  0  0  0  0  0  0  0
   -6.8860    0.4610    0.9110 C   0  0  0  0  0  0  0  0  0  0  0  0
   -5.8490   -0.5910    0.6640 C   0  0  0  0  0  0  0  0  0  0  0  0
   -5.0240   -0.8430    1.5650 O   0  0  0  0  0  0  0  0  0  0  0  0
   -5.8260   -1.2530   -0.5450 O   0  0  0  0  0  0  0  0  0  0  0  0
   -4.8680   -2.2600   -0.8380 C   0  0  0  0  0  0  0  0  0  0  0  0
   -3.4850   -1.6780   -0.7090 C   0  0  0  0  0  0  0  0  0  0  0  0
   -3.3170   -0.4480   -0.4010 O   0  0  0  0  0  0  0  0  0  0  0  0
   -2.3150   -2.4560   -0.9230 N   0  0  0  0  0  0  0  0  0  0  0  0
   -1.0690   -1.8570   -0.8020 N   0  0  0  0  0  0  0  0  0  0  0  0
   -0.3860   -1.5020    0.3550 C   0  0  0  0  0  0  0  0  0  0  0  0
   -0.8340   -1.6940    1.5010 O   0  0  0  0  0  0  0  0  0  0  0  0
    0.9560   -0.8590    0.3070 C   0  0  0  0  0  0  0  0  0  0  0  0
    1.6520   -0.4850   -0.7580 C   0  0  0  0  0  0  0  0  0  0  0  0
    2.8670    0.1090   -0.5890 C   0  0  0  0  0  0  0  0  0  0  0  0
    3.2840    0.2730    0.7140 C   0  0  0  0  0  0  0  0  0  0  0  0
    1.9550   -0.4070    1.6530 S   0  0  0  0  0  0  0  0  0  0  0  0
    4.6130    0.8340    1.0800 C   0  0  0  0  0  0  0  0  0  0  0  0
    5.1500    1.0630    2.2630 C   0  0  0  0  0  0  0  0  0  0  0  0
    6.4950    1.6320    2.0330 C   0  0  0  0  0  0  0  0  0  0  0  0
    6.6480    1.6970    0.5650 C   0  0  0  0  0  0  0  0  0  0  0  0
    5.5200    1.2190    0.0350 C   0  0  0  0  0  0  0  0  0  0  0  0
    5.1160    1.0340   -1.3620 C   0  0  0  0  0  0  0  0  0  0  0  0
    3.7620    0.6660   -1.6790 C   0  0  0  0  0  0  0  0  0  0  0  0
  1  2  1  0
  2  3  1  0
  3  4  2  0
  3  5  1  0
  5  6  1  0
  6  7  1  0
  7  8  2  0
  7  9  1  0
  9 10  1  0
 10 11  1  0
 11 12  2  0
 11 13  1  0
 13 14  2  0
 13 17  1  0
 14 15  1  0
 15 16  2  0
 15 24  1  0
 16 17  1  0
 16 18  1  0
 18 19  2  0
 18 22  1  0
 19 20  1  0
 20 21  1  0
 21 22  2  0
 22 23  1  0
 23 24  1  0
M  END
