
     RDKit          3D

 39 42  0  0  0  0  0  0  0  0999 V2000
   -7.3280    1.9650    1.5320 C   0  0  0  0  0  0  0  0  0  0  0  0
   -6.7830    1.1660    0.5220 O   0  0  0  0  0  0  0  0  0  0  0  0
   -5.6670    1.7170   -0.0310 C   0  0  0  0  0  0  0  0  0  0  0  0
   -4.4570    1.8520    0.8180 C   0  0  0  0  0  0  0  0  0  0  0  0
   -3.8710    0.7240    1.3230 O   0  0  0  0  0  0  0  0  0  0  0  0
   -4.2670   -0.2700    2.1270 C   0  0  0  0  0  0  0  0  0  0  0  0
   -5.4170   -0.2850    2.5890 O   0  0  0  0  0  0  0  0  0  0  0  0
   -3.3720   -1.3970    2.5120 C   0  0  0  0  0  0  0  0  0  0  0  0
   -2.1150   -1.2000    1.8630 O   0  0  0  0  0  0  0  0  0  0  0  0
   -2.0320   -1.1590    0.4570 C   0  0  0  0  0  0  0  0  0  0  0  0
   -3.0800   -1.3010   -0.1370 O   0  0  0  0  0  0  0  0  0  0  0  0
   -0.6670   -0.9460   -0.0910 C   0  0  0  0  0  0  0  0  0  0  0  0
   -0.4140   -0.8840   -1.3800 C   0  0  0  0  0  0  0  0  0  0  0  0
   -1.4840   -1.0290   -2.3330 N   0  0  0  0  0  0  0  0  0  0  0  0
   -1.1860   -0.9050   -3.7160 C   0  0  0  0  0  0  0  0  0  0  0  0
   -2.0450   -1.2500   -4.5600 O   0  0  0  0  0  0  0  0  0  0  0  0
    0.1060   -0.3830   -4.2060 C   0  0  0  0  0  0  0  0  0  0  0  0
    1.1870   -0.5620   -3.2320 C   0  0  0  0  0  0  0  0  0  0  0  0
    2.4050   -0.6700   -3.6080 O   0  0  0  0  0  0  0  0  0  0  0  0
    0.9140   -0.6210   -1.8380 N   0  0  0  0  0  0  0  0  0  0  0  0
    1.9830   -0.4180   -0.9030 C   0  0  0  0  0  0  0  0  0  0  0  0
    3.1610   -0.5960   -1.1860 O   0  0  0  0  0  0  0  0  0  0  0  0
    1.6030    0.0330    0.4840 C   0  0  2  0  0  0  0  0  0  0  0  0
    2.6510   -0.4630    1.5060 C   0  0  2  0  0  0  0  0  0  0  0  0
    3.9400    0.1490    1.2980 C   0  0  0  0  0  0  0  0  0  0  0  0
    4.1560    1.2670    0.6060 C   0  0  0  0  0  0  0  0  0  0  0  0
    5.4710    1.8130    0.4430 C   0  0  0  0  0  0  0  0  0  0  0  0
    5.7900    2.8900   -0.2070 C   0  0  0  0  0  0  0  0  0  0  0  0
    4.8060    3.7320   -0.8950 C   0  0  0  0  0  0  0  0  0  0  0  0
    4.8130    5.4220   -0.2200 S   0  0  0  0  0  0  0  0  0  0  0  0
    2.5080   -1.9160    1.3260 C   0  0  0  0  0  0  0  0  0  0  0  0
    3.4010   -2.9560    1.4660 C   0  0  0  0  0  0  0  0  0  0  0  0
    5.0790   -2.6840    1.9520 Cl  0  0  0  0  0  0  0  0  0  0  0  0
    2.9680   -4.2560    1.2250 C   0  0  0  0  0  0  0  0  0  0  0  0
    1.6720   -4.5380    0.8500 C   0  0  0  0  0  0  0  0  0  0  0  0
    1.1860   -6.1920    0.5610 Cl  0  0  0  0  0  0  0  0  0  0  0  0
    0.8070   -3.4670    0.7210 C   0  0  0  0  0  0  0  0  0  0  0  0
    1.1820   -2.1720    0.9460 C   0  0  0  0  0  0  0  0  0  0  0  0
    0.4570   -0.8520    0.8800 C   0  0  2  0  0  0  0  0  0  0  0  0
  1  2  1  0
  2  3  1  0
  3  4  1  0
  4  5  1  0
  5  6  1  0
  6  7  2  0
  6  8  1  0
  8  9  1  0
  9 10  1  0
 10 11  2  0
 10 12  1  0
 12 13  2  0
 39 12  1  6
 13 14  1  0
 13 20  1  0
 14 15  1  0
 15 16  2  0
 15 17  1  0
 17 18  1  0
 18 19  2  0
 18 20  1  0
 20 21  1  0
 21 22  2  0
 23 21  1  6
 23 24  1  0
 23 39  1  0
 24 25  1  6
 24 31  1  0
 25 26  2  3
 26 27  1  0
 27 28  2  3
 28 29  1  0
 29 30  1  0
 31 32  2  0
 31 38  1  0
 32 33  1  0
 32 34  1  0
 34 35  2  0
 35 36  1  0
 35 37  1  0
 37 38  2  0
 38 39  1  0
M  END
