
     RDKit          3D

 39 42  0  0  0  0  0  0  0  0999 V2000
   -8.3360   -0.9130   -1.1850 C   0  0  0  0  0  0  0  0  0  0  0  0
   -7.5550   -0.5660    0.0780 C   0  0  2  0  0  0  0  0  0  0  0  0
   -7.8470    0.8620    0.4810 C   0  0  0  0  0  0  0  0  0  0  0  0
   -6.0890   -0.6240   -0.3040 C   0  0  0  0  0  0  0  0  0  0  0  0
   -5.3010   -1.0000    0.9340 C   0  0  2  0  0  0  0  0  0  0  0  0
   -3.8400   -0.8190    0.7170 C   0  0  0  0  0  0  0  0  0  0  0  0
   -3.1370   -1.8500    0.8390 O   0  0  0  0  0  0  0  0  0  0  0  0
   -3.3150    0.4860    0.3880 C   0  0  0  0  0  0  0  0  0  0  0  0
   -2.0180    0.7310    0.1810 C   0  0  0  0  0  0  0  0  0  0  0  0
   -1.5970    2.0150   -0.1320 O   0  0  0  0  0  0  0  0  0  0  0  0
   -0.3780    2.2270   -0.6910 C   0  0  0  0  0  0  0  0  0  0  0  0
   -0.1110    2.9270   -1.7800 C   0  0  0  0  0  0  0  0  0  0  0  0
    1.1940    3.1380   -2.3530 C   0  0  0  0  0  0  0  0  0  0  0  0
    2.3040    2.6110   -1.7780 C   0  0  0  0  0  0  0  0  0  0  0  0
    3.6060    2.7990   -2.3430 C   0  0  0  0  0  0  0  0  0  0  0  0
    3.5780    3.9900   -3.7810 Cl  0  0  0  0  0  0  0  0  0  0  0  0
    4.7590    2.3750   -2.1170 C   0  0  0  0  0  0  0  0  0  0  0  0
    5.5480    1.5370   -1.3280 C   0  0  0  0  0  0  0  0  0  0  0  0
    6.8810    1.7800   -1.5370 O   0  0  0  0  0  0  0  0  0  0  0  0
    5.3500    0.5280   -0.4150 N   0  0  0  0  0  0  0  0  0  0  0  0
    4.2260   -0.2400    0.0260 C   0  0  0  0  0  0  0  0  0  0  0  0
    4.8180   -1.6730    0.1310 C   0  0  0  0  0  0  0  0  0  0  0  0
    6.2860   -1.4900    0.3260 C   0  0  2  0  0  0  0  0  0  0  0  0
    6.9900   -1.9800   -0.7750 O   0  0  0  0  0  0  0  0  0  0  0  0
    6.7990   -2.1360    1.6060 C   0  0  0  0  0  0  0  0  0  0  0  0
    8.2920   -1.8600    1.6530 C   0  0  0  0  0  0  0  0  0  0  0  0
    9.0350   -2.5960    0.1930 Cl  0  0  0  0  0  0  0  0  0  0  0  0
    6.4950   -0.0040    0.4100 C   0  0  0  0  0  0  0  0  0  0  0  0
    2.0230    2.1760   -0.3950 C   0  0  0  0  0  0  0  0  0  0  0  0
    2.9520    2.3790    0.4470 O   0  0  0  0  0  0  0  0  0  0  0  0
    0.7850    1.5670    0.0430 C   0  0  1  0  0  0  0  0  0  0  0  0
    0.5620    2.0020    1.5010 C   0  0  0  0  0  0  0  0  0  0  0  0
    0.7330    0.1580   -0.1040 N   0  0  0  0  0  0  0  0  0  0  0  0
   -0.8190   -0.5160    0.2910 S   0  0  2  0  0  0  0  0  0  0  0  0
   -1.1060   -1.5320   -0.7880 O   0  0  0  0  0  0  0  0  0  0  0  0
   -0.7820   -1.1470    1.6570 O   0  0  0  0  0  0  0  0  0  0  0  0
   -5.6610   -2.4240    1.2900 C   0  0  0  0  0  0  0  0  0  0  0  0
   -7.1440   -2.6170    1.0190 C   0  0  0  0  0  0  0  0  0  0  0  0
   -7.8500   -1.4370    1.1030 O   0  0  0  0  0  0  0  0  0  0  0  0
  2  1  1  6
  2  3  1  0
  2  4  1  0
  2 39  1  0
  4  5  1  0
  5  6  1  6
  5 37  1  0
  6  7  2  0
  6  8  1  0
  8  9  2  3
  9 10  1  0
  9 34  1  0
 10 11  1  0
 11 12  2  0
 11 31  1  0
 12 13  1  0
 13 14  2  0
 14 15  1  0
 14 29  1  0
 15 16  1  0
 15 17  2  3
 17 18  1  0
 18 19  2  0
 18 20  1  0
 20 21  1  0
 20 28  1  0
 21 22  1  0
 22 23  1  0
 23 24  1  6
 23 25  1  0
 23 28  1  0
 25 26  1  0
 26 27  1  0
 29 30  2  0
 29 31  1  0
 31 32  1  1
 31 33  1  0
 34 33  1  6
 34 35  2  0
 34 36  2  0
 37 38  1  0
 38 39  1  0
M  END
