
     RDKit          3D

 39 42  0  0  0  0  0  0  0  0999 V2000
    5.5430   -2.1330    3.5190 C   0  0  0  0  0  0  0  0  0  0  0  0
    4.5360   -2.2790    2.5490 O   0  0  0  0  0  0  0  0  0  0  0  0
    4.8350   -2.1760    1.1650 C   0  0  0  0  0  0  0  0  0  0  0  0
    4.1720   -2.9040    0.3100 C   0  0  0  0  0  0  0  0  0  0  0  0
    2.9090   -3.9990    0.9150 Cl  0  0  0  0  0  0  0  0  0  0  0  0
    4.4590   -2.9410   -1.4030 Cl  0  0  0  0  0  0  0  0  0  0  0  0
    5.8870   -1.2250    0.8470 C   0  0  0  0  0  0  0  0  0  0  0  0
    7.1320   -1.3060    1.3310 O   0  0  0  0  0  0  0  0  0  0  0  0
    7.8760   -0.3320    0.9000 C   0  0  0  0  0  0  0  0  0  0  0  0
    9.3280   -0.1000    1.2330 C   0  0  0  0  0  0  0  0  0  0  0  0
    7.0900    0.4460    0.0850 C   0  0  0  0  0  0  0  0  0  0  0  0
    7.4970    1.6740   -0.6400 C   0  0  0  0  0  0  0  0  0  0  0  0
    5.8030   -0.1190    0.0420 C   0  0  0  0  0  0  0  0  0  0  0  0
    4.7020    0.4610   -0.7150 C   0  0  0  0  0  0  0  0  0  0  0  0
    3.9170    1.3140   -0.1590 O   0  0  0  0  0  0  0  0  0  0  0  0
    4.3870    0.1900   -2.0300 O   0  0  0  0  0  0  0  0  0  0  0  0
    3.3060    0.7920   -2.7000 C   0  0  0  0  0  0  0  0  0  0  0  0
    1.9890    0.5010   -2.0720 C   0  0  0  0  0  0  0  0  0  0  0  0
    2.0220   -0.2530   -1.0680 O   0  0  0  0  0  0  0  0  0  0  0  0
    0.8320    1.0710   -2.6260 N   0  0  0  0  0  0  0  0  0  0  0  0
    0.7980    1.9370   -3.7830 C   0  0  0  0  0  0  0  0  0  0  0  0
   -0.5700    1.6970   -4.3200 C   0  0  0  0  0  0  0  0  0  0  0  0
   -1.0810    2.1960   -5.3770 O   0  0  0  0  0  0  0  0  0  0  0  0
   -1.2340    0.7940   -3.4320 N   0  0  0  0  0  0  0  0  0  0  0  0
   -0.5050    0.9230   -2.1810 C   0  0  1  0  0  0  0  0  0  0  0  0
   -0.7770   -0.2330   -1.2540 C   0  0  0  0  0  0  0  0  0  0  0  0
   -2.2290    0.0450   -0.8690 C   0  0  0  0  0  0  0  0  0  0  0  0
   -2.4690    1.5100   -1.0190 C   0  0  1  0  0  0  0  0  0  0  0  0
   -3.1110    2.2840    0.4130 S   0  0  0  0  0  0  0  0  0  0  0  0
   -4.7460    2.1070    0.9530 C   0  0  0  0  0  0  0  0  0  0  0  0
   -5.2520    0.7870    1.4270 C   0  0  2  0  0  0  0  0  0  0  0  0
   -4.4720    0.3060    2.4650 O   0  0  0  0  0  0  0  0  0  0  0  0
   -5.5720   -0.2290    0.4160 C   0  0  0  0  0  0  0  0  0  0  0  0
   -6.2850   -1.3220    0.9210 O   0  0  0  0  0  0  0  0  0  0  0  0
   -7.5050   -1.0380    1.4510 C   0  0  2  0  0  0  0  0  0  0  0  0
   -7.8410   -1.6940    2.7700 C   0  0  0  0  0  0  0  0  0  0  0  0
   -9.1240   -2.2710    2.1860 C   0  0  0  0  0  0  0  0  0  0  0  0
   -8.5480   -1.9770    0.8190 C   0  0  0  0  0  0  0  0  0  0  0  0
   -1.0810    2.0630   -1.4070 C   0  0  0  0  0  0  0  0  0  0  0  0
  1  2  1  0
  2  3  1  0
  3  4  2  3
  3  7  1  0
  4  5  1  0
  4  6  1  0
  7  8  1  0
  7 13  2  0
  8  9  1  0
  9 10  1  0
  9 11  2  0
 11 12  1  0
 11 13  1  0
 13 14  1  0
 14 15  2  0
 14 16  1  0
 16 17  1  0
 17 18  1  0
 18 19  2  0
 18 20  1  0
 20 21  1  0
 20 25  1  0
 21 22  1  0
 22 23  2  0
 22 24  1  0
 24 25  1  0
 25 26  1  1
 25 39  1  0
 26 27  1  0
 27 28  1  0
 28 29  1  1
 28 39  1  0
 29 30  1  0
 30 31  1  0
 31 32  1  1
 31 33  1  0
 33 34  1  0
 35 34  1  6
 35 36  1  0
 35 38  1  0
 36 37  1  0
 37 38  1  0
M  END
