
     RDKit          3D

 30 34  0  0  0  0  0  0  0  0999 V2000
   -2.1290    1.0950    3.4770 C   0  0  0  0  0  0  0  0  0  0  0  0
   -0.9020    1.0210    2.7830 O   0  0  0  0  0  0  0  0  0  0  0  0
   -0.8150    0.7170    1.4380 C   0  0  0  0  0  0  0  0  0  0  0  0
   -2.0150    0.4770    0.7630 C   0  0  0  0  0  0  0  0  0  0  0  0
   -2.0000    0.1690   -0.5780 C   0  0  0  0  0  0  0  0  0  0  0  0
   -3.2400   -0.0850   -1.3020 C   0  0  0  0  0  0  0  0  0  0  0  0
   -3.2750   -0.3880   -2.6000 N   0  0  0  0  0  0  0  0  0  0  0  0
   -4.4040   -0.6200   -3.2650 C   0  0  0  0  0  0  0  0  0  0  0  0
   -5.5690   -0.5470   -2.5980 N   0  0  0  0  0  0  0  0  0  0  0  0
   -5.6070   -0.2510   -1.3050 C   0  0  0  0  0  0  0  0  0  0  0  0
   -6.8720   -0.1580   -0.5200 C   0  0  1  0  0  0  0  0  0  0  0  0
   -6.8660   -0.4060    0.9390 C   0  0  0  0  0  0  0  0  0  0  0  0
   -6.9180    0.9980    0.4970 C   0  0  0  0  0  0  0  0  0  0  0  0
   -4.4450   -0.0220   -0.6660 N   0  0  0  0  0  0  0  0  0  0  0  0
   -0.8060    0.0950   -1.2580 C   0  0  0  0  0  0  0  0  0  0  0  0
    0.3890    0.3380   -0.5660 C   0  0  0  0  0  0  0  0  0  0  0  0
    0.3790    0.6460    0.7700 C   0  0  0  0  0  0  0  0  0  0  0  0
    1.5550    0.8810    1.4350 O   0  0  0  0  0  0  0  0  0  0  0  0
    2.7980    0.8240    0.8080 C   0  0  0  0  0  0  0  0  0  0  0  0
    3.3150    1.9740    0.2350 C   0  0  0  0  0  0  0  0  0  0  0  0
    4.5350    2.0000   -0.4020 C   0  0  0  0  0  0  0  0  0  0  0  0
    5.2640    0.8240   -0.4670 C   0  0  0  0  0  0  0  0  0  0  0  0
    6.4800    0.8110   -1.0920 C   0  0  0  0  0  0  0  0  0  0  0  0
    7.1720   -0.3410   -1.1440 N   0  0  0  0  0  0  0  0  0  0  0  0
    6.6730   -1.4390   -0.5940 N   0  0  0  0  0  0  0  0  0  0  0  0
    7.4490   -2.6570   -0.6720 C   0  0  0  0  0  0  0  0  0  0  0  0
    5.4900   -1.4700    0.0260 C   0  0  0  0  0  0  0  0  0  0  0  0
    5.0070   -2.5110    0.5520 O   0  0  0  0  0  0  0  0  0  0  0  0
    4.7510   -0.3210    0.1020 C   0  0  0  0  0  0  0  0  0  0  0  0
    3.5260   -0.3230    0.7360 C   0  0  0  0  0  0  0  0  0  0  0  0
  1  2  1  0
  2  3  1  0
  3  4  2  0
  3 17  1  0
  4  5  1  0
  5  6  1  0
  5 15  2  0
  6  7  2  0
  6 14  1  0
  7  8  1  0
  8  9  2  0
  9 10  1  0
 11 10  1  1
 10 14  2  0
 11 12  1  0
 11 13  1  0
 12 13  1  0
 15 16  1  0
 16 17  2  0
 17 18  1  0
 18 19  1  0
 19 20  2  0
 19 30  1  0
 20 21  1  0
 21 22  2  0
 22 23  1  0
 22 29  1  0
 23 24  2  0
 24 25  1  0
 25 26  1  0
 25 27  1  0
 27 28  2  0
 27 29  1  0
 29 30  2  0
M  END
