
     RDKit          3D

 29 31  0  0  0  0  0  0  0  0999 V2000
   -5.4830    0.0180    1.3560 C   0  0  0  0  0  0  0  0  0  0  0  0
   -4.2860   -0.7690    0.8070 C   0  0  1  0  0  0  0  0  0  0  0  0
   -3.6750   -1.5090    1.9780 C   0  0  0  0  0  0  0  0  0  0  0  0
   -4.8150   -1.7350   -0.0660 O   0  0  0  0  0  0  0  0  0  0  0  0
   -4.3370   -2.0960   -1.2920 C   0  0  0  0  0  0  0  0  0  0  0  0
   -4.0430   -3.3090   -1.5680 O   0  0  0  0  0  0  0  0  0  0  0  0
   -4.1490   -1.0650   -2.3440 C   0  0  0  0  0  0  0  0  0  0  0  0
   -3.7720    0.5040   -1.5620 S   0  0  0  0  0  0  0  0  0  0  0  0
   -3.3440    0.2000    0.1800 C   0  0  2  0  0  0  0  0  0  0  0  0
   -1.9090   -0.2090    0.2490 C   0  0  0  0  0  0  0  0  0  0  0  0
   -1.0860    0.8620   -0.4210 C   0  0  0  0  0  0  0  0  0  0  0  0
   -1.6960    1.8390   -0.8870 O   0  0  0  0  0  0  0  0  0  0  0  0
    0.3160    0.7400   -0.5040 N   0  0  0  0  0  0  0  0  0  0  0  0
    1.1980    1.6560   -1.0960 C   0  0  0  0  0  0  0  0  0  0  0  0
    0.8230    2.8540   -1.7090 C   0  0  0  0  0  0  0  0  0  0  0  0
    1.7660    3.6890   -2.2630 C   0  0  0  0  0  0  0  0  0  0  0  0
    3.0770    3.3710   -2.2290 C   0  0  0  0  0  0  0  0  0  0  0  0
    3.4420    2.1920   -1.6270 C   0  0  0  0  0  0  0  0  0  0  0  0
    2.5510    1.3320   -1.0640 C   0  0  0  0  0  0  0  0  0  0  0  0
    2.9890    0.0740   -0.4250 N   0  0  0  0  0  0  0  0  0  0  0  0
    2.7700   -1.1160   -1.0380 C   0  0  0  0  0  0  0  0  0  0  0  0
    2.2030   -1.4000   -2.1750 O   0  0  0  0  0  0  0  0  0  0  0  0
    3.4700   -2.3320    0.1130 S   0  0  0  0  0  0  0  0  0  0  0  0
    3.9720   -1.1020    1.2780 N   0  0  0  0  0  0  0  0  0  0  0  0
    4.6470   -1.3770    2.5370 C   0  0  0  0  0  0  0  0  0  0  0  0
    6.1400   -1.3490    2.2510 C   0  0  0  0  0  0  0  0  0  0  0  0
    6.9750   -1.6880    3.8040 Cl  0  0  0  0  0  0  0  0  0  0  0  0
    3.5940    0.0260    0.7310 C   0  0  0  0  0  0  0  0  0  0  0  0
    3.8380    1.1330    1.3810 O   0  0  0  0  0  0  0  0  0  0  0  0
  2  1  1  1
  2  3  1  0
  2  4  1  0
  2  9  1  0
  4  5  1  0
  5  6  2  0
  5  7  1  0
  7  8  1  0
  8  9  1  0
  9 10  1  6
 10 11  1  0
 11 12  2  0
 11 13  1  0
 13 14  1  0
 14 15  2  0
 14 19  1  0
 15 16  1  0
 16 17  2  0
 17 18  1  0
 18 19  2  0
 19 20  1  0
 20 21  1  0
 20 28  1  0
 21 22  2  0
 21 23  1  0
 23 24  1  0
 24 25  1  0
 24 28  1  0
 25 26  1  0
 26 27  1  0
 28 29  2  0
M  END
