
     RDKit          3D

 37 41  0  0  0  0  0  0  0  0999 V2000
    2.1860    2.5410    0.8550 O   0  0  0  0  0  0  0  0  0  0  0  0
    1.6600    1.6730   -0.0090 C   0  0  0  0  0  0  0  0  0  0  0  0
    2.6470    0.9110   -0.6870 C   0  0  0  0  0  0  0  0  0  0  0  0
    3.9730    1.3850   -0.7130 C   0  0  0  0  0  0  0  0  0  0  0  0
    4.9780    0.6690   -1.2820 C   0  0  0  0  0  0  0  0  0  0  0  0
    4.7320   -0.5570   -1.8580 C   0  0  0  0  0  0  0  0  0  0  0  0
    5.8050   -1.3110   -2.4550 N   0  0  0  0  0  0  0  0  0  0  0  0
    7.1570   -0.8770   -2.4020 C   0  0  0  0  0  0  0  0  0  0  0  0
    7.7140   -0.7910   -1.0400 C   0  0  0  0  0  0  0  0  0  0  0  0
    7.0130   -1.3030    0.0310 C   0  0  0  0  0  0  0  0  0  0  0  0
    7.5840   -1.1930    1.2820 C   0  0  0  0  0  0  0  0  0  0  0  0
    8.7900   -0.5990    1.4300 N   0  0  0  0  0  0  0  0  0  0  0  0
    9.4840   -0.0950    0.3940 C   0  0  0  0  0  0  0  0  0  0  0  0
    8.9510   -0.1830   -0.8770 C   0  0  0  0  0  0  0  0  0  0  0  0
    3.4540   -1.0220   -1.8350 C   0  0  0  0  0  0  0  0  0  0  0  0
    2.4140   -0.3110   -1.2610 C   0  0  0  0  0  0  0  0  0  0  0  0
    0.2830    1.6780   -0.0820 N   0  0  0  0  0  0  0  0  0  0  0  0
   -0.5670    0.9640   -0.9540 C   0  0  0  0  0  0  0  0  0  0  0  0
   -1.4720    0.0270   -0.1380 C   0  0  0  0  0  0  0  0  0  0  0  0
   -2.2210    0.8260    0.8240 N   0  0  0  0  0  0  0  0  0  0  0  0
   -3.6320    0.5980    0.7250 C   0  0  0  0  0  0  0  0  0  0  0  0
   -4.0390   -0.7130    1.2510 C   0  0  0  0  0  0  0  0  0  0  0  0
   -3.1560   -1.5480    1.8780 C   0  0  0  0  0  0  0  0  0  0  0  0
   -3.5660   -2.7690    2.4070 C   0  0  0  0  0  0  0  0  0  0  0  0
   -4.8740   -3.1180    2.2870 C   0  0  0  0  0  0  0  0  0  0  0  0
   -5.7820   -2.2720    1.6500 C   0  0  0  0  0  0  0  0  0  0  0  0
   -5.4090   -1.0760    1.1250 C   0  0  0  0  0  0  0  0  0  0  0  0
   -6.2560   -0.1630    0.4710 N   0  0  0  0  0  0  0  0  0  0  0  0
   -7.6420   -0.3440    0.2390 C   0  0  0  0  0  0  0  0  0  0  0  0
   -8.3410   -1.4190    0.6150 N   0  0  0  0  0  0  0  0  0  0  0  0
   -9.6060   -1.5870    0.4040 N   0  0  0  0  0  0  0  0  0  0  0  0
  -10.2790   -0.6040   -0.2450 C   0  0  0  0  0  0  0  0  0  0  0  0
   -9.6490    0.5350   -0.6680 C   0  0  0  0  0  0  0  0  0  0  0  0
   -8.3060    0.7020   -0.4390 C   0  0  0  0  0  0  0  0  0  0  0  0
   -7.4810    2.1340   -0.9640 Cl  0  0  0  0  0  0  0  0  0  0  0  0
   -1.9150    2.2440    0.7160 C   0  0  0  0  0  0  0  0  0  0  0  0
   -0.4680    2.4910    0.9430 C   0  0  0  0  0  0  0  0  0  0  0  0
  1  2  2  0
  2  3  1  0
  2 17  1  0
  3  4  2  0
  3 16  1  0
  4  5  1  0
  5  6  2  0
  6  7  1  0
  6 15  1  0
  7  8  1  0
  8  9  1  0
  9 10  2  0
  9 14  1  0
 10 11  1  0
 11 12  2  0
 12 13  1  0
 13 14  2  0
 15 16  2  0
 17 18  1  0
 17 37  1  0
 18 19  1  0
 19 20  1  0
 20 21  1  0
 20 36  1  0
 21 22  1  0
 22 23  2  0
 22 27  1  0
 23 24  1  0
 24 25  2  0
 25 26  1  0
 26 27  2  0
 27 28  1  0
 28 29  1  0
 29 30  2  0
 29 34  1  0
 30 31  1  0
 31 32  2  0
 32 33  1  0
 33 34  2  0
 34 35  1  0
 36 37  1  0
M  CHG  1  12   1
M  END
