
     RDKit          3D

 37 41  0  0  0  0  0  0  0  0999 V2000
    6.6030   -0.0490   -1.1080 C   0  0  0  0  0  0  0  0  0  0  0  0
    7.1170   -1.1440   -0.2530 C   0  0  0  0  0  0  0  0  0  0  0  0
    8.5140   -1.3840    0.0450 C   0  0  0  0  0  0  0  0  0  0  0  0
    9.5170   -0.7270   -0.3520 N   0  0  0  0  0  0  0  0  0  0  0  0
    9.5360    0.3970   -1.1800 C   0  0  0  0  0  0  0  0  0  0  0  0
    9.2540    1.7090   -0.8520 C   0  0  0  0  0  0  0  0  0  0  0  0
    9.4130    2.4420   -2.0040 C   0  0  0  0  0  0  0  0  0  0  0  0
    9.7800    1.5650   -2.9750 N   0  0  0  0  0  0  0  0  0  0  0  0
    9.8420    0.3760   -2.4550 O   0  0  0  0  0  0  0  0  0  0  0  0
    6.2200   -1.9760    0.2880 C   0  0  0  0  0  0  0  0  0  0  0  0
    4.8490   -1.7830    0.0320 N   0  0  0  0  0  0  0  0  0  0  0  0
    3.9270   -2.6140   -0.7250 C   0  0  0  0  0  0  0  0  0  0  0  0
    2.6200   -2.3350    0.0240 C   0  0  0  0  0  0  0  0  0  0  0  0
    2.8510   -0.9510    0.5170 C   0  0  0  0  0  0  0  0  0  0  0  0
    1.7490   -0.0130    0.9650 C   0  0  0  0  0  0  0  0  0  0  0  0
    1.0260   -0.5710    2.0620 N   0  0  0  0  0  0  0  0  0  0  0  0
   -0.2730   -0.1210    2.3310 C   0  0  0  0  0  0  0  0  0  0  0  0
   -1.0830    0.5350    1.2930 C   0  0  2  0  0  0  0  0  0  0  0  0
   -1.2340   -0.4530    0.1290 C   0  0  0  0  0  0  0  0  0  0  0  0
   -0.6800    1.8440    0.7790 C   0  0  0  0  0  0  0  0  0  0  0  0
   -1.7270    2.9230    1.0260 C   0  0  0  0  0  0  0  0  0  0  0  0
   -2.9900    2.4880    0.3590 C   0  0  0  0  0  0  0  0  0  0  0  0
   -3.4180    1.2120    0.9650 N   0  0  0  0  0  0  0  0  0  0  0  0
   -4.6800    0.6810    0.5810 C   0  0  0  0  0  0  0  0  0  0  0  0
   -5.1670   -0.5100    1.0700 C   0  0  0  0  0  0  0  0  0  0  0  0
   -6.4130   -0.9760    0.6530 C   0  0  0  0  0  0  0  0  0  0  0  0
   -7.1880   -0.2760   -0.2460 C   0  0  0  0  0  0  0  0  0  0  0  0
   -8.4290   -0.7340   -0.6660 C   0  0  0  0  0  0  0  0  0  0  0  0
   -8.8970   -2.0240   -0.1000 C   0  0  0  0  0  0  0  0  0  0  0  0
   -9.1870   -0.0070   -1.5720 C   0  0  0  0  0  0  0  0  0  0  0  0
  -10.7510   -0.6020   -2.0870 Cl  0  0  0  0  0  0  0  0  0  0  0  0
   -8.6740    1.1870   -2.0490 C   0  0  0  0  0  0  0  0  0  0  0  0
   -7.4480    1.6140   -1.6180 C   0  0  0  0  0  0  0  0  0  0  0  0
   -6.6710    0.9150   -0.7180 C   0  0  0  0  0  0  0  0  0  0  0  0
   -5.4720    1.3410   -0.3020 N   0  0  0  0  0  0  0  0  0  0  0  0
   -2.5180    0.6250    1.8870 C   0  0  0  0  0  0  0  0  0  0  0  0
    4.1100   -0.6820    0.5060 N   0  0  0  0  0  0  0  0  0  0  0  0
  1  2  1  0
  2  3  1  0
  2 10  2  3
  3  4  2  3
  4  5  1  0
  5  6  2  0
  5  9  1  0
  6  7  1  0
  7  8  2  0
  8  9  1  0
 10 11  1  0
 11 12  1  0
 11 37  1  0
 12 13  1  0
 13 14  1  0
 14 15  1  0
 14 37  2  0
 15 16  1  0
 16 17  1  0
 17 18  1  0
 18 19  1  6
 18 20  1  0
 18 36  1  0
 20 21  1  0
 21 22  1  0
 22 23  1  0
 23 24  1  0
 23 36  1  0
 24 25  2  0
 24 35  1  0
 25 26  1  0
 26 27  2  0
 27 28  1  0
 27 34  1  0
 28 29  1  0
 28 30  2  0
 30 31  1  0
 30 32  1  0
 32 33  2  0
 33 34  1  0
 34 35  2  0
M  CHG  1  16   1
M  END
