
     RDKit          3D

 37 41  0  0  0  0  0  0  0  0999 V2000
    0.4650   -1.8460   -3.6970 C   0  0  0  0  0  0  0  0  0  0  0  0
   -0.4770   -1.3650   -2.6730 C   0  0  0  0  0  0  0  0  0  0  0  0
   -1.7820   -1.5720   -2.5910 N   0  0  0  0  0  0  0  0  0  0  0  0
   -2.2990   -0.9950   -1.5470 N   0  0  0  0  0  0  0  0  0  0  0  0
   -3.6800   -1.0120   -1.1540 C   0  0  0  0  0  0  0  0  0  0  0  0
   -4.3560    0.1630   -1.8040 C   0  0  0  0  0  0  0  0  0  0  0  0
   -5.7010    0.3140   -1.5760 O   0  0  0  0  0  0  0  0  0  0  0  0
   -6.4540    0.5280   -0.4790 C   0  0  0  0  0  0  0  0  0  0  0  0
   -5.9550    0.6690    0.7870 C   0  0  0  0  0  0  0  0  0  0  0  0
   -6.8160    0.8870    1.8690 C   0  0  0  0  0  0  0  0  0  0  0  0
   -8.1800    0.9690    1.7050 C   0  0  0  0  0  0  0  0  0  0  0  0
   -9.2060    1.1680    2.5610 N   0  0  0  0  0  0  0  0  0  0  0  0
  -10.3670    1.1630    1.8960 C   0  0  0  0  0  0  0  0  0  0  0  0
  -10.0680    0.9540    0.5700 C   0  0  0  0  0  0  0  0  0  0  0  0
   -8.6790    0.8280    0.4380 C   0  0  0  0  0  0  0  0  0  0  0  0
   -7.8480    0.6140   -0.6280 C   0  0  0  0  0  0  0  0  0  0  0  0
   -1.2940   -0.3590   -0.8810 C   0  0  0  0  0  0  0  0  0  0  0  0
   -1.4850    0.4180    0.3690 C   0  0  0  0  0  0  0  0  0  0  0  0
   -0.1310   -0.5650   -1.5530 C   0  0  0  0  0  0  0  0  0  0  0  0
    1.2440   -0.1420   -1.3280 C   0  0  0  0  0  0  0  0  0  0  0  0
    1.5830    0.6510   -0.2120 N   0  0  2  0  0  0  0  0  0  0  0  0
    1.4860    2.0600   -0.6480 C   0  0  0  0  0  0  0  0  0  0  0  0
    3.0070    0.4220    0.1780 C   0  0  0  0  0  0  0  0  0  0  0  0
    3.1410   -0.8240    0.9220 C   0  0  0  0  0  0  0  0  0  0  0  0
    2.1080   -1.6900    1.2370 C   0  0  0  0  0  0  0  0  0  0  0  0
    2.6070   -2.7130    1.9200 N   0  0  0  0  0  0  0  0  0  0  0  0
    3.8860   -2.5220    2.0410 N   0  0  0  0  0  0  0  0  0  0  0  0
    4.2780   -1.3580    1.4360 C   0  0  0  0  0  0  0  0  0  0  0  0
    5.6700   -0.8520    1.3910 C   0  0  2  0  0  0  0  0  0  0  0  0
    6.5210   -1.7630    2.2190 C   0  0  0  0  0  0  0  0  0  0  0  0
    7.1970   -2.4580    2.8590 N   0  0  0  0  0  0  0  0  0  0  0  0
    5.8390    0.5000    2.0290 C   0  0  0  0  0  0  0  0  0  0  0  0
    6.3850    1.5390    1.1050 C   0  0  0  0  0  0  0  0  0  0  0  0
    7.6310    1.1030    0.3830 C   0  0  2  0  0  0  0  0  0  0  0  0
    7.9720    2.3080   -0.8790 Cl  0  0  0  0  0  0  0  0  0  0  0  0
    7.5820   -0.2910   -0.1210 C   0  0  0  0  0  0  0  0  0  0  0  0
    6.2470   -0.9670    0.0170 C   0  0  0  0  0  0  0  0  0  0  0  0
  1  2  1  0
  2  3  2  0
  2 19  1  0
  3  4  1  0
  4  5  1  0
  4 17  1  0
  5  6  1  0
  6  7  1  0
  7  8  1  0
  8  9  2  0
  8 16  1  0
  9 10  1  0
 10 11  2  0
 11 12  1  0
 11 15  1  0
 12 13  1  0
 13 14  2  0
 14 15  1  0
 15 16  2  0
 17 18  1  0
 17 19  2  0
 19 20  1  0
 20 21  1  0
 21 22  1  6
 21 23  1  0
 23 24  1  0
 24 25  2  0
 24 28  1  0
 25 26  1  0
 26 27  1  0
 27 28  2  0
 28 29  1  0
 29 30  1  1
 29 32  1  0
 29 37  1  0
 30 31  3  0
 32 33  1  0
 33 34  1  0
 34 35  1  6
 34 36  1  0
 36 37  1  0
M  CHG  1  21   1
M  END
