
     RDKit          3D

 36 38  0  0  0  0  0  0  0  0999 V2000
    7.4240    5.9290    0.0530 C   0  0  0  0  0  0  0  0  0  0  0  0
    6.2610    5.2510   -0.4820 N   0  0  0  0  0  0  0  0  0  0  0  0
    5.9010    4.0000    0.0790 C   0  0  0  0  0  0  0  0  0  0  0  0
    6.5980    3.5380    1.0070 O   0  0  0  0  0  0  0  0  0  0  0  0
    4.7050    3.2340   -0.4230 C   0  0  0  0  0  0  0  0  0  0  0  0
    4.5920    1.9670    0.3650 C   0  0  0  0  0  0  0  0  0  0  0  0
    3.4090    1.1690   -0.1050 C   0  0  0  0  0  0  0  0  0  0  0  0
    2.6880    1.6120   -1.0390 O   0  0  0  0  0  0  0  0  0  0  0  0
    3.1040   -0.0730    0.4980 N   0  0  0  0  0  0  0  0  0  0  0  0
    1.9260   -0.8410    0.0120 C   0  0  1  0  0  0  0  0  0  0  0  0
    2.4610   -2.0730   -0.6110 C   0  0  0  0  0  0  0  0  0  0  0  0
    1.4970   -3.0320   -1.1760 C   0  0  0  0  0  0  0  0  0  0  0  0
    0.9900   -2.9240   -2.4640 C   0  0  0  0  0  0  0  0  0  0  0  0
    0.1120   -3.8320   -3.0160 C   0  0  0  0  0  0  0  0  0  0  0  0
   -0.3050   -4.9170   -2.2710 C   0  0  0  0  0  0  0  0  0  0  0  0
    0.1660   -5.0680   -0.9930 C   0  0  0  0  0  0  0  0  0  0  0  0
    1.0350   -4.1530   -0.4750 C   0  0  0  0  0  0  0  0  0  0  0  0
    0.9540   -0.9460    1.1220 C   0  0  2  0  0  0  0  0  0  0  0  0
    1.3150   -1.6040    2.2500 O   0  0  0  0  0  0  0  0  0  0  0  0
   -0.4690   -1.1370    0.6540 C   0  0  0  0  0  0  0  0  0  0  0  0
   -1.4310   -0.6800    1.6450 N   0  0  0  0  0  0  0  0  0  0  0  0
   -2.4830   -1.6280    1.8620 C   0  0  0  0  0  0  0  0  0  0  0  0
   -2.6700   -2.5820    0.7420 C   0  0  2  0  0  0  0  0  0  0  0  0
   -2.9900   -2.2080   -0.6330 C   0  0  0  0  0  0  0  0  0  0  0  0
   -4.1200   -2.6480    0.2060 C   0  0  0  0  0  0  0  0  0  0  0  0
   -1.8470    0.9320    1.4920 S   0  0  2  0  0  0  0  0  0  0  0  0
   -0.9930    1.5550    0.4180 O   0  0  0  0  0  0  0  0  0  0  0  0
   -1.6190    1.7370    2.7610 O   0  0  0  0  0  0  0  0  0  0  0  0
   -3.5320    1.1390    1.0930 C   0  0  0  0  0  0  0  0  0  0  0  0
   -4.4810    1.1230    2.1060 C   0  0  0  0  0  0  0  0  0  0  0  0
   -5.8060    1.3140    1.8110 C   0  0  0  0  0  0  0  0  0  0  0  0
   -6.2200    1.5220    0.5130 C   0  0  0  0  0  0  0  0  0  0  0  0
   -5.2570    1.5350   -0.4940 C   0  0  0  0  0  0  0  0  0  0  0  0
   -5.6300    1.7420   -1.8130 O   0  0  0  0  0  0  0  0  0  0  0  0
   -4.6420    1.7520   -2.8160 C   0  0  0  0  0  0  0  0  0  0  0  0
   -3.9330    1.3440   -0.1900 C   0  0  0  0  0  0  0  0  0  0  0  0
  1  2  1  0
  2  3  1  0
  3  4  2  0
  3  5  1  0
  5  6  1  0
  6  7  1  0
  7  8  2  0
  7  9  1  0
  9 10  1  0
 10 11  1  1
 10 18  1  0
 11 12  1  0
 12 13  2  0
 12 17  1  0
 13 14  1  0
 14 15  2  0
 15 16  1  0
 16 17  2  0
 18 19  1  1
 18 20  1  0
 20 21  1  0
 21 22  1  0
 26 21  1  1
 23 22  1  1
 23 24  1  0
 23 25  1  0
 24 25  1  0
 26 27  2  0
 26 28  2  0
 26 29  1  0
 29 30  2  0
 29 36  1  0
 30 31  1  0
 31 32  2  0
 32 33  1  0
 33 34  1  0
 33 36  2  0
 34 35  1  0
M  END
