
     RDKit          3D

 33 35  0  0  0  0  0  0  0  0999 V2000
    5.8060   -6.1210   -0.6460 C   0  0  0  0  0  0  0  0  0  0  0  0
    5.4990   -4.8060   -0.1370 N   0  0  0  0  0  0  0  0  0  0  0  0
    4.3720   -4.1230   -0.6630 C   0  0  0  0  0  0  0  0  0  0  0  0
    3.6770   -4.6800   -1.5540 O   0  0  0  0  0  0  0  0  0  0  0  0
    3.9950   -2.7780   -0.1930 C   0  0  0  0  0  0  0  0  0  0  0  0
    2.7750   -2.2730   -0.8980 C   0  0  0  0  0  0  0  0  0  0  0  0
    2.4500   -0.9220   -0.3830 C   0  0  0  0  0  0  0  0  0  0  0  0
    3.1590   -0.3920    0.5100 O   0  0  0  0  0  0  0  0  0  0  0  0
    1.3160   -0.2460   -0.9260 N   0  0  0  0  0  0  0  0  0  0  0  0
    0.9810    1.0700   -0.4400 C   0  0  1  0  0  0  0  0  0  0  0  0
    0.9580    2.0710   -1.5580 C   0  0  0  0  0  0  0  0  0  0  0  0
    0.6450    3.4460   -1.1050 C   0  0  0  0  0  0  0  0  0  0  0  0
    1.6750    4.3000   -0.6870 C   0  0  0  0  0  0  0  0  0  0  0  0
    1.3380    5.5710   -0.2790 C   0  0  0  0  0  0  0  0  0  0  0  0
    0.0290    5.9940   -0.2800 C   0  0  0  0  0  0  0  0  0  0  0  0
   -0.9810    5.1500   -0.6920 C   0  0  0  0  0  0  0  0  0  0  0  0
   -0.6610    3.8690   -1.1050 C   0  0  0  0  0  0  0  0  0  0  0  0
   -0.3200    1.0110    0.3500 C   0  0  2  0  0  0  0  0  0  0  0  0
   -0.0900    0.1820    1.4390 O   0  0  0  0  0  0  0  0  0  0  0  0
   -1.4230    0.4680   -0.5180 C   0  0  0  0  0  0  0  0  0  0  0  0
   -2.6820    0.3140    0.0650 N   0  0  0  0  0  0  0  0  0  0  0  0
   -3.7710    1.0300   -0.5570 C   0  0  0  0  0  0  0  0  0  0  0  0
   -4.7500    1.5940    0.4520 C   0  0  1  0  0  0  0  0  0  0  0  0
   -4.3020    2.5650    1.4740 C   0  0  0  0  0  0  0  0  0  0  0  0
   -5.1410    3.0470    0.3430 C   0  0  0  0  0  0  0  0  0  0  0  0
   -3.1370   -1.3190    0.2180 S   0  0  1  0  0  0  0  0  0  0  0  0
   -4.5800   -1.3280    0.6830 O   0  0  0  0  0  0  0  0  0  0  0  0
   -3.2190   -1.8580   -1.2190 O   0  0  0  0  0  0  0  0  0  0  0  0
   -2.1430   -2.3230    1.1950 C   0  0  0  0  0  0  0  0  0  0  0  0
   -2.5350   -2.9630    2.3800 C   0  0  0  0  0  0  0  0  0  0  0  0
   -1.4630   -3.6800    2.8810 C   0  0  0  0  0  0  0  0  0  0  0  0
   -0.4440   -3.4360    1.9540 C   0  0  0  0  0  0  0  0  0  0  0  0
   -0.9050   -2.6500    1.0140 O   0  0  0  0  0  0  0  0  0  0  0  0
  1  2  1  0
  2  3  1  0
  3  4  2  0
  3  5  1  0
  5  6  1  0
  6  7  1  0
  7  8  2  0
  7  9  1  0
  9 10  1  0
 10 11  1  6
 10 18  1  0
 11 12  1  0
 12 13  2  0
 12 17  1  0
 13 14  1  0
 14 15  2  0
 15 16  1  0
 16 17  2  0
 18 19  1  1
 18 20  1  0
 20 21  1  0
 21 22  1  0
 26 21  1  6
 23 22  1  6
 23 24  1  0
 23 25  1  0
 24 25  1  0
 26 27  2  0
 26 28  2  0
 26 29  1  0
 29 30  2  0
 29 33  1  0
 30 31  1  0
 31 32  2  0
 32 33  1  0
M  END
