
     RDKit          3D

 32 34  0  0  0  0  0  0  0  0999 V2000
   -3.1600    3.9770    0.8610 C   0  0  0  0  0  0  0  0  0  0  0  0
   -4.2350    3.3800    0.4100 C   0  0  0  0  0  0  0  0  0  0  0  0
   -5.7510    4.1870    0.7490 Cl  0  0  0  0  0  0  0  0  0  0  0  0
   -4.1800    2.0800   -0.3430 C   0  0  0  0  0  0  0  0  0  0  0  0
   -5.3190    1.5870   -0.7450 C   0  0  0  0  0  0  0  0  0  0  0  0
   -5.7700    0.4330   -1.4580 C   0  0  0  0  0  0  0  0  0  0  0  0
   -5.9170    0.6320   -2.9210 N   0  0  0  0  0  0  0  0  0  0  0  0
   -6.1360   -0.7920   -1.0900 C   0  0  0  0  0  0  0  0  0  0  0  0
   -6.2200   -1.4520    0.1850 C   0  0  0  0  0  0  0  0  0  0  0  0
   -7.8540   -1.4890    1.0040 Cl  0  0  0  0  0  0  0  0  0  0  0  0
   -5.3310   -2.1330    0.8740 C   0  0  0  0  0  0  0  0  0  0  0  0
   -3.9290   -2.4410    0.5250 C   0  0  0  0  0  0  0  0  0  0  0  0
   -2.9620   -1.9910    1.5560 C   0  0  0  0  0  0  0  0  0  0  0  0
   -2.4590   -0.6190    1.1690 C   0  0  0  0  0  0  0  0  0  0  0  0
   -1.8770   -0.6800   -0.1970 C   0  0  2  0  0  0  0  0  0  0  0  0
   -0.5120   -0.3210   -0.0770 O   0  0  0  0  0  0  0  0  0  0  0  0
    0.3170   -1.2930   -0.6160 C   0  0  0  0  0  0  0  0  0  0  0  0
    1.7660   -0.9590   -0.5130 C   0  0  0  0  0  0  0  0  0  0  0  0
    2.2040   -0.7890    0.8150 O   0  0  0  0  0  0  0  0  0  0  0  0
    3.5230   -0.4760    1.0570 C   0  0  0  0  0  0  0  0  0  0  0  0
    3.9640   -0.3080    2.3460 C   0  0  0  0  0  0  0  0  0  0  0  0
    5.2850    0.0040    2.5760 C   0  0  0  0  0  0  0  0  0  0  0  0
    6.1630    0.1480    1.5270 C   0  0  0  0  0  0  0  0  0  0  0  0
    5.7270   -0.0200    0.2400 C   0  0  0  0  0  0  0  0  0  0  0  0
    4.3910   -0.3350    0.0050 C   0  0  0  0  0  0  0  0  0  0  0  0
    6.5990    0.1220   -0.8270 O   0  0  0  0  0  0  0  0  0  0  0  0
    7.8530    0.7270   -0.5920 C   0  0  2  0  0  0  0  0  0  0  0  0
    8.7470    0.3580   -1.7600 C   0  0  0  0  0  0  0  0  0  0  0  0
    8.4050    0.0970    0.6920 C   0  0  0  0  0  0  0  0  0  0  0  0
    7.4990    0.4620    1.7270 O   0  0  0  0  0  0  0  0  0  0  0  0
   -2.5700    0.3020   -1.1550 C   0  0  0  0  0  0  0  0  0  0  0  0
   -2.8020    1.6080   -0.5240 C   0  0  0  0  0  0  0  0  0  0  0  0
  1  2  2  0
  2  3  1  0
  2  4  1  0
  4  5  2  0
  4 32  1  0
  5  6  1  0
  6  7  1  0
  6  8  2  0
  8  9  1  0
  9 10  1  0
  9 11  2  0
 11 12  1  0
 12 13  1  0
 13 14  1  0
 14 15  1  0
 15 16  1  1
 15 31  1  0
 16 17  1  0
 17 18  1  0
 18 19  1  0
 19 20  1  0
 20 21  2  0
 20 25  1  0
 21 22  1  0
 22 23  2  0
 23 24  1  0
 23 30  1  0
 24 25  2  0
 24 26  1  0
 26 27  1  0
 27 28  1  6
 27 29  1  0
 29 30  1  0
 31 32  1  0
M  END
