
     RDKit          3D

 32 34  0  0  0  0  0  0  0  0999 V2000
   -5.3360   -1.0540    3.8420 C   0  0  0  0  0  0  0  0  0  0  0  0
   -4.4940   -0.2730    3.0500 O   0  0  0  0  0  0  0  0  0  0  0  0
   -4.2420   -1.0340    1.8870 C   0  0  0  0  0  0  0  0  0  0  0  0
   -3.3150   -0.2420    0.9510 C   0  0  2  0  0  0  0  0  0  0  0  0
   -3.8950    1.0440    0.5310 C   0  0  0  0  0  0  0  0  0  0  0  0
   -4.4640    1.1360   -0.8330 C   0  0  0  0  0  0  0  0  0  0  0  0
   -5.4460    0.0460   -1.1630 C   0  0  1  0  0  0  0  0  0  0  0  0
   -6.2640    0.5570   -2.3570 C   0  0  0  0  0  0  0  0  0  0  0  0
   -5.1370    0.8530   -3.6730 Cl  0  0  0  0  0  0  0  0  0  0  0  0
   -4.8020   -1.2690   -1.4340 C   0  0  0  0  0  0  0  0  0  0  0  0
   -3.3270   -1.2800   -1.3680 C   0  0  0  0  0  0  0  0  0  0  0  0
   -2.6720   -1.0990   -0.0790 C   0  0  1  0  0  0  0  0  0  0  0  0
   -1.2510   -0.7030   -0.3240 C   0  0  0  0  0  0  0  0  0  0  0  0
   -0.8940   -0.3200   -1.4660 O   0  0  0  0  0  0  0  0  0  0  0  0
   -0.2750   -0.7440    0.7090 N   0  0  0  0  0  0  0  0  0  0  0  0
    1.0960   -0.3630    0.4810 C   0  0  0  0  0  0  0  0  0  0  0  0
    1.2550    1.0480    0.0300 C   0  0  1  0  0  0  0  0  0  0  0  0
    0.7580    1.9560    0.9650 O   0  0  0  0  0  0  0  0  0  0  0  0
    2.6960    1.3450   -0.1650 C   0  0  0  0  0  0  0  0  0  0  0  0
    3.6970    0.4140    0.0020 C   0  0  0  0  0  0  0  0  0  0  0  0
    5.0350    0.6910   -0.1810 C   0  0  0  0  0  0  0  0  0  0  0  0
    6.0250   -0.3540    0.0170 C   0  0  0  0  0  0  0  0  0  0  0  0
    5.7830   -1.6570    0.3840 C   0  0  0  0  0  0  0  0  0  0  0  0
    7.0290   -2.2910    0.4510 C   0  0  0  0  0  0  0  0  0  0  0  0
    7.3150   -3.7070    0.8050 C   0  0  0  0  0  0  0  0  0  0  0  0
    7.9450   -1.3170    0.1170 C   0  0  0  0  0  0  0  0  0  0  0  0
    7.3080   -0.1980   -0.1300 O   0  0  0  0  0  0  0  0  0  0  0  0
    5.3820    1.9720   -0.5530 C   0  0  0  0  0  0  0  0  0  0  0  0
    4.4270    2.9480   -0.7360 C   0  0  0  0  0  0  0  0  0  0  0  0
    4.7840    4.3350   -1.1370 C   0  0  0  0  0  0  0  0  0  0  0  0
    3.1190    2.6260   -0.5430 C   0  0  0  0  0  0  0  0  0  0  0  0
    1.8580    3.8310   -0.7630 Cl  0  0  0  0  0  0  0  0  0  0  0  0
  1  2  1  0
  2  3  1  0
  4  3  1  6
  4  5  1  0
  4 12  1  0
  5  6  1  0
  6  7  1  0
  7  8  1  6
  7 10  1  0
  8  9  1  0
 10 11  1  0
 11 12  1  0
 12 13  1  6
 13 14  2  0
 13 15  1  0
 15 16  1  0
 16 17  1  0
 17 18  1  1
 17 19  1  0
 19 20  2  0
 19 31  1  0
 20 21  1  0
 21 22  1  0
 21 28  2  0
 22 23  2  0
 22 27  1  0
 23 24  1  0
 24 25  1  0
 24 26  2  0
 26 27  1  0
 28 29  1  0
 29 30  1  0
 29 31  2  0
 31 32  1  0
M  END
