
     RDKit          3D

 31 33  0  0  0  0  0  0  0  0999 V2000
   -7.2770   -2.8930    1.4120 C   0  0  0  0  0  0  0  0  0  0  0  0
   -7.6190   -2.5310    0.0010 C   0  0  0  0  0  0  0  0  0  0  0  0
   -7.5290   -1.1480   -0.1700 O   0  0  0  0  0  0  0  0  0  0  0  0
   -6.3500   -0.4730   -0.0120 C   0  0  0  0  0  0  0  0  0  0  0  0
   -5.2010   -1.1420    0.3020 C   0  0  0  0  0  0  0  0  0  0  0  0
   -4.0120   -0.4440    0.4620 C   0  0  0  0  0  0  0  0  0  0  0  0
   -4.0260    0.9220    0.2960 C   0  0  0  0  0  0  0  0  0  0  0  0
   -2.7900    1.5940    0.4850 C   0  0  0  0  0  0  0  0  0  0  0  0
   -1.6900    0.8310    0.7900 O   0  0  0  0  0  0  0  0  0  0  0  0
   -0.9080    0.2170   -0.1910 C   0  0  0  0  0  0  0  0  0  0  0  0
   -0.1560    1.0370   -1.1470 C   0  0  1  0  0  0  0  0  0  0  0  0
   -0.8600    1.9780   -1.8580 O   0  0  0  0  0  0  0  0  0  0  0  0
    1.2440    1.3940   -0.7940 C   0  0  1  0  0  0  0  0  0  0  0  0
    1.4700    2.1270    0.4770 C   0  0  0  0  0  0  0  0  0  0  0  0
    2.0860    0.1710   -0.8040 C   0  0  0  0  0  0  0  0  0  0  0  0
    1.5610   -0.9230   -1.1190 O   0  0  0  0  0  0  0  0  0  0  0  0
    3.4620    0.1290   -0.4840 N   0  0  0  0  0  0  0  0  0  0  0  0
    4.2580   -1.0840   -0.5040 C   0  0  1  0  0  0  0  0  0  0  0  0
    5.4180   -0.9590   -1.4540 C   0  0  0  0  0  0  0  0  0  0  0  0
    6.5790   -1.7790   -0.9370 C   0  0  0  0  0  0  0  0  0  0  0  0
    7.1180   -1.2730    0.3690 C   0  0  0  0  0  0  0  0  0  0  0  0
    6.0320   -0.4590    1.0400 C   0  0  2  0  0  0  0  0  0  0  0  0
    6.2970   -0.1960    2.4850 C   0  0  0  0  0  0  0  0  0  0  0  0
    4.7510   -1.2820    0.9360 C   0  0  0  0  0  0  0  0  0  0  0  0
   -2.8000    2.9490    0.3460 C   0  0  0  0  0  0  0  0  0  0  0  0
   -1.3470    3.8850    0.6630 Cl  0  0  0  0  0  0  0  0  0  0  0  0
   -3.9770    3.6580    0.0230 C   0  0  0  0  0  0  0  0  0  0  0  0
   -3.8810    5.3980   -0.1370 Cl  0  0  0  0  0  0  0  0  0  0  0  0
   -5.1510    2.9630   -0.1550 C   0  0  0  0  0  0  0  0  0  0  0  0
   -5.1870    1.5940   -0.0200 C   0  0  0  0  0  0  0  0  0  0  0  0
   -6.3590    0.8960   -0.1760 C   0  0  0  0  0  0  0  0  0  0  0  0
  1  2  1  0
  2  3  1  0
  3  4  1  0
  4  5  2  0
  4 31  1  0
  5  6  1  0
  6  7  2  0
  7  8  1  0
  7 30  1  0
  8  9  1  0
  8 25  2  0
  9 10  1  0
 10 11  1  0
 11 12  1  1
 11 13  1  0
 13 14  1  1
 13 15  1  0
 15 16  2  0
 15 17  1  0
 18 17  1  1
 18 19  1  0
 18 24  1  0
 19 20  1  0
 20 21  1  0
 21 22  1  0
 22 23  1  1
 22 24  1  0
 25 26  1  0
 25 27  1  0
 27 28  1  0
 27 29  2  0
 29 30  1  0
 30 31  2  0
M  END
