
     RDKit          3D

 32 33  0  0  0  0  0  0  0  0999 V2000
    0.0300    4.6470   -4.0690 C   0  0  0  0  0  0  0  0  0  0  0  0
    0.0660    3.1810   -3.7250 C   0  0  0  0  0  0  0  0  0  0  0  0
   -0.7330    2.9960   -2.4590 C   0  0  0  0  0  0  0  0  0  0  0  0
   -0.1300    2.4530   -1.3440 C   0  0  0  0  0  0  0  0  0  0  0  0
   -0.9510    2.2970   -0.1570 C   0  0  0  0  0  0  0  0  0  0  0  0
   -1.6410    1.3600    0.4140 C   0  0  0  0  0  0  0  0  0  0  0  0
   -2.4490    1.8850    1.9710 Cl  0  0  0  0  0  0  0  0  0  0  0  0
   -1.9820   -0.0050    0.0560 C   0  0  0  0  0  0  0  0  0  0  0  0
   -3.1310   -0.5030    0.7950 O   0  0  0  0  0  0  0  0  0  0  0  0
   -3.4690   -1.8110    0.9760 C   0  0  1  0  0  0  0  0  0  0  0  0
   -2.4700   -2.6770    1.6670 C   0  0  0  0  0  0  0  0  0  0  0  0
   -4.7950   -1.8450    1.7310 C   0  0  0  0  0  0  0  0  0  0  0  0
   -4.6950   -1.1630    3.0750 C   0  0  0  0  0  0  0  0  0  0  0  0
   -3.7630   -1.7330    3.9160 O   0  0  0  0  0  0  0  0  0  0  0  0
   -1.4300   -0.8230   -0.8010 C   0  0  0  0  0  0  0  0  0  0  0  0
   -0.3170   -0.7720   -1.7190 C   0  0  0  0  0  0  0  0  0  0  0  0
    0.9690   -0.9130   -1.4790 C   0  0  0  0  0  0  0  0  0  0  0  0
    1.9390   -0.8160   -2.6370 C   0  0  0  0  0  0  0  0  0  0  0  0
    1.1010   -0.5130   -4.1730 Cl  0  0  0  0  0  0  0  0  0  0  0  0
    1.6190   -1.1580   -0.1720 C   0  0  2  0  0  0  0  0  0  0  0  0
    1.5250   -2.6620    0.1360 C   0  0  0  0  0  0  0  0  0  0  0  0
    2.2050   -2.8830    1.4860 C   0  0  0  0  0  0  0  0  0  0  0  0
    2.1100   -4.3610    1.7740 C   0  0  0  0  0  0  0  0  0  0  0  0
    1.0780   -0.4090    0.9210 N   0  0  0  0  0  0  0  0  0  0  0  0
    1.5090    0.8630    1.3690 C   0  0  0  0  0  0  0  0  0  0  0  0
    1.0320    1.2560    2.4920 O   0  0  0  0  0  0  0  0  0  0  0  0
    2.4330    1.7840    0.7110 C   0  0  0  0  0  0  0  0  0  0  0  0
    3.5770    2.2390    1.2660 C   0  0  0  0  0  0  0  0  0  0  0  0
    4.2650    3.1390    0.3360 C   0  0  0  0  0  0  0  0  0  0  0  0
    3.3740    3.1460   -0.8170 C   0  0  0  0  0  0  0  0  0  0  0  0
    2.3160    2.3650   -0.5960 C   0  0  0  0  0  0  0  0  0  0  0  0
    1.2220    2.1070   -1.4600 O   0  0  0  0  0  0  0  0  0  0  0  0
  1  2  1  0
  2  3  1  0
  3  4  2  3
  4  5  1  0
  4 32  1  0
  5  6  2  0
  6  7  1  0
  6  8  1  0
  8  9  1  0
  8 15  2  0
  9 10  1  0
 10 11  1  1
 10 12  1  0
 12 13  1  0
 13 14  1  0
 15 16  1  0
 16 17  2  0
 17 18  1  0
 17 20  1  0
 18 19  1  0
 20 21  1  1
 20 24  1  0
 21 22  1  0
 22 23  1  0
 24 25  1  0
 25 26  2  0
 25 27  1  0
 27 28  2  0
 27 31  1  0
 28 29  1  0
 29 30  1  0
 30 31  2  0
 31 32  1  0
M  END
