
     RDKit          3D

 32 34  0  0  0  0  0  0  0  0999 V2000
   -3.0970   -4.6860   -1.0060 C   0  0  0  0  0  0  0  0  0  0  0  0
   -2.8580   -3.3900   -0.9930 C   0  0  0  0  0  0  0  0  0  0  0  0
   -2.9250   -2.6710    0.3310 C   0  0  2  0  0  0  0  0  0  0  0  0
   -4.1600   -3.0980    0.8830 O   0  0  0  0  0  0  0  0  0  0  0  0
   -2.9780   -1.1820    0.0730 C   0  0  2  0  0  0  0  0  0  0  0  0
   -1.8470   -0.6290   -0.6490 C   0  0  0  0  0  0  0  0  0  0  0  0
   -2.1220   -0.1020   -1.7970 O   0  0  0  0  0  0  0  0  0  0  0  0
   -0.4620   -0.5830   -0.2740 C   0  0  0  0  0  0  0  0  0  0  0  0
    0.0490   -1.0430    0.9200 C   0  0  0  0  0  0  0  0  0  0  0  0
    1.3880   -0.9760    1.2090 C   0  0  0  0  0  0  0  0  0  0  0  0
    2.3050   -0.4410    0.3110 C   0  0  0  0  0  0  0  0  0  0  0  0
    3.7270   -0.3720    0.6210 C   0  0  0  0  0  0  0  0  0  0  0  0
    4.7190    0.0920   -0.0910 C   0  0  0  0  0  0  0  0  0  0  0  0
    5.9760   -0.0460    0.6270 C   0  0  0  0  0  0  0  0  0  0  0  0
    7.1960    0.3150    0.2180 C   0  0  0  0  0  0  0  0  0  0  0  0
    7.3120    0.9300   -1.1170 C   0  0  2  0  0  0  0  0  0  0  0  0
    8.7280    1.1240   -1.5510 C   0  0  0  0  0  0  0  0  0  0  0  0
    6.3520    2.4280   -1.2250 Cl  0  0  0  0  0  0  0  0  0  0  0  0
    5.6880   -0.6290    1.8350 O   0  0  0  0  0  0  0  0  0  0  0  0
    4.3160   -0.8570    1.8950 C   0  0  0  0  0  0  0  0  0  0  0  0
    1.8070    0.0070   -0.8510 N   0  0  0  0  0  0  0  0  0  0  0  0
    0.4980   -0.0540   -1.1430 C   0  0  0  0  0  0  0  0  0  0  0  0
   -3.3700   -0.4330    1.3340 C   0  0  2  0  0  0  0  0  0  0  0  0
   -4.6490   -0.9380    1.6750 O   0  0  0  0  0  0  0  0  0  0  0  0
   -3.5700    1.0090    1.0570 C   0  0  0  0  0  0  0  0  0  0  0  0
   -4.6200    1.4580    0.2890 C   0  0  0  0  0  0  0  0  0  0  0  0
   -4.7850    2.8090    0.0450 C   0  0  0  0  0  0  0  0  0  0  0  0
   -5.9450    3.2540   -0.7990 C   0  0  0  0  0  0  0  0  0  0  0  0
   -3.9120    3.7430    0.5580 C   0  0  0  0  0  0  0  0  0  0  0  0
   -2.8640    3.3040    1.3240 C   0  0  0  0  0  0  0  0  0  0  0  0
   -1.7510    4.4760    1.9800 Cl  0  0  0  0  0  0  0  0  0  0  0  0
   -2.6960    1.9390    1.5710 C   0  0  0  0  0  0  0  0  0  0  0  0
  1  2  2  0
  2  3  1  0
  3  4  1  6
  3  5  1  0
  5  6  1  1
  5 23  1  0
  6  7  2  0
  6  8  1  0
  8  9  2  0
  8 22  1  0
  9 10  1  0
 10 11  2  0
 11 12  1  0
 11 21  1  0
 12 13  2  0
 12 20  1  0
 13 14  1  0
 14 15  2  3
 14 19  1  0
 15 16  1  0
 16 17  1  1
 16 18  1  0
 19 20  1  0
 21 22  2  0
 23 24  1  6
 23 25  1  0
 25 26  2  0
 25 32  1  0
 26 27  1  0
 27 28  1  0
 27 29  2  0
 29 30  1  0
 30 31  1  0
 30 32  2  0
M  END
