
     RDKit          3D

 10  9  0  0  0  0  0  0  0  0999 V2000
    4.5000    1.2070   -0.0210 O   0  0  0  0  0  0  0  0  0  0  0  0
    3.6150    0.0690   -0.5920 P   0  0  0  0  0  0  0  0  0  0  0  0
    2.3010   -0.6560    0.3160 O   0  0  0  0  0  0  0  0  0  0  0  0
    1.0080   -0.5340   -0.1690 C   0  0  0  0  0  0  0  0  0  0  0  0
    0.8190    0.0970   -1.2530 O   0  0  0  0  0  0  0  0  0  0  0  0
   -0.1340   -1.0750    0.4720 N   0  0  0  0  0  0  0  0  0  0  0  0
   -1.3850   -0.9020   -0.0870 O   0  0  0  0  0  0  0  0  0  0  0  0
   -2.1070    0.2640    0.1270 C   0  0  0  0  0  0  0  0  0  0  0  0
   -1.5670    1.1380    0.8480 O   0  0  0  0  0  0  0  0  0  0  0  0
   -3.3570    0.5160   -0.3930 O   0  0  0  0  0  0  0  0  0  0  0  0
  1  2  2  0
  2  3  1  0
  3  4  1  0
  4  5  2  0
  4  6  1  0
  6  7  1  0
  7  8  1  0
  8  9  2  0
  8 10  1  0
M  END
