
     RDKit          3D

  9  8  0  0  0  0  0  0  0  0999 V2000
    1.2990   -1.5480   -0.2450 O   0  0  0  0  0  0  0  0  0  0  0  0
    1.3770   -0.3730    0.2240 C   0  0  0  0  0  0  0  0  0  0  0  0
    0.1900    0.4720    0.3810 C   0  0  0  0  0  0  0  0  0  0  0  0
   -1.3720   -0.0860   -0.0630 P   0  0  0  0  0  0  0  0  0  0  0  0
   -2.1840    1.1650    0.3460 O   0  0  0  0  0  0  0  0  0  0  0  0
   -2.2770   -0.9740    1.0100 O   0  0  0  0  0  0  0  0  0  0  0  0
   -1.9120    0.1540   -1.6440 O   0  0  0  0  0  0  0  0  0  0  0  0
    2.6480    0.0930    0.5900 N   0  0  0  0  0  0  0  0  0  0  0  0
    3.7360   -0.7020    0.4380 O   0  0  0  0  0  0  0  0  0  0  0  0
  1  2  2  0
  2  3  1  0
  2  8  1  0
  3  4  1  0
  4  5  1  0
  4  6  1  0
  4  7  1  0
  8  9  1  0
M  END
