
     RDKit          3D

 14 14  0  0  0  0  0  0  0  0999 V2000
   -2.8280   -2.1060    0.5950 N   0  0  0  0  0  0  0  0  0  0  0  0
   -1.5100   -1.5150    0.4040 C   0  0  0  0  0  0  0  0  0  0  0  0
   -1.5290   -0.0580    0.4680 C   0  0  0  0  0  0  0  0  0  0  0  0
   -2.6800    0.4580    0.7290 O   0  0  0  0  0  0  0  0  0  0  0  0
   -0.4350    0.8630    0.2760 C   0  0  0  0  0  0  0  0  0  0  0  0
    0.7870    0.4800    0.0010 C   0  0  0  0  0  0  0  0  0  0  0  0
    1.1850   -0.8680   -0.1430 N   0  0  0  0  0  0  0  0  0  0  0  0
    1.3840   -1.4100   -1.4150 N   0  0  0  0  0  0  0  0  0  0  0  0
    2.6400   -1.1600   -1.8530 O   0  0  0  0  0  0  0  0  0  0  0  0
    1.8110    1.4380   -0.1740 O   0  0  0  0  0  0  0  0  0  0  0  0
    1.7320    2.7440    0.3620 C   0  0  0  0  0  0  0  0  0  0  0  0
    0.3780    3.1980    0.2100 O   0  0  0  0  0  0  0  0  0  0  0  0
   -0.6780    2.3190    0.3930 C   0  0  0  0  0  0  0  0  0  0  0  0
   -1.8320    2.7440    0.6560 O   0  0  0  0  0  0  0  0  0  0  0  0
  1  2  1  0
  2  3  1  0
  3  4  2  0
  3  5  1  0
  5  6  2  0
  5 13  1  0
  6  7  1  0
  6 10  1  0
  7  8  1  0
  8  9  1  0
 10 11  1  0
 11 12  1  0
 12 13  1  0
 13 14  2  0
M  END
