
     RDKit          3D

 25 25  0  0  0  0  0  0  0  0999 V2000
   -1.5190    6.9270    2.6390 O   0  0  0  0  0  0  0  0  0  0  0  0
   -0.5990    5.9200    2.8020 C   0  0  0  0  0  0  0  0  0  0  0  0
   -0.6650    4.8180    2.0540 C   0  0  0  0  0  0  0  0  0  0  0  0
   -1.6950    4.7200    1.1030 O   0  0  0  0  0  0  0  0  0  0  0  0
    0.2640    3.7350    2.1780 C   0  0  0  0  0  0  0  0  0  0  0  0
    0.1550    2.6660    1.4150 C   0  0  0  0  0  0  0  0  0  0  0  0
    1.0690    1.5780    1.5240 N   0  0  0  0  0  0  0  0  0  0  0  0
    0.9640    0.4100    0.7050 C   0  0  0  0  0  0  0  0  0  0  0  0
    1.8590   -0.6660    0.8040 O   0  0  0  0  0  0  0  0  0  0  0  0
    1.3320   -1.9730    0.6670 C   0  0  0  0  0  0  0  0  0  0  0  0
    2.6060   -3.2420    0.8190 S   0  0  0  0  0  0  0  0  0  0  0  0
    3.7930   -3.2090   -0.5450 C   0  0  0  0  0  0  0  0  0  0  0  0
    4.6090   -1.9370   -0.4880 C   0  0  0  0  0  0  0  0  0  0  0  0
    5.2830   -1.9280    0.7430 O   0  0  0  0  0  0  0  0  0  0  0  0
    5.9880   -0.8000    0.7470 O   0  0  0  0  0  0  0  0  0  0  0  0
   -0.0050    0.3700   -0.1550 N   0  0  0  0  0  0  0  0  0  0  0  0
   -0.9600    1.4100   -0.3300 C   0  0  0  0  0  0  0  0  0  0  0  0
   -1.9220    1.3230   -1.2120 N   0  0  0  0  0  0  0  0  0  0  0  0
   -1.9640    0.1130   -1.9990 C   0  0  0  0  0  0  0  0  0  0  0  0
   -2.1610   -1.0440   -1.4030 C   0  0  0  0  0  0  0  0  0  0  0  0
   -2.2030   -2.2310   -2.1700 N   0  0  0  0  0  0  0  0  0  0  0  0
   -2.8770   -3.3910   -1.5730 C   0  0  0  0  0  0  0  0  0  0  0  0
   -4.3560   -3.0450   -1.5080 C   0  0  0  0  0  0  0  0  0  0  0  0
   -4.4860   -1.9010   -0.7150 O   0  0  0  0  0  0  0  0  0  0  0  0
   -0.8500    2.5410    0.4700 O   0  0  0  0  0  0  0  0  0  0  0  0
  1  2  1  0
  2  3  2  3
  3  4  1  0
  3  5  1  0
  5  6  2  3
  6  7  1  0
  6 25  1  0
  7  8  1  0
  8  9  1  0
  8 16  2  0
  9 10  1  0
 10 11  1  0
 11 12  1  0
 12 13  1  0
 13 14  1  0
 14 15  1  0
 16 17  1  0
 17 18  2  3
 17 25  1  0
 18 19  1  0
 19 20  2  3
 20 21  1  0
 21 22  1  0
 22 23  1  0
 23 24  1  0
M  END
