
     RDKit          3D

 13 13  0  0  0  0  0  0  0  0999 V2000
   -2.9740    0.4300   -0.7290 C   0  0  0  0  0  0  0  0  0  0  0  0
   -1.9360   -0.2680    0.0850 C   0  0  1  0  0  0  0  0  0  0  0  0
   -2.3670   -0.4630    1.5170 C   0  0  0  0  0  0  0  0  0  0  0  0
   -1.4640   -1.8360   -0.6020 Cl  0  0  0  0  0  0  0  0  0  0  0  0
   -0.7080    0.5970    0.0770 C   0  0  0  0  0  0  0  0  0  0  0  0
    0.4890    0.0910   -0.0780 C   0  0  0  0  0  0  0  0  0  0  0  0
    1.7620    0.8410   -0.1030 C   0  0  0  0  0  0  0  0  0  0  0  0
    2.6870   -0.1900    0.3130 N   0  0  0  0  0  0  0  0  0  0  0  0
    4.3770    0.2090    0.0480 P   0  0  0  0  0  0  0  0  0  0  0  0
    5.3280    0.3980    1.2590 O   0  0  0  0  0  0  0  0  0  0  0  0
    2.2420   -1.3060   -0.3860 N   0  0  0  0  0  0  0  0  0  0  0  0
    2.5060   -1.2770   -1.6890 O   0  0  0  0  0  0  0  0  0  0  0  0
    0.8500   -1.2310   -0.2530 O   0  0  0  0  0  0  0  0  0  0  0  0
  2  1  1  6
  2  3  1  0
  2  4  1  0
  2  5  1  0
  5  6  2  3
  6  7  1  0
  6 13  1  0
  7  8  1  0
  8  9  1  0
  8 11  1  0
  9 10  2  0
 11 12  1  0
 11 13  1  0
M  END
