
     RDKit          3D

 10  9  0  0  0  0  0  0  0  0999 V2000
    2.3000    0.0990    1.1610 O   0  0  0  0  0  0  0  0  0  0  0  0
    1.3650   -0.3580    0.4150 C   0  0  0  0  0  0  0  0  0  0  0  0
    1.7490   -0.5760   -0.9250 N   0  0  0  0  0  0  0  0  0  0  0  0
    3.0240   -0.3090   -1.3640 O   0  0  0  0  0  0  0  0  0  0  0  0
   -0.0060   -0.6320    0.9250 C   0  0  1  0  0  0  0  0  0  0  0  0
    0.1210   -0.4160    2.3240 F   0  0  0  0  0  0  0  0  0  0  0  0
   -1.3230    0.1220    0.2570 P   0  0  0  0  0  0  0  0  0  0  0  0
   -1.1150   -0.5490   -1.1970 O   0  0  0  0  0  0  0  0  0  0  0  0
   -0.5320    1.5660    0.6020 O   0  0  0  0  0  0  0  0  0  0  0  0
   -2.5120    1.0050   -0.1650 O   0  0  0  0  0  0  0  0  0  0  0  0
  1  2  2  0
  2  3  1  0
  2  5  1  0
  3  4  1  0
  5  6  1  1
  5  7  1  0
  7  8  1  0
  7  9  1  0
  7 10  1  0
M  END
