
     RDKit          3D

 13 14  0  0  0  0  0  0  0  0999 V2000
    3.3060   -0.8900    0.7380 O   0  0  0  0  0  0  0  0  0  0  0  0
    2.5660    0.1450    0.1730 C   0  0  1  0  0  0  0  0  0  0  0  0
    3.7370    1.2450   -0.6190 Cl  0  0  0  0  0  0  0  0  0  0  0  0
    1.6690   -0.3900   -0.9120 C   0  0  0  0  0  0  0  0  0  0  0  0
    0.6200   -1.3340   -0.4320 C   0  0  0  0  0  0  0  0  0  0  0  0
   -0.6030   -0.7020    0.0520 C   0  0  0  0  0  0  0  0  0  0  0  0
   -1.6900   -0.9250   -0.5800 N   0  0  0  0  0  0  0  0  0  0  0  0
   -3.0190   -0.4820   -0.3820 C   0  0  0  0  0  0  0  0  0  0  0  0
   -3.3000    0.8730   -0.6970 O   0  0  0  0  0  0  0  0  0  0  0  0
   -3.1610    1.9940    0.1620 C   0  0  0  0  0  0  0  0  0  0  0  0
   -1.9100    2.0290    1.2950 P   0  0  0  0  0  0  0  0  0  0  0  0
   -0.4060    0.3900    1.5540 P   0  0  0  0  0  0  0  0  0  0  0  0
    1.6590    1.1450    1.4340 P   0  0  0  0  0  0  0  0  0  0  0  0
  2  1  1  1
  2  3  1  0
  2  4  1  0
  2 13  1  0
  4  5  1  0
  5  6  1  0
  6  7  2  0
  6 12  1  0
  7  8  1  0
  8  9  1  0
  9 10  1  0
 10 11  2  0
 11 12  1  0
 12 13  1  0
M  END
