
     RDKit          3D

 13 13  0  0  0  0  0  0  0  0999 V2000
   -3.4080    1.0800    0.5830 C   0  0  0  0  0  0  0  0  0  0  0  0
   -2.4960    0.2410   -0.1520 N   0  0  0  0  0  0  0  0  0  0  0  0
   -2.6920   -1.0650   -0.6840 C   0  0  0  0  0  0  0  0  0  0  0  0
   -1.5350   -1.6260   -0.8000 N   0  0  0  0  0  0  0  0  0  0  0  0
   -0.5740   -0.6560   -0.3310 C   0  0  2  0  0  0  0  0  0  0  0  0
    0.6950   -0.7650   -1.1350 C   0  0  0  0  0  0  0  0  0  0  0  0
    1.6980    0.2230   -0.6700 C   0  0  0  0  0  0  0  0  0  0  0  0
    1.4530    1.5860   -0.6980 O   0  0  0  0  0  0  0  0  0  0  0  0
    2.8550   -0.2000   -0.2170 C   0  0  0  0  0  0  0  0  0  0  0  0
    4.0790    1.0190    0.3520 P   0  0  0  0  0  0  0  0  0  0  0  0
   -0.3080   -0.8730    1.0190 O   0  0  0  0  0  0  0  0  0  0  0  0
    0.3170   -2.4390    1.1790 Cl  0  0  0  0  0  0  0  0  0  0  0  0
   -1.2240    0.5470   -0.4900 O   0  0  0  0  0  0  0  0  0  0  0  0
  1  2  1  0
  2  3  1  0
  2 13  1  0
  3  4  2  0
  4  5  1  0
  5  6  1  6
  5 11  1  0
  5 13  1  0
  6  7  1  0
  7  8  1  0
  7  9  2  3
  9 10  1  0
 11 12  1  0
M  END
