
     RDKit          3D

 12 11  0  0  0  0  0  0  0  0999 V2000
   -3.8020    0.4480    0.1670 C   0  0  0  0  0  0  0  0  0  0  0  0
   -2.6450    0.9060   -0.6350 C   0  0  0  0  0  0  0  0  0  0  0  0
   -1.4990    0.4050   -0.4310 N   0  0  0  0  0  0  0  0  0  0  0  0
   -1.3320   -0.5990    0.5730 C   0  0  0  0  0  0  0  0  0  0  0  0
   -0.0080   -0.5260    1.0030 O   0  0  0  0  0  0  0  0  0  0  0  0
    0.8920   -0.7290    0.0400 N   0  0  0  0  0  0  0  0  0  0  0  0
    0.9880   -1.9780   -0.6090 C   0  0  0  0  0  0  0  0  0  0  0  0
    0.2530   -2.9710   -0.3390 O   0  0  0  0  0  0  0  0  0  0  0  0
    1.9900    0.5950   -0.4330 P   0  0  0  0  0  0  0  0  0  0  0  0
    3.5870    0.5670    0.0940 C   0  0  0  0  0  0  0  0  0  0  0  0
    4.5160    1.6100   -0.2590 C   0  0  0  0  0  0  0  0  0  0  0  0
    5.6930    1.5590    0.1470 O   0  0  0  0  0  0  0  0  0  0  0  0
  1  2  1  0
  2  3  2  3
  3  4  1  0
  4  5  1  0
  5  6  1  0
  6  7  1  0
  6  9  1  0
  7  8  2  0
  9 10  2  3
 10 11  1  0
 11 12  2  0
M  END
