
     RDKit          3D

 26 27  0  0  0  0  0  0  0  0999 V2000
   -3.0080    3.3400    0.1210 O   0  0  0  0  0  0  0  0  0  0  0  0
   -1.9830    3.9360   -0.2370 C   0  0  0  0  0  0  0  0  0  0  0  0
   -2.1260    5.2940   -0.6000 O   0  0  0  0  0  0  0  0  0  0  0  0
   -0.6920    3.3230   -0.2950 C   0  0  0  0  0  0  0  0  0  0  0  0
   -0.3440    2.0940   -0.0050 C   0  0  0  0  0  0  0  0  0  0  0  0
   -1.2520    1.0740    0.4530 N   0  0  0  0  0  0  0  0  0  0  0  0
   -0.8790   -0.2480    0.7640 C   0  0  0  0  0  0  0  0  0  0  0  0
   -1.7390   -1.3290    1.2610 C   0  0  0  0  0  0  0  0  0  0  0  0
   -2.7780   -1.7940    0.5240 O   0  0  0  0  0  0  0  0  0  0  0  0
   -3.9470   -1.3210    0.0890 C   0  0  0  0  0  0  0  0  0  0  0  0
   -4.2740   -0.1490    0.4000 O   0  0  0  0  0  0  0  0  0  0  0  0
   -4.8650   -2.0960   -0.7290 N   0  0  0  0  0  0  0  0  0  0  0  0
   -6.0970   -1.5670   -1.1750 C   0  0  0  0  0  0  0  0  0  0  0  0
   -6.3880   -0.3940   -0.8450 O   0  0  0  0  0  0  0  0  0  0  0  0
   -6.9870   -2.2910   -1.9580 O   0  0  0  0  0  0  0  0  0  0  0  0
    0.4380   -0.5200    0.6020 C   0  0  0  0  0  0  0  0  0  0  0  0
    1.3870    0.4760    0.1440 C   0  0  0  0  0  0  0  0  0  0  0  0
    2.7630    0.4090   -0.0880 C   0  0  0  0  0  0  0  0  0  0  0  0
    3.7290   -1.0710    0.1610 S   0  0  0  0  0  0  0  0  0  0  0  0
    4.3730   -1.1670    1.8630 C   0  0  0  0  0  0  0  0  0  0  0  0
    5.1070   -2.3550    1.9420 O   0  0  0  0  0  0  0  0  0  0  0  0
    6.1310   -2.2420    0.9860 C   0  0  0  0  0  0  0  0  0  0  0  0
    6.9460   -3.3560    0.9500 O   0  0  0  0  0  0  0  0  0  0  0  0
    3.1880    1.6110   -0.5100 N   0  0  0  0  0  0  0  0  0  0  0  0
    2.1360    2.4390   -0.5560 C   0  0  0  0  0  0  0  0  0  0  0  0
    1.0400    1.7370   -0.1550 N   0  0  0  0  0  0  0  0  0  0  0  0
  1  2  2  0
  2  3  1  0
  2  4  1  0
  4  5  2  3
  5  6  1  0
  5 26  1  0
  6  7  1  0
  7  8  1  0
  7 16  2  0
  8  9  1  0
  9 10  1  0
 10 11  2  0
 10 12  1  0
 12 13  1  0
 13 14  2  0
 13 15  1  0
 16 17  1  0
 17 18  2  0
 17 26  1  0
 18 19  1  0
 18 24  1  0
 19 20  1  0
 20 21  1  0
 21 22  1  0
 22 23  1  0
 24 25  2  0
 25 26  1  0
M  END
