
     RDKit          3D

 13 14  0  0  0  0  0  0  0  0999 V2000
    2.2500   -0.9940   -1.3670 C   0  0  0  0  0  0  0  0  0  0  0  0
    1.8310   -0.0230   -0.3160 C   0  0  0  0  0  0  0  0  0  0  0  0
    2.7570    0.5900    0.4960 C   0  0  0  0  0  0  0  0  0  0  0  0
    4.1270    0.3080    0.3480 O   0  0  0  0  0  0  0  0  0  0  0  0
    2.3040    1.4530    1.4210 N   0  0  0  0  0  0  0  0  0  0  0  0
    1.0120    1.7450    1.5900 C   0  0  0  0  0  0  0  0  0  0  0  0
    0.0380    1.1550    0.7970 C   0  0  0  0  0  0  0  0  0  0  0  0
    0.4680    0.2670   -0.1580 C   0  0  0  0  0  0  0  0  0  0  0  0
   -0.7380   -0.2250   -0.8730 C   0  0  0  0  0  0  0  0  0  0  0  0
   -1.8440    0.1240    0.0980 C   0  0  2  0  0  0  0  0  0  0  0  0
   -2.0110   -1.0310    1.0610 C   0  0  0  0  0  0  0  0  0  0  0  0
   -3.1150    0.4120   -0.6390 C   0  0  0  0  0  0  0  0  0  0  0  0
   -1.3610    1.2870    0.7720 O   0  0  0  0  0  0  0  0  0  0  0  0
  1  2  1  0
  2  3  2  0
  2  8  1  0
  3  4  1  0
  3  5  1  0
  5  6  2  0
  6  7  1  0
  7  8  2  0
  7 13  1  0
  8  9  1  0
  9 10  1  0
 10 11  1  1
 10 12  1  0
 10 13  1  0
M  END
