
     RDKit          3D

 22 24  0  0  0  0  0  0  0  0999 V2000
   -2.3230    2.2970   -0.8830 C   0  0  0  0  0  0  0  0  0  0  0  0
   -1.6300    0.9860   -0.5220 C   0  0  0  0  0  0  0  0  0  0  0  0
   -0.3650    0.6860   -0.8590 C   0  0  0  0  0  0  0  0  0  0  0  0
    0.1690   -0.4840   -0.5050 C   0  0  0  0  0  0  0  0  0  0  0  0
    1.5260   -1.0660   -0.7400 C   0  0  0  0  0  0  0  0  0  0  0  0
    2.4360   -0.8750    0.3380 N   0  0  0  0  0  0  0  0  0  0  0  0
    2.7010    0.4800    0.6610 C   0  0  0  0  0  0  0  0  0  0  0  0
    4.1270    0.8820    0.6180 C   0  0  0  0  0  0  0  0  0  0  0  0
    4.7510    1.9780    0.3030 C   0  0  0  0  0  0  0  0  0  0  0  0
    6.2050    1.7740    0.4570 C   0  0  0  0  0  0  0  0  0  0  0  0
    6.3300    0.3760    0.9150 C   0  0  0  0  0  0  0  0  0  0  0  0
    5.1210   -0.1130    0.9990 C   0  0  0  0  0  0  0  0  0  0  0  0
    4.5470   -1.4500    1.3930 C   0  0  0  0  0  0  0  0  0  0  0  0
    3.5500   -1.7590    0.2660 C   0  0  2  0  0  0  0  0  0  0  0  0
    4.3140   -1.6800   -1.0380 C   0  0  0  0  0  0  0  0  0  0  0  0
   -1.1130   -1.3040    0.3700 S   0  0  0  0  0  0  0  0  0  0  0  0
   -2.3340    0.0590    0.1850 C   0  0  0  0  0  0  0  0  0  0  0  0
   -3.6930    0.0320    0.7140 C   0  0  0  0  0  0  0  0  0  0  0  0
   -4.7370   -0.2180   -0.3530 C   0  0  0  0  0  0  0  0  0  0  0  0
   -6.0660   -0.2430    0.1730 N   0  0  2  0  0  0  0  0  0  0  0  0
   -6.2140    0.6380    1.3410 C   0  0  0  0  0  0  0  0  0  0  0  0
   -6.5370   -1.5780    0.4760 C   0  0  0  0  0  0  0  0  0  0  0  0
  1  2  1  0
  2  3  1  0
  2 17  2  0
  3  4  2  0
  4  5  1  0
  4 16  1  0
  5  6  1  0
  6  7  1  0
  6 14  1  0
  7  8  1  0
  8  9  2  0
  8 12  1  0
  9 10  1  0
 10 11  1  0
 11 12  2  0
 12 13  1  0
 13 14  1  0
 14 15  1  6
 16 17  1  0
 17 18  1  0
 18 19  1  0
 19 20  1  0
 20 21  1  1
 20 22  1  0
M  CHG  1  20   1
M  END
