
     RDKit          3D

 22 24  0  0  0  0  0  0  0  0999 V2000
    6.4490    1.5660    0.1470 C   0  0  0  0  0  0  0  0  0  0  0  0
    6.4770    0.7740   -1.1280 C   0  0  0  0  0  0  0  0  0  0  0  0
    5.8230   -0.5430   -0.9340 C   0  0  0  0  0  0  0  0  0  0  0  0
    4.5070   -0.6320   -0.7760 C   0  0  0  0  0  0  0  0  0  0  0  0
    3.8890   -1.8460   -0.5960 C   0  0  0  0  0  0  0  0  0  0  0  0
    2.5330   -1.9410   -0.4330 C   0  0  0  0  0  0  0  0  0  0  0  0
    1.6930   -0.8010   -0.4410 C   0  0  0  0  0  0  0  0  0  0  0  0
    2.3520    0.3780   -0.6240 C   0  0  0  0  0  0  0  0  0  0  0  0
    3.7220    0.5010   -0.7900 C   0  0  0  0  0  0  0  0  0  0  0  0
    1.0850    1.6370   -0.6350 S   0  0  0  0  0  0  0  0  0  0  0  0
   -0.2280    0.4810   -0.3460 N   0  0  0  0  0  0  0  0  0  0  0  0
   -1.5820    0.9170   -0.1710 C   0  0  0  0  0  0  0  0  0  0  0  0
   -2.1020    0.8280    1.2400 C   0  0  0  0  0  0  0  0  0  0  0  0
   -3.4880    1.2880    1.4510 C   0  0  0  0  0  0  0  0  0  0  0  0
   -4.5850    0.5860    0.8040 C   0  0  0  0  0  0  0  0  0  0  0  0
   -5.8660    1.1710    0.7870 C   0  0  0  0  0  0  0  0  0  0  0  0
   -6.9440    0.5400    0.2220 C   0  0  0  0  0  0  0  0  0  0  0  0
   -6.8180   -0.7070   -0.3590 C   0  0  0  0  0  0  0  0  0  0  0  0
   -5.5590   -1.2590   -0.3310 C   0  0  0  0  0  0  0  0  0  0  0  0
   -4.5070   -0.6160    0.2340 N   0  0  0  0  0  0  0  0  0  0  0  0
    0.4110   -0.7730   -0.3150 C   0  0  0  0  0  0  0  0  0  0  0  0
   -0.4290   -2.0340   -0.1650 C   0  0  0  0  0  0  0  0  0  0  0  0
  1  2  1  0
  2  3  1  0
  3  4  2  3
  4  5  1  0
  4  9  1  0
  5  6  2  0
  6  7  1  0
  7  8  1  0
  7 21  2  0
  8  9  2  0
  8 10  1  0
 10 11  1  0
 11 12  1  0
 11 21  1  0
 12 13  1  0
 13 14  1  0
 14 15  1  0
 15 16  2  0
 15 20  1  0
 16 17  1  0
 17 18  2  0
 18 19  1  0
 19 20  2  0
 21 22  1  0
M  CHG  1  20   1
M  END
