
     RDKit          3D

 22 24  0  0  0  0  0  0  0  0999 V2000
   -5.9220   -1.0750   -1.3590 C   0  0  0  0  0  0  0  0  0  0  0  0
   -5.7810   -0.5080    0.0780 C   0  0  0  0  0  0  0  0  0  0  0  0
   -6.8530   -0.6180    0.9430 C   0  0  0  0  0  0  0  0  0  0  0  0
   -6.2470    0.1540    2.4580 S   0  0  0  0  0  0  0  0  0  0  0  0
   -4.6060    0.5570    1.7920 C   0  0  0  0  0  0  0  0  0  0  0  0
   -4.6610    0.0830    0.5140 C   0  0  0  0  0  0  0  0  0  0  0  0
   -3.4420    0.2250   -0.4190 C   0  0  0  0  0  0  0  0  0  0  0  0
   -2.3820    0.8670    0.2800 N   0  0  1  0  0  0  0  0  0  0  0  0
   -1.7680    0.0410    1.2800 C   0  0  0  0  0  0  0  0  0  0  0  0
   -0.6200   -0.7940    0.8090 C   0  0  0  0  0  0  0  0  0  0  0  0
    0.3860   -0.1080    0.0500 N   0  0  0  0  0  0  0  0  0  0  0  0
    1.0970    0.8720    0.8440 C   0  0  0  0  0  0  0  0  0  0  0  0
    2.2950    1.4140    0.1080 C   0  0  0  0  0  0  0  0  0  0  0  0
    3.2890    0.3590   -0.1640 C   0  0  0  0  0  0  0  0  0  0  0  0
    4.5240    0.4940    0.3490 C   0  0  0  0  0  0  0  0  0  0  0  0
    5.6120   -0.4610    0.1640 C   0  0  2  0  0  0  0  0  0  0  0  0
    6.7300    0.2650   -0.5960 C   0  0  0  0  0  0  0  0  0  0  0  0
    5.2790   -1.6840   -0.6040 C   0  0  0  0  0  0  0  0  0  0  0  0
    3.9140   -1.7700   -1.1430 C   0  0  0  0  0  0  0  0  0  0  0  0
    3.0290   -0.8170   -0.9210 C   0  0  0  0  0  0  0  0  0  0  0  0
   -0.3180    0.5570   -1.0550 C   0  0  0  0  0  0  0  0  0  0  0  0
   -1.4050    1.4550   -0.5790 C   0  0  0  0  0  0  0  0  0  0  0  0
  1  2  1  0
  2  3  2  0
  2  6  1  0
  3  4  1  0
  4  5  1  0
  5  6  2  0
  6  7  1  0
  8  7  1  6
  8  9  1  0
  8 22  1  0
  9 10  1  0
 10 11  1  0
 11 12  1  0
 11 21  1  0
 12 13  1  0
 13 14  1  0
 14 15  2  0
 14 20  1  0
 15 16  1  0
 16 17  1  6
 16 18  1  0
 18 19  1  0
 19 20  2  0
 21 22  1  0
M  CHG  1   8   1
M  END
