
     RDKit          3D

 22 24  0  0  0  0  0  0  0  0999 V2000
    4.9190   -1.5800   -0.1850 C   0  0  0  0  0  0  0  0  0  0  0  0
    4.7180   -0.5090    0.6830 N   0  0  0  0  0  0  0  0  0  0  0  0
    3.4490    0.2810    1.1070 S   0  0  0  0  0  0  0  0  0  0  0  0
    1.9300   -0.0600    0.5090 C   0  0  0  0  0  0  0  0  0  0  0  0
    1.5700    0.2960   -0.7420 C   0  0  0  0  0  0  0  0  0  0  0  0
    0.2490   -0.0200   -1.2130 C   0  0  0  0  0  0  0  0  0  0  0  0
   -0.1070    0.3260   -2.4350 C   0  0  0  0  0  0  0  0  0  0  0  0
   -1.4550    0.0070   -2.9250 C   0  0  0  0  0  0  0  0  0  0  0  0
   -2.1980   -0.6960   -1.8560 C   0  0  0  0  0  0  0  0  0  0  0  0
   -2.1480   -2.0660   -1.7700 C   0  0  0  0  0  0  0  0  0  0  0  0
   -2.8500   -2.7070   -0.7650 C   0  0  0  0  0  0  0  0  0  0  0  0
   -3.5860   -1.9510    0.1300 C   0  0  0  0  0  0  0  0  0  0  0  0
   -3.6280   -0.5740    0.0330 C   0  0  0  0  0  0  0  0  0  0  0  0
   -4.4080    0.2180    0.9820 C   0  0  0  0  0  0  0  0  0  0  0  0
   -5.1130   -0.2670    1.9750 C   0  0  0  0  0  0  0  0  0  0  0  0
   -5.7790    0.8200    2.7390 C   0  0  0  0  0  0  0  0  0  0  0  0
   -5.3320    2.0340    2.0090 C   0  0  0  0  0  0  0  0  0  0  0  0
   -4.5470    1.6520    1.0060 C   0  0  0  0  0  0  0  0  0  0  0  0
   -2.9250   -0.0160   -0.9650 N   0  0  0  0  0  0  0  0  0  0  0  0
    4.0860    1.9140    1.0520 C   0  0  0  0  0  0  0  0  0  0  0  0
    5.5890    1.6590    0.9890 C   0  0  0  0  0  0  0  0  0  0  0  0
    5.8190    0.2310    1.3470 C   0  0  0  0  0  0  0  0  0  0  0  0
  1  2  1  0
  2  3  2  0
  2 22  1  0
  3  4  1  6
  3 20  1  0
  4  5  2  3
  5  6  1  0
  6  7  2  3
  7  8  1  0
  8  9  1  0
  9 10  2  0
  9 19  1  0
 10 11  1  0
 11 12  2  0
 12 13  1  0
 13 14  1  0
 13 19  2  0
 14 15  2  0
 14 18  1  0
 15 16  1  0
 16 17  1  0
 17 18  2  0
 20 21  1  0
 21 22  1  0
M  CHG  1   2   1
M  END
