
     RDKit          3D

 23 26  0  0  0  0  0  0  0  0999 V2000
    6.5020   -0.2060   -0.2530 C   0  0  0  0  0  0  0  0  0  0  0  0
    5.4760   -1.0180    0.1600 C   0  0  0  0  0  0  0  0  0  0  0  0
    4.1740   -0.5410    0.1510 C   0  0  0  0  0  0  0  0  0  0  0  0
    3.9120    0.7390   -0.2680 C   0  0  0  0  0  0  0  0  0  0  0  0
    2.6060    1.2740   -0.3130 N   0  0  0  0  0  0  0  0  0  0  0  0
    1.3890    0.5610   -0.1730 C   0  0  0  0  0  0  0  0  0  0  0  0
    0.2080    1.2450   -0.2350 N   0  0  0  0  0  0  0  0  0  0  0  0
   -1.0000    0.6730   -0.1260 C   0  0  0  0  0  0  0  0  0  0  0  0
   -2.1810    1.4600   -0.1620 N   0  0  0  0  0  0  0  0  0  0  0  0
   -3.5020    1.0000   -0.1820 C   0  0  0  0  0  0  0  0  0  0  0  0
   -3.9630    0.0440   -1.0790 C   0  0  0  0  0  0  0  0  0  0  0  0
   -5.2640   -0.4100   -1.0580 C   0  0  0  0  0  0  0  0  0  0  0  0
   -6.1730    0.0590   -0.1480 C   0  0  0  0  0  0  0  0  0  0  0  0
   -5.7510    1.0030    0.7500 C   0  0  0  0  0  0  0  0  0  0  0  0
   -4.4520    1.4600    0.7330 C   0  0  0  0  0  0  0  0  0  0  0  0
   -1.0550   -0.6710    0.0580 N   0  0  0  0  0  0  0  0  0  0  0  0
   -2.0530   -1.4990    0.2100 N   0  0  0  0  0  0  0  0  0  0  0  0
   -1.6460   -2.7680    0.3810 C   0  0  0  0  0  0  0  0  0  0  0  0
   -0.2730   -2.6920    0.3260 C   0  0  0  0  0  0  0  0  0  0  0  0
    0.0970   -1.3520    0.1200 C   0  0  0  0  0  0  0  0  0  0  0  0
    1.2890   -0.7560    0.0080 N   0  0  0  0  0  0  0  0  0  0  0  0
    4.9880    1.5270   -0.6780 C   0  0  0  0  0  0  0  0  0  0  0  0
    6.2790    1.0830   -0.6800 C   0  0  0  0  0  0  0  0  0  0  0  0
  1  2  2  0
  1 23  1  0
  2  3  1  0
  3  4  2  0
  4  5  1  0
  4 22  1  0
  5  6  1  0
  6  7  1  0
  6 21  2  0
  7  8  2  0
  8  9  1  0
  8 16  1  0
  9 10  1  0
 10 11  2  0
 10 15  1  0
 11 12  1  0
 12 13  2  0
 13 14  1  0
 14 15  2  0
 16 17  1  0
 16 20  1  0
 17 18  2  0
 18 19  1  0
 19 20  2  0
 20 21  1  0
 22 23  2  0
M  END
