
     RDKit          3D

 21 22  0  0  0  0  0  0  0  0999 V2000
    4.6320   -2.6470    1.3480 C   0  0  0  0  0  0  0  0  0  0  0  0
    3.5740   -3.0100    0.4310 C   0  0  0  0  0  0  0  0  0  0  0  0
    2.4360   -2.5470    0.0830 C   0  0  0  0  0  0  0  0  0  0  0  0
    1.6340   -1.4090    0.4410 C   0  0  0  0  0  0  0  0  0  0  0  0
    2.1880   -0.4260    1.4000 C   0  0  0  0  0  0  0  0  0  0  0  0
    3.3360    0.3920    0.8620 C   0  0  0  0  0  0  0  0  0  0  0  0
    2.9000    1.1500   -0.3100 N   0  0  0  0  0  0  0  0  0  0  0  0
    4.0630    1.6060   -1.0320 C   0  0  0  0  0  0  0  0  0  0  0  0
    0.4180   -1.2200   -0.1030 C   0  0  0  0  0  0  0  0  0  0  0  0
   -0.1040   -2.1710   -1.0680 C   0  0  0  0  0  0  0  0  0  0  0  0
   -1.1550   -1.9280   -1.8510 C   0  0  0  0  0  0  0  0  0  0  0  0
   -1.8190   -0.6420   -1.7010 C   0  0  0  0  0  0  0  0  0  0  0  0
   -1.4450    0.2420   -0.8310 C   0  0  0  0  0  0  0  0  0  0  0  0
   -2.0760    1.5730   -0.6470 C   0  0  1  0  0  0  0  0  0  0  0  0
   -3.2340    1.9380   -1.4240 C   0  0  0  0  0  0  0  0  0  0  0  0
   -4.5320    1.2690   -1.4010 C   0  0  0  0  0  0  0  0  0  0  0  0
   -5.2820    1.2790   -0.0760 C   0  0  0  0  0  0  0  0  0  0  0  0
   -2.2090    1.7490    0.8590 C   0  0  0  0  0  0  0  0  0  0  0  0
   -2.4890    0.3530    1.4190 C   0  0  0  0  0  0  0  0  0  0  0  0
   -1.0900   -0.2840    1.5670 C   0  0  0  0  0  0  0  0  0  0  0  0
   -0.3810   -0.0450    0.2260 C   0  0  1  0  0  0  0  0  0  0  0  0
  1  2  1  0
  2  3  2  3
  3  4  1  0
  4  5  1  0
  4  9  2  3
  5  6  1  0
  6  7  1  0
  7  8  1  0
  9 10  1  0
  9 21  1  0
 10 11  2  0
 11 12  1  0
 12 13  2  0
 13 14  1  0
 13 21  1  0
 14 15  1  6
 14 18  1  0
 15 16  1  0
 16 17  1  0
 18 19  1  0
 19 20  1  0
 21 20  1  1
M  CHG  1   7   1
M  END
