
     RDKit          3D

 10 10  0  0  0  0  0  0  0  0999 V2000
   -2.5590   -0.6520    0.7900 O   0  0  0  0  0  0  0  0  0  0  0  0
   -1.5720    0.3290    0.8220 C   0  0  0  0  0  0  0  0  0  0  0  0
   -0.5140    0.0470   -0.2260 C   0  0  2  0  0  0  0  0  0  0  0  0
   -1.1440    0.0470   -1.4570 O   0  0  0  0  0  0  0  0  0  0  0  0
    0.0300   -1.3370    0.0270 C   0  0  0  0  0  0  0  0  0  0  0  0
    1.3360   -1.5850   -0.6500 C   0  0  0  0  0  0  0  0  0  0  0  0
    2.2990   -0.6390   -0.4210 O   0  0  0  0  0  0  0  0  0  0  0  0
    1.8980    0.4540    0.2940 C   0  0  0  0  0  0  0  0  0  0  0  0
    0.5860    1.0460   -0.2320 C   0  0  2  0  0  0  0  0  0  0  0  0
    0.3290    2.1620    0.5620 O   0  0  0  0  0  0  0  0  0  0  0  0
  1  2  1  0
  2  3  1  0
  3  4  1  6
  3  5  1  0
  3  9  1  0
  5  6  1  0
  6  7  1  0
  7  8  1  0
  8  9  1  0
  9 10  1  1
M  END
