
     RDKit          3D

 10 10  0  0  0  0  0  0  0  0999 V2000
   -1.6080    0.6380   -0.8790 C   0  0  0  0  0  0  0  0  0  0  0  0
   -0.8140    0.4450    0.3690 C   0  0  1  0  0  0  0  0  0  0  0  0
   -0.8980    1.5750    1.1680 O   0  0  0  0  0  0  0  0  0  0  0  0
   -1.3770   -0.7520    1.1080 C   0  0  0  0  0  0  0  0  0  0  0  0
   -0.7060   -1.8030    0.4480 O   0  0  0  0  0  0  0  0  0  0  0  0
    0.6290   -1.4050    0.5490 C   0  0  0  0  0  0  0  0  0  0  0  0
    0.6060    0.0460    0.1410 C   0  0  2  0  0  0  0  0  0  0  0  0
    1.4460    0.8350    0.9190 O   0  0  0  0  0  0  0  0  0  0  0  0
    1.0540    0.1530   -1.2860 C   0  0  0  0  0  0  0  0  0  0  0  0
    2.3860   -0.3140   -1.3260 O   0  0  0  0  0  0  0  0  0  0  0  0
  2  1  1  6
  2  3  1  0
  2  4  1  0
  2  7  1  0
  4  5  1  0
  5  6  1  0
  6  7  1  0
  7  8  1  1
  7  9  1  0
  9 10  1  0
M  END
