
     RDKit          3D

 10 10  0  0  0  0  0  0  0  0999 V2000
    1.6650   -1.0080   -0.8970 O   0  0  0  0  0  0  0  0  0  0  0  0
    1.3920   -0.8650    0.4550 C   0  0  0  0  0  0  0  0  0  0  0  0
    0.4570    0.2660    0.7510 C   0  0  1  0  0  0  0  0  0  0  0  0
    1.1340    1.5450    0.2370 C   0  0  0  0  0  0  0  0  0  0  0  0
    0.8910    1.5150   -1.1140 O   0  0  0  0  0  0  0  0  0  0  0  0
   -0.3540    0.9690   -1.3310 C   0  0  0  0  0  0  0  0  0  0  0  0
   -0.7850    0.2720   -0.0770 C   0  0  2  0  0  0  0  0  0  0  0  0
   -1.7320    1.0730    0.5610 O   0  0  0  0  0  0  0  0  0  0  0  0
   -1.3830   -1.0800   -0.3160 C   0  0  0  0  0  0  0  0  0  0  0  0
   -1.7370   -1.6390    0.9020 O   0  0  0  0  0  0  0  0  0  0  0  0
  1  2  1  0
  3  2  1  6
  3  4  1  0
  3  7  1  0
  4  5  1  0
  5  6  1  0
  6  7  1  0
  7  8  1  1
  7  9  1  0
  9 10  1  0
M  END
