
     RDKit          3D

 25 27  0  0  0  0  0  0  0  0999 V2000
   -6.9020    0.4680    0.1340 C   0  0  0  0  0  0  0  0  0  0  0  0
   -5.4090    0.5670    0.1230 C   0  0  0  0  0  0  0  0  0  0  0  0
   -4.7580    1.3970    0.9900 C   0  0  0  0  0  0  0  0  0  0  0  0
   -3.3740    1.5060    0.9880 C   0  0  0  0  0  0  0  0  0  0  0  0
   -2.7700    2.3030    1.8270 O   0  0  0  0  0  0  0  0  0  0  0  0
   -2.6150    0.7470    0.0720 C   0  0  0  0  0  0  0  0  0  0  0  0
   -1.1630    0.9460    0.1180 C   0  0  2  0  0  0  0  0  0  0  0  0
   -0.3650   -0.0720   -0.6290 C   0  0  0  0  0  0  0  0  0  0  0  0
    0.8500   -0.3660    0.2110 N   0  0  1  0  0  0  0  0  0  0  0  0
    1.5860   -1.3460   -0.4330 C   0  0  0  0  0  0  0  0  0  0  0  0
    3.0630   -1.4410   -0.3840 C   0  0  1  0  0  0  0  0  0  0  0  0
    3.3490   -2.7360   -1.2320 C   0  0  0  0  0  0  0  0  0  0  0  0
    2.7250   -3.8040   -0.6370 O   0  0  0  0  0  0  0  0  0  0  0  0
    3.7490   -0.3720   -1.1840 C   0  0  0  0  0  0  0  0  0  0  0  0
    4.9120    0.2750   -0.5390 C   0  0  0  0  0  0  0  0  0  0  0  0
    5.3040   -0.2010    0.8120 C   0  0  0  0  0  0  0  0  0  0  0  0
    4.2750   -0.6840    1.5850 O   0  0  0  0  0  0  0  0  0  0  0  0
    3.6860   -1.7330    0.9290 C   0  0  0  0  0  0  0  0  0  0  0  0
    1.3840    0.9380    0.4520 C   0  0  0  0  0  0  0  0  0  0  0  0
    0.5160    1.5540    1.5650 C   0  0  1  0  0  0  0  0  0  0  0  0
    0.5560    3.0450    1.5210 C   0  0  0  0  0  0  0  0  0  0  0  0
   -0.7690    1.0370    1.4570 O   0  0  0  0  0  0  0  0  0  0  0  0
   -3.2840   -0.0820   -0.7920 C   0  0  0  0  0  0  0  0  0  0  0  0
   -4.6640   -0.1700   -0.7660 C   0  0  0  0  0  0  0  0  0  0  0  0
   -5.3650   -1.0750   -1.7090 C   0  0  0  0  0  0  0  0  0  0  0  0
  1  2  1  0
  2  3  2  0
  2 24  1  0
  3  4  1  0
  4  5  1  0
  4  6  2  0
  7  6  1  1
  6 23  1  0
  7  8  1  0
  7 22  1  0
  8  9  1  0
  9 10  1  6
  9 19  1  0
 11 10  1  1
 11 12  1  0
 11 14  1  0
 11 18  1  0
 12 13  1  0
 14 15  1  0
 15 16  1  0
 16 17  1  0
 17 18  1  0
 19 20  1  0
 20 21  1  6
 20 22  1  0
 23 24  2  0
 24 25  1  0
M  CHG  1   9   1
M  END
