
     RDKit          3D

 25 27  0  0  0  0  0  0  0  0999 V2000
   -3.3110    2.8950   -0.1680 N   0  0  0  0  0  0  0  0  0  0  0  0
   -3.6150    1.6090   -0.8160 C   0  0  2  0  0  0  0  0  0  0  0  0
   -4.7780    1.0260   -0.0320 C   0  0  0  0  0  0  0  0  0  0  0  0
   -5.1110   -0.3730   -0.4300 C   0  0  0  0  0  0  0  0  0  0  0  0
   -4.0840   -1.2650   -0.3940 O   0  0  0  0  0  0  0  0  0  0  0  0
   -4.0800   -2.1360    0.6730 C   0  0  0  0  0  0  0  0  0  0  0  0
   -2.8450   -3.0040    0.5950 C   0  0  0  0  0  0  0  0  0  0  0  0
   -1.8320   -2.4450   -0.1620 O   0  0  0  0  0  0  0  0  0  0  0  0
   -0.7380   -2.0350    0.6230 C   0  0  0  0  0  0  0  0  0  0  0  0
    0.3230   -1.5490   -0.3020 C   0  0  0  0  0  0  0  0  0  0  0  0
    0.6230   -0.0660   -0.1950 C   0  0  1  0  0  0  0  0  0  0  0  0
    0.5670    0.3700    1.2250 C   0  0  0  0  0  0  0  0  0  0  0  0
    1.4470    1.4950    1.6130 C   0  0  0  0  0  0  0  0  0  0  0  0
    2.8710    1.4080    1.1660 C   0  0  0  0  0  0  0  0  0  0  0  0
    3.0360    0.0630    0.4950 C   0  0  2  0  0  0  0  0  0  0  0  0
    4.4010   -0.1410   -0.0510 C   0  0  0  0  0  0  0  0  0  0  0  0
    5.3850    0.7290    0.0950 C   0  0  0  0  0  0  0  0  0  0  0  0
    6.7600    0.5190   -0.4580 C   0  0  0  0  0  0  0  0  0  0  0  0
    6.8460   -0.6970   -1.1330 O   0  0  0  0  0  0  0  0  0  0  0  0
    5.8300   -1.6100   -1.2920 C   0  0  0  0  0  0  0  0  0  0  0  0
    4.6360   -1.3740   -0.7830 C   0  0  0  0  0  0  0  0  0  0  0  0
    2.0860    0.0550   -0.6600 C   0  0  0  0  0  0  0  0  0  0  0  0
   -0.1230    0.6010   -1.0910 O   0  0  0  0  0  0  0  0  0  0  0  0
   -1.1020    1.4310   -0.7150 C   0  0  0  0  0  0  0  0  0  0  0  0
   -2.4450    0.7060   -0.6440 C   0  0  0  0  0  0  0  0  0  0  0  0
  2  1  1  1
  2  3  1  0
  2 25  1  0
  3  4  1  0
  4  5  1  0
  5  6  1  0
  6  7  1  0
  7  8  1  0
  8  9  1  0
  9 10  1  0
 11 10  1  1
 11 12  1  0
 11 22  1  0
 11 23  1  0
 12 13  1  0
 13 14  1  0
 14 15  1  0
 15 16  1  6
 15 22  1  0
 16 17  2  0
 16 21  1  0
 17 18  1  0
 18 19  1  0
 19 20  1  0
 20 21  2  0
 23 24  1  0
 24 25  1  0
M  CHG  1   1   1
M  END
