
     RDKit          3D

 28 30  0  0  0  0  0  0  0  0999 V2000
    4.6250    0.2020    1.1930 C   0  0  0  0  0  0  0  0  0  0  0  0
    4.0630   -0.7550    0.2230 C   0  0  0  0  0  0  0  0  0  0  0  0
    4.8210   -1.8960   -0.2360 C   0  0  0  0  0  0  0  0  0  0  0  0
    5.9980   -2.3410    0.0540 C   0  0  0  0  0  0  0  0  0  0  0  0
    7.0320   -1.8670    0.9680 C   0  0  0  0  0  0  0  0  0  0  0  0
    8.2320   -1.5650    0.2740 O   0  0  0  0  0  0  0  0  0  0  0  0
    2.8330   -0.5340   -0.2500 C   0  0  0  0  0  0  0  0  0  0  0  0
    2.1280   -1.4020   -1.2320 C   0  0  0  0  0  0  0  0  0  0  0  0
    0.7600   -0.7480   -1.4230 C   0  0  0  0  0  0  0  0  0  0  0  0
    0.5360   -0.1640   -0.0830 C   0  0  2  0  0  0  0  0  0  0  0  0
    0.5860   -1.2010    1.0170 C   0  0  0  0  0  0  0  0  0  0  0  0
   -0.3680   -2.2500    0.9060 N   0  0  0  0  0  0  0  0  0  0  0  0
   -0.4370    0.9030    0.1120 C   0  0  1  0  0  0  0  0  0  0  0  0
   -0.0500    2.0080   -0.7040 O   0  0  0  0  0  0  0  0  0  0  0  0
   -1.8650    0.6180   -0.0780 C   0  0  0  0  0  0  0  0  0  0  0  0
   -2.5470   -0.4020   -0.6930 C   0  0  0  0  0  0  0  0  0  0  0  0
   -3.9190   -0.1320   -0.5740 C   0  0  0  0  0  0  0  0  0  0  0  0
   -4.0770    1.0210    0.0950 N   0  0  0  0  0  0  0  0  0  0  0  0
   -2.8530    1.4870    0.4010 C   0  0  0  0  0  0  0  0  0  0  0  0
   -2.6240    2.7550    1.1410 C   0  0  0  0  0  0  0  0  0  0  0  0
   -5.2930    1.6690    0.4780 C   0  0  0  0  0  0  0  0  0  0  0  0
   -6.5090    1.5040   -0.2530 C   0  0  0  0  0  0  0  0  0  0  0  0
   -6.6350    0.8380   -1.5570 C   0  0  0  0  0  0  0  0  0  0  0  0
   -6.2710   -0.5580   -1.5130 O   0  0  0  0  0  0  0  0  0  0  0  0
   -4.9910   -0.9620   -1.1020 C   0  0  0  0  0  0  0  0  0  0  0  0
   -4.6940   -2.1980   -1.1870 O   0  0  0  0  0  0  0  0  0  0  0  0
    1.9320    0.5540    0.0690 C   0  0  2  0  0  0  0  0  0  0  0  0
    1.9540    1.4750   -0.9860 O   0  0  0  0  0  0  0  0  0  0  0  0
  1  2  1  0
  2  3  1  0
  2  7  2  3
  3  4  2  3
  4  5  1  0
  5  6  1  0
  7  8  1  0
  7 27  1  0
  8  9  1  0
  9 10  1  0
 10 11  1  1
 10 13  1  0
 10 27  1  0
 11 12  1  0
 13 14  1  6
 13 15  1  0
 15 16  1  0
 15 19  2  0
 16 17  2  0
 17 18  1  0
 17 25  1  0
 18 19  1  0
 18 21  1  0
 19 20  1  0
 21 22  1  0
 22 23  1  0
 23 24  1  0
 24 25  1  0
 25 26  2  0
 27 28  1  6
M  CHG  1  12   1
M  END
