
     RDKit          3D

 28 31  0  0  0  0  0  0  0  0999 V2000
   -5.9060    1.5810    0.0480 C   0  0  0  0  0  0  0  0  0  0  0  0
   -4.8330    0.5990    0.5840 C   0  0  1  0  0  0  0  0  0  0  0  0
   -4.3130    1.1780    1.8450 C   0  0  0  0  0  0  0  0  0  0  0  0
   -5.5950   -0.6870    0.7270 C   0  0  2  0  0  0  0  0  0  0  0  0
   -4.9210   -1.7550    1.3970 N   0  0  0  0  0  0  0  0  0  0  0  0
   -5.5480   -1.1220   -0.7580 C   0  0  2  0  0  0  0  0  0  0  0  0
   -5.9270   -2.4850   -0.8850 N   0  0  0  0  0  0  0  0  0  0  0  0
   -4.1780   -1.0440   -0.9240 O   0  0  0  0  0  0  0  0  0  0  0  0
   -3.9080    0.3130   -0.5030 C   0  0  2  0  0  0  0  0  0  0  0  0
   -2.4680    0.3850   -0.3150 C   0  0  0  0  0  0  0  0  0  0  0  0
   -1.7440   -0.4810    0.4990 C   0  0  0  0  0  0  0  0  0  0  0  0
   -0.3740   -0.4400    0.5280 C   0  0  0  0  0  0  0  0  0  0  0  0
    0.3710    0.4560   -0.2420 C   0  0  0  0  0  0  0  0  0  0  0  0
    1.7090    0.4170   -0.1620 O   0  0  0  0  0  0  0  0  0  0  0  0
    2.7640    1.1260   -0.5560 C   0  0  0  0  0  0  0  0  0  0  0  0
    4.0540    0.3210   -0.5060 C   0  0  0  0  0  0  0  0  0  0  0  0
    4.3120   -0.5230   -1.5960 C   0  0  0  0  0  0  0  0  0  0  0  0
    5.5640   -1.0580   -1.7150 C   0  0  0  0  0  0  0  0  0  0  0  0
    6.5610   -0.8030   -0.8160 C   0  0  0  0  0  0  0  0  0  0  0  0
    6.2970    0.0220    0.2520 C   0  0  0  0  0  0  0  0  0  0  0  0
    5.0070    0.5820    0.3790 C   0  0  0  0  0  0  0  0  0  0  0  0
    4.7660    1.4170    1.4570 O   0  0  0  0  0  0  0  0  0  0  0  0
    7.2940    0.2420    1.1440 O   0  0  0  0  0  0  0  0  0  0  0  0
    8.6720    0.0640    0.8900 C   0  0  0  0  0  0  0  0  0  0  0  0
    8.9870   -0.8410   -0.2910 C   0  0  0  0  0  0  0  0  0  0  0  0
    7.8340   -1.3140   -0.9100 O   0  0  0  0  0  0  0  0  0  0  0  0
   -0.3220    1.3440   -1.0740 C   0  0  0  0  0  0  0  0  0  0  0  0
   -1.7110    1.2720   -1.0750 C   0  0  0  0  0  0  0  0  0  0  0  0
  2  1  1  6
  2  3  1  0
  2  4  1  0
  2  9  1  0
  4  5  1  1
  4  6  1  0
  6  7  1  1
  6  8  1  0
  8  9  1  0
  9 10  1  1
 10 11  2  0
 10 28  1  0
 11 12  1  0
 12 13  2  0
 13 14  1  0
 13 27  1  0
 14 15  1  0
 15 16  1  0
 16 17  2  0
 16 21  1  0
 17 18  1  0
 18 19  2  0
 19 20  1  0
 19 26  1  0
 20 21  2  0
 20 23  1  0
 21 22  1  0
 23 24  1  0
 24 25  1  0
 25 26  1  0
 27 28  2  0
M  CHG  1   5   1
M  END
