
     RDKit          3D

 28 31  0  0  0  0  0  0  0  0999 V2000
   -1.9760    2.2030    2.8430 N   0  0  0  0  0  0  0  0  0  0  0  0
   -2.1770    0.7980    2.5370 C   0  0  0  0  0  0  0  0  0  0  0  0
   -1.9960    0.6570    1.0210 C   0  0  2  0  0  0  0  0  0  0  0  0
   -2.9480    1.4620    0.4090 O   0  0  0  0  0  0  0  0  0  0  0  0
   -4.1860    0.8520    0.3390 C   0  0  0  0  0  0  0  0  0  0  0  0
   -4.0040   -0.3820   -0.5380 C   0  0  2  0  0  0  0  0  0  0  0  0
   -3.4800    0.0930   -1.8680 C   0  0  0  0  0  0  0  0  0  0  0  0
   -4.5730    0.6430   -2.7510 C   0  0  0  0  0  0  0  0  0  0  0  0
   -5.5410   -0.3590   -2.8970 O   0  0  0  0  0  0  0  0  0  0  0  0
   -6.2430   -0.3800   -1.6720 C   0  0  0  0  0  0  0  0  0  0  0  0
   -5.3620   -1.0590   -0.6710 C   0  0  0  0  0  0  0  0  0  0  0  0
   -3.1820   -1.2580    0.1120 O   0  0  0  0  0  0  0  0  0  0  0  0
   -1.9930   -0.7630    0.5890 C   0  0  1  0  0  0  0  0  0  0  0  0
   -0.8860   -1.1350   -0.3620 C   0  0  0  0  0  0  0  0  0  0  0  0
    0.4600   -0.9100    0.2250 C   0  0  0  0  0  0  0  0  0  0  0  0
    0.5890   -0.4710    1.3720 O   0  0  0  0  0  0  0  0  0  0  0  0
    1.6130   -1.1990   -0.5300 N   0  0  0  0  0  0  0  0  0  0  0  0
    2.9560   -1.0300   -0.0890 C   0  0  1  0  0  0  0  0  0  0  0  0
    3.7880   -2.2540   -0.1000 C   0  0  0  0  0  0  0  0  0  0  0  0
    5.1870   -1.9720    0.3330 C   0  0  0  0  0  0  0  0  0  0  0  0
    5.5600   -0.5300    0.3850 C   0  0  0  0  0  0  0  0  0  0  0  0
    6.6940   -0.1410    1.1190 C   0  0  0  0  0  0  0  0  0  0  0  0
    7.0640    1.1730    1.1800 C   0  0  0  0  0  0  0  0  0  0  0  0
    6.3160    2.1200    0.5160 C   0  0  0  0  0  0  0  0  0  0  0  0
    5.1850    1.7260   -0.2150 C   0  0  0  0  0  0  0  0  0  0  0  0
    4.8220    0.4100   -0.2710 C   0  0  0  0  0  0  0  0  0  0  0  0
    3.6380   -0.0150   -1.0240 C   0  0  2  0  0  0  0  0  0  0  0  0
    2.7230    0.9950   -1.2590 O   0  0  0  0  0  0  0  0  0  0  0  0
  1  2  1  0
  3  2  1  1
  3  4  1  0
  3 13  1  0
  4  5  1  0
  6  5  1  1
  6  7  1  0
  6 11  1  0
  6 12  1  0
  7  8  1  0
  8  9  1  0
  9 10  1  0
 10 11  1  0
 12 13  1  0
 13 14  1  6
 14 15  1  0
 15 16  2  0
 15 17  1  0
 18 17  1  6
 18 19  1  0
 18 27  1  0
 19 20  1  0
 20 21  1  0
 21 22  2  0
 21 26  1  0
 22 23  1  0
 23 24  2  0
 24 25  1  0
 25 26  2  0
 26 27  1  0
 27 28  1  1
M  CHG  1   1   1
M  END
