
     RDKit          3D

 26 29  0  0  0  0  0  0  0  0999 V2000
    5.6310    0.2890    2.6260 C   0  0  0  0  0  0  0  0  0  0  0  0
    4.3080    0.5470    1.9650 C   0  0  0  0  0  0  0  0  0  0  0  0
    3.7670   -0.7360    1.5450 N   0  0  0  0  0  0  0  0  0  0  0  0
    2.5300   -0.5490    0.9200 N   0  0  0  0  0  0  0  0  0  0  0  0
    2.4500    0.0860   -0.3520 C   0  0  0  0  0  0  0  0  0  0  0  0
    3.5180    0.5530   -1.0570 N   0  0  0  0  0  0  0  0  0  0  0  0
    3.0830    1.0870   -2.2020 C   0  0  0  0  0  0  0  0  0  0  0  0
    3.4590    1.7020   -3.3430 N   0  0  0  0  0  0  0  0  0  0  0  0
    2.3740    1.9320   -4.0220 N   0  0  0  0  0  0  0  0  0  0  0  0
    1.2740    1.4940   -3.3810 C   0  0  0  0  0  0  0  0  0  0  0  0
    1.6990    0.9330   -2.1840 C   0  0  0  0  0  0  0  0  0  0  0  0
    1.3290    0.3220   -1.0510 N   0  0  0  0  0  0  0  0  0  0  0  0
   -0.0110   -0.0160   -0.6590 C   0  0  0  0  0  0  0  0  0  0  0  0
   -0.3850   -1.3200   -0.4330 C   0  0  0  0  0  0  0  0  0  0  0  0
   -1.6710   -1.6220   -0.0580 C   0  0  0  0  0  0  0  0  0  0  0  0
   -2.1080   -3.0320    0.1950 C   0  0  1  0  0  0  0  0  0  0  0  0
   -2.6390   -3.1230    1.6060 C   0  0  0  0  0  0  0  0  0  0  0  0
   -3.2300   -3.4000   -0.7480 C   0  0  0  0  0  0  0  0  0  0  0  0
   -2.5550   -0.6310    0.0830 N   0  0  0  0  0  0  0  0  0  0  0  0
   -2.2150    0.6450   -0.1310 C   0  0  0  0  0  0  0  0  0  0  0  0
   -3.2060    1.7330    0.0300 C   0  0  0  0  0  0  0  0  0  0  0  0
   -3.0560    3.0280   -0.1350 C   0  0  0  0  0  0  0  0  0  0  0  0
   -4.3410    3.7170    0.1430 C   0  0  0  0  0  0  0  0  0  0  0  0
   -5.2190    2.6460    0.4820 N   0  0  0  0  0  0  0  0  0  0  0  0
   -4.5810    1.5310    0.4180 C   0  0  0  0  0  0  0  0  0  0  0  0
   -0.9540    0.9220   -0.4960 N   0  0  0  0  0  0  0  0  0  0  0  0
  1  2  1  0
  2  3  1  0
  3  4  1  0
  4  5  1  0
  5  6  2  0
  5 12  1  0
  6  7  1  0
  7  8  1  0
  7 11  2  0
  8  9  1  0
  9 10  2  0
 10 11  1  0
 11 12  1  0
 12 13  1  0
 13 14  2  0
 13 26  1  0
 14 15  1  0
 15 16  1  0
 15 19  2  0
 16 17  1  1
 16 18  1  0
 19 20  1  0
 20 21  1  0
 20 26  2  0
 21 22  2  0
 21 25  1  0
 22 23  1  0
 23 24  1  0
 24 25  2  0
M  END
