
     RDKit          3D

 26 29  0  0  0  0  0  0  0  0999 V2000
    5.4580    4.8040   -0.7650 N   0  0  0  0  0  0  0  0  0  0  0  0
    4.3570    4.4680   -0.8820 C   0  0  0  0  0  0  0  0  0  0  0  0
    2.9820    4.0570   -1.0500 C   0  0  0  0  0  0  0  0  0  0  0  0
    1.9320    4.7200   -1.6420 C   0  0  0  0  0  0  0  0  0  0  0  0
    0.8250    3.9270   -1.5650 N   0  0  0  0  0  0  0  0  0  0  0  0
    1.1310    2.7980   -0.9520 N   0  0  0  0  0  0  0  0  0  0  0  0
    0.3870    1.7070   -0.6390 C   0  0  0  0  0  0  0  0  0  0  0  0
   -0.9830    1.6210   -0.9540 N   0  0  0  0  0  0  0  0  0  0  0  0
   -1.7380    0.4410   -0.6300 C   0  0  0  0  0  0  0  0  0  0  0  0
   -3.1880    0.6690   -1.0630 C   0  0  0  0  0  0  0  0  0  0  0  0
   -4.0080   -0.5280   -0.7610 C   0  0  0  0  0  0  0  0  0  0  0  0
   -4.1740   -1.5820   -1.6370 C   0  0  0  0  0  0  0  0  0  0  0  0
   -4.9720   -2.4630   -1.0090 N   0  0  0  0  0  0  0  0  0  0  0  0
   -5.3090   -2.0020    0.2220 C   0  0  0  0  0  0  0  0  0  0  0  0
   -4.6920   -0.7980    0.3420 N   0  0  0  0  0  0  0  0  0  0  0  0
    0.9660    0.6780   -0.0010 N   0  0  0  0  0  0  0  0  0  0  0  0
    2.2630    0.6810    0.3440 C   0  0  0  0  0  0  0  0  0  0  0  0
    2.9470   -0.3430    1.0140 N   0  0  0  0  0  0  0  0  0  0  0  0
    2.3990   -1.5800    1.4460 C   0  0  0  0  0  0  0  0  0  0  0  0
    3.1110   -2.3630    2.3730 C   0  0  0  0  0  0  0  0  0  0  0  0
    2.6310   -3.5760    2.8150 C   0  0  0  0  0  0  0  0  0  0  0  0
    1.4330   -4.0830    2.3730 C   0  0  0  0  0  0  0  0  0  0  0  0
    0.7240   -3.3300    1.4670 C   0  0  0  0  0  0  0  0  0  0  0  0
    1.2060   -2.0920    1.0100 C   0  0  0  0  0  0  0  0  0  0  0  0
    2.9770    1.8030    0.0080 N   0  0  0  0  0  0  0  0  0  0  0  0
    2.4360    2.8400   -0.6240 C   0  0  0  0  0  0  0  0  0  0  0  0
  1  2  3  0
  2  3  1  0
  3  4  1  0
  3 26  2  0
  4  5  2  0
  5  6  1  0
  6  7  1  0
  6 26  1  0
  7  8  1  0
  7 16  2  0
  8  9  1  0
  9 10  1  0
 10 11  1  0
 11 12  2  0
 11 15  1  0
 12 13  1  0
 13 14  2  0
 14 15  1  0
 16 17  1  0
 17 18  1  0
 17 25  2  0
 18 19  1  0
 19 20  2  0
 19 24  1  0
 20 21  1  0
 21 22  2  0
 22 23  1  0
 23 24  2  0
 25 26  1  0
M  END
