
     RDKit          3D

 26 29  0  0  0  0  0  0  0  0999 V2000
    8.2590    0.0790   -0.0610 C   0  0  0  0  0  0  0  0  0  0  0  0
    7.2940    0.7160    0.9190 C   0  0  0  0  0  0  0  0  0  0  0  0
    5.9400    0.1360    0.8000 C   0  0  0  0  0  0  0  0  0  0  0  0
    5.4730   -0.9590    1.5070 C   0  0  0  0  0  0  0  0  0  0  0  0
    4.1750   -1.1330    1.0740 C   0  0  0  0  0  0  0  0  0  0  0  0
    3.2720   -2.1950    1.5590 C   0  0  0  0  0  0  0  0  0  0  0  0
    3.8650   -0.1970    0.1540 N   0  0  0  0  0  0  0  0  0  0  0  0
    2.6140   -0.0520   -0.5250 C   0  0  0  0  0  0  0  0  0  0  0  0
    2.3770   -0.2840   -1.8240 N   0  0  0  0  0  0  0  0  0  0  0  0
    1.0850   -0.0380   -2.0910 N   0  0  0  0  0  0  0  0  0  0  0  0
    0.4890    0.3550   -0.9530 C   0  0  0  0  0  0  0  0  0  0  0  0
   -0.9210    0.7160   -0.8280 C   0  0  0  0  0  0  0  0  0  0  0  0
   -1.5870    1.1160    0.2710 N   0  0  0  0  0  0  0  0  0  0  0  0
   -2.8540    1.3500   -0.0260 N   0  0  0  0  0  0  0  0  0  0  0  0
   -3.0330    1.1010   -1.3410 C   0  0  0  0  0  0  0  0  0  0  0  0
   -4.3060    1.2280   -2.1220 C   0  0  0  0  0  0  0  0  0  0  0  0
   -5.4160    1.5120   -1.2690 N   0  0  0  0  0  0  0  0  0  0  0  0
   -5.8280    0.6220   -0.2600 C   0  0  0  0  0  0  0  0  0  0  0  0
   -5.2060   -0.5930   -0.0700 C   0  0  0  0  0  0  0  0  0  0  0  0
   -5.6010   -1.4780    0.9210 C   0  0  0  0  0  0  0  0  0  0  0  0
   -6.6510   -1.1390    1.7500 C   0  0  0  0  0  0  0  0  0  0  0  0
   -7.3000    0.0760    1.5870 C   0  0  0  0  0  0  0  0  0  0  0  0
   -6.8780    0.9340    0.5870 C   0  0  0  0  0  0  0  0  0  0  0  0
   -1.8350    0.7140   -1.8120 N   0  0  0  0  0  0  0  0  0  0  0  0
    1.4380    0.3410   -0.0030 N   0  0  0  0  0  0  0  0  0  0  0  0
    4.9480    0.5410    0.0200 N   0  0  0  0  0  0  0  0  0  0  0  0
  1  2  1  0
  2  3  1  0
  3  4  1  0
  3 26  2  0
  4  5  2  0
  5  6  1  0
  5  7  1  0
  7  8  1  0
  7 26  1  0
  8  9  2  0
  8 25  1  0
  9 10  1  0
 10 11  1  0
 11 12  1  0
 11 25  2  0
 12 13  2  0
 12 24  1  0
 13 14  1  0
 14 15  1  0
 15 16  1  0
 15 24  2  0
 16 17  1  0
 17 18  1  0
 18 19  2  0
 18 23  1  0
 19 20  1  0
 20 21  2  0
 21 22  1  0
 22 23  2  0
M  END
