
     RDKit          3D

 41 45  0  0  0  0  0  0  0  0999 V2000
   -5.8590    0.5920    2.9590 C   0  0  0  0  0  0  0  0  0  0  0  0
   -6.3100   -0.4780    2.1350 N   0  0  0  0  0  0  0  0  0  0  0  0
   -7.5910   -1.0480    2.5170 C   0  0  0  0  0  0  0  0  0  0  0  0
   -8.4900   -0.9980    1.3610 N   0  0  0  0  0  0  0  0  0  0  0  0
   -7.6180   -0.7970    0.1670 C   0  0  0  0  0  0  0  0  0  0  0  0
   -6.7530   -1.9850   -0.0770 C   0  0  0  0  0  0  0  0  0  0  0  0
   -5.3850   -1.6980    0.3490 N   0  0  0  0  0  0  0  0  0  0  0  0
   -4.8150   -0.7560   -0.5220 C   0  0  0  0  0  0  0  0  0  0  0  0
   -3.3750   -0.5730   -0.5660 C   0  0  0  0  0  0  0  0  0  0  0  0
   -2.5020   -1.3520    0.1260 C   0  0  0  0  0  0  0  0  0  0  0  0
   -1.1060   -1.1780   -0.0250 C   0  0  0  0  0  0  0  0  0  0  0  0
   -0.6070   -0.2340   -0.8610 C   0  0  0  0  0  0  0  0  0  0  0  0
    0.7520   -0.1340   -1.1910 N   0  0  0  0  0  0  0  0  0  0  0  0
    1.8830   -0.6950   -0.5220 C   0  0  0  0  0  0  0  0  0  0  0  0
    1.7250   -1.3270    0.5050 O   0  0  0  0  0  0  0  0  0  0  0  0
    3.2150   -0.4750   -1.1530 C   0  0  0  0  0  0  0  0  0  0  0  0
    3.2080   -0.4980   -2.5380 C   0  0  0  0  0  0  0  0  0  0  0  0
    4.3260   -0.2500   -3.2450 C   0  0  0  0  0  0  0  0  0  0  0  0
    5.5140    0.0310   -2.5560 C   0  0  0  0  0  0  0  0  0  0  0  0
    6.6140    0.4140   -3.4420 C   0  0  0  0  0  0  0  0  0  0  0  0
    7.5120    0.7210   -4.1390 N   0  0  0  0  0  0  0  0  0  0  0  0
    5.5640    0.0580   -1.1850 C   0  0  0  0  0  0  0  0  0  0  0  0
    6.7860    0.3390   -0.5780 N   0  0  0  0  0  0  0  0  0  0  0  0
    7.0590    0.4670    0.8020 C   0  0  0  0  0  0  0  0  0  0  0  0
    6.1240    0.3180    1.6420 O   0  0  0  0  0  0  0  0  0  0  0  0
    8.4170    0.7720    1.2590 C   0  0  0  0  0  0  0  0  0  0  0  0
    9.4450   -0.1790    1.2290 C   0  0  0  0  0  0  0  0  0  0  0  0
   10.7060    0.1230    1.6570 C   0  0  0  0  0  0  0  0  0  0  0  0
   11.6950   -0.8310    1.5920 F   0  0  0  0  0  0  0  0  0  0  0  0
   11.0560    1.3590    2.1410 C   0  0  0  0  0  0  0  0  0  0  0  0
   10.0280    2.3050    2.1690 C   0  0  0  0  0  0  0  0  0  0  0  0
   10.3690    3.5270    2.6130 F   0  0  0  0  0  0  0  0  0  0  0  0
    8.7600    2.0040    1.7400 C   0  0  0  0  0  0  0  0  0  0  0  0
    4.3790   -0.2030   -0.4870 C   0  0  0  0  0  0  0  0  0  0  0  0
   -1.5180    0.5630   -1.5610 C   0  0  0  0  0  0  0  0  0  0  0  0
   -1.0450    1.5330   -2.3980 C   0  0  0  0  0  0  0  0  0  0  0  0
   -1.9380    2.3490   -3.1090 C   0  0  0  0  0  0  0  0  0  0  0  0
   -3.2820    2.1600   -2.9540 C   0  0  0  0  0  0  0  0  0  0  0  0
   -3.7870    1.1860   -2.1100 C   0  0  0  0  0  0  0  0  0  0  0  0
   -2.8820    0.4040   -1.4250 C   0  0  0  0  0  0  0  0  0  0  0  0
   -5.3130   -1.4440    1.7570 C   0  0  0  0  0  0  0  0  0  0  0  0
  1  2  1  0
  2  3  1  0
  2 41  1  0
  3  4  1  0
  4  5  1  0
  5  6  1  0
  6  7  1  0
  7  8  1  0
  7 41  1  0
  8  9  1  0
  9 10  2  0
  9 40  1  0
 10 11  1  0
 11 12  2  0
 12 13  1  0
 12 35  1  0
 13 14  1  0
 14 15  2  0
 14 16  1  0
 16 17  2  0
 16 34  1  0
 17 18  1  0
 18 19  2  0
 19 20  1  0
 19 22  1  0
 20 21  3  0
 22 23  1  0
 22 34  2  0
 23 24  1  0
 24 25  2  0
 24 26  1  0
 26 27  2  0
 26 33  1  0
 27 28  1  0
 28 29  1  0
 28 30  2  0
 30 31  1  0
 31 32  1  0
 31 33  2  0
 35 36  2  0
 35 40  1  0
 36 37  1  0
 37 38  2  0
 38 39  1  0
 39 40  2  0
M  CHG  1   4   1
M  END
