
     RDKit          3D

 41 45  0  0  0  0  0  0  0  0999 V2000
   -0.1500    4.7180   -2.3670 C   0  0  0  0  0  0  0  0  0  0  0  0
    0.8540    3.9620   -1.6970 O   0  0  0  0  0  0  0  0  0  0  0  0
    0.4890    2.6920   -1.2740 C   0  0  0  0  0  0  0  0  0  0  0  0
   -0.7560    2.1540   -1.4690 C   0  0  0  0  0  0  0  0  0  0  0  0
   -1.1160    0.8930   -1.0490 C   0  0  0  0  0  0  0  0  0  0  0  0
   -2.4590    0.3870   -1.2850 C   0  0  0  0  0  0  0  0  0  0  0  0
   -3.3370    1.2000   -1.6670 O   0  0  0  0  0  0  0  0  0  0  0  0
   -2.8460   -0.9610   -1.1140 N   0  0  0  0  0  0  0  0  0  0  0  0
   -4.1600   -1.4450   -1.3450 C   0  0  0  0  0  0  0  0  0  0  0  0
   -4.5110   -1.8720   -2.5960 C   0  0  0  0  0  0  0  0  0  0  0  0
   -3.5030   -1.8200   -3.7120 C   0  0  0  0  0  0  0  0  0  0  0  0
   -5.7860   -2.3480   -2.8280 C   0  0  0  0  0  0  0  0  0  0  0  0
   -6.7340   -2.4110   -1.8330 C   0  0  0  0  0  0  0  0  0  0  0  0
   -6.3590   -1.9690   -0.5560 C   0  0  0  0  0  0  0  0  0  0  0  0
   -5.0930   -1.4920   -0.3060 C   0  0  0  0  0  0  0  0  0  0  0  0
   -4.5890   -1.0060    0.9890 C   0  0  0  0  0  0  0  0  0  0  0  0
   -5.5480   -1.0610    2.0400 N   0  0  1  0  0  0  0  0  0  0  0  0
   -6.7090   -0.2300    1.8690 C   0  0  0  0  0  0  0  0  0  0  0  0
   -5.9340   -2.4150    2.3870 C   0  0  0  0  0  0  0  0  0  0  0  0
   -0.1470    0.1590   -0.3990 C   0  0  0  0  0  0  0  0  0  0  0  0
    1.1230    0.6350   -0.1670 C   0  0  0  0  0  0  0  0  0  0  0  0
    1.4290    1.9130   -0.6160 C   0  0  0  0  0  0  0  0  0  0  0  0
    2.7360    2.4340   -0.4630 N   0  0  0  0  0  0  0  0  0  0  0  0
    3.6700    1.7210    0.0900 C   0  0  0  0  0  0  0  0  0  0  0  0
    4.9770    2.3960    0.1930 C   0  0  0  0  0  0  0  0  0  0  0  0
    5.5890    2.9140   -0.9320 C   0  0  0  0  0  0  0  0  0  0  0  0
    6.7610    3.5470   -0.8090 N   0  0  0  0  0  0  0  0  0  0  0  0
    7.3850    3.7080    0.3790 C   0  0  0  0  0  0  0  0  0  0  0  0
    8.6280    4.3850    0.4750 N   0  0  0  0  0  0  0  0  0  0  0  0
    6.8090    3.2070    1.5280 C   0  0  0  0  0  0  0  0  0  0  0  0
    7.4110    3.3500    2.7440 F   0  0  0  0  0  0  0  0  0  0  0  0
    5.5830    2.5420    1.4140 C   0  0  0  0  0  0  0  0  0  0  0  0
    3.4440    0.3660    0.4590 N   0  0  0  0  0  0  0  0  0  0  0  0
    4.6220   -0.4460    0.7030 C   0  0  0  0  0  0  0  0  0  0  0  0
    4.3730   -1.8720    0.8990 C   0  0  0  0  0  0  0  0  0  0  0  0
    4.6180   -2.5600    2.0060 C   0  0  0  0  0  0  0  0  0  0  0  0
    4.2550   -3.9820    1.8690 C   0  0  0  0  0  0  0  0  0  0  0  0
    3.7630   -4.0460    0.4810 C   0  0  0  0  0  0  0  0  0  0  0  0
    3.8380   -2.8300   -0.0520 C   0  0  0  0  0  0  0  0  0  0  0  0
    3.4580   -2.6120   -1.3370 F   0  0  0  0  0  0  0  0  0  0  0  0
    2.1030   -0.1690    0.5900 C   0  0  0  0  0  0  0  0  0  0  0  0
  1  2  1  0
  2  3  1  0
  3  4  2  0
  3 22  1  0
  4  5  1  0
  5  6  1  0
  5 20  2  0
  6  7  2  0
  6  8  1  0
  8  9  1  0
  9 10  2  0
  9 15  1  0
 10 11  1  0
 10 12  1  0
 12 13  2  0
 13 14  1  0
 14 15  2  0
 15 16  1  0
 16 17  1  0
 17 18  1  6
 17 19  1  0
 20 21  1  0
 21 22  2  0
 21 41  1  0
 22 23  1  0
 23 24  2  0
 24 25  1  0
 24 33  1  0
 25 26  2  0
 25 32  1  0
 26 27  1  0
 27 28  2  0
 28 29  1  0
 28 30  1  0
 30 31  1  0
 30 32  2  0
 33 34  1  0
 33 41  1  0
 34 35  1  0
 35 36  2  0
 35 39  1  0
 36 37  1  0
 37 38  1  0
 38 39  2  0
 39 40  1  0
M  CHG  1  17   1
M  END
