
     RDKit          3D

 40 44  0  0  0  0  0  0  0  0999 V2000
   -4.4150    3.0110    2.0640 C   0  0  0  0  0  0  0  0  0  0  0  0
   -3.6210    3.0310    0.7770 C   0  0  0  0  0  0  0  0  0  0  0  0
   -2.5340    2.1020    0.8950 N   0  0  2  0  0  0  0  0  0  0  0  0
   -1.3790    2.4490    0.1450 C   0  0  0  0  0  0  0  0  0  0  0  0
   -1.5810    2.2260   -1.2990 C   0  0  0  0  0  0  0  0  0  0  0  0
   -2.5940    1.2470   -1.7340 C   0  0  0  0  0  0  0  0  0  0  0  0
   -3.0510    0.2680   -0.6840 C   0  0  2  0  0  0  0  0  0  0  0  0
   -2.3450   -1.0160   -0.9160 C   0  0  0  0  0  0  0  0  0  0  0  0
   -2.9140   -2.0720   -1.3320 O   0  0  0  0  0  0  0  0  0  0  0  0
   -0.9190   -1.1730   -0.6810 N   0  0  0  0  0  0  0  0  0  0  0  0
   -0.2640   -2.4020   -0.9080 C   0  0  0  0  0  0  0  0  0  0  0  0
    1.1750   -2.4440   -0.6270 C   0  0  0  0  0  0  0  0  0  0  0  0
    1.8070   -3.5440   -0.8200 O   0  0  0  0  0  0  0  0  0  0  0  0
    1.8830   -1.3280   -0.1550 N   0  0  0  0  0  0  0  0  0  0  0  0
    3.2640   -1.3020    0.1270 C   0  0  0  0  0  0  0  0  0  0  0  0
    4.1180   -2.2960   -0.2220 C   0  0  0  0  0  0  0  0  0  0  0  0
    5.4860   -2.1650    0.0580 C   0  0  0  0  0  0  0  0  0  0  0  0
    5.9710   -1.0440    0.6800 C   0  0  0  0  0  0  0  0  0  0  0  0
    5.0820   -0.0250    1.0350 C   0  0  0  0  0  0  0  0  0  0  0  0
    3.7440   -0.1430    0.7670 C   0  0  0  0  0  0  0  0  0  0  0  0
    2.7700    0.9310    1.1830 C   0  0  0  0  0  0  0  0  0  0  0  0
    5.6050    1.1740    1.6950 C   0  0  0  0  0  0  0  0  0  0  0  0
    7.0360    1.4460    1.3510 C   0  0  0  0  0  0  0  0  0  0  0  0
    7.8200    0.2620    1.6040 N   0  0  0  0  0  0  0  0  0  0  0  0
    8.8980    0.2170    2.3920 F   0  0  0  0  0  0  0  0  0  0  0  0
    7.4050   -0.9490    0.9530 C   0  0  0  0  0  0  0  0  0  0  0  0
    8.2270   -1.8920    0.6260 C   0  0  0  0  0  0  0  0  0  0  0  0
    9.6210   -1.7080    0.9350 N   0  0  0  0  0  0  0  0  0  0  0  0
   10.3990   -0.8740    0.0700 C   0  0  0  0  0  0  0  0  0  0  0  0
   -4.4520   -0.0590   -1.0280 N   0  0  0  0  0  0  0  0  0  0  0  0
   -4.5910   -0.5780   -2.3470 C   0  0  0  0  0  0  0  0  0  0  0  0
   -5.7320   -1.0640   -2.8040 C   0  0  0  0  0  0  0  0  0  0  0  0
   -6.9020   -1.0690   -1.9360 C   0  0  0  0  0  0  0  0  0  0  0  0
   -8.1020   -1.6250   -2.3610 C   0  0  0  0  0  0  0  0  0  0  0  0
   -9.1760   -1.6660   -1.5040 C   0  0  0  0  0  0  0  0  0  0  0  0
   -9.0740   -1.1600   -0.2320 C   0  0  0  0  0  0  0  0  0  0  0  0
   -7.9120   -0.6170    0.1900 C   0  0  0  0  0  0  0  0  0  0  0  0
   -6.7990   -0.5670   -0.6770 C   0  0  0  0  0  0  0  0  0  0  0  0
   -5.5550    0.0750   -0.2040 C   0  0  0  0  0  0  0  0  0  0  0  0
   -2.8400    0.7230    0.7020 C   0  0  0  0  0  0  0  0  0  0  0  0
  1  2  1  0
  3  2  1  6
  3  4  1  0
  3 40  1  0
  4  5  1  0
  5  6  1  0
  6  7  1  0
  7  8  1  0
  7 30  1  6
  7 40  1  0
  8  9  2  0
  8 10  1  0
 10 11  1  0
 11 12  1  0
 12 13  2  0
 12 14  1  0
 14 15  1  0
 15 16  2  0
 15 20  1  0
 16 17  1  0
 17 18  2  0
 18 19  1  0
 18 26  1  0
 19 20  2  0
 19 22  1  0
 20 21  1  0
 22 23  1  0
 23 24  1  0
 24 25  1  0
 24 26  1  0
 26 27  2  3
 27 28  1  0
 28 29  1  0
 30 31  1  0
 30 39  1  0
 31 32  2  0
 32 33  1  0
 33 34  2  0
 33 38  1  0
 34 35  1  0
 35 36  2  0
 36 37  1  0
 37 38  2  0
 38 39  1  0
M  CHG  1   3   1
M  END
