
     RDKit          3D

 41 45  0  0  0  0  0  0  0  0999 V2000
   -4.6390   -5.3880    2.3810 C   0  0  0  0  0  0  0  0  0  0  0  0
   -4.7520   -4.1710    1.5650 C   0  0  0  0  0  0  0  0  0  0  0  0
   -5.2230   -4.1530    0.2660 C   0  0  0  0  0  0  0  0  0  0  0  0
   -5.2960   -2.9760   -0.4420 C   0  0  0  0  0  0  0  0  0  0  0  0
   -4.9060   -1.7870    0.1080 C   0  0  0  0  0  0  0  0  0  0  0  0
   -4.9640   -0.4730   -0.6360 C   0  0  0  0  0  0  0  0  0  0  0  0
   -3.6720    0.1740   -0.5080 N   0  0  0  0  0  0  0  0  0  0  0  0
   -2.5210   -0.2980   -1.1960 C   0  0  0  0  0  0  0  0  0  0  0  0
   -2.6410   -1.3010   -2.1110 C   0  0  0  0  0  0  0  0  0  0  0  0
   -1.5340   -1.7570   -2.7800 C   0  0  0  0  0  0  0  0  0  0  0  0
   -0.2960   -1.2050   -2.5310 C   0  0  0  0  0  0  0  0  0  0  0  0
   -0.1310   -0.1640   -1.5900 C   0  0  0  0  0  0  0  0  0  0  0  0
    1.2240    0.1710   -1.3080 N   0  0  0  0  0  0  0  0  0  0  0  0
    2.2760    0.1600   -2.2550 C   0  0  0  0  0  0  0  0  0  0  0  0
    2.0230   -0.1330   -3.4460 O   0  0  0  0  0  0  0  0  0  0  0  0
    3.6750    0.4750   -1.9640 C   0  0  0  0  0  0  0  0  0  0  0  0
    4.3780    1.1400   -2.9940 C   0  0  0  0  0  0  0  0  0  0  0  0
    5.6710    1.5370   -2.7920 C   0  0  0  0  0  0  0  0  0  0  0  0
    6.3030    1.2930   -1.5790 C   0  0  0  0  0  0  0  0  0  0  0  0
    5.5820    0.6470   -0.6150 C   0  0  0  0  0  0  0  0  0  0  0  0
    4.2470    0.2190   -0.7830 C   0  0  0  0  0  0  0  0  0  0  0  0
    3.6520   -0.4880    0.2660 N   0  0  0  0  0  0  0  0  0  0  0  0
    3.1350   -1.8450    0.3280 C   0  0  0  0  0  0  0  0  0  0  0  0
    3.5240   -2.3090    1.7420 C   0  0  1  0  0  0  0  0  0  0  0  0
    4.9420   -2.8240    1.7880 C   0  0  0  0  0  0  0  0  0  0  0  0
    3.4320   -1.0850    2.5930 C   0  0  0  0  0  0  0  0  0  0  0  0
    3.4630    0.0120    1.5930 C   0  0  0  0  0  0  0  0  0  0  0  0
    3.3290    1.2200    1.9520 O   0  0  0  0  0  0  0  0  0  0  0  0
   -1.2300    0.2820   -0.9380 C   0  0  0  0  0  0  0  0  0  0  0  0
   -1.2730    1.3930   -0.0070 C   0  0  0  0  0  0  0  0  0  0  0  0
   -0.1330    2.1190    0.3240 N   0  0  0  0  0  0  0  0  0  0  0  0
    0.4400    2.9360   -0.7130 C   0  0  0  0  0  0  0  0  0  0  0  0
    0.2120    4.3840   -0.5530 C   0  0  0  0  0  0  0  0  0  0  0  0
   -0.8920    4.9540    0.0080 C   0  0  0  0  0  0  0  0  0  0  0  0
   -1.0710    6.3320    0.1310 C   0  0  0  0  0  0  0  0  0  0  0  0
   -0.0740    7.1510   -0.3440 C   0  0  0  0  0  0  0  0  0  0  0  0
    1.0140    6.5460   -0.8990 C   0  0  0  0  0  0  0  0  0  0  0  0
    1.1820    5.2300   -1.0140 N   0  0  0  0  0  0  0  0  0  0  0  0
   -4.4330   -1.7880    1.4070 C   0  0  0  0  0  0  0  0  0  0  0  0
   -4.3580   -2.9590    2.1220 C   0  0  0  0  0  0  0  0  0  0  0  0
   -3.8490   -2.8870    3.5250 C   0  0  0  0  0  0  0  0  0  0  0  0
  1  2  1  0
  2  3  2  0
  2 40  1  0
  3  4  1  0
  4  5  2  0
  5  6  1  0
  5 39  1  0
  6  7  1  0
  7  8  1  0
  8  9  2  0
  8 29  1  0
  9 10  1  0
 10 11  2  0
 11 12  1  0
 12 13  1  0
 12 29  2  0
 13 14  1  0
 14 15  2  0
 14 16  1  0
 16 17  2  0
 16 21  1  0
 17 18  1  0
 18 19  2  0
 19 20  1  0
 20 21  2  0
 21 22  1  0
 22 23  1  0
 22 27  1  0
 23 24  1  0
 24 25  1  6
 24 26  1  0
 26 27  1  0
 27 28  2  0
 29 30  1  0
 30 31  1  0
 31 32  1  0
 32 33  1  0
 33 34  2  0
 33 38  1  0
 34 35  1  0
 35 36  2  0
 36 37  1  0
 37 38  2  0
 39 40  2  0
 40 41  1  0
M  CHG  2  31   1  38   1
M  END
