
     RDKit          3D

 41 46  0  0  0  0  0  0  0  0999 V2000
   -6.0240    3.1430    0.0710 C   0  0  0  0  0  0  0  0  0  0  0  0
   -4.8500    2.3580   -0.1430 N   0  0  0  0  0  0  0  0  0  0  0  0
   -4.5400    1.4220    0.9110 C   0  0  1  0  0  0  0  0  0  0  0  0
   -5.6840    0.4390    1.0030 C   0  0  0  0  0  0  0  0  0  0  0  0
   -5.5350   -0.2410   -0.2820 N   0  0  0  0  0  0  0  0  0  0  0  0
   -4.1090   -0.4380   -0.4580 C   0  0  2  0  0  0  0  0  0  0  0  0
   -3.7670   -1.8200    0.0620 C   0  0  0  0  0  0  0  0  0  0  0  0
   -3.4560    0.5520    0.4600 C   0  0  0  0  0  0  0  0  0  0  0  0
   -2.1650    0.6510    0.8410 C   0  0  0  0  0  0  0  0  0  0  0  0
   -1.2650   -0.3370    0.2440 C   0  0  0  0  0  0  0  0  0  0  0  0
   -1.0540   -0.2800   -1.1100 C   0  0  0  0  0  0  0  0  0  0  0  0
   -0.2560   -1.2070   -1.7420 C   0  0  0  0  0  0  0  0  0  0  0  0
    0.3120   -2.1780   -0.9710 C   0  0  0  0  0  0  0  0  0  0  0  0
    0.1280   -2.2740    0.3840 C   0  0  0  0  0  0  0  0  0  0  0  0
   -0.6870   -1.3200    0.9970 C   0  0  0  0  0  0  0  0  0  0  0  0
   -0.8770   -1.4950    2.3310 F   0  0  0  0  0  0  0  0  0  0  0  0
   -1.7620    1.6390    1.7760 N   0  0  0  0  0  0  0  0  0  0  0  0
   -0.4160    1.7690    2.1550 C   0  0  0  0  0  0  0  0  0  0  0  0
    0.4690    2.7110    1.4370 C   0  0  0  0  0  0  0  0  0  0  0  0
    0.6550    2.4800    0.0190 N   0  0  0  0  0  0  0  0  0  0  0  0
   -0.0690    2.9890   -0.9840 C   0  0  0  0  0  0  0  0  0  0  0  0
    0.4480    2.5400   -2.1310 N   0  0  0  0  0  0  0  0  0  0  0  0
    1.4940    1.7480   -1.8680 C   0  0  0  0  0  0  0  0  0  0  0  0
    2.3830    1.0250   -2.6310 C   0  0  0  0  0  0  0  0  0  0  0  0
    3.4010    0.2630   -2.0640 C   0  0  0  0  0  0  0  0  0  0  0  0
    3.5390    0.2190   -0.7000 C   0  0  0  0  0  0  0  0  0  0  0  0
    4.5920   -0.5830   -0.0270 C   0  0  0  0  0  0  0  0  0  0  0  0
    4.9050   -0.3240    1.1570 O   0  0  0  0  0  0  0  0  0  0  0  0
    5.2470   -1.6330   -0.6960 N   0  0  0  0  0  0  0  0  0  0  0  0
    6.2590   -2.4750   -0.1950 C   0  0  0  0  0  0  0  0  0  0  0  0
    6.7970   -2.3740    1.0580 C   0  0  0  0  0  0  0  0  0  0  0  0
    7.8100   -3.2400    1.5190 C   0  0  0  0  0  0  0  0  0  0  0  0
    8.3090   -4.2360    0.7180 C   0  0  0  0  0  0  0  0  0  0  0  0
    7.7750   -4.3450   -0.5400 C   0  0  0  0  0  0  0  0  0  0  0  0
    6.7880   -3.5020   -0.9910 C   0  0  0  0  0  0  0  0  0  0  0  0
    6.2680   -3.6240   -2.2470 F   0  0  0  0  0  0  0  0  0  0  0  0
    2.6430    0.9480    0.0630 C   0  0  0  0  0  0  0  0  0  0  0  0
    1.6220    1.7110   -0.5270 C   0  0  0  0  0  0  0  0  0  0  0  0
   -2.7980    2.4950    2.2820 C   0  0  0  0  0  0  0  0  0  0  0  0
   -2.4570    3.5660    2.7810 O   0  0  0  0  0  0  0  0  0  0  0  0
   -4.2330    2.1210    2.2150 C   0  0  0  0  0  0  0  0  0  0  0  0
  1  2  1  0
  3  2  1  6
  3  4  1  0
  3  8  1  0
  3 41  1  0
  4  5  1  0
  5  6  1  0
  6  7  1  1
  6  8  1  0
  8  9  2  0
  9 10  1  0
  9 17  1  0
 10 11  2  0
 10 15  1  0
 11 12  1  0
 12 13  2  0
 13 14  1  0
 14 15  2  0
 15 16  1  0
 17 18  1  0
 17 39  1  0
 18 19  1  0
 19 20  1  0
 20 21  1  0
 20 38  1  0
 21 22  2  0
 22 23  1  0
 23 24  2  0
 23 38  1  0
 24 25  1  0
 25 26  2  0
 26 27  1  0
 26 37  1  0
 27 28  2  0
 27 29  1  0
 29 30  1  0
 30 31  2  0
 30 35  1  0
 31 32  1  0
 32 33  2  0
 33 34  1  0
 34 35  2  0
 35 36  1  0
 37 38  2  0
 39 40  2  0
 39 41  1  0
M  CHG  1   5   1
M  END
