
     RDKit          3D

 11 11  0  0  0  0  0  0  0  0999 V2000
   -2.4170    1.1190   -0.4100 N   0  0  0  0  0  0  0  0  0  0  0  0
   -1.0930    0.5980   -0.0370 C   0  0  1  0  0  0  0  0  0  0  0  0
   -1.1780   -0.4290    1.0200 C   0  0  0  0  0  0  0  0  0  0  0  0
   -0.8090   -1.6850    0.7390 O   0  0  0  0  0  0  0  0  0  0  0  0
    0.0890   -1.9430   -0.2210 C   0  0  0  0  0  0  0  0  0  0  0  0
    0.6620   -0.8010   -0.9710 C   0  0  2  0  0  0  0  0  0  0  0  0
    1.8000   -0.1900   -0.2120 C   0  0  0  0  0  0  0  0  0  0  0  0
    2.3810    0.8860   -0.8610 O   0  0  0  0  0  0  0  0  0  0  0  0
    3.3650    1.3110   -0.0660 O   0  0  0  0  0  0  0  0  0  0  0  0
   -0.4300    0.1540   -1.3060 C   0  0  2  0  0  0  0  0  0  0  0  0
   -0.0020    1.2530   -2.0470 O   0  0  0  0  0  0  0  0  0  0  0  0
  2  1  1  6
  2  3  1  0
  2 10  1  0
  3  4  1  0
  4  5  1  0
  5  6  1  0
  6  7  1  1
  6 10  1  0
  7  8  1  0
  8  9  1  0
 10 11  1  1
M  CHG  1   1   1
M  END
