
     RDKit          3D

 11 11  0  0  0  0  0  0  0  0999 V2000
   -0.7830   -1.0770   -1.1010 N   0  0  0  0  0  0  0  0  0  0  0  0
   -0.6430   -0.1160   -0.0350 C   0  0  2  0  0  0  0  0  0  0  0  0
   -1.0770   -0.7200    1.2640 C   0  0  0  0  0  0  0  0  0  0  0  0
   -0.9610    0.1560    2.3210 O   0  0  0  0  0  0  0  0  0  0  0  0
   -1.5010    1.0840   -0.4220 C   0  0  0  0  0  0  0  0  0  0  0  0
   -0.5060    1.9470   -1.1410 C   0  0  0  0  0  0  0  0  0  0  0  0
    0.6950    1.2820   -1.1580 O   0  0  0  0  0  0  0  0  0  0  0  0
    0.7160    0.5320    0.0170 C   0  0  2  0  0  0  0  0  0  0  0  0
    1.8350   -0.4650    0.0450 C   0  0  2  0  0  0  0  0  0  0  0  0
    1.7830   -1.1610    1.2470 O   0  0  0  0  0  0  0  0  0  0  0  0
    3.0700    0.0920   -0.1580 O   0  0  0  0  0  0  0  0  0  0  0  0
  2  1  1  6
  2  3  1  0
  2  5  1  0
  2  8  1  0
  3  4  1  0
  5  6  1  0
  6  7  1  0
  8  7  1  6
  8  9  1  0
  9 10  1  1
  9 11  1  0
M  CHG  1   1   1
M  END
