
     RDKit          3D

 10 10  0  0  0  0  0  0  0  0999 V2000
   -3.3310   -0.4180    1.0940 O   0  0  0  0  0  0  0  0  0  0  0  0
   -2.2510   -0.6930    0.2330 C   0  0  0  0  0  0  0  0  0  0  0  0
   -1.1690    0.2910    0.5640 C   0  0  2  0  0  0  0  0  0  0  0  0
   -1.6700    1.5860    0.3560 O   0  0  0  0  0  0  0  0  0  0  0  0
    0.0580    0.1500   -0.2770 C   0  0  2  0  0  0  0  0  0  0  0  0
   -0.1910    0.3240   -1.6370 O   0  0  0  0  0  0  0  0  0  0  0  0
    0.8020   -1.1380   -0.0460 C   0  0  0  0  0  0  0  0  0  0  0  0
    2.2680   -0.7360   -0.1200 C   0  0  0  0  0  0  0  0  0  0  0  0
    2.3040    0.6870   -0.3140 N   0  0  0  0  0  0  0  0  0  0  0  0
    1.0610    1.1780    0.2140 C   0  0  0  0  0  0  0  0  0  0  0  0
  1  2  1  0
  2  3  1  0
  3  4  1  6
  3  5  1  0
  5  6  1  6
  5  7  1  0
  5 10  1  0
  7  8  1  0
  8  9  1  0
  9 10  1  0
M  CHG  1   9   1
M  END
