
     RDKit          3D

 11 11  0  0  0  0  0  0  0  0999 V2000
   -2.0960   -0.2390    0.7270 N   0  0  0  0  0  0  0  0  0  0  0  0
   -1.1960   -0.3540   -0.3690 C   0  0  1  0  0  0  0  0  0  0  0  0
   -1.8130    0.2700   -1.4780 O   0  0  0  0  0  0  0  0  0  0  0  0
    0.1250    0.2940   -0.1940 C   0  0  2  0  0  0  0  0  0  0  0  0
   -0.0080    1.7870   -0.0150 C   0  0  0  0  0  0  0  0  0  0  0  0
   -0.6460    2.3960   -1.0910 O   0  0  0  0  0  0  0  0  0  0  0  0
    0.8750    0.0870   -1.3520 O   0  0  0  0  0  0  0  0  0  0  0  0
    1.4610   -1.1640   -1.2400 C   0  0  0  0  0  0  0  0  0  0  0  0
    2.0520   -1.1060    0.1550 C   0  0  0  0  0  0  0  0  0  0  0  0
    0.9940   -0.2600    0.8710 C   0  0  2  0  0  0  0  0  0  0  0  0
    0.3590   -0.9800    1.8460 O   0  0  0  0  0  0  0  0  0  0  0  0
  2  1  1  1
  2  3  1  0
  2  4  1  0
  4  5  1  1
  4  7  1  0
  4 10  1  0
  5  6  1  0
  7  8  1  0
  8  9  1  0
  9 10  1  0
 10 11  1  1
M  CHG  1   1   1
M  END
