
     RDKit          3D

 11 11  0  0  0  0  0  0  0  0999 V2000
    2.2200   -0.3150    1.4740 O   0  0  0  0  0  0  0  0  0  0  0  0
    2.3370    0.1240    0.1690 C   0  0  0  0  0  0  0  0  0  0  0  0
    0.9780    0.0830   -0.5400 C   0  0  1  0  0  0  0  0  0  0  0  0
    0.5310   -1.2650   -0.5210 N   0  0  0  0  0  0  0  0  0  0  0  0
   -0.8690   -1.4570   -0.7180 C   0  0  0  0  0  0  0  0  0  0  0  0
   -1.5950   -0.6620    0.3550 C   0  0  2  0  0  0  0  0  0  0  0  0
   -2.9340   -0.9820    0.4270 O   0  0  0  0  0  0  0  0  0  0  0  0
   -1.3780    0.8040   -0.0460 C   0  0  1  0  0  0  0  0  0  0  0  0
   -2.1260    1.6640    0.7090 O   0  0  0  0  0  0  0  0  0  0  0  0
    0.0940    1.0720    0.1200 C   0  0  2  0  0  0  0  0  0  0  0  0
    0.3420    2.3270   -0.4830 O   0  0  0  0  0  0  0  0  0  0  0  0
  1  2  1  0
  3  2  1  1
  3  4  1  0
  3 10  1  0
  4  5  1  0
  5  6  1  0
  6  7  1  6
  6  8  1  0
  8  9  1  1
  8 10  1  0
 10 11  1  6
M  CHG  1   4   1
M  END
