
     RDKit          3D

 12 13  0  0  0  0  0  0  0  0999 V2000
   -1.8110    1.5000   -0.4750 N   0  0  0  0  0  0  0  0  0  0  0  0
   -1.5900    0.1030   -0.5180 C   0  0  2  0  0  0  0  0  0  0  0  0
   -2.5200   -0.5580    0.4950 C   0  0  0  0  0  0  0  0  0  0  0  0
   -1.9270   -1.8100    0.6230 O   0  0  0  0  0  0  0  0  0  0  0  0
   -0.5920   -1.4820    0.8960 C   0  0  0  0  0  0  0  0  0  0  0  0
   -0.2440   -0.3640   -0.0960 C   0  0  1  0  0  0  0  0  0  0  0  0
    0.5260   -0.9990   -1.2250 C   0  0  0  0  0  0  0  0  0  0  0  0
    1.5570   -0.2120   -1.6990 O   0  0  0  0  0  0  0  0  0  0  0  0
    2.5240    0.0820   -0.7740 C   0  0  0  0  0  0  0  0  0  0  0  0
    2.0280    0.1160    0.6480 C   0  0  1  0  0  0  0  0  0  0  0  0
    2.8010    1.0410    1.3670 O   0  0  0  0  0  0  0  0  0  0  0  0
    0.5870    0.6440    0.6160 C   0  0  0  0  0  0  0  0  0  0  0  0
  2  1  1  1
  2  3  1  0
  2  6  1  0
  3  4  1  0
  4  5  1  0
  6  5  1  1
  6  7  1  0
  6 12  1  0
  7  8  1  0
  8  9  1  0
  9 10  1  0
 10 11  1  1
 10 12  1  0
M  CHG  1   1   1
M  END
