
     RDKit          3D

 13 14  0  0  0  0  0  0  0  0999 V2000
   -1.9590    1.9850   -0.0260 O   0  0  0  0  0  0  0  0  0  0  0  0
   -2.1630    0.6600    0.3030 C   0  0  1  0  0  0  0  0  0  0  0  0
   -3.3720    0.0480   -0.3240 C   0  0  0  0  0  0  0  0  0  0  0  0
   -2.9680   -0.9680   -1.1550 O   0  0  0  0  0  0  0  0  0  0  0  0
   -1.7310   -1.4340   -0.6630 C   0  0  0  0  0  0  0  0  0  0  0  0
   -1.0140   -0.1510   -0.3160 C   0  0  2  0  0  0  0  0  0  0  0  0
   -0.0100   -0.2790    0.6630 N   0  0  0  0  0  0  0  0  0  0  0  0
    1.3010   -0.5640    0.2540 C   0  0  1  0  0  0  0  0  0  0  0  0
    1.6110   -0.4270   -1.1900 C   0  0  0  0  0  0  0  0  0  0  0  0
    3.0220   -0.2970   -1.1740 O   0  0  0  0  0  0  0  0  0  0  0  0
    3.2870    0.6800   -0.2170 C   0  0  0  0  0  0  0  0  0  0  0  0
    2.3140    0.3970    0.8910 C   0  0  2  0  0  0  0  0  0  0  0  0
    2.8850   -0.1230    2.0240 O   0  0  0  0  0  0  0  0  0  0  0  0
  2  1  1  6
  2  3  1  0
  2  6  1  0
  3  4  1  0
  4  5  1  0
  5  6  1  0
  6  7  1  1
  8  7  1  6
  8  9  1  0
  8 12  1  0
  9 10  1  0
 10 11  1  0
 11 12  1  0
 12 13  1  1
M  CHG  1   7   1
M  END
