
     RDKit          3D

 13 14  0  0  0  0  0  0  0  0999 V2000
    2.6550   -0.7000    0.7680 N   0  0  0  0  0  0  0  0  0  0  0  0
    1.5440    0.1740    0.9910 C   0  0  0  0  0  0  0  0  0  0  0  0
    0.6610    0.3290   -0.2240 C   0  0  1  0  0  0  0  0  0  0  0  0
    1.4630    1.0250   -1.3140 C   0  0  0  0  0  0  0  0  0  0  0  0
    1.9110    2.2380   -0.7580 O   0  0  0  0  0  0  0  0  0  0  0  0
    0.0530   -0.9530   -0.6740 C   0  0  0  0  0  0  0  0  0  0  0  0
   -1.4300   -0.6850   -0.5490 C   0  0  1  0  0  0  0  0  0  0  0  0
   -2.1740   -1.3100   -1.5380 O   0  0  0  0  0  0  0  0  0  0  0  0
   -1.9520   -0.9020    0.8320 C   0  0  0  0  0  0  0  0  0  0  0  0
   -2.5150    0.4710    1.1870 C   0  0  0  0  0  0  0  0  0  0  0  0
   -2.6920    1.1150   -0.0520 O   0  0  0  0  0  0  0  0  0  0  0  0
   -1.4730    0.8240   -0.6680 C   0  0  1  0  0  0  0  0  0  0  0  0
   -0.3900    1.1980    0.0940 O   0  0  0  0  0  0  0  0  0  0  0  0
  1  2  1  0
  3  2  1  1
  3  4  1  0
  3  6  1  0
  3 13  1  0
  4  5  1  0
  6  7  1  0
  7  8  1  6
  7  9  1  0
  7 12  1  0
  9 10  1  0
 10 11  1  0
 12 11  1  1
 12 13  1  0
M  CHG  1   1   1
M  END
