
     RDKit          3D

 44 48  0  0  0  0  0  0  0  0999 V2000
    6.3950    6.3250    1.8260 C   0  0  0  0  0  0  0  0  0  0  0  0
    5.6530    5.3380    1.3560 C   0  0  0  0  0  0  0  0  0  0  0  0
    5.9830    4.7290    0.0570 C   0  0  0  0  0  0  0  0  0  0  0  0
    6.2770    3.2560    0.1670 C   0  0  0  0  0  0  0  0  0  0  0  0
    5.1440    2.4720    0.6990 C   0  0  0  0  0  0  0  0  0  0  0  0
    4.9590    2.2300    2.0450 C   0  0  0  0  0  0  0  0  0  0  0  0
    3.8770    1.4860    2.4690 C   0  0  0  0  0  0  0  0  0  0  0  0
    2.9400    0.9540    1.5880 C   0  0  0  0  0  0  0  0  0  0  0  0
    1.8700    0.2040    2.1360 N   0  0  0  0  0  0  0  0  0  0  0  0
    0.8280   -0.3990    1.3920 C   0  0  0  0  0  0  0  0  0  0  0  0
   -0.3930    0.0030    1.5290 C   0  0  0  0  0  0  0  0  0  0  0  0
   -0.6330    1.1160    2.4940 C   0  0  0  0  0  0  0  0  0  0  0  0
    0.2600    1.9540    2.7630 O   0  0  0  0  0  0  0  0  0  0  0  0
   -1.9040    1.2380    3.1290 N   0  0  0  0  0  0  0  0  0  0  0  0
   -2.9020    0.2910    2.8180 C   0  0  0  0  0  0  0  0  0  0  0  0
   -4.0590    0.4960    3.2960 O   0  0  0  0  0  0  0  0  0  0  0  0
   -2.5850   -0.8700    1.9760 C   0  0  0  0  0  0  0  0  0  0  0  0
   -1.5870   -0.5490    0.8720 C   0  0  1  0  0  0  0  0  0  0  0  0
   -2.1110    0.1170   -0.2450 N   0  0  0  0  0  0  0  0  0  0  0  0
   -2.6070    1.4200   -0.1630 C   0  0  0  0  0  0  0  0  0  0  0  0
   -4.1210    1.4470   -0.1400 C   0  0  0  0  0  0  0  0  0  0  0  0
   -4.8460    2.2540    0.6970 C   0  0  0  0  0  0  0  0  0  0  0  0
   -6.2360    2.2510    0.7110 C   0  0  0  0  0  0  0  0  0  0  0  0
   -6.8850    1.4050   -0.1500 C   0  0  0  0  0  0  0  0  0  0  0  0
   -8.3600    1.3670   -0.1670 C   0  0  0  0  0  0  0  0  0  0  0  0
   -6.1490    0.5760   -1.0100 C   0  0  0  0  0  0  0  0  0  0  0  0
   -4.7850    0.6030   -1.0000 C   0  0  0  0  0  0  0  0  0  0  0  0
   -3.9500   -0.2250   -1.8790 C   0  0  1  0  0  0  0  0  0  0  0  0
   -4.7400   -1.4190   -2.4140 C   0  0  0  0  0  0  0  0  0  0  0  0
   -3.4460    0.5510   -3.0800 C   0  0  0  0  0  0  0  0  0  0  0  0
   -2.8190   -0.8000   -1.0720 C   0  0  0  0  0  0  0  0  0  0  0  0
    1.2140   -1.4680    0.4980 C   0  0  0  0  0  0  0  0  0  0  0  0
    2.0680   -2.4880    0.9720 C   0  0  0  0  0  0  0  0  0  0  0  0
    2.4830   -3.5160    0.1710 C   0  0  0  0  0  0  0  0  0  0  0  0
    2.0740   -3.5850   -1.1370 C   0  0  0  0  0  0  0  0  0  0  0  0
    2.4790   -4.6350   -1.9930 N   0  0  0  0  0  0  0  0  0  0  0  0
    3.3650   -5.6550   -1.4370 C   0  0  0  0  0  0  0  0  0  0  0  0
    3.6660   -6.6700   -2.4910 C   0  0  0  0  0  0  0  0  0  0  0  0
    3.3380   -7.9370   -2.2980 C   0  0  0  0  0  0  0  0  0  0  0  0
    1.2450   -2.6210   -1.6490 C   0  0  0  0  0  0  0  0  0  0  0  0
    0.8060   -2.6280   -2.9220 F   0  0  0  0  0  0  0  0  0  0  0  0
    0.8330   -1.5800   -0.8160 C   0  0  0  0  0  0  0  0  0  0  0  0
    3.1310    1.1990    0.2550 C   0  0  0  0  0  0  0  0  0  0  0  0
    4.2230    1.9520   -0.1890 C   0  0  0  0  0  0  0  0  0  0  0  0
  1  2  2  0
  2  3  1  0
  3  4  1  0
  4  5  1  0
  5  6  2  0
  5 44  1  0
  6  7  1  0
  7  8  2  0
  8  9  1  0
  8 43  1  0
  9 10  1  0
 10 11  2  3
 10 32  1  0
 11 12  1  0
 11 18  1  0
 12 13  2  0
 12 14  1  0
 14 15  1  0
 15 16  2  0
 15 17  1  0
 17 18  1  0
 18 19  1  6
 19 20  1  0
 19 31  1  0
 20 21  1  0
 21 22  2  0
 21 27  1  0
 22 23  1  0
 23 24  2  0
 24 25  1  0
 24 26  1  0
 26 27  2  0
 27 28  1  0
 28 29  1  6
 28 30  1  0
 28 31  1  0
 32 33  2  0
 32 42  1  0
 33 34  1  0
 34 35  2  0
 35 36  1  0
 35 40  1  0
 36 37  1  0
 37 38  1  0
 38 39  2  0
 40 41  1  0
 40 42  2  0
 43 44  2  0
M  END
