
     RDKit          3D

 44 48  0  0  0  0  0  0  0  0999 V2000
    7.8630   -1.6000   -4.6760 C   0  0  0  0  0  0  0  0  0  0  0  0
    6.7530   -1.4710   -3.6770 C   0  0  0  0  0  0  0  0  0  0  0  0
    6.6930   -0.7750   -2.5730 C   0  0  0  0  0  0  0  0  0  0  0  0
    7.8020    0.0770   -2.0730 C   0  0  0  0  0  0  0  0  0  0  0  0
    5.4160   -0.9380   -1.8910 C   0  0  0  0  0  0  0  0  0  0  0  0
    4.9740   -0.3630   -0.6790 N   0  0  0  0  0  0  0  0  0  0  0  0
    5.6570   -0.5010    0.5690 C   0  0  0  0  0  0  0  0  0  0  0  0
    6.7150   -1.1660    0.5850 O   0  0  0  0  0  0  0  0  0  0  0  0
    5.1140    0.1320    1.7810 C   0  0  0  0  0  0  0  0  0  0  0  0
    5.9020    0.8940    2.6010 C   0  0  0  0  0  0  0  0  0  0  0  0
    5.3860    1.5010    3.7350 C   0  0  0  0  0  0  0  0  0  0  0  0
    4.0710    1.3470    4.0560 C   0  0  0  0  0  0  0  0  0  0  0  0
    3.5200    2.0060    5.2990 C   0  0  0  0  0  0  0  0  0  0  0  0
    3.2520    0.5710    3.2310 C   0  0  0  0  0  0  0  0  0  0  0  0
    1.8880    0.4980    3.5630 N   0  0  0  0  0  0  0  0  0  0  0  0
    1.0270   -0.5040    3.0230 C   0  0  0  0  0  0  0  0  0  0  0  0
    1.4480   -1.3770    2.2610 O   0  0  0  0  0  0  0  0  0  0  0  0
   -0.3980   -0.4990    3.3800 C   0  0  0  0  0  0  0  0  0  0  0  0
   -1.2030   -1.7040    3.0040 C   0  0  0  0  0  0  0  0  0  0  0  0
   -1.2470   -2.0800    1.5890 C   0  0  0  0  0  0  0  0  0  0  0  0
   -1.6620   -1.1660    0.5340 C   0  0  0  0  0  0  0  0  0  0  0  0
   -2.9840   -0.5980    0.3550 C   0  0  0  0  0  0  0  0  0  0  0  0
   -4.0790   -0.8390    1.0810 C   0  0  0  0  0  0  0  0  0  0  0  0
   -4.4160   -1.6740    2.2400 C   0  0  0  0  0  0  0  0  0  0  0  0
   -5.8160   -2.0930    2.1640 N   0  0  0  0  0  0  0  0  0  0  0  0
   -6.6800   -0.9170    2.1910 C   0  0  0  0  0  0  0  0  0  0  0  0
   -6.3620   -0.0640    1.0180 C   0  0  0  0  0  0  0  0  0  0  0  0
   -7.4300    0.7460    0.4210 C   0  0  2  0  0  0  0  0  0  0  0  0
   -8.6170   -0.1030    0.0010 C   0  0  0  0  0  0  0  0  0  0  0  0
   -6.9270    1.5310   -0.7630 C   0  0  0  0  0  0  0  0  0  0  0  0
   -5.1370   -0.0280    0.4960 C   0  0  0  0  0  0  0  0  0  0  0  0
   -4.5570    0.6400   -0.5630 N   0  0  0  0  0  0  0  0  0  0  0  0
   -3.2840    0.3670   -0.7270 C   0  0  0  0  0  0  0  0  0  0  0  0
   -2.5210    0.9410   -1.8130 C   0  0  0  0  0  0  0  0  0  0  0  0
   -3.1940    1.7760   -2.7240 C   0  0  0  0  0  0  0  0  0  0  0  0
   -2.5760    2.3670   -3.7940 C   0  0  0  0  0  0  0  0  0  0  0  0
   -3.2950    3.2400   -4.7580 C   0  0  0  0  0  0  0  0  0  0  0  0
   -1.2360    2.1620   -4.0280 C   0  0  0  0  0  0  0  0  0  0  0  0
   -0.5470    1.3590   -3.1670 C   0  0  0  0  0  0  0  0  0  0  0  0
    0.7710    1.1300   -3.3570 F   0  0  0  0  0  0  0  0  0  0  0  0
   -1.2050    0.7590   -2.0680 C   0  0  0  0  0  0  0  0  0  0  0  0
    3.7740   -0.0280    2.1060 C   0  0  0  0  0  0  0  0  0  0  0  0
    4.7050   -1.7660   -2.6350 C   0  0  0  0  0  0  0  0  0  0  0  0
    5.4720   -2.1850   -3.8350 C   0  0  0  0  0  0  0  0  0  0  0  0
  1  2  1  0
  2  3  2  0
  2 44  1  0
  3  4  1  0
  3  5  1  0
  5  6  1  0
  5 43  2  0
  6  7  1  0
  7  8  2  0
  7  9  1  0
  9 10  2  0
  9 42  1  0
 10 11  1  0
 11 12  2  0
 12 13  1  0
 12 14  1  0
 14 15  1  0
 14 42  2  0
 15 16  1  0
 16 17  2  0
 16 18  1  0
 18 19  1  0
 19 20  1  0
 20 21  1  0
 21 22  1  0
 22 23  2  0
 22 33  1  0
 23 24  1  0
 23 31  1  0
 24 25  1  0
 25 26  1  0
 26 27  1  0
 27 28  1  0
 27 31  2  0
 28 29  1  6
 28 30  1  0
 31 32  1  0
 32 33  2  0
 33 34  1  0
 34 35  2  0
 34 41  1  0
 35 36  1  0
 36 37  1  0
 36 38  2  0
 38 39  1  0
 39 40  1  0
 39 41  2  0
 43 44  1  0
M  END
