
     RDKit          3D

 44 48  0  0  0  0  0  0  0  0999 V2000
   -4.3980    0.0120    5.1310 C   0  0  0  0  0  0  0  0  0  0  0  0
   -3.8770    0.2010    3.7310 C   0  0  0  0  0  0  0  0  0  0  0  0
   -4.1410   -0.9730    2.8300 C   0  0  0  0  0  0  0  0  0  0  0  0
   -3.5840   -0.7280    1.4750 C   0  0  1  0  0  0  0  0  0  0  0  0
   -4.1480    0.4620    0.8510 N   0  0  0  0  0  0  0  0  0  0  0  0
   -4.7280    0.4210   -0.4760 C   0  0  0  0  0  0  0  0  0  0  0  0
   -4.6900   -0.7170   -1.0070 O   0  0  0  0  0  0  0  0  0  0  0  0
   -5.2760    1.6190   -1.0680 C   0  0  0  0  0  0  0  0  0  0  0  0
   -4.7380    2.8440   -0.7090 C   0  0  0  0  0  0  0  0  0  0  0  0
   -5.2040    4.0320   -1.2150 C   0  0  0  0  0  0  0  0  0  0  0  0
   -6.2440    4.0280   -2.1140 C   0  0  0  0  0  0  0  0  0  0  0  0
   -6.7960    2.8330   -2.4890 C   0  0  0  0  0  0  0  0  0  0  0  0
   -7.8130    2.8170   -3.3700 F   0  0  0  0  0  0  0  0  0  0  0  0
   -6.3120    1.6140   -1.9630 C   0  0  0  0  0  0  0  0  0  0  0  0
   -6.9070    0.3280   -2.3740 C   0  0  0  0  0  0  0  0  0  0  0  0
   -7.8020   -0.2210   -1.3090 C   0  0  0  0  0  0  0  0  0  0  0  0
   -8.1100    0.3130   -0.1380 C   0  0  0  0  0  0  0  0  0  0  0  0
   -9.0260   -0.6100    0.5490 C   0  0  0  0  0  0  0  0  0  0  0  0
   -9.2550   -1.5630   -0.3360 C   0  0  0  0  0  0  0  0  0  0  0  0
   -8.5110   -1.4990   -1.4030 C   0  0  0  0  0  0  0  0  0  0  0  0
   -2.1100   -0.5790    1.4220 C   0  0  0  0  0  0  0  0  0  0  0  0
   -1.2530   -0.9390    2.4190 C   0  0  0  0  0  0  0  0  0  0  0  0
    0.1170   -0.7850    2.3560 C   0  0  0  0  0  0  0  0  0  0  0  0
    0.6520   -0.2340    1.2140 C   0  0  0  0  0  0  0  0  0  0  0  0
   -0.1580    0.1420    0.1880 C   0  0  0  0  0  0  0  0  0  0  0  0
    0.4080    0.7200   -1.0370 C   0  0  0  0  0  0  0  0  0  0  0  0
    1.8260    0.8820   -1.0480 N   0  0  0  0  0  0  0  0  0  0  0  0
    2.7220   -0.2470   -1.2170 C   0  0  0  0  0  0  0  0  0  0  0  0
    2.1710   -1.3280   -1.3390 O   0  0  0  0  0  0  0  0  0  0  0  0
    4.1080   -0.0170   -1.2280 N   0  0  0  0  0  0  0  0  0  0  0  0
    5.0480   -1.0570   -1.3820 C   0  0  0  0  0  0  0  0  0  0  0  0
    4.7090   -2.3660   -1.5980 C   0  0  0  0  0  0  0  0  0  0  0  0
    5.6400   -3.3960   -1.7900 C   0  0  0  0  0  0  0  0  0  0  0  0
    5.2120   -4.7950   -2.0220 C   0  0  0  0  0  0  0  0  0  0  0  0
    6.9670   -3.0520   -1.7570 C   0  0  0  0  0  0  0  0  0  0  0  0
    7.3440   -1.7550   -1.5430 C   0  0  0  0  0  0  0  0  0  0  0  0
    6.4200   -0.7520   -1.3550 C   0  0  0  0  0  0  0  0  0  0  0  0
    6.8010    0.6550   -1.0970 C   0  0  2  0  0  0  0  0  0  0  0  0
    8.2170    0.9230   -1.4630 C   0  0  0  0  0  0  0  0  0  0  0  0
    9.2000    0.6490   -0.4110 C   0  0  0  0  0  0  0  0  0  0  0  0
    8.6730    0.3700    0.9110 N   0  0  0  0  0  0  0  0  0  0  0  0
    7.6090    1.3140    1.2200 C   0  0  0  0  0  0  0  0  0  0  0  0
    6.4540    1.1430    0.2610 C   0  0  0  0  0  0  0  0  0  0  0  0
   -1.5110   -0.0240    0.2830 C   0  0  0  0  0  0  0  0  0  0  0  0
  1  2  1  0
  2  3  1  0
  4  3  1  1
  4  5  1  0
  4 21  1  0
  5  6  1  0
  6  7  2  0
  6  8  1  0
  8  9  2  0
  8 14  1  0
  9 10  1  0
 10 11  2  0
 11 12  1  0
 12 13  1  0
 12 14  2  0
 14 15  1  0
 15 16  1  0
 16 17  2  0
 16 20  1  0
 17 18  1  0
 18 19  2  0
 19 20  2  0
 21 22  2  0
 21 44  1  0
 22 23  1  0
 23 24  2  0
 24 25  1  0
 25 26  1  0
 25 44  2  0
 26 27  1  0
 27 28  1  0
 28 29  2  0
 28 30  1  0
 30 31  1  0
 31 32  2  0
 31 37  1  0
 32 33  1  0
 33 34  1  0
 33 35  2  0
 35 36  1  0
 36 37  2  0
 38 37  1  1
 38 39  1  0
 38 43  1  0
 39 40  1  0
 40 41  1  0
 41 42  1  0
 42 43  1  0
M  END
