
     RDKit          3D

 44 49  0  0  0  0  0  0  0  0999 V2000
   -0.3430   -3.1690    2.4120 C   0  0  0  0  0  0  0  0  0  0  0  0
   -1.5010   -2.9950    1.5010 C   0  0  0  0  0  0  0  0  0  0  0  0
   -2.8040   -2.9810    1.9440 C   0  0  0  0  0  0  0  0  0  0  0  0
   -3.8320   -2.7850    1.0680 C   0  0  0  0  0  0  0  0  0  0  0  0
   -3.5880   -2.6000   -0.2640 C   0  0  0  0  0  0  0  0  0  0  0  0
   -4.5850   -2.2470   -1.3050 C   0  0  0  0  0  0  0  0  0  0  0  0
   -5.8320   -1.7200   -0.7630 N   0  0  0  0  0  0  0  0  0  0  0  0
   -5.9650   -0.3230   -1.2280 C   0  0  0  0  0  0  0  0  0  0  0  0
   -7.2460    0.3020   -0.8590 C   0  0  0  0  0  0  0  0  0  0  0  0
   -7.3100    1.6590   -0.6370 C   0  0  0  0  0  0  0  0  0  0  0  0
   -8.4720    2.3350   -0.2930 C   0  0  0  0  0  0  0  0  0  0  0  0
   -9.6230    1.5640   -0.1720 C   0  0  0  0  0  0  0  0  0  0  0  0
   -9.5090    0.1970   -0.4040 C   0  0  0  0  0  0  0  0  0  0  0  0
  -10.5490   -0.4870   -0.2980 O   0  0  0  0  0  0  0  0  0  0  0  0
   -8.3540   -0.3660   -0.7310 O   0  0  0  0  0  0  0  0  0  0  0  0
  -10.9420    2.1470    0.1590 C   0  0  0  0  0  0  0  0  0  0  0  0
  -11.1850    3.2920   -0.8430 C   0  0  0  0  0  0  0  0  0  0  0  0
   -9.9920    4.5900   -0.3670 S   0  0  0  0  0  0  0  0  0  0  0  0
   -8.4530    3.7520   -0.0760 N   0  0  0  0  0  0  0  0  0  0  0  0
   -2.2520   -2.6190   -0.7210 C   0  0  0  0  0  0  0  0  0  0  0  0
   -1.2170   -2.8150    0.1400 C   0  0  0  0  0  0  0  0  0  0  0  0
    0.1810   -2.8990   -0.2290 C   0  0  0  0  0  0  0  0  0  0  0  0
    0.6250   -4.0950   -0.4940 O   0  0  0  0  0  0  0  0  0  0  0  0
    1.1190   -1.8870   -0.3300 N   0  0  0  0  0  0  0  0  0  0  0  0
    0.9440   -0.4740   -0.1720 C   0  0  0  0  0  0  0  0  0  0  0  0
    2.2610    0.2740   -0.4630 C   0  0  0  0  0  0  0  0  0  0  0  0
    3.3090   -0.1850    0.4880 C   0  0  2  0  0  0  0  0  0  0  0  0
    4.6600    0.2870    0.1970 N   0  0  0  0  0  0  0  0  0  0  0  0
    5.0970    1.5420    0.5740 C   0  0  0  0  0  0  0  0  0  0  0  0
    4.2150    2.2960    1.1190 O   0  0  0  0  0  0  0  0  0  0  0  0
    6.4250    2.0620    0.4370 C   0  0  0  0  0  0  0  0  0  0  0  0
    7.4810    1.3770    0.0810 C   0  0  0  0  0  0  0  0  0  0  0  0
    7.6960   -0.0300   -0.2620 C   0  0  0  0  0  0  0  0  0  0  0  0
    9.1710   -0.2420    0.1570 C   0  0  1  0  0  0  0  0  0  0  0  0
    9.2080   -0.5690    1.4820 F   0  0  0  0  0  0  0  0  0  0  0  0
    9.7520   -1.1870   -0.6150 F   0  0  0  0  0  0  0  0  0  0  0  0
    9.7900    1.0970   -0.0350 C   0  0  0  0  0  0  0  0  0  0  0  0
   11.1130    1.4220   -0.1650 C   0  0  0  0  0  0  0  0  0  0  0  0
   11.4700    2.7410   -0.3610 C   0  0  0  0  0  0  0  0  0  0  0  0
   10.4890    3.6960   -0.4220 C   0  0  0  0  0  0  0  0  0  0  0  0
    9.1520    3.3550   -0.2910 C   0  0  0  0  0  0  0  0  0  0  0  0
    8.8090    2.0460   -0.0950 C   0  0  0  0  0  0  0  0  0  0  0  0
    3.3300   -1.6670    0.6080 C   0  0  0  0  0  0  0  0  0  0  0  0
    2.5510   -2.2770   -0.5560 C   0  0  0  0  0  0  0  0  0  0  0  0
  1  2  1  0
  2  3  2  0
  2 21  1  0
  3  4  1  0
  4  5  2  0
  5  6  1  0
  5 20  1  0
  6  7  1  0
  7  8  1  0
  8  9  1  0
  9 10  2  0
  9 15  1  0
 10 11  1  0
 11 12  2  0
 11 19  1  0
 12 13  1  0
 12 16  1  0
 13 14  2  0
 13 15  1  0
 16 17  1  0
 17 18  1  0
 18 19  1  0
 20 21  2  0
 21 22  1  0
 22 23  2  0
 22 24  1  0
 24 25  1  0
 24 44  1  0
 25 26  1  0
 26 27  1  0
 27 28  1  6
 27 43  1  0
 28 29  1  0
 29 30  2  0
 29 31  1  0
 31 32  2  3
 32 33  1  0
 32 42  1  0
 33 34  1  0
 34 35  1  1
 34 36  1  0
 34 37  1  0
 37 38  2  0
 37 42  1  0
 38 39  1  0
 39 40  2  0
 40 41  1  0
 41 42  2  0
 43 44  1  0
M  END
