
     RDKit          3D

  9  8  0  0  0  0  0  0  0  0999 V2000
   -3.7530    0.5480    0.0630 O   0  0  0  0  0  0  0  0  0  0  0  0
   -3.1870   -0.2860   -0.8570 N   0  0  0  0  0  0  0  0  0  0  0  0
   -1.8670   -0.6030   -0.3920 C   0  0  0  0  0  0  0  0  0  0  0  0
   -0.8610    0.1060   -1.0680 O   0  0  0  0  0  0  0  0  0  0  0  0
    0.2910   -0.1310   -0.3500 C   0  0  0  0  0  0  0  0  0  0  0  0
    1.4610    0.1570   -1.0270 O   0  0  0  0  0  0  0  0  0  0  0  0
    2.7160    0.0500    0.1830 P   0  0  0  0  0  0  0  0  0  0  0  0
    3.8300   -1.2090   -0.1270 O   0  0  0  0  0  0  0  0  0  0  0  0
    3.4190    1.5610    0.5520 O   0  0  0  0  0  0  0  0  0  0  0  0
  1  2  1  0
  2  3  1  0
  3  4  1  0
  4  5  1  0
  5  6  1  0
  6  7  1  0
  7  8  1  0
  7  9  1  0
M  END
