
     RDKit          3D

 28 29  0  0  0  0  0  0  0  0999 V2000
    8.2770   -0.0920    1.7080 O   0  0  0  0  0  0  0  0  0  0  0  0
    7.1450   -0.0570    1.1110 C   0  0  0  0  0  0  0  0  0  0  0  0
    6.3680   -1.2120    0.9640 C   0  0  0  0  0  0  0  0  0  0  0  0
    5.1810   -1.0980    0.3030 C   0  0  0  0  0  0  0  0  0  0  0  0
    4.6850    0.0280   -0.2220 N   0  0  0  0  0  0  0  0  0  0  0  0
    3.3910    0.1680   -0.7850 C   0  0  1  0  0  0  0  0  0  0  0  0
    2.8050   -0.9640   -1.5090 C   0  0  0  0  0  0  0  0  0  0  0  0
    1.2900   -0.6760   -1.3580 C   0  0  2  0  0  0  0  0  0  0  0  0
    0.9850    0.0840   -2.5200 O   0  0  0  0  0  0  0  0  0  0  0  0
    1.2740    0.1700   -0.1420 C   0  0  1  0  0  0  0  0  0  0  0  0
    0.3870   -0.2820    0.9940 C   0  0  0  0  0  0  0  0  0  0  0  0
   -0.9290   -0.3010    0.5520 O   0  0  0  0  0  0  0  0  0  0  0  0
   -1.5890    1.0760    0.3830 P   0  0  0  0  0  0  0  0  0  0  0  0
   -2.3020    2.3090   -0.1960 O   0  0  0  0  0  0  0  0  0  0  0  0
   -0.5730    1.8170    1.3630 O   0  0  0  0  0  0  0  0  0  0  0  0
   -3.0450    0.4730    0.9870 N   0  0  0  0  0  0  0  0  0  0  0  0
   -3.6000   -0.8780    0.4120 P   0  0  0  0  0  0  0  0  0  0  0  0
   -3.1950   -0.5680   -1.1160 O   0  0  0  0  0  0  0  0  0  0  0  0
   -2.5700   -1.7270    1.4100 O   0  0  0  0  0  0  0  0  0  0  0  0
   -5.1320   -0.5200    0.9600 O   0  0  0  0  0  0  0  0  0  0  0  0
   -6.2390   -0.0110   -0.0240 P   0  0  0  0  0  0  0  0  0  0  0  0
   -7.0980   -1.0370   -1.0640 O   0  0  0  0  0  0  0  0  0  0  0  0
   -6.5820    1.6310   -0.2330 O   0  0  0  0  0  0  0  0  0  0  0  0
   -7.4260   -0.0860    0.9540 O   0  0  0  0  0  0  0  0  0  0  0  0
    2.5360    0.2930    0.3530 O   0  0  0  0  0  0  0  0  0  0  0  0
    5.4890    1.1610   -0.0640 C   0  0  0  0  0  0  0  0  0  0  0  0
    5.0900    2.2220   -0.5300 O   0  0  0  0  0  0  0  0  0  0  0  0
    6.6480    1.0710    0.5870 N   0  0  0  0  0  0  0  0  0  0  0  0
  1  2  2  0
  2  3  1  0
  2 28  1  0
  3  4  2  0
  4  5  1  0
  6  5  1  1
  5 26  1  0
  6  7  1  0
  6 25  1  0
  7  8  1  0
  8  9  1  6
  8 10  1  0
 10 11  1  1
 10 25  1  0
 11 12  1  0
 12 13  1  0
 13 14  1  0
 13 15  1  0
 13 16  1  0
 16 17  1  0
 17 18  1  0
 17 19  1  0
 17 20  1  0
 20 21  1  0
 21 22  1  0
 21 23  1  0
 21 24  1  0
 26 27  2  0
 26 28  1  0
M  END
