
     RDKit          3D

  9  8  0  0  0  0  0  0  0  0999 V2000
    3.4890    0.6090   -0.8390 O   0  0  0  0  0  0  0  0  0  0  0  0
    3.0850    0.5640    0.3260 C   0  0  0  0  0  0  0  0  0  0  0  0
    1.8950   -0.0680    0.6560 O   0  0  0  0  0  0  0  0  0  0  0  0
    1.1940   -0.5770   -0.4370 N   0  0  0  0  0  0  0  0  0  0  0  0
   -0.1400   -1.0250    0.0660 C   0  0  0  0  0  0  0  0  0  0  0  0
   -1.2190    0.4540   -0.1920 P   0  0  0  0  0  0  0  0  0  0  0  0
   -1.4220    1.3380    1.2670 O   0  0  0  0  0  0  0  0  0  0  0  0
   -2.5720    0.2450   -1.1550 O   0  0  0  0  0  0  0  0  0  0  0  0
   -3.5550   -0.3670   -0.5680 O   0  0  0  0  0  0  0  0  0  0  0  0
  1  2  2  0
  2  3  1  0
  3  4  1  0
  4  5  1  0
  5  6  1  0
  6  7  1  0
  6  8  1  0
  8  9  1  0
M  END
