
     RDKit          3D

  9  8  0  0  0  0  0  0  0  0999 V2000
    2.0190   -1.2280    0.1600 O   0  0  0  0  0  0  0  0  0  0  0  0
    1.7370   -0.0070    0.0240 C   0  0  0  0  0  0  0  0  0  0  0  0
    0.3720    0.3640    0.1400 N   0  0  0  0  0  0  0  0  0  0  0  0
   -0.6810   -0.6120    0.4060 C   0  0  0  0  0  0  0  0  0  0  0  0
   -2.3370    0.1480    0.5030 P   0  0  0  0  0  0  0  0  0  0  0  0
   -3.5300   -1.1100    0.3910 O   0  0  0  0  0  0  0  0  0  0  0  0
   -2.6390    1.2660   -0.7770 O   0  0  0  0  0  0  0  0  0  0  0  0
    2.7630    0.8780   -0.2260 O   0  0  0  0  0  0  0  0  0  0  0  0
    4.0570    0.4940   -0.3310 O   0  0  0  0  0  0  0  0  0  0  0  0
  1  2  2  0
  2  3  1  0
  2  8  1  0
  3  4  1  0
  4  5  1  0
  5  6  1  0
  5  7  1  0
  8  9  1  0
M  END
