
     RDKit          3D

  8  7  0  0  0  0  0  0  0  0999 V2000
   -1.7120   -0.8150    0.2820 C   0  0  0  0  0  0  0  0  0  0  0  0
   -1.0520    0.5080   -0.0720 C   0  0  2  0  0  0  0  0  0  0  0  0
   -2.0910    1.3520   -0.6310 N   0  0  0  0  0  0  0  0  0  0  0  0
   -0.0240    0.2630   -0.9790 O   0  0  0  0  0  0  0  0  0  0  0  0
    1.0950    0.6380   -0.4520 O   0  0  0  0  0  0  0  0  0  0  0  0
    2.3000   -0.5930   -0.4250 P   0  0  0  0  0  0  0  0  0  0  0  0
    1.9280   -1.9060    0.5940 O   0  0  0  0  0  0  0  0  0  0  0  0
    3.8810    0.0320   -0.2340 O   0  0  0  0  0  0  0  0  0  0  0  0
  2  1  1  6
  2  3  1  0
  2  4  1  0
  4  5  1  0
  5  6  1  0
  6  7  1  0
  6  8  1  0
M  END
