
     RDKit          3D

  9  8  0  0  0  0  0  0  0  0999 V2000
   -3.4500    0.6400   -0.6270 O   0  0  0  0  0  0  0  0  0  0  0  0
   -2.5370   -0.0990   -1.0910 C   0  0  0  0  0  0  0  0  0  0  0  0
   -1.2490    0.0090   -0.5410 N   0  0  0  0  0  0  0  0  0  0  0  0
   -0.8970    0.9180    0.5280 C   0  0  0  0  0  0  0  0  0  0  0  0
    0.4340    0.8030    0.8600 O   0  0  0  0  0  0  0  0  0  0  0  0
    0.7770   -0.3850    1.2640 O   0  0  0  0  0  0  0  0  0  0  0  0
    2.4480   -0.6870    0.8130 P   0  0  0  0  0  0  0  0  0  0  0  0
    2.4570   -2.0380   -0.2810 O   0  0  0  0  0  0  0  0  0  0  0  0
    3.0480    0.6880   -0.0960 O   0  0  0  0  0  0  0  0  0  0  0  0
  1  2  2  0
  2  3  1  0
  3  4  1  0
  4  5  1  0
  5  6  1  0
  6  7  1  0
  7  8  1  0
  7  9  1  0
M  END
