
     RDKit          3D

  8  7  0  0  0  0  0  0  0  0999 V2000
   -3.5030   -0.3210    0.1580 N   0  0  0  0  0  0  0  0  0  0  0  0
   -2.3620   -0.3710   -0.5300 O   0  0  0  0  0  0  0  0  0  0  0  0
   -1.4630    0.5020   -0.1350 O   0  0  0  0  0  0  0  0  0  0  0  0
   -0.2250   -0.1440   -0.2060 C   0  0  0  0  0  0  0  0  0  0  0  0
    0.8230    0.6830    0.1910 O   0  0  0  0  0  0  0  0  0  0  0  0
    2.2820   -0.2680    0.0430 P   0  0  0  0  0  0  0  0  0  0  0  0
    3.4260    0.1320    1.2760 O   0  0  0  0  0  0  0  0  0  0  0  0
    3.0250    0.0290   -1.4930 O   0  0  0  0  0  0  0  0  0  0  0  0
  1  2  1  0
  2  3  1  0
  3  4  1  0
  4  5  1  0
  5  6  1  0
  6  7  1  0
  6  8  1  0
M  END
