
     RDKit          3D

  8  7  0  0  0  0  0  0  0  0999 V2000
   -3.0340    0.1380   -0.6240 N   0  0  0  0  0  0  0  0  0  0  0  0
   -2.3550    0.5820    0.5750 C   0  0  0  0  0  0  0  0  0  0  0  0
   -1.2530   -0.2710    0.7650 O   0  0  0  0  0  0  0  0  0  0  0  0
   -0.4900   -0.1410   -0.3240 O   0  0  0  0  0  0  0  0  0  0  0  0
    0.8290   -0.2630    0.1380 C   0  0  0  0  0  0  0  0  0  0  0  0
    2.0700   -0.1150   -1.2090 P   0  0  0  0  0  0  0  0  0  0  0  0
    3.0910   -1.5360   -1.2250 O   0  0  0  0  0  0  0  0  0  0  0  0
    3.1290    1.2400   -0.8850 O   0  0  0  0  0  0  0  0  0  0  0  0
  1  2  1  0
  2  3  1  0
  3  4  1  0
  4  5  1  0
  5  6  1  0
  6  7  1  0
  6  8  1  0
M  END
