
     RDKit          3D

 40 44  0  0  0  0  0  0  0  0999 V2000
    1.9260    3.9600    0.4080 C   0  0  0  0  0  0  0  0  0  0  0  0
    1.6680    2.5280    0.1450 C   0  0  0  0  0  0  0  0  0  0  0  0
    2.8580    1.2930   -0.1590 S   0  0  0  0  0  0  0  0  0  0  0  0
    1.7630   -0.0580   -0.3500 C   0  0  0  0  0  0  0  0  0  0  0  0
    2.2240   -1.3700   -0.6410 N   0  0  0  0  0  0  0  0  0  0  0  0
    3.6220   -1.6430   -0.7850 C   0  0  0  0  0  0  0  0  0  0  0  0
    4.4190   -0.7000   -0.6470 O   0  0  0  0  0  0  0  0  0  0  0  0
    4.1210   -3.0040   -1.0900 C   0  0  0  0  0  0  0  0  0  0  0  0
    5.4960   -3.0880   -1.1710 O   0  0  0  0  0  0  0  0  0  0  0  0
    6.4560   -2.8450   -0.2490 C   0  0  0  0  0  0  0  0  0  0  0  0
    6.1830   -2.4460    1.0390 C   0  0  0  0  0  0  0  0  0  0  0  0
    7.1910   -2.2050    1.9600 C   0  0  0  0  0  0  0  0  0  0  0  0
    8.4820   -2.3720    1.5710 C   0  0  0  0  0  0  0  0  0  0  0  0
    9.7920   -2.0820    2.6940 Cl  0  0  0  0  0  0  0  0  0  0  0  0
    8.8020   -2.7700    0.2920 C   0  0  0  0  0  0  0  0  0  0  0  0
    7.7930   -3.0050   -0.6150 C   0  0  0  0  0  0  0  0  0  0  0  0
    8.2510   -3.5110   -2.2340 Cl  0  0  0  0  0  0  0  0  0  0  0  0
    0.5010    0.4980   -0.1710 C   0  0  0  0  0  0  0  0  0  0  0  0
   -0.6620   -0.4380   -0.2540 C   0  0  0  0  0  0  0  0  0  0  0  0
   -0.3740   -1.6800   -0.3050 O   0  0  0  0  0  0  0  0  0  0  0  0
   -2.0070   -0.1310   -0.2890 N   0  0  0  0  0  0  0  0  0  0  0  0
   -3.0480   -1.1370   -0.3640 C   0  0  0  0  0  0  0  0  0  0  0  0
   -2.8780   -2.3980   -0.8240 C   0  0  0  0  0  0  0  0  0  0  0  0
   -3.9530   -3.3080   -0.8310 C   0  0  0  0  0  0  0  0  0  0  0  0
   -5.1970   -2.9570   -0.3790 C   0  0  0  0  0  0  0  0  0  0  0  0
   -6.2550   -3.8380   -0.3810 C   0  0  0  0  0  0  0  0  0  0  0  0
   -7.4320   -3.4680    0.0580 O   0  0  0  0  0  0  0  0  0  0  0  0
   -7.6150   -2.2450    0.5070 C   0  0  0  0  0  0  0  0  0  0  0  0
   -8.7700   -1.9300    0.9220 O   0  0  0  0  0  0  0  0  0  0  0  0
   -6.6180   -1.3140    0.5420 C   0  0  0  0  0  0  0  0  0  0  0  0
   -5.3480   -1.6630    0.0860 C   0  0  0  0  0  0  0  0  0  0  0  0
   -4.3220   -0.7600    0.1040 C   0  0  0  0  0  0  0  0  0  0  0  0
    0.4750    1.8280    0.0850 C   0  0  0  0  0  0  0  0  0  0  0  0
   -0.7930    2.6380    0.3550 C   0  0  0  0  0  0  0  0  0  0  0  0
   -1.2660    3.3790   -0.8370 C   0  0  0  0  0  0  0  0  0  0  0  0
   -2.5060    4.1680   -0.5660 C   0  0  0  0  0  0  0  0  0  0  0  0
   -2.5440    5.4790   -0.1230 C   0  0  0  0  0  0  0  0  0  0  0  0
   -3.8920    5.8150   -0.0070 C   0  0  0  0  0  0  0  0  0  0  0  0
   -4.6510    4.7650   -0.3610 N   0  0  0  0  0  0  0  0  0  0  0  0
   -3.8180    3.7640   -0.7010 C   0  0  0  0  0  0  0  0  0  0  0  0
  1  2  1  0
  2  3  1  0
  2 33  2  0
  3  4  1  0
  4  5  1  0
  4 18  2  0
  5  6  1  0
  6  7  2  0
  6  8  1  0
  8  9  1  0
  9 10  1  0
 10 11  2  0
 10 16  1  0
 11 12  1  0
 12 13  2  0
 13 14  1  0
 13 15  1  0
 15 16  2  0
 16 17  1  0
 18 19  1  0
 18 33  1  0
 19 20  2  0
 19 21  1  0
 21 22  1  0
 22 23  1  0
 22 32  2  0
 23 24  2  0
 24 25  1  0
 25 26  2  0
 25 31  1  0
 26 27  1  0
 27 28  1  0
 28 29  2  0
 28 30  1  0
 30 31  2  0
 31 32  1  0
 33 34  1  0
 34 35  1  0
 35 36  1  0
 36 37  1  0
 36 40  2  0
 37 38  2  0
 38 39  1  0
 39 40  1  0
M  END
