
     RDKit          3D

 40 44  0  0  0  0  0  0  0  0999 V2000
   -6.0080    0.7980   -1.0670 C   0  0  0  0  0  0  0  0  0  0  0  0
   -6.1000    1.5330    0.2260 C   0  0  0  0  0  0  0  0  0  0  0  0
   -7.3800    1.8640    0.6680 C   0  0  0  0  0  0  0  0  0  0  0  0
   -7.5380    2.5400    1.8500 C   0  0  0  0  0  0  0  0  0  0  0  0
   -6.4130    2.8740    2.5740 C   0  0  0  0  0  0  0  0  0  0  0  0
   -6.6030    3.7350    4.0850 Cl  0  0  0  0  0  0  0  0  0  0  0  0
   -5.1410    2.5430    2.1310 C   0  0  0  0  0  0  0  0  0  0  0  0
   -3.7900    3.0160    3.1290 Cl  0  0  0  0  0  0  0  0  0  0  0  0
   -4.9840    1.8620    0.9390 C   0  0  0  0  0  0  0  0  0  0  0  0
   -3.6800    1.5290    0.4950 N   0  0  0  0  0  0  0  0  0  0  0  0
   -3.0790    0.3140    0.8550 C   0  0  0  0  0  0  0  0  0  0  0  0
   -3.6490   -0.5400    1.5780 O   0  0  0  0  0  0  0  0  0  0  0  0
   -1.7440   -0.0420    0.4130 N   0  0  0  0  0  0  0  0  0  0  0  0
   -1.1740   -1.2910    0.8060 C   0  0  0  0  0  0  0  0  0  0  0  0
    0.1920   -1.6200    0.3380 C   0  0  0  0  0  0  0  0  0  0  0  0
    0.4300   -1.6990   -1.0900 C   0  0  0  0  0  0  0  0  0  0  0  0
    0.7780   -0.6400   -1.8640 C   0  0  0  0  0  0  0  0  0  0  0  0
    1.0350    0.5920   -1.3610 O   0  0  0  0  0  0  0  0  0  0  0  0
    2.0550    1.0050   -0.5370 C   0  0  0  0  0  0  0  0  0  0  0  0
    1.9880    2.2890    0.0240 C   0  0  0  0  0  0  0  0  0  0  0  0
    2.9910    2.7430    0.8500 C   0  0  0  0  0  0  0  0  0  0  0  0
    4.0930    1.9650    1.1600 C   0  0  0  0  0  0  0  0  0  0  0  0
    5.1070    2.5050    2.0420 C   0  0  0  0  0  0  0  0  0  0  0  0
    4.7690    3.3940    2.8920 O   0  0  0  0  0  0  0  0  0  0  0  0
    6.4540    2.0530    1.9630 C   0  0  0  0  0  0  0  0  0  0  0  0
    7.2340    1.5400    0.9750 C   0  0  0  0  0  0  0  0  0  0  0  0
    8.5010    1.1860    1.1950 C   0  0  0  0  0  0  0  0  0  0  0  0
    9.0520    1.3330    2.4300 C   0  0  0  0  0  0  0  0  0  0  0  0
    7.6180    2.0490    3.3810 S   0  0  0  0  0  0  0  0  0  0  0  0
    4.1820    0.7010    0.6220 C   0  0  0  0  0  0  0  0  0  0  0  0
    3.1690    0.2630   -0.2030 C   0  0  0  0  0  0  0  0  0  0  0  0
    0.8940   -0.7720   -3.2520 C   0  0  0  0  0  0  0  0  0  0  0  0
    0.6660   -1.9630   -3.8720 C   0  0  0  0  0  0  0  0  0  0  0  0
    0.3080   -3.0770   -3.1030 C   0  0  0  0  0  0  0  0  0  0  0  0
    0.1980   -2.9230   -1.7390 C   0  0  0  0  0  0  0  0  0  0  0  0
   -0.1840   -4.0990   -1.0200 N   0  0  0  0  0  0  0  0  0  0  0  0
   -0.4360   -5.3470   -1.6540 C   0  0  0  0  0  0  0  0  0  0  0  0
   -0.5360   -6.4360   -1.0420 O   0  0  0  0  0  0  0  0  0  0  0  0
   -0.5880   -5.3540   -3.1260 C   0  0  0  0  0  0  0  0  0  0  0  0
    0.0790   -4.2950   -3.7440 O   0  0  0  0  0  0  0  0  0  0  0  0
  1  2  1  0
  2  3  2  0
  2  9  1  0
  3  4  1  0
  4  5  2  0
  5  6  1  0
  5  7  1  0
  7  8  1  0
  7  9  2  0
  9 10  1  0
 10 11  1  0
 11 12  2  0
 11 13  1  0
 13 14  1  0
 14 15  1  0
 15 16  1  0
 16 17  1  0
 16 35  2  0
 17 18  1  0
 17 32  2  0
 18 19  1  0
 19 20  2  0
 19 31  1  0
 20 21  1  0
 21 22  2  0
 22 23  1  0
 22 30  1  0
 23 24  2  0
 23 25  1  0
 25 26  2  0
 25 29  1  0
 26 27  1  0
 27 28  2  0
 28 29  1  0
 30 31  2  0
 32 33  1  0
 33 34  2  0
 34 35  1  0
 34 40  1  0
 35 36  1  0
 36 37  1  0
 37 38  2  0
 37 39  1  0
 39 40  1  0
M  END
