
     RDKit          3D

 40 44  0  0  0  0  0  0  0  0999 V2000
   -0.6120   -5.2790    0.5890 C   0  0  0  0  0  0  0  0  0  0  0  0
   -0.3770   -3.8870    0.4250 O   0  0  0  0  0  0  0  0  0  0  0  0
   -1.4400   -3.0450    0.1590 C   0  0  0  0  0  0  0  0  0  0  0  0
   -2.7350   -3.4840    0.0420 C   0  0  0  0  0  0  0  0  0  0  0  0
   -3.7770   -2.6180   -0.2250 C   0  0  0  0  0  0  0  0  0  0  0  0
   -3.5190   -1.2640   -0.3810 C   0  0  0  0  0  0  0  0  0  0  0  0
   -4.6130   -0.3610   -0.6590 C   0  0  0  0  0  0  0  0  0  0  0  0
   -4.4000    0.6080   -1.4500 O   0  0  0  0  0  0  0  0  0  0  0  0
   -5.8930   -0.5140   -0.0910 N   0  0  0  0  0  0  0  0  0  0  0  0
   -6.9850    0.3470   -0.3370 C   0  0  0  0  0  0  0  0  0  0  0  0
   -7.8900    0.1450   -1.3700 C   0  0  0  0  0  0  0  0  0  0  0  0
   -7.6720   -1.2360   -2.4150 Cl  0  0  0  0  0  0  0  0  0  0  0  0
   -8.9560    0.9850   -1.6120 C   0  0  0  0  0  0  0  0  0  0  0  0
  -10.0950    0.7220   -2.9180 Cl  0  0  0  0  0  0  0  0  0  0  0  0
   -9.1500    2.0830   -0.8000 C   0  0  0  0  0  0  0  0  0  0  0  0
   -8.2690    2.3020    0.2260 C   0  0  0  0  0  0  0  0  0  0  0  0
   -8.2100    3.2910    1.1760 C   0  0  0  0  0  0  0  0  0  0  0  0
   -7.1170    3.0560    1.9910 C   0  0  0  0  0  0  0  0  0  0  0  0
   -6.5240    1.9300    1.5280 N   0  0  0  0  0  0  0  0  0  0  0  0
   -7.2110    1.4540    0.4520 C   0  0  0  0  0  0  0  0  0  0  0  0
   -2.2120   -0.8420   -0.2600 C   0  0  0  0  0  0  0  0  0  0  0  0
   -1.9660    0.5980   -0.4280 C   0  0  0  0  0  0  0  0  0  0  0  0
   -1.7090    1.1210   -1.5400 O   0  0  0  0  0  0  0  0  0  0  0  0
   -1.1600   -1.6840    0.0050 C   0  0  0  0  0  0  0  0  0  0  0  0
    0.1490   -1.2420    0.1240 O   0  0  0  0  0  0  0  0  0  0  0  0
    0.9870   -1.1840   -0.9920 C   0  0  0  0  0  0  0  0  0  0  0  0
    2.3350   -0.6830   -0.6310 C   0  0  0  0  0  0  0  0  0  0  0  0
    2.5460   -0.3860    0.5720 O   0  0  0  0  0  0  0  0  0  0  0  0
    3.3780   -0.5310   -1.5840 N   0  0  0  0  0  0  0  0  0  0  0  0
    4.6130   -0.0650   -1.2140 C   0  0  0  0  0  0  0  0  0  0  0  0
    5.7850    0.1940   -1.8230 C   0  0  0  0  0  0  0  0  0  0  0  0
    6.8380    0.6640   -1.1380 C   0  0  0  0  0  0  0  0  0  0  0  0
    8.1180    0.9730   -1.6610 C   0  0  0  0  0  0  0  0  0  0  0  0
    9.1110    1.4460   -0.8650 C   0  0  0  0  0  0  0  0  0  0  0  0
    8.9650    1.6590    0.4800 C   0  0  0  0  0  0  0  0  0  0  0  0
   10.0280    2.1680    1.3490 C   0  0  0  0  0  0  0  0  0  0  0  0
    7.7240    1.3660    1.0260 C   0  0  0  0  0  0  0  0  0  0  0  0
    7.4310    1.5510    2.4660 C   0  0  0  0  0  0  0  0  0  0  0  0
    6.7150    0.8820    0.1970 C   0  0  0  0  0  0  0  0  0  0  0  0
    5.0180    0.4060    0.5520 S   0  0  0  0  0  0  0  0  0  0  0  0
  1  2  1  0
  2  3  1  0
  3  4  2  0
  3 24  1  0
  4  5  1  0
  5  6  2  0
  6  7  1  0
  6 21  1  0
  7  8  2  0
  7  9  1  0
  9 10  1  0
 10 11  2  0
 10 20  1  0
 11 12  1  0
 11 13  1  0
 13 14  1  0
 13 15  2  0
 15 16  1  0
 16 17  1  0
 16 20  2  0
 17 18  2  0
 18 19  1  0
 19 20  1  0
 21 22  1  0
 21 24  2  0
 22 23  2  0
 24 25  1  0
 25 26  1  0
 26 27  1  0
 27 28  2  0
 27 29  1  0
 29 30  1  0
 30 31  2  0
 30 40  1  0
 31 32  1  0
 32 33  2  0
 32 39  1  0
 33 34  1  0
 34 35  2  0
 35 36  1  0
 35 37  1  0
 37 38  1  0
 37 39  2  0
 39 40  1  0
M  END
