
     RDKit          3D

 40 44  0  0  0  0  0  0  0  0999 V2000
   -7.2800    1.3140    3.2490 C   0  0  0  0  0  0  0  0  0  0  0  0
   -7.6880    0.0870    2.5240 C   0  0  0  0  0  0  0  0  0  0  0  0
   -9.3470   -0.4370    2.6000 Cl  0  0  0  0  0  0  0  0  0  0  0  0
   -6.7680   -0.6040    1.8190 C   0  0  0  0  0  0  0  0  0  0  0  0
   -7.3230   -2.0250    1.0010 Cl  0  0  0  0  0  0  0  0  0  0  0  0
   -5.4250   -0.1260    1.7940 C   0  0  0  0  0  0  0  0  0  0  0  0
   -4.3750   -0.6680    1.1560 C   0  0  0  0  0  0  0  0  0  0  0  0
   -4.4600   -1.8470    0.3800 C   0  0  0  0  0  0  0  0  0  0  0  0
   -2.9170   -2.1350   -0.2180 S   0  0  1  0  0  0  0  0  0  0  0  0
   -2.3960   -3.3170    0.1610 O   0  0  0  0  0  0  0  0  0  0  0  0
   -3.0550   -1.8450   -1.9240 N   0  0  0  0  0  0  0  0  0  0  0  0
   -4.1820   -1.2250   -2.5170 C   0  0  0  0  0  0  0  0  0  0  0  0
   -5.2740   -1.9450   -2.9630 C   0  0  0  0  0  0  0  0  0  0  0  0
   -6.3510   -1.3000   -3.5340 C   0  0  0  0  0  0  0  0  0  0  0  0
   -6.3970    0.0700   -3.6890 C   0  0  0  0  0  0  0  0  0  0  0  0
   -5.3130    0.7970   -3.2470 C   0  0  0  0  0  0  0  0  0  0  0  0
   -4.2370    0.1530   -2.6760 C   0  0  0  0  0  0  0  0  0  0  0  0
   -2.1300   -0.7190    0.5400 C   0  0  0  0  0  0  0  0  0  0  0  0
   -0.7980   -0.3140    0.4710 C   0  0  0  0  0  0  0  0  0  0  0  0
   -0.3640    0.8080    1.1190 C   0  0  0  0  0  0  0  0  0  0  0  0
    1.0370    1.2910    1.0870 C   0  0  0  0  0  0  0  0  0  0  0  0
    1.3330    2.3520    1.6930 O   0  0  0  0  0  0  0  0  0  0  0  0
    2.0380    0.5910    0.3950 N   0  0  0  0  0  0  0  0  0  0  0  0
    3.3810    1.0490    0.3610 C   0  0  0  0  0  0  0  0  0  0  0  0
    3.9760    2.1590    0.9150 C   0  0  0  0  0  0  0  0  0  0  0  0
    5.2950    2.1780    0.6110 N   0  0  0  0  0  0  0  0  0  0  0  0
    5.5820    1.1060   -0.1310 C   0  0  0  0  0  0  0  0  0  0  0  0
    6.9090    0.7350   -0.6820 C   0  0  0  0  0  0  0  0  0  0  0  0
    7.8980    1.4730   -0.4560 O   0  0  0  0  0  0  0  0  0  0  0  0
    7.0460   -0.4170   -1.4370 O   0  0  0  0  0  0  0  0  0  0  0  0
    8.3090   -0.7510   -1.9480 C   0  0  0  0  0  0  0  0  0  0  0  0
    9.2750   -0.9380   -0.8340 C   0  0  0  0  0  0  0  0  0  0  0  0
    8.9640   -0.9500    0.5080 C   0  0  0  0  0  0  0  0  0  0  0  0
   10.1380   -1.1510    1.2330 C   0  0  0  0  0  0  0  0  0  0  0  0
   11.1180   -1.2520    0.2690 C   0  0  0  0  0  0  0  0  0  0  0  0
   10.5720   -1.1220   -0.9130 O   0  0  0  0  0  0  0  0  0  0  0  0
    4.4280    0.3920   -0.3030 C   0  0  0  0  0  0  0  0  0  0  0  0
   -1.3130    1.5020    1.8350 C   0  0  0  0  0  0  0  0  0  0  0  0
   -2.6240    1.1080    1.9070 C   0  0  0  0  0  0  0  0  0  0  0  0
   -3.0630   -0.0440    1.2390 C   0  0  0  0  0  0  0  0  0  0  0  0
  1  2  1  0
  2  3  1  0
  2  4  2  3
  4  5  1  0
  4  6  1  0
  6  7  2  3
  7  8  1  0
  7 40  1  0
  8  9  2  0
  9 10  2  0
  9 11  1  6
  9 18  1  0
 11 12  1  0
 12 13  2  0
 12 17  1  0
 13 14  1  0
 14 15  2  0
 15 16  1  0
 16 17  2  0
 18 19  2  0
 18 40  1  0
 19 20  1  0
 20 21  1  0
 20 38  2  0
 21 22  2  0
 21 23  1  0
 23 24  1  0
 24 25  2  0
 24 37  1  0
 25 26  1  0
 26 27  1  0
 27 28  1  0
 27 37  2  0
 28 29  2  0
 28 30  1  0
 30 31  1  0
 31 32  1  0
 32 33  2  0
 32 36  1  0
 33 34  1  0
 34 35  2  0
 35 36  1  0
 38 39  1  0
 39 40  2  0
M  END
