
     RDKit          3D

 40 43  0  0  0  0  0  0  0  0999 V2000
    5.4090    0.8820   -2.5740 C   0  0  0  0  0  0  0  0  0  0  0  0
    4.8440    2.1300   -2.0310 C   0  0  0  0  0  0  0  0  0  0  0  0
    5.6000    3.2930   -2.1560 C   0  0  0  0  0  0  0  0  0  0  0  0
    6.8310    3.3190   -2.7650 O   0  0  0  0  0  0  0  0  0  0  0  0
    5.0890    4.4710   -1.6480 C   0  0  0  0  0  0  0  0  0  0  0  0
    3.8610    4.4740   -1.0360 C   0  0  0  0  0  0  0  0  0  0  0  0
    3.1210    3.3020   -0.9210 C   0  0  0  0  0  0  0  0  0  0  0  0
    3.6230    2.1190   -1.4270 C   0  0  0  0  0  0  0  0  0  0  0  0
    2.8640    0.8810   -1.3190 C   0  0  0  0  0  0  0  0  0  0  0  0
    2.6470    0.1210   -2.3240 O   0  0  0  0  0  0  0  0  0  0  0  0
    2.3150    0.4430   -0.0800 N   0  0  0  0  0  0  0  0  0  0  0  0
    1.5510   -0.7750    0.0900 C   0  0  1  0  0  0  0  0  0  0  0  0
    2.5460   -1.8540    0.5710 C   0  0  0  0  0  0  0  0  0  0  0  0
    3.3090   -1.3770    2.1220 S   0  0  0  0  0  0  0  0  0  0  0  0
    4.4460   -2.6530    2.6140 C   0  0  0  0  0  0  0  0  0  0  0  0
    5.7630   -2.6350    2.2190 C   0  0  0  0  0  0  0  0  0  0  0  0
    6.6450   -3.6400    2.6140 C   0  0  0  0  0  0  0  0  0  0  0  0
    6.1980   -4.6740    3.4150 C   0  0  0  0  0  0  0  0  0  0  0  0
    4.8910   -4.6990    3.8120 C   0  0  0  0  0  0  0  0  0  0  0  0
    4.0280   -3.6930    3.4110 C   0  0  0  0  0  0  0  0  0  0  0  0
    0.4000   -0.6720    1.0090 C   0  0  2  0  0  0  0  0  0  0  0  0
   -0.3170   -1.8520    1.2060 O   0  0  0  0  0  0  0  0  0  0  0  0
   -0.5160    0.4990    0.8110 C   0  0  0  0  0  0  0  0  0  0  0  0
   -1.4690    0.3720   -0.2610 N   0  0  2  0  0  0  0  0  0  0  0  0
   -0.9670    0.9780   -1.4510 C   0  0  0  0  0  0  0  0  0  0  0  0
   -1.8520    0.6890   -2.6550 C   0  0  1  0  0  0  0  0  0  0  0  0
   -1.4450   -0.6580   -3.1900 C   0  0  0  0  0  0  0  0  0  0  0  0
   -2.3700   -1.2060   -4.2270 C   0  0  0  0  0  0  0  0  0  0  0  0
   -3.8280   -0.9880   -3.8950 C   0  0  0  0  0  0  0  0  0  0  0  0
   -3.9870   -0.5960   -2.4190 C   0  0  0  0  0  0  0  0  0  0  0  0
   -3.3130    0.7680   -2.2970 C   0  0  1  0  0  0  0  0  0  0  0  0
   -3.5780    1.4440   -0.9990 C   0  0  0  0  0  0  0  0  0  0  0  0
   -2.6390    1.1640    0.1190 C   0  0  1  0  0  0  0  0  0  0  0  0
   -3.4230    0.5150    1.1940 C   0  0  0  0  0  0  0  0  0  0  0  0
   -3.0360   -0.5810    1.6450 O   0  0  0  0  0  0  0  0  0  0  0  0
   -4.6050    1.0840    1.7430 N   0  0  0  0  0  0  0  0  0  0  0  0
   -5.3830    0.4850    2.7780 C   0  0  2  0  0  0  0  0  0  0  0  0
   -6.5560    1.3870    3.0840 C   0  0  0  0  0  0  0  0  0  0  0  0
   -4.6190    0.2950    4.0690 C   0  0  0  0  0  0  0  0  0  0  0  0
   -5.9520   -0.8620    2.3960 C   0  0  0  0  0  0  0  0  0  0  0  0
  1  2  1  0
  2  3  2  0
  2  8  1  0
  3  4  1  0
  3  5  1  0
  5  6  2  0
  6  7  1  0
  7  8  2  0
  8  9  1  0
  9 10  2  0
  9 11  1  0
 11 12  1  0
 12 13  1  1
 12 21  1  0
 13 14  1  0
 14 15  1  0
 15 16  2  0
 15 20  1  0
 16 17  1  0
 17 18  2  0
 18 19  1  0
 19 20  2  0
 21 22  1  6
 21 23  1  0
 24 23  1  1
 24 25  1  0
 24 33  1  0
 26 25  1  1
 26 27  1  0
 26 31  1  0
 27 28  1  0
 28 29  1  0
 29 30  1  0
 31 30  1  1
 31 32  1  0
 32 33  1  0
 33 34  1  1
 34 35  2  0
 34 36  1  0
 36 37  1  0
 37 38  1  1
 37 39  1  0
 37 40  1  0
M  CHG  1  24   1
M  END
