
     RDKit          3D

 40 44  0  0  0  0  0  0  0  0999 V2000
    0.9010   -4.8370    0.1790 C   0  0  0  0  0  0  0  0  0  0  0  0
    0.9570   -3.3560    0.2000 C   0  0  0  0  0  0  0  0  0  0  0  0
    2.3980   -2.4590    0.5830 S   0  0  0  0  0  0  0  0  0  0  0  0
    1.7020   -0.8500    0.4080 C   0  0  0  0  0  0  0  0  0  0  0  0
    2.4060    0.3610    0.6060 N   0  0  0  0  0  0  0  0  0  0  0  0
    3.7980    0.2580    0.9640 C   0  0  0  0  0  0  0  0  0  0  0  0
    4.3010   -0.8750    1.0780 O   0  0  0  0  0  0  0  0  0  0  0  0
    4.5910    1.4950    1.1840 C   0  0  0  0  0  0  0  0  0  0  0  0
    5.9050    1.1120    1.5180 O   0  0  0  0  0  0  0  0  0  0  0  0
    6.9030    2.0580    1.7860 C   0  0  0  0  0  0  0  0  0  0  0  0
    6.5900    3.4040    1.7220 C   0  0  0  0  0  0  0  0  0  0  0  0
    7.5250    4.3810    1.9750 C   0  0  0  0  0  0  0  0  0  0  0  0
    8.7970    3.9940    2.2970 C   0  0  0  0  0  0  0  0  0  0  0  0
    9.9970    5.2180    2.6210 Cl  0  0  0  0  0  0  0  0  0  0  0  0
    9.1520    2.6590    2.3720 C   0  0  0  0  0  0  0  0  0  0  0  0
    8.1840    1.7000    2.1110 C   0  0  0  0  0  0  0  0  0  0  0  0
    8.5730   -0.0030    2.1900 Cl  0  0  0  0  0  0  0  0  0  0  0  0
    0.3650   -1.0950    0.0560 C   0  0  0  0  0  0  0  0  0  0  0  0
   -0.4960    0.1040   -0.1950 C   0  0  0  0  0  0  0  0  0  0  0  0
    0.0610    1.2540   -0.2730 O   0  0  0  0  0  0  0  0  0  0  0  0
   -1.8720    0.1370   -0.3500 N   0  0  0  0  0  0  0  0  0  0  0  0
   -2.6970    1.2900   -0.6000 C   0  0  0  0  0  0  0  0  0  0  0  0
   -2.2800    2.5360   -0.2820 C   0  0  0  0  0  0  0  0  0  0  0  0
   -3.0610    3.6810   -0.5380 C   0  0  0  0  0  0  0  0  0  0  0  0
   -4.2710    3.5250   -1.1240 C   0  0  0  0  0  0  0  0  0  0  0  0
   -5.0610    4.6250   -1.3880 C   0  0  0  0  0  0  0  0  0  0  0  0
   -6.2180    4.4200   -1.9530 O   0  0  0  0  0  0  0  0  0  0  0  0
   -6.6730    3.2460   -2.2820 C   0  0  0  0  0  0  0  0  0  0  0  0
   -7.8200    3.1350   -2.8320 O   0  0  0  0  0  0  0  0  0  0  0  0
   -5.9420    2.1050   -2.0490 C   0  0  0  0  0  0  0  0  0  0  0  0
   -4.7050    2.2440   -1.4530 C   0  0  0  0  0  0  0  0  0  0  0  0
   -3.9380    1.1350   -1.2000 C   0  0  0  0  0  0  0  0  0  0  0  0
   -0.0070   -2.3920   -0.0510 C   0  0  0  0  0  0  0  0  0  0  0  0
   -1.3600   -2.9610   -0.4760 C   0  0  0  0  0  0  0  0  0  0  0  0
   -2.1900   -3.4050    0.6660 C   0  0  0  0  0  0  0  0  0  0  0  0
   -3.4750   -3.9370    0.1170 C   0  0  0  0  0  0  0  0  0  0  0  0
   -4.6070   -3.1900   -0.1070 C   0  0  0  0  0  0  0  0  0  0  0  0
   -5.5470   -4.0610   -0.6110 C   0  0  0  0  0  0  0  0  0  0  0  0
   -5.0120   -5.2910   -0.6930 N   0  0  0  0  0  0  0  0  0  0  0  0
   -3.7300   -5.2610   -0.2510 C   0  0  0  0  0  0  0  0  0  0  0  0
  1  2  1  0
  2  3  1  0
  2 33  2  0
  3  4  1  0
  4  5  1  0
  4 18  2  0
  5  6  1  0
  6  7  2  0
  6  8  1  0
  8  9  1  0
  9 10  1  0
 10 11  2  0
 10 16  1  0
 11 12  1  0
 12 13  2  0
 13 14  1  0
 13 15  1  0
 15 16  2  0
 16 17  1  0
 18 19  1  0
 18 33  1  0
 19 20  2  0
 19 21  1  0
 21 22  1  0
 22 23  1  0
 22 32  2  0
 23 24  2  0
 24 25  1  0
 25 26  2  0
 25 31  1  0
 26 27  1  0
 27 28  1  0
 28 29  2  0
 28 30  1  0
 30 31  2  0
 31 32  1  0
 33 34  1  0
 34 35  1  0
 35 36  1  0
 36 37  1  0
 36 40  2  0
 37 38  2  0
 38 39  1  0
 39 40  1  0
M  END
