
     RDKit          3D

 40 44  0  0  0  0  0  0  0  0999 V2000
   -1.6400   -6.3410    0.9450 C   0  0  0  0  0  0  0  0  0  0  0  0
   -1.9870   -4.9940    0.3850 C   0  0  0  0  0  0  0  0  0  0  0  0
   -2.7870   -4.7350   -0.6930 C   0  0  0  0  0  0  0  0  0  0  0  0
   -2.8020   -3.3780   -0.8160 C   0  0  0  0  0  0  0  0  0  0  0  0
   -2.0360   -2.8240    0.1560 C   0  0  0  0  0  0  0  0  0  0  0  0
   -1.6390   -1.4850    0.5480 C   0  0  0  0  0  0  0  0  0  0  0  0
   -0.2650   -1.3350    0.7170 N   0  0  0  0  0  0  0  0  0  0  0  0
    0.3200   -0.1430    0.7340 C   0  0  0  0  0  0  0  0  0  0  0  0
    2.1160   -0.0710    0.9640 S   0  0  0  0  0  0  0  0  0  0  0  0
    2.8750   -0.1450   -0.6560 C   0  0  0  0  0  0  0  0  0  0  0  0
    4.3780   -0.0860   -0.4840 C   0  0  0  0  0  0  0  0  0  0  0  0
    4.9450   -1.1880   -0.3360 O   0  0  0  0  0  0  0  0  0  0  0  0
    5.0650    1.1380   -0.4950 N   0  0  0  0  0  0  0  0  0  0  0  0
    6.4460    1.2780   -0.3460 C   0  0  0  0  0  0  0  0  0  0  0  0
    6.9590    2.5800   -0.3200 C   0  0  0  0  0  0  0  0  0  0  0  0
    8.3050    2.8310   -0.1800 C   0  0  0  0  0  0  0  0  0  0  0  0
    9.2050    1.7860   -0.0590 C   0  0  0  0  0  0  0  0  0  0  0  0
   10.5520    2.0970    0.0800 O   0  0  0  0  0  0  0  0  0  0  0  0
    8.7330    0.5030   -0.0810 C   0  0  0  0  0  0  0  0  0  0  0  0
    9.7040   -0.6110    0.0500 C   0  0  0  0  0  0  0  0  0  0  0  0
    7.3710    0.2780   -0.2230 C   0  0  0  0  0  0  0  0  0  0  0  0
   -0.3970    0.9750    0.5870 N   0  0  0  0  0  0  0  0  0  0  0  0
   -1.7090    0.9240    0.4290 C   0  0  0  0  0  0  0  0  0  0  0  0
   -2.4800    2.0600    0.3060 C   0  0  0  0  0  0  0  0  0  0  0  0
   -1.7010    3.6240    0.3080 Cl  0  0  0  0  0  0  0  0  0  0  0  0
   -3.8570    2.0100    0.1820 C   0  0  0  0  0  0  0  0  0  0  0  0
   -4.6210    3.2330    0.0490 C   0  0  0  0  0  0  0  0  0  0  0  0
   -4.8140    3.6510   -1.1190 O   0  0  0  0  0  0  0  0  0  0  0  0
   -5.1690    3.9930    1.1810 C   0  0  0  0  0  0  0  0  0  0  0  0
   -5.9030    5.2050    0.6590 C   0  0  0  0  0  0  0  0  0  0  0  0
   -6.5770    6.1410    2.0390 Cl  0  0  0  0  0  0  0  0  0  0  0  0
   -4.4770    0.7890    0.1860 C   0  0  0  0  0  0  0  0  0  0  0  0
   -3.7140   -0.3900    0.3100 C   0  0  0  0  0  0  0  0  0  0  0  0
   -2.3580   -0.3520    0.4150 C   0  0  0  0  0  0  0  0  0  0  0  0
   -4.4670   -1.6100    0.6300 C   0  0  0  0  0  0  0  0  0  0  0  0
   -4.0560   -2.3300    1.5600 O   0  0  0  0  0  0  0  0  0  0  0  0
   -5.6700   -1.9260   -0.1360 C   0  0  0  0  0  0  0  0  0  0  0  0
   -6.1530   -0.6560   -0.8420 C   0  0  0  0  0  0  0  0  0  0  0  0
   -5.9430    0.5760    0.0520 C   0  0  0  0  0  0  0  0  0  0  0  0
   -1.5650   -3.8740    0.8560 O   0  0  0  0  0  0  0  0  0  0  0  0
  1  2  1  0
  2  3  2  0
  2 40  1  0
  3  4  1  0
  4  5  2  0
  5  6  1  0
  5 40  1  0
  6  7  2  0
  6 34  1  0
  7  8  1  0
  8  9  1  0
  8 22  2  0
  9 10  1  0
 10 11  1  0
 11 12  2  0
 11 13  1  0
 13 14  1  0
 14 15  2  0
 14 21  1  0
 15 16  1  0
 16 17  2  0
 17 18  1  0
 17 19  1  0
 19 20  1  0
 19 21  2  0
 22 23  1  0
 23 24  2  0
 23 34  1  0
 24 25  1  0
 24 26  1  0
 26 27  1  0
 26 32  2  0
 27 28  2  0
 27 29  1  0
 29 30  1  0
 30 31  1  0
 32 33  1  0
 32 39  1  0
 33 34  2  0
 33 35  1  0
 35 36  2  0
 35 37  1  0
 37 38  1  0
 38 39  1  0
M  END
