
     RDKit          3D

 40 44  0  0  0  0  0  0  0  0999 V2000
   -8.6870   -0.9140    0.3470 C   0  0  0  0  0  0  0  0  0  0  0  0
   -8.4800   -0.3920   -0.8700 C   0  0  0  0  0  0  0  0  0  0  0  0
   -9.5760    0.3400   -1.5900 C   0  0  0  0  0  0  0  0  0  0  0  0
   -9.0400   -0.0790   -3.3030 S   0  0  0  0  0  0  0  0  0  0  0  0
   -7.3150   -0.3240   -2.8980 C   0  0  0  0  0  0  0  0  0  0  0  0
   -7.2590   -0.4620   -1.5990 C   0  0  0  0  0  0  0  0  0  0  0  0
   -5.9820   -0.6820   -0.9520 N   0  0  0  0  0  0  0  0  0  0  0  0
   -5.5510    0.2560   -0.0010 C   0  0  0  0  0  0  0  0  0  0  0  0
   -6.2830    1.2580    0.2610 O   0  0  0  0  0  0  0  0  0  0  0  0
   -4.2860    0.1530    0.7230 C   0  0  0  0  0  0  0  0  0  0  0  0
   -3.4080   -0.8930    0.5140 C   0  0  0  0  0  0  0  0  0  0  0  0
   -2.2080   -0.9630    1.2220 C   0  0  0  0  0  0  0  0  0  0  0  0
   -1.8480   -0.0120    2.1440 C   0  0  0  0  0  0  0  0  0  0  0  0
   -0.6370   -0.1570    2.8030 O   0  0  0  0  0  0  0  0  0  0  0  0
    0.3810    0.7560    2.7510 C   0  0  0  0  0  0  0  0  0  0  0  0
    0.8210    1.3450    3.9080 C   0  0  0  0  0  0  0  0  0  0  0  0
    1.8450    2.2670    3.8790 C   0  0  0  0  0  0  0  0  0  0  0  0
    2.3840    3.0000    5.3740 Cl  0  0  0  0  0  0  0  0  0  0  0  0
    2.4180    2.5840    2.6550 C   0  0  0  0  0  0  0  0  0  0  0  0
    1.9680    1.9860    1.4980 C   0  0  0  0  0  0  0  0  0  0  0  0
    0.9420    1.0630    1.5320 C   0  0  0  0  0  0  0  0  0  0  0  0
    0.4860    0.4590    0.3650 O   0  0  0  0  0  0  0  0  0  0  0  0
    0.9530    0.6540   -0.9160 C   0  0  0  0  0  0  0  0  0  0  0  0
    2.3650    0.2810   -1.1680 C   0  0  0  0  0  0  0  0  0  0  0  0
    2.8060    0.5720   -2.3040 O   0  0  0  0  0  0  0  0  0  0  0  0
    3.2190   -0.3590   -0.2510 N   0  0  0  0  0  0  0  0  0  0  0  0
    4.5700   -0.7260   -0.4440 C   0  0  0  0  0  0  0  0  0  0  0  0
    5.2000   -1.4420    0.5820 C   0  0  0  0  0  0  0  0  0  0  0  0
    6.5020   -1.8430    0.5020 C   0  0  0  0  0  0  0  0  0  0  0  0
    7.2600   -1.5540   -0.6120 C   0  0  0  0  0  0  0  0  0  0  0  0
    8.5510   -1.8340   -0.9310 N   0  0  0  0  0  0  0  0  0  0  0  0
    8.7760   -1.3110   -2.1530 C   0  0  0  0  0  0  0  0  0  0  0  0
    7.6340   -0.7000   -2.6120 C   0  0  0  0  0  0  0  0  0  0  0  0
    7.4070   -0.0050   -3.8730 C   0  0  0  0  0  0  0  0  0  0  0  0
    8.3750    0.0720   -4.6980 O   0  0  0  0  0  0  0  0  0  0  0  0
    6.6720   -0.8520   -1.6390 C   0  0  0  0  0  0  0  0  0  0  0  0
    5.3340   -0.4460   -1.5430 C   0  0  0  0  0  0  0  0  0  0  0  0
   -2.7150    1.0300    2.3560 C   0  0  0  0  0  0  0  0  0  0  0  0
   -2.3110    2.2580    3.5090 Cl  0  0  0  0  0  0  0  0  0  0  0  0
   -3.9000    1.0950    1.6550 C   0  0  0  0  0  0  0  0  0  0  0  0
  1  2  2  0
  2  3  1  0
  2  6  1  0
  3  4  1  0
  4  5  1  0
  5  6  2  0
  6  7  1  0
  7  8  1  0
  8  9  2  0
  8 10  1  0
 10 11  2  0
 10 40  1  0
 11 12  1  0
 12 13  2  0
 13 14  1  0
 13 38  1  0
 14 15  1  0
 15 16  2  0
 15 21  1  0
 16 17  1  0
 17 18  1  0
 17 19  2  0
 19 20  1  0
 20 21  2  0
 21 22  1  0
 22 23  1  0
 23 24  1  0
 24 25  2  0
 24 26  1  0
 26 27  1  0
 27 28  2  0
 27 37  1  0
 28 29  1  0
 29 30  2  0
 30 31  1  0
 30 36  1  0
 31 32  1  0
 32 33  2  0
 33 34  1  0
 33 36  1  0
 34 35  2  0
 36 37  2  0
 38 39  1  0
 38 40  2  0
M  END
