
     RDKit          3D

 19 20  0  0  0  0  0  0  0  0999 V2000
    4.5260    1.1030   -0.7970 C   0  0  0  0  0  0  0  0  0  0  0  0
    3.7110    0.9290    0.4810 C   0  0  0  0  0  0  0  0  0  0  0  0
    2.6140    1.8910    0.5450 C   0  0  0  0  0  0  0  0  0  0  0  0
    1.3590    1.6200    0.5990 C   0  0  0  0  0  0  0  0  0  0  0  0
    0.7630    0.3060    0.6070 C   0  0  0  0  0  0  0  0  0  0  0  0
    1.3560   -0.8550    0.5580 O   0  0  0  0  0  0  0  0  0  0  0  0
    0.5410   -1.8610    0.5820 C   0  0  0  0  0  0  0  0  0  0  0  0
    0.3720   -3.2280    0.5680 C   0  0  0  0  0  0  0  0  0  0  0  0
    1.4740   -4.2530    0.4960 C   0  0  0  0  0  0  0  0  0  0  0  0
   -0.9160   -3.4720    0.6280 O   0  0  0  0  0  0  0  0  0  0  0  0
   -1.6080   -2.3710    0.6800 C   0  0  0  0  0  0  0  0  0  0  0  0
   -3.1050   -2.2220    0.7570 C   0  0  0  0  0  0  0  0  0  0  0  0
   -0.7290   -1.3280    0.6540 C   0  0  0  0  0  0  0  0  0  0  0  0
   -0.6210    0.0320    0.6710 C   0  0  0  0  0  0  0  0  0  0  0  0
   -1.6230    1.0320    0.7380 N   0  0  0  0  0  0  0  0  0  0  0  0
   -2.2330    1.6020   -0.4110 C   0  0  0  0  0  0  0  0  0  0  0  0
   -1.8540    1.1870   -1.5370 O   0  0  0  0  0  0  0  0  0  0  0  0
   -3.2300    2.5950   -0.3540 N   0  0  0  0  0  0  0  0  0  0  0  0
   -3.8160    3.1390   -1.5620 C   0  0  0  0  0  0  0  0  0  0  0  0
  1  2  1  0
  2  3  1  0
  3  4  2  3
  4  5  1  0
  5  6  1  0
  5 14  2  0
  6  7  1  0
  7  8  2  0
  7 13  1  0
  8  9  1  0
  8 10  1  0
 10 11  1  0
 11 12  1  0
 11 13  2  0
 13 14  1  0
 14 15  1  0
 15 16  1  0
 16 17  2  0
 16 18  1  0
 18 19  1  0
M  END
