
     RDKit          3D

 19 20  0  0  0  0  0  0  0  0999 V2000
    5.2940   -1.2050   -0.1890 C   0  0  0  0  0  0  0  0  0  0  0  0
    5.3010    0.2640    0.0210 C   0  0  0  0  0  0  0  0  0  0  0  0
    6.5710    0.8660    0.0020 O   0  0  0  0  0  0  0  0  0  0  0  0
    4.2180    0.9750    0.2140 C   0  0  0  0  0  0  0  0  0  0  0  0
    2.8650    0.4440    0.2520 C   0  0  0  0  0  0  0  0  0  0  0  0
    2.4170   -0.7240    0.8400 C   0  0  0  0  0  0  0  0  0  0  0  0
    1.0510   -0.7410    0.5760 C   0  0  0  0  0  0  0  0  0  0  0  0
    0.7300    0.3900   -0.1440 C   0  0  0  0  0  0  0  0  0  0  0  0
   -0.6100    0.7400   -0.6190 C   0  0  0  0  0  0  0  0  0  0  0  0
   -0.7920    1.8990   -1.3700 C   0  0  0  0  0  0  0  0  0  0  0  0
   -2.0660    2.2290   -1.8230 C   0  0  0  0  0  0  0  0  0  0  0  0
   -2.2620    3.2870   -2.5150 O   0  0  0  0  0  0  0  0  0  0  0  0
   -3.0850    1.4200   -1.5220 N   0  0  0  0  0  0  0  0  0  0  0  0
   -2.9280    0.2790   -0.7870 C   0  0  0  0  0  0  0  0  0  0  0  0
   -4.1170   -0.5620   -0.5020 C   0  0  2  0  0  0  0  0  0  0  0  0
   -4.5560   -0.3640    0.9520 C   0  0  0  0  0  0  0  0  0  0  0  0
   -3.8780   -2.0230   -0.7000 C   0  0  0  0  0  0  0  0  0  0  0  0
   -1.6870   -0.0030   -0.3700 N   0  0  0  0  0  0  0  0  0  0  0  0
    1.8310    1.0450   -0.3040 O   0  0  0  0  0  0  0  0  0  0  0  0
  1  2  1  0
  2  3  1  0
  2  4  2  3
  4  5  1  0
  5  6  2  0
  5 19  1  0
  6  7  1  0
  7  8  2  0
  8  9  1  0
  8 19  1  0
  9 10  2  0
  9 18  1  0
 10 11  1  0
 11 12  2  0
 11 13  1  0
 13 14  1  0
 14 15  1  0
 14 18  2  0
 15 16  1  1
 15 17  1  0
M  END
