
     RDKit          3D

 21 24  0  0  0  0  0  0  0  0999 V2000
    5.3570   -0.3990    0.4970 C   0  0  0  0  0  0  0  0  0  0  0  0
    4.6860    0.0250   -0.6940 N   0  0  0  0  0  0  0  0  0  0  0  0
    5.3820    0.3590   -1.8210 C   0  0  0  0  0  0  0  0  0  0  0  0
    4.4790    0.7180   -2.7780 C   0  0  0  0  0  0  0  0  0  0  0  0
    3.2790    0.5940   -2.2160 N   0  0  0  0  0  0  0  0  0  0  0  0
    3.3850    0.1640   -0.9180 C   0  0  0  0  0  0  0  0  0  0  0  0
    2.2520   -0.0680   -0.0350 C   0  0  0  0  0  0  0  0  0  0  0  0
    2.2980   -0.4910    1.2530 C   0  0  0  0  0  0  0  0  0  0  0  0
    1.1590   -0.6940    2.0480 C   0  0  0  0  0  0  0  0  0  0  0  0
   -0.0970   -0.4660    1.5360 C   0  0  0  0  0  0  0  0  0  0  0  0
   -1.3480   -0.5630    2.0220 N   0  0  0  0  0  0  0  0  0  0  0  0
   -2.2500   -0.2080    1.0690 C   0  0  0  0  0  0  0  0  0  0  0  0
   -1.5000    0.1170   -0.0420 C   0  0  0  0  0  0  0  0  0  0  0  0
   -0.1570   -0.0360    0.2280 C   0  0  0  0  0  0  0  0  0  0  0  0
    0.9590    0.1610   -0.5430 C   0  0  0  0  0  0  0  0  0  0  0  0
   -2.2140    0.5510   -1.2670 C   0  0  0  0  0  0  0  0  0  0  0  0
   -3.3350   -0.4710   -1.4730 C   0  0  0  0  0  0  0  0  0  0  0  0
   -4.2520   -0.5780   -0.3090 C   0  0  0  0  0  0  0  0  0  0  0  0
   -3.7150   -0.1140    1.0010 C   0  0  2  0  0  0  0  0  0  0  0  0
   -4.2020    1.3090    1.2740 C   0  0  0  0  0  0  0  0  0  0  0  0
   -4.2140   -0.8830    2.0770 O   0  0  0  0  0  0  0  0  0  0  0  0
  1  2  1  0
  2  3  1  0
  2  6  1  0
  3  4  2  0
  4  5  1  0
  5  6  2  0
  6  7  1  0
  7  8  2  0
  7 15  1  0
  8  9  1  0
  9 10  2  0
 10 11  1  0
 10 14  1  0
 11 12  1  0
 12 13  2  0
 12 19  1  0
 13 14  1  0
 13 16  1  0
 14 15  2  0
 16 17  1  0
 17 18  1  0
 18 19  1  0
 19 20  1  1
 19 21  1  0
M  END
