
     RDKit          3D

 21 24  0  0  0  0  0  0  0  0999 V2000
   -2.6220    2.7990    0.2220 C   0  0  0  0  0  0  0  0  0  0  0  0
   -1.7160    3.6650   -0.1200 C   0  0  0  0  0  0  0  0  0  0  0  0
   -0.3170    3.3620   -0.4830 C   0  0  0  0  0  0  0  0  0  0  0  0
    0.0260    1.9500   -0.5530 C   0  0  1  0  0  0  0  0  0  0  0  0
    1.2080    1.5820    0.1920 N   0  0  0  0  0  0  0  0  0  0  0  0
    1.5770    0.1780    0.2600 C   0  0  0  0  0  0  0  0  0  0  0  0
    2.9710   -0.2110    0.4380 C   0  0  0  0  0  0  0  0  0  0  0  0
    3.3770   -1.4620    0.5080 C   0  0  0  0  0  0  0  0  0  0  0  0
    4.8430   -1.4600    0.6890 C   0  0  0  0  0  0  0  0  0  0  0  0
    5.1380   -0.1550    1.0920 O   0  0  0  0  0  0  0  0  0  0  0  0
    4.1630    0.6490    0.5680 C   0  0  0  0  0  0  0  0  0  0  0  0
    0.6550   -0.7190    0.1640 N   0  0  0  0  0  0  0  0  0  0  0  0
   -0.7160   -0.3930   -0.0050 N   0  0  0  0  0  0  0  0  0  0  0  0
   -1.6870   -1.4090   -0.1150 C   0  0  0  0  0  0  0  0  0  0  0  0
   -2.5550   -1.7670    0.8720 C   0  0  0  0  0  0  0  0  0  0  0  0
   -3.4680   -2.7690    0.6410 C   0  0  0  0  0  0  0  0  0  0  0  0
   -3.5590   -3.4490   -0.5540 C   0  0  0  0  0  0  0  0  0  0  0  0
   -2.6700   -3.0750   -1.5480 C   0  0  0  0  0  0  0  0  0  0  0  0
   -1.7460   -2.0750   -1.3440 C   0  0  0  0  0  0  0  0  0  0  0  0
   -1.0360    0.9930   -0.0630 C   0  0  0  0  0  0  0  0  0  0  0  0
   -2.2520    1.3750    0.2560 C   0  0  0  0  0  0  0  0  0  0  0  0
  1  2  2  0
  1 21  1  0
  2  3  1  0
  4  3  1  1
  4  5  1  0
  4 20  1  0
  5  6  1  0
  6  7  1  0
  6 12  2  0
  7  8  2  0
  7 11  1  0
  8  9  1  0
  9 10  1  0
 10 11  1  0
 12 13  1  0
 13 14  1  0
 13 20  1  0
 14 15  2  0
 14 19  1  0
 15 16  1  0
 16 17  2  0
 17 18  1  0
 18 19  2  0
 20 21  2  0
M  END
