
     RDKit          3D

 19 20  0  0  0  0  0  0  0  0999 V2000
   -2.8590   -2.2710   -1.1090 C   0  0  0  0  0  0  0  0  0  0  0  0
   -3.7940   -1.6190   -0.4790 C   0  0  0  0  0  0  0  0  0  0  0  0
   -3.5770   -0.4080    0.2320 C   0  0  0  0  0  0  0  0  0  0  0  0
   -4.6080    0.2200    0.8460 C   0  0  0  0  0  0  0  0  0  0  0  0
   -4.2560    1.3930    1.5000 O   0  0  0  0  0  0  0  0  0  0  0  0
   -3.3960    2.3260    0.8590 C   0  0  0  0  0  0  0  0  0  0  0  0
   -2.1520    1.6640    0.2860 C   0  0  0  0  0  0  0  0  0  0  0  0
   -2.2390    0.1920    0.3730 C   0  0  0  0  0  0  0  0  0  0  0  0
   -1.2010   -0.5320    0.5700 N   0  0  0  0  0  0  0  0  0  0  0  0
    0.0420    0.0510    0.7030 N   0  0  0  0  0  0  0  0  0  0  0  0
    1.2620   -0.4220    0.1490 C   0  0  0  0  0  0  0  0  0  0  0  0
    1.2980   -1.6040   -0.5400 C   0  0  0  0  0  0  0  0  0  0  0  0
    2.4780   -2.0520   -1.0740 C   0  0  0  0  0  0  0  0  0  0  0  0
    3.6160   -1.3180   -0.9190 C   0  0  0  0  0  0  0  0  0  0  0  0
    4.8230   -1.7630   -1.4590 O   0  0  0  0  0  0  0  0  0  0  0  0
    3.6220   -0.1000   -0.2190 C   0  0  0  0  0  0  0  0  0  0  0  0
    4.8020    0.5870   -0.0980 O   0  0  0  0  0  0  0  0  0  0  0  0
    4.8710    1.8020    0.5930 C   0  0  0  0  0  0  0  0  0  0  0  0
    2.4260    0.3180    0.3020 C   0  0  0  0  0  0  0  0  0  0  0  0
  1  2  2  0
  2  3  1  0
  3  4  2  0
  3  8  1  0
  4  5  1  0
  5  6  1  0
  6  7  1  0
  7  8  1  0
  8  9  2  3
  9 10  1  0
 10 11  1  0
 11 12  2  0
 11 19  1  0
 12 13  1  0
 13 14  2  0
 14 15  1  0
 14 16  1  0
 16 17  1  0
 16 19  2  0
 17 18  1  0
M  END
