
     RDKit          3D

 23 25  0  0  0  0  0  0  0  0999 V2000
   -4.8680    2.3410   -0.4180 C   0  0  0  0  0  0  0  0  0  0  0  0
   -3.4030    2.5460   -0.1110 C   0  0  0  0  0  0  0  0  0  0  0  0
   -2.8540    1.6670    0.8240 N   0  0  0  0  0  0  0  0  0  0  0  0
   -2.6740    0.3070    0.5760 C   0  0  1  0  0  0  0  0  0  0  0  0
   -3.8310   -0.5730    0.3520 C   0  0  0  0  0  0  0  0  0  0  0  0
   -3.3790   -1.9050   -0.2630 C   0  0  0  0  0  0  0  0  0  0  0  0
   -1.9210   -2.1730    0.0480 C   0  0  0  0  0  0  0  0  0  0  0  0
   -1.1000   -1.1800   -0.7040 C   0  0  2  0  0  0  0  0  0  0  0  0
    0.3230   -1.3140   -0.3560 C   0  0  0  0  0  0  0  0  0  0  0  0
    0.8050   -2.4760    0.2070 C   0  0  0  0  0  0  0  0  0  0  0  0
    2.1240   -2.6640    0.5570 C   0  0  0  0  0  0  0  0  0  0  0  0
    2.6540   -3.9150    1.1630 C   0  0  0  0  0  0  0  0  0  0  0  0
    2.9850   -1.6400    0.3300 N   0  0  0  0  0  0  0  0  0  0  0  0
    2.5310   -0.5010   -0.2190 C   0  0  0  0  0  0  0  0  0  0  0  0
    3.5120    0.5190   -0.4160 N   0  0  0  0  0  0  0  0  0  0  0  0
    3.9780    0.8980   -1.5800 N   0  0  0  0  0  0  0  0  0  0  0  0
    4.8870    1.8790   -1.4140 C   0  0  0  0  0  0  0  0  0  0  0  0
    4.9750    2.1020   -0.0920 N   0  0  0  0  0  0  0  0  0  0  0  0
    5.8150    3.0640    0.6140 C   0  0  0  0  0  0  0  0  0  0  0  0
    4.1260    1.2610    0.5170 C   0  0  0  0  0  0  0  0  0  0  0  0
    3.9210    1.1670    1.7480 O   0  0  0  0  0  0  0  0  0  0  0  0
    1.2360   -0.3290   -0.5580 N   0  0  0  0  0  0  0  0  0  0  0  0
   -1.6420    0.2120   -0.5690 C   0  0  0  0  0  0  0  0  0  0  0  0
  1  2  1  0
  2  3  1  0
  4  3  1  6
  4  5  1  0
  4 23  1  0
  5  6  1  0
  6  7  1  0
  7  8  1  0
  8  9  1  1
  8 23  1  0
  9 10  2  0
  9 22  1  0
 10 11  1  0
 11 12  1  0
 11 13  2  0
 13 14  1  0
 14 15  1  0
 14 22  2  0
 15 16  1  0
 15 20  1  0
 16 17  2  0
 17 18  1  0
 18 19  1  0
 18 20  1  0
 20 21  2  0
M  END
