
     RDKit          3D

 23 25  0  0  0  0  0  0  0  0999 V2000
    3.9090   -1.3630   -0.5290 C   0  0  0  0  0  0  0  0  0  0  0  0
    3.9320   -0.5140    0.4690 C   0  0  0  0  0  0  0  0  0  0  0  0
    4.8300   -0.8050    1.6400 C   0  0  0  0  0  0  0  0  0  0  0  0
    3.1060    0.6730    0.4540 C   0  0  0  0  0  0  0  0  0  0  0  0
    3.1990    1.4940    1.5120 C   0  0  0  0  0  0  0  0  0  0  0  0
    2.1800    1.0740   -0.6060 C   0  0  0  0  0  0  0  0  0  0  0  0
    1.0270    0.1760   -0.8200 C   0  0  0  0  0  0  0  0  0  0  0  0
    0.9080   -0.2360   -2.0480 N   0  0  0  0  0  0  0  0  0  0  0  0
   -0.1140   -1.1150   -2.5550 C   0  0  0  0  0  0  0  0  0  0  0  0
   -0.0390   -1.9650   -3.5810 N   0  0  0  0  0  0  0  0  0  0  0  0
   -1.2350   -2.5680   -3.6810 N   0  0  0  0  0  0  0  0  0  0  0  0
   -2.0330   -2.1000   -2.7360 N   0  0  0  0  0  0  0  0  0  0  0  0
   -1.3950   -1.1710   -1.9770 C   0  0  0  0  0  0  0  0  0  0  0  0
   -1.9280   -0.4600   -0.8980 N   0  0  0  0  0  0  0  0  0  0  0  0
   -3.3790   -0.4300   -0.9280 C   0  0  0  0  0  0  0  0  0  0  0  0
   -3.7670    0.9530   -0.4200 C   0  0  0  0  0  0  0  0  0  0  0  0
   -2.7540    1.9380   -0.7170 N   0  0  0  0  0  0  0  0  0  0  0  0
   -1.4810    1.7080   -0.1170 C   0  0  0  0  0  0  0  0  0  0  0  0
   -1.2790    0.2270    0.1880 C   0  0  1  0  0  0  0  0  0  0  0  0
   -1.9690   -0.1360    1.3360 O   0  0  0  0  0  0  0  0  0  0  0  0
   -1.5580    0.4030    2.5130 C   0  0  0  0  0  0  0  0  0  0  0  0
   -2.4720   -0.0690    3.6690 C   0  0  0  0  0  0  0  0  0  0  0  0
    0.1410   -0.1510    0.3000 C   0  0  0  0  0  0  0  0  0  0  0  0
  1  2  2  0
  2  3  1  0
  2  4  1  0
  4  5  2  0
  4  6  1  0
  6  7  1  0
  7  8  2  0
  7 23  1  0
  8  9  1  0
  9 10  2  0
  9 13  1  0
 10 11  1  0
 11 12  1  0
 12 13  2  0
 13 14  1  0
 14 15  1  0
 14 19  1  0
 15 16  1  0
 16 17  1  0
 17 18  1  0
 18 19  1  0
 19 20  1  1
 19 23  1  0
 20 21  1  0
 21 22  1  0
M  END
