
     RDKit          3D

 23 25  0  0  0  0  0  0  0  0999 V2000
   -3.6380    2.9960   -0.8880 C   0  0  0  0  0  0  0  0  0  0  0  0
   -3.4380    2.0130   -1.7390 C   0  0  0  0  0  0  0  0  0  0  0  0
   -3.6190    0.6800   -1.2760 N   0  0  0  0  0  0  0  0  0  0  0  0
   -4.6270   -0.1870   -1.8420 C   0  0  0  0  0  0  0  0  0  0  0  0
   -5.3580   -1.0100   -0.8600 C   0  0  0  0  0  0  0  0  0  0  0  0
   -4.6230   -1.4160    0.3550 C   0  0  0  0  0  0  0  0  0  0  0  0
   -3.2740   -0.9710    0.4540 N   0  0  0  0  0  0  0  0  0  0  0  0
   -2.7950    0.1810   -0.2340 C   0  0  0  0  0  0  0  0  0  0  0  0
   -1.6740    0.7610    0.0550 N   0  0  0  0  0  0  0  0  0  0  0  0
   -0.8130    0.3210    1.0710 C   0  0  0  0  0  0  0  0  0  0  0  0
   -1.3090    0.1100    2.2080 O   0  0  0  0  0  0  0  0  0  0  0  0
    0.6240    0.0990    0.8650 C   0  0  0  0  0  0  0  0  0  0  0  0
    1.3350    0.2650   -0.2620 N   0  0  0  0  0  0  0  0  0  0  0  0
    2.6300   -0.0390   -0.0600 C   0  0  0  0  0  0  0  0  0  0  0  0
    2.7180   -0.4050    1.2330 N   0  0  0  0  0  0  0  0  0  0  0  0
    1.5160   -0.3280    1.8090 C   0  0  0  0  0  0  0  0  0  0  0  0
    1.2230   -0.6490    3.2090 C   0  0  0  0  0  0  0  0  0  0  0  0
    3.9150   -0.8120    1.8830 C   0  0  0  0  0  0  0  0  0  0  0  0
    5.1220   -1.0610    1.3820 C   0  0  0  0  0  0  0  0  0  0  0  0
    5.4940   -0.9600   -0.0560 C   0  0  0  0  0  0  0  0  0  0  0  0
    4.9680    0.2410   -0.6680 N   0  0  0  0  0  0  0  0  0  0  0  0
    3.6160    0.0640   -1.1510 C   0  0  2  0  0  0  0  0  0  0  0  0
    3.3020    1.2340   -2.0660 C   0  0  0  0  0  0  0  0  0  0  0  0
  1  2  2  0
  2  3  1  0
  3  4  1  0
  3  8  1  0
  4  5  1  0
  5  6  1  0
  6  7  1  0
  7  8  1  0
  8  9  2  3
  9 10  1  0
 10 11  2  0
 10 12  1  0
 12 13  1  0
 12 16  2  0
 13 14  2  0
 14 15  1  0
 14 22  1  0
 15 16  1  0
 15 18  1  0
 16 17  1  0
 18 19  2  0
 19 20  1  0
 20 21  1  0
 21 22  1  0
 22 23  1  6
M  END
