
     RDKit          3D

 23 25  0  0  0  0  0  0  0  0999 V2000
   -3.0110   -3.3500   -0.3580 C   0  0  0  0  0  0  0  0  0  0  0  0
   -2.9340   -1.8570   -0.4900 C   0  0  0  0  0  0  0  0  0  0  0  0
   -1.7560   -1.2400   -0.6630 C   0  0  0  0  0  0  0  0  0  0  0  0
   -2.1040    0.1790   -0.7460 C   0  0  0  0  0  0  0  0  0  0  0  0
   -1.2740    1.1470   -0.9120 N   0  0  0  0  0  0  0  0  0  0  0  0
    0.1480    0.8910   -1.0360 C   0  0  0  0  0  0  0  0  0  0  0  0
    0.7140    0.3120    0.2050 C   0  0  0  0  0  0  0  0  0  0  0  0
   -0.0060    0.0950    1.2080 O   0  0  0  0  0  0  0  0  0  0  0  0
    2.0880   -0.0060    0.2750 N   0  0  0  0  0  0  0  0  0  0  0  0
    2.7600   -0.5750    1.4270 C   0  0  0  0  0  0  0  0  0  0  0  0
    4.2240   -0.5510    1.1400 C   0  0  0  0  0  0  0  0  0  0  0  0
    4.3670    0.3370   -0.0670 C   0  0  1  0  0  0  0  0  0  0  0  0
    5.5230   -0.1830   -0.8970 C   0  0  0  0  0  0  0  0  0  0  0  0
    6.7110   -0.1390   -0.0840 N   0  0  0  0  0  0  0  0  0  0  0  0
    3.0490    0.1880   -0.8020 C   0  0  0  0  0  0  0  0  0  0  0  0
   -3.5500    0.2840   -0.6060 C   0  0  0  0  0  0  0  0  0  0  0  0
   -4.2740    1.5090   -0.6340 N   0  0  0  0  0  0  0  0  0  0  0  0
   -5.1310    1.7620    0.3180 C   0  0  0  0  0  0  0  0  0  0  0  0
   -5.9660    2.9330    0.4860 C   0  0  0  0  0  0  0  0  0  0  0  0
   -6.6580    2.7130    1.6040 C   0  0  0  0  0  0  0  0  0  0  0  0
   -6.3150    1.4600    2.1700 N   0  0  0  0  0  0  0  0  0  0  0  0
   -5.4390    0.8950    1.4490 C   0  0  0  0  0  0  0  0  0  0  0  0
   -3.9840   -0.9150   -0.4610 N   0  0  0  0  0  0  0  0  0  0  0  0
  1  2  1  0
  2  3  2  0
  2 23  1  0
  3  4  1  0
  4  5  2  3
  4 16  1  0
  5  6  1  0
  6  7  1  0
  7  8  2  0
  7  9  1  0
  9 10  1  0
  9 15  1  0
 10 11  1  0
 11 12  1  0
 12 13  1  6
 12 15  1  0
 13 14  1  0
 16 17  1  0
 16 23  2  0
 17 18  2  3
 18 19  1  0
 18 22  1  0
 19 20  2  0
 20 21  1  0
 21 22  2  0
M  END
