
     RDKit          3D

 22 24  0  0  0  0  0  0  0  0999 V2000
    2.7420   -1.7270   -1.0690 C   0  0  0  0  0  0  0  0  0  0  0  0
    2.7350   -0.4130   -1.7620 C   0  0  0  0  0  0  0  0  0  0  0  0
    2.6700    0.7780   -0.8750 C   0  0  0  0  0  0  0  0  0  0  0  0
    1.4120    0.8290   -0.0660 C   0  0  2  0  0  0  0  0  0  0  0  0
    1.4260    2.1290    0.8000 C   0  0  0  0  0  0  0  0  0  0  0  0
    0.6710    3.1350    0.0190 C   0  0  0  0  0  0  0  0  0  0  0  0
   -0.5350    3.3330    0.1000 N   0  0  0  0  0  0  0  0  0  0  0  0
   -1.7100    2.9850    0.6870 N   0  0  0  0  0  0  0  0  0  0  0  0
   -2.8680    2.4810    0.0180 C   0  0  0  0  0  0  0  0  0  0  0  0
   -3.0910    1.4940   -0.7880 C   0  0  0  0  0  0  0  0  0  0  0  0
   -2.2060    0.5050   -1.3200 N   0  0  0  0  0  0  0  0  0  0  0  0
   -2.0310    0.3090   -2.6440 N   0  0  0  0  0  0  0  0  0  0  0  0
   -1.1760   -0.6860   -2.8620 C   0  0  0  0  0  0  0  0  0  0  0  0
   -0.8070   -1.1230   -1.6480 N   0  0  0  0  0  0  0  0  0  0  0  0
   -1.4520   -0.3770   -0.7060 C   0  0  0  0  0  0  0  0  0  0  0  0
   -1.2740   -0.5980    0.7530 C   0  0  1  0  0  0  0  0  0  0  0  0
   -2.1990   -1.7300    1.2200 C   0  0  0  0  0  0  0  0  0  0  0  0
   -1.2740   -2.9290    1.3240 C   0  0  0  0  0  0  0  0  0  0  0  0
   -0.0390   -2.2650    1.8190 C   0  0  0  0  0  0  0  0  0  0  0  0
    0.0270   -0.9960    1.1440 N   0  0  0  0  0  0  0  0  0  0  0  0
    1.2420   -0.2560    0.9210 C   0  0  0  0  0  0  0  0  0  0  0  0
    2.2960   -0.5120    1.6040 O   0  0  0  0  0  0  0  0  0  0  0  0
  1  2  1  0
  2  3  1  0
  4  3  1  1
  4  5  1  0
  4 21  1  0
  5  6  1  0
  6  7  2  0
  7  8  1  0
  8  9  1  0
  9 10  2  0
 10 11  1  0
 11 12  1  0
 11 15  1  0
 12 13  2  0
 13 14  1  0
 14 15  2  0
 15 16  1  0
 16 17  1  6
 16 20  1  0
 17 18  1  0
 18 19  1  0
 19 20  1  0
 20 21  1  0
 21 22  2  0
M  END
