
     RDKit          3D

 23 25  0  0  0  0  0  0  0  0999 V2000
   -1.2580    4.7160   -0.2050 C   0  0  0  0  0  0  0  0  0  0  0  0
   -1.8360    3.7140   -1.1850 C   0  0  0  0  0  0  0  0  0  0  0  0
   -0.7870    2.9680   -1.8110 N   0  0  0  0  0  0  0  0  0  0  0  0
    0.0820    2.2030   -1.0390 N   0  0  0  0  0  0  0  0  0  0  0  0
   -0.4060    1.2290   -0.3530 C   0  0  0  0  0  0  0  0  0  0  0  0
   -1.7840    0.8860   -0.3350 N   0  0  0  0  0  0  0  0  0  0  0  0
   -2.1990   -0.3140   -0.1300 C   0  0  0  0  0  0  0  0  0  0  0  0
   -3.6000   -0.5950   -0.1240 N   0  0  0  0  0  0  0  0  0  0  0  0
   -4.0210   -1.8190    0.0850 C   0  0  0  0  0  0  0  0  0  0  0  0
   -5.4470   -2.1540    0.1000 C   0  0  0  0  0  0  0  0  0  0  0  0
   -3.0470   -2.8800    0.3110 C   0  0  0  0  0  0  0  0  0  0  0  0
   -3.5160   -4.2470    0.5440 C   0  0  0  0  0  0  0  0  0  0  0  0
   -1.7240   -2.6480    0.3120 C   0  0  0  0  0  0  0  0  0  0  0  0
   -1.2470   -1.3280    0.0860 N   0  0  0  0  0  0  0  0  0  0  0  0
    0.1790   -1.0700    0.0860 C   0  0  0  0  0  0  0  0  0  0  0  0
    0.4960    0.3630    0.5050 C   0  0  1  0  0  0  0  0  0  0  0  0
    1.9090    0.6570    0.1050 C   0  0  0  0  0  0  0  0  0  0  0  0
    2.8740   -0.1190    0.8950 C   0  0  0  0  0  0  0  0  0  0  0  0
    2.4800   -0.8810    1.8190 O   0  0  0  0  0  0  0  0  0  0  0  0
    4.2640    0.0030    0.6000 N   0  0  0  0  0  0  0  0  0  0  0  0
    5.4560   -0.5770    1.1380 C   0  0  0  0  0  0  0  0  0  0  0  0
    6.2230   -0.1450   -0.0800 C   0  0  0  0  0  0  0  0  0  0  0  0
    5.0460    0.7520   -0.3490 C   0  0  0  0  0  0  0  0  0  0  0  0
  1  2  1  0
  2  3  1  0
  3  4  1  0
  4  5  2  3
  5  6  1  0
  5 16  1  0
  6  7  2  0
  7  8  1  0
  7 14  1  0
  8  9  2  0
  9 10  1  0
  9 11  1  0
 11 12  1  0
 11 13  2  0
 13 14  1  0
 14 15  1  0
 15 16  1  0
 16 17  1  6
 17 18  1  0
 18 19  2  0
 18 20  1  0
 20 21  1  0
 20 23  1  0
 21 22  1  0
 22 23  1  0
M  END
