
     RDKit          3D

 27 29  0  0  0  0  0  0  0  0999 V2000
   -5.8570    2.0800   -2.5100 C   0  0  0  0  0  0  0  0  0  0  0  0
   -5.8420    0.7330   -2.8430 O   0  0  0  0  0  0  0  0  0  0  0  0
   -5.1830   -0.0320   -1.9160 C   0  0  0  0  0  0  0  0  0  0  0  0
   -3.7460    0.3610   -1.7390 C   0  0  0  0  0  0  0  0  0  0  0  0
   -3.2160   -0.5610   -0.7200 N   0  0  0  0  0  0  0  0  0  0  0  0
   -1.7940   -0.3740   -0.3650 C   0  0  0  0  0  0  0  0  0  0  0  0
   -1.3090    0.5360   -1.0010 O   0  0  0  0  0  0  0  0  0  0  0  0
   -1.3100   -1.2890    0.6300 C   0  0  0  0  0  0  0  0  0  0  0  0
   -0.0960   -1.2930    1.0770 C   0  0  0  0  0  0  0  0  0  0  0  0
    0.9590   -0.4900    0.7440 N   0  0  0  0  0  0  0  0  0  0  0  0
    1.3280    0.5610   -0.0600 C   0  0  0  0  0  0  0  0  0  0  0  0
    0.5390    1.0650   -0.8050 O   0  0  0  0  0  0  0  0  0  0  0  0
    2.7420    1.1140   -0.0330 C   0  0  0  0  0  0  0  0  0  0  0  0
    3.2230    1.7450   -1.1560 C   0  0  0  0  0  0  0  0  0  0  0  0
    4.4980    2.2820   -1.1970 C   0  0  0  0  0  0  0  0  0  0  0  0
    5.2970    2.1780   -0.0810 C   0  0  0  0  0  0  0  0  0  0  0  0
    6.5760    2.7110   -0.1080 O   0  0  0  0  0  0  0  0  0  0  0  0
    7.4540    2.5680    0.8720 O   0  0  0  0  0  0  0  0  0  0  0  0
    4.8230    1.5480    1.0490 C   0  0  0  0  0  0  0  0  0  0  0  0
    3.5230    1.0060    1.0770 C   0  0  0  0  0  0  0  0  0  0  0  0
    0.2090   -2.3490    2.1340 C   0  0  0  0  0  0  0  0  0  0  0  0
    1.3910   -2.6210    2.8100 C   0  0  0  0  0  0  0  0  0  0  0  0
    1.1000   -3.6780    3.6500 C   0  0  0  0  0  0  0  0  0  0  0  0
   -0.1800   -4.0080    3.4770 N   0  0  0  0  0  0  0  0  0  0  0  0
   -0.7350   -3.2070    2.5570 C   0  0  0  0  0  0  0  0  0  0  0  0
   -2.0050   -3.1590    2.0500 O   0  0  0  0  0  0  0  0  0  0  0  0
   -2.2760   -2.2390    1.1270 O   0  0  0  0  0  0  0  0  0  0  0  0
  1  2  1  0
  2  3  1  0
  3  4  1  0
  4  5  1  0
  5  6  1  0
  6  7  2  0
  6  8  1  0
  8  9  2  0
  8 27  1  0
  9 10  1  0
  9 21  1  0
 10 11  1  0
 11 12  2  0
 11 13  1  0
 13 14  2  0
 13 20  1  0
 14 15  1  0
 15 16  2  0
 16 17  1  0
 16 19  1  0
 17 18  1  0
 19 20  2  0
 21 22  1  0
 21 25  2  0
 22 23  2  0
 23 24  1  0
 24 25  1  0
 25 26  1  0
 26 27  1  0
M  END
