
     RDKit          3D

 27 27  0  0  0  0  0  0  0  0999 V2000
    4.7370    0.1550    0.4510 C   0  0  0  0  0  0  0  0  0  0  0  0
    4.0030   -0.9580    0.7320 C   0  0  0  0  0  0  0  0  0  0  0  0
    4.7360   -2.1130    1.1550 C   0  0  0  0  0  0  0  0  0  0  0  0
    4.3320   -3.2950    1.4870 C   0  0  0  0  0  0  0  0  0  0  0  0
    3.0260   -3.7170    1.5030 O   0  0  0  0  0  0  0  0  0  0  0  0
    2.5540   -0.8840    0.5820 C   0  0  0  0  0  0  0  0  0  0  0  0
    1.7490   -1.8030    0.7960 O   0  0  0  0  0  0  0  0  0  0  0  0
    2.0240    0.3110    0.1640 O   0  0  0  0  0  0  0  0  0  0  0  0
    0.7330    0.6800   -0.0640 C   0  0  0  0  0  0  0  0  0  0  0  0
    0.5580    2.0870   -0.5160 C   0  0  0  0  0  0  0  0  0  0  0  0
    1.6410    2.7950   -0.6400 N   0  0  0  0  0  0  0  0  0  0  0  0
    1.5030    4.1670   -1.0780 C   0  0  0  0  0  0  0  0  0  0  0  0
    2.8620    4.7760   -1.2690 C   0  0  0  0  0  0  0  0  0  0  0  0
    3.8840    4.0760   -1.0430 O   0  0  0  0  0  0  0  0  0  0  0  0
    2.9750    6.0930   -1.6890 O   0  0  0  0  0  0  0  0  0  0  0  0
   -0.3550   -0.0350    0.0620 C   0  0  0  0  0  0  0  0  0  0  0  0
   -1.7110    0.3840   -0.1870 C   0  0  0  0  0  0  0  0  0  0  0  0
   -2.7360   -0.4400   -0.0210 C   0  0  0  0  0  0  0  0  0  0  0  0
   -2.4570   -1.7620    0.4140 N   0  0  0  0  0  0  0  0  0  0  0  0
   -2.8160   -2.8440   -0.4180 C   0  0  0  0  0  0  0  0  0  0  0  0
   -2.5890   -4.2020   -0.0860 N   0  0  0  0  0  0  0  0  0  0  0  0
   -3.3760   -2.5940   -1.5310 O   0  0  0  0  0  0  0  0  0  0  0  0
   -4.1050   -0.0090   -0.2740 C   0  0  0  0  0  0  0  0  0  0  0  0
   -5.2440   -0.7700   -0.1220 C   0  0  0  0  0  0  0  0  0  0  0  0
   -6.3370    0.0260   -0.4700 C   0  0  0  0  0  0  0  0  0  0  0  0
   -5.7860    1.2410   -0.8170 C   0  0  0  0  0  0  0  0  0  0  0  0
   -4.4980    1.1730   -0.6880 O   0  0  0  0  0  0  0  0  0  0  0  0
  1  2  2  0
  2  3  1  0
  2  6  1  0
  3  4  2  3
  4  5  1  0
  6  7  2  0
  6  8  1  0
  8  9  1  0
  9 10  1  0
  9 16  2  3
 10 11  2  3
 11 12  1  0
 12 13  1  0
 13 14  2  0
 13 15  1  0
 16 17  1  0
 17 18  2  3
 18 19  1  0
 18 23  1  0
 19 20  1  0
 20 21  1  0
 20 22  2  0
 23 24  2  0
 23 27  1  0
 24 25  1  0
 25 26  2  0
 26 27  1  0
M  END
