
     RDKit          3D

 27 28  0  0  0  0  0  0  0  0999 V2000
    3.4280    2.3100    0.3040 O   0  0  0  0  0  0  0  0  0  0  0  0
    4.5690    2.0420    0.7530 C   0  0  0  0  0  0  0  0  0  0  0  0
    4.9600    0.7190    0.7960 O   0  0  0  0  0  0  0  0  0  0  0  0
    4.1410   -0.3540    0.3540 C   0  0  0  0  0  0  0  0  0  0  0  0
    3.8240   -0.2350   -1.1110 C   0  0  0  0  0  0  0  0  0  0  0  0
    2.9450   -1.3610   -1.6130 C   0  0  0  0  0  0  0  0  0  0  0  0
    1.6760   -1.4570   -0.9820 N   0  0  0  0  0  0  0  0  0  0  0  0
    1.5500   -2.3130    0.1840 C   0  0  0  0  0  0  0  0  0  0  0  0
    2.5300   -2.9090    0.6370 O   0  0  0  0  0  0  0  0  0  0  0  0
    0.2570   -2.4860    0.8490 N   0  0  0  0  0  0  0  0  0  0  0  0
   -0.9600   -2.8860    0.2030 C   0  0  0  0  0  0  0  0  0  0  0  0
   -2.1820   -2.1680    0.7290 C   0  0  0  0  0  0  0  0  0  0  0  0
   -2.8830   -1.4720   -0.2520 O   0  0  0  0  0  0  0  0  0  0  0  0
   -3.6460   -0.3820    0.1420 C   0  0  0  0  0  0  0  0  0  0  0  0
   -3.8370    0.5970   -1.0690 C   0  0  0  0  0  0  0  0  0  0  0  0
   -2.8570    0.0510   -2.0170 C   0  0  0  0  0  0  0  0  0  0  0  0
   -1.5640   -0.2170   -1.8300 C   0  0  0  0  0  0  0  0  0  0  0  0
   -1.0280   -0.7690   -2.9700 O   0  0  0  0  0  0  0  0  0  0  0  0
    0.1460   -1.0820   -2.7630 N   0  0  0  0  0  0  0  0  0  0  0  0
    0.4800   -0.7610   -1.4820 C   0  0  0  0  0  0  0  0  0  0  0  0
   -0.6250   -0.1460   -0.8380 C   0  0  0  0  0  0  0  0  0  0  0  0
   -0.4850    0.6720    0.2640 C   0  0  0  0  0  0  0  0  0  0  0  0
   -0.9560    1.7250    1.0220 C   0  0  0  0  0  0  0  0  0  0  0  0
   -0.1800    1.9940    2.1500 C   0  0  0  0  0  0  0  0  0  0  0  0
   -0.4680    2.9820    3.0240 O   0  0  0  0  0  0  0  0  0  0  0  0
   -1.9980    2.7020    0.8210 C   0  0  0  0  0  0  0  0  0  0  0  0
   -1.9000    3.7080    1.8500 O   0  0  0  0  0  0  0  0  0  0  0  0
  1  2  2  0
  2  3  1  0
  3  4  1  0
  4  5  1  0
  5  6  1  0
  6  7  1  0
  7  8  1  0
  7 20  1  0
  8  9  2  0
  8 10  1  0
 10 11  1  0
 11 12  1  0
 12 13  1  0
 13 14  1  0
 14 15  1  0
 15 16  1  0
 16 17  2  0
 17 18  1  0
 17 21  1  0
 18 19  1  0
 19 20  2  0
 20 21  1  0
 21 22  2  3
 22 23  1  0
 23 24  2  3
 23 26  1  0
 24 25  1  0
 26 27  1  0
M  END
