
     RDKit          3D

 28 31  0  0  0  0  0  0  0  0999 V2000
   -2.8420    5.4490   -0.5680 C   0  0  0  0  0  0  0  0  0  0  0  0
   -2.5270    4.0960   -0.7840 O   0  0  0  0  0  0  0  0  0  0  0  0
   -1.9640    3.3660    0.2770 C   0  0  0  0  0  0  0  0  0  0  0  0
   -1.7660    3.9580    1.3770 O   0  0  0  0  0  0  0  0  0  0  0  0
   -1.6250    1.9720    0.0970 C   0  0  0  0  0  0  0  0  0  0  0  0
   -2.4460    0.8780    0.3320 C   0  0  0  0  0  0  0  0  0  0  0  0
   -3.8510    0.9070    0.8210 C   0  0  0  0  0  0  0  0  0  0  0  0
   -1.7370   -0.2420    0.0360 N   0  0  0  0  0  0  0  0  0  0  0  0
   -2.2190   -1.5720    0.1440 C   0  0  0  0  0  0  0  0  0  0  0  0
   -2.5980   -2.1170    1.3510 C   0  0  0  0  0  0  0  0  0  0  0  0
   -3.0670   -3.4250    1.4240 C   0  0  0  0  0  0  0  0  0  0  0  0
   -3.1690   -4.2140    0.3020 C   0  0  0  0  0  0  0  0  0  0  0  0
   -2.7910   -3.6730   -0.9070 C   0  0  0  0  0  0  0  0  0  0  0  0
   -2.3210   -2.3630   -0.9790 C   0  0  0  0  0  0  0  0  0  0  0  0
   -0.5080    0.1400   -0.3730 C   0  0  0  0  0  0  0  0  0  0  0  0
    0.6250   -0.5570   -0.7970 C   0  0  0  0  0  0  0  0  0  0  0  0
    0.4820   -1.8190   -0.8060 O   0  0  0  0  0  0  0  0  0  0  0  0
    1.7510    0.0720   -1.1590 N   0  0  0  0  0  0  0  0  0  0  0  0
    2.8870   -0.6780   -1.5710 C   0  0  0  0  0  0  0  0  0  0  0  0
    3.8520   -1.0320   -0.6260 N   0  0  0  0  0  0  0  0  0  0  0  0
    4.5360    0.0390    0.0610 C   0  0  0  0  0  0  0  0  0  0  0  0
    5.4530   -0.7660    0.9590 C   0  0  0  0  0  0  0  0  0  0  0  0
    4.6340   -1.8740    1.3720 N   0  0  0  0  0  0  0  0  0  0  0  0
    3.5370   -1.9770    0.3870 C   0  0  0  0  0  0  0  0  0  0  0  0
    1.8370    1.4130   -1.1290 C   0  0  0  0  0  0  0  0  0  0  0  0
    2.9100    2.0180   -1.4740 O   0  0  0  0  0  0  0  0  0  0  0  0
    0.7550    2.1010   -0.7230 N   0  0  0  0  0  0  0  0  0  0  0  0
   -0.3960    1.5130   -0.3500 C   0  0  0  0  0  0  0  0  0  0  0  0
  1  2  1  0
  2  3  1  0
  3  4  2  0
  3  5  1  0
  5  6  2  0
  5 28  1  0
  6  7  1  0
  6  8  1  0
  8  9  1  0
  8 15  1  0
  9 10  2  0
  9 14  1  0
 10 11  1  0
 11 12  2  0
 12 13  1  0
 13 14  2  0
 15 16  1  0
 15 28  2  0
 16 17  2  0
 16 18  1  0
 18 19  1  0
 18 25  1  0
 19 20  1  0
 20 21  1  0
 20 24  1  0
 21 22  1  0
 22 23  1  0
 23 24  1  0
 25 26  2  0
 25 27  1  0
 27 28  1  0
M  END
