
     RDKit          3D

 28 30  0  0  0  0  0  0  0  0999 V2000
    6.2170   -2.3060   -0.2270 C   0  0  0  0  0  0  0  0  0  0  0  0
    6.7640   -1.7690    1.0420 C   0  0  0  0  0  0  0  0  0  0  0  0
    6.1420   -0.7920    1.6550 C   0  0  0  0  0  0  0  0  0  0  0  0
    6.6820   -0.2660    2.9000 C   0  0  0  0  0  0  0  0  0  0  0  0
    6.0940    0.7160    3.5550 C   0  0  0  0  0  0  0  0  0  0  0  0
    4.8780    1.2600    2.9880 C   0  0  0  0  0  0  0  0  0  0  0  0
    4.3300    0.8330    1.8630 C   0  0  0  0  0  0  0  0  0  0  0  0
    3.1050    1.4740    1.4120 C   0  0  0  0  0  0  0  0  0  0  0  0
    2.6200    2.3990    2.1010 O   0  0  0  0  0  0  0  0  0  0  0  0
    2.4360    1.1230    0.2590 O   0  0  0  0  0  0  0  0  0  0  0  0
    1.2670    1.7010   -0.2160 C   0  0  1  0  0  0  0  0  0  0  0  0
    1.6030    2.3700   -1.5550 C   0  0  0  0  0  0  0  0  0  0  0  0
    0.1580    0.7280   -0.3940 C   0  0  0  0  0  0  0  0  0  0  0  0
    0.3880   -0.4740   -0.1060 O   0  0  0  0  0  0  0  0  0  0  0  0
   -1.1190    1.0800   -0.8630 N   0  0  0  0  0  0  0  0  0  0  0  0
   -2.2110    0.1270   -1.0390 C   0  0  2  0  0  0  0  0  0  0  0  0
   -2.7350    0.1360   -2.4370 C   0  0  0  0  0  0  0  0  0  0  0  0
   -3.8300    1.1310   -2.6790 C   0  0  0  0  0  0  0  0  0  0  0  0
   -5.2070    0.5220   -2.5340 C   0  0  0  0  0  0  0  0  0  0  0  0
   -5.3370   -0.1940   -1.2480 C   0  0  0  0  0  0  0  0  0  0  0  0
   -6.3430   -1.0020   -0.9310 N   0  0  0  0  0  0  0  0  0  0  0  0
   -6.1760   -1.4950    0.2910 N   0  0  0  0  0  0  0  0  0  0  0  0
   -7.0210   -2.4070    1.0320 C   0  0  0  0  0  0  0  0  0  0  0  0
   -5.0320   -0.9780    0.7450 C   0  0  0  0  0  0  0  0  0  0  0  0
   -4.5200   -1.2010    1.8720 O   0  0  0  0  0  0  0  0  0  0  0  0
   -4.5030   -0.1730   -0.1930 N   0  0  0  0  0  0  0  0  0  0  0  0
   -3.2780    0.5330   -0.0160 C   0  0  0  0  0  0  0  0  0  0  0  0
    4.9510   -0.2250    1.1430 N   0  0  0  0  0  0  0  0  0  0  0  0
  1  2  1  0
  2  3  2  3
  3  4  1  0
  3 28  1  0
  4  5  2  0
  5  6  1  0
  6  7  2  0
  7  8  1  0
  7 28  1  0
  8  9  2  0
  8 10  1  0
 10 11  1  0
 11 12  1  6
 11 13  1  0
 13 14  2  0
 13 15  1  0
 16 15  1  6
 16 17  1  0
 16 27  1  0
 17 18  1  0
 18 19  1  0
 19 20  1  0
 20 21  2  0
 20 26  1  0
 21 22  1  0
 22 23  1  0
 22 24  1  0
 24 25  2  0
 24 26  1  0
 26 27  1  0
M  END
