
     RDKit          3D

 28 31  0  0  0  0  0  0  0  0999 V2000
    5.6390    2.4650    0.0760 C   0  0  0  0  0  0  0  0  0  0  0  0
    4.9200    1.1590    0.1590 C   0  0  0  0  0  0  0  0  0  0  0  0
    3.6000    0.9330    0.0930 N   0  0  0  0  0  0  0  0  0  0  0  0
    3.3140   -0.3830    0.2060 C   0  0  0  0  0  0  0  0  0  0  0  0
    1.9830   -1.0180    0.1800 C   0  0  0  0  0  0  0  0  0  0  0  0
    1.9060   -2.2430    0.2970 O   0  0  0  0  0  0  0  0  0  0  0  0
    0.8300   -0.2310    0.0250 N   0  0  0  0  0  0  0  0  0  0  0  0
   -0.5090   -0.6710   -0.0190 C   0  0  0  0  0  0  0  0  0  0  0  0
   -0.8610   -1.9680    0.1730 C   0  0  0  0  0  0  0  0  0  0  0  0
   -2.1990   -2.3540    0.1130 C   0  0  0  0  0  0  0  0  0  0  0  0
   -3.1580   -1.4010   -0.1420 C   0  0  0  0  0  0  0  0  0  0  0  0
   -2.8410   -0.0720   -0.3420 C   0  0  0  0  0  0  0  0  0  0  0  0
   -1.5130    0.2580   -0.2740 C   0  0  0  0  0  0  0  0  0  0  0  0
   -3.9830    0.6180   -0.5690 N   0  0  0  0  0  0  0  0  0  0  0  0
   -4.0350    2.0250   -0.8180 C   0  0  0  0  0  0  0  0  0  0  0  0
   -4.1860    2.8410    0.4440 C   0  0  0  0  0  0  0  0  0  0  0  0
   -4.2280    4.2600    0.0620 C   0  0  0  0  0  0  0  0  0  0  0  0
   -4.2580    5.3810   -0.2220 N   0  0  0  0  0  0  0  0  0  0  0  0
   -5.0030   -0.2540   -0.5150 C   0  0  0  0  0  0  0  0  0  0  0  0
   -6.2450   -0.0030   -0.6750 O   0  0  0  0  0  0  0  0  0  0  0  0
   -4.5120   -1.4740   -0.2570 N   0  0  0  0  0  0  0  0  0  0  0  0
   -5.2870   -2.6910   -0.1190 C   0  0  0  0  0  0  0  0  0  0  0  0
    4.5250   -1.0400    0.3530 C   0  0  0  0  0  0  0  0  0  0  0  0
    5.5110   -0.0770    0.3230 C   0  0  0  0  0  0  0  0  0  0  0  0
    6.8070   -0.7230    0.4750 C   0  0  0  0  0  0  0  0  0  0  0  0
    7.9530   -0.1510    0.4950 O   0  0  0  0  0  0  0  0  0  0  0  0
    6.5520   -2.0770    0.5940 O   0  0  0  0  0  0  0  0  0  0  0  0
    5.1800   -2.3490    0.5290 C   0  0  0  0  0  0  0  0  0  0  0  0
  1  2  1  0
  2  3  1  0
  2 24  2  0
  3  4  1  0
  4  5  1  0
  4 23  2  0
  5  6  2  0
  5  7  1  0
  7  8  1  0
  8  9  2  0
  8 13  1  0
  9 10  1  0
 10 11  2  0
 11 12  1  0
 11 21  1  0
 12 13  2  0
 12 14  1  0
 14 15  1  0
 14 19  1  0
 15 16  1  0
 16 17  1  0
 17 18  3  0
 19 20  2  0
 19 21  1  0
 21 22  1  0
 23 24  1  0
 23 28  1  0
 24 25  1  0
 25 26  2  0
 25 27  1  0
 27 28  1  0
M  END
