
     RDKit          3D

 12 13  0  0  0  0  0  0  0  0999 V2000
   -1.4050   -2.6240    0.7930 O   0  0  0  0  0  0  0  0  0  0  0  0
   -1.2910   -1.3960    0.4420 C   0  0  0  0  0  0  0  0  0  0  0  0
   -2.4400   -0.6200    0.2630 N   0  0  0  0  0  0  0  0  0  0  0  0
   -1.8950    0.9440   -0.1980 S   0  0  2  0  0  0  0  0  0  0  0  0
   -2.2630    2.0030    0.7810 O   0  0  0  0  0  0  0  0  0  0  0  0
   -2.3440    1.2530   -1.5890 O   0  0  0  0  0  0  0  0  0  0  0  0
   -0.1670    0.5830   -0.1550 C   0  0  0  0  0  0  0  0  0  0  0  0
    0.9240    1.3950   -0.4230 C   0  0  0  0  0  0  0  0  0  0  0  0
    2.1990    0.8840   -0.3230 C   0  0  0  0  0  0  0  0  0  0  0  0
    2.3350   -0.4380    0.0460 C   0  0  0  0  0  0  0  0  0  0  0  0
    1.2450   -1.2360    0.3090 C   0  0  0  0  0  0  0  0  0  0  0  0
   -0.0530   -0.7160    0.2070 C   0  0  0  0  0  0  0  0  0  0  0  0
  1  2  2  0
  2  3  1  0
  2 12  1  0
  4  3  1  1
  4  5  2  0
  4  6  2  0
  4  7  1  0
  7  8  2  0
  7 12  1  0
  8  9  1  0
  9 10  2  0
 10 11  1  0
 11 12  2  0
M  END
