
     RDKit          3D

 28 31  0  0  0  0  0  0  0  0999 V2000
   -8.0550   -0.3550   -0.6800 C   0  0  0  0  0  0  0  0  0  0  0  0
   -6.7720    0.1390   -1.0100 O   0  0  0  0  0  0  0  0  0  0  0  0
   -5.6360   -0.6860   -1.0110 C   0  0  0  0  0  0  0  0  0  0  0  0
   -5.7880   -1.8880   -0.7070 O   0  0  0  0  0  0  0  0  0  0  0  0
   -4.2760   -0.1200   -1.3680 C   0  0  0  0  0  0  0  0  0  0  0  0
   -3.3170   -0.5330   -0.3160 C   0  0  2  0  0  0  0  0  0  0  0  0
   -3.8730    0.0620    0.9990 C   0  0  0  0  0  0  0  0  0  0  0  0
   -3.1430   -0.4520    2.2040 C   0  0  0  0  0  0  0  0  0  0  0  0
   -1.7780   -0.9600    1.8820 C   0  0  0  0  0  0  0  0  0  0  0  0
   -1.1640   -0.1980    0.7350 C   0  0  0  0  0  0  0  0  0  0  0  0
    0.0970    0.2420    0.8020 N   0  0  0  0  0  0  0  0  0  0  0  0
    0.6070    0.9020   -0.2580 C   0  0  0  0  0  0  0  0  0  0  0  0
    1.8800    1.4350   -0.4110 C   0  0  0  0  0  0  0  0  0  0  0  0
    2.9980    1.4510    0.5180 C   0  0  0  0  0  0  0  0  0  0  0  0
    3.1980    2.4170    1.3200 O   0  0  0  0  0  0  0  0  0  0  0  0
    3.9280    0.3930    0.5830 N   0  0  0  0  0  0  0  0  0  0  0  0
    3.7800   -0.7680   -0.2830 C   0  0  0  0  0  0  0  0  0  0  0  0
    5.1590   -1.4100   -0.3700 C   0  0  0  0  0  0  0  0  0  0  0  0
    6.1730   -0.4780   -0.5000 O   0  0  0  0  0  0  0  0  0  0  0  0
    6.3670    0.2750    0.6450 C   0  0  2  0  0  0  0  0  0  0  0  0
    7.5370   -0.2340    1.4440 C   0  0  0  0  0  0  0  0  0  0  0  0
    5.0880    0.3680    1.4710 C   0  0  0  0  0  0  0  0  0  0  0  0
    1.8600    1.9860   -1.6870 C   0  0  0  0  0  0  0  0  0  0  0  0
    0.6420    1.7770   -2.2260 N   0  0  0  0  0  0  0  0  0  0  0  0
   -0.1300    1.1160   -1.3610 N   0  0  0  0  0  0  0  0  0  0  0  0
   -1.4130    0.6880   -1.4730 C   0  0  0  0  0  0  0  0  0  0  0  0
   -2.1550    0.9210   -2.6530 N   0  0  0  0  0  0  0  0  0  0  0  0
   -1.9490    0.0190   -0.4140 C   0  0  0  0  0  0  0  0  0  0  0  0
  1  2  1  0
  2  3  1  0
  3  4  2  0
  3  5  1  0
  6  5  1  6
  6  7  1  0
  6 28  1  0
  7  8  1  0
  8  9  1  0
  9 10  1  0
 10 11  2  0
 10 28  1  0
 11 12  1  0
 12 13  2  0
 12 25  1  0
 13 14  1  0
 13 23  1  0
 14 15  2  0
 14 16  1  0
 16 17  1  0
 16 22  1  0
 17 18  1  0
 18 19  1  0
 19 20  1  0
 20 21  1  1
 20 22  1  0
 23 24  2  0
 24 25  1  0
 25 26  1  0
 26 27  1  0
 26 28  2  0
M  END
