
     RDKit          3D

 28 30  0  0  0  0  0  0  0  0999 V2000
   -4.8540   -3.7720    0.7760 C   0  0  0  0  0  0  0  0  0  0  0  0
   -6.1650   -3.0340    1.0090 C   0  0  0  0  0  0  0  0  0  0  0  0
   -6.1370   -1.7860    0.5040 C   0  0  0  0  0  0  0  0  0  0  0  0
   -4.9110   -1.3350   -0.1560 C   0  0  0  0  0  0  0  0  0  0  0  0
   -4.6470   -0.0190   -0.3240 C   0  0  0  0  0  0  0  0  0  0  0  0
   -3.4170    0.2370   -0.9150 O   0  0  0  0  0  0  0  0  0  0  0  0
   -2.2300    0.3260   -0.3630 C   0  0  0  0  0  0  0  0  0  0  0  0
   -2.4710    0.1400    1.0490 O   0  0  0  0  0  0  0  0  0  0  0  0
   -0.9060    0.5080   -0.5020 N   0  0  0  0  0  0  0  0  0  0  0  0
   -0.2920    0.5860   -1.8590 C   0  0  0  0  0  0  0  0  0  0  0  0
    1.0850    1.2380   -1.6480 C   0  0  0  0  0  0  0  0  0  0  0  0
    0.8010    1.9830   -0.3110 C   0  0  2  0  0  0  0  0  0  0  0  0
    1.8730    2.7580    0.2540 C   0  0  0  0  0  0  0  0  0  0  0  0
    3.1160    2.2510    0.5600 N   0  0  0  0  0  0  0  0  0  0  0  0
    4.0690    1.7280   -0.4280 C   0  0  0  0  0  0  0  0  0  0  0  0
    3.7600    1.8700   -1.6710 O   0  0  0  0  0  0  0  0  0  0  0  0
    5.1420    1.1380    0.1510 N   0  0  0  0  0  0  0  0  0  0  0  0
    5.9080    0.5080   -1.3150 C   0  0  0  0  0  0  0  0  0  0  0  0
    5.3960    0.8700   -2.2610 O   0  0  0  0  0  0  0  0  0  0  0  0
    7.0230   -0.3360   -1.0200 C   0  0  0  0  0  0  0  0  0  0  0  0
    7.9030   -0.9670   -1.6450 N   0  0  0  0  0  0  0  0  0  0  0  0
    8.8040   -1.6800   -0.8570 N   0  0  0  0  0  0  0  0  0  0  0  0
    8.5010   -1.5300    0.4470 C   0  0  0  0  0  0  0  0  0  0  0  0
    7.3560   -0.6910    0.4420 C   0  0  0  0  0  0  0  0  0  0  0  0
    0.1670    0.8130    0.4180 C   0  0  0  0  0  0  0  0  0  0  0  0
   -5.6600    0.9140    0.0460 C   0  0  0  0  0  0  0  0  0  0  0  0
   -6.8340    0.5710    0.4680 C   0  0  0  0  0  0  0  0  0  0  0  0
   -7.2580   -0.8940    0.5510 C   0  0  0  0  0  0  0  0  0  0  0  0
  1  2  1  0
  2  3  2  3
  3  4  1  0
  3 28  1  0
  4  5  2  0
  5  6  1  0
  5 26  1  0
  6  7  1  0
  7  8  2  0
  7  9  1  0
  9 10  1  0
  9 25  1  0
 10 11  1  0
 11 12  1  0
 12 13  1  1
 12 25  1  0
 13 14  1  0
 14 15  1  0
 15 16  2  0
 15 17  1  0
 17 18  1  0
 18 19  2  0
 18 20  1  0
 20 21  2  0
 20 24  1  0
 21 22  1  0
 22 23  2  0
 23 24  1  0
 26 27  2  0
 27 28  1  0
M  END
