
     RDKit          3D

 47 49  0  0  0  0  0  0  0  0999 V2000
    8.6800   -0.7240    1.6110 C   0  0  0  0  0  0  0  0  0  0  0  0
    9.0070   -1.1030    0.4030 C   0  0  0  0  0  0  0  0  0  0  0  0
    8.3970   -0.5800   -0.8600 C   0  0  0  0  0  0  0  0  0  0  0  0
    7.6750   -1.6100   -1.6330 C   0  0  2  0  0  0  0  0  0  0  0  0
    7.0520   -1.1300   -2.9280 C   0  0  0  0  0  0  0  0  0  0  0  0
    6.8120   -2.6080   -0.9560 C   0  0  2  0  0  0  0  0  0  0  0  0
    6.2290   -3.3440   -2.0340 O   0  0  0  0  0  0  0  0  0  0  0  0
    5.8820   -2.2450    0.0770 C   0  0  0  0  0  0  0  0  0  0  0  0
    4.7760   -1.3090   -0.1210 N   0  0  0  0  0  0  0  0  0  0  0  0
    3.7230   -1.3840   -0.9710 C   0  0  0  0  0  0  0  0  0  0  0  0
    3.6230   -2.3610   -1.8260 O   0  0  0  0  0  0  0  0  0  0  0  0
    2.5750   -0.4430   -1.0460 C   0  0  0  0  0  0  0  0  0  0  0  0
    2.0770   -0.2040    0.3690 C   0  0  0  0  0  0  0  0  0  0  0  0
    0.9240    0.5400    0.4780 C   0  0  0  0  0  0  0  0  0  0  0  0
    0.2530    1.0360   -0.6120 C   0  0  0  0  0  0  0  0  0  0  0  0
   -1.1520    1.6020   -0.6000 C   0  0  1  0  0  0  0  0  0  0  0  0
   -2.1240    0.6890   -0.0640 C   0  0  0  0  0  0  0  0  0  0  0  0
   -2.4910   -0.6280   -0.3500 C   0  0  0  0  0  0  0  0  0  0  0  0
   -1.5640   -1.5630    0.4440 C   0  0  0  0  0  0  0  0  0  0  0  0
   -2.0590   -2.8160    0.4750 C   0  0  0  0  0  0  0  0  0  0  0  0
   -3.2330   -3.3710   -0.0800 C   0  0  0  0  0  0  0  0  0  0  0  0
   -4.1090   -2.4560   -0.8690 C   0  0  0  0  0  0  0  0  0  0  0  0
   -3.5050   -1.2890   -0.8040 C   0  0  0  0  0  0  0  0  0  0  0  0
   -5.2250   -2.9640   -1.4010 O   0  0  0  0  0  0  0  0  0  0  0  0
   -6.6570   -3.0050   -1.1400 C   0  0  0  0  0  0  0  0  0  0  0  0
   -7.2260   -2.0750   -2.1900 C   0  0  0  0  0  0  0  0  0  0  0  0
   -6.3050   -1.5570   -3.0640 C   0  0  0  0  0  0  0  0  0  0  0  0
   -7.5400   -3.7030   -0.2680 C   0  0  0  0  0  0  0  0  0  0  0  0
   -7.3720   -4.2540    0.9990 C   0  0  0  0  0  0  0  0  0  0  0  0
   -8.2620   -5.0250    1.8720 C   0  0  0  0  0  0  0  0  0  0  0  0
   -7.5390   -6.4110    2.2010 O   0  0  0  0  0  0  0  0  0  0  0  0
   -6.1700   -6.0360    1.8630 C   0  0  0  0  0  0  0  0  0  0  0  0
   -5.2330   -5.7860    1.6430 C   0  0  0  0  0  0  0  0  0  0  0  0
   -3.8740   -5.4130    1.2990 C   0  0  0  0  0  0  0  0  0  0  0  0
   -3.5450   -4.6870    0.1760 O   0  0  0  0  0  0  0  0  0  0  0  0
   -1.1900    2.6690    0.3610 N   0  0  0  0  0  0  0  0  0  0  0  0
   -0.8950    3.9870    0.3550 C   0  0  0  0  0  0  0  0  0  0  0  0
   -0.3230    3.8760   -1.1160 O   0  0  0  0  0  0  0  0  0  0  0  0
   -0.7090    5.1100    0.5020 N   0  0  0  0  0  0  0  0  0  0  0  0
   -1.1140    6.0390    1.5710 C   0  0  0  0  0  0  0  0  0  0  0  0
   -1.6800    5.4160    2.4600 O   0  0  0  0  0  0  0  0  0  0  0  0
   -0.8460    7.3730    1.4210 N   0  0  0  0  0  0  0  0  0  0  0  0
   -0.1760    8.0470    0.3810 C   0  0  0  0  0  0  0  0  0  0  0  0
   -1.3850    8.1990    2.5400 C   0  0  0  0  0  0  0  0  0  0  0  0
   -0.4340    8.1500    3.7170 C   0  0  0  0  0  0  0  0  0  0  0  0
    0.7540    0.8140   -1.8590 C   0  0  0  0  0  0  0  0  0  0  0  0
    1.9060    0.0680   -1.9850 C   0  0  0  0  0  0  0  0  0  0  0  0
  1  2  2  0
  2  3  1  0
  3  4  1  0
  4  5  1  6
  4  6  1  0
  6  7  1  6
  6  8  1  0
  8  9  1  0
  9 10  1  0
 10 11  2  0
 10 12  1  0
 12 13  2  0
 12 47  1  0
 13 14  1  0
 14 15  2  0
 15 16  1  0
 15 46  1  0
 16 17  1  1
 16 36  1  0
 17 18  1  0
 18 19  2  0
 18 23  1  0
 19 20  1  0
 20 21  2  0
 21 22  1  0
 21 35  1  0
 22 23  2  0
 22 24  1  0
 24 25  1  0
 25 26  2  3
 25 28  1  0
 26 27  1  0
 28 29  2  0
 29 30  1  0
 30 31  1  0
 31 32  1  0
 32 33  3  0
 33 34  1  0
 34 35  1  0
 36 37  1  0
 37 38  2  0
 37 39  1  0
 39 40  1  0
 40 41  2  0
 40 42  1  0
 42 43  1  0
 42 44  1  0
 44 45  1  0
 46 47  2  0
M  END
