
     RDKit          3D

 47 49  0  0  0  0  0  0  0  0999 V2000
   -3.6670    3.0910   -4.6580 C   0  0  0  0  0  0  0  0  0  0  0  0
   -3.2530    3.5140   -3.5100 C   0  0  0  0  0  0  0  0  0  0  0  0
   -3.2520    5.0030   -3.2650 C   0  0  0  0  0  0  0  0  0  0  0  0
   -2.7980    2.7000   -2.4640 N   0  0  0  0  0  0  0  0  0  0  0  0
   -2.7010    1.2900   -2.4460 C   0  0  0  0  0  0  0  0  0  0  0  0
   -3.0570    0.6490   -3.4590 O   0  0  0  0  0  0  0  0  0  0  0  0
   -2.2030    0.5850   -1.2930 N   0  0  0  0  0  0  0  0  0  0  0  0
   -2.1560   -0.8660   -1.3940 C   0  0  0  0  0  0  0  0  0  0  0  0
   -1.6010   -1.4340   -0.1100 C   0  0  0  0  0  0  0  0  0  0  0  0
   -2.3550   -2.2870    0.5180 C   0  0  0  0  0  0  0  0  0  0  0  0
   -3.6900   -2.7970    0.1850 C   0  0  0  0  0  0  0  0  0  0  0  0
   -4.6410   -2.4490    1.3340 C   0  0  0  0  0  0  0  0  0  0  0  0
   -6.0020   -2.9370    1.0390 C   0  0  0  0  0  0  0  0  0  0  0  0
   -6.2210   -3.4480   -0.0880 O   0  0  0  0  0  0  0  0  0  0  0  0
   -7.0750   -2.8590    1.9610 N   0  0  0  0  0  0  0  0  0  0  0  0
   -6.8890   -2.2820    3.2950 C   0  0  0  0  0  0  0  0  0  0  0  0
   -8.3940   -3.3520    1.5990 C   0  0  0  0  0  0  0  0  0  0  0  0
   -0.3540   -0.9100    0.4000 C   0  0  0  0  0  0  0  0  0  0  0  0
   -0.0130   -0.8770    1.7150 C   0  0  0  0  0  0  0  0  0  0  0  0
   -0.9050   -1.2490    2.8500 C   0  0  0  0  0  0  0  0  0  0  0  0
    1.2070   -0.4770    2.0990 O   0  0  0  0  0  0  0  0  0  0  0  0
    2.1380   -0.0960    1.2770 C   0  0  0  0  0  0  0  0  0  0  0  0
    3.4080    0.3110    1.8350 N   0  0  0  0  0  0  0  0  0  0  0  0
    3.6810    0.3030    3.2190 C   0  0  0  0  0  0  0  0  0  0  0  0
    2.7530   -0.0850    4.0100 O   0  0  0  0  0  0  0  0  0  0  0  0
    4.9970    0.7260    3.7800 C   0  0  0  0  0  0  0  0  0  0  0  0
    4.9960    0.6080    5.2950 C   0  0  1  0  0  0  0  0  0  0  0  0
    6.3610    1.0540    5.7810 C   0  0  0  0  0  0  0  0  0  0  0  0
    4.0360    1.4580    5.8460 O   0  0  0  0  0  0  0  0  0  0  0  0
    1.8940   -0.0910   -0.0560 C   0  0  0  0  0  0  0  0  0  0  0  0
    2.9370    0.3140   -1.0300 C   0  0  1  0  0  0  0  0  0  0  0  0
    4.0270   -0.6720   -1.1580 C   0  0  0  0  0  0  0  0  0  0  0  0
    3.7490   -2.0440   -1.2170 C   0  0  0  0  0  0  0  0  0  0  0  0
    4.8340   -2.8980   -1.3550 C   0  0  0  0  0  0  0  0  0  0  0  0
    6.1360   -2.4580   -1.4350 C   0  0  0  0  0  0  0  0  0  0  0  0
    6.4040   -1.1000   -1.3760 C   0  0  0  0  0  0  0  0  0  0  0  0
    5.3330   -0.2500   -1.2390 C   0  0  0  0  0  0  0  0  0  0  0  0
    2.3980    0.6990   -2.3500 C   0  0  0  0  0  0  0  0  0  0  0  0
    2.5660   -0.0980   -3.4600 C   0  0  0  0  0  0  0  0  0  0  0  0
    2.0840    0.2060   -4.7190 C   0  0  0  0  0  0  0  0  0  0  0  0
    1.3950    1.3860   -4.8460 C   0  0  0  0  0  0  0  0  0  0  0  0
    1.2060    2.2100   -3.7630 C   0  0  0  0  0  0  0  0  0  0  0  0
    1.6930    1.8920   -2.5120 C   0  0  0  0  0  0  0  0  0  0  0  0
    1.4950    2.7420   -1.4080 O   0  0  0  0  0  0  0  0  0  0  0  0
    0.7710    3.9380   -1.6570 C   0  0  0  0  0  0  0  0  0  0  0  0
    0.6340   -0.5020   -0.4900 C   0  0  0  0  0  0  0  0  0  0  0  0
    0.4570   -0.4780   -1.7230 O   0  0  0  0  0  0  0  0  0  0  0  0
  1  2  2  0
  2  3  1  0
  2  4  1  0
  4  5  1  0
  5  6  2  0
  5  7  1  0
  7  8  1  0
  8  9  1  0
  9 10  2  3
  9 18  1  0
 10 11  1  0
 11 12  1  0
 12 13  1  0
 13 14  2  0
 13 15  1  0
 15 16  1  0
 15 17  1  0
 18 19  2  0
 18 46  1  0
 19 20  1  0
 19 21  1  0
 21 22  1  0
 22 23  1  0
 22 30  2  0
 23 24  1  0
 24 25  2  0
 24 26  1  0
 26 27  1  0
 27 28  1  1
 27 29  1  0
 31 30  1  1
 30 46  1  0
 31 32  1  0
 31 38  1  0
 32 33  2  0
 32 37  1  0
 33 34  1  0
 34 35  2  0
 35 36  1  0
 36 37  2  0
 38 39  2  0
 38 43  1  0
 39 40  1  0
 40 41  2  0
 41 42  1  0
 42 43  2  0
 43 44  1  0
 44 45  1  0
 46 47  2  0
M  END
