
     RDKit          3D

 47 51  0  0  0  0  0  0  0  0999 V2000
   -7.6380   -0.1550   -3.1890 C   0  0  0  0  0  0  0  0  0  0  0  0
   -8.3460   -0.6820   -2.1380 O   0  0  0  0  0  0  0  0  0  0  0  0
   -7.7120   -0.6230   -0.9260 C   0  0  0  0  0  0  0  0  0  0  0  0
   -6.3940   -1.3630   -0.9010 C   0  0  1  0  0  0  0  0  0  0  0  0
   -5.8210   -1.3450    0.5300 C   0  0  0  0  0  0  0  0  0  0  0  0
   -4.4770   -1.8370    0.4280 N   0  0  0  0  0  0  0  0  0  0  0  0
   -3.3930   -1.4470    1.2970 C   0  0  0  0  0  0  0  0  0  0  0  0
   -2.2610   -1.9270    1.1120 O   0  0  0  0  0  0  0  0  0  0  0  0
   -3.5630   -0.5390    2.3570 N   0  0  0  0  0  0  0  0  0  0  0  0
   -2.6170   -0.0430    3.3040 C   0  0  0  0  0  0  0  0  0  0  0  0
   -1.4410    0.7110    2.8590 C   0  0  2  0  0  0  0  0  0  0  0  0
   -1.8750    1.8500    2.0660 N   0  0  0  0  0  0  0  0  0  0  0  0
   -1.7180    3.1780    2.5050 C   0  0  0  0  0  0  0  0  0  0  0  0
   -1.1830    3.4190    3.6370 O   0  0  0  0  0  0  0  0  0  0  0  0
   -2.1390    4.3540    1.7260 C   0  0  0  0  0  0  0  0  0  0  0  0
   -2.7170    4.1210    0.4850 C   0  0  0  0  0  0  0  0  0  0  0  0
   -3.1110    5.2010   -0.2650 C   0  0  0  0  0  0  0  0  0  0  0  0
   -2.9560    6.4970    0.1610 C   0  0  0  0  0  0  0  0  0  0  0  0
   -2.3840    6.6870    1.3840 C   0  0  0  0  0  0  0  0  0  0  0  0
   -1.9510    5.6340    2.2190 C   0  0  0  0  0  0  0  0  0  0  0  0
   -1.3980    5.9530    3.4110 O   0  0  0  0  0  0  0  0  0  0  0  0
   -0.2360    0.0610    2.3970 C   0  0  0  0  0  0  0  0  0  0  0  0
    0.1900   -1.2040    2.6280 C   0  0  0  0  0  0  0  0  0  0  0  0
    1.3780   -1.6770    2.0980 C   0  0  0  0  0  0  0  0  0  0  0  0
    2.1780   -0.8870    1.3150 C   0  0  0  0  0  0  0  0  0  0  0  0
    3.4130   -1.3880    0.7450 C   0  0  0  0  0  0  0  0  0  0  0  0
    3.9000   -2.5840    0.8500 C   0  0  0  0  0  0  0  0  0  0  0  0
    5.1070   -3.0980    0.2960 C   0  0  0  0  0  0  0  0  0  0  0  0
    5.4250   -4.3350    0.6090 O   0  0  0  0  0  0  0  0  0  0  0  0
    6.0070   -2.4540   -0.5430 N   0  0  0  0  0  0  0  0  0  0  0  0
    7.4700   -2.8040   -0.6680 C   0  0  0  0  0  0  0  0  0  0  0  0
    7.9940   -1.3630   -0.4660 C   0  0  1  0  0  0  0  0  0  0  0  0
    9.3740   -1.3100   -1.0380 C   0  0  0  0  0  0  0  0  0  0  0  0
   10.2470   -2.2150   -0.4050 O   0  0  0  0  0  0  0  0  0  0  0  0
    7.0790   -0.6210   -1.3950 C   0  0  0  0  0  0  0  0  0  0  0  0
    7.1940    0.4910   -2.1750 C   0  0  0  0  0  0  0  0  0  0  0  0
    6.1560    0.9310   -2.9830 C   0  0  0  0  0  0  0  0  0  0  0  0
    6.2660    2.1400   -3.8300 C   0  0  0  0  0  0  0  0  0  0  0  0
    4.9810    0.2060   -2.9840 C   0  0  0  0  0  0  0  0  0  0  0  0
    4.8400   -0.9110   -2.2120 C   0  0  0  0  0  0  0  0  0  0  0  0
    5.9020   -1.3310   -1.4050 C   0  0  0  0  0  0  0  0  0  0  0  0
    1.7760    0.4010    1.0630 C   0  0  0  0  0  0  0  0  0  0  0  0
    0.5990    0.8680    1.5880 C   0  0  0  0  0  0  0  0  0  0  0  0
   -4.1620   -2.7940   -0.6020 C   0  0  0  0  0  0  0  0  0  0  0  0
   -5.2910   -3.2580   -1.4390 C   0  0  2  0  0  0  0  0  0  0  0  0
   -4.9540   -2.9630   -2.9130 C   0  0  0  0  0  0  0  0  0  0  0  0
   -6.5210   -2.7060   -1.1990 O   0  0  0  0  0  0  0  0  0  0  0  0
  1  2  1  0
  2  3  1  0
  4  3  1  1
  4  5  1  0
  4 47  1  0
  5  6  1  0
  6  7  1  0
  6 44  1  0
  7  8  2  0
  7  9  1  0
  9 10  1  0
 11 10  1  6
 11 12  1  0
 11 22  1  0
 12 13  1  0
 13 14  2  0
 13 15  1  0
 15 16  2  0
 15 20  1  0
 16 17  1  0
 17 18  2  0
 18 19  1  0
 19 20  2  0
 20 21  1  0
 22 23  2  0
 22 43  1  0
 23 24  1  0
 24 25  2  0
 25 26  1  0
 25 42  1  0
 26 27  2  3
 27 28  1  0
 28 29  2  0
 28 30  1  0
 30 31  1  0
 30 41  1  0
 31 32  1  0
 32 33  1  6
 32 35  1  0
 33 34  1  0
 35 36  2  0
 35 41  1  0
 36 37  1  0
 37 38  1  0
 37 39  2  0
 39 40  1  0
 40 41  2  0
 42 43  2  0
 44 45  1  0
 45 46  1  6
 45 47  1  0
M  END
