
     RDKit          3D

 47 50  0  0  0  0  0  0  0  0999 V2000
    6.8950    1.1950   -0.1850 C   0  0  0  0  0  0  0  0  0  0  0  0
    6.9050   -0.1800   -0.4970 O   0  0  0  0  0  0  0  0  0  0  0  0
    7.8160   -0.6770   -1.3920 C   0  0  0  0  0  0  0  0  0  0  0  0
    7.8100   -0.6360   -2.8170 C   0  0  0  0  0  0  0  0  0  0  0  0
    7.0820   -0.2340   -3.7310 C   0  0  0  0  0  0  0  0  0  0  0  0
    5.8470    0.4040   -3.9590 C   0  0  0  0  0  0  0  0  0  0  0  0
    5.5110    0.7060   -5.1970 O   0  0  0  0  0  0  0  0  0  0  0  0
    4.8670    0.7800   -2.9990 N   0  0  0  0  0  0  0  0  0  0  0  0
    3.7400    1.5510   -3.4010 C   0  0  0  0  0  0  0  0  0  0  0  0
    3.5950    1.9310   -4.6160 O   0  0  0  0  0  0  0  0  0  0  0  0
    2.6720    1.9650   -2.4530 C   0  0  2  0  0  0  0  0  0  0  0  0
    2.9210    3.4480   -2.0710 C   0  0  0  0  0  0  0  0  0  0  0  0
    2.7930    1.2520   -1.2620 O   0  0  0  0  0  0  0  0  0  0  0  0
    1.7500    0.6320   -0.6020 C   0  0  0  0  0  0  0  0  0  0  0  0
    0.4710    0.7540   -1.0980 C   0  0  0  0  0  0  0  0  0  0  0  0
   -0.6060    0.1440   -0.4640 C   0  0  0  0  0  0  0  0  0  0  0  0
   -0.4160   -0.5990    0.6760 C   0  0  0  0  0  0  0  0  0  0  0  0
   -1.6420   -1.2260    1.3320 C   0  0  0  0  0  0  0  0  0  0  0  0
   -2.1660   -0.3310    2.3940 C   0  0  0  0  0  0  0  0  0  0  0  0
   -3.3520   -0.7550    3.0020 N   0  0  0  0  0  0  0  0  0  0  0  0
   -4.5880   -0.7180    2.3130 C   0  0  1  0  0  0  0  0  0  0  0  0
   -4.9990    0.6080    1.8660 C   0  0  0  0  0  0  0  0  0  0  0  0
   -4.1790    1.5780    1.9130 O   0  0  0  0  0  0  0  0  0  0  0  0
   -6.2980    0.9110    1.3640 N   0  0  0  0  0  0  0  0  0  0  0  0
   -7.3890   -0.0360    1.3040 C   0  0  0  0  0  0  0  0  0  0  0  0
   -8.0440    0.1010   -0.0500 C   0  0  0  0  0  0  0  0  0  0  0  0
   -8.7600    1.4310   -0.0840 C   0  0  0  0  0  0  0  0  0  0  0  0
   -7.9350    2.5540    0.4310 C   0  0  2  0  0  0  0  0  0  0  0  0
   -7.9230    3.7190   -0.5900 C   0  0  0  0  0  0  0  0  0  0  0  0
   -7.1170    4.7090    0.0040 O   0  0  0  0  0  0  0  0  0  0  0  0
   -6.5640    2.2580    0.8750 C   0  0  0  0  0  0  0  0  0  0  0  0
   -4.6910   -1.7950    1.3250 C   0  0  0  0  0  0  0  0  0  0  0  0
   -4.9900   -1.6200   -0.0190 C   0  0  0  0  0  0  0  0  0  0  0  0
   -5.1210   -2.6840   -0.8660 C   0  0  0  0  0  0  0  0  0  0  0  0
   -4.9660   -3.9950   -0.4530 C   0  0  0  0  0  0  0  0  0  0  0  0
   -5.0930   -5.0940   -1.2870 O   0  0  0  0  0  0  0  0  0  0  0  0
   -4.6620   -4.1760    0.8990 C   0  0  0  0  0  0  0  0  0  0  0  0
   -4.5340   -3.0950    1.7430 C   0  0  0  0  0  0  0  0  0  0  0  0
    0.8400   -0.7240    1.1700 C   0  0  0  0  0  0  0  0  0  0  0  0
    1.9100   -0.1090    0.5270 C   0  0  0  0  0  0  0  0  0  0  0  0
    8.8750   -1.2900   -0.8230 C   0  0  0  0  0  0  0  0  0  0  0  0
    9.0900   -1.4370    0.5570 C   0  0  0  0  0  0  0  0  0  0  0  0
    8.8540   -2.6060    1.2640 C   0  0  0  0  0  0  0  0  0  0  0  0
    9.1370   -2.7880    2.5780 C   0  0  0  0  0  0  0  0  0  0  0  0
    9.7110   -1.7060    3.2730 C   0  0  0  0  0  0  0  0  0  0  0  0
    9.9540   -0.5430    2.6090 C   0  0  0  0  0  0  0  0  0  0  0  0
    9.6670   -0.3680    1.2800 C   0  0  0  0  0  0  0  0  0  0  0  0
  1  2  1  0
  2  3  1  0
  3  4  1  0
  3 41  2  3
  4  5  2  3
  5  6  1  0
  6  7  2  0
  6  8  1  0
  8  9  1  0
  9 10  2  0
  9 11  1  0
 11 12  1  1
 11 13  1  0
 13 14  1  0
 14 15  2  0
 14 40  1  0
 15 16  1  0
 16 17  2  0
 17 18  1  0
 17 39  1  0
 18 19  1  0
 19 20  1  0
 21 20  1  6
 21 22  1  0
 21 32  1  0
 22 23  2  0
 22 24  1  0
 24 25  1  0
 24 31  1  0
 25 26  1  0
 26 27  1  0
 27 28  1  0
 28 29  1  6
 28 31  1  0
 29 30  1  0
 32 33  2  0
 32 38  1  0
 33 34  1  0
 34 35  2  0
 35 36  1  0
 35 37  1  0
 37 38  2  0
 39 40  2  0
 41 42  1  0
 42 43  2  0
 42 47  1  0
 43 44  1  0
 44 45  2  0
 45 46  1  0
 46 47  2  0
M  END
