
     RDKit          3D

 48 52  0  0  0  0  0  0  0  0999 V2000
   -6.3290   -5.0960   -2.0980 C   0  0  0  0  0  0  0  0  0  0  0  0
   -5.4980   -6.0350   -1.3720 O   0  0  0  0  0  0  0  0  0  0  0  0
   -4.5080   -5.4990   -0.5340 C   0  0  0  0  0  0  0  0  0  0  0  0
   -3.5440   -6.2660    0.1240 C   0  0  0  0  0  0  0  0  0  0  0  0
   -2.6610   -5.6350    0.9470 C   0  0  0  0  0  0  0  0  0  0  0  0
   -2.6410   -4.2680    1.1790 C   0  0  0  0  0  0  0  0  0  0  0  0
   -3.5910   -3.4710    0.5360 C   0  0  0  0  0  0  0  0  0  0  0  0
   -3.8050   -2.0950    0.8460 C   0  0  0  0  0  0  0  0  0  0  0  0
   -3.1050   -0.9880    0.2960 N   0  0  0  0  0  0  0  0  0  0  0  0
   -1.9660   -0.4720    1.0370 C   0  0  0  0  0  0  0  0  0  0  0  0
   -1.7120   -1.1410    2.0960 O   0  0  0  0  0  0  0  0  0  0  0  0
   -1.1280    0.6530    0.7540 C   0  0  2  0  0  0  0  0  0  0  0  0
    0.1600    0.4880    1.5150 N   0  0  0  0  0  0  0  0  0  0  0  0
    1.2060    1.3930    1.2910 C   0  0  0  0  0  0  0  0  0  0  0  0
    1.0290    2.3350    0.4340 O   0  0  0  0  0  0  0  0  0  0  0  0
    2.4380    1.3330    1.9570 N   0  0  0  0  0  0  0  0  0  0  0  0
    3.5120    2.2560    1.8410 C   0  0  0  0  0  0  0  0  0  0  0  0
    4.1570    2.1190    0.4510 C   0  0  0  0  0  0  0  0  0  0  0  0
    3.8220    3.0410   -0.4690 C   0  0  0  0  0  0  0  0  0  0  0  0
    4.4060    2.9170   -1.7760 C   0  0  0  0  0  0  0  0  0  0  0  0
    5.2450    1.8670   -1.9160 C   0  0  0  0  0  0  0  0  0  0  0  0
    5.5800    0.9640   -1.0230 C   0  0  0  0  0  0  0  0  0  0  0  0
    6.4020   -0.0170   -1.2130 O   0  0  0  0  0  0  0  0  0  0  0  0
    6.9740   -1.0960   -0.7090 C   0  0  0  0  0  0  0  0  0  0  0  0
    7.9790   -1.6500   -1.6740 C   0  0  0  0  0  0  0  0  0  0  0  0
    8.5990   -2.8280   -1.6610 C   0  0  0  0  0  0  0  0  0  0  0  0
    9.4540   -2.8470   -2.7730 C   0  0  0  0  0  0  0  0  0  0  0  0
   10.3500   -3.9350   -3.1690 C   0  0  0  0  0  0  0  0  0  0  0  0
    9.2650   -1.6430   -3.3710 N   0  0  0  0  0  0  0  0  0  0  0  0
    8.3980   -0.9520   -2.7220 O   0  0  0  0  0  0  0  0  0  0  0  0
    5.0060    1.0560    0.3250 C   0  0  0  0  0  0  0  0  0  0  0  0
   -1.6370    1.9250    1.3990 C   0  0  0  0  0  0  0  0  0  0  0  0
   -2.1230    2.9810    0.6800 C   0  0  0  0  0  0  0  0  0  0  0  0
   -2.4900    4.1870    1.3190 C   0  0  0  0  0  0  0  0  0  0  0  0
   -2.3640    4.3060    2.6630 C   0  0  0  0  0  0  0  0  0  0  0  0
   -2.7640    5.5310    3.3890 C   0  0  0  0  0  0  0  0  0  0  0  0
   -3.0680    6.5220    3.9730 C   0  0  0  0  0  0  0  0  0  0  0  0
   -3.4180    7.7470    4.6790 C   0  0  0  0  0  0  0  0  0  0  0  0
   -3.4940    9.0090    4.0540 N   0  0  0  0  0  0  0  0  0  0  0  0
   -3.6670    7.6390    5.9070 O   0  0  0  0  0  0  0  0  0  0  0  0
   -1.8620    3.2220    3.4000 C   0  0  0  0  0  0  0  0  0  0  0  0
   -1.5080    2.0480    2.7630 C   0  0  0  0  0  0  0  0  0  0  0  0
   -3.5320   -0.2140   -0.8310 C   0  0  1  0  0  0  0  0  0  0  0  0
   -2.4670   -0.8020   -1.9720 C   0  0  0  0  0  0  0  0  0  0  0  0
   -4.8030   -0.4730   -1.5330 C   0  0  1  0  0  0  0  0  0  0  0  0
   -5.1660    0.5860   -2.5810 C   0  0  0  0  0  0  0  0  0  0  0  0
   -4.8100   -0.7710   -2.9900 C   0  0  0  0  0  0  0  0  0  0  0  0
   -4.4900   -4.1440   -0.3090 C   0  0  0  0  0  0  0  0  0  0  0  0
  1  2  1  0
  2  3  1  0
  3  4  2  0
  3 48  1  0
  4  5  1  0
  5  6  2  0
  6  7  1  0
  7  8  1  0
  7 48  2  0
  8  9  1  0
  9 10  1  0
  9 43  1  0
 10 11  2  0
 10 12  1  0
 12 13  1  1
 12 32  1  0
 13 14  1  0
 14 15  2  0
 14 16  1  0
 16 17  1  0
 17 18  1  0
 18 19  2  0
 18 31  1  0
 19 20  1  0
 20 21  2  0
 21 22  1  0
 22 23  1  0
 22 31  2  0
 23 24  1  0
 24 25  1  0
 25 26  2  0
 25 30  1  0
 26 27  1  0
 27 28  1  0
 27 29  2  0
 29 30  1  0
 32 33  2  0
 32 42  1  0
 33 34  1  0
 34 35  2  0
 35 36  1  0
 35 41  1  0
 36 37  3  0
 37 38  1  0
 38 39  1  0
 38 40  2  0
 41 42  2  0
 43 44  1  6
 43 45  1  0
 45 46  1  6
 45 47  1  0
 46 47  1  0
M  END
