
     RDKit          3D

 47 51  0  0  0  0  0  0  0  0999 V2000
   -3.1830    0.5960   -5.1940 C   0  0  0  0  0  0  0  0  0  0  0  0
   -2.8870   -0.3670   -4.0700 C   0  0  0  0  0  0  0  0  0  0  0  0
   -3.0770    0.2840   -2.7130 C   0  0  0  0  0  0  0  0  0  0  0  0
   -2.7770   -0.6870   -1.5930 C   0  0  0  0  0  0  0  0  0  0  0  0
   -2.9700   -0.0120   -0.2830 C   0  0  1  0  0  0  0  0  0  0  0  0
   -4.4070    0.4420   -0.2130 C   0  0  0  0  0  0  0  0  0  0  0  0
   -4.6790    1.6440   -0.0260 O   0  0  0  0  0  0  0  0  0  0  0  0
   -5.4560   -0.4750   -0.3580 N   0  0  0  0  0  0  0  0  0  0  0  0
   -6.8600   -0.1300   -0.3110 C   0  0  0  0  0  0  0  0  0  0  0  0
   -7.2300    0.4810    1.0060 C   0  0  2  0  0  0  0  0  0  0  0  0
   -7.0790   -0.2090    2.2880 C   0  0  0  0  0  0  0  0  0  0  0  0
   -8.4830    0.0360    1.6840 C   0  0  0  0  0  0  0  0  0  0  0  0
   -2.7890   -0.9840    0.8920 C   0  0  0  0  0  0  0  0  0  0  0  0
   -2.8540   -0.1140    2.1390 C   0  0  1  0  0  0  0  0  0  0  0  0
   -3.3090   -0.8580    3.3110 C   0  0  0  0  0  0  0  0  0  0  0  0
   -4.3140   -0.4020    4.0610 N   0  0  0  0  0  0  0  0  0  0  0  0
   -4.7580   -1.0800    5.1560 C   0  0  0  0  0  0  0  0  0  0  0  0
   -5.7000   -0.6560    5.8620 O   0  0  0  0  0  0  0  0  0  0  0  0
   -4.1740   -2.2280    5.4860 N   0  0  0  0  0  0  0  0  0  0  0  0
   -3.1640   -2.7110    4.7530 C   0  0  0  0  0  0  0  0  0  0  0  0
   -2.6320   -3.8030    5.0960 O   0  0  0  0  0  0  0  0  0  0  0  0
   -2.7310   -2.0170    3.6580 N   0  0  0  0  0  0  0  0  0  0  0  0
   -1.4910    0.5020    2.3210 C   0  0  0  0  0  0  0  0  0  0  0  0
   -0.9990    0.7880    0.9240 N   0  0  0  0  0  0  0  0  0  0  0  0
    0.3690    0.7300    0.7440 C   0  0  0  0  0  0  0  0  0  0  0  0
    1.1010    0.4760    1.8230 O   0  0  0  0  0  0  0  0  0  0  0  0
    1.1680    0.9050   -0.4440 C   0  0  0  0  0  0  0  0  0  0  0  0
    0.7160    0.9310   -1.7390 C   0  0  0  0  0  0  0  0  0  0  0  0
    1.5610    1.1790   -2.8150 C   0  0  0  0  0  0  0  0  0  0  0  0
    2.8910    1.4090   -2.6430 C   0  0  0  0  0  0  0  0  0  0  0  0
    3.7730    1.6600   -3.6720 O   0  0  0  0  0  0  0  0  0  0  0  0
    3.4330    1.7150   -5.0370 C   0  0  0  0  0  0  0  0  0  0  0  0
    2.8580    0.4200   -5.5200 C   0  0  0  0  0  0  0  0  0  0  0  0
    3.4010    1.3920   -1.3510 C   0  0  0  0  0  0  0  0  0  0  0  0
    4.8110    1.6760   -1.1330 C   0  0  0  0  0  0  0  0  0  0  0  0
    5.6570    0.9860   -0.4300 C   0  0  0  0  0  0  0  0  0  0  0  0
    5.2720   -0.2220    0.2560 C   0  0  0  0  0  0  0  0  0  0  0  0
    6.1520   -0.9150    0.9950 C   0  0  0  0  0  0  0  0  0  0  0  0
    7.5310   -0.4860    1.1380 C   0  0  0  0  0  0  0  0  0  0  0  0
    8.4920   -1.2740    1.9650 C   0  0  2  0  0  0  0  0  0  0  0  0
    7.9940   -1.3540    3.4050 C   0  0  0  0  0  0  0  0  0  0  0  0
    9.8590   -0.6380    1.9690 C   0  0  0  0  0  0  0  0  0  0  0  0
    7.9320    0.6040    0.5350 C   0  0  0  0  0  0  0  0  0  0  0  0
    7.0630    1.4240   -0.2840 C   0  0  0  0  0  0  0  0  0  0  0  0
    7.4260    2.4720   -0.8720 O   0  0  0  0  0  0  0  0  0  0  0  0
    2.5490    1.1470   -0.3060 C   0  0  0  0  0  0  0  0  0  0  0  0
   -2.0460    1.1340    0.0170 C   0  0  0  0  0  0  0  0  0  0  0  0
  1  2  1  0
  2  3  1  0
  3  4  1  0
  5  4  1  6
  5  6  1  0
  5 13  1  0
  5 47  1  0
  6  7  2  0
  6  8  1  0
  8  9  1  0
 10  9  1  6
 10 11  1  0
 10 12  1  0
 11 12  1  0
 13 14  1  0
 14 15  1  1
 14 23  1  0
 15 16  2  0
 15 22  1  0
 16 17  1  0
 17 18  2  0
 17 19  1  0
 19 20  1  0
 20 21  2  0
 20 22  1  0
 23 24  1  0
 24 25  1  0
 24 47  1  0
 25 26  2  0
 25 27  1  0
 27 28  2  0
 27 46  1  0
 28 29  1  0
 29 30  2  0
 30 31  1  0
 30 34  1  0
 31 32  1  0
 32 33  1  0
 34 35  1  0
 34 46  2  0
 35 36  2  3
 36 37  1  0
 36 44  1  0
 37 38  2  0
 38 39  1  0
 39 40  1  0
 39 43  2  0
 40 41  1  1
 40 42  1  0
 43 44  1  0
 44 45  2  0
M  END
