
     RDKit          3D

 46 51  0  0  0  0  0  0  0  0999 V2000
    8.7880   -2.2590    0.4100 C   0  0  0  0  0  0  0  0  0  0  0  0
    7.9990   -1.6160    1.5130 C   0  0  0  0  0  0  0  0  0  0  0  0
    8.3140   -0.2800    1.7190 O   0  0  0  0  0  0  0  0  0  0  0  0
    8.1740    0.6920    0.6870 C   0  0  0  0  0  0  0  0  0  0  0  0
    9.2480    1.0200   -0.0870 C   0  0  0  0  0  0  0  0  0  0  0  0
   10.6410    0.6380   -0.0960 C   0  0  0  0  0  0  0  0  0  0  0  0
   11.0680   -0.1410    0.7730 O   0  0  0  0  0  0  0  0  0  0  0  0
   11.5360    1.1140   -1.0460 O   0  0  0  0  0  0  0  0  0  0  0  0
   12.9000    0.7360   -1.0450 C   0  0  0  0  0  0  0  0  0  0  0  0
    8.5230    2.2400   -1.1970 S   0  0  0  0  0  0  0  0  0  0  0  0
    6.9470    2.2090   -0.5700 C   0  0  0  0  0  0  0  0  0  0  0  0
    6.9950    1.2910    0.4530 C   0  0  0  0  0  0  0  0  0  0  0  0
    5.6420    1.1450    1.1490 C   0  0  0  0  0  0  0  0  0  0  0  0
    4.6360    0.7710    0.1040 C   0  0  1  0  0  0  0  0  0  0  0  0
    3.2570    0.8090    0.6400 C   0  0  0  0  0  0  0  0  0  0  0  0
    3.0880    1.2500    1.8020 O   0  0  0  0  0  0  0  0  0  0  0  0
    2.1210    0.3740   -0.0980 N   0  0  0  0  0  0  0  0  0  0  0  0
    0.7690    0.4230    0.4420 C   0  0  1  0  0  0  0  0  0  0  0  0
   -0.1230    1.2170   -0.4480 C   0  0  0  0  0  0  0  0  0  0  0  0
   -0.7780    0.3740   -1.5130 C   0  0  0  0  0  0  0  0  0  0  0  0
   -1.6370   -0.7170   -0.9050 C   0  0  2  0  0  0  0  0  0  0  0  0
   -2.7630   -0.1450   -0.2740 O   0  0  0  0  0  0  0  0  0  0  0  0
   -4.0620   -0.4290   -0.6150 C   0  0  0  0  0  0  0  0  0  0  0  0
   -4.2630   -1.2560   -1.5580 O   0  0  0  0  0  0  0  0  0  0  0  0
   -5.2160    0.1910    0.0740 C   0  0  0  0  0  0  0  0  0  0  0  0
   -6.4760   -0.2930   -0.5580 C   0  0  0  0  0  0  0  0  0  0  0  0
   -7.7100    0.2740    0.0860 C   0  0  0  0  0  0  0  0  0  0  0  0
   -7.5900    0.9660    1.1090 O   0  0  0  0  0  0  0  0  0  0  0  0
   -8.9720    0.0150   -0.4740 N   0  0  0  0  0  0  0  0  0  0  0  0
   -9.1840   -0.8770   -1.6160 C   0  0  0  0  0  0  0  0  0  0  0  0
  -10.1850   -1.9120   -1.1540 C   0  0  0  0  0  0  0  0  0  0  0  0
  -11.3370   -1.3160   -0.6740 O   0  0  0  0  0  0  0  0  0  0  0  0
  -11.3480   -0.1010   -0.0400 C   0  0  0  0  0  0  0  0  0  0  0  0
  -12.5180    0.4340    0.4820 C   0  0  0  0  0  0  0  0  0  0  0  0
  -12.4520    1.6500    1.1000 C   0  0  0  0  0  0  0  0  0  0  0  0
  -11.2910    2.3670    1.2290 C   0  0  0  0  0  0  0  0  0  0  0  0
  -10.1260    1.8160    0.6990 C   0  0  0  0  0  0  0  0  0  0  0  0
  -10.1440    0.5970    0.0720 C   0  0  0  0  0  0  0  0  0  0  0  0
   -0.8500   -1.4290    0.1320 C   0  0  0  0  0  0  0  0  0  0  0  0
   -1.2490   -2.7100    0.5130 C   0  0  0  0  0  0  0  0  0  0  0  0
   -0.6060   -3.4600    1.4590 C   0  0  0  0  0  0  0  0  0  0  0  0
    0.5060   -2.9040    2.0690 C   0  0  0  0  0  0  0  0  0  0  0  0
    0.9470   -1.6340    1.7270 C   0  0  0  0  0  0  0  0  0  0  0  0
    0.2520   -0.9150    0.7560 C   0  0  0  0  0  0  0  0  0  0  0  0
    4.6650    1.6880   -1.0960 C   0  0  0  0  0  0  0  0  0  0  0  0
    5.6150    2.8610   -0.8120 C   0  0  0  0  0  0  0  0  0  0  0  0
  1  2  1  0
  2  3  1  0
  3  4  1  0
  4  5  2  0
  4 12  1  0
  5  6  1  0
  5 10  1  0
  6  7  2  0
  6  8  1  0
  8  9  1  0
 10 11  1  0
 11 12  2  0
 11 46  1  0
 12 13  1  0
 13 14  1  0
 14 15  1  1
 14 45  1  0
 15 16  2  0
 15 17  1  0
 18 17  1  6
 18 19  1  0
 18 44  1  0
 19 20  1  0
 20 21  1  0
 21 22  1  1
 21 39  1  0
 22 23  1  0
 23 24  2  0
 23 25  1  0
 25 26  1  0
 26 27  1  0
 27 28  2  0
 27 29  1  0
 29 30  1  0
 29 38  1  0
 30 31  1  0
 31 32  1  0
 32 33  1  0
 33 34  2  0
 33 38  1  0
 34 35  1  0
 35 36  2  0
 36 37  1  0
 37 38  2  0
 39 40  2  0
 39 44  1  0
 40 41  1  0
 41 42  2  0
 42 43  1  0
 43 44  2  0
 45 46  1  0
M  END
