
     RDKit          3D

 46 51  0  0  0  0  0  0  0  0999 V2000
  -14.3810   -0.1170   -1.1260 C   0  0  0  0  0  0  0  0  0  0  0  0
  -13.5730   -0.0040    0.1550 C   0  0  0  0  0  0  0  0  0  0  0  0
  -12.2800   -0.1560    0.0680 C   0  0  0  0  0  0  0  0  0  0  0  0
  -11.5940   -0.4830   -1.5650 S   0  0  0  0  0  0  0  0  0  0  0  0
   -9.8390   -0.4890   -1.3700 C   0  0  0  0  0  0  0  0  0  0  0  0
   -9.2740   -0.3580   -0.1870 C   0  0  0  0  0  0  0  0  0  0  0  0
   -7.7610   -0.3850   -0.1750 C   0  0  0  0  0  0  0  0  0  0  0  0
   -7.2890    1.0160   -0.0040 C   0  0  0  0  0  0  0  0  0  0  0  0
   -5.8110    1.1490    0.0490 C   0  0  0  0  0  0  0  0  0  0  0  0
   -5.3050    2.2830    0.2630 O   0  0  0  0  0  0  0  0  0  0  0  0
   -4.9400    0.0830   -0.1250 O   0  0  0  0  0  0  0  0  0  0  0  0
   -3.5590    0.3480   -0.0520 C   0  0  0  0  0  0  0  0  0  0  0  0
   -2.8280    0.1970    1.1050 C   0  0  0  0  0  0  0  0  0  0  0  0
   -1.4560    0.4750    1.1230 C   0  0  0  0  0  0  0  0  0  0  0  0
   -0.8040    0.9050   -0.0090 C   0  0  0  0  0  0  0  0  0  0  0  0
   -1.5260    1.0630   -1.1860 C   0  0  0  0  0  0  0  0  0  0  0  0
   -2.8750    0.7840   -1.1820 C   0  0  0  0  0  0  0  0  0  0  0  0
   -0.6360    1.5040   -2.1720 O   0  0  0  0  0  0  0  0  0  0  0  0
    0.4840    2.1520   -1.5450 C   0  0  0  0  0  0  0  0  0  0  0  0
    0.5840    1.2680   -0.2860 C   0  0  2  0  0  0  0  0  0  0  0  0
    1.4330    0.1640   -0.6820 N   0  0  0  0  0  0  0  0  0  0  0  0
    2.7040   -0.0610   -0.1120 C   0  0  0  0  0  0  0  0  0  0  0  0
    3.1000    0.7270    0.7680 O   0  0  0  0  0  0  0  0  0  0  0  0
    3.5550   -1.1270   -0.4800 N   0  0  0  0  0  0  0  0  0  0  0  0
    4.8780   -1.3570    0.1150 C   0  0  2  0  0  0  0  0  0  0  0  0
    5.9450   -1.4110   -0.9360 C   0  0  0  0  0  0  0  0  0  0  0  0
    6.8330   -2.5390   -0.5270 C   0  0  1  0  0  0  0  0  0  0  0  0
    8.1760   -2.0690   -0.0720 C   0  0  0  0  0  0  0  0  0  0  0  0
    8.5750   -2.3300    1.0920 O   0  0  0  0  0  0  0  0  0  0  0  0
    9.0140   -1.3480   -0.8890 O   0  0  0  0  0  0  0  0  0  0  0  0
   10.2720   -0.9020   -0.4870 C   0  0  1  0  0  0  0  0  0  0  0  0
   11.3950   -1.4510   -1.3340 C   0  0  0  0  0  0  0  0  0  0  0  0
   12.6990   -1.1310   -0.6360 C   0  0  0  0  0  0  0  0  0  0  0  0
   12.8080    0.3670   -0.4610 C   0  0  0  0  0  0  0  0  0  0  0  0
   11.6520    0.9100    0.3580 C   0  0  0  0  0  0  0  0  0  0  0  0
   10.3860    0.6140   -0.4590 C   0  0  2  0  0  0  0  0  0  0  0  0
    9.1690    1.1640    0.2180 C   0  0  0  0  0  0  0  0  0  0  0  0
    6.1530   -3.2430    0.4590 O   0  0  0  0  0  0  0  0  0  0  0  0
    4.8740   -2.7410    0.6550 C   0  0  0  0  0  0  0  0  0  0  0  0
    3.9200   -3.3780    1.1950 O   0  0  0  0  0  0  0  0  0  0  0  0
   -9.9720   -0.1610    1.0640 C   0  0  0  0  0  0  0  0  0  0  0  0
   -9.2210   -0.0900    2.2250 C   0  0  0  0  0  0  0  0  0  0  0  0
   -9.8340    0.0710    3.4650 C   0  0  0  0  0  0  0  0  0  0  0  0
  -11.1870    0.1620    3.5830 C   0  0  0  0  0  0  0  0  0  0  0  0
  -11.9450    0.0900    2.4340 C   0  0  0  0  0  0  0  0  0  0  0  0
  -11.3580   -0.0700    1.1860 C   0  0  0  0  0  0  0  0  0  0  0  0
  1  2  1  0
  2  3  2  3
  3  4  1  0
  3 46  1  0
  4  5  1  0
  5  6  2  0
  6  7  1  0
  6 41  1  0
  7  8  1  0
  8  9  1  0
  9 10  2  0
  9 11  1  0
 11 12  1  0
 12 13  2  0
 12 17  1  0
 13 14  1  0
 14 15  2  0
 15 16  1  0
 15 20  1  0
 16 17  2  0
 16 18  1  0
 18 19  1  0
 19 20  1  0
 20 21  1  6
 21 22  1  0
 22 23  2  0
 22 24  1  0
 25 24  1  6
 25 26  1  0
 25 39  1  0
 26 27  1  0
 27 28  1  1
 27 38  1  0
 28 29  2  0
 28 30  1  0
 31 30  1  6
 31 32  1  0
 31 36  1  0
 32 33  1  0
 33 34  1  0
 34 35  1  0
 35 36  1  0
 36 37  1  1
 38 39  1  0
 39 40  2  0
 41 42  2  0
 41 46  1  0
 42 43  1  0
 43 44  2  0
 44 45  1  0
 45 46  2  0
M  END
