
     RDKit          3D

 46 51  0  0  0  0  0  0  0  0999 V2000
   -6.8210    1.2030    4.0120 C   0  0  0  0  0  0  0  0  0  0  0  0
   -7.0450    1.2890    2.5680 C   0  0  0  0  0  0  0  0  0  0  0  0
   -8.1990    1.5280    2.1590 O   0  0  0  0  0  0  0  0  0  0  0  0
   -5.9820    1.1080    1.5640 C   0  0  0  0  0  0  0  0  0  0  0  0
   -4.6800    0.8430    1.9380 C   0  0  0  0  0  0  0  0  0  0  0  0
   -3.6960    0.6780    0.9800 C   0  0  0  0  0  0  0  0  0  0  0  0
   -3.9490    0.7660   -0.3640 C   0  0  0  0  0  0  0  0  0  0  0  0
   -2.8990    0.5940   -1.3940 C   0  0  1  0  0  0  0  0  0  0  0  0
   -1.7250    1.3220   -1.0790 O   0  0  0  0  0  0  0  0  0  0  0  0
   -1.2130    2.3050   -1.8990 C   0  0  0  0  0  0  0  0  0  0  0  0
   -1.8060    2.5600   -2.9540 O   0  0  0  0  0  0  0  0  0  0  0  0
    0.0280    3.0010   -1.4610 C   0  0  0  0  0  0  0  0  0  0  0  0
    0.8220    3.0710   -0.6460 N   0  0  0  0  0  0  0  0  0  0  0  0
    1.8720    3.8110   -0.4860 C   0  0  0  0  0  0  0  0  0  0  0  0
    2.7760    3.7400    0.6660 C   0  0  0  0  0  0  0  0  0  0  0  0
    3.7710    4.5650    0.6190 O   0  0  0  0  0  0  0  0  0  0  0  0
    2.6560    2.8870    1.7720 N   0  0  0  0  0  0  0  0  0  0  0  0
    3.7580    3.0690    2.7480 C   0  0  0  0  0  0  0  0  0  0  0  0
    4.9160    2.2770    2.1220 C   0  0  0  0  0  0  0  0  0  0  0  0
    4.4940    0.8190    2.2380 C   0  0  0  0  0  0  0  0  0  0  0  0
    3.4720    0.4790    1.2070 C   0  0  1  0  0  0  0  0  0  0  0  0
    3.6980   -0.8130    0.4740 C   0  0  1  0  0  0  0  0  0  0  0  0
    3.7440   -1.9310    1.4660 C   0  0  0  0  0  0  0  0  0  0  0  0
    2.4410   -1.0260   -0.2150 O   0  0  0  0  0  0  0  0  0  0  0  0
    4.7100   -0.7750   -0.5810 C   0  0  2  0  0  0  0  0  0  0  0  0
    4.9270   -2.0820   -1.3020 C   0  0  0  0  0  0  0  0  0  0  0  0
    6.1090   -2.7110   -0.6510 C   0  0  0  0  0  0  0  0  0  0  0  0
    6.7680   -1.6630    0.0040 O   0  0  0  0  0  0  0  0  0  0  0  0
    6.0950   -0.4390   -0.2100 C   0  0  0  0  0  0  0  0  0  0  0  0
    6.6700    0.6650   -0.0810 O   0  0  0  0  0  0  0  0  0  0  0  0
    2.0550    0.5190    1.7400 C   0  0  0  0  0  0  0  0  0  0  0  0
    1.6030    1.9500    1.9580 C   0  0  0  0  0  0  0  0  0  0  0  0
    2.0890    4.7350   -1.5480 C   0  0  0  0  0  0  0  0  0  0  0  0
    0.6800    4.3480   -2.6220 S   0  0  0  0  0  0  0  0  0  0  0  0
   -2.6060   -0.8460   -1.6180 C   0  0  0  0  0  0  0  0  0  0  0  0
   -1.4150   -1.4200   -1.1870 C   0  0  0  0  0  0  0  0  0  0  0  0
   -1.1780   -2.7540   -1.4010 C   0  0  0  0  0  0  0  0  0  0  0  0
   -2.0720   -3.5920   -2.0350 C   0  0  0  0  0  0  0  0  0  0  0  0
   -1.7810   -5.0480   -2.2440 C   0  0  0  0  0  0  0  0  0  0  0  0
   -3.2500   -3.0220   -2.4610 C   0  0  0  0  0  0  0  0  0  0  0  0
   -3.4980   -1.6670   -2.2480 C   0  0  0  0  0  0  0  0  0  0  0  0
   -4.7580   -1.3750   -2.7800 O   0  0  0  0  0  0  0  0  0  0  0  0
   -5.1220   -2.4090   -3.6960 C   0  0  0  0  0  0  0  0  0  0  0  0
   -4.3980   -3.6370   -3.1660 C   0  0  0  0  0  0  0  0  0  0  0  0
   -5.2490    1.0310   -0.7380 C   0  0  0  0  0  0  0  0  0  0  0  0
   -6.2540    1.2000    0.2180 C   0  0  0  0  0  0  0  0  0  0  0  0
  1  2  1  0
  2  3  2  0
  2  4  1  0
  4  5  2  0
  4 46  1  0
  5  6  1  0
  6  7  2  0
  7  8  1  0
  7 45  1  0
  8  9  1  1
  8 35  1  0
  9 10  1  0
 10 11  2  0
 10 12  1  0
 12 13  2  0
 12 34  1  0
 13 14  1  0
 14 15  1  0
 14 33  2  0
 15 16  2  0
 15 17  1  0
 17 18  1  0
 17 32  1  0
 18 19  1  0
 19 20  1  0
 21 20  1  1
 21 22  1  0
 21 31  1  0
 22 23  1  1
 22 24  1  0
 22 25  1  0
 25 26  1  1
 25 29  1  0
 26 27  1  0
 27 28  1  0
 28 29  1  0
 29 30  2  0
 31 32  1  0
 33 34  1  0
 35 36  2  0
 35 41  1  0
 36 37  1  0
 37 38  2  0
 38 39  1  0
 38 40  1  0
 40 41  2  0
 40 44  1  0
 41 42  1  0
 42 43  1  0
 43 44  1  0
 45 46  2  0
M  END
