
     RDKit          3D

 46 51  0  0  0  0  0  0  0  0999 V2000
    9.1730    1.4830    0.9810 C   0  0  0  0  0  0  0  0  0  0  0  0
    8.3400    2.0220   -0.1560 C   0  0  0  0  0  0  0  0  0  0  0  0
    7.0990    1.3180   -0.1660 O   0  0  0  0  0  0  0  0  0  0  0  0
    6.1390    1.6500   -1.1280 C   0  0  0  0  0  0  0  0  0  0  0  0
    6.4230    2.5600   -1.9240 O   0  0  0  0  0  0  0  0  0  0  0  0
    4.8200    0.9780   -1.2350 C   0  0  0  0  0  0  0  0  0  0  0  0
    4.8840   -0.3270   -0.5190 C   0  0  0  0  0  0  0  0  0  0  0  0
    3.5930   -1.0610   -0.5990 C   0  0  2  0  0  0  0  0  0  0  0  0
    2.4110   -0.3080    0.0350 C   0  0  0  0  0  0  0  0  0  0  0  0
    1.2380   -1.1800   -0.1500 C   0  0  0  0  0  0  0  0  0  0  0  0
    1.3660   -2.2100   -0.8540 O   0  0  0  0  0  0  0  0  0  0  0  0
   -0.0690   -0.9320    0.4400 N   0  0  0  0  0  0  0  0  0  0  0  0
   -0.1670    0.2540    1.2030 C   0  0  0  0  0  0  0  0  0  0  0  0
   -0.4290    1.5290    0.5230 C   0  0  0  0  0  0  0  0  0  0  0  0
   -0.1820    1.8280   -0.7930 C   0  0  0  0  0  0  0  0  0  0  0  0
   -0.4430    3.0490   -1.3580 C   0  0  0  0  0  0  0  0  0  0  0  0
   -0.9860    4.0920   -0.6280 C   0  0  0  0  0  0  0  0  0  0  0  0
   -1.2470    5.3210   -1.1940 C   0  0  0  0  0  0  0  0  0  0  0  0
   -1.7840    6.3410   -0.4510 C   0  0  0  0  0  0  0  0  0  0  0  0
   -2.0440    6.0710    0.8760 C   0  0  0  0  0  0  0  0  0  0  0  0
   -1.7890    4.8470    1.4620 C   0  0  0  0  0  0  0  0  0  0  0  0
   -2.0740    4.5860    2.9030 C   0  0  0  0  0  0  0  0  0  0  0  0
   -1.2460    3.8220    0.6980 C   0  0  0  0  0  0  0  0  0  0  0  0
   -0.9810    2.5960    1.2530 C   0  0  0  0  0  0  0  0  0  0  0  0
   -1.0340   -1.9500    0.2410 C   0  0  1  0  0  0  0  0  0  0  0  0
   -1.1180   -2.6580    1.6300 C   0  0  0  0  0  0  0  0  0  0  0  0
   -2.4650   -3.8400    1.2160 S   0  0  0  0  0  0  0  0  0  0  0  0
   -3.3020   -2.5830    0.2150 C   0  0  0  0  0  0  0  0  0  0  0  0
   -2.3770   -1.6600   -0.2040 C   0  0  0  0  0  0  0  0  0  0  0  0
   -2.8700   -0.6370   -0.9800 C   0  0  0  0  0  0  0  0  0  0  0  0
   -4.1960   -0.5350   -1.3180 C   0  0  0  0  0  0  0  0  0  0  0  0
   -5.1000   -1.4540   -0.8970 C   0  0  0  0  0  0  0  0  0  0  0  0
   -4.6110   -2.5070   -0.1030 C   0  0  0  0  0  0  0  0  0  0  0  0
   -5.3980   -3.5410    0.4160 O   0  0  0  0  0  0  0  0  0  0  0  0
   -6.7440   -3.8380    0.0130 C   0  0  1  0  0  0  0  0  0  0  0  0
   -7.1490   -5.0930    0.7320 C   0  0  0  0  0  0  0  0  0  0  0  0
   -7.5510   -2.6250    0.4060 C   0  0  0  0  0  0  0  0  0  0  0  0
   -7.6280   -1.5620   -0.6350 C   0  0  0  0  0  0  0  0  0  0  0  0
   -6.4190   -1.2680   -1.2880 O   0  0  0  0  0  0  0  0  0  0  0  0
    3.7250   -2.2930    0.1650 N   0  0  0  0  0  0  0  0  0  0  0  0
    4.3770   -3.3870   -0.4500 C   0  0  0  0  0  0  0  0  0  0  0  0
    5.1070   -4.1890    0.2220 O   0  0  0  0  0  0  0  0  0  0  0  0
    4.2330   -3.6390   -1.9030 C   0  0  0  0  0  0  0  0  0  0  0  0
    3.6380   -2.5570   -2.5580 O   0  0  0  0  0  0  0  0  0  0  0  0
    3.1840   -1.3900   -1.9740 C   0  0  0  0  0  0  0  0  0  0  0  0
    2.4240   -0.6500   -2.6670 O   0  0  0  0  0  0  0  0  0  0  0  0
  1  2  1  0
  2  3  1  0
  3  4  1  0
  4  5  2  0
  4  6  1  0
  6  7  1  0
  8  7  1  6
  8  9  1  0
  8 40  1  0
  8 45  1  0
  9 10  1  0
 10 11  2  0
 10 12  1  0
 12 13  1  0
 25 12  1  1
 13 14  1  0
 14 15  2  0
 14 24  1  0
 15 16  1  0
 16 17  2  0
 17 18  1  0
 17 23  1  0
 18 19  2  0
 19 20  1  0
 20 21  2  0
 21 22  1  0
 21 23  1  0
 23 24  2  0
 25 26  1  0
 25 29  1  0
 26 27  1  0
 27 28  1  0
 28 29  2  0
 28 33  1  0
 29 30  1  0
 30 31  2  0
 31 32  1  0
 32 33  2  0
 32 39  1  0
 33 34  1  0
 34 35  1  0
 35 36  1  1
 35 37  1  0
 37 38  1  0
 38 39  1  0
 40 41  1  0
 41 42  2  0
 41 43  1  0
 43 44  1  0
 44 45  1  0
 45 46  2  0
M  END
