
     RDKit          3D

 46 49  0  0  0  0  0  0  0  0999 V2000
   -0.5220    6.3760    0.0210 C   0  0  0  0  0  0  0  0  0  0  0  0
   -1.4100    5.8090    1.0780 C   0  0  0  0  0  0  0  0  0  0  0  0
   -1.8170    4.3780    0.8000 C   0  0  2  0  0  0  0  0  0  0  0  0
   -0.6190    3.4900    0.7170 C   0  0  0  0  0  0  0  0  0  0  0  0
   -0.1520    3.0090    2.0890 C   0  0  0  0  0  0  0  0  0  0  0  0
    0.8740    3.8470    2.5950 O   0  0  0  0  0  0  0  0  0  0  0  0
    2.1550    3.9020    2.0860 C   0  0  0  0  0  0  0  0  0  0  0  0
    2.6510    5.1120    2.2530 O   0  0  0  0  0  0  0  0  0  0  0  0
    2.9980    2.8870    1.4320 C   0  0  0  0  0  0  0  0  0  0  0  0
    4.3160    3.0130    1.9370 C   0  0  0  0  0  0  0  0  0  0  0  0
    5.3580    2.2150    1.5430 C   0  0  0  0  0  0  0  0  0  0  0  0
    5.0590    1.2600    0.6070 C   0  0  0  0  0  0  0  0  0  0  0  0
    6.0930    0.4390    0.1860 O   0  0  0  0  0  0  0  0  0  0  0  0
    7.3910    0.4340    0.5580 C   0  0  1  0  0  0  0  0  0  0  0  0
    7.7040   -0.9650    1.1400 C   0  0  0  0  0  0  0  0  0  0  0  0
    8.2770    0.5940   -0.6870 C   0  0  0  0  0  0  0  0  0  0  0  0
    3.7370    1.1060    0.0760 C   0  0  0  0  0  0  0  0  0  0  0  0
    2.7090    1.9240    0.4920 C   0  0  0  0  0  0  0  0  0  0  0  0
    3.7550    0.0240   -0.8670 N   0  0  0  0  0  0  0  0  0  0  0  0
    2.8600   -1.0440   -1.1100 C   0  0  0  0  0  0  0  0  0  0  0  0
    2.5740   -1.3150   -2.3080 O   0  0  0  0  0  0  0  0  0  0  0  0
    2.2160   -1.8870   -0.0640 C   0  0  2  0  0  0  0  0  0  0  0  0
    2.8700   -3.2460   -0.1590 C   0  0  0  0  0  0  0  0  0  0  0  0
    1.9870   -3.9040   -1.2160 C   0  0  0  0  0  0  0  0  0  0  0  0
    0.6670   -3.2890   -0.9150 C   0  0  1  0  0  0  0  0  0  0  0  0
   -0.1240   -4.1300    0.0640 C   0  0  0  0  0  0  0  0  0  0  0  0
   -0.6420   -5.3600   -0.5600 N   0  0  0  0  0  0  0  0  0  0  0  0
    0.1980   -6.5400   -0.4390 C   0  0  0  0  0  0  0  0  0  0  0  0
   -1.8780   -5.3630   -1.2250 C   0  0  0  0  0  0  0  0  0  0  0  0
   -2.0030   -6.4340   -1.9790 O   0  0  0  0  0  0  0  0  0  0  0  0
   -3.0140   -4.4140   -1.2230 C   0  0  0  0  0  0  0  0  0  0  0  0
   -4.2340   -5.1440   -1.2180 C   0  0  0  0  0  0  0  0  0  0  0  0
   -5.4670   -4.5610   -1.2150 C   0  0  0  0  0  0  0  0  0  0  0  0
   -5.4620   -3.1890   -1.2190 C   0  0  0  0  0  0  0  0  0  0  0  0
   -6.8220   -2.5370   -1.1930 C   0  0  0  0  0  0  0  0  0  0  0  0
   -4.2710   -2.4240   -1.2260 C   0  0  0  0  0  0  0  0  0  0  0  0
   -3.0380   -3.0390   -1.2280 C   0  0  0  0  0  0  0  0  0  0  0  0
   -4.6180   -0.9650   -1.2350 C   0  0  0  0  0  0  0  0  0  0  0  0
   -4.4820   -0.2640    0.0840 C   0  0  0  0  0  0  0  0  0  0  0  0
   -5.0110    1.0730   -0.0620 N   0  0  0  0  0  0  0  0  0  0  0  0
   -4.1940    2.0550    0.6330 C   0  0  0  0  0  0  0  0  0  0  0  0
   -4.7790    3.4050    0.4630 C   0  0  0  0  0  0  0  0  0  0  0  0
   -5.9710    3.5670    0.8040 O   0  0  0  0  0  0  0  0  0  0  0  0
   -4.0360    4.4820   -0.0640 N   0  0  0  0  0  0  0  0  0  0  0  0
   -2.6460    4.3670   -0.4570 C   0  0  0  0  0  0  0  0  0  0  0  0
    0.8850   -2.0680   -0.3080 O   0  0  0  0  0  0  0  0  0  0  0  0
  1  2  1  0
  3  2  1  6
  3  4  1  0
  3 45  1  0
  4  5  1  0
  5  6  1  0
  6  7  1  0
  7  8  2  0
  7  9  1  0
  9 10  1  0
  9 18  2  0
 10 11  2  0
 11 12  1  0
 12 13  1  0
 12 17  2  0
 13 14  1  0
 14 15  1  6
 14 16  1  0
 17 18  1  0
 17 19  1  0
 19 20  1  0
 20 21  2  0
 20 22  1  0
 22 23  1  6
 22 46  1  0
 23 24  1  0
 25 24  1  1
 25 26  1  0
 25 46  1  0
 26 27  1  0
 27 28  1  0
 27 29  1  0
 29 30  2  0
 29 31  1  0
 31 32  1  0
 31 37  2  0
 32 33  2  0
 33 34  1  0
 34 35  1  0
 34 36  2  0
 36 37  1  0
 36 38  1  0
 38 39  1  0
 39 40  1  0
 40 41  1  0
 41 42  1  0
 42 43  2  0
 42 44  1  0
 44 45  1  0
M  CHG  1  40   1
M  END
