
     RDKit          3D

 40 44  0  0  0  0  0  0  0  0999 V2000
    8.6690   -1.6530    0.5550 C   0  0  0  0  0  0  0  0  0  0  0  0
    7.4140   -1.0870   -0.0290 C   0  0  0  0  0  0  0  0  0  0  0  0
    7.4020   -0.4630   -1.2560 C   0  0  0  0  0  0  0  0  0  0  0  0
    6.2450    0.0230   -1.7720 C   0  0  0  0  0  0  0  0  0  0  0  0
    5.0480   -0.1030   -1.0700 C   0  0  0  0  0  0  0  0  0  0  0  0
    3.8750    0.3670   -1.5760 C   0  0  0  0  0  0  0  0  0  0  0  0
    3.8610    0.9360   -2.6880 O   0  0  0  0  0  0  0  0  0  0  0  0
    2.6350    0.2440   -0.8850 C   0  0  0  0  0  0  0  0  0  0  0  0
    1.5150    0.8030   -1.5840 C   0  0  0  0  0  0  0  0  0  0  0  0
    0.1830    0.7410   -1.1490 N   0  0  0  0  0  0  0  0  0  0  0  0
   -0.8290    1.4140   -1.9240 C   0  0  0  0  0  0  0  0  0  0  0  0
   -0.3520    2.0220   -2.9520 O   0  0  0  0  0  0  0  0  0  0  0  0
   -2.2320    1.4440   -1.6440 C   0  0  0  0  0  0  0  0  0  0  0  0
   -3.0660    2.1360   -2.5660 C   0  0  0  0  0  0  0  0  0  0  0  0
   -4.4160    2.1680   -2.3700 C   0  0  0  0  0  0  0  0  0  0  0  0
   -5.4820    3.0140   -3.5050 Cl  0  0  0  0  0  0  0  0  0  0  0  0
   -5.0390    1.5630   -1.3170 C   0  0  0  0  0  0  0  0  0  0  0  0
   -6.5260    1.6300   -1.1430 C   0  0  0  0  0  0  0  0  0  0  0  0
   -7.2890    0.5760   -0.8820 C   0  0  0  0  0  0  0  0  0  0  0  0
   -8.6350    0.7020   -0.7330 C   0  0  0  0  0  0  0  0  0  0  0  0
   -8.8760    2.4590   -0.9820 S   0  0  0  0  0  0  0  0  0  0  0  0
   -7.1790    2.8240   -1.2510 C   0  0  0  0  0  0  0  0  0  0  0  0
   -4.2440    0.9010   -0.4260 C   0  0  0  0  0  0  0  0  0  0  0  0
   -2.8450    0.8430   -0.5970 C   0  0  0  0  0  0  0  0  0  0  0  0
   -2.0980    0.1480    0.3410 O   0  0  0  0  0  0  0  0  0  0  0  0
   -2.7320   -0.5640    1.3170 C   0  0  0  0  0  0  0  0  0  0  0  0
   -2.6440   -0.2620    2.6430 C   0  0  0  0  0  0  0  0  0  0  0  0
   -3.2960   -0.9960    3.6280 C   0  0  0  0  0  0  0  0  0  0  0  0
   -3.1520   -0.6220    4.9620 O   0  0  0  0  0  0  0  0  0  0  0  0
   -4.0440   -2.0420    3.2970 N   0  0  0  0  0  0  0  0  0  0  0  0
   -4.1670   -2.3870    1.9770 C   0  0  0  0  0  0  0  0  0  0  0  0
   -3.5310   -1.6740    1.0060 C   0  0  0  0  0  0  0  0  0  0  0  0
   -3.6850   -2.1660   -0.6710 Cl  0  0  0  0  0  0  0  0  0  0  0  0
    2.6910   -0.3730    0.3080 C   0  0  0  0  0  0  0  0  0  0  0  0
    1.5200   -0.5720    1.2170 C   0  0  0  0  0  0  0  0  0  0  0  0
    3.8800   -0.8480    0.8180 N   0  0  0  0  0  0  0  0  0  0  0  0
    5.0260   -0.7170    0.1410 C   0  0  0  0  0  0  0  0  0  0  0  0
    6.2310   -1.2070    0.6510 C   0  0  0  0  0  0  0  0  0  0  0  0
    6.2100   -1.8560    1.9530 C   0  0  0  0  0  0  0  0  0  0  0  0
    6.3840   -1.2030    3.0070 O   0  0  0  0  0  0  0  0  0  0  0  0
  1  2  1  0
  2  3  2  0
  2 38  1  0
  3  4  1  0
  4  5  2  0
  5  6  1  0
  5 37  1  0
  6  7  2  0
  6  8  1  0
  8  9  1  0
  8 34  2  0
  9 10  1  0
 10 11  1  0
 11 12  2  0
 11 13  1  0
 13 14  2  0
 13 24  1  0
 14 15  1  0
 15 16  1  0
 15 17  2  0
 17 18  1  0
 17 23  1  0
 18 19  1  0
 18 22  2  0
 19 20  2  0
 20 21  1  0
 21 22  1  0
 23 24  2  0
 24 25  1  0
 25 26  1  0
 26 27  2  0
 26 32  1  0
 27 28  1  0
 28 29  1  0
 28 30  2  0
 30 31  1  0
 31 32  2  0
 32 33  1  0
 34 35  1  0
 34 36  1  0
 36 37  1  0
 37 38  2  0
 38 39  1  0
 39 40  2  0
M  END
