
     RDKit          3D

 40 44  0  0  0  0  0  0  0  0999 V2000
   -7.1280   -2.5120    1.2820 C   0  0  0  0  0  0  0  0  0  0  0  0
   -5.9600   -2.0050    2.1140 C   0  0  0  0  0  0  0  0  0  0  0  0
   -6.1800   -0.6170    2.6110 C   0  0  0  0  0  0  0  0  0  0  0  0
   -6.3660    0.3900    1.5220 C   0  0  0  0  0  0  0  0  0  0  0  0
   -7.5040    1.0630    1.3560 C   0  0  0  0  0  0  0  0  0  0  0  0
   -8.6900    0.9350    2.1640 N   0  0  0  0  0  0  0  0  0  0  0  0
   -7.3010    1.9370    0.2160 C   0  0  0  0  0  0  0  0  0  0  0  0
   -8.1280    2.7440   -0.2800 O   0  0  0  0  0  0  0  0  0  0  0  0
   -5.9450    1.7220   -0.2750 C   0  0  0  0  0  0  0  0  0  0  0  0
   -5.1980    2.2640   -1.3110 C   0  0  0  0  0  0  0  0  0  0  0  0
   -3.9010    1.8880   -1.5660 C   0  0  0  0  0  0  0  0  0  0  0  0
   -3.1420    2.4190   -2.5960 O   0  0  0  0  0  0  0  0  0  0  0  0
   -3.6800    3.3930   -3.4500 C   0  0  0  0  0  0  0  0  0  0  0  0
   -3.3050    0.9190   -0.7490 C   0  0  0  0  0  0  0  0  0  0  0  0
   -1.9580    0.5210   -0.9730 N   0  0  0  0  0  0  0  0  0  0  0  0
   -1.4380   -0.0220   -2.1640 C   0  0  0  0  0  0  0  0  0  0  0  0
   -2.0540   -0.2650   -3.2360 O   0  0  0  0  0  0  0  0  0  0  0  0
    0.0100   -0.2920   -1.9970 C   0  0  0  0  0  0  0  0  0  0  0  0
    0.9710   -0.8090   -2.8510 C   0  0  0  0  0  0  0  0  0  0  0  0
    2.2530   -0.9250   -2.3750 C   0  0  0  0  0  0  0  0  0  0  0  0
    2.6500   -0.5590   -1.0950 C   0  0  0  0  0  0  0  0  0  0  0  0
    4.0100   -0.6890   -0.6810 N   0  0  0  0  0  0  0  0  0  0  0  0
    4.5290   -0.6530    0.5880 C   0  0  0  0  0  0  0  0  0  0  0  0
    3.7110   -0.5000    1.5540 O   0  0  0  0  0  0  0  0  0  0  0  0
    5.9450   -0.7710    1.0200 C   0  0  0  0  0  0  0  0  0  0  0  0
    6.5180   -0.7450    2.6290 S   0  0  0  0  0  0  0  0  0  0  0  0
    8.2900   -0.9130    2.3050 C   0  0  0  0  0  0  0  0  0  0  0  0
    9.3480   -0.9570    3.2910 C   0  0  0  0  0  0  0  0  0  0  0  0
    8.2710   -0.9760    0.9200 C   0  0  0  0  0  0  0  0  0  0  0  0
    9.6220   -1.1170    0.2030 C   0  0  0  0  0  0  0  0  0  0  0  0
   10.3310    0.1980    0.1970 C   0  0  0  0  0  0  0  0  0  0  0  0
   11.9040    0.0870   -0.6190 Cl  0  0  0  0  0  0  0  0  0  0  0  0
    7.1180   -0.9080    0.2500 C   0  0  0  0  0  0  0  0  0  0  0  0
    7.0480   -0.9820   -1.5600 Cl  0  0  0  0  0  0  0  0  0  0  0  0
    1.6670   -0.0540   -0.2890 C   0  0  0  0  0  0  0  0  0  0  0  0
    0.3380    0.0890   -0.7210 C   0  0  0  0  0  0  0  0  0  0  0  0
   -0.8610    0.6010   -0.0500 C   0  0  0  0  0  0  0  0  0  0  0  0
   -0.9090    1.0280    1.1210 O   0  0  0  0  0  0  0  0  0  0  0  0
   -4.0580    0.3870    0.2760 C   0  0  0  0  0  0  0  0  0  0  0  0
   -5.3680    0.7650    0.5350 C   0  0  0  0  0  0  0  0  0  0  0  0
  1  2  1  0
  2  3  1  0
  3  4  1  0
  4  5  2  0
  4 40  1  0
  5  6  1  0
  5  7  1  0
  7  8  2  0
  7  9  1  0
  9 10  2  0
  9 40  1  0
 10 11  1  0
 11 12  1  0
 11 14  2  0
 12 13  1  0
 14 15  1  0
 14 39  1  0
 15 16  1  0
 15 37  1  0
 16 17  2  0
 16 18  1  0
 18 19  2  0
 18 36  1  0
 19 20  1  0
 20 21  2  0
 21 22  1  0
 21 35  1  0
 22 23  1  0
 23 24  2  0
 23 25  1  0
 25 26  1  0
 25 33  2  0
 26 27  1  0
 27 28  1  0
 27 29  2  0
 29 30  1  0
 29 33  1  0
 30 31  1  0
 31 32  1  0
 33 34  1  0
 35 36  2  0
 36 37  1  0
 37 38  2  0
 39 40  2  0
M  END
