
     RDKit          3D

 40 44  0  0  0  0  0  0  0  0999 V2000
    0.9470   -2.8300   -2.6830 C   0  0  0  0  0  0  0  0  0  0  0  0
    0.6550   -1.4890   -2.3640 O   0  0  0  0  0  0  0  0  0  0  0  0
   -0.6290   -1.1030   -1.9370 C   0  0  0  0  0  0  0  0  0  0  0  0
   -1.5950   -2.0720   -1.8400 C   0  0  0  0  0  0  0  0  0  0  0  0
   -2.8780   -1.7880   -1.4360 C   0  0  0  0  0  0  0  0  0  0  0  0
   -3.2620   -0.4840   -1.1020 C   0  0  0  0  0  0  0  0  0  0  0  0
   -4.6130   -0.2790   -0.6880 C   0  0  0  0  0  0  0  0  0  0  0  0
   -5.4470   -1.2460   -0.9210 O   0  0  0  0  0  0  0  0  0  0  0  0
   -5.2060    0.8230   -0.0530 N   0  0  0  0  0  0  0  0  0  0  0  0
   -6.6160    0.7940    0.2580 C   0  0  0  0  0  0  0  0  0  0  0  0
   -7.5730    1.2560   -0.6190 C   0  0  0  0  0  0  0  0  0  0  0  0
   -7.0670    1.9130   -2.1670 Cl  0  0  0  0  0  0  0  0  0  0  0  0
   -8.9150    1.2270   -0.3290 C   0  0  0  0  0  0  0  0  0  0  0  0
  -10.0790    1.8240   -1.4720 Cl  0  0  0  0  0  0  0  0  0  0  0  0
   -9.3410    0.7170    0.8900 C   0  0  0  0  0  0  0  0  0  0  0  0
   -8.3850    0.2530    1.7700 C   0  0  0  0  0  0  0  0  0  0  0  0
   -8.4580   -0.3040    3.0330 C   0  0  0  0  0  0  0  0  0  0  0  0
   -7.1880   -0.6070    3.5010 C   0  0  0  0  0  0  0  0  0  0  0  0
   -6.3480   -0.2290    2.5110 N   0  0  0  0  0  0  0  0  0  0  0  0
   -7.0240    0.2860    1.4680 C   0  0  0  0  0  0  0  0  0  0  0  0
   -2.3080    0.4600   -1.2000 C   0  0  0  0  0  0  0  0  0  0  0  0
   -2.5890    1.8560   -0.8720 C   0  0  0  0  0  0  0  0  0  0  0  0
   -3.0120    2.5880   -1.7870 O   0  0  0  0  0  0  0  0  0  0  0  0
   -0.9580    0.1950   -1.6180 C   0  0  0  0  0  0  0  0  0  0  0  0
   -0.1070    1.1730   -1.6770 O   0  0  0  0  0  0  0  0  0  0  0  0
    0.7450    2.1500   -1.7350 C   0  0  0  0  0  0  0  0  0  0  0  0
    2.1240    1.8400   -1.2920 C   0  0  0  0  0  0  0  0  0  0  0  0
    3.0750    2.6750   -1.5000 O   0  0  0  0  0  0  0  0  0  0  0  0
    2.4020    0.6180   -0.6310 N   0  0  0  0  0  0  0  0  0  0  0  0
    3.7240    0.3020   -0.2040 C   0  0  0  0  0  0  0  0  0  0  0  0
    4.2840   -0.7550    0.4190 C   0  0  0  0  0  0  0  0  0  0  0  0
    5.5990   -0.7650    0.7030 C   0  0  0  0  0  0  0  0  0  0  0  0
    6.3310   -1.8030    1.3520 C   0  0  0  0  0  0  0  0  0  0  0  0
    7.6680   -1.6340    1.5550 C   0  0  0  0  0  0  0  0  0  0  0  0
    8.4080   -0.5310    1.1870 C   0  0  0  0  0  0  0  0  0  0  0  0
    9.8530   -0.4010    1.4310 C   0  0  0  0  0  0  0  0  0  0  0  0
    7.7110    0.4740    0.5610 C   0  0  0  0  0  0  0  0  0  0  0  0
    8.3690    1.7250    0.1060 C   0  0  0  0  0  0  0  0  0  0  0  0
    6.3490    0.3380    0.3380 C   0  0  0  0  0  0  0  0  0  0  0  0
    5.1520    1.4090   -0.4270 S   0  0  0  0  0  0  0  0  0  0  0  0
  1  2  1  0
  2  3  1  0
  3  4  2  0
  3 24  1  0
  4  5  1  0
  5  6  2  0
  6  7  1  0
  6 21  1  0
  7  8  2  0
  7  9  1  0
  9 10  1  0
 10 11  2  0
 10 20  1  0
 11 12  1  0
 11 13  1  0
 13 14  1  0
 13 15  2  0
 15 16  1  0
 16 17  1  0
 16 20  2  0
 17 18  2  0
 18 19  1  0
 19 20  1  0
 21 22  1  0
 21 24  2  0
 22 23  2  0
 24 25  1  0
 25 26  1  0
 26 27  1  0
 27 28  2  0
 27 29  1  0
 29 30  1  0
 30 31  2  0
 30 40  1  0
 31 32  1  0
 32 33  2  0
 32 39  1  0
 33 34  1  0
 34 35  2  0
 35 36  1  0
 35 37  1  0
 37 38  1  0
 37 39  2  0
 39 40  1  0
M  END
