
     RDKit          3D

 40 44  0  0  0  0  0  0  0  0999 V2000
   -0.5610   -3.9640   -1.2980 C   0  0  0  0  0  0  0  0  0  0  0  0
   -0.1500   -2.5930   -0.8860 C   0  0  0  0  0  0  0  0  0  0  0  0
    1.5200   -2.1460   -0.7420 S   0  0  0  0  0  0  0  0  0  0  0  0
    1.1990   -0.4110   -0.2640 C   0  0  0  0  0  0  0  0  0  0  0  0
    2.2130    0.4970    0.0000 N   0  0  0  0  0  0  0  0  0  0  0  0
    3.6040    0.0970   -0.0740 C   0  0  0  0  0  0  0  0  0  0  0  0
    3.8380   -1.0940   -0.3760 O   0  0  0  0  0  0  0  0  0  0  0  0
    4.6630    1.1110    0.2080 C   0  0  0  0  0  0  0  0  0  0  0  0
    5.9200    0.5690    0.0790 O   0  0  0  0  0  0  0  0  0  0  0  0
    6.5000    0.0200   -1.0310 C   0  0  0  0  0  0  0  0  0  0  0  0
    5.8760   -0.0530   -2.2370 C   0  0  0  0  0  0  0  0  0  0  0  0
    6.5110   -0.6190   -3.3330 C   0  0  0  0  0  0  0  0  0  0  0  0
    7.7880   -1.1260   -3.2540 C   0  0  0  0  0  0  0  0  0  0  0  0
    8.5450   -1.8230   -4.6530 Cl  0  0  0  0  0  0  0  0  0  0  0  0
    8.4160   -1.0500   -2.0300 C   0  0  0  0  0  0  0  0  0  0  0  0
    7.7870   -0.4900   -0.9430 C   0  0  0  0  0  0  0  0  0  0  0  0
    8.6150   -0.4060    0.6060 Cl  0  0  0  0  0  0  0  0  0  0  0  0
   -0.2090   -0.3340   -0.2570 C   0  0  0  0  0  0  0  0  0  0  0  0
   -0.7910    1.0040    0.0980 C   0  0  0  0  0  0  0  0  0  0  0  0
   -0.0020    1.9900    0.2250 O   0  0  0  0  0  0  0  0  0  0  0  0
   -2.1290    1.3030    0.3200 N   0  0  0  0  0  0  0  0  0  0  0  0
   -2.6420    2.6110    0.6590 C   0  0  0  0  0  0  0  0  0  0  0  0
   -1.9140    3.5960    1.2190 C   0  0  0  0  0  0  0  0  0  0  0  0
   -2.4560    4.8600    1.5040 C   0  0  0  0  0  0  0  0  0  0  0  0
   -3.7540    5.1210    1.2130 C   0  0  0  0  0  0  0  0  0  0  0  0
   -4.3440    6.3490    1.4720 C   0  0  0  0  0  0  0  0  0  0  0  0
   -5.5950    6.5170    1.1640 O   0  0  0  0  0  0  0  0  0  0  0  0
   -6.3630    5.6150    0.6220 C   0  0  0  0  0  0  0  0  0  0  0  0
   -7.5850    5.8460    0.3450 O   0  0  0  0  0  0  0  0  0  0  0  0
   -5.8470    4.3830    0.3400 C   0  0  0  0  0  0  0  0  0  0  0  0
   -4.5140    4.1330    0.6430 C   0  0  0  0  0  0  0  0  0  0  0  0
   -3.9700    2.8740    0.3610 C   0  0  0  0  0  0  0  0  0  0  0  0
   -0.8800   -1.4630   -0.5810 C   0  0  0  0  0  0  0  0  0  0  0  0
   -2.3970   -1.6190   -0.6780 C   0  0  0  0  0  0  0  0  0  0  0  0
   -3.0270   -2.1640    0.5500 C   0  0  0  0  0  0  0  0  0  0  0  0
   -2.6190   -3.4910    1.0020 C   0  0  0  0  0  0  0  0  0  0  0  0
   -3.2380   -4.6570    0.5890 C   0  0  0  0  0  0  0  0  0  0  0  0
   -2.6010   -5.6820    1.2410 C   0  0  0  0  0  0  0  0  0  0  0  0
   -1.6340   -5.1900    2.0230 N   0  0  0  0  0  0  0  0  0  0  0  0
   -1.6280   -3.8620    1.8930 C   0  0  0  0  0  0  0  0  0  0  0  0
  1  2  1  0
  2  3  1  0
  2 33  2  0
  3  4  1  0
  4  5  1  0
  4 18  2  0
  5  6  1  0
  6  7  2  0
  6  8  1  0
  8  9  1  0
  9 10  1  0
 10 11  2  0
 10 16  1  0
 11 12  1  0
 12 13  2  0
 13 14  1  0
 13 15  1  0
 15 16  2  0
 16 17  1  0
 18 19  1  0
 18 33  1  0
 19 20  2  0
 19 21  1  0
 21 22  1  0
 22 23  1  0
 22 32  2  0
 23 24  2  0
 24 25  1  0
 25 26  2  0
 25 31  1  0
 26 27  1  0
 27 28  1  0
 28 29  2  0
 28 30  1  0
 30 31  2  0
 31 32  1  0
 33 34  1  0
 34 35  1  0
 35 36  1  0
 36 37  1  0
 36 40  2  0
 37 38  2  0
 38 39  1  0
 39 40  1  0
M  END
