
     RDKit          3D

 40 44  0  0  0  0  0  0  0  0999 V2000
   -3.7440   -6.0680    0.9300 C   0  0  0  0  0  0  0  0  0  0  0  0
   -3.6400   -4.7610    0.2170 C   0  0  0  0  0  0  0  0  0  0  0  0
   -4.4800   -4.3310   -0.7760 C   0  0  0  0  0  0  0  0  0  0  0  0
   -4.0070   -3.0880   -1.1300 C   0  0  0  0  0  0  0  0  0  0  0  0
   -2.9130   -2.7850   -0.3670 C   0  0  0  0  0  0  0  0  0  0  0  0
   -1.9840   -1.6890   -0.2640 C   0  0  0  0  0  0  0  0  0  0  0  0
   -0.6550   -2.0780   -0.3760 N   0  0  0  0  0  0  0  0  0  0  0  0
    0.3210   -1.1980   -0.6470 C   0  0  0  0  0  0  0  0  0  0  0  0
    1.9690   -1.8400   -0.8060 S   0  0  0  0  0  0  0  0  0  0  0  0
    2.9210   -1.8180    0.7350 C   0  0  0  0  0  0  0  0  0  0  0  0
    4.2440   -1.2200    0.3630 C   0  0  0  0  0  0  0  0  0  0  0  0
    5.0050   -1.9170   -0.4030 O   0  0  0  0  0  0  0  0  0  0  0  0
    4.7060    0.0340    0.7860 N   0  0  0  0  0  0  0  0  0  0  0  0
    5.9890    0.5390    0.3950 C   0  0  0  0  0  0  0  0  0  0  0  0
    6.2180    1.9020    0.4140 C   0  0  0  0  0  0  0  0  0  0  0  0
    7.4450    2.4200    0.0270 C   0  0  0  0  0  0  0  0  0  0  0  0
    8.4570    1.5820   -0.3840 C   0  0  0  0  0  0  0  0  0  0  0  0
    9.6640    2.1630   -0.7620 O   0  0  0  0  0  0  0  0  0  0  0  0
    8.2690    0.2390   -0.4140 C   0  0  0  0  0  0  0  0  0  0  0  0
    9.3400   -0.6790   -0.8810 C   0  0  0  0  0  0  0  0  0  0  0  0
    7.0310   -0.2530   -0.0190 C   0  0  0  0  0  0  0  0  0  0  0  0
    0.0230    0.0930   -0.8130 N   0  0  0  0  0  0  0  0  0  0  0  0
   -1.2330    0.5680   -0.7150 C   0  0  0  0  0  0  0  0  0  0  0  0
   -1.5110    1.9070   -0.8430 C   0  0  0  0  0  0  0  0  0  0  0  0
   -0.1600    2.9580   -1.2390 Cl  0  0  0  0  0  0  0  0  0  0  0  0
   -2.7900    2.4170   -0.6860 C   0  0  0  0  0  0  0  0  0  0  0  0
   -3.0710    3.8280   -0.8060 C   0  0  0  0  0  0  0  0  0  0  0  0
   -3.3450    4.2370   -1.9900 O   0  0  0  0  0  0  0  0  0  0  0  0
   -3.0790    4.8330    0.2520 C   0  0  0  0  0  0  0  0  0  0  0  0
   -3.0150    4.3350    1.6530 C   0  0  0  0  0  0  0  0  0  0  0  0
   -1.5660    3.3780    2.0200 Cl  0  0  0  0  0  0  0  0  0  0  0  0
   -3.7400    1.4840   -0.3930 C   0  0  0  0  0  0  0  0  0  0  0  0
   -3.4950    0.1100   -0.2560 C   0  0  0  0  0  0  0  0  0  0  0  0
   -2.2500   -0.3750   -0.4250 C   0  0  0  0  0  0  0  0  0  0  0  0
   -4.5750   -0.7020    0.3120 C   0  0  0  0  0  0  0  0  0  0  0  0
   -4.3020   -1.4710    1.2420 O   0  0  0  0  0  0  0  0  0  0  0  0
   -5.9190   -0.5450   -0.2490 C   0  0  0  0  0  0  0  0  0  0  0  0
   -6.0960    0.8750   -0.7800 C   0  0  0  0  0  0  0  0  0  0  0  0
   -5.1560    1.8720   -0.1770 C   0  0  0  0  0  0  0  0  0  0  0  0
   -2.7550   -3.8600    0.4310 O   0  0  0  0  0  0  0  0  0  0  0  0
  1  2  1  0
  2  3  2  0
  2 40  1  0
  3  4  1  0
  4  5  2  0
  5  6  1  0
  5 40  1  0
  6  7  2  0
  6 34  1  0
  7  8  1  0
  8  9  1  0
  8 22  2  0
  9 10  1  0
 10 11  1  0
 11 12  2  0
 11 13  1  0
 13 14  1  0
 14 15  2  0
 14 21  1  0
 15 16  1  0
 16 17  2  0
 17 18  1  0
 17 19  1  0
 19 20  1  0
 19 21  2  0
 22 23  1  0
 23 24  2  0
 23 34  1  0
 24 25  1  0
 24 26  1  0
 26 27  1  0
 26 32  2  0
 27 28  2  0
 27 29  1  0
 29 30  1  0
 30 31  1  0
 32 33  1  0
 32 39  1  0
 33 34  2  0
 33 35  1  0
 35 36  2  0
 35 37  1  0
 37 38  1  0
 38 39  1  0
M  END
