
     RDKit          3D

 40 44  0  0  0  0  0  0  0  0999 V2000
   -8.3950    3.3710    1.2800 C   0  0  0  0  0  0  0  0  0  0  0  0
   -8.3570    1.8890    0.9000 C   0  0  0  0  0  0  0  0  0  0  0  0
   -6.9490    1.4650    0.6090 C   0  0  0  0  0  0  0  0  0  0  0  0
   -6.8230    0.0480    0.2370 C   0  0  0  0  0  0  0  0  0  0  0  0
   -7.7860   -0.8520    0.1410 C   0  0  0  0  0  0  0  0  0  0  0  0
   -9.1930   -0.6930    0.3690 N   0  0  0  0  0  0  0  0  0  0  0  0
   -7.1890   -2.1370   -0.2610 C   0  0  0  0  0  0  0  0  0  0  0  0
   -7.8030   -3.2220   -0.4510 O   0  0  0  0  0  0  0  0  0  0  0  0
   -5.7610   -1.9110   -0.3970 C   0  0  0  0  0  0  0  0  0  0  0  0
   -4.7030   -2.7370   -0.7470 C   0  0  0  0  0  0  0  0  0  0  0  0
   -3.4170   -2.2740   -0.8050 C   0  0  0  0  0  0  0  0  0  0  0  0
   -2.3280   -3.0370   -1.1430 O   0  0  0  0  0  0  0  0  0  0  0  0
   -2.3980   -4.4070   -1.4780 C   0  0  0  0  0  0  0  0  0  0  0  0
   -3.1750   -0.9290   -0.5000 C   0  0  0  0  0  0  0  0  0  0  0  0
   -1.8440   -0.4360   -0.5560 N   0  0  0  0  0  0  0  0  0  0  0  0
   -1.4540    0.7720   -1.1930 C   0  0  0  0  0  0  0  0  0  0  0  0
   -2.2230    1.5830   -1.7940 O   0  0  0  0  0  0  0  0  0  0  0  0
   -0.0100    0.9160   -1.0330 C   0  0  0  0  0  0  0  0  0  0  0  0
    0.8350    1.8900   -1.4570 C   0  0  0  0  0  0  0  0  0  0  0  0
    2.1720    1.8130   -1.1880 C   0  0  0  0  0  0  0  0  0  0  0  0
    2.7030    0.7720   -0.4940 C   0  0  0  0  0  0  0  0  0  0  0  0
    4.0960    0.6200   -0.1980 N   0  0  0  0  0  0  0  0  0  0  0  0
    5.1690    1.3100   -0.7450 C   0  0  0  0  0  0  0  0  0  0  0  0
    4.9040    2.1840   -1.6210 O   0  0  0  0  0  0  0  0  0  0  0  0
    6.5740    1.1250   -0.4070 C   0  0  0  0  0  0  0  0  0  0  0  0
    7.8890    2.1130   -1.2260 S   0  0  0  0  0  0  0  0  0  0  0  0
    9.2310    1.4050   -0.3800 C   0  0  0  0  0  0  0  0  0  0  0  0
   10.6570    1.7580   -0.5660 C   0  0  0  0  0  0  0  0  0  0  0  0
    8.6430    0.4940    0.4470 C   0  0  0  0  0  0  0  0  0  0  0  0
    9.5420   -0.3360    1.3570 C   0  0  0  0  0  0  0  0  0  0  0  0
   10.2220   -1.4280    0.5860 C   0  0  0  0  0  0  0  0  0  0  0  0
   11.2530   -2.3550    1.7040 Cl  0  0  0  0  0  0  0  0  0  0  0  0
    7.3010    0.3550    0.4300 C   0  0  0  0  0  0  0  0  0  0  0  0
    6.4260   -0.8270    1.4840 Cl  0  0  0  0  0  0  0  0  0  0  0  0
    1.8260   -0.2370   -0.0540 C   0  0  0  0  0  0  0  0  0  0  0  0
    0.4870   -0.1640   -0.3200 C   0  0  0  0  0  0  0  0  0  0  0  0
   -0.6650   -1.0170   -0.0180 C   0  0  0  0  0  0  0  0  0  0  0  0
   -0.5950   -2.0840    0.6150 O   0  0  0  0  0  0  0  0  0  0  0  0
   -4.2320   -0.1270   -0.1560 C   0  0  0  0  0  0  0  0  0  0  0  0
   -5.5450   -0.5880   -0.0940 C   0  0  0  0  0  0  0  0  0  0  0  0
  1  2  1  0
  2  3  1  0
  3  4  1  0
  4  5  2  0
  4 40  1  0
  5  6  1  0
  5  7  1  0
  7  8  2  0
  7  9  1  0
  9 10  2  0
  9 40  1  0
 10 11  1  0
 11 12  1  0
 11 14  2  0
 12 13  1  0
 14 15  1  0
 14 39  1  0
 15 16  1  0
 15 37  1  0
 16 17  2  0
 16 18  1  0
 18 19  2  0
 18 36  1  0
 19 20  1  0
 20 21  2  0
 21 22  1  0
 21 35  1  0
 22 23  1  0
 23 24  2  0
 23 25  1  0
 25 26  1  0
 25 33  2  0
 26 27  1  0
 27 28  1  0
 27 29  2  0
 29 30  1  0
 29 33  1  0
 30 31  1  0
 31 32  1  0
 33 34  1  0
 35 36  2  0
 36 37  1  0
 37 38  2  0
 39 40  2  0
M  END
