
     RDKit          3D

 40 44  0  0  0  0  0  0  0  0999 V2000
  -10.5070   -1.6350    1.4880 C   0  0  0  0  0  0  0  0  0  0  0  0
   -9.2550   -1.0810    0.9090 C   0  0  0  0  0  0  0  0  0  0  0  0
   -7.9980   -1.3190    1.3410 N   0  0  0  0  0  0  0  0  0  0  0  0
   -7.1130   -0.6530    0.5820 C   0  0  0  0  0  0  0  0  0  0  0  0
   -5.6530   -0.6340    0.7070 C   0  0  0  0  0  0  0  0  0  0  0  0
   -4.8910    0.0960   -0.1470 C   0  0  0  0  0  0  0  0  0  0  0  0
   -3.4870    0.1170   -0.0290 C   0  0  0  0  0  0  0  0  0  0  0  0
   -2.8140   -0.5760    0.9250 C   0  0  0  0  0  0  0  0  0  0  0  0
   -1.4430   -0.6000    1.0960 N   0  0  0  0  0  0  0  0  0  0  0  0
   -0.4350    0.0780    0.3350 C   0  0  0  0  0  0  0  0  0  0  0  0
   -0.8920    0.7770   -0.6050 O   0  0  0  0  0  0  0  0  0  0  0  0
    0.9760   -0.0640    0.6410 C   0  0  0  0  0  0  0  0  0  0  0  0
    2.0270    0.4700    0.1540 C   0  0  0  0  0  0  0  0  0  0  0  0
    3.3510    0.0080    0.7720 C   0  0  0  0  0  0  0  0  0  0  0  0
    4.1790   -0.5800   -0.1610 O   0  0  0  0  0  0  0  0  0  0  0  0
    5.4150   -1.0570    0.2110 C   0  0  0  0  0  0  0  0  0  0  0  0
    5.8830   -0.9760    1.5060 C   0  0  0  0  0  0  0  0  0  0  0  0
    7.1410   -1.4700    1.8490 C   0  0  0  0  0  0  0  0  0  0  0  0
    7.9280   -2.0530    0.8530 C   0  0  0  0  0  0  0  0  0  0  0  0
    9.2450   -2.5750    1.1910 C   0  0  0  0  0  0  0  0  0  0  0  0
   10.3650   -2.0780    0.4830 N   0  0  0  0  0  0  0  0  0  0  0  0
    9.3690   -3.7090    2.3720 S   0  0  0  0  0  0  0  0  0  0  0  0
    7.4700   -2.1350   -0.4250 C   0  0  0  0  0  0  0  0  0  0  0  0
    8.4920   -2.8750   -1.6400 Cl  0  0  0  0  0  0  0  0  0  0  0  0
    6.2110   -1.6380   -0.7560 C   0  0  0  0  0  0  0  0  0  0  0  0
    2.0770    1.6040   -0.7430 C   0  0  0  0  0  0  0  0  0  0  0  0
    1.1260    2.5800   -0.7240 C   0  0  0  0  0  0  0  0  0  0  0  0
    1.1410    3.5950   -1.6640 C   0  0  0  0  0  0  0  0  0  0  0  0
    2.1210    3.6200   -2.6170 C   0  0  0  0  0  0  0  0  0  0  0  0
    3.0900    2.6580   -2.6600 C   0  0  0  0  0  0  0  0  0  0  0  0
    3.0850    1.6230   -1.7160 C   0  0  0  0  0  0  0  0  0  0  0  0
    3.9660    2.9040   -3.7140 O   0  0  0  0  0  0  0  0  0  0  0  0
    3.7000    4.2440   -4.1090 C   0  0  0  0  0  0  0  0  0  0  0  0
    2.3870    4.4960   -3.6680 O   0  0  0  0  0  0  0  0  0  0  0  0
   -3.6220   -1.3230    1.7960 C   0  0  0  0  0  0  0  0  0  0  0  0
   -2.8060   -2.2460    3.0590 Cl  0  0  0  0  0  0  0  0  0  0  0  0
   -4.9950   -1.3450    1.6830 C   0  0  0  0  0  0  0  0  0  0  0  0
   -7.8180   -0.0080   -0.3140 O   0  0  0  0  0  0  0  0  0  0  0  0
   -9.0960   -0.2240   -0.1690 C   0  0  0  0  0  0  0  0  0  0  0  0
  -10.2160    0.3320   -0.9940 C   0  0  0  0  0  0  0  0  0  0  0  0
  1  2  1  0
  2  3  1  0
  2 39  2  0
  3  4  2  0
  4  5  1  0
  4 38  1  0
  5  6  2  0
  5 37  1  0
  6  7  1  0
  7  8  2  0
  8  9  1  0
  8 35  1  0
  9 10  1  0
 10 11  2  0
 10 12  1  0
 12 13  2  3
 13 14  1  0
 13 26  1  0
 14 15  1  0
 15 16  1  0
 16 17  2  0
 16 25  1  0
 17 18  1  0
 18 19  2  0
 19 20  1  0
 19 23  1  0
 20 21  1  0
 20 22  2  0
 23 24  1  0
 23 25  2  0
 26 27  2  0
 26 31  1  0
 27 28  1  0
 28 29  2  0
 29 30  1  0
 29 34  1  0
 30 31  2  0
 30 32  1  0
 32 33  1  0
 33 34  1  0
 35 36  1  0
 35 37  2  0
 38 39  1  0
 39 40  1  0
M  END
