
     RDKit          3D

 40 44  0  0  0  0  0  0  0  0999 V2000
   -4.0940    6.1320   -0.2300 C   0  0  0  0  0  0  0  0  0  0  0  0
   -3.3950    4.8110    0.0050 C   0  0  0  0  0  0  0  0  0  0  0  0
   -3.3410    4.1540    1.2040 C   0  0  0  0  0  0  0  0  0  0  0  0
   -2.6200    3.0160    0.9650 C   0  0  0  0  0  0  0  0  0  0  0  0
   -2.2680    3.0250   -0.3580 C   0  0  0  0  0  0  0  0  0  0  0  0
   -1.4940    2.1090   -1.1760 C   0  0  0  0  0  0  0  0  0  0  0  0
   -0.4860    2.7590   -1.8550 N   0  0  0  0  0  0  0  0  0  0  0  0
    0.5420    2.0680   -2.3650 C   0  0  0  0  0  0  0  0  0  0  0  0
    1.8390    2.9540   -3.2380 S   0  0  0  0  0  0  0  0  0  0  0  0
    3.0770    3.3990   -1.9600 C   0  0  0  0  0  0  0  0  0  0  0  0
    3.7030    2.1270   -1.4890 C   0  0  0  0  0  0  0  0  0  0  0  0
    4.7720    1.8040   -2.0080 O   0  0  0  0  0  0  0  0  0  0  0  0
    3.0570    1.3780   -0.4990 N   0  0  0  0  0  0  0  0  0  0  0  0
    3.5570    0.1720    0.0240 C   0  0  0  0  0  0  0  0  0  0  0  0
    2.6680   -0.6900    0.6630 C   0  0  0  0  0  0  0  0  0  0  0  0
    3.0690   -1.8770    1.2210 C   0  0  0  0  0  0  0  0  0  0  0  0
    4.4110   -2.2170    1.1390 C   0  0  0  0  0  0  0  0  0  0  0  0
    4.8100   -3.4210    1.7070 O   0  0  0  0  0  0  0  0  0  0  0  0
    5.3240   -1.4100    0.5250 C   0  0  0  0  0  0  0  0  0  0  0  0
    6.7640   -1.7560    0.4290 C   0  0  0  0  0  0  0  0  0  0  0  0
    4.8670   -0.2030   -0.0330 C   0  0  0  0  0  0  0  0  0  0  0  0
    0.6410    0.7390   -2.2460 N   0  0  0  0  0  0  0  0  0  0  0  0
   -0.3050    0.0620   -1.6080 C   0  0  0  0  0  0  0  0  0  0  0  0
   -0.2710   -1.3110   -1.4780 C   0  0  0  0  0  0  0  0  0  0  0  0
    1.1100   -2.1720   -2.1470 Cl  0  0  0  0  0  0  0  0  0  0  0  0
   -1.2550   -2.0300   -0.8560 C   0  0  0  0  0  0  0  0  0  0  0  0
   -1.1460   -3.4590   -0.7420 C   0  0  0  0  0  0  0  0  0  0  0  0
   -1.6240   -4.2090   -1.6610 O   0  0  0  0  0  0  0  0  0  0  0  0
   -0.4890   -4.1340    0.4170 C   0  0  0  0  0  0  0  0  0  0  0  0
   -0.5380   -5.6220    0.2800 C   0  0  0  0  0  0  0  0  0  0  0  0
    0.2840   -6.1850   -1.1900 Cl  0  0  0  0  0  0  0  0  0  0  0  0
   -2.3290   -1.3520   -0.3440 C   0  0  0  0  0  0  0  0  0  0  0  0
   -2.4060    0.0540   -0.4550 C   0  0  0  0  0  0  0  0  0  0  0  0
   -1.4230    0.7760   -1.0560 C   0  0  0  0  0  0  0  0  0  0  0  0
   -3.7230    0.6610   -0.1650 C   0  0  0  0  0  0  0  0  0  0  0  0
   -4.1750    1.5070   -0.9660 O   0  0  0  0  0  0  0  0  0  0  0  0
   -4.4400    0.2240    1.0480 C   0  0  0  0  0  0  0  0  0  0  0  0
   -3.9800   -1.1480    1.4980 C   0  0  0  0  0  0  0  0  0  0  0  0
   -3.4690   -1.9950    0.3540 C   0  0  0  0  0  0  0  0  0  0  0  0
   -2.7610    4.1220   -0.8700 O   0  0  0  0  0  0  0  0  0  0  0  0
  1  2  1  0
  2  3  2  0
  2 40  1  0
  3  4  1  0
  4  5  2  0
  5  6  1  0
  5 40  1  0
  6  7  2  0
  6 34  1  0
  7  8  1  0
  8  9  1  0
  8 22  2  0
  9 10  1  0
 10 11  1  0
 11 12  2  0
 11 13  1  0
 13 14  1  0
 14 15  2  0
 14 21  1  0
 15 16  1  0
 16 17  2  0
 17 18  1  0
 17 19  1  0
 19 20  1  0
 19 21  2  0
 22 23  1  0
 23 24  2  0
 23 34  1  0
 24 25  1  0
 24 26  1  0
 26 27  1  0
 26 32  2  0
 27 28  2  0
 27 29  1  0
 29 30  1  0
 30 31  1  0
 32 33  1  0
 32 39  1  0
 33 34  2  0
 33 35  1  0
 35 36  2  0
 35 37  1  0
 37 38  1  0
 38 39  1  0
M  END
