
     RDKit          3D

 40 44  0  0  0  0  0  0  0  0999 V2000
   -6.1610    1.5720    1.9040 C   0  0  0  0  0  0  0  0  0  0  0  0
   -6.5430    0.2080    1.4770 C   0  0  0  0  0  0  0  0  0  0  0  0
   -7.6350   -0.4740    2.0230 C   0  0  0  0  0  0  0  0  0  0  0  0
   -7.9720   -1.7390    1.6160 C   0  0  0  0  0  0  0  0  0  0  0  0
   -7.2140   -2.3500    0.6440 C   0  0  0  0  0  0  0  0  0  0  0  0
   -7.6420   -3.9590    0.1250 Cl  0  0  0  0  0  0  0  0  0  0  0  0
   -6.1230   -1.6760    0.0920 C   0  0  0  0  0  0  0  0  0  0  0  0
   -5.1870   -2.4980   -1.1460 Cl  0  0  0  0  0  0  0  0  0  0  0  0
   -5.7940   -0.4120    0.5070 C   0  0  0  0  0  0  0  0  0  0  0  0
   -4.6740    0.2230   -0.0900 N   0  0  0  0  0  0  0  0  0  0  0  0
   -3.4280    0.0480    0.5460 C   0  0  0  0  0  0  0  0  0  0  0  0
   -3.3360   -0.6430    1.6040 O   0  0  0  0  0  0  0  0  0  0  0  0
   -2.2370    0.6420    0.0190 N   0  0  0  0  0  0  0  0  0  0  0  0
   -1.0020    0.4220    0.7250 C   0  0  0  0  0  0  0  0  0  0  0  0
    0.2110    1.0640    0.1000 C   0  0  0  0  0  0  0  0  0  0  0  0
    0.3830    0.5080   -1.2400 C   0  0  0  0  0  0  0  0  0  0  0  0
    0.8570   -0.7810   -1.3580 C   0  0  0  0  0  0  0  0  0  0  0  0
    1.2100   -1.5340   -0.2610 O   0  0  0  0  0  0  0  0  0  0  0  0
    2.3210   -1.2390    0.5010 C   0  0  0  0  0  0  0  0  0  0  0  0
    2.4420   -1.6530    1.8280 C   0  0  0  0  0  0  0  0  0  0  0  0
    3.5480   -1.3650    2.5900 C   0  0  0  0  0  0  0  0  0  0  0  0
    4.6100   -0.6480    2.0870 C   0  0  0  0  0  0  0  0  0  0  0  0
    5.7850   -0.3340    2.9070 C   0  0  0  0  0  0  0  0  0  0  0  0
    5.6340   -0.2260    4.1610 O   0  0  0  0  0  0  0  0  0  0  0  0
    7.0360   -0.1630    2.3000 C   0  0  0  0  0  0  0  0  0  0  0  0
    7.6360   -0.6280    1.1720 C   0  0  0  0  0  0  0  0  0  0  0  0
    8.8670   -0.2910    0.8290 C   0  0  0  0  0  0  0  0  0  0  0  0
    9.6110    0.5670    1.6200 C   0  0  0  0  0  0  0  0  0  0  0  0
    8.3920    0.8970    2.9710 S   0  0  0  0  0  0  0  0  0  0  0  0
    4.5090   -0.2300    0.7790 C   0  0  0  0  0  0  0  0  0  0  0  0
    3.4050   -0.5110    0.0030 C   0  0  0  0  0  0  0  0  0  0  0  0
    0.9800   -1.3530   -2.6370 C   0  0  0  0  0  0  0  0  0  0  0  0
    0.6470   -0.6700   -3.7760 C   0  0  0  0  0  0  0  0  0  0  0  0
    0.1730    0.6260   -3.6710 C   0  0  0  0  0  0  0  0  0  0  0  0
    0.0450    1.2000   -2.4180 C   0  0  0  0  0  0  0  0  0  0  0  0
   -0.4330    2.5350   -2.3190 N   0  0  0  0  0  0  0  0  0  0  0  0
   -0.7760    3.2700   -3.4950 C   0  0  0  0  0  0  0  0  0  0  0  0
   -1.5270    4.2430   -3.4090 O   0  0  0  0  0  0  0  0  0  0  0  0
   -0.1870    2.7960   -4.7620 C   0  0  0  0  0  0  0  0  0  0  0  0
   -0.1800    1.3710   -4.7800 O   0  0  0  0  0  0  0  0  0  0  0  0
  1  2  1  0
  2  3  2  0
  2  9  1  0
  3  4  1  0
  4  5  2  0
  5  6  1  0
  5  7  1  0
  7  8  1  0
  7  9  2  0
  9 10  1  0
 10 11  1  0
 11 12  2  0
 11 13  1  0
 13 14  1  0
 14 15  1  0
 15 16  1  0
 16 17  1  0
 16 35  2  0
 17 18  1  0
 17 32  2  0
 18 19  1  0
 19 20  2  0
 19 31  1  0
 20 21  1  0
 21 22  2  0
 22 23  1  0
 22 30  1  0
 23 24  2  0
 23 25  1  0
 25 26  2  0
 25 29  1  0
 26 27  1  0
 27 28  2  0
 28 29  1  0
 30 31  2  0
 32 33  1  0
 33 34  2  0
 34 35  1  0
 34 40  1  0
 35 36  1  0
 36 37  1  0
 37 38  2  0
 37 39  1  0
 39 40  1  0
M  END
