
     RDKit          3D

 40 44  0  0  0  0  0  0  0  0999 V2000
    0.0040    5.0730    2.0980 C   0  0  0  0  0  0  0  0  0  0  0  0
    0.4450    3.6870    1.8520 C   0  0  0  0  0  0  0  0  0  0  0  0
    2.0990    3.1780    1.9940 S   0  0  0  0  0  0  0  0  0  0  0  0
    1.7490    1.3430    1.5220 C   0  0  0  0  0  0  0  0  0  0  0  0
    2.9220    0.5800    1.4870 N   0  0  0  0  0  0  0  0  0  0  0  0
    3.3220   -0.5210    0.7180 C   0  0  0  0  0  0  0  0  0  0  0  0
    2.6180   -1.0310   -0.1280 O   0  0  0  0  0  0  0  0  0  0  0  0
    4.7470   -1.1090    0.9310 C   0  0  0  0  0  0  0  0  0  0  0  0
    5.1770   -1.7290   -0.1070 O   0  0  0  0  0  0  0  0  0  0  0  0
    5.6070   -2.3760   -1.1680 C   0  0  0  0  0  0  0  0  0  0  0  0
    5.2390   -3.5880   -1.7170 C   0  0  0  0  0  0  0  0  0  0  0  0
    5.8680   -4.0560   -2.8560 C   0  0  0  0  0  0  0  0  0  0  0  0
    6.8600   -3.3420   -3.4760 C   0  0  0  0  0  0  0  0  0  0  0  0
    7.6410   -3.9550   -4.9140 Cl  0  0  0  0  0  0  0  0  0  0  0  0
    7.2650   -2.1320   -2.9770 C   0  0  0  0  0  0  0  0  0  0  0  0
    6.6590   -1.6620   -1.8570 C   0  0  0  0  0  0  0  0  0  0  0  0
    7.1510   -0.1050   -1.2050 Cl  0  0  0  0  0  0  0  0  0  0  0  0
    0.4370    1.3980    1.3470 C   0  0  0  0  0  0  0  0  0  0  0  0
   -0.2960    0.0780    1.1790 C   0  0  0  0  0  0  0  0  0  0  0  0
    0.2500   -0.9680    0.8430 O   0  0  0  0  0  0  0  0  0  0  0  0
   -1.6870   -0.0570    1.4320 N   0  0  0  0  0  0  0  0  0  0  0  0
   -2.3810   -1.3200    1.2300 C   0  0  0  0  0  0  0  0  0  0  0  0
   -3.3030   -1.6240    2.2030 C   0  0  0  0  0  0  0  0  0  0  0  0
   -4.1050   -2.7470    2.0950 C   0  0  0  0  0  0  0  0  0  0  0  0
   -3.9280   -3.5240    0.9760 C   0  0  0  0  0  0  0  0  0  0  0  0
   -4.7340   -4.6450    0.8260 C   0  0  0  0  0  0  0  0  0  0  0  0
   -4.6020   -5.3950   -0.2450 O   0  0  0  0  0  0  0  0  0  0  0  0
   -3.7230   -5.1290   -1.2020 C   0  0  0  0  0  0  0  0  0  0  0  0
   -3.6660   -5.9130   -2.2050 O   0  0  0  0  0  0  0  0  0  0  0  0
   -2.9020   -4.0430   -1.1070 C   0  0  0  0  0  0  0  0  0  0  0  0
   -3.0090   -3.2240    0.0060 C   0  0  0  0  0  0  0  0  0  0  0  0
   -2.1920   -2.0910    0.1090 C   0  0  0  0  0  0  0  0  0  0  0  0
   -0.2580    2.5440    1.4820 C   0  0  0  0  0  0  0  0  0  0  0  0
   -1.6960    2.8620    1.0240 C   0  0  0  0  0  0  0  0  0  0  0  0
   -1.5230    3.6790   -0.3050 C   0  0  0  0  0  0  0  0  0  0  0  0
   -2.8770    3.9890   -0.8120 C   0  0  0  0  0  0  0  0  0  0  0  0
   -3.6720    5.0670   -0.5640 C   0  0  0  0  0  0  0  0  0  0  0  0
   -4.8460    4.9260   -1.2430 C   0  0  0  0  0  0  0  0  0  0  0  0
   -4.8070    3.7510   -1.9320 N   0  0  0  0  0  0  0  0  0  0  0  0
   -3.6290    3.1670   -1.6860 C   0  0  0  0  0  0  0  0  0  0  0  0
  1  2  1  0
  2  3  1  0
  2 33  2  0
  3  4  1  0
  4  5  1  0
  4 18  2  0
  5  6  1  0
  6  7  2  0
  6  8  1  0
  8  9  1  0
  9 10  1  0
 10 11  2  0
 10 16  1  0
 11 12  1  0
 12 13  2  0
 13 14  1  0
 13 15  1  0
 15 16  2  0
 16 17  1  0
 18 19  1  0
 18 33  1  0
 19 20  2  0
 19 21  1  0
 21 22  1  0
 22 23  1  0
 22 32  2  0
 23 24  2  0
 24 25  1  0
 25 26  2  0
 25 31  1  0
 26 27  1  0
 27 28  1  0
 28 29  2  0
 28 30  1  0
 30 31  2  0
 31 32  1  0
 33 34  1  0
 34 35  1  0
 35 36  1  0
 36 37  1  0
 36 40  2  0
 37 38  2  0
 38 39  1  0
 39 40  1  0
M  END
