
     RDKit          3D

  9  9  0  0  0  0  0  0  0  0999 V2000
   -0.8720   -1.9360   -0.2580 C   0  0  0  0  0  0  0  0  0  0  0  0
   -0.0220   -0.9360   -0.0970 C   0  0  0  0  0  0  0  0  0  0  0  0
    1.3710   -1.1530   -0.0150 N   0  0  0  0  0  0  0  0  0  0  0  0
    2.2660   -0.0700    0.1570 C   0  0  0  0  0  0  0  0  0  0  0  0
    1.7710    1.1530    0.2400 C   0  0  0  0  0  0  0  0  0  0  0  0
    0.3410    1.4020    0.1580 C   0  0  0  0  0  0  0  0  0  0  0  0
   -0.2370    3.0720    0.2790 Cl  0  0  0  0  0  0  0  0  0  0  0  0
   -0.5540    0.4210   -0.0040 C   0  0  0  0  0  0  0  0  0  0  0  0
   -2.0030    0.7170   -0.0820 C   0  0  0  0  0  0  0  0  0  0  0  0
  1  2  2  0
  2  3  1  0
  2  8  1  0
  3  4  1  0
  4  5  2  0
  5  6  1  0
  6  7  1  0
  6  8  2  0
  8  9  1  0
M  END
