
     RDKit          3D

  9  9  0  0  0  0  0  0  0  0999 V2000
   -2.4100   -0.2400    0.4280 N   0  0  0  0  0  0  0  0  0  0  0  0
   -1.5780   -0.5280   -0.7250 C   0  0  0  0  0  0  0  0  0  0  0  0
   -0.1940   -0.1290   -0.3710 C   0  0  0  0  0  0  0  0  0  0  0  0
    0.3080    1.1240   -0.5980 C   0  0  0  0  0  0  0  0  0  0  0  0
    1.5910    1.4620   -0.2600 C   0  0  0  0  0  0  0  0  0  0  0  0
    2.4420    0.5490    0.3290 C   0  0  0  0  0  0  0  0  0  0  0  0
    4.0890    0.9480    0.7740 Cl  0  0  0  0  0  0  0  0  0  0  0  0
    1.9290   -0.7160    0.5560 C   0  0  0  0  0  0  0  0  0  0  0  0
    0.6330   -1.0640    0.2170 C   0  0  0  0  0  0  0  0  0  0  0  0
  1  2  1  0
  2  3  1  0
  3  4  2  0
  3  9  1  0
  4  5  1  0
  5  6  2  0
  6  7  1  0
  6  8  1  0
  8  9  2  0
M  CHG  1   1   1
M  END
