
     RDKit          3D

  9  9  0  0  0  0  0  0  0  0999 V2000
    1.2120   -1.9600    0.2890 N   0  0  0  0  0  0  0  0  0  0  0  0
    0.3410   -1.0120    0.1400 C   0  0  0  0  0  0  0  0  0  0  0  0
   -1.0930   -1.2440    0.1210 C   0  0  0  0  0  0  0  0  0  0  0  0
   -1.9220   -0.2200   -0.0360 C   0  0  0  0  0  0  0  0  0  0  0  0
   -1.4300    1.1420   -0.1920 C   0  0  0  0  0  0  0  0  0  0  0  0
   -0.1420    1.4180   -0.1840 C   0  0  0  0  0  0  0  0  0  0  0  0
    0.8510    0.3450   -0.0150 C   0  0  0  0  0  0  0  0  0  0  0  0
    2.1210    0.6420   -0.0110 C   0  0  0  0  0  0  0  0  0  0  0  0
    2.6610    2.2840   -0.2010 Cl  0  0  0  0  0  0  0  0  0  0  0  0
  1  2  2  0
  2  3  1  0
  2  7  1  0
  3  4  2  0
  4  5  1  0
  5  6  2  0
  6  7  1  0
  7  8  2  3
  8  9  1  0
M  END
