
     RDKit          3D

  9  9  0  0  0  0  0  0  0  0999 V2000
    2.7450    0.1060   -0.6430 N   0  0  0  0  0  0  0  0  0  0  0  0
    1.3550    0.0610   -0.3310 C   0  0  0  0  0  0  0  0  0  0  0  0
    0.7650    1.1750    0.0710 C   0  0  0  0  0  0  0  0  0  0  0  0
   -0.5960    1.5110    0.4670 C   0  0  0  0  0  0  0  0  0  0  0  0
   -1.6510    0.5410    0.0720 C   0  0  0  0  0  0  0  0  0  0  0  0
   -1.5010   -0.8320    0.6330 C   0  0  0  0  0  0  0  0  0  0  0  0
   -0.5010   -1.6530   -0.1000 C   0  0  0  0  0  0  0  0  0  0  0  0
   -0.9360   -3.3110   -0.4840 Cl  0  0  0  0  0  0  0  0  0  0  0  0
    0.6930   -1.2300   -0.4860 C   0  0  0  0  0  0  0  0  0  0  0  0
  1  2  1  0
  2  3  2  0
  2  9  1  0
  3  4  1  0
  4  5  1  0
  5  6  1  0
  6  7  1  0
  7  8  1  0
  7  9  2  0
M  END
