
     RDKit          3D

  9  9  0  0  0  0  0  0  0  0999 V2000
    2.4490   -0.7820    0.3860 N   0  0  0  0  0  0  0  0  0  0  0  0
    1.1540   -0.1210    0.3500 C   0  0  0  0  0  0  0  0  0  0  0  0
    0.9520    0.9840    1.0240 C   0  0  0  0  0  0  0  0  0  0  0  0
   -0.3400    1.6430    0.9880 C   0  0  0  0  0  0  0  0  0  0  0  0
   -1.3210    1.1300    0.2720 C   0  0  0  0  0  0  0  0  0  0  0  0
   -1.1350   -0.0880   -0.4860 C   0  0  0  0  0  0  0  0  0  0  0  0
   -2.1620   -0.5960   -1.2160 C   0  0  0  0  0  0  0  0  0  0  0  0
   -1.9140   -2.0690   -2.1230 Cl  0  0  0  0  0  0  0  0  0  0  0  0
    0.1520   -0.7930   -0.4830 C   0  0  0  0  0  0  0  0  0  0  0  0
  1  2  1  0
  2  3  2  0
  2  9  1  0
  3  4  1  0
  4  5  2  0
  5  6  1  0
  6  7  2  3
  6  9  1  0
  7  8  1  0
M  END
