
     RDKit          3D

 13 13  0  0  0  0  0  0  0  0999 V2000
    1.2470   -2.0260    0.2820 C   0  0  0  0  0  0  0  0  0  0  0  0
    1.2660   -0.6200    0.6070 N   0  0  1  0  0  0  0  0  0  0  0  0
    2.0220    0.0480   -0.4310 C   0  0  0  0  0  0  0  0  0  0  0  0
    2.4270    1.4490   -0.0500 C   0  0  0  0  0  0  0  0  0  0  0  0
    3.2180    1.4430    1.0860 O   0  0  0  0  0  0  0  0  0  0  0  0
    0.0130   -0.0450    0.9100 C   0  0  0  0  0  0  0  0  0  0  0  0
   -1.1550   -0.5110    0.1160 C   0  0  2  0  0  0  0  0  0  0  0  0
   -1.4320   -1.8430    0.1990 O   0  0  0  0  0  0  0  0  0  0  0  0
   -1.1120    0.0220   -1.3080 C   0  0  0  0  0  0  0  0  0  0  0  0
   -2.4550    0.3260   -1.6190 O   0  0  0  0  0  0  0  0  0  0  0  0
   -2.7920    1.1170   -0.5140 C   0  0  0  0  0  0  0  0  0  0  0  0
   -2.3910    0.2380    0.6370 C   0  0  2  0  0  0  0  0  0  0  0  0
   -2.1070    0.9310    1.7940 O   0  0  0  0  0  0  0  0  0  0  0  0
  2  1  1  6
  2  3  1  0
  2  6  1  0
  3  4  1  0
  4  5  1  0
  6  7  1  0
  7  8  1  6
  7  9  1  0
  7 12  1  0
  9 10  1  0
 10 11  1  0
 11 12  1  0
 12 13  1  1
M  CHG  1   2   1
M  END
