
     RDKit          3D

 13 13  0  0  0  0  0  0  0  0999 V2000
   -2.9160    0.8870   -0.4380 N   0  0  0  0  0  0  0  0  0  0  0  0
   -1.8640   -0.0250   -0.7610 C   0  0  2  0  0  0  0  0  0  0  0  0
   -2.3310   -1.4760   -0.7380 C   0  0  0  0  0  0  0  0  0  0  0  0
   -1.2290   -2.3350   -0.7570 O   0  0  0  0  0  0  0  0  0  0  0  0
   -0.1030   -1.7240   -1.2800 C   0  0  0  0  0  0  0  0  0  0  0  0
    0.4520   -0.6190   -0.3780 C   0  0  2  0  0  0  0  0  0  0  0  0
    1.3840   -1.1240    0.4990 O   0  0  0  0  0  0  0  0  0  0  0  0
    2.6410   -0.6810    0.2710 C   0  0  0  0  0  0  0  0  0  0  0  0
    2.8750    0.8030    0.3740 C   0  0  0  0  0  0  0  0  0  0  0  0
    4.2590    0.9720    0.0920 O   0  0  0  0  0  0  0  0  0  0  0  0
   -0.7300    0.0270    0.2730 C   0  0  1  0  0  0  0  0  0  0  0  0
   -0.5190    1.4130    0.7780 C   0  0  0  0  0  0  0  0  0  0  0  0
   -0.1870    2.3010   -0.2320 O   0  0  0  0  0  0  0  0  0  0  0  0
  2  1  1  1
  2  3  1  0
  2 11  1  0
  3  4  1  0
  4  5  1  0
  5  6  1  0
  6  7  1  1
  6 11  1  0
  7  8  1  0
  8  9  1  0
  9 10  1  0
 11 12  1  6
 12 13  1  0
M  CHG  1   1   1
M  END
