
     RDKit          3D

 14 14  0  0  0  0  0  0  0  0999 V2000
   -0.6490   -1.3730   -1.2680 N   0  0  0  0  0  0  0  0  0  0  0  0
   -0.6700   -0.0830   -0.6710 C   0  0  1  0  0  0  0  0  0  0  0  0
   -1.0670   -0.0630    0.7830 C   0  0  2  0  0  0  0  0  0  0  0  0
   -2.2720   -0.8970    1.0290 C   0  0  2  0  0  0  0  0  0  0  0  0
   -2.0220   -2.2500    0.8060 O   0  0  0  0  0  0  0  0  0  0  0  0
   -3.4060   -0.4560    0.3670 O   0  0  0  0  0  0  0  0  0  0  0  0
   -1.4280    1.2830    1.0360 O   0  0  0  0  0  0  0  0  0  0  0  0
   -0.2440    1.9920    1.0960 C   0  0  0  0  0  0  0  0  0  0  0  0
    0.5540    2.0080   -0.1600 C   0  0  0  0  0  0  0  0  0  0  0  0
    0.5560    0.7240   -0.9480 C   0  0  2  0  0  0  0  0  0  0  0  0
    0.4260    1.1340   -2.3100 O   0  0  0  0  0  0  0  0  0  0  0  0
    1.8360   -0.0080   -0.9360 C   0  0  0  0  0  0  0  0  0  0  0  0
    2.2800   -0.7060    0.2720 C   0  0  0  0  0  0  0  0  0  0  0  0
    2.4560    0.1030    1.3930 O   0  0  0  0  0  0  0  0  0  0  0  0
  2  1  1  1
  2  3  1  0
  2 10  1  0
  3  4  1  0
  3  7  1  6
  4  5  1  6
  4  6  1  0
  7  8  1  0
  8  9  1  0
  9 10  1  0
 10 11  1  6
 10 12  1  0
 12 13  1  0
 13 14  1  0
M  CHG  1   1   1
M  END
