
     RDKit          3D

 14 14  0  0  0  0  0  0  0  0999 V2000
    0.4920   -1.4960   -1.6370 C   0  0  0  0  0  0  0  0  0  0  0  0
   -0.1370   -0.4480   -0.7000 C   0  0  1  0  0  0  0  0  0  0  0  0
    1.0090    0.3140   -0.1150 C   0  0  1  0  0  0  0  0  0  0  0  0
    0.6380    1.3210    0.7530 O   0  0  0  0  0  0  0  0  0  0  0  0
    2.0780   -0.5870    0.4660 C   0  0  0  0  0  0  0  0  0  0  0  0
    3.2380    0.2620    0.7500 N   0  0  0  0  0  0  0  0  0  0  0  0
   -0.8530    0.5180   -1.6550 C   0  0  0  0  0  0  0  0  0  0  0  0
   -1.1970    1.6440   -0.8690 O   0  0  0  0  0  0  0  0  0  0  0  0
   -2.0520    1.6480    0.2220 C   0  0  0  0  0  0  0  0  0  0  0  0
   -2.3820    2.7730    0.6940 O   0  0  0  0  0  0  0  0  0  0  0  0
   -2.6340    0.4730    0.9110 C   0  0  1  0  0  0  0  0  0  0  0  0
   -3.5560   -0.1090    0.0430 O   0  0  0  0  0  0  0  0  0  0  0  0
   -1.5070   -0.5070    1.2090 C   0  0  0  0  0  0  0  0  0  0  0  0
   -0.9630   -1.1000    0.1300 O   0  0  0  0  0  0  0  0  0  0  0  0
  2  1  1  6
  2  3  1  0
  2  7  1  0
  2 14  1  0
  3  4  1  1
  3  5  1  0
  5  6  1  0
  7  8  1  0
  8  9  1  0
  9 10  2  0
  9 11  1  0
 11 12  1  6
 11 13  1  0
 13 14  1  0
M  CHG  1   6   1
M  END
