
     RDKit          3D

 14 14  0  0  0  0  0  0  0  0999 V2000
   -2.6240    1.6640   -0.8630 N   0  0  0  0  0  0  0  0  0  0  0  0
   -1.4320    0.8590   -1.0940 C   0  0  0  0  0  0  0  0  0  0  0  0
   -1.0130    0.2780    0.2110 C   0  0  1  0  0  0  0  0  0  0  0  0
   -0.7380    1.3150    1.0940 O   0  0  0  0  0  0  0  0  0  0  0  0
   -1.9980   -0.6370    0.8470 C   0  0  0  0  0  0  0  0  0  0  0  0
   -1.3130   -1.6050    1.5460 O   0  0  0  0  0  0  0  0  0  0  0  0
    0.0450   -1.3390    1.4360 C   0  0  0  0  0  0  0  0  0  0  0  0
    0.1920   -0.6130    0.1280 C   0  0  1  0  0  0  0  0  0  0  0  0
    0.1090   -1.6270   -0.9830 C   0  0  0  0  0  0  0  0  0  0  0  0
   -0.9830   -2.4680   -0.8330 O   0  0  0  0  0  0  0  0  0  0  0  0
    1.4230    0.2200    0.0260 C   0  0  0  0  0  0  0  0  0  0  0  0
    2.5930   -0.5130   -0.0560 O   0  0  0  0  0  0  0  0  0  0  0  0
    3.6470    0.4150   -0.1450 C   0  0  0  0  0  0  0  0  0  0  0  0
    3.6950    1.2430    0.9540 O   0  0  0  0  0  0  0  0  0  0  0  0
  1  2  1  0
  2  3  1  0
  3  4  1  1
  3  5  1  0
  3  8  1  0
  5  6  1  0
  6  7  1  0
  7  8  1  0
  8  9  1  6
  8 11  1  0
  9 10  1  0
 11 12  1  0
 12 13  1  0
 13 14  1  0
M  CHG  1   1   1
M  END
