
     RDKit          3D

 12 12  0  0  0  0  0  0  0  0999 V2000
   -1.3410   -2.7960   -0.2430 O   0  0  0  0  0  0  0  0  0  0  0  0
   -1.5990   -1.5540   -0.1090 C   0  0  0  0  0  0  0  0  0  0  0  0
   -3.0070   -1.0690   -0.0460 C   0  0  0  0  0  0  0  0  0  0  0  0
   -3.0060    0.4270    0.1130 C   0  0  0  0  0  0  0  0  0  0  0  0
   -4.3550    0.8320    0.1670 O   0  0  0  0  0  0  0  0  0  0  0  0
   -0.5490   -0.6510   -0.0220 O   0  0  0  0  0  0  0  0  0  0  0  0
    0.7660   -1.1720   -0.0880 C   0  0  0  0  0  0  0  0  0  0  0  0
    1.7790   -0.0740    0.0210 C   0  0  0  0  0  0  0  0  0  0  0  0
    2.7170    0.0720    0.9370 C   0  0  0  0  0  0  0  0  0  0  0  0
    3.5040    1.2870    0.6810 C   0  0  0  0  0  0  0  0  0  0  0  0
    2.8940    1.8510   -0.5340 C   0  0  0  0  0  0  0  0  0  0  0  0
    1.9060    1.0500   -0.8910 C   0  0  0  0  0  0  0  0  0  0  0  0
  1  2  2  0
  2  3  1  0
  2  6  1  0
  3  4  1  0
  4  5  1  0
  6  7  1  0
  7  8  1  0
  8  9  2  0
  8 12  1  0
  9 10  1  0
 10 11  1  0
 11 12  2  0
M  END
