
     RDKit          3D

 12 12  0  0  0  0  0  0  0  0999 V2000
   -3.0000    1.0720   -0.3490 C   0  0  0  0  0  0  0  0  0  0  0  0
   -2.5410   -0.2210    0.2830 C   0  0  1  0  0  0  0  0  0  0  0  0
   -3.3290   -0.4180    1.5460 C   0  0  0  0  0  0  0  0  0  0  0  0
   -2.7630   -1.2700   -0.6010 O   0  0  0  0  0  0  0  0  0  0  0  0
   -1.0620   -0.1990    0.5970 C   0  0  0  0  0  0  0  0  0  0  0  0
   -0.3140   -0.0080   -0.5640 O   0  0  0  0  0  0  0  0  0  0  0  0
    1.0100    0.0030   -0.2200 C   0  0  2  0  0  0  0  0  0  0  0  0
    1.6920    1.3280   -0.5570 C   0  0  0  0  0  0  0  0  0  0  0  0
    3.0480    1.2590    0.1340 C   0  0  0  0  0  0  0  0  0  0  0  0
    3.7750    0.0400   -0.3340 C   0  0  0  0  0  0  0  0  0  0  0  0
    3.0510   -1.1240   -0.2630 O   0  0  0  0  0  0  0  0  0  0  0  0
    1.8300   -1.0720   -0.8960 C   0  0  0  0  0  0  0  0  0  0  0  0
  2  1  1  6
  2  3  1  0
  2  4  1  0
  2  5  1  0
  5  6  1  0
  7  6  1  6
  7  8  1  0
  7 12  1  0
  8  9  1  0
  9 10  1  0
 10 11  1  0
 11 12  1  0
M  END
