
     RDKit          3D

 30 32  0  0  0  0  0  0  0  0999 V2000
    5.4170   -3.9250    0.1220 C   0  0  0  0  0  0  0  0  0  0  0  0
    4.4950   -2.9590    0.0330 C   0  0  0  0  0  0  0  0  0  0  0  0
    3.1780   -3.3390    0.1090 O   0  0  0  0  0  0  0  0  0  0  0  0
    4.9080   -1.5960   -0.1330 C   0  0  0  0  0  0  0  0  0  0  0  0
    6.2910   -1.4200   -0.1840 F   0  0  0  0  0  0  0  0  0  0  0  0
    4.2080   -0.5030   -0.2420 C   0  0  0  0  0  0  0  0  0  0  0  0
    2.7820   -0.4190   -0.2170 C   0  0  0  0  0  0  0  0  0  0  0  0
    1.9840    0.6120   -0.2860 C   0  0  0  0  0  0  0  0  0  0  0  0
    0.5470    0.1800   -0.2400 N   0  0  0  0  0  0  0  0  0  0  0  0
   -0.2970    0.6300    0.7840 C   0  0  0  0  0  0  0  0  0  0  0  0
    0.1530    1.3990    1.6670 O   0  0  0  0  0  0  0  0  0  0  0  0
   -1.7210    0.2300    0.8680 C   0  0  2  0  0  0  0  0  0  0  0  0
   -1.7230   -1.2930    0.9900 C   0  0  0  0  0  0  0  0  0  0  0  0
   -3.0740   -1.7600    1.4000 C   0  0  0  0  0  0  0  0  0  0  0  0
   -4.0690   -1.2110    0.4060 C   0  0  0  0  0  0  0  0  0  0  0  0
   -5.2860   -1.8530    0.2510 C   0  0  0  0  0  0  0  0  0  0  0  0
   -6.2150   -1.3900   -0.6340 C   0  0  0  0  0  0  0  0  0  0  0  0
   -7.3950   -2.0820   -0.7290 F   0  0  0  0  0  0  0  0  0  0  0  0
   -5.9970   -0.2750   -1.4110 C   0  0  0  0  0  0  0  0  0  0  0  0
   -4.7870    0.3520   -1.2480 C   0  0  0  0  0  0  0  0  0  0  0  0
   -3.8080   -0.0990   -0.3440 C   0  0  0  0  0  0  0  0  0  0  0  0
   -2.5340    0.6970   -0.2840 C   0  0  0  0  0  0  0  0  0  0  0  0
    2.1690    2.0120   -0.2290 C   0  0  0  0  0  0  0  0  0  0  0  0
    1.1710    2.8030   -0.8440 C   0  0  0  0  0  0  0  0  0  0  0  0
    1.1730    4.1720   -0.8010 C   0  0  0  0  0  0  0  0  0  0  0  0
    0.2040    4.9030   -1.3990 F   0  0  0  0  0  0  0  0  0  0  0  0
    2.1990    4.7940   -0.1250 C   0  0  0  0  0  0  0  0  0  0  0  0
    3.1560    4.0760    0.4670 N   0  0  0  0  0  0  0  0  0  0  0  0
    3.1410    2.6950    0.4170 C   0  0  0  0  0  0  0  0  0  0  0  0
    4.0680    2.0930    1.0090 O   0  0  0  0  0  0  0  0  0  0  0  0
  1  2  2  0
  2  3  1  0
  2  4  1  0
  4  5  1  0
  4  6  2  3
  6  7  1  0
  7  8  2  3
  8  9  1  0
  8 23  1  0
  9 10  1  0
 10 11  2  0
 12 10  1  6
 12 13  1  0
 12 22  1  0
 13 14  1  0
 14 15  1  0
 15 16  2  0
 15 21  1  0
 16 17  1  0
 17 18  1  0
 17 19  2  0
 19 20  1  0
 20 21  2  0
 21 22  1  0
 23 24  2  0
 23 29  1  0
 24 25  1  0
 25 26  1  0
 25 27  2  0
 27 28  1  0
 28 29  1  0
 29 30  2  0
M  END
