
     RDKit          3D

 30 32  0  0  0  0  0  0  0  0999 V2000
   -1.1400    2.8960   -1.4260 C   0  0  0  0  0  0  0  0  0  0  0  0
   -1.5250    2.0810   -0.2160 C   0  0  2  0  0  0  0  0  0  0  0  0
   -2.4750    2.8660    0.4930 O   0  0  0  0  0  0  0  0  0  0  0  0
   -0.3850    1.8970    0.7050 C   0  0  0  0  0  0  0  0  0  0  0  0
    0.8070    1.2280    0.1190 C   0  0  0  0  0  0  0  0  0  0  0  0
    0.8100    0.9740   -1.0970 O   0  0  0  0  0  0  0  0  0  0  0  0
    1.9230    0.8780    0.9010 N   0  0  0  0  0  0  0  0  0  0  0  0
    3.1070    0.2430    0.4800 C   0  0  0  0  0  0  0  0  0  0  0  0
    3.2850   -0.2850   -0.7620 C   0  0  0  0  0  0  0  0  0  0  0  0
    4.4900   -0.8920   -1.1280 C   0  0  0  0  0  0  0  0  0  0  0  0
    5.5430   -0.9760   -0.2320 C   0  0  0  0  0  0  0  0  0  0  0  0
    5.3890   -0.4580    1.0120 C   0  0  0  0  0  0  0  0  0  0  0  0
    4.1940    0.1350    1.3490 C   0  0  0  0  0  0  0  0  0  0  0  0
    6.6620   -0.6650    1.8050 C   0  0  0  0  0  0  0  0  0  0  0  0
    7.6920   -0.9540    0.7350 C   0  0  0  0  0  0  0  0  0  0  0  0
    6.9120   -1.5760   -0.4040 C   0  0  0  0  0  0  0  0  0  0  0  0
   -2.1860    0.8280   -0.6860 C   0  0  0  0  0  0  0  0  0  0  0  0
   -1.5240    0.0180   -1.3500 O   0  0  0  0  0  0  0  0  0  0  0  0
   -3.5390    0.5450   -0.3940 N   0  0  0  0  0  0  0  0  0  0  0  0
   -4.2870   -0.5870   -0.7790 C   0  0  0  0  0  0  0  0  0  0  0  0
   -3.9100   -1.4010   -1.8280 C   0  0  0  0  0  0  0  0  0  0  0  0
   -4.6980   -2.4620   -2.2860 C   0  0  0  0  0  0  0  0  0  0  0  0
   -5.8970   -2.7320   -1.6950 C   0  0  0  0  0  0  0  0  0  0  0  0
   -6.6880   -3.7650   -2.1270 F   0  0  0  0  0  0  0  0  0  0  0  0
   -6.2920   -1.9340   -0.6450 C   0  0  0  0  0  0  0  0  0  0  0  0
   -5.5170   -0.8670   -0.1700 C   0  0  0  0  0  0  0  0  0  0  0  0
   -5.9470   -0.1590    1.0020 C   0  0  0  0  0  0  0  0  0  0  0  0
   -4.9900    0.5670    1.6970 F   0  0  0  0  0  0  0  0  0  0  0  0
   -7.1380   -0.1720    1.5240 C   0  0  0  0  0  0  0  0  0  0  0  0
   -8.1710   -0.8550    1.0460 F   0  0  0  0  0  0  0  0  0  0  0  0
  2  1  1  6
  2  3  1  0
  2  4  1  0
  2 17  1  0
  4  5  1  0
  5  6  2  0
  5  7  1  0
  7  8  1  0
  8  9  2  0
  8 13  1  0
  9 10  1  0
 10 11  2  0
 11 12  1  0
 11 16  1  0
 12 13  2  0
 12 14  1  0
 14 15  1  0
 15 16  1  0
 17 18  2  0
 17 19  1  0
 19 20  1  0
 20 21  2  0
 20 26  1  0
 21 22  1  0
 22 23  2  0
 23 24  1  0
 23 25  1  0
 25 26  2  0
 26 27  1  0
 27 28  1  0
 27 29  2  3
 29 30  1  0
M  END
