
     RDKit          3D

 30 31  0  0  0  0  0  0  0  0999 V2000
    7.1170   -3.0320    1.0890 C   0  0  0  0  0  0  0  0  0  0  0  0
    5.7980   -2.9210    1.0470 C   0  0  0  0  0  0  0  0  0  0  0  0
    5.1170   -2.4760   -0.1890 C   0  0  0  0  0  0  0  0  0  0  0  0
    4.3590   -1.2680    0.0280 N   0  0  0  0  0  0  0  0  0  0  0  0
    2.9770   -1.3180    0.4420 C   0  0  0  0  0  0  0  0  0  0  0  0
    2.5260   -2.4700    0.5870 O   0  0  0  0  0  0  0  0  0  0  0  0
    2.1970   -0.1250    0.6650 C   0  0  0  0  0  0  0  0  0  0  0  0
    0.9300   -0.0850    1.0440 C   0  0  0  0  0  0  0  0  0  0  0  0
    0.1070   -1.2750    1.3030 C   0  0  0  0  0  0  0  0  0  0  0  0
   -0.9700   -1.3680    0.2490 C   0  0  0  0  0  0  0  0  0  0  0  0
   -0.9540   -0.5350   -0.6780 O   0  0  0  0  0  0  0  0  0  0  0  0
   -1.9140   -2.3980    0.4010 N   0  0  0  0  0  0  0  0  0  0  0  0
   -2.9920   -2.5890   -0.5230 C   0  0  0  0  0  0  0  0  0  0  0  0
   -3.9760   -1.4620   -0.5940 C   0  0  2  0  0  0  0  0  0  0  0  0
   -5.1450   -1.8810   -1.4650 C   0  0  0  0  0  0  0  0  0  0  0  0
   -5.5080   -0.7880   -2.4500 C   0  0  0  0  0  0  0  0  0  0  0  0
   -5.4450    0.5790   -1.8620 C   0  0  0  0  0  0  0  0  0  0  0  0
   -4.2320    0.7930   -1.0190 C   0  0  1  0  0  0  0  0  0  0  0  0
   -4.5780    1.2830    0.3760 C   0  0  0  0  0  0  0  0  0  0  0  0
   -3.3970   -0.3050   -0.9890 O   0  0  0  0  0  0  0  0  0  0  0  0
    0.2680    1.2560    1.2730 C   0  0  0  0  0  0  0  0  0  0  0  0
    1.1430    2.4020    1.0670 C   0  0  0  0  0  0  0  0  0  0  0  0
    1.8790    2.8990    1.9830 O   0  0  0  0  0  0  0  0  0  0  0  0
    1.2360    3.0440   -0.1660 O   0  0  0  0  0  0  0  0  0  0  0  0
    2.0600    4.1540   -0.4040 C   0  0  0  0  0  0  0  0  0  0  0  0
    1.7080    5.3330    0.4790 C   0  0  0  0  0  0  0  0  0  0  0  0
    2.8870    1.0890    0.4470 O   0  0  0  0  0  0  0  0  0  0  0  0
    4.1860    1.1740    0.0570 N   0  0  0  0  0  0  0  0  0  0  0  0
    4.9600   -0.0010   -0.1640 C   0  0  0  0  0  0  0  0  0  0  0  0
    6.5140    0.1620   -0.6310 S   0  0  0  0  0  0  0  0  0  0  0  0
  1  2  2  0
  2  3  1  0
  3  4  1  0
  4  5  1  0
  4 29  1  0
  5  6  2  0
  5  7  1  0
  7  8  2  3
  7 27  1  0
  8  9  1  0
  8 21  1  0
  9 10  1  0
 10 11  2  0
 10 12  1  0
 12 13  1  0
 14 13  1  6
 14 15  1  0
 14 20  1  0
 15 16  1  0
 16 17  1  0
 17 18  1  0
 18 19  1  1
 18 20  1  0
 21 22  1  0
 22 23  2  0
 22 24  1  0
 24 25  1  0
 25 26  1  0
 27 28  1  0
 28 29  1  0
 29 30  2  0
M  END
