
     RDKit          3D

 31 32  0  0  0  0  0  0  0  0999 V2000
   -4.0570   -3.5190   -2.1150 C   0  0  0  0  0  0  0  0  0  0  0  0
   -4.1510   -2.0430   -1.7510 C   0  0  0  0  0  0  0  0  0  0  0  0
   -5.5260   -1.5470   -1.5120 C   0  0  0  0  0  0  0  0  0  0  0  0
   -3.0460   -1.3660   -1.7320 C   0  0  0  0  0  0  0  0  0  0  0  0
   -2.7930    0.0560   -1.4220 C   0  0  0  0  0  0  0  0  0  0  0  0
   -1.7740    0.2090   -0.3710 N   0  0  0  0  0  0  0  0  0  0  0  0
   -0.4620    0.5810   -0.7720 N   0  0  0  0  0  0  0  0  0  0  0  0
    0.5350    0.6670    0.0190 C   0  0  0  0  0  0  0  0  0  0  0  0
    1.8810    1.0590   -0.4100 C   0  0  0  0  0  0  0  0  0  0  0  0
    2.1520    1.3370   -1.6060 O   0  0  0  0  0  0  0  0  0  0  0  0
    2.8930    1.1310    0.5010 O   0  0  0  0  0  0  0  0  0  0  0  0
    4.2130    1.4810    0.2530 C   0  0  0  0  0  0  0  0  0  0  0  0
    4.9800    0.6090   -0.6780 C   0  0  0  0  0  0  0  0  0  0  0  0
    6.3750    1.2100   -0.8040 C   0  0  0  0  0  0  0  0  0  0  0  0
    7.1950    1.2660    0.7970 S   0  0  0  0  0  0  0  0  0  0  0  0
    7.5790   -0.3770    1.4010 C   0  0  0  0  0  0  0  0  0  0  0  0
    8.5870   -1.0720    0.5860 C   0  0  0  0  0  0  0  0  0  0  0  0
    9.8240   -0.9020    0.8310 O   0  0  0  0  0  0  0  0  0  0  0  0
    8.2550   -1.9370   -0.4720 N   0  0  0  0  0  0  0  0  0  0  0  0
    9.2120   -2.5670   -1.2070 O   0  0  0  0  0  0  0  0  0  0  0  0
    0.3260    0.2760    1.4300 C   0  0  0  0  0  0  0  0  0  0  0  0
    1.0410    0.7240    2.3260 O   0  0  0  0  0  0  0  0  0  0  0  0
   -0.7970   -0.6920    1.7120 C   0  0  0  0  0  0  0  0  0  0  0  0
   -1.9990   -0.0740    0.9770 C   0  0  0  0  0  0  0  0  0  0  0  0
   -3.0120    0.1570    1.7090 C   0  0  0  0  0  0  0  0  0  0  0  0
   -4.3190    0.7640    1.5540 C   0  0  0  0  0  0  0  0  0  0  0  0
   -4.7970    1.7360    2.4860 C   0  0  0  0  0  0  0  0  0  0  0  0
   -6.0510    2.1130    2.0810 C   0  0  0  0  0  0  0  0  0  0  0  0
   -6.3180    1.3920    0.9450 C   0  0  0  0  0  0  0  0  0  0  0  0
   -7.6040    1.5000    0.1670 C   0  0  0  0  0  0  0  0  0  0  0  0
   -5.2890    0.6560    0.7160 O   0  0  0  0  0  0  0  0  0  0  0  0
  1  2  1  0
  2  3  1  0
  2  4  2  3
  4  5  1  0
  5  6  1  0
  6  7  1  0
  6 24  1  0
  7  8  2  0
  8  9  1  0
  8 21  1  0
  9 10  2  0
  9 11  1  0
 11 12  1  0
 12 13  1  0
 13 14  1  0
 14 15  1  0
 15 16  1  0
 16 17  1  0
 17 18  2  0
 17 19  1  0
 19 20  1  0
 21 22  2  0
 21 23  1  0
 23 24  1  0
 24 25  2  3
 25 26  1  0
 26 27  2  0
 26 31  1  0
 27 28  1  0
 28 29  2  0
 29 30  1  0
 29 31  1  0
M  END
