
     RDKit          3D

 31 32  0  0  0  0  0  0  0  0999 V2000
    6.3820   -1.6120    1.3320 C   0  0  0  0  0  0  0  0  0  0  0  0
    6.4500   -1.5670   -0.0850 N   0  0  0  0  0  0  0  0  0  0  0  0
    7.5150   -2.3980   -0.6920 C   0  0  0  0  0  0  0  0  0  0  0  0
    5.6470   -0.8460   -0.9430 C   0  0  0  0  0  0  0  0  0  0  0  0
    5.9570   -1.0070   -2.2110 O   0  0  0  0  0  0  0  0  0  0  0  0
    4.5290    0.0480   -0.6720 C   0  0  0  0  0  0  0  0  0  0  0  0
    3.8820    0.6680   -1.7620 C   0  0  0  0  0  0  0  0  0  0  0  0
    2.8220    1.5200   -1.5750 C   0  0  0  0  0  0  0  0  0  0  0  0
    2.3200    1.8280   -0.3340 C   0  0  0  0  0  0  0  0  0  0  0  0
    0.9700    2.9140   -0.1100 S   0  0  2  0  0  0  0  0  0  0  0  0
    0.9600    3.9590   -1.1910 O   0  0  0  0  0  0  0  0  0  0  0  0
    1.0960    3.6690    1.2010 O   0  0  0  0  0  0  0  0  0  0  0  0
   -0.5560    2.1090   -0.1220 C   0  0  0  0  0  0  0  0  0  0  0  0
   -1.0820    1.6400    1.0600 C   0  0  0  0  0  0  0  0  0  0  0  0
   -2.3210    0.9740    1.1250 C   0  0  0  0  0  0  0  0  0  0  0  0
   -3.0530    0.7670    0.0090 C   0  0  0  0  0  0  0  0  0  0  0  0
   -4.3050    0.1070   -0.0100 N   0  0  0  0  0  0  0  0  0  0  0  0
   -5.0080   -0.4400    1.0820 C   0  0  0  0  0  0  0  0  0  0  0  0
   -4.5310   -0.3700    2.2170 O   0  0  0  0  0  0  0  0  0  0  0  0
   -6.3340   -1.1140    0.9100 C   0  0  1  0  0  0  0  0  0  0  0  0
   -6.1000   -2.3080    0.0160 C   0  0  0  0  0  0  0  0  0  0  0  0
   -6.7590   -1.5420    2.1610 O   0  0  0  0  0  0  0  0  0  0  0  0
   -7.3800   -0.1840    0.3670 C   0  0  2  0  0  0  0  0  0  0  0  0
   -7.0850    0.3460   -0.8510 F   0  0  0  0  0  0  0  0  0  0  0  0
   -7.5460    0.8360    1.2880 F   0  0  0  0  0  0  0  0  0  0  0  0
   -8.5730   -0.8850    0.3420 F   0  0  0  0  0  0  0  0  0  0  0  0
   -2.5170    1.2430   -1.1860 C   0  0  0  0  0  0  0  0  0  0  0  0
   -3.4260    0.9990   -2.6540 Cl  0  0  0  0  0  0  0  0  0  0  0  0
   -1.3120    1.8900   -1.2480 C   0  0  0  0  0  0  0  0  0  0  0  0
    2.9370    1.2350    0.7340 C   0  0  0  0  0  0  0  0  0  0  0  0
    4.0230    0.3610    0.5550 C   0  0  0  0  0  0  0  0  0  0  0  0
  1  2  1  0
  2  3  1  0
  2  4  1  0
  4  5  2  0
  4  6  1  0
  6  7  2  0
  6 31  1  0
  7  8  1  0
  8  9  2  0
 10  9  1  6
  9 30  1  0
 10 11  2  0
 10 12  2  0
 10 13  1  0
 13 14  2  0
 13 29  1  0
 14 15  1  0
 15 16  2  0
 16 17  1  0
 16 27  1  0
 17 18  1  0
 18 19  2  0
 18 20  1  0
 20 21  1  6
 20 22  1  0
 20 23  1  0
 23 24  1  6
 23 25  1  0
 23 26  1  0
 27 28  1  0
 27 29  2  0
 30 31  2  0
M  END
