
     RDKit          3D

 18 19  0  0  0  0  0  0  0  0999 V2000
   -4.1350    1.4100   -0.1280 C   0  0  0  0  0  0  0  0  0  0  0  0
   -3.5610    0.3100    0.7430 C   0  0  0  0  0  0  0  0  0  0  0  0
   -2.4630   -0.3730    0.0970 N   0  0  0  0  0  0  0  0  0  0  0  0
   -2.7270   -1.4420   -0.6610 C   0  0  0  0  0  0  0  0  0  0  0  0
   -3.9350   -1.8490   -0.8080 O   0  0  0  0  0  0  0  0  0  0  0  0
   -1.7420   -2.0880   -1.2660 N   0  0  0  0  0  0  0  0  0  0  0  0
   -0.4710   -1.7110   -1.1490 C   0  0  0  0  0  0  0  0  0  0  0  0
   -0.1310   -0.6260   -0.3900 C   0  0  0  0  0  0  0  0  0  0  0  0
    1.2740   -0.1790   -0.2350 C   0  0  0  0  0  0  0  0  0  0  0  0
    2.2580   -0.8250   -0.8220 C   0  0  0  0  0  0  0  0  0  0  0  0
    3.7100   -0.4330   -0.7120 C   0  0  2  0  0  0  0  0  0  0  0  0
    4.1820    0.6110   -2.0640 Cl  0  0  0  0  0  0  0  0  0  0  0  0
    4.6370   -1.9550   -0.7000 Cl  0  0  0  0  0  0  0  0  0  0  0  0
    3.9020    0.2290    0.6130 C   0  0  0  0  0  0  0  0  0  0  0  0
    2.9870    1.4390    0.6310 C   0  0  0  0  0  0  0  0  0  0  0  0
    1.5570    1.0260    0.6010 C   0  0  0  0  0  0  0  0  0  0  0  0
   -1.1800    0.0280    0.2290 C   0  0  0  0  0  0  0  0  0  0  0  0
   -0.9540    1.0300    0.9420 O   0  0  0  0  0  0  0  0  0  0  0  0
  1  2  1  0
  2  3  1  0
  3  4  1  0
  3 17  1  0
  4  5  2  0
  4  6  1  0
  6  7  1  0
  7  8  2  0
  8  9  1  0
  8 17  1  0
  9 10  2  0
  9 16  1  0
 10 11  1  0
 11 12  1  6
 11 13  1  0
 11 14  1  0
 14 15  1  0
 15 16  1  0
 17 18  2  0
M  END
