
     RDKit          3D

 18 19  0  0  0  0  0  0  0  0999 V2000
   -4.5870   -0.3770    0.5450 C   0  0  0  0  0  0  0  0  0  0  0  0
   -3.2920    0.3640    0.4340 C   0  0  0  0  0  0  0  0  0  0  0  0
   -3.2890    1.7370    0.5760 C   0  0  0  0  0  0  0  0  0  0  0  0
   -2.0600    2.3740    0.4640 C   0  0  0  0  0  0  0  0  0  0  0  0
   -1.9950    3.6280    0.5840 O   0  0  0  0  0  0  0  0  0  0  0  0
   -0.9900    1.6290    0.2320 N   0  0  0  0  0  0  0  0  0  0  0  0
   -1.0120    0.2840    0.0960 C   0  0  0  0  0  0  0  0  0  0  0  0
    0.2290   -0.4260   -0.1560 C   0  0  0  0  0  0  0  0  0  0  0  0
    1.3820    0.2340   -0.2550 C   0  0  0  0  0  0  0  0  0  0  0  0
    2.6290   -0.4740   -0.5080 C   0  0  0  0  0  0  0  0  0  0  0  0
    3.8320    0.0570   -0.4610 C   0  0  0  0  0  0  0  0  0  0  0  0
    4.1550    1.4580   -0.1460 C   0  0  0  0  0  0  0  0  0  0  0  0
    5.2060    1.4230    1.3120 Cl  0  0  0  0  0  0  0  0  0  0  0  0
    2.4850   -1.9200   -0.8430 C   0  0  0  0  0  0  0  0  0  0  0  0
    1.4360   -2.5050   -0.1530 O   0  0  0  0  0  0  0  0  0  0  0  0
    0.2320   -1.8810   -0.3090 C   0  0  2  0  0  0  0  0  0  0  0  0
   -0.5740   -2.3250   -1.8410 Cl  0  0  0  0  0  0  0  0  0  0  0  0
   -2.1700   -0.3460    0.1990 N   0  0  0  0  0  0  0  0  0  0  0  0
  1  2  1  0
  2  3  2  0
  2 18  1  0
  3  4  1  0
  4  5  2  0
  4  6  1  0
  6  7  2  0
  7  8  1  0
  7 18  1  0
  8  9  2  0
  8 16  1  0
  9 10  1  0
 10 11  2  3
 10 14  1  0
 11 12  1  0
 12 13  1  0
 14 15  1  0
 15 16  1  0
 16 17  1  6
M  END
