
     RDKit          3D

 18 19  0  0  0  0  0  0  0  0999 V2000
   -1.1700   -3.4520   -0.3500 O   0  0  0  0  0  0  0  0  0  0  0  0
   -1.3330   -2.2650    0.0190 C   0  0  0  0  0  0  0  0  0  0  0  0
   -2.6690   -1.8500    0.4630 C   0  0  0  0  0  0  0  0  0  0  0  0
   -3.2360   -0.6870   -0.3090 C   0  0  0  0  0  0  0  0  0  0  0  0
   -2.4480    0.5710   -0.0700 C   0  0  0  0  0  0  0  0  0  0  0  0
   -3.1100    1.6130    0.1880 O   0  0  0  0  0  0  0  0  0  0  0  0
   -1.0450    0.7930   -0.0860 N   0  0  0  0  0  0  0  0  0  0  0  0
   -0.8570    2.1960   -0.0780 C   0  0  0  0  0  0  0  0  0  0  0  0
    0.2440    2.9400   -0.2170 C   0  0  0  0  0  0  0  0  0  0  0  0
    1.6020    2.4940   -0.4230 C   0  0  0  0  0  0  0  0  0  0  0  0
    2.1250    1.2570   -0.4120 C   0  0  0  0  0  0  0  0  0  0  0  0
    1.4370    0.0080   -0.1810 C   0  0  0  0  0  0  0  0  0  0  0  0
    2.2100   -1.0480   -0.0240 C   0  0  0  0  0  0  0  0  0  0  0  0
    3.6700   -0.9730   -0.0770 C   0  0  2  0  0  0  0  0  0  0  0  0
    4.2260   -0.7920   -1.7700 Cl  0  0  0  0  0  0  0  0  0  0  0  0
    4.3620   -2.4990    0.5230 Cl  0  0  0  0  0  0  0  0  0  0  0  0
   -0.0030   -0.1970   -0.1060 C   0  0  0  0  0  0  0  0  0  0  0  0
   -0.1260   -1.4840   -0.0620 N   0  0  0  0  0  0  0  0  0  0  0  0
  1  2  2  0
  2  3  1  0
  2 18  1  0
  3  4  1  0
  4  5  1  0
  5  6  2  0
  5  7  1  0
  7  8  1  0
  7 17  1  0
  8  9  2  0
  9 10  1  0
 10 11  2  0
 11 12  1  0
 12 13  2  3
 12 17  1  0
 13 14  1  0
 14 15  1  6
 14 16  1  0
 17 18  2  0
M  END
