
     RDKit          3D

 18 19  0  0  0  0  0  0  0  0999 V2000
    0.2740   -2.2010   -1.1700 C   0  0  0  0  0  0  0  0  0  0  0  0
    0.0620   -1.9580    0.2200 N   0  0  0  0  0  0  0  0  0  0  0  0
   -1.2220   -2.6030    0.5640 C   0  0  0  0  0  0  0  0  0  0  0  0
   -2.1720   -2.0750   -0.4810 C   0  0  0  0  0  0  0  0  0  0  0  0
   -2.2000   -0.7290   -0.6140 C   0  0  0  0  0  0  0  0  0  0  0  0
   -3.2580   -0.0500   -1.7900 Cl  0  0  0  0  0  0  0  0  0  0  0  0
   -1.3280    0.0510    0.2350 C   0  0  0  0  0  0  0  0  0  0  0  0
   -1.6310    1.2170    0.6810 C   0  0  0  0  0  0  0  0  0  0  0  0
   -0.4380    2.0700    1.7220 Cl  0  0  0  0  0  0  0  0  0  0  0  0
   -2.8790    1.9690    0.5000 C   0  0  0  0  0  0  0  0  0  0  0  0
   -2.6340    3.1950   -0.1620 O   0  0  0  0  0  0  0  0  0  0  0  0
   -0.0340   -0.5870    0.6180 C   0  0  2  0  0  0  0  0  0  0  0  0
    1.0900    0.2280    0.3880 N   0  0  0  0  0  0  0  0  0  0  0  0
    2.2850   -0.4000    0.8790 C   0  0  0  0  0  0  0  0  0  0  0  0
    3.2840    0.7550    1.0680 C   0  0  0  0  0  0  0  0  0  0  0  0
    3.5490    1.2220   -0.2090 O   0  0  0  0  0  0  0  0  0  0  0  0
    2.4490    1.7690   -0.8490 C   0  0  0  0  0  0  0  0  0  0  0  0
    1.2620    0.8340   -0.8740 C   0  0  0  0  0  0  0  0  0  0  0  0
  1  2  1  0
  2  3  1  0
  2 12  1  0
  3  4  1  0
  4  5  2  0
  5  6  1  0
  5  7  1  0
  7  8  2  3
  7 12  1  0
  8  9  1  0
  8 10  1  0
 10 11  1  0
 12 13  1  6
 13 14  1  0
 13 18  1  0
 14 15  1  0
 15 16  1  0
 16 17  1  0
 17 18  1  0
M  END
