
     RDKit          3D

 16 16  0  0  0  0  0  0  0  0999 V2000
    4.6880    0.4310   -0.3960 C   0  0  0  0  0  0  0  0  0  0  0  0
    3.3170    0.7560   -0.2990 O   0  0  0  0  0  0  0  0  0  0  0  0
    2.6780   -0.1890   -0.9420 O   0  0  0  0  0  0  0  0  0  0  0  0
    1.3880   -0.0660   -0.9290 O   0  0  0  0  0  0  0  0  0  0  0  0
    0.7610   -0.7980    0.0490 C   0  0  0  0  0  0  0  0  0  0  0  0
   -0.7030   -0.5730   -0.0410 C   0  0  0  0  0  0  0  0  0  0  0  0
   -1.1800    0.2360   -0.9710 C   0  0  0  0  0  0  0  0  0  0  0  0
   -0.3280    0.8870   -1.8800 O   0  0  0  0  0  0  0  0  0  0  0  0
   -0.1280    2.6110   -1.9100 P   0  0  0  0  0  0  0  0  0  0  0  0
    0.7980    3.4000   -0.9550 O   0  0  0  0  0  0  0  0  0  0  0  0
   -2.6030    0.5160   -1.1340 C   0  0  0  0  0  0  0  0  0  0  0  0
   -2.9920    1.4450   -1.8820 O   0  0  0  0  0  0  0  0  0  0  0  0
   -3.5880   -0.3210   -0.3950 C   0  0  0  0  0  0  0  0  0  0  0  0
   -2.9760   -0.6700    0.9020 C   0  0  0  0  0  0  0  0  0  0  0  0
   -3.5690   -0.4690    1.9320 O   0  0  0  0  0  0  0  0  0  0  0  0
   -1.6270   -1.2670    0.9290 C   0  0  0  0  0  0  0  0  0  0  0  0
  1  2  1  0
  2  3  1  0
  3  4  1  0
  4  5  1  0
  5  6  1  0
  6  7  2  0
  6 16  1  0
  7  8  1  0
  7 11  1  0
  8  9  1  0
  9 10  2  0
 11 12  2  0
 11 13  1  0
 13 14  1  0
 14 15  2  0
 14 16  1  0
M  END
