
     RDKit          3D

 16 15  0  0  0  0  0  0  0  0999 V2000
   -2.9070    0.7820   -2.0490 C   0  0  0  0  0  0  0  0  0  0  0  0
   -1.7650    1.0790   -1.3210 O   0  0  0  0  0  0  0  0  0  0  0  0
   -0.8930   -0.4000   -1.0850 P   0  0  0  0  0  0  0  0  0  0  0  0
   -1.9410   -1.7630   -1.4050 O   0  0  0  0  0  0  0  0  0  0  0  0
   -0.1900   -0.5420    0.6080 C   0  0  2  0  0  0  0  0  0  0  0  0
   -0.1950    0.6540    1.2750 O   0  0  0  0  0  0  0  0  0  0  0  0
   -0.8070    0.6440    2.4290 O   0  0  0  0  0  0  0  0  0  0  0  0
   -2.0660    1.2300    2.4010 C   0  0  0  0  0  0  0  0  0  0  0  0
   -1.9070    2.5710    1.9930 O   0  0  0  0  0  0  0  0  0  0  0  0
    1.1970   -1.1450    0.4940 C   0  0  2  0  0  0  0  0  0  0  0  0
    1.0060   -2.5200   -0.1340 C   0  0  0  0  0  0  0  0  0  0  0  0
    1.7420   -1.3430    1.7730 O   0  0  0  0  0  0  0  0  0  0  0  0
    2.1300   -0.3850   -0.3760 C   0  0  0  0  0  0  0  0  0  0  0  0
    2.3950    1.0330    0.0430 C   0  0  0  0  0  0  0  0  0  0  0  0
    3.3590    1.6000   -0.9640 C   0  0  0  0  0  0  0  0  0  0  0  0
    4.4260    1.0180   -1.1820 O   0  0  0  0  0  0  0  0  0  0  0  0
  1  2  1  0
  2  3  1  0
  3  4  1  0
  3  5  1  0
  5  6  1  6
  5 10  1  0
  6  7  1  0
  7  8  1  0
  8  9  1  0
 10 11  1  6
 10 12  1  0
 10 13  1  0
 13 14  1  0
 14 15  1  0
 15 16  2  0
M  END
