
     RDKit          3D

 16 15  0  0  0  0  0  0  0  0999 V2000
   -3.0020   -2.0700    1.1310 C   0  0  0  0  0  0  0  0  0  0  0  0
   -1.8200   -1.4550    0.4180 C   0  0  0  0  0  0  0  0  0  0  0  0
   -2.1130   -0.1850   -0.0130 O   0  0  0  0  0  0  0  0  0  0  0  0
   -1.0970    0.4480   -0.6710 C   0  0  1  0  0  0  0  0  0  0  0  0
   -0.5860   -0.3050   -1.8800 C   0  0  0  0  0  0  0  0  0  0  0  0
   -1.4530    1.7110   -1.0750 O   0  0  0  0  0  0  0  0  0  0  0  0
   -1.8090    2.5380   -0.0140 C   0  0  0  0  0  0  0  0  0  0  0  0
    0.3600    0.6200    0.4990 P   0  0  0  0  0  0  0  0  0  0  0  0
    1.2230   -0.8960    0.6350 O   0  0  0  0  0  0  0  0  0  0  0  0
    2.3470   -1.1510   -0.1470 C   0  0  0  0  0  0  0  0  0  0  0  0
    3.0380   -2.4730    0.0230 C   0  0  0  0  0  0  0  0  0  0  0  0
    2.7450   -0.2940   -0.9530 O   0  0  0  0  0  0  0  0  0  0  0  0
    1.4010    1.8790   -0.2000 O   0  0  0  0  0  0  0  0  0  0  0  0
    2.1980    2.6480    0.6150 C   0  0  0  0  0  0  0  0  0  0  0  0
    2.1960    2.4630    1.8560 O   0  0  0  0  0  0  0  0  0  0  0  0
    3.0280    3.6440    0.1100 O   0  0  0  0  0  0  0  0  0  0  0  0
  1  2  1  0
  2  3  1  0
  3  4  1  0
  4  5  1  6
  4  6  1  0
  4  8  1  0
  6  7  1  0
  8  9  1  0
  8 13  1  0
  9 10  1  0
 10 11  1  0
 10 12  2  0
 13 14  1  0
 14 15  2  0
 14 16  1  0
M  END
