
     RDKit          3D

 16 15  0  0  0  0  0  0  0  0999 V2000
    4.6100    0.3600    0.4570 C   0  0  0  0  0  0  0  0  0  0  0  0
    3.3330    0.8200    1.1200 C   0  0  0  0  0  0  0  0  0  0  0  0
    2.2200   -0.1630    0.7810 C   0  0  0  0  0  0  0  0  0  0  0  0
    1.0430    0.2620    1.3930 O   0  0  0  0  0  0  0  0  0  0  0  0
   -0.2230   -0.8720    0.9960 P   0  0  0  0  0  0  0  0  0  0  0  0
    0.5510   -2.4080    0.7050 O   0  0  0  0  0  0  0  0  0  0  0  0
   -1.1090   -0.3090   -0.5320 C   0  0  1  0  0  0  0  0  0  0  0  0
   -0.3130    0.6190   -1.1730 O   0  0  0  0  0  0  0  0  0  0  0  0
   -1.3120   -1.5030   -1.3920 C   0  0  0  0  0  0  0  0  0  0  0  0
   -2.1460   -2.6450   -0.9020 C   0  0  0  0  0  0  0  0  0  0  0  0
   -0.7910   -1.5310   -2.4890 O   0  0  0  0  0  0  0  0  0  0  0  0
   -2.4080    0.3190   -0.2320 C   0  0  0  0  0  0  0  0  0  0  0  0
   -3.2570   -0.3430    0.3380 O   0  0  0  0  0  0  0  0  0  0  0  0
   -2.7310    1.7130   -0.5880 C   0  0  0  0  0  0  0  0  0  0  0  0
   -4.0190    2.0790   -0.2010 O   0  0  0  0  0  0  0  0  0  0  0  0
   -4.2610    3.3070   -0.5310 O   0  0  0  0  0  0  0  0  0  0  0  0
  1  2  1  0
  2  3  1  0
  3  4  1  0
  4  5  1  0
  5  6  1  0
  5  7  1  0
  7  8  1  6
  7  9  1  0
  7 12  1  0
  9 10  1  0
  9 11  2  0
 12 13  2  0
 12 14  1  0
 14 15  1  0
 15 16  1  0
M  END
