
     RDKit          3D

 23 25  0  0  0  0  0  0  0  0999 V2000
    6.1790    0.2330    1.3570 N   0  0  0  0  0  0  0  0  0  0  0  0
    5.2560    0.2350    0.2830 C   0  0  0  0  0  0  0  0  0  0  0  0
    5.5950    0.2480   -1.0130 N   0  0  0  0  0  0  0  0  0  0  0  0
    4.6440    0.3400   -1.9750 C   0  0  0  0  0  0  0  0  0  0  0  0
    3.3620    0.4340   -1.6650 N   0  0  0  0  0  0  0  0  0  0  0  0
    2.9610    0.4240   -0.3940 C   0  0  0  0  0  0  0  0  0  0  0  0
    3.8950    0.3110    0.6130 C   0  0  0  0  0  0  0  0  0  0  0  0
    3.2300    0.2690    1.7500 N   0  0  0  0  0  0  0  0  0  0  0  0
    1.9290    0.3690    1.5000 C   0  0  0  0  0  0  0  0  0  0  0  0
    1.7460    0.4740    0.1480 N   0  0  0  0  0  0  0  0  0  0  0  0
    0.5120    0.6640   -0.5850 C   0  0  2  0  0  0  0  0  0  0  0  0
   -0.4720    0.6330    0.3790 O   0  0  0  0  0  0  0  0  0  0  0  0
   -1.5410   -0.0230   -0.1520 C   0  0  2  0  0  0  0  0  0  0  0  0
   -2.3540   -0.5040    1.0180 C   0  0  0  0  0  0  0  0  0  0  0  0
   -3.5740   -0.9850    0.5440 O   0  0  0  0  0  0  0  0  0  0  0  0
   -4.8250   -0.1920    1.2930 P   0  0  0  0  0  0  0  0  0  0  0  0
   -4.7260    1.4750    0.9260 O   0  0  0  0  0  0  0  0  0  0  0  0
   -4.0900    0.0190    2.5790 O   0  0  0  0  0  0  0  0  0  0  0  0
   -5.6820   -0.2990   -0.0140 O   0  0  0  0  0  0  0  0  0  0  0  0
   -1.0990   -0.9880   -1.1590 C   0  0  1  0  0  0  0  0  0  0  0  0
   -1.9920   -1.0610   -2.2460 O   0  0  0  0  0  0  0  0  0  0  0  0
    0.2060   -0.3390   -1.6290 C   0  0  1  0  0  0  0  0  0  0  0  0
   -0.0730    0.3700   -2.8290 O   0  0  0  0  0  0  0  0  0  0  0  0
  1  2  1  0
  2  3  2  0
  2  7  1  0
  3  4  1  0
  4  5  2  0
  5  6  1  0
  6  7  2  0
  6 10  1  0
  7  8  1  0
  8  9  2  0
  9 10  1  0
 11 10  1  1
 11 12  1  0
 11 22  1  0
 12 13  1  0
 13 14  1  1
 13 20  1  0
 14 15  1  0
 15 16  1  0
 16 17  1  0
 16 18  1  0
 16 19  1  0
 20 21  1  6
 20 22  1  0
 22 23  1  6
M  END
