
     RDKit          3D

 16 15  0  0  0  0  0  0  0  0999 V2000
    3.6340    1.5630    0.2780 C   0  0  0  0  0  0  0  0  0  0  0  0
    3.0110    0.2090    0.5610 C   0  0  0  0  0  0  0  0  0  0  0  0
    1.6480    0.3470    0.4790 O   0  0  0  0  0  0  0  0  0  0  0  0
    0.9910   -0.7650    0.7070 O   0  0  0  0  0  0  0  0  0  0  0  0
   -0.2970   -0.7380    0.2160 C   0  0  1  0  0  0  0  0  0  0  0  0
   -0.3240   -0.5220   -1.2850 C   0  0  0  0  0  0  0  0  0  0  0  0
    0.4720    1.0730   -1.7560 P   0  0  0  0  0  0  0  0  0  0  0  0
   -0.2720    2.4130   -1.5640 O   0  0  0  0  0  0  0  0  0  0  0  0
   -0.9310   -2.0460    0.5200 C   0  0  0  0  0  0  0  0  0  0  0  0
   -2.3380   -2.3080    0.1050 C   0  0  0  0  0  0  0  0  0  0  0  0
   -0.3580   -2.9500    1.1070 O   0  0  0  0  0  0  0  0  0  0  0  0
   -1.0880    0.3740    0.8330 C   0  0  0  0  0  0  0  0  0  0  0  0
   -0.5270    1.1000    1.6650 O   0  0  0  0  0  0  0  0  0  0  0  0
   -2.4060    0.5700    0.4710 O   0  0  0  0  0  0  0  0  0  0  0  0
   -3.0950    1.6200    1.0760 C   0  0  0  0  0  0  0  0  0  0  0  0
   -2.6090    2.3900    1.9150 O   0  0  0  0  0  0  0  0  0  0  0  0
  1  2  1  0
  2  3  1  0
  3  4  1  0
  4  5  1  0
  5  6  1  6
  5  9  1  0
  5 12  1  0
  6  7  1  0
  7  8  2  0
  9 10  1  0
  9 11  2  0
 12 13  2  0
 12 14  1  0
 14 15  1  0
 15 16  2  0
M  END
