
     RDKit          3D

 18 17  0  0  0  0  0  0  0  0999 V2000
    1.4720    1.3430   -2.0370 O   0  0  0  0  0  0  0  0  0  0  0  0
    1.3930    0.3320   -1.3170 C   0  0  0  0  0  0  0  0  0  0  0  0
    2.4050   -0.6450   -1.3510 N   0  0  0  0  0  0  0  0  0  0  0  0
    3.5790   -0.5500   -2.2020 C   0  0  0  0  0  0  0  0  0  0  0  0
    4.4140   -1.6280   -2.0510 O   0  0  0  0  0  0  0  0  0  0  0  0
    4.8680   -1.7820   -0.8480 O   0  0  0  0  0  0  0  0  0  0  0  0
    4.4770   -0.8620   -0.0050 O   0  0  0  0  0  0  0  0  0  0  0  0
    0.2160    0.1690   -0.4190 C   0  0  2  0  0  0  0  0  0  0  0  0
   -0.4410   -1.1540   -0.7360 C   0  0  0  0  0  0  0  0  0  0  0  0
   -1.4980   -1.4870    0.0610 O   0  0  0  0  0  0  0  0  0  0  0  0
   -1.2410   -1.6510    1.3940 C   0  0  0  0  0  0  0  0  0  0  0  0
   -2.5780   -2.0070    2.0620 C   0  0  0  0  0  0  0  0  0  0  0  0
   -2.4030   -2.1910    3.4230 O   0  0  0  0  0  0  0  0  0  0  0  0
   -0.6260    1.2410   -0.5620 O   0  0  0  0  0  0  0  0  0  0  0  0
   -0.7810    2.0560    0.5290 C   0  0  0  0  0  0  0  0  0  0  0  0
   -1.7480    3.1760    0.1260 C   0  0  0  0  0  0  0  0  0  0  0  0
   -2.9670    2.5710   -0.2450 O   0  0  0  0  0  0  0  0  0  0  0  0
   -3.8460    3.4610   -0.6020 O   0  0  0  0  0  0  0  0  0  0  0  0
  1  2  2  0
  2  3  1  0
  2  8  1  0
  3  4  1  0
  4  5  1  0
  5  6  1  0
  6  7  1  0
  8  9  1  6
  8 14  1  0
  9 10  1  0
 10 11  1  0
 11 12  1  0
 12 13  1  0
 14 15  1  0
 15 16  1  0
 16 17  1  0
 17 18  1  0
M  END
