
     RDKit          3D

 18 18  0  0  0  0  0  0  0  0999 V2000
    4.9710    1.4310   -1.0230 O   0  0  0  0  0  0  0  0  0  0  0  0
    4.4250    0.3100   -0.8290 C   0  0  0  0  0  0  0  0  0  0  0  0
    5.2870   -0.7800   -0.6390 O   0  0  0  0  0  0  0  0  0  0  0  0
    3.0370    0.0950   -0.7930 N   0  0  0  0  0  0  0  0  0  0  0  0
    2.1420    1.2200   -0.9880 C   0  0  0  0  0  0  0  0  0  0  0  0
    0.7850    0.8240   -0.9210 O   0  0  0  0  0  0  0  0  0  0  0  0
    0.3460    0.2480    0.2580 C   0  0  0  0  0  0  0  0  0  0  0  0
    1.1560    0.1000    1.2060 O   0  0  0  0  0  0  0  0  0  0  0  0
   -1.0450   -0.1990    0.4320 C   0  0  2  0  0  0  0  0  0  0  0  0
   -1.9290    0.9690    0.2620 C   0  0  0  0  0  0  0  0  0  0  0  0
   -2.6860    1.3410    1.1940 O   0  0  0  0  0  0  0  0  0  0  0  0
   -1.9480    1.6850   -0.9250 O   0  0  0  0  0  0  0  0  0  0  0  0
   -2.7600    2.7460   -1.0610 O   0  0  0  0  0  0  0  0  0  0  0  0
   -1.2730   -0.8270    1.7910 C   0  0  0  0  0  0  0  0  0  0  0  0
   -2.6610   -1.0460    1.8900 O   0  0  0  0  0  0  0  0  0  0  0  0
   -3.1600   -1.6470    0.7450 C   0  0  0  0  0  0  0  0  0  0  0  0
   -2.1640   -2.2410   -0.0250 O   0  0  0  0  0  0  0  0  0  0  0  0
   -1.3230   -1.2780   -0.5990 C   0  0  0  0  0  0  0  0  0  0  0  0
  1  2  2  0
  2  3  1  0
  2  4  1  0
  4  5  1  0
  5  6  1  0
  6  7  1  0
  7  8  2  0
  9  7  1  1
  9 10  1  0
  9 14  1  0
  9 18  1  0
 10 11  2  0
 10 12  1  0
 12 13  1  0
 14 15  1  0
 15 16  1  0
 16 17  1  0
 17 18  1  0
M  END
