
     RDKit          3D

 18 18  0  0  0  0  0  0  0  0999 V2000
   -0.6700    0.2890   -1.4700 C   0  0  0  0  0  0  0  0  0  0  0  0
   -1.2200   -0.2250   -0.1360 C   0  0  1  0  0  0  0  0  0  0  0  0
   -1.8560    0.8840    0.6210 C   0  0  0  0  0  0  0  0  0  0  0  0
   -3.0930    0.8550    0.8580 O   0  0  0  0  0  0  0  0  0  0  0  0
   -1.0940    1.9730    1.0790 N   0  0  0  0  0  0  0  0  0  0  0  0
   -1.6260    3.0160    1.7800 O   0  0  0  0  0  0  0  0  0  0  0  0
   -2.4330    3.7000    0.9840 O   0  0  0  0  0  0  0  0  0  0  0  0
   -2.2480   -1.1050   -0.4990 O   0  0  0  0  0  0  0  0  0  0  0  0
   -1.8190   -2.3660   -0.8380 C   0  0  0  0  0  0  0  0  0  0  0  0
   -1.3160   -2.9780    0.4220 C   0  0  0  0  0  0  0  0  0  0  0  0
   -1.4490   -4.1950    0.6020 O   0  0  0  0  0  0  0  0  0  0  0  0
   -0.7300   -2.0860    1.2970 O   0  0  0  0  0  0  0  0  0  0  0  0
   -0.1690   -0.9160    0.6580 C   0  0  2  0  0  0  0  0  0  0  0  0
    0.4830   -0.1410    1.5950 O   0  0  0  0  0  0  0  0  0  0  0  0
    1.8680   -0.1590    1.4590 C   0  0  0  0  0  0  0  0  0  0  0  0
    2.3860    0.3780    0.1650 C   0  0  0  0  0  0  0  0  0  0  0  0
    3.7900    0.3010    0.1600 O   0  0  0  0  0  0  0  0  0  0  0  0
    4.2490    0.7740   -1.0000 O   0  0  0  0  0  0  0  0  0  0  0  0
  2  1  1  6
  2  3  1  0
  2  8  1  0
  2 13  1  0
  3  4  2  0
  3  5  1  0
  5  6  1  0
  6  7  1  0
  8  9  1  0
  9 10  1  0
 10 11  2  0
 10 12  1  0
 12 13  1  0
 13 14  1  1
 14 15  1  0
 15 16  1  0
 16 17  1  0
 17 18  1  0
M  END
