
     RDKit          3D

 18 17  0  0  0  0  0  0  0  0999 V2000
    2.8060    3.2200   -0.4330 O   0  0  0  0  0  0  0  0  0  0  0  0
    2.4970    2.8190    0.7130 C   0  0  0  0  0  0  0  0  0  0  0  0
    3.0950    3.3640    1.8490 O   0  0  0  0  0  0  0  0  0  0  0  0
    1.5410    1.8150    0.8030 O   0  0  0  0  0  0  0  0  0  0  0  0
    0.9230    1.2430   -0.2640 N   0  0  0  0  0  0  0  0  0  0  0  0
    1.3390   -0.0960   -0.5230 C   0  0  1  0  0  0  0  0  0  0  0  0
    2.8300   -0.1650   -0.8050 C   0  0  0  0  0  0  0  0  0  0  0  0
    3.5890    0.3000    0.2610 O   0  0  0  0  0  0  0  0  0  0  0  0
    1.0290   -1.0940    0.5480 C   0  0  0  0  0  0  0  0  0  0  0  0
   -0.2570   -1.3260    0.8680 O   0  0  0  0  0  0  0  0  0  0  0  0
   -1.1300   -1.8210   -0.0240 C   0  0  1  0  0  0  0  0  0  0  0  0
   -1.6060   -3.2340    0.2840 C   0  0  0  0  0  0  0  0  0  0  0  0
   -2.2400   -3.3420    1.4900 O   0  0  0  0  0  0  0  0  0  0  0  0
   -2.3450   -0.9520   -0.1220 C   0  0  0  0  0  0  0  0  0  0  0  0
   -1.9740    0.3130   -0.5400 O   0  0  0  0  0  0  0  0  0  0  0  0
   -3.0690    1.1690   -0.6510 C   0  0  0  0  0  0  0  0  0  0  0  0
   -2.6020    2.4070   -1.0740 O   0  0  0  0  0  0  0  0  0  0  0  0
   -1.7450    2.9130   -0.2260 O   0  0  0  0  0  0  0  0  0  0  0  0
  1  2  2  0
  2  3  1  0
  2  4  1  0
  4  5  1  0
  5  6  1  0
  6  7  1  1
  6  9  1  0
  7  8  1  0
  9 10  1  0
 10 11  1  0
 11 12  1  1
 11 14  1  0
 12 13  1  0
 14 15  1  0
 15 16  1  0
 16 17  1  0
 17 18  1  0
M  END
