
     RDKit          3D

 37 40  0  0  0  0  0  0  0  0999 V2000
    9.7910    2.7790   -1.0920 C   0  0  0  0  0  0  0  0  0  0  0  0
    8.7750    1.8810   -0.6790 C   0  0  0  0  0  0  0  0  0  0  0  0
    7.5540    0.7950   -0.1810 C   0  0  0  0  0  0  0  0  0  0  0  0
    6.7880    1.8670   -0.1220 C   0  0  0  0  0  0  0  0  0  0  0  0
    5.6130    0.9260    0.5500 C   0  0  0  0  0  0  0  0  0  0  0  0
    6.0670   -0.4120    0.6480 C   0  0  0  0  0  0  0  0  0  0  0  0
    4.7350   -1.1320    0.3140 C   0  0  0  0  0  0  0  0  0  0  0  0
    5.5890   -2.5500    0.7080 O   0  0  0  0  0  0  0  0  0  0  0  0
    3.7560   -1.8620    0.0880 N   0  0  0  0  0  0  0  0  0  0  0  0
    3.1980   -3.1830    0.1490 C   0  0  0  0  0  0  0  0  0  0  0  0
    1.7390   -3.0160    0.4810 C   0  0  0  0  0  0  0  0  0  0  0  0
    1.3560   -1.8820   -0.4740 C   0  0  1  0  0  0  0  0  0  0  0  0
    0.0930   -1.3380   -0.0430 C   0  0  0  0  0  0  0  0  0  0  0  0
   -0.0220   -0.8930    1.2810 N   0  0  0  0  0  0  0  0  0  0  0  0
   -1.6690   -0.4460    1.5860 S   0  0  2  0  0  0  0  0  0  0  0  0
   -1.6600    0.1860    3.0310 O   0  0  0  0  0  0  0  0  0  0  0  0
   -2.5860   -1.6380    1.7560 O   0  0  0  0  0  0  0  0  0  0  0  0
   -2.1790    0.8170    0.5730 C   0  0  0  0  0  0  0  0  0  0  0  0
   -1.4960    2.0250    0.6950 C   0  0  0  0  0  0  0  0  0  0  0  0
   -2.0200    3.0560    0.0460 N   0  0  0  0  0  0  0  0  0  0  0  0
   -3.0440    3.1460   -0.6580 C   0  0  0  0  0  0  0  0  0  0  0  0
   -3.6950    4.3660   -1.0690 N   0  0  0  0  0  0  0  0  0  0  0  0
   -3.3290    5.5200   -0.3250 C   0  0  0  0  0  0  0  0  0  0  0  0
   -2.4560    5.3270    0.5810 O   0  0  0  0  0  0  0  0  0  0  0  0
   -3.8210    6.7930   -0.4970 O   0  0  0  0  0  0  0  0  0  0  0  0
   -3.8180    1.9580   -0.8780 C   0  0  0  0  0  0  0  0  0  0  0  0
   -3.3210    0.7880   -0.2150 C   0  0  0  0  0  0  0  0  0  0  0  0
   -4.1520   -0.3870   -0.4450 C   0  0  0  0  0  0  0  0  0  0  0  0
   -3.8050   -1.6190   -0.3820 N   0  0  0  0  0  0  0  0  0  0  0  0
   -4.7380   -2.6250   -0.6460 N   0  0  0  0  0  0  0  0  0  0  0  0
   -5.9820   -2.1690   -1.2840 C   0  0  0  0  0  0  0  0  0  0  0  0
   -6.4800   -1.0870   -0.4570 N   0  0  0  0  0  0  0  0  0  0  0  0
   -7.2180   -1.5560    0.6800 C   0  0  0  0  0  0  0  0  0  0  0  0
   -5.6310   -0.0510   -0.3060 C   0  0  0  0  0  0  0  0  0  0  0  0
    2.5470   -1.1610   -0.7220 C   0  0  0  0  0  0  0  0  0  0  0  0
    7.1400   -1.1780    0.4220 C   0  0  0  0  0  0  0  0  0  0  0  0
    8.2770   -0.1910   -0.2420 C   0  0  0  0  0  0  0  0  0  0  0  0
  1  2  3  0
  2  3  1  0
  3  4  2  0
  3 37  1  0
  4  5  1  0
  5  6  2  0
  6  7  1  0
  6 36  1  0
  7  8  2  0
  7  9  1  0
  9 10  1  0
  9 35  1  0
 10 11  1  0
 11 12  1  0
 12 13  1  1
 12 35  1  0
 13 14  1  0
 15 14  1  6
 15 16  2  0
 15 17  2  0
 15 18  1  0
 18 19  2  0
 18 27  1  0
 19 20  1  0
 20 21  2  0
 21 22  1  0
 21 26  1  0
 22 23  1  0
 23 24  2  0
 23 25  1  0
 26 27  2  0
 27 28  1  0
 28 29  2  0
 28 34  1  0
 29 30  1  0
 30 31  1  0
 31 32  1  0
 32 33  1  0
 32 34  1  0
 36 37  2  0
M  END
