
     RDKit          3D

 37 41  0  0  0  0  0  0  0  0999 V2000
   -6.3490    3.2290    0.8030 N   0  0  0  0  0  0  0  0  0  0  0  0
   -5.0910    2.6360    0.5530 C   0  0  0  0  0  0  0  0  0  0  0  0
   -4.0720    3.3300    0.8100 O   0  0  0  0  0  0  0  0  0  0  0  0
   -4.9320    1.2610    0.0140 C   0  0  1  0  0  0  0  0  0  0  0  0
   -5.6820    1.0400   -1.2560 C   0  0  0  0  0  0  0  0  0  0  0  0
   -5.2000    2.1030   -2.5860 S   0  0  0  0  0  0  0  0  0  0  0  0
   -5.6190    1.6260   -3.9400 O   0  0  0  0  0  0  0  0  0  0  0  0
   -5.3840    3.7390   -2.3120 O   0  0  0  0  0  0  0  0  0  0  0  0
   -3.5530    0.9550   -0.1040 O   0  0  0  0  0  0  0  0  0  0  0  0
   -2.9470   -0.0300    0.6660 C   0  0  0  0  0  0  0  0  0  0  0  0
   -3.5990   -0.7540    1.5670 N   0  0  0  0  0  0  0  0  0  0  0  0
   -3.0460   -1.7050    2.3200 C   0  0  0  0  0  0  0  0  0  0  0  0
   -3.8000   -2.4050    3.2300 C   0  0  0  0  0  0  0  0  0  0  0  0
   -3.2200   -3.3840    4.0030 C   0  0  0  0  0  0  0  0  0  0  0  0
   -1.8930   -3.6600    3.8660 C   0  0  0  0  0  0  0  0  0  0  0  0
   -1.0980   -2.9610    2.9460 C   0  0  0  0  0  0  0  0  0  0  0  0
   -1.6820   -1.9950    2.1860 C   0  0  0  0  0  0  0  0  0  0  0  0
   -0.9380   -1.2790    1.2650 C   0  0  0  0  0  0  0  0  0  0  0  0
    0.3910   -1.5140    1.0880 C   0  0  0  0  0  0  0  0  0  0  0  0
    1.3160   -2.6960    1.9480 Cl  0  0  0  0  0  0  0  0  0  0  0  0
    1.0620   -0.7350    0.1270 C   0  0  0  0  0  0  0  0  0  0  0  0
    2.4550   -1.0030   -0.0390 N   0  0  0  0  0  0  0  0  0  0  0  0
    3.3370   -0.8160    1.0820 C   0  0  0  0  0  0  0  0  0  0  0  0
    4.5860   -0.1270    0.5110 C   0  0  0  0  0  0  0  0  0  0  0  0
    5.1770   -1.0710   -0.3910 N   0  0  0  0  0  0  0  0  0  0  0  0
    6.5060   -0.6510   -0.7710 C   0  0  0  0  0  0  0  0  0  0  0  0
    6.5390    0.6560   -1.4460 C   0  0  0  0  0  0  0  0  0  0  0  0
    6.6810    1.8470   -0.8690 N   0  0  0  0  0  0  0  0  0  0  0  0
    6.6580    2.7860   -1.8580 C   0  0  0  0  0  0  0  0  0  0  0  0
    6.5030    2.1620   -3.0320 N   0  0  0  0  0  0  0  0  0  0  0  0
    6.4340    0.8800   -2.7620 N   0  0  0  0  0  0  0  0  0  0  0  0
    4.3840   -1.3650   -1.5420 C   0  0  0  0  0  0  0  0  0  0  0  0
    2.9150   -1.4490   -1.3160 C   0  0  0  0  0  0  0  0  0  0  0  0
    0.4170    0.1910   -0.5750 N   0  0  0  0  0  0  0  0  0  0  0  0
   -0.8930    0.4390   -0.4150 C   0  0  0  0  0  0  0  0  0  0  0  0
   -1.5770    1.4250   -1.1640 N   0  0  0  0  0  0  0  0  0  0  0  0
   -1.6040   -0.2910    0.5110 C   0  0  0  0  0  0  0  0  0  0  0  0
  1  2  1  0
  2  3  2  0
  2  4  1  0
  4  5  1  6
  4  9  1  0
  5  6  1  0
  6  7  2  0
  6  8  1  1
  9 10  1  0
 10 11  2  0
 10 37  1  0
 11 12  1  0
 12 13  2  0
 12 17  1  0
 13 14  1  0
 14 15  2  0
 15 16  1  0
 16 17  2  0
 17 18  1  0
 18 19  2  0
 18 37  1  0
 19 20  1  0
 19 21  1  0
 21 22  1  0
 21 34  2  0
 22 23  1  0
 22 33  1  0
 23 24  1  0
 24 25  1  0
 25 26  1  0
 25 32  1  0
 26 27  1  0
 27 28  1  0
 27 31  2  0
 28 29  2  0
 29 30  1  0
 30 31  1  0
 32 33  1  0
 34 35  1  0
 35 36  1  0
 35 37  2  0
M  END
