
     RDKit          3D

 37 41  0  0  0  0  0  0  0  0999 V2000
   -2.7900   -4.3880    0.3720 N   0  0  0  0  0  0  0  0  0  0  0  0
   -2.9320   -4.7550   -0.9820 C   0  0  0  0  0  0  0  0  0  0  0  0
   -3.0790   -6.0090   -1.1860 O   0  0  0  0  0  0  0  0  0  0  0  0
   -2.9240   -3.8760   -2.1180 C   0  0  0  0  0  0  0  0  0  0  0  0
   -2.9770   -4.3190   -3.4080 N   0  0  0  0  0  0  0  0  0  0  0  0
   -2.9420   -3.3060   -4.2490 N   0  0  0  0  0  0  0  0  0  0  0  0
   -2.8670   -2.2090   -3.5180 N   0  0  0  0  0  0  0  0  0  0  0  0
   -2.8540   -2.5120   -2.2110 C   0  0  0  0  0  0  0  0  0  0  0  0
   -2.8130   -1.5960   -1.1360 N   0  0  0  0  0  0  0  0  0  0  0  0
   -4.0120   -1.3580   -0.3840 C   0  0  0  0  0  0  0  0  0  0  0  0
   -3.9380   -0.1300    0.4720 C   0  0  0  0  0  0  0  0  0  0  0  0
   -5.4030    0.7590    0.9080 S   0  0  0  0  0  0  0  0  0  0  0  0
   -5.2570    2.5330    0.5870 C   0  0  0  0  0  0  0  0  0  0  0  0
   -4.3320    3.1710   -0.0190 N   0  0  0  0  0  0  0  0  0  0  0  0
   -4.5490    4.5830   -0.0870 C   0  0  0  0  0  0  0  0  0  0  0  0
   -5.8100    4.8090    0.6760 C   0  0  0  0  0  0  0  0  0  0  0  0
   -6.2550    3.4750    0.9760 N   0  0  0  0  0  0  0  0  0  0  0  0
   -2.7480    0.3010    0.9120 C   0  0  0  0  0  0  0  0  0  0  0  0
   -2.7360    1.4860    1.7520 C   0  0  0  0  0  0  0  0  0  0  0  0
   -1.6130    2.0960    2.0520 C   0  0  0  0  0  0  0  0  0  0  0  0
   -0.3850    1.5240    1.5260 C   0  0  0  0  0  0  0  0  0  0  0  0
   -0.3090    0.4410    0.7910 C   0  0  0  0  0  0  0  0  0  0  0  0
    1.0240    0.0180    0.3370 C   0  0  0  0  0  0  0  0  0  0  0  0
    1.2090   -1.0140   -0.3810 O   0  0  0  0  0  0  0  0  0  0  0  0
    2.1940    0.7260    0.6660 N   0  0  0  0  0  0  0  0  0  0  0  0
    3.4530    0.2580    0.1910 N   0  0  0  0  0  0  0  0  0  0  0  0
    3.9210   -1.0480    0.4700 C   0  0  0  0  0  0  0  0  0  0  0  0
    3.1710   -1.7870    1.1640 O   0  0  0  0  0  0  0  0  0  0  0  0
    5.2440   -1.5410   -0.0330 C   0  0  1  0  0  0  0  0  0  0  0  0
    5.0240   -3.0530   -0.9610 Cl  0  0  0  0  0  0  0  0  0  0  0  0
    5.9080   -0.5790   -0.7510 O   0  0  0  0  0  0  0  0  0  0  0  0
    7.1220   -0.2010   -0.1870 C   0  0  1  0  0  0  0  0  0  0  0  0
    8.2350   -0.1490   -1.2190 C   0  0  0  0  0  0  0  0  0  0  0  0
    8.5670    1.2480   -0.6990 C   0  0  0  0  0  0  0  0  0  0  0  0
    7.1930    1.3120   -0.1110 C   0  0  0  0  0  0  0  0  0  0  0  0
   -1.5000   -0.3510    0.5280 C   0  0  2  0  0  0  0  0  0  0  0  0
   -1.5520   -0.9570   -0.8470 C   0  0  0  0  0  0  0  0  0  0  0  0
  1  2  1  0
  2  3  2  0
  2  4  1  0
  4  5  1  0
  4  8  2  0
  5  6  1  0
  6  7  2  0
  7  8  1  0
  8  9  1  0
  9 10  1  0
  9 37  1  0
 10 11  1  0
 11 12  1  0
 11 18  2  0
 12 13  1  0
 13 14  2  0
 13 17  1  0
 14 15  1  0
 15 16  1  0
 16 17  1  0
 18 19  1  0
 18 36  1  0
 19 20  2  0
 20 21  1  0
 21 22  2  0
 22 23  1  0
 22 36  1  0
 23 24  2  0
 23 25  1  0
 25 26  1  0
 26 27  1  0
 27 28  2  0
 27 29  1  0
 29 30  1  6
 29 31  1  0
 32 31  1  6
 32 33  1  0
 32 35  1  0
 33 34  1  0
 34 35  1  0
 36 37  1  6
M  END
