
     RDKit          3D

 37 40  0  0  0  0  0  0  0  0999 V2000
   -9.2250    2.7080   -1.9790 O   0  0  0  0  0  0  0  0  0  0  0  0
   -8.9010    1.6270   -1.3180 C   0  0  0  0  0  0  0  0  0  0  0  0
   -9.1160    1.7550    0.0290 O   0  0  0  0  0  0  0  0  0  0  0  0
   -8.3790    0.4880   -2.0680 C   0  0  0  0  0  0  0  0  0  0  0  0
   -8.1170   -0.6970   -1.4220 O   0  0  0  0  0  0  0  0  0  0  0  0
   -7.2290   -0.7980   -0.3080 C   0  0  0  0  0  0  0  0  0  0  0  0
   -7.7680   -0.8900    0.9610 C   0  0  0  0  0  0  0  0  0  0  0  0
   -9.1460   -0.9960    1.4440 C   0  0  0  0  0  0  0  0  0  0  0  0
  -10.0840   -1.0400    0.6320 O   0  0  0  0  0  0  0  0  0  0  0  0
   -9.4290   -1.0490    2.8050 O   0  0  0  0  0  0  0  0  0  0  0  0
   -6.3660   -0.9740    2.0020 S   0  0  0  0  0  0  0  0  0  0  0  0
   -5.1050   -0.8840    0.6720 C   0  0  0  0  0  0  0  0  0  0  0  0
   -3.6960   -0.9160    0.9860 C   0  0  0  0  0  0  0  0  0  0  0  0
   -3.3090   -1.0120    2.3160 C   0  0  0  0  0  0  0  0  0  0  0  0
   -1.9870   -1.0510    2.7240 C   0  0  0  0  0  0  0  0  0  0  0  0
   -0.9810   -0.9930    1.7800 C   0  0  0  0  0  0  0  0  0  0  0  0
   -1.3370   -0.8970    0.4620 C   0  0  0  0  0  0  0  0  0  0  0  0
   -0.3380   -0.8270   -0.5530 N   0  0  0  0  0  0  0  0  0  0  0  0
    1.0660   -0.7130   -0.2300 C   0  0  1  0  0  0  0  0  0  0  0  0
    1.8380   -0.7850   -1.5520 C   0  0  0  0  0  0  0  0  0  0  0  0
    3.3050   -0.5250   -1.3390 C   0  0  0  0  0  0  0  0  0  0  0  0
    3.6610   -0.0870   -0.0570 N   0  0  0  0  0  0  0  0  0  0  0  0
    5.2910   -0.1150    0.3490 S   0  0  2  0  0  0  0  0  0  0  0  0
    5.8140   -1.5270    0.1230 O   0  0  0  0  0  0  0  0  0  0  0  0
    5.6060    0.3080    1.7290 O   0  0  0  0  0  0  0  0  0  0  0  0
    6.1930    0.9730   -0.7600 C   0  0  0  0  0  0  0  0  0  0  0  0
    7.6170    0.9240   -0.3750 C   0  0  0  0  0  0  0  0  0  0  0  0
    8.0970    1.8110    0.5490 C   0  0  0  0  0  0  0  0  0  0  0  0
    9.4380    1.7690    0.9180 C   0  0  0  0  0  0  0  0  0  0  0  0
   10.2440    0.8200    0.3280 C   0  0  0  0  0  0  0  0  0  0  0  0
    9.7670   -0.0820   -0.6080 C   0  0  0  0  0  0  0  0  0  0  0  0
    8.4390   -0.0100   -0.9470 C   0  0  0  0  0  0  0  0  0  0  0  0
    2.8080    0.7780    0.6400 C   0  0  0  0  0  0  0  0  0  0  0  0
    1.3590    0.6780    0.2950 C   0  0  0  0  0  0  0  0  0  0  0  0
   -2.6820   -0.8590    0.0700 C   0  0  0  0  0  0  0  0  0  0  0  0
   -5.8780   -0.8000   -0.3990 C   0  0  0  0  0  0  0  0  0  0  0  0
   -5.0700   -0.6740   -2.1830 Br  0  0  0  0  0  0  0  0  0  0  0  0
  1  2  2  0
  2  3  1  0
  2  4  1  0
  4  5  1  0
  5  6  1  0
  6  7  2  0
  6 36  1  0
  7  8  1  0
  7 11  1  0
  8  9  2  0
  8 10  1  0
 11 12  1  0
 12 13  1  0
 12 36  2  0
 13 14  2  0
 13 35  1  0
 14 15  1  0
 15 16  2  0
 16 17  1  0
 17 18  1  0
 17 35  2  0
 19 18  1  6
 19 20  1  0
 19 34  1  0
 20 21  1  0
 21 22  1  0
 22 23  1  0
 22 33  1  0
 23 24  2  0
 23 25  2  0
 23 26  1  6
 26 27  1  0
 27 28  2  0
 27 32  1  0
 28 29  1  0
 29 30  2  0
 30 31  1  0
 31 32  2  0
 33 34  1  0
 36 37  1  0
M  END
