
     RDKit          3D

 37 41  0  0  0  0  0  0  0  0999 V2000
    2.0440    0.0330   -1.1560 C   0  0  0  0  0  0  0  0  0  0  0  0
    2.4840    0.0830    0.2890 C   0  0  2  0  0  0  0  0  0  0  0  0
    1.3260    0.6540    1.0840 C   0  0  0  0  0  0  0  0  0  0  0  0
    0.7600    0.0030    1.9960 O   0  0  0  0  0  0  0  0  0  0  0  0
    0.8440    1.9570    0.8170 N   0  0  0  0  0  0  0  0  0  0  0  0
   -0.2060    2.5940    1.4730 N   0  0  0  0  0  0  0  0  0  0  0  0
   -1.5490    2.2330    1.4230 C   0  0  0  0  0  0  0  0  0  0  0  0
   -2.4500    2.5850    0.4460 C   0  0  0  0  0  0  0  0  0  0  0  0
   -3.6970    2.0450    0.7540 C   0  0  0  0  0  0  0  0  0  0  0  0
   -4.8990    2.2080   -0.0690 C   0  0  0  0  0  0  0  0  0  0  0  0
   -4.9800    0.7810   -1.1960 S   0  0  0  0  0  0  0  0  0  0  0  0
   -5.2810   -0.6830   -0.1610 C   0  0  2  0  0  0  0  0  0  0  0  0
   -5.3540   -1.9010   -1.0220 C   0  0  0  0  0  0  0  0  0  0  0  0
   -6.7060   -2.2160   -1.5680 C   0  0  0  0  0  0  0  0  0  0  0  0
   -7.6180   -1.0180   -1.6570 C   0  0  0  0  0  0  0  0  0  0  0  0
   -7.7120   -0.2340   -0.3920 C   0  0  0  0  0  0  0  0  0  0  0  0
   -6.5750   -0.4590    0.5670 C   0  0  1  0  0  0  0  0  0  0  0  0
   -6.8840   -1.5100    1.6000 C   0  0  0  0  0  0  0  0  0  0  0  0
   -3.5050    1.3880    1.9050 N   0  0  0  0  0  0  0  0  0  0  0  0
   -2.2260    1.4970    2.3070 N   0  0  0  0  0  0  0  0  0  0  0  0
    3.6520    1.0230    0.4820 C   0  0  2  0  0  0  0  0  0  0  0  0
    4.8160    0.7280   -0.2400 N   0  0  0  0  0  0  0  0  0  0  0  0
    5.8130    0.5030    0.5110 C   0  0  0  0  0  0  0  0  0  0  0  0
    7.2220    0.1570    0.0650 C   0  0  2  0  0  0  0  0  0  0  0  0
    7.3050    0.1310   -1.3820 N   0  0  0  0  0  0  0  0  0  0  0  0
    8.3520   -0.5900   -2.0320 C   0  0  0  0  0  0  0  0  0  0  0  0
    8.8980   -0.5530   -3.2090 O   0  0  0  0  0  0  0  0  0  0  0  0
    9.8370   -1.4320   -3.3220 N   0  0  0  0  0  0  0  0  0  0  0  0
    9.9260   -2.1020   -2.1430 C   0  0  0  0  0  0  0  0  0  0  0  0
   11.0130   -3.3960   -1.7130 Cl  0  0  0  0  0  0  0  0  0  0  0  0
    8.9760   -1.5740   -1.2950 C   0  0  0  0  0  0  0  0  0  0  0  0
    8.6120   -1.8810    0.0610 N   0  0  0  0  0  0  0  0  0  0  0  0
    7.5640   -1.1350    0.6620 C   0  0  0  0  0  0  0  0  0  0  0  0
    6.9600   -1.5590    1.6560 O   0  0  0  0  0  0  0  0  0  0  0  0
    5.4270    0.6100    1.8690 N   0  0  0  0  0  0  0  0  0  0  0  0
    4.0520    0.9320    1.9030 C   0  0  0  0  0  0  0  0  0  0  0  0
    3.3920    1.0880    2.9620 O   0  0  0  0  0  0  0  0  0  0  0  0
  2  1  1  6
  2  3  1  0
  2 21  1  0
  3  4  2  0
  3  5  1  0
  5  6  1  0
  6  7  1  0
  7  8  2  0
  7 20  1  0
  8  9  1  0
  9 10  1  0
  9 19  2  0
 10 11  1  0
 12 11  1  6
 12 13  1  0
 12 17  1  0
 13 14  1  0
 14 15  1  0
 15 16  1  0
 16 17  1  0
 17 18  1  6
 19 20  1  0
 21 22  1  6
 21 36  1  0
 22 23  2  0
 24 23  1  6
 23 35  1  0
 24 25  1  0
 24 33  1  0
 25 26  1  0
 26 27  1  0
 26 31  2  0
 27 28  1  0
 28 29  2  0
 29 30  1  0
 29 31  1  0
 31 32  1  0
 32 33  1  0
 33 34  2  0
 35 36  1  0
 36 37  2  0
M  END
