
     RDKit          3D

 37 40  0  0  0  0  0  0  0  0999 V2000
   -8.1910    1.5130    3.0040 C   0  0  0  0  0  0  0  0  0  0  0  0
   -7.2410    1.5300    1.8220 C   0  0  0  0  0  0  0  0  0  0  0  0
   -7.5600    0.3560    0.9260 C   0  0  2  0  0  0  0  0  0  0  0  0
   -7.3960   -0.8630    1.6800 N   0  0  0  0  0  0  0  0  0  0  0  0
   -7.4670   -2.0510    0.9060 C   0  0  0  0  0  0  0  0  0  0  0  0
   -6.8640   -1.9870   -0.4620 C   0  0  0  0  0  0  0  0  0  0  0  0
   -7.2610   -0.7230   -1.2110 C   0  0  0  0  0  0  0  0  0  0  0  0
   -6.7280    0.4220   -0.2990 C   0  0  2  0  0  0  0  0  0  0  0  0
   -5.2810    0.1430   -0.0780 C   0  0  0  0  0  0  0  0  0  0  0  0
   -4.3660    0.5130   -1.0650 C   0  0  0  0  0  0  0  0  0  0  0  0
   -3.0190    0.2910   -0.9150 C   0  0  0  0  0  0  0  0  0  0  0  0
   -2.0720    0.6440   -1.9090 N   0  0  0  0  0  0  0  0  0  0  0  0
   -0.6850    0.4000   -1.6980 C   0  0  0  0  0  0  0  0  0  0  0  0
   -0.2270   -0.1220   -0.6450 O   0  0  0  0  0  0  0  0  0  0  0  0
    0.2920    0.7460   -2.6940 N   0  0  0  0  0  0  0  0  0  0  0  0
    1.6530    0.5210   -2.4990 N   0  0  0  0  0  0  0  0  0  0  0  0
    2.2530   -0.6780   -2.0950 C   0  0  0  0  0  0  0  0  0  0  0  0
    1.5280   -1.6810   -1.8750 O   0  0  0  0  0  0  0  0  0  0  0  0
    3.7200   -0.7730   -1.9250 C   0  0  0  0  0  0  0  0  0  0  0  0
    4.6450    0.2170   -2.1580 C   0  0  0  0  0  0  0  0  0  0  0  0
    5.8930   -0.3170   -1.8660 C   0  0  0  0  0  0  0  0  0  0  0  0
    7.1810    0.3750   -1.9640 C   0  0  0  0  0  0  0  0  0  0  0  0
    8.1680    0.2290   -1.1300 C   0  0  0  0  0  0  0  0  0  0  0  0
    9.4320    0.8480   -1.1460 N   0  0  0  0  0  0  0  0  0  0  0  0
   10.4390    0.1440   -0.4810 C   0  0  0  0  0  0  0  0  0  0  0  0
   11.6860    0.1020   -0.8040 O   0  0  0  0  0  0  0  0  0  0  0  0
    9.9730   -0.6110    0.7090 C   0  0  1  0  0  0  0  0  0  0  0  0
   10.0710    0.2080    1.9690 C   0  0  0  0  0  0  0  0  0  0  0  0
   11.4890    0.6400    2.2560 C   0  0  0  0  0  0  0  0  0  0  0  0
    8.2120   -0.8230    0.3070 S   0  0  0  0  0  0  0  0  0  0  0  0
    5.6550   -1.5820   -1.4790 N   0  0  0  0  0  0  0  0  0  0  0  0
    4.3630   -1.8170   -1.5260 O   0  0  0  0  0  0  0  0  0  0  0  0
   -2.5880   -0.3020    0.2250 N   0  0  0  0  0  0  0  0  0  0  0  0
   -3.4620   -0.6680    1.1930 C   0  0  0  0  0  0  0  0  0  0  0  0
   -3.0570   -1.2910    2.4110 N   0  0  0  0  0  0  0  0  0  0  0  0
   -2.6660   -0.3650    3.8380 Cl  0  0  0  0  0  0  0  0  0  0  0  0
   -4.7650   -0.4310    1.0020 N   0  0  0  0  0  0  0  0  0  0  0  0
  1  2  1  0
  3  2  1  1
  3  4  1  0
  3  8  1  0
  4  5  1  0
  5  6  1  0
  6  7  1  0
  7  8  1  0
  8  9  1  1
  9 10  2  0
  9 37  1  0
 10 11  1  0
 11 12  1  0
 11 33  2  0
 12 13  1  0
 13 14  2  0
 13 15  1  0
 15 16  1  0
 16 17  1  0
 17 18  2  0
 17 19  1  0
 19 20  2  0
 19 32  1  0
 20 21  1  0
 21 22  1  0
 21 31  2  0
 22 23  2  3
 23 24  1  0
 23 30  1  0
 24 25  1  0
 25 26  2  0
 25 27  1  0
 27 28  1  1
 27 30  1  0
 28 29  1  0
 31 32  1  0
 33 34  1  0
 34 35  1  0
 34 37  2  0
 35 36  1  0
M  END
