
     RDKit          3D

 37 40  0  0  0  0  0  0  0  0999 V2000
    6.6620   -1.4820    1.9140 C   0  0  0  0  0  0  0  0  0  0  0  0
    7.2940   -0.4490    0.9740 C   0  0  0  0  0  0  0  0  0  0  0  0
    8.4610    0.0970    1.0860 O   0  0  0  0  0  0  0  0  0  0  0  0
    8.5460    1.0350    0.1490 C   0  0  0  0  0  0  0  0  0  0  0  0
    9.4520    2.0670   -0.2190 C   0  0  0  0  0  0  0  0  0  0  0  0
   10.1950    2.9390   -0.5220 N   0  0  0  0  0  0  0  0  0  0  0  0
    7.3130    0.9790   -0.6290 C   0  0  0  0  0  0  0  0  0  0  0  0
    6.5490    0.0160   -0.0650 C   0  0  0  0  0  0  0  0  0  0  0  0
    5.3440   -0.6110   -0.5950 C   0  0  0  0  0  0  0  0  0  0  0  0
    4.4160    0.3520   -1.7220 S   0  0  2  0  0  0  0  0  0  0  0  0
    5.0450    0.1920   -3.1300 O   0  0  0  0  0  0  0  0  0  0  0  0
    4.3250    1.7560   -1.2920 O   0  0  0  0  0  0  0  0  0  0  0  0
    2.7600   -0.3690   -1.9240 C   0  0  0  0  0  0  0  0  0  0  0  0
    2.0980   -0.4590   -0.6410 C   0  0  0  0  0  0  0  0  0  0  0  0
    0.7990   -1.1290   -0.4980 C   0  0  0  0  0  0  0  0  0  0  0  0
   -0.3860   -0.5090   -0.5530 C   0  0  0  0  0  0  0  0  0  0  0  0
   -1.5820   -1.2260   -0.8050 C   0  0  0  0  0  0  0  0  0  0  0  0
   -2.8740   -0.5400   -0.5660 N   0  0  0  0  0  0  0  0  0  0  0  0
   -3.1930   -0.5760    0.8260 C   0  0  0  0  0  0  0  0  0  0  0  0
   -2.9130    0.7160    1.5980 C   0  0  0  0  0  0  0  0  0  0  0  0
   -3.9140    1.2730    2.0580 C   0  0  0  0  0  0  0  0  0  0  0  0
   -4.7230    1.7360    2.4360 C   0  0  0  0  0  0  0  0  0  0  0  0
   -5.8610    2.4130    2.9830 C   0  0  0  0  0  0  0  0  0  0  0  0
   -7.0200    1.7170    2.1190 N   0  0  0  0  0  0  0  0  0  0  0  0
   -7.1530    0.5480    1.3760 C   0  0  0  0  0  0  0  0  0  0  0  0
   -7.9670   -0.2920    2.0480 O   0  0  0  0  0  0  0  0  0  0  0  0
   -6.6660    0.0090    0.1480 C   0  0  0  0  0  0  0  0  0  0  0  0
   -5.8960    0.9990   -0.7010 C   0  0  0  0  0  0  0  0  0  0  0  0
   -4.9900    0.3720   -1.6110 N   0  0  0  0  0  0  0  0  0  0  0  0
   -3.5300    0.1980   -1.5420 C   0  0  0  0  0  0  0  0  0  0  0  0
   -2.8930    0.7850   -2.4290 O   0  0  0  0  0  0  0  0  0  0  0  0
   -1.5910   -2.5360   -1.0050 C   0  0  0  0  0  0  0  0  0  0  0  0
   -0.3310   -3.1860   -0.9340 C   0  0  0  0  0  0  0  0  0  0  0  0
    0.0090   -4.5460   -0.9060 N   0  0  0  0  0  0  0  0  0  0  0  0
    1.3210   -4.6790   -0.6290 N   0  0  0  0  0  0  0  0  0  0  0  0
    1.7630   -3.4080   -0.4970 N   0  0  0  0  0  0  0  0  0  0  0  0
    0.7970   -2.5270   -0.6880 C   0  0  0  0  0  0  0  0  0  0  0  0
  1  2  1  0
  2  3  1  0
  2  8  2  0
  3  4  1  0
  4  5  1  0
  4  7  2  0
  5  6  3  0
  7  8  1  0
  8  9  1  0
 10  9  1  1
 10 11  2  0
 10 12  2  0
 10 13  1  0
 13 14  1  0
 14 15  1  0
 15 16  2  0
 15 37  1  0
 16 17  1  0
 17 18  1  0
 17 32  2  0
 18 19  1  0
 18 30  1  0
 19 20  1  0
 20 21  1  0
 21 22  3  0
 22 23  1  0
 23 24  1  0
 24 25  1  0
 25 26  2  0
 25 27  1  0
 27 28  1  0
 28 29  1  0
 29 30  1  0
 30 31  2  0
 32 33  1  0
 33 34  1  0
 33 37  2  0
 34 35  1  0
 35 36  2  0
 36 37  1  0
M  END
