
     RDKit          3D

 31 35  0  0  0  0  0  0  0  0999 V2000
   -3.4720   -1.1620    1.5800 C   0  0  0  0  0  0  0  0  0  0  0  0
   -3.1630   -1.9100    0.3100 C   0  0  1  0  0  0  0  0  0  0  0  0
   -1.7030   -1.8980   -0.0230 C   0  0  2  0  0  0  0  0  0  0  0  0
   -0.9730   -2.5140    1.1490 C   0  0  0  0  0  0  0  0  0  0  0  0
    0.4340   -2.0220    0.9590 C   0  0  0  0  0  0  0  0  0  0  0  0
    0.2430   -0.7280    0.2570 C   0  0  0  0  0  0  0  0  0  0  0  0
    1.1740    0.3100    0.1380 C   0  0  0  0  0  0  0  0  0  0  0  0
    2.5060    0.2030    0.7580 C   0  0  0  0  0  0  0  0  0  0  0  0
    3.3810    1.3060    0.5830 N   0  0  1  0  0  0  0  0  0  0  0  0
    4.3730    1.2270    1.6650 C   0  0  0  0  0  0  0  0  0  0  0  0
    5.4090    0.1780    1.3910 C   0  0  0  0  0  0  0  0  0  0  0  0
    6.2040    0.5740    0.3170 O   0  0  0  0  0  0  0  0  0  0  0  0
    5.5610    1.5370   -0.4350 C   0  0  1  0  0  0  0  0  0  0  0  0
    6.2890    1.5940   -1.7790 C   0  0  0  0  0  0  0  0  0  0  0  0
    8.0020    2.0370   -1.4730 Cl  0  0  0  0  0  0  0  0  0  0  0  0
    4.1080    1.2490   -0.6730 C   0  0  0  0  0  0  0  0  0  0  0  0
    0.8280    1.4320   -0.5650 C   0  0  0  0  0  0  0  0  0  0  0  0
   -0.3870    1.4920   -1.1090 N   0  0  0  0  0  0  0  0  0  0  0  0
   -1.2770    0.5020   -0.9960 C   0  0  0  0  0  0  0  0  0  0  0  0
   -2.8200    0.7010   -1.8320 S   0  0  0  0  0  0  0  0  0  0  0  0
   -3.9850    1.6280   -0.8070 C   0  0  0  0  0  0  0  0  0  0  0  0
   -3.5410    3.0240   -0.5940 C   0  0  0  0  0  0  0  0  0  0  0  0
   -2.7750    3.5070    0.3890 N   0  0  0  0  0  0  0  0  0  0  0  0
   -2.6080    4.8350    0.2090 C   0  0  0  0  0  0  0  0  0  0  0  0
   -3.2770    5.1240   -0.8790 O   0  0  0  0  0  0  0  0  0  0  0  0
   -3.8480    4.0590   -1.3840 N   0  0  0  0  0  0  0  0  0  0  0  0
   -1.0300   -0.6700   -0.3110 C   0  0  0  0  0  0  0  0  0  0  0  0
   -3.4420   -3.3930    0.6530 C   0  0  0  0  0  0  0  0  0  0  0  0
   -4.8790   -3.5070    0.2480 C   0  0  0  0  0  0  0  0  0  0  0  0
   -4.9290   -2.5550   -0.9240 C   0  0  0  0  0  0  0  0  0  0  0  0
   -3.9900   -1.5940   -0.7140 O   0  0  0  0  0  0  0  0  0  0  0  0
  2  1  1  1
  2  3  1  0
  2 28  1  0
  2 31  1  0
  3  4  1  1
  3 27  1  0
  4  5  1  0
  5  6  1  0
  6  7  2  0
  6 27  1  0
  7  8  1  0
  7 17  1  0
  9  8  1  6
  9 10  1  0
  9 16  1  0
 10 11  1  0
 11 12  1  0
 12 13  1  0
 13 14  1  6
 13 16  1  0
 14 15  1  0
 17 18  2  0
 18 19  1  0
 19 20  1  0
 19 27  2  0
 20 21  1  0
 21 22  1  0
 22 23  1  0
 22 26  2  0
 23 24  2  0
 24 25  1  0
 25 26  1  0
 28 29  1  0
 29 30  1  0
 30 31  1  0
M  CHG  1   9   1
M  END
