
     RDKit          3D

 28 30  0  0  0  0  0  0  0  0999 V2000
    3.5840    3.1500   -1.0770 O   0  0  0  0  0  0  0  0  0  0  0  0
    4.0600    2.6690   -2.1070 C   0  0  0  0  0  0  0  0  0  0  0  0
    4.3830    3.5970   -3.1480 O   0  0  0  0  0  0  0  0  0  0  0  0
    4.3550    1.2780   -2.4440 C   0  0  0  0  0  0  0  0  0  0  0  0
    4.1840    0.2760   -1.5380 O   0  0  0  0  0  0  0  0  0  0  0  0
    2.9930   -0.0730   -0.8400 C   0  0  0  0  0  0  0  0  0  0  0  0
    2.8500    0.3590    0.4360 C   0  0  0  0  0  0  0  0  0  0  0  0
    3.7990    1.1030    1.3100 C   0  0  0  0  0  0  0  0  0  0  0  0
    3.4510    1.4420    2.4680 O   0  0  0  0  0  0  0  0  0  0  0  0
    5.0720    1.4460    0.9020 O   0  0  0  0  0  0  0  0  0  0  0  0
    1.3020   -0.2460    0.9070 S   0  0  0  0  0  0  0  0  0  0  0  0
    0.8960   -1.0690   -0.6380 C   0  0  0  0  0  0  0  0  0  0  0  0
   -0.3700   -1.7760   -0.7840 C   0  0  0  0  0  0  0  0  0  0  0  0
   -0.7170   -2.4260   -1.9350 C   0  0  0  0  0  0  0  0  0  0  0  0
   -1.9510   -3.0740   -1.9870 C   0  0  0  0  0  0  0  0  0  0  0  0
   -2.8110   -3.0670   -0.9110 C   0  0  0  0  0  0  0  0  0  0  0  0
   -2.4880   -2.4210    0.2590 C   0  0  0  0  0  0  0  0  0  0  0  0
   -3.3370   -2.3930    1.3890 N   0  0  0  0  0  0  0  0  0  0  0  0
   -3.0200   -1.6390    2.5700 C   0  0  0  0  0  0  0  0  0  0  0  0
   -2.9510   -0.1810    2.2890 C   0  0  0  0  0  0  0  0  0  0  0  0
   -2.4630    0.6620    3.2600 C   0  0  0  0  0  0  0  0  0  0  0  0
   -2.3750    2.0230    3.0720 C   0  0  0  0  0  0  0  0  0  0  0  0
   -2.7920    2.5670    1.8670 C   0  0  0  0  0  0  0  0  0  0  0  0
   -3.2830    1.7380    0.8860 C   0  0  0  0  0  0  0  0  0  0  0  0
   -3.3670    0.3720    1.0820 C   0  0  0  0  0  0  0  0  0  0  0  0
   -1.2710   -1.7880    0.2960 C   0  0  0  0  0  0  0  0  0  0  0  0
    1.9670   -0.8100   -1.3680 C   0  0  0  0  0  0  0  0  0  0  0  0
    2.1170   -1.4680   -3.2170 Br  0  0  0  0  0  0  0  0  0  0  0  0
  1  2  2  0
  2  3  1  0
  2  4  1  0
  4  5  1  0
  5  6  1  0
  6  7  2  0
  6 27  1  0
  7  8  1  0
  7 11  1  0
  8  9  2  0
  8 10  1  0
 11 12  1  0
 12 13  1  0
 12 27  2  0
 13 14  2  0
 13 26  1  0
 14 15  1  0
 15 16  2  0
 16 17  1  0
 17 18  1  0
 17 26  2  0
 18 19  1  0
 19 20  1  0
 20 21  2  0
 20 25  1  0
 21 22  1  0
 22 23  2  0
 23 24  1  0
 24 25  2  0
 27 28  1  0
M  END
