
     RDKit          3D

 15 15  0  0  0  0  0  0  0  0999 V2000
   -4.9990    0.8550    0.8000 C   0  0  0  0  0  0  0  0  0  0  0  0
   -3.4780    0.8660    0.7180 C   0  0  0  0  0  0  0  0  0  0  0  0
   -3.1060   -0.2510   -0.0610 O   0  0  0  0  0  0  0  0  0  0  0  0
   -1.7810   -0.5550   -0.3450 C   0  0  0  0  0  0  0  0  0  0  0  0
   -0.7450    0.2470    0.1380 C   0  0  0  0  0  0  0  0  0  0  0  0
    0.5700   -0.0360   -0.1300 C   0  0  0  0  0  0  0  0  0  0  0  0
    1.5630    0.7690    0.3570 O   0  0  0  0  0  0  0  0  0  0  0  0
    2.9140    0.4670    0.0730 C   0  0  0  0  0  0  0  0  0  0  0  0
    3.8390    1.4550    0.6890 C   0  0  0  0  0  0  0  0  0  0  0  0
    5.2930    1.3280    0.5170 C   0  0  0  0  0  0  0  0  0  0  0  0
    3.3470    2.3630    1.3330 O   0  0  0  0  0  0  0  0  0  0  0  0
    0.8700   -1.1320   -0.8910 C   0  0  0  0  0  0  0  0  0  0  0  0
   -0.1140   -1.9660   -1.3990 C   0  0  0  0  0  0  0  0  0  0  0  0
   -1.4270   -1.6450   -1.1040 C   0  0  0  0  0  0  0  0  0  0  0  0
   -2.4900   -2.4370   -1.5790 O   0  0  0  0  0  0  0  0  0  0  0  0
  1  2  1  0
  2  3  1  0
  3  4  1  0
  4  5  2  0
  4 14  1  0
  5  6  1  0
  6  7  1  0
  6 12  2  0
  7  8  1  0
  8  9  1  0
  9 10  1  0
  9 11  2  0
 12 13  1  0
 13 14  2  0
 14 15  1  0
M  END
