
     RDKit          3D

 15 15  0  0  0  0  0  0  0  0999 V2000
   -5.7510   -0.4480   -0.5120 C   0  0  0  0  0  0  0  0  0  0  0  0
   -5.1260    0.6000    0.1360 O   0  0  0  0  0  0  0  0  0  0  0  0
   -3.7500    0.5700    0.0360 C   0  0  0  0  0  0  0  0  0  0  0  0
   -3.1060   -0.6400    0.6010 C   0  0  0  0  0  0  0  0  0  0  0  0
   -1.7130   -0.5480    0.4370 O   0  0  0  0  0  0  0  0  0  0  0  0
   -0.9440    0.4280    0.9970 C   0  0  0  0  0  0  0  0  0  0  0  0
   -1.4470    1.3170    1.7090 O   0  0  0  0  0  0  0  0  0  0  0  0
    0.4800    0.4490    0.7740 C   0  0  0  0  0  0  0  0  0  0  0  0
    1.0200   -0.4840    0.0250 C   0  0  0  0  0  0  0  0  0  0  0  0
    2.4780   -0.4930   -0.2260 C   0  0  0  0  0  0  0  0  0  0  0  0
    3.1760   -1.4040   -0.9860 C   0  0  0  0  0  0  0  0  0  0  0  0
    4.4830   -1.0220   -0.9350 C   0  0  0  0  0  0  0  0  0  0  0  0
    4.5640    0.1130   -0.1470 C   0  0  0  0  0  0  0  0  0  0  0  0
    5.8130    0.8780    0.1840 C   0  0  0  0  0  0  0  0  0  0  0  0
    3.3390    0.3710    0.2400 O   0  0  0  0  0  0  0  0  0  0  0  0
  1  2  1  0
  2  3  1  0
  3  4  1  0
  4  5  1  0
  5  6  1  0
  6  7  2  0
  6  8  1  0
  8  9  2  3
  9 10  1  0
 10 11  2  0
 10 15  1  0
 11 12  1  0
 12 13  2  0
 13 14  1  0
 13 15  1  0
M  END
