
     RDKit          3D

 20 20  0  0  0  0  0  0  0  0999 V2000
    4.5000   -4.2110    0.2050 C   0  0  0  0  0  0  0  0  0  0  0  0
    4.2140   -3.3400   -0.7270 C   0  0  0  0  0  0  0  0  0  0  0  0
    2.8930   -2.8030   -1.0320 C   0  0  0  0  0  0  0  0  0  0  0  0
    1.8140   -3.0450   -0.0190 C   0  0  0  0  0  0  0  0  0  0  0  0
    2.1060   -2.3470    1.2520 C   0  0  0  0  0  0  0  0  0  0  0  0
    2.1950   -0.8320    1.1430 C   0  0  0  0  0  0  0  0  0  0  0  0
    0.9690   -0.2180    0.6790 C   0  0  0  0  0  0  0  0  0  0  0  0
    0.8380    0.5900   -0.3510 C   0  0  0  0  0  0  0  0  0  0  0  0
    1.9940    0.9620   -1.1640 C   0  0  0  0  0  0  0  0  0  0  0  0
   -0.4650    1.1410   -0.7210 C   0  0  0  0  0  0  0  0  0  0  0  0
   -0.5970    1.9290   -1.7360 C   0  0  0  0  0  0  0  0  0  0  0  0
   -1.9150    2.4860   -2.1070 C   0  0  0  0  0  0  0  0  0  0  0  0
   -3.1310    1.8530   -2.0410 C   0  0  0  0  0  0  0  0  0  0  0  0
   -4.0640    2.7760   -2.4910 C   0  0  0  0  0  0  0  0  0  0  0  0
   -3.3710    3.9270   -2.8110 C   0  0  0  0  0  0  0  0  0  0  0  0
   -2.1290    3.6770   -2.5600 O   0  0  0  0  0  0  0  0  0  0  0  0
   -1.5550    0.7940    0.0500 O   0  0  0  0  0  0  0  0  0  0  0  0
   -2.0270    1.4810    1.1690 C   0  0  0  0  0  0  0  0  0  0  0  0
   -3.2520    0.8040    1.7690 C   0  0  0  0  0  0  0  0  0  0  0  0
   -3.7570    1.5470    2.9750 C   0  0  0  0  0  0  0  0  0  0  0  0
  1  2  2  0
  2  3  1  0
  3  4  1  0
  4  5  1  0
  5  6  1  0
  6  7  1  0
  7  8  2  3
  8  9  1  0
  8 10  1  0
 10 11  2  3
 10 17  1  0
 11 12  1  0
 12 13  2  0
 12 16  1  0
 13 14  1  0
 14 15  2  0
 15 16  1  0
 17 18  1  0
 18 19  1  0
 19 20  1  0
M  END
