
     RDKit          3D

 15 16  0  0  0  0  0  0  0  0999 V2000
    3.9740   -0.0420   -1.1430 Cl  0  0  0  0  0  0  0  0  0  0  0  0
    3.7360   -0.5380    0.4930 C   0  0  0  0  0  0  0  0  0  0  0  0
    2.3830   -0.5080    0.9950 C   0  0  0  0  0  0  0  0  0  0  0  0
    1.2320   -0.1930    0.5520 C   0  0  0  0  0  0  0  0  0  0  0  0
    0.8070    0.2850   -0.6870 N   0  0  0  0  0  0  0  0  0  0  0  0
    1.6070    0.6500   -1.6970 N   0  0  0  0  0  0  0  0  0  0  0  0
    0.9320    1.0730   -2.7300 N   0  0  0  0  0  0  0  0  0  0  0  0
   -0.3250    0.9820   -2.3870 N   0  0  0  0  0  0  0  0  0  0  0  0
   -0.4440    0.4850   -1.1000 C   0  0  0  0  0  0  0  0  0  0  0  0
   -1.7330    0.2910   -0.4530 C   0  0  0  0  0  0  0  0  0  0  0  0
   -2.0970   -0.3620    0.6760 C   0  0  0  0  0  0  0  0  0  0  0  0
   -3.4850   -0.2350    0.8590 C   0  0  0  0  0  0  0  0  0  0  0  0
   -3.8990    0.5150   -0.2120 C   0  0  0  0  0  0  0  0  0  0  0  0
   -5.5910    0.9860   -0.4890 Cl  0  0  0  0  0  0  0  0  0  0  0  0
   -2.8790    0.7940   -0.9320 O   0  0  0  0  0  0  0  0  0  0  0  0
  1  2  1  0
  2  3  1  0
  3  4  2  3
  4  5  1  0
  5  6  1  0
  5  9  1  0
  6  7  2  0
  7  8  1  0
  8  9  2  0
  9 10  1  0
 10 11  2  0
 10 15  1  0
 11 12  1  0
 12 13  2  0
 13 14  1  0
 13 15  1  0
M  END
