
     RDKit          3D

 15 16  0  0  0  0  0  0  0  0999 V2000
   -4.0350    0.0670   -1.2260 C   0  0  0  0  0  0  0  0  0  0  0  0
   -2.8560   -0.1490   -0.3720 N   0  0  0  0  0  0  0  0  0  0  0  0
   -2.8000   -0.8620    0.7390 N   0  0  0  0  0  0  0  0  0  0  0  0
   -1.5680   -0.8550    1.2760 C   0  0  0  0  0  0  0  0  0  0  0  0
   -0.7460   -1.2610    2.2620 N   0  0  0  0  0  0  0  0  0  0  0  0
    0.5010   -0.7890    2.0970 C   0  0  0  0  0  0  0  0  0  0  0  0
    1.5140   -0.9870    2.8500 O   0  0  0  0  0  0  0  0  0  0  0  0
    0.4690   -0.0590    0.9700 N   0  0  0  0  0  0  0  0  0  0  0  0
    1.5850    0.6460    0.3930 C   0  0  0  0  0  0  0  0  0  0  0  0
    2.3680   -0.1870   -0.5800 C   0  0  0  0  0  0  0  0  0  0  0  0
    3.5060    0.6990   -1.0980 C   0  0  0  0  0  0  0  0  0  0  0  0
    4.4740   -0.2360   -2.2590 Cl  0  0  0  0  0  0  0  0  0  0  0  0
   -0.7840   -0.0820    0.4470 C   0  0  0  0  0  0  0  0  0  0  0  0
   -1.6210    0.3370   -0.5640 C   0  0  0  0  0  0  0  0  0  0  0  0
   -1.1780    1.3550   -1.9170 Cl  0  0  0  0  0  0  0  0  0  0  0  0
  1  2  1  0
  2  3  1  0
  2 14  1  0
  3  4  2  0
  4  5  1  0
  4 13  1  0
  5  6  1  0
  6  7  2  0
  6  8  1  0
  8  9  1  0
  8 13  1  0
  9 10  1  0
 10 11  1  0
 11 12  1  0
 13 14  2  0
 14 15  1  0
M  END
