
     RDKit          3D

 15 16  0  0  0  0  0  0  0  0999 V2000
    4.4610    0.0670   -0.5190 O   0  0  0  0  0  0  0  0  0  0  0  0
    3.2140   -0.0680   -0.3500 C   0  0  0  0  0  0  0  0  0  0  0  0
    2.6250   -1.2830   -0.1090 C   0  0  0  0  0  0  0  0  0  0  0  0
    1.3060   -1.3890    0.0640 N   0  0  0  0  0  0  0  0  0  0  0  0
    0.5560   -0.3010    0.0020 N   0  0  0  0  0  0  0  0  0  0  0  0
   -0.7900   -0.0930    0.1350 C   0  0  0  0  0  0  0  0  0  0  0  0
   -1.8280   -1.0300    0.3920 C   0  0  0  0  0  0  0  0  0  0  0  0
   -1.7830   -2.2960    0.5660 C   0  0  0  0  0  0  0  0  0  0  0  0
   -0.4070   -3.3260    0.5470 Cl  0  0  0  0  0  0  0  0  0  0  0  0
   -1.0040    1.2750   -0.0310 C   0  0  0  0  0  0  0  0  0  0  0  0
   -2.3160    1.9650    0.0290 C   0  0  0  0  0  0  0  0  0  0  0  0
   -3.1850    1.6560   -1.4830 Cl  0  0  0  0  0  0  0  0  0  0  0  0
    0.1790    1.8460   -0.2530 N   0  0  0  0  0  0  0  0  0  0  0  0
    1.1120    0.9070   -0.2340 C   0  0  0  0  0  0  0  0  0  0  0  0
    2.4560    1.0330   -0.4130 N   0  0  0  0  0  0  0  0  0  0  0  0
  1  2  2  0
  2  3  1  0
  2 15  1  0
  3  4  2  0
  4  5  1  0
  5  6  1  0
  5 14  1  0
  6  7  1  0
  6 10  2  0
  7  8  2  3
  8  9  1  0
 10 11  1  0
 10 13  1  0
 11 12  1  0
 13 14  2  0
 14 15  1  0
M  END
