
     RDKit          3D

 21 24  0  0  0  0  0  0  0  0999 V2000
   -3.6010    0.0370   -1.1410 C   0  0  0  0  0  0  0  0  0  0  0  0
   -2.5490   -0.9040   -0.7210 C   0  0  2  0  0  0  0  0  0  0  0  0
   -2.7750   -1.2240    0.6390 O   0  0  0  0  0  0  0  0  0  0  0  0
   -1.7390   -1.9410    1.1660 C   0  0  0  0  0  0  0  0  0  0  0  0
   -0.4950   -1.0570    1.3870 C   0  0  1  0  0  0  0  0  0  0  0  0
    0.6660   -1.9310    1.3460 C   0  0  0  0  0  0  0  0  0  0  0  0
    1.4780   -1.9000    0.1120 C   0  0  0  0  0  0  0  0  0  0  0  0
    1.8410   -2.9790   -0.5650 C   0  0  0  0  0  0  0  0  0  0  0  0
    2.6260   -2.5270   -1.7100 C   0  0  0  0  0  0  0  0  0  0  0  0
    2.6690   -1.0710   -1.6100 C   0  0  0  0  0  0  0  0  0  0  0  0
    1.9810   -0.6940   -0.5170 C   0  0  0  0  0  0  0  0  0  0  0  0
    1.8000    0.6870   -0.0780 C   0  0  0  0  0  0  0  0  0  0  0  0
    0.4690    1.0650    0.4540 C   0  0  1  0  0  0  0  0  0  0  0  0
    0.5940    1.4390    1.9480 C   0  0  0  0  0  0  0  0  0  0  0  0
    1.4030    2.6870    1.9810 C   0  0  0  0  0  0  0  0  0  0  0  0
    1.0360    3.3860    0.7190 C   0  0  0  0  0  0  0  0  0  0  0  0
    0.1750    2.4140   -0.1000 C   0  0  0  0  0  0  0  0  0  0  0  0
   -0.6270    0.0750    0.4140 C   0  0  2  0  0  0  0  0  0  0  0  0
   -1.7530    0.7310    1.0010 O   0  0  0  0  0  0  0  0  0  0  0  0
   -1.1130   -0.4230   -0.8820 C   0  0  2  0  0  0  0  0  0  0  0  0
   -0.9950    0.4610   -2.0650 C   0  0  0  0  0  0  0  0  0  0  0  0
  2  1  1  1
  2  3  1  0
  2 20  1  0
  3  4  1  0
  5  4  1  6
  5  6  1  0
  5 18  1  0
  6  7  1  0
  7  8  2  0
  7 11  1  0
  8  9  1  0
  9 10  1  0
 10 11  2  0
 11 12  1  0
 13 12  1  6
 13 14  1  0
 13 17  1  0
 13 18  1  0
 14 15  1  0
 15 16  1  0
 16 17  1  0
 18 19  1  1
 18 20  1  0
 20 21  1  6
M  END
