
     RDKit          3D

 26 27  0  0  0  0  0  0  0  0999 V2000
    6.8600    2.5200   -1.4100 C   0  0  0  0  0  0  0  0  0  0  0  0
    6.8770    1.1820   -1.6520 O   0  0  0  0  0  0  0  0  0  0  0  0
    6.3360    0.3450   -0.7380 C   0  0  0  0  0  0  0  0  0  0  0  0
    4.8910    0.5280   -0.5620 C   0  0  0  0  0  0  0  0  0  0  0  0
    4.2550    1.3460   -1.2750 O   0  0  0  0  0  0  0  0  0  0  0  0
    4.1550   -0.2180    0.4300 N   0  0  0  0  0  0  0  0  0  0  0  0
    2.7700    0.0120    0.5410 C   0  0  0  0  0  0  0  0  0  0  0  0
    1.9090   -0.5510    1.3680 C   0  0  0  0  0  0  0  0  0  0  0  0
    2.3690   -1.5610    2.3290 N   0  0  0  0  0  0  0  0  0  0  0  0
    0.5190   -0.1020    1.2830 C   0  0  0  0  0  0  0  0  0  0  0  0
    0.2130    0.2380   -0.1550 C   0  0  2  0  0  0  0  0  0  0  0  0
   -0.9170    1.0730   -0.3440 N   0  0  0  0  0  0  0  0  0  0  0  0
   -1.9850    0.5780   -1.1780 C   0  0  0  0  0  0  0  0  0  0  0  0
   -2.6050    1.3780   -1.9570 O   0  0  0  0  0  0  0  0  0  0  0  0
   -2.2920   -0.8670   -1.0660 C   0  0  2  0  0  0  0  0  0  0  0  0
   -3.1260   -1.3570   -2.2330 C   0  0  0  0  0  0  0  0  0  0  0  0
   -3.0680   -1.1020    0.2010 C   0  0  0  0  0  0  0  0  0  0  0  0
   -4.3330   -0.3570    0.1980 C   0  0  0  0  0  0  0  0  0  0  0  0
   -4.6640    0.3320   -0.7930 O   0  0  0  0  0  0  0  0  0  0  0  0
   -5.2330   -0.3790    1.3000 N   0  0  0  0  0  0  0  0  0  0  0  0
   -6.4760    0.3830    1.2360 C   0  0  0  0  0  0  0  0  0  0  0  0
   -6.1930    1.8020    1.0540 N   0  0  0  0  0  0  0  0  0  0  0  0
   -1.0660   -1.6650   -1.0840 N   0  0  0  0  0  0  0  0  0  0  0  0
    0.1810   -1.0020   -0.9580 C   0  0  0  0  0  0  0  0  0  0  0  0
    1.2010   -1.4670   -1.5130 O   0  0  0  0  0  0  0  0  0  0  0  0
    1.7890    1.1540   -0.4740 S   0  0  0  0  0  0  0  0  0  0  0  0
  1  2  1  0
  2  3  1  0
  3  4  1  0
  4  5  2  0
  4  6  1  0
  6  7  1  0
  7  8  2  0
  7 26  1  0
  8  9  1  0
  8 10  1  0
 11 10  1  1
 11 12  1  0
 11 24  1  0
 11 26  1  0
 12 13  1  0
 13 14  2  0
 13 15  1  0
 15 16  1  6
 15 17  1  0
 15 23  1  0
 17 18  1  0
 18 19  2  0
 18 20  1  0
 20 21  1  0
 21 22  1  0
 23 24  1  0
 24 25  2  0
M  CHG  1   9   1
M  END
