
     RDKit          3D

 40 43  0  0  0  0  0  0  0  0999 V2000
   -5.3000   -3.1920    0.7210 C   0  0  0  0  0  0  0  0  0  0  0  0
   -4.4390   -2.1900   -0.0550 C   0  0  1  0  0  0  0  0  0  0  0  0
   -4.4110   -0.9520    0.6580 O   0  0  0  0  0  0  0  0  0  0  0  0
   -3.1740   -0.4270    0.9960 C   0  0  0  0  0  0  0  0  0  0  0  0
   -2.8810   -0.0750    2.1910 O   0  0  0  0  0  0  0  0  0  0  0  0
   -2.1840   -0.2970   -0.1270 C   0  0  2  0  0  0  0  0  0  0  0  0
   -0.8240    0.1080    0.2780 C   0  0  0  0  0  0  0  0  0  0  0  0
   -0.6210    1.4210    0.9030 C   0  0  0  0  0  0  0  0  0  0  0  0
    0.7540    1.7260    1.3900 C   0  0  2  0  0  0  0  0  0  0  0  0
    1.8740    1.6850    0.4950 C   0  0  0  0  0  0  0  0  0  0  0  0
    1.7590    1.6870   -0.7550 O   0  0  0  0  0  0  0  0  0  0  0  0
    3.2190    1.6380    1.0110 N   0  0  0  0  0  0  0  0  0  0  0  0
    3.4040    1.2530    2.2330 C   0  0  0  0  0  0  0  0  0  0  0  0
    4.6910    1.1780    2.7910 N   0  0  0  0  0  0  0  0  0  0  0  0
    5.8600    0.7630    2.0910 C   0  0  0  0  0  0  0  0  0  0  0  0
    7.0520    0.6800    2.3630 N   0  0  0  0  0  0  0  0  0  0  0  0
    7.9410    0.2340    1.5440 N   0  0  0  0  0  0  0  0  0  0  0  0
    7.7460   -0.1510    0.4380 C   0  0  0  0  0  0  0  0  0  0  0  0
    8.4190   -0.7020   -0.7560 C   0  0  0  0  0  0  0  0  0  0  0  0
    7.9160   -1.0790   -1.9290 N   0  0  0  0  0  0  0  0  0  0  0  0
    8.8730   -1.5250   -2.7240 N   0  0  0  0  0  0  0  0  0  0  0  0
   10.0380   -1.4400   -2.0590 C   0  0  0  0  0  0  0  0  0  0  0  0
   11.1840   -1.7750   -2.4930 O   0  0  0  0  0  0  0  0  0  0  0  0
    9.7420   -0.9290   -0.8450 N   0  0  0  0  0  0  0  0  0  0  0  0
    5.8600    0.1090    0.3530 S   0  0  0  0  0  0  0  0  0  0  0  0
    2.2900    1.0530    3.0780 N   0  0  0  0  0  0  0  0  0  0  0  0
    1.0770    1.2420    2.7480 C   0  0  0  0  0  0  0  0  0  0  0  0
   -0.1710    0.9090    3.9560 Cl  0  0  0  0  0  0  0  0  0  0  0  0
   -2.8520    0.5370   -1.2030 C   0  0  0  0  0  0  0  0  0  0  0  0
   -3.2980    1.8450   -0.7030 C   0  0  0  0  0  0  0  0  0  0  0  0
   -3.4740    2.0880    0.5260 O   0  0  0  0  0  0  0  0  0  0  0  0
   -3.5770    2.9800   -1.5550 N   0  0  0  0  0  0  0  0  0  0  0  0
   -3.9870    4.2000   -1.0520 N   0  0  0  0  0  0  0  0  0  0  0  0
   -5.0570    4.1300   -0.0810 C   0  0  0  0  0  0  0  0  0  0  0  0
   -4.5370    5.2200   -2.3860 S   0  0  0  0  0  0  0  0  0  0  0  0
   -2.0980   -1.7060   -0.7350 C   0  0  0  0  0  0  0  0  0  0  0  0
   -3.0320   -2.6950   -0.1590 C   0  0  2  0  0  0  0  0  0  0  0  0
   -2.9750   -3.9010   -1.0500 C   0  0  0  0  0  0  0  0  0  0  0  0
   -3.7820   -5.0200   -0.7060 N   0  0  0  0  0  0  0  0  0  0  0  0
   -2.2520   -3.9590   -2.0740 O   0  0  0  0  0  0  0  0  0  0  0  0
  2  1  1  1
  2  3  1  0
  2 37  1  0
  3  4  1  0
  4  5  2  0
  4  6  1  0
  6  7  1  1
  6 29  1  0
  6 36  1  0
  7  8  1  0
  9  8  1  6
  9 10  1  0
  9 27  1  0
 10 11  2  0
 10 12  1  0
 12 13  2  0
 13 14  1  0
 13 26  1  0
 14 15  1  0
 15 16  2  0
 15 25  1  0
 16 17  1  0
 17 18  2  0
 18 19  1  0
 18 25  1  0
 19 20  2  0
 19 24  1  0
 20 21  1  0
 21 22  1  0
 22 23  2  0
 22 24  1  0
 26 27  2  0
 27 28  1  0
 29 30  1  0
 30 31  2  0
 30 32  1  0
 32 33  1  0
 33 34  1  0
 33 35  1  0
 36 37  1  0
 37 38  1  6
 38 39  1  0
 38 40  2  0
M  END
