
     RDKit          3D

 40 44  0  0  0  0  0  0  0  0999 V2000
    2.9740   -0.8020    3.9990 C   0  0  0  0  0  0  0  0  0  0  0  0
    2.5460   -1.8420    3.0120 C   0  0  2  0  0  0  0  0  0  0  0  0
    3.6560   -2.9080    3.0110 C   0  0  0  0  0  0  0  0  0  0  0  0
    2.3360   -1.3830    1.6210 C   0  0  0  0  0  0  0  0  0  0  0  0
    1.3910   -0.4180    1.3260 N   0  0  0  0  0  0  0  0  0  0  0  0
    0.1330   -0.7410    0.7930 C   0  0  0  0  0  0  0  0  0  0  0  0
    0.1000   -1.0730   -0.6860 C   0  0  1  0  0  0  0  0  0  0  0  0
    0.8690   -2.1380   -1.0560 O   0  0  0  0  0  0  0  0  0  0  0  0
   -1.3620   -1.1780   -1.0680 C   0  0  2  0  0  0  0  0  0  0  0  0
   -1.6040   -1.2700   -2.5460 C   0  0  0  0  0  0  0  0  0  0  0  0
   -1.0040   -2.4000   -3.2260 C   0  0  0  0  0  0  0  0  0  0  0  0
    0.2510   -2.3050   -3.7740 C   0  0  0  0  0  0  0  0  0  0  0  0
    0.8790   -3.3330   -4.4300 C   0  0  0  0  0  0  0  0  0  0  0  0
    0.2240   -4.5390   -4.5530 C   0  0  0  0  0  0  0  0  0  0  0  0
   -1.0320   -4.6780   -4.0200 C   0  0  0  0  0  0  0  0  0  0  0  0
   -1.6420   -3.6280   -3.3650 C   0  0  0  0  0  0  0  0  0  0  0  0
   -1.9720    0.0630   -0.5590 N   0  0  0  0  0  0  0  0  0  0  0  0
   -3.0630    0.0610    0.3240 C   0  0  0  0  0  0  0  0  0  0  0  0
   -3.5230   -1.0570    0.6810 O   0  0  0  0  0  0  0  0  0  0  0  0
   -3.6810    1.1800    0.8400 O   0  0  0  0  0  0  0  0  0  0  0  0
   -4.7710    1.0910    1.7150 C   0  0  1  0  0  0  0  0  0  0  0  0
   -4.5110    1.7060    3.0750 C   0  0  0  0  0  0  0  0  0  0  0  0
   -5.8370    2.0060    3.4660 O   0  0  0  0  0  0  0  0  0  0  0  0
   -6.2130    2.8230    2.3840 C   0  0  1  0  0  0  0  0  0  0  0  0
   -5.3180    3.8500    2.2450 O   0  0  0  0  0  0  0  0  0  0  0  0
   -5.0490    4.0690    0.9190 C   0  0  0  0  0  0  0  0  0  0  0  0
   -5.4330    2.8540    0.1340 C   0  0  0  0  0  0  0  0  0  0  0  0
   -5.9270    1.9190    1.2130 C   0  0  1  0  0  0  0  0  0  0  0  0
    1.7920    1.1990    1.1870 S   0  0  2  0  0  0  0  0  0  0  0  0
    2.2570    1.7670    2.4670 O   0  0  0  0  0  0  0  0  0  0  0  0
    0.5300    1.9830    0.8090 O   0  0  0  0  0  0  0  0  0  0  0  0
    2.9370    1.5500   -0.0880 C   0  0  0  0  0  0  0  0  0  0  0  0
    2.5740    1.9030   -1.3580 C   0  0  0  0  0  0  0  0  0  0  0  0
    3.5340    2.1620   -2.3240 C   0  0  0  0  0  0  0  0  0  0  0  0
    4.8840    2.0710   -2.0320 C   0  0  0  0  0  0  0  0  0  0  0  0
    5.2620    1.7190   -0.7650 C   0  0  0  0  0  0  0  0  0  0  0  0
    4.2860    1.4650    0.1870 C   0  0  0  0  0  0  0  0  0  0  0  0
    6.6680    1.6930   -0.7060 O   0  0  0  0  0  0  0  0  0  0  0  0
    7.1430    2.4350   -1.8120 C   0  0  0  0  0  0  0  0  0  0  0  0
    6.0620    2.2570   -2.7390 O   0  0  0  0  0  0  0  0  0  0  0  0
  2  1  1  1
  2  3  1  0
  2  4  1  0
  4  5  1  0
  5  6  1  0
 29  5  1  1
  6  7  1  0
  7  8  1  1
  7  9  1  0
  9 10  1  6
  9 17  1  0
 10 11  1  0
 11 12  2  0
 11 16  1  0
 12 13  1  0
 13 14  2  0
 14 15  1  0
 15 16  2  0
 17 18  1  0
 18 19  2  0
 18 20  1  0
 21 20  1  6
 21 22  1  0
 21 28  1  0
 22 23  1  0
 24 23  1  1
 24 25  1  0
 24 28  1  0
 25 26  1  0
 26 27  1  0
 28 27  1  6
 29 30  2  0
 29 31  2  0
 29 32  1  0
 32 33  2  0
 32 37  1  0
 33 34  1  0
 34 35  2  0
 35 36  1  0
 35 40  1  0
 36 37  2  0
 36 38  1  0
 38 39  1  0
 39 40  1  0
M  END
