
     RDKit          3D

 40 43  0  0  0  0  0  0  0  0999 V2000
   -4.5820    6.8470    1.6540 C   0  0  0  0  0  0  0  0  0  0  0  0
   -3.2720    6.1330    1.7320 O   0  0  0  0  0  0  0  0  0  0  0  0
   -3.4730    4.8220    1.1120 C   0  0  0  0  0  0  0  0  0  0  0  0
   -4.5720    4.6490    0.3690 C   0  0  0  0  0  0  0  0  0  0  0  0
   -4.7100    3.3600   -0.0640 C   0  0  0  0  0  0  0  0  0  0  0  0
   -3.9470    2.2660    0.1280 C   0  0  0  0  0  0  0  0  0  0  0  0
   -2.7430    2.4890    0.8820 C   0  0  0  0  0  0  0  0  0  0  0  0
   -1.5960    1.6880    0.9300 C   0  0  0  0  0  0  0  0  0  0  0  0
   -0.6710    2.0240    1.8310 O   0  0  0  0  0  0  0  0  0  0  0  0
   -1.2260    0.5940    0.1460 N   0  0  0  0  0  0  0  0  0  0  0  0
   -2.3090   -0.1680   -0.5500 C   0  0  0  0  0  0  0  0  0  0  0  0
   -3.0690   -0.9530    0.4960 C   0  0  2  0  0  0  0  0  0  0  0  0
   -2.3650   -1.8120    1.3500 O   0  0  0  0  0  0  0  0  0  0  0  0
   -4.3970   -1.3800    0.1190 C   0  0  0  0  0  0  0  0  0  0  0  0
   -4.9640   -2.5300   -0.2980 N   0  0  0  0  0  0  0  0  0  0  0  0
   -4.6590   -3.8970   -0.0750 C   0  0  0  0  0  0  0  0  0  0  0  0
   -2.8410   -3.5120   -0.6770 C   0  0  0  0  0  0  0  0  0  0  0  0
   -1.9470   -3.3120   -0.9660 C   0  0  0  0  0  0  0  0  0  0  0  0
   -0.5160   -3.0060   -1.4210 C   0  0  0  0  0  0  0  0  0  0  0  0
    0.3610   -3.6590   -0.6850 O   0  0  0  0  0  0  0  0  0  0  0  0
    1.2150   -2.9870    0.3230 C   0  0  0  0  0  0  0  0  0  0  0  0
    1.9180   -4.0180    1.0240 C   0  0  0  0  0  0  0  0  0  0  0  0
    2.8260   -3.8490    2.0000 C   0  0  0  0  0  0  0  0  0  0  0  0
    3.1140   -2.4710    2.3470 C   0  0  0  0  0  0  0  0  0  0  0  0
    2.4310   -1.5110    1.6800 C   0  0  0  0  0  0  0  0  0  0  0  0
    1.4460   -1.7250    0.6360 C   0  0  0  0  0  0  0  0  0  0  0  0
    1.1600   -0.3940    0.0640 C   0  0  1  0  0  0  0  0  0  0  0  0
    2.2270   -0.3900   -0.9670 N   0  0  0  0  0  0  0  0  0  0  0  0
    3.3770    0.3470   -1.1010 C   0  0  0  0  0  0  0  0  0  0  0  0
    3.4560    1.3500   -0.2520 O   0  0  0  0  0  0  0  0  0  0  0  0
    4.4670    0.1190   -2.0460 C   0  0  2  0  0  0  0  0  0  0  0  0
    4.8660   -1.3550   -1.9570 C   0  0  0  0  0  0  0  0  0  0  0  0
    6.0210   -1.6190   -1.4110 O   0  0  0  0  0  0  0  0  0  0  0  0
    6.9190   -0.8330   -0.8260 C   0  0  0  0  0  0  0  0  0  0  0  0
    6.6860    0.6110   -0.7150 C   0  0  2  0  0  0  0  0  0  0  0  0
    5.9700    0.9810    0.5810 C   0  0  0  0  0  0  0  0  0  0  0  0
    5.3730    1.2910    1.6650 N   0  0  0  0  0  0  0  0  0  0  0  0
    5.6510    1.0320   -1.8140 C   0  0  0  0  0  0  0  0  0  0  0  0
    0.0960    0.3130   -0.4240 C   0  0  0  0  0  0  0  0  0  0  0  0
   -2.5450    3.8690    1.3900 C   0  0  0  0  0  0  0  0  0  0  0  0
  1  2  1  0
  2  3  1  0
  3  4  2  0
  3 40  1  0
  4  5  1  0
  5  6  2  0
  6  7  1  0
  7  8  1  0
  7 40  2  0
  8  9  2  0
  8 10  1  0
 10 11  1  0
 10 39  1  0
 11 12  1  0
 12 13  1  6
 12 14  1  0
 14 15  1  0
 15 16  1  0
 16 17  1  0
 17 18  3  0
 18 19  1  0
 19 20  1  0
 20 21  1  0
 21 22  2  0
 21 26  1  0
 22 23  1  0
 23 24  2  0
 24 25  1  0
 25 26  2  0
 26 27  1  0
 27 28  1  6
 27 39  1  0
 28 29  1  0
 29 30  2  0
 31 29  1  1
 31 32  1  0
 31 38  1  0
 32 33  1  0
 33 34  1  0
 34 35  1  0
 35 36  1  1
 35 38  1  0
 36 37  3  0
M  CHG  1  15   1
M  END
