
     RDKit          3D

 40 43  0  0  0  0  0  0  0  0999 V2000
   -1.3160    1.6670    1.9910 C   0  0  0  0  0  0  0  0  0  0  0  0
   -0.8730    0.5080    1.1270 C   0  0  2  0  0  0  0  0  0  0  0  0
   -0.0210    1.0400    0.0340 C   0  0  0  0  0  0  0  0  0  0  0  0
    0.5000   -0.0120   -0.9070 C   0  0  1  0  0  0  0  0  0  0  0  0
    1.3490    0.6140   -2.0020 C   0  0  0  0  0  0  0  0  0  0  0  0
    1.1470   -1.1290   -0.3010 N   0  0  0  0  0  0  0  0  0  0  0  0
    0.7130   -2.4080   -0.3160 N   0  0  0  0  0  0  0  0  0  0  0  0
    1.5260   -3.1940    0.3240 N   0  0  0  0  0  0  0  0  0  0  0  0
    2.5080   -2.4500    0.7720 N   0  0  0  0  0  0  0  0  0  0  0  0
    2.2900   -1.1530    0.3910 C   0  0  0  0  0  0  0  0  0  0  0  0
    3.1740   -0.0960    0.6980 N   0  0  0  0  0  0  0  0  0  0  0  0
    4.3080   -0.3430    1.5160 N   0  0  0  0  0  0  0  0  0  0  0  0
    5.6270   -0.3430    1.0360 C   0  0  0  0  0  0  0  0  0  0  0  0
    6.6270   -0.6040    1.9090 N   0  0  0  0  0  0  0  0  0  0  0  0
    7.9240   -0.6290    1.5570 C   0  0  0  0  0  0  0  0  0  0  0  0
    8.3130   -0.3850    0.2550 C   0  0  0  0  0  0  0  0  0  0  0  0
    9.7200   -0.4140   -0.1220 C   0  0  0  0  0  0  0  0  0  0  0  0
   10.0630   -0.1130   -1.4710 N   0  0  0  0  0  0  0  0  0  0  0  0
   10.5820   -0.7010    0.7480 O   0  0  0  0  0  0  0  0  0  0  0  0
    7.3200   -0.1180   -0.6520 C   0  0  0  0  0  0  0  0  0  0  0  0
    5.9840   -0.0970   -0.2640 C   0  0  0  0  0  0  0  0  0  0  0  0
    4.7620    0.2450   -1.4410 Cl  0  0  0  0  0  0  0  0  0  0  0  0
   -1.9330   -0.4210    0.7650 C   0  0  0  0  0  0  0  0  0  0  0  0
   -1.8700   -1.6510    1.1650 O   0  0  0  0  0  0  0  0  0  0  0  0
   -3.1090   -0.1450   -0.0200 N   0  0  0  0  0  0  0  0  0  0  0  0
   -4.0220   -1.1900   -0.2870 C   0  0  0  0  0  0  0  0  0  0  0  0
   -3.7130   -2.3960   -0.1430 N   0  0  0  0  0  0  0  0  0  0  0  0
   -4.5310   -3.4910   -0.3760 N   0  0  0  0  0  0  0  0  0  0  0  0
   -5.3880   -4.0650    0.5850 C   0  0  0  0  0  0  0  0  0  0  0  0
   -5.4170   -3.5480    1.7460 O   0  0  0  0  0  0  0  0  0  0  0  0
   -6.2070   -5.1600    0.3540 O   0  0  0  0  0  0  0  0  0  0  0  0
   -5.6380   -0.7350   -0.8390 S   0  0  0  0  0  0  0  0  0  0  0  0
   -5.8330    0.9190   -0.1070 C   0  0  2  0  0  0  0  0  0  0  0  0
   -7.0490    1.6360   -0.6490 C   0  0  0  0  0  0  0  0  0  0  0  0
   -6.6160    3.3230   -0.1240 S   0  0  0  0  0  0  0  0  0  0  0  0
   -7.3130    3.5220    1.2310 O   0  0  0  0  0  0  0  0  0  0  0  0
   -4.8520    3.0190    0.2480 C   0  0  0  0  0  0  0  0  0  0  0  0
   -4.6870    1.7230   -0.5780 C   0  0  1  0  0  0  0  0  0  0  0  0
   -3.3310    1.1820   -0.5220 C   0  0  2  0  0  0  0  0  0  0  0  0
   -2.8060    1.1700   -1.8410 O   0  0  0  0  0  0  0  0  0  0  0  0
  2  1  1  6
  2  3  1  0
  2 23  1  0
  3  4  1  0
  4  5  1  6
  4  6  1  0
  6  7  1  0
  6 10  1  0
  7  8  2  0
  8  9  1  0
  9 10  2  0
 10 11  1  0
 11 12  1  0
 12 13  1  0
 13 14  2  0
 13 21  1  0
 14 15  1  0
 15 16  2  0
 16 17  1  0
 16 20  1  0
 17 18  1  0
 17 19  2  0
 20 21  2  0
 21 22  1  0
 23 24  2  0
 23 25  1  0
 25 26  1  0
 25 39  1  0
 26 27  2  3
 26 32  1  0
 27 28  1  0
 28 29  1  0
 29 30  2  0
 29 31  1  0
 32 33  1  0
 33 34  1  6
 33 38  1  0
 35 34  1  1
 35 36  2  0
 35 37  1  0
 38 37  1  1
 38 39  1  0
 39 40  1  6
M  END
