
     RDKit          3D

 40 42  0  0  0  0  0  0  0  0999 V2000
    4.5480   -3.4770    1.5440 C   0  0  0  0  0  0  0  0  0  0  0  0
    3.2480   -3.2040    2.2830 C   0  0  0  0  0  0  0  0  0  0  0  0
    3.0140   -1.7170    2.2170 C   0  0  0  0  0  0  0  0  0  0  0  0
    2.8910   -1.1540    0.8270 C   0  0  1  0  0  0  0  0  0  0  0  0
    1.8880   -1.5360    0.0090 O   0  0  0  0  0  0  0  0  0  0  0  0
    1.5350   -2.3060   -1.0630 C   0  0  0  0  0  0  0  0  0  0  0  0
    1.8810   -2.0520   -2.3980 C   0  0  0  0  0  0  0  0  0  0  0  0
    1.5250   -2.8390   -3.4680 C   0  0  0  0  0  0  0  0  0  0  0  0
    0.7790   -3.9590   -3.2410 C   0  0  0  0  0  0  0  0  0  0  0  0
    0.4160   -4.2420   -1.9390 C   0  0  0  0  0  0  0  0  0  0  0  0
    0.7580   -3.4680   -0.8570 C   0  0  0  0  0  0  0  0  0  0  0  0
    0.2320   -3.8660    0.4230 N   0  0  0  0  0  0  0  0  0  0  0  0
   -0.5360   -3.0870    1.3300 C   0  0  0  0  0  0  0  0  0  0  0  0
   -0.1090   -3.0350    2.5160 O   0  0  0  0  0  0  0  0  0  0  0  0
   -1.7270   -2.3660    1.0590 N   0  0  0  0  0  0  0  0  0  0  0  0
   -2.7910   -2.7340    0.1490 C   0  0  1  0  0  0  0  0  0  0  0  0
   -4.1130   -2.5820    0.8660 C   0  0  0  0  0  0  0  0  0  0  0  0
   -2.7270   -2.1170   -1.1690 C   0  0  0  0  0  0  0  0  0  0  0  0
   -2.5380   -2.9620   -2.1430 O   0  0  0  0  0  0  0  0  0  0  0  0
   -2.8440   -0.7340   -1.4890 N   0  0  0  0  0  0  0  0  0  0  0  0
   -3.8930    0.1810   -1.2860 C   0  0  0  0  0  0  0  0  0  0  0  0
   -3.8120    1.1990   -0.2250 C   0  0  1  0  0  0  0  0  0  0  0  0
   -3.1990    0.8720    0.9540 O   0  0  0  0  0  0  0  0  0  0  0  0
   -3.7870    1.5960    1.9770 C   0  0  0  0  0  0  0  0  0  0  0  0
   -3.9920    3.0400    1.7380 C   0  0  0  0  0  0  0  0  0  0  0  0
   -3.8020    3.5370    0.3440 C   0  0  0  0  0  0  0  0  0  0  0  0
   -3.2030    2.5310   -0.6130 C   0  0  1  0  0  0  0  0  0  0  0  0
   -1.7380    2.5430   -0.6930 C   0  0  0  0  0  0  0  0  0  0  0  0
   -0.9480    2.3900    0.5560 C   0  0  0  0  0  0  0  0  0  0  0  0
    0.4960    2.8880    0.3830 C   0  0  0  0  0  0  0  0  0  0  0  0
    1.4040    1.8390    0.0150 N   0  0  1  0  0  0  0  0  0  0  0  0
    2.2630    2.3290   -1.0390 C   0  0  0  0  0  0  0  0  0  0  0  0
    1.5080    2.4050   -2.3760 C   0  0  1  0  0  0  0  0  0  0  0  0
    2.4750    2.8410   -3.4770 C   0  0  0  0  0  0  0  0  0  0  0  0
    1.0270    1.1670   -2.7690 O   0  0  0  0  0  0  0  0  0  0  0  0
    2.2440    1.4170    1.1220 C   0  0  2  0  0  0  0  0  0  0  0  0
    1.4180    1.0400    2.3330 C   0  0  0  0  0  0  0  0  0  0  0  0
    3.0770    2.6200    1.6110 C   0  0  0  0  0  0  0  0  0  0  0  0
    3.1720    0.3250    0.8020 C   0  0  0  0  0  0  0  0  0  0  0  0
    4.3170    0.6980    0.4760 O   0  0  0  0  0  0  0  0  0  0  0  0
  1  2  1  0
  2  3  1  0
  4  3  1  1
  4  5  1  0
  4 39  1  0
  5  6  1  0
  6  7  2  0
  6 11  1  0
  7  8  1  0
  8  9  2  0
  9 10  1  0
 10 11  2  0
 11 12  1  0
 12 13  1  0
 13 14  2  0
 13 15  1  0
 15 16  1  0
 16 17  1  1
 16 18  1  0
 18 19  2  0
 18 20  1  0
 20 21  1  0
 22 21  1  6
 22 23  1  0
 22 27  1  0
 23 24  1  0
 24 25  1  0
 25 26  1  0
 27 26  1  1
 27 28  1  0
 28 29  1  0
 29 30  1  0
 30 31  1  0
 31 32  1  6
 31 36  1  0
 32 33  1  0
 33 34  1  6
 33 35  1  0
 36 37  1  1
 36 38  1  0
 36 39  1  0
 39 40  2  0
M  CHG  1  31   1
M  END
