
     RDKit          3D

 40 43  0  0  0  0  0  0  0  0999 V2000
    4.4270   -4.6370   -2.1800 C   0  0  0  0  0  0  0  0  0  0  0  0
    3.1740   -3.7730   -2.3360 C   0  0  0  0  0  0  0  0  0  0  0  0
    2.7450   -3.2430   -1.0100 C   0  0  0  0  0  0  0  0  0  0  0  0
    1.4750   -2.3710   -1.1840 C   0  0  1  0  0  0  0  0  0  0  0  0
    1.2460   -1.9150    0.2700 C   0  0  0  0  0  0  0  0  0  0  0  0
    1.8530   -1.3280   -1.9780 O   0  0  0  0  0  0  0  0  0  0  0  0
    1.0710   -0.1930   -1.9810 C   0  0  2  0  0  0  0  0  0  0  0  0
    0.5060    0.1200   -3.3570 C   0  0  0  0  0  0  0  0  0  0  0  0
    2.0540    0.9730   -1.7170 C   0  0  1  0  0  0  0  0  0  0  0  0
    3.1210    0.6680   -2.6110 O   0  0  0  0  0  0  0  0  0  0  0  0
    4.2960    0.3710   -1.9970 C   0  0  0  0  0  0  0  0  0  0  0  0
    1.5490    2.2960   -2.1310 C   0  0  0  0  0  0  0  0  0  0  0  0
    0.6190    2.8950   -1.2650 O   0  0  0  0  0  0  0  0  0  0  0  0
    0.6420    4.2500   -1.4800 C   0  0  0  0  0  0  0  0  0  0  0  0
   -0.2450    5.0710   -0.6380 C   0  0  0  0  0  0  0  0  0  0  0  0
   -0.6930    6.3910   -0.9770 C   0  0  0  0  0  0  0  0  0  0  0  0
   -1.4360    6.7910    0.0810 C   0  0  0  0  0  0  0  0  0  0  0  0
   -1.4780    5.8520    1.0120 N   0  0  0  0  0  0  0  0  0  0  0  0
   -0.7470    4.7710    0.5900 C   0  0  0  0  0  0  0  0  0  0  0  0
   -0.5130    3.4750    1.3020 C   0  0  0  0  0  0  0  0  0  0  0  0
   -1.6070    2.4630    1.0220 C   0  0  2  0  0  0  0  0  0  0  0  0
   -2.8930    2.7440    1.6910 C   0  0  0  0  0  0  0  0  0  0  0  0
   -3.8950    1.8590    1.6700 O   0  0  0  0  0  0  0  0  0  0  0  0
   -3.7050    0.5350    1.4840 C   0  0  0  0  0  0  0  0  0  0  0  0
   -2.8420    0.0270    2.6300 C   0  0  2  0  0  0  0  0  0  0  0  0
   -3.3740    0.7110    3.8100 C   0  0  0  0  0  0  0  0  0  0  0  0
   -3.8170    1.2580    4.7870 N   0  0  0  0  0  0  0  0  0  0  0  0
   -1.4170    0.5190    2.4750 C   0  0  0  0  0  0  0  0  0  0  0  0
   -1.1650    1.1280    1.2160 N   0  0  0  0  0  0  0  0  0  0  0  0
   -2.9020   -1.4120    2.8940 C   0  0  2  0  0  0  0  0  0  0  0  0
   -2.4710   -1.5310    4.2560 O   0  0  0  0  0  0  0  0  0  0  0  0
   -2.2640   -2.4650    2.0650 C   0  0  0  0  0  0  0  0  0  0  0  0
   -2.1260   -3.6360    2.8830 C   0  0  0  0  0  0  0  0  0  0  0  0
   -1.5530   -4.7900    2.4340 C   0  0  0  0  0  0  0  0  0  0  0  0
   -1.1120   -4.7700    1.1520 C   0  0  0  0  0  0  0  0  0  0  0  0
   -1.2200   -3.6390    0.2850 C   0  0  0  0  0  0  0  0  0  0  0  0
   -1.8140   -2.4860    0.7900 C   0  0  0  0  0  0  0  0  0  0  0  0
   -0.6010   -3.9300   -0.9600 N   0  0  0  0  0  0  0  0  0  0  0  0
    0.3740   -3.1930   -1.7090 C   0  0  0  0  0  0  0  0  0  0  0  0
    0.2660   -3.2580   -2.9830 O   0  0  0  0  0  0  0  0  0  0  0  0
  1  2  1  0
  2  3  1  0
  3  4  1  0
  4  5  1  1
  4  6  1  0
  4 39  1  0
  6  7  1  0
  7  8  1  6
  7  9  1  0
  9 10  1  6
  9 12  1  0
 10 11  1  0
 12 13  1  0
 13 14  1  0
 14 15  1  0
 15 16  1  0
 15 19  2  0
 16 17  2  0
 17 18  1  0
 18 19  1  0
 19 20  1  0
 21 20  1  1
 21 22  1  0
 21 29  1  0
 22 23  1  0
 23 24  1  0
 24 25  1  0
 25 26  1  1
 25 28  1  0
 25 30  1  0
 26 27  3  0
 28 29  1  0
 30 31  1  1
 30 32  1  0
 32 33  1  0
 32 37  2  0
 33 34  2  0
 34 35  1  0
 35 36  2  0
 36 37  1  0
 36 38  1  0
 38 39  1  0
 39 40  2  0
M  CHG  1  29   1
M  END
