
     RDKit          3D

 40 43  0  0  0  0  0  0  0  0999 V2000
   -1.9060    1.2620    1.7760 C   0  0  0  0  0  0  0  0  0  0  0  0
   -1.5600    0.6290    0.4520 C   0  0  2  0  0  0  0  0  0  0  0  0
   -0.2220    1.1580    0.0080 C   0  0  0  0  0  0  0  0  0  0  0  0
    0.9100    0.8720    0.9400 C   0  0  1  0  0  0  0  0  0  0  0  0
    1.0610   -0.6120    1.0960 C   0  0  0  0  0  0  0  0  0  0  0  0
    2.0930    1.5160    0.3920 N   0  0  0  0  0  0  0  0  0  0  0  0
    2.3270    2.8020    0.5370 N   0  0  0  0  0  0  0  0  0  0  0  0
    3.4520    3.1250   -0.0580 N   0  0  0  0  0  0  0  0  0  0  0  0
    3.9670    2.0450   -0.6010 N   0  0  0  0  0  0  0  0  0  0  0  0
    3.1070    1.0330   -0.3150 C   0  0  0  0  0  0  0  0  0  0  0  0
    3.2590   -0.3290   -0.6960 N   0  0  0  0  0  0  0  0  0  0  0  0
    4.0230   -1.2340    0.0340 N   0  0  0  0  0  0  0  0  0  0  0  0
    5.4560   -1.1100    0.0430 C   0  0  0  0  0  0  0  0  0  0  0  0
    6.0670   -0.1370   -0.6480 N   0  0  0  0  0  0  0  0  0  0  0  0
    7.4020    0.0140   -0.6680 C   0  0  0  0  0  0  0  0  0  0  0  0
    8.2290   -0.8370    0.0320 C   0  0  0  0  0  0  0  0  0  0  0  0
    9.6820   -0.6370   -0.0200 C   0  0  0  0  0  0  0  0  0  0  0  0
   10.2330    0.3900   -0.8040 N   0  0  0  0  0  0  0  0  0  0  0  0
   10.4040   -1.4110    0.6550 O   0  0  0  0  0  0  0  0  0  0  0  0
    7.6320   -1.8470    0.7520 C   0  0  0  0  0  0  0  0  0  0  0  0
    6.2400   -1.9870    0.7590 C   0  0  0  0  0  0  0  0  0  0  0  0
    5.4810   -3.2710    1.6750 Cl  0  0  0  0  0  0  0  0  0  0  0  0
   -2.5900    1.0570   -0.5390 C   0  0  0  0  0  0  0  0  0  0  0  0
   -2.1980    1.9930   -1.3200 O   0  0  0  0  0  0  0  0  0  0  0  0
   -3.8840    0.4970   -0.6260 N   0  0  0  0  0  0  0  0  0  0  0  0
   -4.7990    1.0010   -1.5880 C   0  0  0  0  0  0  0  0  0  0  0  0
   -4.9780    2.2190   -1.7650 N   0  0  0  0  0  0  0  0  0  0  0  0
   -4.4500    3.3440   -1.1940 N   0  0  0  0  0  0  0  0  0  0  0  0
   -4.6300    3.5980    0.1910 C   0  0  0  0  0  0  0  0  0  0  0  0
   -5.2960    2.7400    0.8560 O   0  0  0  0  0  0  0  0  0  0  0  0
   -4.1240    4.7180    0.8440 O   0  0  0  0  0  0  0  0  0  0  0  0
   -5.7430   -0.2470   -2.5510 S   0  0  0  0  0  0  0  0  0  0  0  0
   -5.3400   -1.7780   -1.5860 C   0  0  2  0  0  0  0  0  0  0  0  0
   -6.3830   -2.7860   -1.9240 C   0  0  0  0  0  0  0  0  0  0  0  0
   -6.4590   -3.7480   -0.3830 S   0  0  0  0  0  0  0  0  0  0  0  0
   -5.5430   -4.9470   -0.5670 O   0  0  0  0  0  0  0  0  0  0  0  0
   -5.6200   -2.5710    0.7080 C   0  0  0  0  0  0  0  0  0  0  0  0
   -5.4610   -1.3580   -0.1720 C   0  0  1  0  0  0  0  0  0  0  0  0
   -4.2230   -0.6030    0.2580 C   0  0  2  0  0  0  0  0  0  0  0  0
   -4.4770   -0.1810    1.5730 O   0  0  0  0  0  0  0  0  0  0  0  0
  2  1  1  1
  2  3  1  0
  2 23  1  0
  3  4  1  0
  4  5  1  6
  4  6  1  0
  6  7  1  0
  6 10  1  0
  7  8  2  0
  8  9  1  0
  9 10  2  0
 10 11  1  0
 11 12  1  0
 12 13  1  0
 13 14  2  0
 13 21  1  0
 14 15  1  0
 15 16  2  0
 16 17  1  0
 16 20  1  0
 17 18  1  0
 17 19  2  0
 20 21  2  0
 21 22  1  0
 23 24  2  0
 23 25  1  0
 25 26  1  0
 25 39  1  0
 26 27  2  3
 26 32  1  0
 27 28  1  0
 28 29  1  0
 29 30  2  0
 29 31  1  0
 32 33  1  0
 33 34  1  6
 33 38  1  0
 35 34  1  6
 35 36  2  0
 35 37  1  0
 38 37  1  1
 38 39  1  0
 39 40  1  1
M  END
