
     RDKit          3D

 40 42  0  0  0  0  0  0  0  0999 V2000
   -4.3730    4.6670   -0.1420 C   0  0  0  0  0  0  0  0  0  0  0  0
   -4.2350    3.3920   -0.8850 C   0  0  0  0  0  0  0  0  0  0  0  0
   -3.6360    2.3010   -0.3940 C   0  0  0  0  0  0  0  0  0  0  0  0
   -3.0750    2.3920    0.9880 C   0  0  0  0  0  0  0  0  0  0  0  0
   -2.2790    3.6010    1.1880 N   0  0  0  0  0  0  0  0  0  0  0  0
   -1.0720    3.8730    0.4920 C   0  0  0  0  0  0  0  0  0  0  0  0
   -0.6170    5.0670    0.4210 O   0  0  0  0  0  0  0  0  0  0  0  0
   -0.3640    2.7340   -0.1450 C   0  0  0  0  0  0  0  0  0  0  0  0
    0.1630    1.7390    0.8780 C   0  0  0  0  0  0  0  0  0  0  0  0
    1.6680    1.6780    0.8290 C   0  0  0  0  0  0  0  0  0  0  0  0
    2.2650    2.6210    1.4280 O   0  0  0  0  0  0  0  0  0  0  0  0
    2.3600    0.6390    0.1620 N   0  0  0  0  0  0  0  0  0  0  0  0
    3.6430    0.9600   -0.4290 C   0  0  0  0  0  0  0  0  0  0  0  0
    4.6600   -0.0410    0.0390 C   0  0  2  0  0  0  0  0  0  0  0  0
    5.9220    0.1960   -0.7250 C   0  0  0  0  0  0  0  0  0  0  0  0
    6.4820   -0.6950   -1.3800 O   0  0  0  0  0  0  0  0  0  0  0  0
    6.4760    1.4980   -0.6820 N   0  0  0  0  0  0  0  0  0  0  0  0
    7.6810    1.8360   -1.3730 C   0  0  0  0  0  0  0  0  0  0  0  0
    8.8320    1.0030   -0.8690 C   0  0  0  0  0  0  0  0  0  0  0  0
    9.0270    1.2200    0.4970 O   0  0  0  0  0  0  0  0  0  0  0  0
    4.2220   -1.3430   -0.0810 O   0  0  0  0  0  0  0  0  0  0  0  0
    3.0050   -1.4650   -0.7450 C   0  0  0  0  0  0  0  0  0  0  0  0
    1.9050   -0.7080    0.0150 C   0  0  1  0  0  0  0  0  0  0  0  0
    1.7380   -1.4270    1.2980 C   0  0  0  0  0  0  0  0  0  0  0  0
    2.3370   -0.9770    2.3060 O   0  0  0  0  0  0  0  0  0  0  0  0
    0.9360   -2.6060    1.4690 N   0  0  0  0  0  0  0  0  0  0  0  0
   -0.4160   -2.8640    1.0780 C   0  0  0  0  0  0  0  0  0  0  0  0
   -1.5620   -2.0990    1.1730 C   0  0  0  0  0  0  0  0  0  0  0  0
   -2.7550   -2.6060    0.6970 C   0  0  0  0  0  0  0  0  0  0  0  0
   -2.7550   -3.9050    0.1280 C   0  0  0  0  0  0  0  0  0  0  0  0
   -1.6480   -4.6990    0.0140 C   0  0  0  0  0  0  0  0  0  0  0  0
   -0.4880   -4.1580    0.4960 C   0  0  0  0  0  0  0  0  0  0  0  0
    0.7330   -5.0550    0.3900 C   0  0  0  0  0  0  0  0  0  0  0  0
   -4.1220   -2.0370    0.6710 C   0  0  1  0  0  0  0  0  0  0  0  0
   -4.9360   -2.6710   -0.4780 C   0  0  0  0  0  0  0  0  0  0  0  0
   -4.9100   -2.4250    1.9220 C   0  0  0  0  0  0  0  0  0  0  0  0
   -4.3460   -0.5800    0.4660 C   0  0  0  0  0  0  0  0  0  0  0  0
   -3.8890   -0.1260   -0.8480 C   0  0  0  0  0  0  0  0  0  0  0  0
   -3.5860    1.1040   -1.2230 C   0  0  0  0  0  0  0  0  0  0  0  0
   -3.1830    1.2880   -2.6720 C   0  0  0  0  0  0  0  0  0  0  0  0
  1  2  1  0
  2  3  2  3
  3  4  1  0
  3 39  1  0
  4  5  1  0
  5  6  1  0
  6  7  2  0
  6  8  1  0
  8  9  1  0
  9 10  1  0
 10 11  2  0
 10 12  1  0
 12 13  1  0
 12 23  1  0
 13 14  1  0
 14 15  1  6
 14 21  1  0
 15 16  2  0
 15 17  1  0
 17 18  1  0
 18 19  1  0
 19 20  1  0
 21 22  1  0
 23 22  1  6
 23 24  1  0
 24 25  2  0
 24 26  1  0
 26 27  1  0
 27 28  1  0
 27 32  2  0
 28 29  2  0
 29 30  1  0
 29 34  1  0
 30 31  2  0
 31 32  1  0
 32 33  1  0
 34 35  1  6
 34 36  1  0
 34 37  1  0
 37 38  1  0
 38 39  2  0
 39 40  1  0
M  END
