
     RDKit          3D

 40 44  0  0  0  0  0  0  0  0999 V2000
   -4.2380   -1.4740    1.2580 C   0  0  0  0  0  0  0  0  0  0  0  0
   -4.0650   -1.0160   -0.1850 C   0  0  2  0  0  0  0  0  0  0  0  0
   -4.7990   -1.9450   -1.1040 C   0  0  0  0  0  0  0  0  0  0  0  0
   -2.5950   -1.0070   -0.5710 C   0  0  0  0  0  0  0  0  0  0  0  0
   -1.8660   -0.1170    0.2730 N   0  0  0  0  0  0  0  0  0  0  0  0
   -0.6210   -0.5530    0.7720 C   0  0  0  0  0  0  0  0  0  0  0  0
    0.2210   -1.4170   -0.0930 C   0  0  1  0  0  0  0  0  0  0  0  0
    0.5730   -0.8210   -1.3020 O   0  0  0  0  0  0  0  0  0  0  0  0
    1.5670   -1.7000    0.6000 C   0  0  2  0  0  0  0  0  0  0  0  0
    1.4080   -2.5810    1.7830 C   0  0  0  0  0  0  0  0  0  0  0  0
    0.8360   -3.8780    1.3450 C   0  0  0  0  0  0  0  0  0  0  0  0
   -0.4790   -4.2060    1.2900 C   0  0  0  0  0  0  0  0  0  0  0  0
   -0.9390   -5.4460    0.8620 C   0  0  0  0  0  0  0  0  0  0  0  0
    0.0050   -6.3880    0.4750 C   0  0  0  0  0  0  0  0  0  0  0  0
    1.3480   -6.1030    0.5130 C   0  0  0  0  0  0  0  0  0  0  0  0
    1.7480   -4.8640    0.9430 C   0  0  0  0  0  0  0  0  0  0  0  0
    2.2450   -0.4700    0.7910 N   0  0  0  0  0  0  0  0  0  0  0  0
    3.3990   -0.1220    0.0530 C   0  0  0  0  0  0  0  0  0  0  0  0
    3.8240   -0.9320   -0.7890 O   0  0  0  0  0  0  0  0  0  0  0  0
    4.0990    1.0780    0.2060 O   0  0  0  0  0  0  0  0  0  0  0  0
    5.2280    1.3280   -0.5740 C   0  0  1  0  0  0  0  0  0  0  0  0
    5.0600    2.5520   -1.4720 C   0  0  0  0  0  0  0  0  0  0  0  0
    6.3490    2.8110   -1.8620 O   0  0  0  0  0  0  0  0  0  0  0  0
    7.2210    2.5050   -0.8480 C   0  0  1  0  0  0  0  0  0  0  0  0
    7.7540    3.6200   -0.2200 O   0  0  0  0  0  0  0  0  0  0  0  0
    6.8270    4.0380    0.7180 C   0  0  0  0  0  0  0  0  0  0  0  0
    6.1070    2.7980    1.2200 C   0  0  0  0  0  0  0  0  0  0  0  0
    6.4500    1.7470    0.2120 C   0  0  1  0  0  0  0  0  0  0  0  0
   -1.7050    1.4140   -0.4750 S   0  0  2  0  0  0  0  0  0  0  0  0
   -0.9800    1.1930   -1.8000 O   0  0  0  0  0  0  0  0  0  0  0  0
   -0.7960    2.2840    0.3520 O   0  0  0  0  0  0  0  0  0  0  0  0
   -3.2270    2.2090   -0.7890 C   0  0  0  0  0  0  0  0  0  0  0  0
   -3.8610    2.1030   -2.0230 C   0  0  0  0  0  0  0  0  0  0  0  0
   -5.0610    2.7330   -2.2680 C   0  0  0  0  0  0  0  0  0  0  0  0
   -5.6900    3.5010   -1.2910 C   0  0  0  0  0  0  0  0  0  0  0  0
   -5.0730    3.6100   -0.0750 C   0  0  0  0  0  0  0  0  0  0  0  0
   -3.8580    2.9710    0.1700 C   0  0  0  0  0  0  0  0  0  0  0  0
   -5.8890    4.4120    0.7050 O   0  0  0  0  0  0  0  0  0  0  0  0
   -7.1050    4.6720    0.0410 C   0  0  0  0  0  0  0  0  0  0  0  0
   -6.8730    4.2280   -1.2640 O   0  0  0  0  0  0  0  0  0  0  0  0
  2  1  1  1
  2  3  1  0
  2  4  1  0
  4  5  1  0
  5  6  1  0
 29  5  1  1
  6  7  1  0
  7  8  1  6
  7  9  1  0
  9 10  1  1
  9 17  1  0
 10 11  1  0
 11 12  2  0
 11 16  1  0
 12 13  1  0
 13 14  2  0
 14 15  1  0
 15 16  2  0
 17 18  1  0
 18 19  2  0
 18 20  1  0
 21 20  1  1
 21 22  1  0
 21 28  1  0
 22 23  1  0
 24 23  1  6
 24 25  1  0
 24 28  1  0
 25 26  1  0
 26 27  1  0
 28 27  1  1
 29 30  2  0
 29 31  2  0
 29 32  1  0
 32 33  2  0
 32 37  1  0
 33 34  1  0
 34 35  2  0
 35 36  1  0
 35 40  1  0
 36 37  2  0
 36 38  1  0
 38 39  1  0
 39 40  1  0
M  END
