
     RDKit          3D

 40 42  0  0  0  0  0  0  0  0999 V2000
   -3.5620    4.3690   -1.3340 C   0  0  0  0  0  0  0  0  0  0  0  0
   -4.5860    3.3350   -1.1150 C   0  0  0  0  0  0  0  0  0  0  0  0
   -4.3710    2.3010   -0.3330 C   0  0  0  0  0  0  0  0  0  0  0  0
   -3.0280    2.2180    0.3290 C   0  0  0  0  0  0  0  0  0  0  0  0
   -2.0220    2.2450   -0.6790 N   0  0  0  0  0  0  0  0  0  0  0  0
   -0.7670    2.8520   -0.4350 C   0  0  0  0  0  0  0  0  0  0  0  0
   -0.1070    3.3120   -1.4240 O   0  0  0  0  0  0  0  0  0  0  0  0
   -0.2130    2.9590    0.9510 C   0  0  0  0  0  0  0  0  0  0  0  0
    0.2440    1.5610    1.3660 C   0  0  0  0  0  0  0  0  0  0  0  0
    1.7510    1.5540    1.3410 C   0  0  0  0  0  0  0  0  0  0  0  0
    2.3960    2.2560    2.1610 O   0  0  0  0  0  0  0  0  0  0  0  0
    2.4640    0.7750    0.4160 N   0  0  0  0  0  0  0  0  0  0  0  0
    3.6920    1.3410   -0.1680 C   0  0  0  0  0  0  0  0  0  0  0  0
    4.7720    0.3150    0.0540 C   0  0  2  0  0  0  0  0  0  0  0  0
    6.0980    0.8350   -0.3770 C   0  0  0  0  0  0  0  0  0  0  0  0
    6.4140    1.9620    0.0710 O   0  0  0  0  0  0  0  0  0  0  0  0
    6.9590    0.1230   -1.2330 N   0  0  0  0  0  0  0  0  0  0  0  0
    8.2350    0.6800   -1.6090 C   0  0  0  0  0  0  0  0  0  0  0  0
    9.0750    0.8780   -0.3810 C   0  0  0  0  0  0  0  0  0  0  0  0
   10.3270    1.4160   -0.7020 O   0  0  0  0  0  0  0  0  0  0  0  0
    4.4580   -0.9160   -0.4580 O   0  0  0  0  0  0  0  0  0  0  0  0
    3.1940   -0.9820   -1.0190 C   0  0  0  0  0  0  0  0  0  0  0  0
    2.1060   -0.5430   -0.0280 C   0  0  1  0  0  0  0  0  0  0  0  0
    2.0450   -1.5360    1.1050 C   0  0  0  0  0  0  0  0  0  0  0  0
    2.7870   -1.3340    2.1250 O   0  0  0  0  0  0  0  0  0  0  0  0
    1.1930   -2.6840    1.0760 N   0  0  0  0  0  0  0  0  0  0  0  0
   -0.1740   -2.8430    0.7070 C   0  0  0  0  0  0  0  0  0  0  0  0
   -1.2880   -2.0770    0.9830 C   0  0  0  0  0  0  0  0  0  0  0  0
   -2.5060   -2.4930    0.4850 C   0  0  0  0  0  0  0  0  0  0  0  0
   -2.5800   -3.6790   -0.2880 C   0  0  0  0  0  0  0  0  0  0  0  0
   -1.4980   -4.4620   -0.5800 C   0  0  0  0  0  0  0  0  0  0  0  0
   -0.3080   -4.0230   -0.0710 C   0  0  0  0  0  0  0  0  0  0  0  0
    0.8820   -4.9120   -0.3800 C   0  0  0  0  0  0  0  0  0  0  0  0
   -3.8670   -1.8880    0.6170 C   0  0  2  0  0  0  0  0  0  0  0  0
   -4.2890   -1.3850    1.9560 C   0  0  0  0  0  0  0  0  0  0  0  0
   -4.9880   -2.8700    0.2540 C   0  0  0  0  0  0  0  0  0  0  0  0
   -4.0410   -0.7810   -0.4390 C   0  0  0  0  0  0  0  0  0  0  0  0
   -5.2290    0.0040   -0.1610 C   0  0  0  0  0  0  0  0  0  0  0  0
   -5.4140    1.2940   -0.1070 C   0  0  0  0  0  0  0  0  0  0  0  0
   -6.7910    1.8630    0.2030 C   0  0  0  0  0  0  0  0  0  0  0  0
  1  2  1  0
  2  3  2  3
  3  4  1  0
  3 39  1  0
  4  5  1  0
  5  6  1  0
  6  7  2  0
  6  8  1  0
  8  9  1  0
  9 10  1  0
 10 11  2  0
 10 12  1  0
 12 13  1  0
 12 23  1  0
 13 14  1  0
 14 15  1  6
 14 21  1  0
 15 16  2  0
 15 17  1  0
 17 18  1  0
 18 19  1  0
 19 20  1  0
 21 22  1  0
 23 22  1  6
 23 24  1  0
 24 25  2  0
 24 26  1  0
 26 27  1  0
 27 28  1  0
 27 32  2  0
 28 29  2  0
 29 30  1  0
 29 34  1  0
 30 31  2  0
 31 32  1  0
 32 33  1  0
 34 35  1  1
 34 36  1  0
 34 37  1  0
 37 38  1  0
 38 39  2  0
 39 40  1  0
M  END
