
     RDKit          3D

 40 43  0  0  0  0  0  0  0  0999 V2000
   -6.5850    5.5850    0.5360 C   0  0  0  0  0  0  0  0  0  0  0  0
   -6.0800    4.3040    0.2910 O   0  0  0  0  0  0  0  0  0  0  0  0
   -4.7860    3.9020    0.6010 C   0  0  0  0  0  0  0  0  0  0  0  0
   -3.8640    4.7140    1.1800 C   0  0  0  0  0  0  0  0  0  0  0  0
   -2.6170    4.2210    1.4450 C   0  0  0  0  0  0  0  0  0  0  0  0
   -2.2710    2.9000    1.1330 C   0  0  0  0  0  0  0  0  0  0  0  0
   -3.1760    2.0570    0.5480 C   0  0  0  0  0  0  0  0  0  0  0  0
   -2.9380    0.7000    0.1460 C   0  0  0  0  0  0  0  0  0  0  0  0
   -3.9940    0.0490   -0.2350 O   0  0  0  0  0  0  0  0  0  0  0  0
   -1.7650   -0.0600    0.0870 N   0  0  0  0  0  0  0  0  0  0  0  0
   -1.9430   -1.4640   -0.3340 C   0  0  0  0  0  0  0  0  0  0  0  0
   -2.5960   -2.3100    0.7310 C   0  0  2  0  0  0  0  0  0  0  0  0
   -1.7840   -2.5450    1.8140 O   0  0  0  0  0  0  0  0  0  0  0  0
   -2.9100   -3.6460    0.0500 C   0  0  0  0  0  0  0  0  0  0  0  0
   -2.0700   -4.7170    0.4780 N   0  0  0  0  0  0  0  0  0  0  0  0
   -1.1870   -5.2330   -0.5660 C   0  0  0  0  0  0  0  0  0  0  0  0
    0.0650   -4.5680   -0.5790 C   0  0  0  0  0  0  0  0  0  0  0  0
    1.0570   -4.0320   -0.5950 C   0  0  0  0  0  0  0  0  0  0  0  0
    2.3140   -3.3710   -0.6270 C   0  0  0  0  0  0  0  0  0  0  0  0
    2.3850   -2.4260   -1.6230 O   0  0  0  0  0  0  0  0  0  0  0  0
    1.5200   -1.5860   -2.2350 C   0  0  0  0  0  0  0  0  0  0  0  0
    1.4250   -1.6140   -3.6310 C   0  0  0  0  0  0  0  0  0  0  0  0
    0.5780   -0.8010   -4.3510 C   0  0  0  0  0  0  0  0  0  0  0  0
   -0.2260    0.0930   -3.6940 C   0  0  0  0  0  0  0  0  0  0  0  0
   -0.1520    0.1410   -2.3190 C   0  0  0  0  0  0  0  0  0  0  0  0
    0.7020   -0.6780   -1.5830 C   0  0  0  0  0  0  0  0  0  0  0  0
    0.6730   -0.5060   -0.1210 C   0  0  1  0  0  0  0  0  0  0  0  0
    1.9510    0.1100    0.2410 N   0  0  0  0  0  0  0  0  0  0  0  0
    2.6740   -0.1920    1.4190 C   0  0  0  0  0  0  0  0  0  0  0  0
    2.2210   -1.0340    2.2460 O   0  0  0  0  0  0  0  0  0  0  0  0
    3.9780    0.4450    1.7460 C   0  0  2  0  0  0  0  0  0  0  0  0
    3.8980    1.9490    1.8270 C   0  0  0  0  0  0  0  0  0  0  0  0
    4.3630    2.5570    0.6650 O   0  0  0  0  0  0  0  0  0  0  0  0
    5.7460    2.4150    0.4950 C   0  0  0  0  0  0  0  0  0  0  0  0
    6.2120    1.0480    0.9200 C   0  0  2  0  0  0  0  0  0  0  0  0
    7.3430    0.6000    0.0830 C   0  0  0  0  0  0  0  0  0  0  0  0
    8.2510    0.2470   -0.5640 N   0  0  0  0  0  0  0  0  0  0  0  0
    5.0250    0.1030    0.6920 C   0  0  0  0  0  0  0  0  0  0  0  0
   -0.4610    0.4190    0.3530 C   0  0  0  0  0  0  0  0  0  0  0  0
   -4.4320    2.6090    0.3010 C   0  0  0  0  0  0  0  0  0  0  0  0
  1  2  1  0
  2  3  1  0
  3  4  2  0
  3 40  1  0
  4  5  1  0
  5  6  2  0
  6  7  1  0
  7  8  1  0
  7 40  2  0
  8  9  2  0
  8 10  1  0
 10 11  1  0
 10 39  1  0
 11 12  1  0
 12 13  1  1
 12 14  1  0
 14 15  1  0
 15 16  1  0
 16 17  1  0
 17 18  3  0
 18 19  1  0
 19 20  1  0
 20 21  1  0
 21 22  2  0
 21 26  1  0
 22 23  1  0
 23 24  2  0
 24 25  1  0
 25 26  2  0
 26 27  1  0
 27 28  1  6
 27 39  1  0
 28 29  1  0
 29 30  2  0
 31 29  1  6
 31 32  1  0
 31 38  1  0
 32 33  1  0
 33 34  1  0
 34 35  1  0
 35 36  1  6
 35 38  1  0
 36 37  3  0
M  CHG  1  15   1
M  END
