
     RDKit          3D

 40 43  0  0  0  0  0  0  0  0999 V2000
   -6.1380   -1.4000   -1.9340 C   0  0  0  0  0  0  0  0  0  0  0  0
   -4.6240   -1.7160   -1.6580 C   0  0  0  0  0  0  0  0  0  0  0  0
   -3.8680   -0.4780   -1.9320 C   0  0  0  0  0  0  0  0  0  0  0  0
   -2.3430   -0.4740   -1.6800 C   0  0  1  0  0  0  0  0  0  0  0  0
   -2.2280   -0.8160   -0.2270 C   0  0  0  0  0  0  0  0  0  0  0  0
   -1.6090   -1.2480   -2.4010 O   0  0  0  0  0  0  0  0  0  0  0  0
   -1.2830   -2.4490   -2.6680 C   0  0  2  0  0  0  0  0  0  0  0  0
   -1.5420   -3.6130   -1.7530 C   0  0  0  0  0  0  0  0  0  0  0  0
    0.2800   -2.4550   -2.9210 C   0  0  1  0  0  0  0  0  0  0  0  0
    0.5430   -1.4380   -3.8070 O   0  0  0  0  0  0  0  0  0  0  0  0
    1.0640   -1.8640   -5.0050 C   0  0  0  0  0  0  0  0  0  0  0  0
    0.9480   -2.2750   -1.6040 C   0  0  0  0  0  0  0  0  0  0  0  0
    2.2470   -2.8010   -1.5290 O   0  0  0  0  0  0  0  0  0  0  0  0
    2.8400   -2.2300   -0.3770 C   0  0  0  0  0  0  0  0  0  0  0  0
    3.5190   -0.9400   -0.6900 C   0  0  0  0  0  0  0  0  0  0  0  0
    3.7940   -0.3490   -1.8890 C   0  0  0  0  0  0  0  0  0  0  0  0
    4.4520    0.8650   -1.6420 C   0  0  0  0  0  0  0  0  0  0  0  0
    4.5310    0.9200   -0.2630 N   0  0  0  0  0  0  0  0  0  0  0  0
    4.0070   -0.0920    0.2990 C   0  0  0  0  0  0  0  0  0  0  0  0
    3.8520   -0.4740    1.7440 C   0  0  0  0  0  0  0  0  0  0  0  0
    3.8200    0.8040    2.5770 C   0  0  2  0  0  0  0  0  0  0  0  0
    3.5630    0.5920    4.0050 C   0  0  0  0  0  0  0  0  0  0  0  0
    2.4080    0.7210    4.6420 O   0  0  0  0  0  0  0  0  0  0  0  0
    1.1760    0.6240    4.0120 C   0  0  0  0  0  0  0  0  0  0  0  0
    0.9810    1.6680    3.0090 C   0  0  2  0  0  0  0  0  0  0  0  0
    0.6910    1.0910    1.6840 C   0  0  0  0  0  0  0  0  0  0  0  0
    0.4490    0.6030    0.5660 N   0  0  0  0  0  0  0  0  0  0  0  0
    2.2250    2.5420    2.8310 C   0  0  0  0  0  0  0  0  0  0  0  0
    3.1220    1.8970    1.9170 N   0  0  0  0  0  0  0  0  0  0  0  0
   -0.1420    2.6550    3.2640 C   0  0  2  0  0  0  0  0  0  0  0  0
   -0.8440    2.0180    4.3520 O   0  0  0  0  0  0  0  0  0  0  0  0
   -1.0990    2.8660    2.1250 C   0  0  0  0  0  0  0  0  0  0  0  0
   -2.4160    2.9860    2.7260 C   0  0  0  0  0  0  0  0  0  0  0  0
   -3.5400    2.9790    1.9450 C   0  0  0  0  0  0  0  0  0  0  0  0
   -3.3770    2.8440    0.6010 C   0  0  0  0  0  0  0  0  0  0  0  0
   -2.1140    2.7220    0.0300 C   0  0  0  0  0  0  0  0  0  0  0  0
   -0.9460    2.7520    0.7640 C   0  0  0  0  0  0  0  0  0  0  0  0
   -2.2740    2.2090   -1.3620 N   0  0  0  0  0  0  0  0  0  0  0  0
   -1.9850    1.0080   -1.9290 C   0  0  0  0  0  0  0  0  0  0  0  0
   -1.1730    1.0230   -2.9870 O   0  0  0  0  0  0  0  0  0  0  0  0
  1  2  1  0
  2  3  1  0
  3  4  1  0
  4  5  1  1
  4  6  1  0
  4 39  1  0
  6  7  1  0
  7  8  1  1
  7  9  1  0
  9 10  1  6
  9 12  1  0
 10 11  1  0
 12 13  1  0
 13 14  1  0
 14 15  1  0
 15 16  1  0
 15 19  2  0
 16 17  2  0
 17 18  1  0
 18 19  1  0
 19 20  1  0
 21 20  1  6
 21 22  1  0
 21 29  1  0
 22 23  1  0
 23 24  1  0
 24 25  1  0
 25 26  1  6
 25 28  1  0
 25 30  1  0
 26 27  3  0
 28 29  1  0
 30 31  1  1
 30 32  1  0
 32 33  1  0
 32 37  2  0
 33 34  2  0
 34 35  1  0
 35 36  2  0
 36 37  1  0
 36 38  1  0
 38 39  1  0
 39 40  2  0
M  CHG  1  29   1
M  END
