
     RDKit          3D

 11 10  0  0  0  0  0  0  0  0999 V2000
    2.5540   -0.6050   -0.3760 C   0  0  0  0  0  0  0  0  0  0  0  0
    1.5040    0.2430    0.2870 C   0  0  1  0  0  0  0  0  0  0  0  0
    0.2230   -0.4290    0.3640 N   0  0  0  0  0  0  0  0  0  0  0  0
   -0.9390    0.0850   -0.2480 C   0  0  0  0  0  0  0  0  0  0  0  0
   -0.9130    1.1610   -0.8950 O   0  0  0  0  0  0  0  0  0  0  0  0
   -2.2270   -0.6430   -0.1380 C   0  0  0  0  0  0  0  0  0  0  0  0
   -3.3460    0.0680   -0.8590 C   0  0  0  0  0  0  0  0  0  0  0  0
   -3.0280    0.2650   -2.6100 S   0  0  0  0  0  0  0  0  0  0  0  0
    2.0080    0.6370    1.6270 C   0  0  0  0  0  0  0  0  0  0  0  0
    1.4030    0.4190    2.6970 O   0  0  0  0  0  0  0  0  0  0  0  0
    3.2330    1.2900    1.6690 O   0  0  0  0  0  0  0  0  0  0  0  0
  2  1  1  1
  2  3  1  0
  2  9  1  0
  3  4  1  0
  4  5  2  0
  4  6  1  0
  6  7  1  0
  7  8  1  0
  9 10  2  0
  9 11  1  0
M  END
