
     RDKit          3D

 10 10  0  0  0  0  0  0  0  0999 V2000
    3.7300   -0.4300    0.2600 O   0  0  0  0  0  0  0  0  0  0  0  0
    3.1390    0.8080    0.0480 C   0  0  0  0  0  0  0  0  0  0  0  0
    1.7780    0.6610   -0.5920 C   0  0  0  0  0  0  0  0  0  0  0  0
    0.8670   -0.1670    0.3250 C   0  0  0  0  0  0  0  0  0  0  0  0
   -0.4170   -0.3090   -0.2690 N   0  0  0  0  0  0  0  0  0  0  0  0
   -1.1930    0.8800   -0.3640 C   0  0  0  0  0  0  0  0  0  0  0  0
   -2.6030    0.4440   -0.7920 C   0  0  0  0  0  0  0  0  0  0  0  0
   -3.2490   -0.2150    0.2430 O   0  0  0  0  0  0  0  0  0  0  0  0
   -2.4230   -1.0390    0.9690 C   0  0  0  0  0  0  0  0  0  0  0  0
   -1.2050   -1.4080    0.1690 C   0  0  0  0  0  0  0  0  0  0  0  0
  1  2  1  0
  2  3  1  0
  3  4  1  0
  4  5  1  0
  5  6  1  0
  5 10  1  0
  6  7  1  0
  7  8  1  0
  8  9  1  0
  9 10  1  0
M  END
