
     RDKit          3D

 10 10  0  0  0  0  0  0  0  0999 V2000
    3.7900    0.3800    0.3880 C   0  0  0  0  0  0  0  0  0  0  0  0
    2.4040   -0.0090    0.5520 N   0  0  0  0  0  0  0  0  0  0  0  0
    1.4120    0.2950   -0.4150 C   0  0  0  0  0  0  0  0  0  0  0  0
    1.7780    0.9380   -1.4590 O   0  0  0  0  0  0  0  0  0  0  0  0
    0.0120   -0.0610   -0.3200 C   0  0  0  0  0  0  0  0  0  0  0  0
   -0.4690   -0.7340    0.7270 C   0  0  0  0  0  0  0  0  0  0  0  0
   -1.9060   -1.0510    0.7330 C   0  0  0  0  0  0  0  0  0  0  0  0
   -2.7410    0.0910    0.1990 C   0  0  0  0  0  0  0  0  0  0  0  0
   -2.2240    0.6360   -1.0980 C   0  0  0  0  0  0  0  0  0  0  0  0
   -0.8730    0.3020   -1.3430 O   0  0  0  0  0  0  0  0  0  0  0  0
  1  2  1  0
  2  3  1  0
  3  4  2  0
  3  5  1  0
  5  6  2  0
  5 10  1  0
  6  7  1  0
  7  8  1  0
  8  9  1  0
  9 10  1  0
M  END
