
     RDKit          3D

 10 10  0  0  0  0  0  0  0  0999 V2000
    3.2960    0.2400    0.4160 N   0  0  0  0  0  0  0  0  0  0  0  0
    2.0960    0.9600    0.1120 C   0  0  0  0  0  0  0  0  0  0  0  0
    2.0690    2.1860    0.3710 O   0  0  0  0  0  0  0  0  0  0  0  0
    0.9520    0.2610   -0.4820 C   0  0  1  0  0  0  0  0  0  0  0  0
    0.4880   -0.9160    0.3460 C   0  0  0  0  0  0  0  0  0  0  0  0
   -0.7660   -1.4410   -0.2730 C   0  0  0  0  0  0  0  0  0  0  0  0
   -2.0150   -0.8730    0.3290 C   0  0  0  0  0  0  0  0  0  0  0  0
   -2.1440    0.5960    0.2460 C   0  0  0  0  0  0  0  0  0  0  0  0
   -0.8680    1.3600    0.4290 C   0  0  0  0  0  0  0  0  0  0  0  0
   -0.0770    1.1710   -0.6790 O   0  0  0  0  0  0  0  0  0  0  0  0
  1  2  1  0
  2  3  2  0
  4  2  1  1
  4  5  1  0
  4 10  1  0
  5  6  1  0
  6  7  1  0
  7  8  1  0
  8  9  1  0
  9 10  1  0
M  END
