
     RDKit          3D

  9  8  0  0  0  0  0  0  0  0999 V2000
   -2.0410   -1.0740    0.3580 N   0  0  0  0  0  0  0  0  0  0  0  0
   -1.3800   -0.2080   -0.5580 C   0  0  0  0  0  0  0  0  0  0  0  0
   -2.0710    0.2590   -1.5850 C   0  0  0  0  0  0  0  0  0  0  0  0
   -3.4040   -0.0680   -1.7920 O   0  0  0  0  0  0  0  0  0  0  0  0
    0.0140    0.1330   -0.3380 C   0  0  0  0  0  0  0  0  0  0  0  0
    0.7230   -0.3150    0.6710 C   0  0  0  0  0  0  0  0  0  0  0  0
    0.1240   -1.1610    1.5880 O   0  0  0  0  0  0  0  0  0  0  0  0
    2.1450    0.0430    0.8800 C   0  0  0  0  0  0  0  0  0  0  0  0
    2.6160    0.9420   -0.1810 N   0  0  0  0  0  0  0  0  0  0  0  0
  1  2  1  0
  2  3  2  3
  2  5  1  0
  3  4  1  0
  5  6  2  3
  6  7  1  0
  6  8  1  0
  8  9  1  0
M  CHG  1   9   1
M  END
