
     RDKit          3D

  8  7  0  0  0  0  0  0  0  0999 V2000
   -2.1730   -1.4360    0.5240 N   0  0  0  0  0  0  0  0  0  0  0  0
   -1.5890   -0.2820   -0.0930 C   0  0  2  0  0  0  0  0  0  0  0  0
   -0.1600   -0.0860    0.2630 C   0  0  0  0  0  0  0  0  0  0  0  0
    0.8380   -0.6470   -0.3710 C   0  0  0  0  0  0  0  0  0  0  0  0
    2.2400   -0.3980    0.0490 C   0  0  0  0  0  0  0  0  0  0  0  0
    3.0290    0.2080   -1.0260 N   0  0  0  0  0  0  0  0  0  0  0  0
   -2.3610    0.9780    0.2400 C   0  0  0  0  0  0  0  0  0  0  0  0
   -1.7460    2.0590   -0.3870 O   0  0  0  0  0  0  0  0  0  0  0  0
  2  1  1  1
  2  3  1  0
  2  7  1  0
  3  4  2  3
  4  5  1  0
  5  6  1  0
  7  8  1  0
M  CHG  1   6   1
M  END
