
     RDKit          3D

 24 27  0  0  0  0  0  0  0  0999 V2000
   -3.4540    3.5630    0.8810 C   0  0  0  0  0  0  0  0  0  0  0  0
   -3.0060    3.2710   -0.3710 O   0  0  0  0  0  0  0  0  0  0  0  0
   -2.0250    2.3480   -0.5110 C   0  0  0  0  0  0  0  0  0  0  0  0
   -2.3490    0.9520   -0.2370 C   0  0  0  0  0  0  0  0  0  0  0  0
   -3.6180    0.5040    0.0300 C   0  0  0  0  0  0  0  0  0  0  0  0
   -3.8290   -0.8630    0.2320 C   0  0  0  0  0  0  0  0  0  0  0  0
   -5.1260   -1.2640    0.5000 O   0  0  0  0  0  0  0  0  0  0  0  0
   -2.7690   -1.7350    0.1600 C   0  0  0  0  0  0  0  0  0  0  0  0
   -1.4800   -1.2820   -0.1130 C   0  0  0  0  0  0  0  0  0  0  0  0
   -1.2880    0.0360   -0.3060 C   0  0  0  0  0  0  0  0  0  0  0  0
    0.0120    0.5080   -0.5830 O   0  0  0  0  0  0  0  0  0  0  0  0
    1.0140   -0.4160   -0.9890 C   0  0  1  0  0  0  0  0  0  0  0  0
    2.3260    0.2240   -1.0010 C   0  0  0  0  0  0  0  0  0  0  0  0
    2.4670    1.5190   -1.4640 C   0  0  0  0  0  0  0  0  0  0  0  0
    3.6580    2.1730   -1.5150 C   0  0  0  0  0  0  0  0  0  0  0  0
    4.8040    1.5460   -1.0940 C   0  0  0  0  0  0  0  0  0  0  0  0
    6.0350    2.2150   -1.1440 O   0  0  0  0  0  0  0  0  0  0  0  0
    4.7020    0.2540   -0.6260 C   0  0  0  0  0  0  0  0  0  0  0  0
    3.4720   -0.4110   -0.5770 C   0  0  0  0  0  0  0  0  0  0  0  0
    0.9670   -1.6580   -0.1430 C   0  0  1  0  0  0  0  0  0  0  0  0
    1.1190   -1.4060    1.3340 C   0  0  0  0  0  0  0  0  0  0  0  0
    0.8320   -2.8220    1.8590 C   0  0  0  0  0  0  0  0  0  0  0  0
   -0.4740   -3.1110    1.1080 C   0  0  0  0  0  0  0  0  0  0  0  0
   -0.4010   -2.3040   -0.1710 C   0  0  1  0  0  0  0  0  0  0  0  0
  1  2  1  0
  2  3  1  0
  3  4  1  0
  4  5  2  0
  4 10  1  0
  5  6  1  0
  6  7  1  0
  6  8  2  0
  8  9  1  0
  9 10  2  0
  9 24  1  0
 10 11  1  0
 11 12  1  0
 12 13  1  1
 12 20  1  0
 13 14  2  0
 13 19  1  0
 14 15  1  0
 15 16  2  0
 16 17  1  0
 16 18  1  0
 18 19  2  0
 20 21  1  1
 20 24  1  0
 21 22  1  0
 22 23  1  0
 24 23  1  1
M  END
