
     RDKit          3D

  9  8  0  0  0  0  0  0  0  0999 V2000
   -1.9770    1.0500   -1.0480 N   0  0  0  0  0  0  0  0  0  0  0  0
   -1.5720    0.1930    0.0160 C   0  0  0  0  0  0  0  0  0  0  0  0
   -2.4770   -0.0360    0.9640 C   0  0  0  0  0  0  0  0  0  0  0  0
   -3.7430    0.5080    0.9490 O   0  0  0  0  0  0  0  0  0  0  0  0
   -0.2460   -0.4030    0.0730 C   0  0  0  0  0  0  0  0  0  0  0  0
    0.0550   -1.2220    1.1450 O   0  0  0  0  0  0  0  0  0  0  0  0
    0.6800   -0.2050   -0.8420 C   0  0  0  0  0  0  0  0  0  0  0  0
    2.0170   -0.8290   -0.7500 C   0  0  0  0  0  0  0  0  0  0  0  0
    3.0630    0.2020   -0.6990 N   0  0  0  0  0  0  0  0  0  0  0  0
  1  2  1  0
  2  3  2  3
  2  5  1  0
  3  4  1  0
  5  6  1  0
  5  7  2  3
  7  8  1  0
  8  9  1  0
M  CHG  1   9   1
M  END
