
     RDKit          3D

 13 14  0  0  0  0  0  0  0  0999 V2000
   -3.7570   -0.1400   -0.5040 C   0  0  0  0  0  0  0  0  0  0  0  0
   -2.3180   -0.1150   -0.0660 C   0  0  0  0  0  0  0  0  0  0  0  0
   -1.9900   -0.2550    1.2730 C   0  0  0  0  0  0  0  0  0  0  0  0
   -0.6510   -0.2240    1.6120 C   0  0  0  0  0  0  0  0  0  0  0  0
   -0.3280   -0.3490    2.8190 O   0  0  0  0  0  0  0  0  0  0  0  0
    0.3590   -0.0620    0.6870 C   0  0  0  0  0  0  0  0  0  0  0  0
    1.6990   -0.0310    1.0310 C   0  0  0  0  0  0  0  0  0  0  0  0
    2.6980    0.1330    0.0930 C   0  0  0  0  0  0  0  0  0  0  0  0
    4.0730    0.1620    0.4610 N   0  0  0  0  0  0  0  0  0  0  0  0
    2.3180    0.2680   -1.2280 C   0  0  0  0  0  0  0  0  0  0  0  0
    0.9750    0.2360   -1.5620 C   0  0  0  0  0  0  0  0  0  0  0  0
   -0.0250    0.0730   -0.6320 C   0  0  0  0  0  0  0  0  0  0  0  0
   -1.3350    0.0440   -0.9720 N   0  0  0  0  0  0  0  0  0  0  0  0
  1  2  1  0
  2  3  2  0
  2 13  1  0
  3  4  1  0
  4  5  2  0
  4  6  1  0
  6  7  2  0
  6 12  1  0
  7  8  1  0
  8  9  1  0
  8 10  2  0
 10 11  1  0
 11 12  2  0
 12 13  1  0
M  END
