
     RDKit          3D

 12 13  0  0  0  0  0  0  0  0999 V2000
    3.4330   -0.4800   -0.1620 N   0  0  0  0  0  0  0  0  0  0  0  0
    2.0790   -0.0680   -0.0590 C   0  0  0  0  0  0  0  0  0  0  0  0
    1.7350    1.2540    0.1740 C   0  0  0  0  0  0  0  0  0  0  0  0
    0.4090    1.6270    0.2690 C   0  0  0  0  0  0  0  0  0  0  0  0
   -0.6180    0.7340    0.1410 C   0  0  0  0  0  0  0  0  0  0  0  0
   -1.9500    1.0760    0.2310 C   0  0  0  0  0  0  0  0  0  0  0  0
   -2.2060    2.2980    0.4460 O   0  0  0  0  0  0  0  0  0  0  0  0
   -2.9460    0.1820    0.1020 N   0  0  0  0  0  0  0  0  0  0  0  0
   -2.6630   -1.1150   -0.1250 C   0  0  0  0  0  0  0  0  0  0  0  0
   -1.3380   -1.4890   -0.2210 C   0  0  0  0  0  0  0  0  0  0  0  0
   -0.2980   -0.5800   -0.0900 C   0  0  0  0  0  0  0  0  0  0  0  0
    1.0230   -0.9600   -0.1860 C   0  0  0  0  0  0  0  0  0  0  0  0
  1  2  1  0
  2  3  2  0
  2 12  1  0
  3  4  1  0
  4  5  2  0
  5  6  1  0
  5 11  1  0
  6  7  2  0
  6  8  1  0
  8  9  1  0
  9 10  2  0
 10 11  1  0
 11 12  2  0
M  END
