
     RDKit          3D

 13 13  0  0  0  0  0  0  0  0999 V2000
   -3.1480   -1.1360   -0.9030 C   0  0  0  0  0  0  0  0  0  0  0  0
   -2.2560   -0.3400   -0.3710 C   0  0  0  0  0  0  0  0  0  0  0  0
   -2.7000    0.7470    0.5350 C   0  0  0  0  0  0  0  0  0  0  0  0
   -1.7030    1.0660    1.6020 C   0  0  0  0  0  0  0  0  0  0  0  0
   -0.2890    0.9540    1.2330 C   0  0  0  0  0  0  0  0  0  0  0  0
    0.0380    0.0780    0.0830 C   0  0  0  0  0  0  0  0  0  0  0  0
    1.4310   -0.1260   -0.2380 C   0  0  0  0  0  0  0  0  0  0  0  0
    2.3620    0.4590    0.4860 C   0  0  0  0  0  0  0  0  0  0  0  0
    3.7780    0.2950    0.2160 C   0  0  0  0  0  0  0  0  0  0  0  0
    4.1950   -0.5240   -0.8640 N   0  0  0  0  0  0  0  0  0  0  0  0
    4.6190    0.8750    0.9360 O   0  0  0  0  0  0  0  0  0  0  0  0
   -0.8560   -0.5280   -0.6700 C   0  0  0  0  0  0  0  0  0  0  0  0
   -0.4310   -1.3530   -1.7570 N   0  0  0  0  0  0  0  0  0  0  0  0
  1  2  2  0
  2  3  1  0
  2 12  1  0
  3  4  1  0
  4  5  1  0
  5  6  1  0
  6  7  1  0
  6 12  2  0
  7  8  2  3
  8  9  1  0
  9 10  1  0
  9 11  2  0
 12 13  1  0
M  END
