
     RDKit          3D

 11 12  0  0  0  0  0  0  0  0999 V2000
   -2.5040   -0.8570    0.0100 C   0  0  0  0  0  0  0  0  0  0  0  0
   -1.3860    0.1360   -0.0450 C   0  0  0  0  0  0  0  0  0  0  0  0
   -1.4830    1.5090   -0.1600 C   0  0  0  0  0  0  0  0  0  0  0  0
   -0.2170    2.0280   -0.1730 C   0  0  0  0  0  0  0  0  0  0  0  0
    0.6700    0.9750   -0.0670 C   0  0  0  0  0  0  0  0  0  0  0  0
    2.0690    0.9240   -0.0310 C   0  0  0  0  0  0  0  0  0  0  0  0
    2.6430   -0.3120    0.0830 C   0  0  0  0  0  0  0  0  0  0  0  0
    1.8700   -1.4100    0.1550 N   0  0  0  0  0  0  0  0  0  0  0  0
    0.5230   -1.3590    0.1200 C   0  0  0  0  0  0  0  0  0  0  0  0
   -0.1650   -2.4070    0.1900 O   0  0  0  0  0  0  0  0  0  0  0  0
   -0.0760   -0.1440    0.0080 N   0  0  0  0  0  0  0  0  0  0  0  0
  1  2  1  0
  2  3  2  0
  2 11  1  0
  3  4  1  0
  4  5  2  0
  5  6  1  0
  5 11  1  0
  6  7  2  0
  7  8  1  0
  8  9  1  0
  9 10  2  0
  9 11  1  0
M  END
