
     RDKit          3D

 27 29  0  0  0  0  0  0  0  0999 V2000
    0.7750   -1.6000    0.3610 C   0  0  0  0  0  0  0  0  0  0  0  0
    0.3040   -0.2410   -0.0890 C   0  0  2  0  0  0  0  0  0  0  0  0
   -1.4830   -0.3290   -0.3610 S   0  0  0  0  0  0  0  0  0  0  0  0
   -2.3240   -0.6080    1.1970 C   0  0  0  0  0  0  0  0  0  0  0  0
   -1.7040   -0.7380    2.3970 N   0  0  0  0  0  0  0  0  0  0  0  0
   -2.5800   -0.9300    3.3600 N   0  0  0  0  0  0  0  0  0  0  0  0
   -2.2560   -1.1090    4.7750 C   0  0  0  0  0  0  0  0  0  0  0  0
   -3.7540   -0.9240    2.7940 N   0  0  0  0  0  0  0  0  0  0  0  0
   -3.6590   -0.7290    1.4540 C   0  0  0  0  0  0  0  0  0  0  0  0
   -4.7380   -0.6610    0.4950 C   0  0  0  0  0  0  0  0  0  0  0  0
   -5.9120   -0.7930    0.9880 O   0  0  0  0  0  0  0  0  0  0  0  0
   -4.6630   -0.4730   -0.8870 N   0  0  0  0  0  0  0  0  0  0  0  0
   -5.7400   -0.3960   -1.8340 C   0  0  0  0  0  0  0  0  0  0  0  0
   -6.6940    0.7300   -1.6710 C   0  0  0  0  0  0  0  0  0  0  0  0
   -7.3190    0.6820   -0.4460 O   0  0  0  0  0  0  0  0  0  0  0  0
    1.0020    0.2320   -1.2910 C   0  0  0  0  0  0  0  0  0  0  0  0
    0.3520    0.4750   -2.3300 O   0  0  0  0  0  0  0  0  0  0  0  0
    2.4390    0.4260   -1.3030 C   0  0  0  0  0  0  0  0  0  0  0  0
    3.2840    0.2000   -0.2340 C   0  0  0  0  0  0  0  0  0  0  0  0
    4.5610    0.4950   -0.6300 C   0  0  0  0  0  0  0  0  0  0  0  0
    5.8030    0.4610   -0.0020 C   0  0  0  0  0  0  0  0  0  0  0  0
    6.9310    0.8270   -0.6860 C   0  0  0  0  0  0  0  0  0  0  0  0
    8.1950    0.7810   -0.0070 N   0  0  0  0  0  0  0  0  0  0  0  0
    6.8490    1.2290   -1.9920 C   0  0  0  0  0  0  0  0  0  0  0  0
    5.6290    1.2570   -2.5940 C   0  0  0  0  0  0  0  0  0  0  0  0
    4.4510    0.8950   -1.9410 C   0  0  0  0  0  0  0  0  0  0  0  0
    3.1990    0.8380   -2.2870 O   0  0  0  0  0  0  0  0  0  0  0  0
  2  1  1  6
  2  3  1  0
  2 16  1  0
  3  4  1  0
  4  5  2  0
  4  9  1  0
  5  6  1  0
  6  7  1  0
  6  8  1  0
  8  9  2  0
  9 10  1  0
 10 11  2  0
 10 12  1  0
 12 13  1  0
 13 14  1  0
 14 15  1  0
 16 17  2  0
 16 18  1  0
 18 19  2  0
 18 27  1  0
 19 20  1  0
 20 21  2  0
 20 26  1  0
 21 22  1  0
 22 23  1  0
 22 24  2  0
 24 25  1  0
 25 26  2  0
 26 27  1  0
M  END
