
     RDKit          3D

 27 29  0  0  0  0  0  0  0  0999 V2000
    9.5400   -0.1040   -0.6280 C   0  0  0  0  0  0  0  0  0  0  0  0
    8.1640   -0.4530   -0.9070 N   0  0  0  0  0  0  0  0  0  0  0  0
    7.0640    0.0910   -0.1940 C   0  0  0  0  0  0  0  0  0  0  0  0
    7.2580    0.9110    0.7230 O   0  0  0  0  0  0  0  0  0  0  0  0
    5.6720   -0.2960   -0.5150 C   0  0  0  0  0  0  0  0  0  0  0  0
    5.4240   -1.1100   -1.4190 O   0  0  0  0  0  0  0  0  0  0  0  0
    4.6050    0.2680    0.2190 N   0  0  0  0  0  0  0  0  0  0  0  0
    3.2370    0.0250    0.0660 C   0  0  0  0  0  0  0  0  0  0  0  0
    2.6750   -0.9430   -0.7120 C   0  0  0  0  0  0  0  0  0  0  0  0
    1.3060   -1.0720   -0.7930 C   0  0  0  0  0  0  0  0  0  0  0  0
    0.4210   -0.2450   -0.1020 C   0  0  0  0  0  0  0  0  0  0  0  0
    0.9810    0.7260    0.6800 C   0  0  0  0  0  0  0  0  0  0  0  0
    2.3390    0.8510    0.7560 C   0  0  0  0  0  0  0  0  0  0  0  0
   -0.0990    1.8250    1.5960 S   0  0  0  0  0  0  0  0  0  0  0  0
   -1.7500    1.2970    1.1970 C   0  0  0  0  0  0  0  0  0  0  0  0
   -2.7040    1.9380    1.7380 N   0  0  0  0  0  0  0  0  0  0  0  0
   -4.0630    1.6020    1.4900 C   0  0  0  0  0  0  0  0  0  0  0  0
   -4.6040    0.7840    2.2770 O   0  0  0  0  0  0  0  0  0  0  0  0
   -4.7430    2.2280    0.3360 C   0  0  0  0  0  0  0  0  0  0  0  0
   -6.0780    1.8130    0.2040 O   0  0  0  0  0  0  0  0  0  0  0  0
   -6.4160    0.4760    0.0130 C   0  0  0  0  0  0  0  0  0  0  0  0
   -6.2050   -0.2590   -1.0650 C   0  0  0  0  0  0  0  0  0  0  0  0
   -6.7410   -1.6120   -0.7830 C   0  0  0  0  0  0  0  0  0  0  0  0
   -7.2760   -1.5380    0.5830 C   0  0  0  0  0  0  0  0  0  0  0  0
   -7.0820   -0.3120    1.0430 C   0  0  0  0  0  0  0  0  0  0  0  0
   -1.9960    0.2160    0.3200 N   0  0  0  0  0  0  0  0  0  0  0  0
   -0.9520   -0.4730   -0.2620 N   0  0  0  0  0  0  0  0  0  0  0  0
  1  2  1  0
  2  3  1  0
  3  4  2  0
  3  5  1  0
  5  6  2  0
  5  7  1  0
  7  8  1  0
  8  9  2  0
  8 13  1  0
  9 10  1  0
 10 11  2  0
 11 12  1  0
 11 27  1  0
 12 13  2  0
 12 14  1  0
 14 15  1  0
 15 16  2  3
 15 26  1  0
 16 17  1  0
 17 18  2  0
 17 19  1  0
 19 20  1  0
 20 21  1  0
 21 22  2  0
 21 25  1  0
 22 23  1  0
 23 24  1  0
 24 25  2  0
 26 27  1  0
M  END
