
     RDKit          3D

 27 29  0  0  0  0  0  0  0  0999 V2000
   -5.2330   -1.1670    1.1500 C   0  0  0  0  0  0  0  0  0  0  0  0
   -4.2050   -1.2900    0.0380 C   0  0  0  0  0  0  0  0  0  0  0  0
   -3.6860   -0.0120   -0.3650 N   0  0  0  0  0  0  0  0  0  0  0  0
   -4.1930    0.8540   -1.3800 C   0  0  0  0  0  0  0  0  0  0  0  0
   -4.8980    0.4490   -2.3560 O   0  0  0  0  0  0  0  0  0  0  0  0
   -3.7580    2.2610   -1.0900 C   0  0  0  0  0  0  0  0  0  0  0  0
   -3.0600    2.1110    0.2440 C   0  0  0  0  0  0  0  0  0  0  0  0
   -2.5190    0.6890    0.1760 C   0  0  2  0  0  0  0  0  0  0  0  0
   -1.3870    0.7050   -0.8240 C   0  0  0  0  0  0  0  0  0  0  0  0
   -0.8620   -0.9330   -1.2680 S   0  0  1  0  0  0  0  0  0  0  0  0
   -2.0270   -1.6780   -1.9090 O   0  0  0  0  0  0  0  0  0  0  0  0
    0.2230   -0.7980   -2.2930 O   0  0  0  0  0  0  0  0  0  0  0  0
   -0.3160   -1.7900    0.1090 N   0  0  0  0  0  0  0  0  0  0  0  0
    0.7990   -1.3370    0.8730 C   0  0  0  0  0  0  0  0  0  0  0  0
    0.7030   -1.3080    2.2460 C   0  0  0  0  0  0  0  0  0  0  0  0
    1.7810   -0.8680    2.9740 C   0  0  0  0  0  0  0  0  0  0  0  0
    2.9490   -0.4550    2.3660 C   0  0  0  0  0  0  0  0  0  0  0  0
    3.0340   -0.4880    0.9760 C   0  0  0  0  0  0  0  0  0  0  0  0
    4.2600   -0.0580    0.3240 C   0  0  0  0  0  0  0  0  0  0  0  0
    5.5090   -0.4540    0.7440 C   0  0  0  0  0  0  0  0  0  0  0  0
    6.6130    0.0270    0.0340 C   0  0  0  0  0  0  0  0  0  0  0  0
    7.7410   -0.3580    0.4490 O   0  0  0  0  0  0  0  0  0  0  0  0
    6.4970    0.8330   -1.0090 N   0  0  0  0  0  0  0  0  0  0  0  0
    5.2960    1.2110   -1.4100 N   0  0  0  0  0  0  0  0  0  0  0  0
    4.1820    0.7790   -0.7620 C   0  0  0  0  0  0  0  0  0  0  0  0
    2.9090    1.2070   -1.2200 N   0  0  0  0  0  0  0  0  0  0  0  0
    1.9520   -0.9320    0.2420 C   0  0  0  0  0  0  0  0  0  0  0  0
  1  2  1  0
  2  3  1  0
  3  4  1  0
  3  8  1  0
  4  5  2  0
  4  6  1  0
  6  7  1  0
  7  8  1  0
  8  9  1  6
 10  9  1  1
 10 11  2  0
 10 12  2  0
 10 13  1  0
 13 14  1  0
 14 15  2  0
 14 27  1  0
 15 16  1  0
 16 17  2  0
 17 18  1  0
 18 19  1  0
 18 27  2  0
 19 20  2  0
 19 25  1  0
 20 21  1  0
 21 22  2  0
 21 23  1  0
 23 24  1  0
 24 25  2  0
 25 26  1  0
M  END
