
     RDKit          3D

 27 29  0  0  0  0  0  0  0  0999 V2000
   -7.6500    1.1430    0.5760 C   0  0  0  0  0  0  0  0  0  0  0  0
   -6.4670    1.4430   -0.0890 O   0  0  0  0  0  0  0  0  0  0  0  0
   -5.3660    0.6020   -0.0510 C   0  0  0  0  0  0  0  0  0  0  0  0
   -5.3500   -0.5820    0.6420 C   0  0  0  0  0  0  0  0  0  0  0  0
   -4.2230   -1.3630    0.6330 C   0  0  0  0  0  0  0  0  0  0  0  0
   -3.0920   -1.0110   -0.0470 C   0  0  0  0  0  0  0  0  0  0  0  0
   -1.9660   -1.7980   -0.0500 O   0  0  0  0  0  0  0  0  0  0  0  0
   -1.8780   -3.0220    0.6380 C   0  0  0  0  0  0  0  0  0  0  0  0
   -3.0620    0.1880   -0.7680 C   0  0  0  0  0  0  0  0  0  0  0  0
   -1.9010    0.5290   -1.4560 N   0  0  0  0  0  0  0  0  0  0  0  0
   -1.6840    1.6430   -2.2680 C   0  0  0  0  0  0  0  0  0  0  0  0
   -2.6010    2.4730   -2.4530 O   0  0  0  0  0  0  0  0  0  0  0  0
   -0.3850    1.9180   -2.9620 C   0  0  0  0  0  0  0  0  0  0  0  0
    0.6470    0.9710   -2.6480 N   0  0  0  0  0  0  0  0  0  0  0  0
    1.1150    0.9110   -1.3200 C   0  0  0  0  0  0  0  0  0  0  0  0
    0.6320    1.6880   -0.4430 O   0  0  0  0  0  0  0  0  0  0  0  0
    2.1270    0.0140   -0.8600 N   0  0  0  0  0  0  0  0  0  0  0  0
    2.5540    0.0190    0.4660 N   0  0  0  0  0  0  0  0  0  0  0  0
    3.9290   -0.0760    0.7300 C   0  0  0  0  0  0  0  0  0  0  0  0
    4.9620   -0.2160    0.1310 N   0  0  0  0  0  0  0  0  0  0  0  0
    6.1840   -0.2630    0.5970 C   0  0  0  0  0  0  0  0  0  0  0  0
    6.3360   -0.1380    1.9520 C   0  0  0  0  0  0  0  0  0  0  0  0
    4.6120    0.0470    2.4750 S   0  0  0  0  0  0  0  0  0  0  0  0
    7.5660   -0.1920    2.3620 C   0  0  0  0  0  0  0  0  0  0  0  0
    8.4170   -0.3770    1.1750 C   0  0  0  0  0  0  0  0  0  0  0  0
    7.4260   -0.4120    0.0720 C   0  0  0  0  0  0  0  0  0  0  0  0
   -4.1920    0.9520   -0.7470 C   0  0  0  0  0  0  0  0  0  0  0  0
  1  2  1  0
  2  3  1  0
  3  4  2  0
  3 27  1  0
  4  5  1  0
  5  6  2  0
  6  7  1  0
  6  9  1  0
  7  8  1  0
  9 10  1  0
  9 27  2  0
 10 11  1  0
 11 12  2  0
 11 13  1  0
 13 14  1  0
 14 15  1  0
 15 16  2  0
 15 17  1  0
 17 18  1  0
 18 19  1  0
 19 20  2  0
 19 23  1  0
 20 21  1  0
 21 22  1  0
 21 26  2  0
 22 23  1  0
 22 24  2  0
 24 25  1  0
 25 26  1  0
M  END
