
     RDKit          3D

 27 29  0  0  0  0  0  0  0  0999 V2000
   -6.1880    1.9660   -0.2660 C   0  0  0  0  0  0  0  0  0  0  0  0
   -4.7010    2.2650   -0.3030 C   0  0  0  0  0  0  0  0  0  0  0  0
   -3.9260    1.0310   -0.5110 C   0  0  0  0  0  0  0  0  0  0  0  0
   -3.0280    0.5700    0.3260 C   0  0  0  0  0  0  0  0  0  0  0  0
   -2.5130    1.0270    1.6220 C   0  0  0  0  0  0  0  0  0  0  0  0
   -2.5700    2.2670    1.9290 O   0  0  0  0  0  0  0  0  0  0  0  0
   -1.9640    0.0530    2.4920 N   0  0  0  0  0  0  0  0  0  0  0  0
   -1.9320   -1.3070    2.0820 C   0  0  0  0  0  0  0  0  0  0  0  0
   -1.4590   -2.2140    2.8130 O   0  0  0  0  0  0  0  0  0  0  0  0
   -2.4560   -1.6850    0.7880 N   0  0  0  0  0  0  0  0  0  0  0  0
   -2.4270   -0.6640   -0.2370 C   0  0  2  0  0  0  0  0  0  0  0  0
   -0.9840   -0.3050   -0.6010 C   0  0  0  0  0  0  0  0  0  0  0  0
   -0.2560   -1.4680   -1.1800 C   0  0  0  0  0  0  0  0  0  0  0  0
    1.0620   -1.1470   -1.5740 N   0  0  0  0  0  0  0  0  0  0  0  0
    2.1020   -0.5430   -0.8260 C   0  0  0  0  0  0  0  0  0  0  0  0
    2.0370    0.6720   -0.1940 C   0  0  0  0  0  0  0  0  0  0  0  0
    3.1010    1.1500    0.5380 C   0  0  0  0  0  0  0  0  0  0  0  0
    4.2910    0.4360    0.6780 C   0  0  0  0  0  0  0  0  0  0  0  0
    5.3480    0.9850    1.4470 N   0  0  0  0  0  0  0  0  0  0  0  0
    6.8760    0.2460    1.7230 S   0  0  0  0  0  0  0  0  0  0  0  0
    7.3000    0.3810    3.1870 O   0  0  0  0  0  0  0  0  0  0  0  0
    4.3770   -0.7810    0.0530 C   0  0  0  0  0  0  0  0  0  0  0  0
    5.6310   -1.6140    0.1560 C   0  0  0  0  0  0  0  0  0  0  0  0
    3.3070   -1.2460   -0.6740 C   0  0  0  0  0  0  0  0  0  0  0  0
   -3.1900   -0.9460   -1.4360 C   0  0  0  0  0  0  0  0  0  0  0  0
   -3.1330   -1.9480   -2.2140 O   0  0  0  0  0  0  0  0  0  0  0  0
   -4.0840    0.1670   -1.6150 N   0  0  0  0  0  0  0  0  0  0  0  0
  1  2  1  0
  2  3  1  0
  3  4  2  0
  3 27  1  0
  4  5  1  0
  4 11  1  0
  5  6  2  0
  5  7  1  0
  7  8  1  0
  8  9  2  0
  8 10  1  0
 10 11  1  0
 11 12  1  6
 11 25  1  0
 12 13  1  0
 13 14  1  0
 14 15  1  0
 15 16  2  0
 15 24  1  0
 16 17  1  0
 17 18  2  0
 18 19  1  0
 18 22  1  0
 19 20  1  0
 20 21  2  0
 22 23  1  0
 22 24  2  0
 25 26  2  0
 25 27  1  0
M  END
