
     RDKit          3D

 24 26  0  0  0  0  0  0  0  0999 V2000
    4.4040   -0.3990   -4.4310 C   0  0  0  0  0  0  0  0  0  0  0  0
    3.2690   -0.8880   -3.5690 C   0  0  0  0  0  0  0  0  0  0  0  0
    2.4220    0.0100   -2.9600 C   0  0  0  0  0  0  0  0  0  0  0  0
    1.3510   -0.3700   -2.1520 C   0  0  0  0  0  0  0  0  0  0  0  0
    0.4870    0.5490   -1.5290 C   0  0  0  0  0  0  0  0  0  0  0  0
   -0.2710    1.3830   -0.9630 C   0  0  0  0  0  0  0  0  0  0  0  0
   -1.1080    2.3370   -0.3350 C   0  0  0  0  0  0  0  0  0  0  0  0
   -1.3580    3.5850   -0.8510 C   0  0  0  0  0  0  0  0  0  0  0  0
   -2.1760    4.4850   -0.2120 C   0  0  0  0  0  0  0  0  0  0  0  0
   -2.7720    4.1530    0.9730 C   0  0  0  0  0  0  0  0  0  0  0  0
   -2.5450    2.9160    1.5160 C   0  0  0  0  0  0  0  0  0  0  0  0
   -1.7150    2.0070    0.8670 C   0  0  0  0  0  0  0  0  0  0  0  0
   -1.5020    0.7140    1.4740 C   0  0  0  0  0  0  0  0  0  0  0  0
   -2.0690    0.4230    2.5780 N   0  0  0  0  0  0  0  0  0  0  0  0
   -1.8450   -0.8390    3.1450 N   0  0  0  0  0  0  0  0  0  0  0  0
   -0.5800   -1.3330    3.6380 C   0  0  0  0  0  0  0  0  0  0  0  0
   -1.0080   -2.3180    4.7020 C   0  0  0  0  0  0  0  0  0  0  0  0
   -2.1690   -2.8820    4.1060 O   0  0  0  0  0  0  0  0  0  0  0  0
   -2.7910   -1.8840    3.3490 C   0  0  0  0  0  0  0  0  0  0  0  0
   -3.9730   -1.8510    2.8970 O   0  0  0  0  0  0  0  0  0  0  0  0
    1.2070   -1.7200   -2.0090 N   0  0  0  0  0  0  0  0  0  0  0  0
    2.0200   -2.6130   -2.5920 C   0  0  0  0  0  0  0  0  0  0  0  0
    1.7860   -4.0040   -2.3810 N   0  0  0  0  0  0  0  0  0  0  0  0
    3.0520   -2.1900   -3.3720 N   0  0  0  0  0  0  0  0  0  0  0  0
  1  2  1  0
  2  3  2  0
  2 24  1  0
  3  4  1  0
  4  5  1  0
  4 21  2  0
  5  6  3  0
  6  7  1  0
  7  8  2  0
  7 12  1  0
  8  9  1  0
  9 10  2  0
 10 11  1  0
 11 12  2  0
 12 13  1  0
 13 14  2  3
 14 15  1  0
 15 16  1  0
 15 19  1  0
 16 17  1  0
 17 18  1  0
 18 19  1  0
 19 20  2  0
 21 22  1  0
 22 23  1  0
 22 24  2  0
M  END
