
     RDKit          3D

 19 20  0  0  0  0  0  0  0  0999 V2000
   -5.4090   -0.3890    0.2290 N   0  0  0  0  0  0  0  0  0  0  0  0
   -4.5320   -0.1130   -0.8710 C   0  0  0  0  0  0  0  0  0  0  0  0
   -3.0730   -0.1990   -0.4970 C   0  0  2  0  0  0  0  0  0  0  0  0
   -2.7880   -1.5820   -0.0090 C   0  0  0  0  0  0  0  0  0  0  0  0
   -1.5750   -1.7310    0.6190 O   0  0  0  0  0  0  0  0  0  0  0  0
   -1.4540   -0.8350    1.6940 C   0  0  0  0  0  0  0  0  0  0  0  0
   -1.3200    0.5470    1.0690 C   0  0  1  0  0  0  0  0  0  0  0  0
   -0.9490    1.5000    1.9960 O   0  0  0  0  0  0  0  0  0  0  0  0
   -0.2400    0.4310    0.0080 C   0  0  1  0  0  0  0  0  0  0  0  0
   -0.0310    1.6170   -0.6590 O   0  0  0  0  0  0  0  0  0  0  0  0
    1.2230    1.3720   -1.2680 C   0  0  0  0  0  0  0  0  0  0  0  0
    1.9780    0.6590   -0.1820 C   0  0  2  0  0  0  0  0  0  0  0  0
    2.7140   -0.5560   -0.6540 C   0  0  0  0  0  0  0  0  0  0  0  0
    3.7470   -0.3420   -1.4940 O   0  0  0  0  0  0  0  0  0  0  0  0
    4.7890    0.4230   -1.0860 C   0  0  0  0  0  0  0  0  0  0  0  0
    5.5370   -0.0670    0.1300 C   0  0  0  0  0  0  0  0  0  0  0  0
    4.7750   -0.1770    1.2650 O   0  0  0  0  0  0  0  0  0  0  0  0
    0.9590    0.2260    0.6680 O   0  0  0  0  0  0  0  0  0  0  0  0
   -2.6660    0.8790    0.4640 C   0  0  0  0  0  0  0  0  0  0  0  0
  1  2  1  0
  3  2  1  1
  3  4  1  0
  3 19  1  0
  4  5  1  0
  5  6  1  0
  6  7  1  0
  7  8  1  1
  7  9  1  0
  7 19  1  0
  9 10  1  1
  9 18  1  0
 10 11  1  0
 11 12  1  0
 12 13  1  6
 12 18  1  0
 13 14  1  0
 14 15  1  0
 15 16  1  0
 16 17  1  0
M  END
