
     RDKit          3D

 20 20  0  0  0  0  0  0  0  0999 V2000
   -2.3150    2.0010    2.4030 C   0  0  0  0  0  0  0  0  0  0  0  0
   -2.2850    1.4110    1.1310 O   0  0  0  0  0  0  0  0  0  0  0  0
   -2.1680    0.0310    1.2200 C   0  0  1  0  0  0  0  0  0  0  0  0
   -3.3840   -0.6770    0.6640 C   0  0  2  0  0  0  0  0  0  0  0  0
   -3.2500   -2.0270    0.8930 O   0  0  0  0  0  0  0  0  0  0  0  0
   -3.4400   -0.3470   -0.8100 C   0  0  2  0  0  0  0  0  0  0  0  0
   -4.5460   -1.0120   -1.3370 O   0  0  0  0  0  0  0  0  0  0  0  0
   -2.2280   -0.7860   -1.5530 C   0  0  1  0  0  0  0  0  0  0  0  0
   -2.2050   -0.0050   -2.8740 C   0  0  0  0  0  0  0  0  0  0  0  0
   -0.9230   -0.5600   -0.8850 C   0  0  1  0  0  0  0  0  0  0  0  0
   -0.2780    0.5750   -1.4150 O   0  0  0  0  0  0  0  0  0  0  0  0
   -0.9130   -0.5030    0.5910 C   0  0  1  0  0  0  0  0  0  0  0  0
    0.2620    0.3290    1.0560 C   0  0  0  0  0  0  0  0  0  0  0  0
    1.4560   -0.2010    0.4420 N   0  0  0  0  0  0  0  0  0  0  0  0
    2.7510    0.3730    0.6820 C   0  0  0  0  0  0  0  0  0  0  0  0
    2.8790    1.3550    1.4350 O   0  0  0  0  0  0  0  0  0  0  0  0
    3.8870   -0.1500    0.0830 O   0  0  0  0  0  0  0  0  0  0  0  0
    5.1620    0.3820    0.2930 C   0  0  0  0  0  0  0  0  0  0  0  0
    6.1490   -0.4490   -0.5240 C   0  0  0  0  0  0  0  0  0  0  0  0
    7.4540    0.0620   -0.3360 O   0  0  0  0  0  0  0  0  0  0  0  0
  1  2  1  0
  3  2  1  6
  3  4  1  0
  3 12  1  0
  4  5  1  6
  4  6  1  0
  6  7  1  6
  6  8  1  0
  8  9  1  6
  8 10  1  0
 10 11  1  6
 10 12  1  0
 12 13  1  6
 13 14  1  0
 14 15  1  0
 15 16  2  0
 15 17  1  0
 17 18  1  0
 18 19  1  0
 19 20  1  0
M  END
