
     RDKit          3D

 19 20  0  0  0  0  0  0  0  0999 V2000
   -5.0930   -0.1510   -2.0560 C   0  0  0  0  0  0  0  0  0  0  0  0
   -4.4770   -0.1140   -0.7990 O   0  0  0  0  0  0  0  0  0  0  0  0
   -3.1050    0.0890   -0.9380 C   0  0  0  0  0  0  0  0  0  0  0  0
   -2.4220    0.1310    0.3950 C   0  0  2  0  0  0  0  0  0  0  0  0
   -1.0830    0.3240    0.3640 O   0  0  0  0  0  0  0  0  0  0  0  0
   -0.6390    1.4620    1.0150 C   0  0  0  0  0  0  0  0  0  0  0  0
    0.8380    1.6110    0.9400 C   0  0  1  0  0  0  0  0  0  0  0  0
    1.5060    0.5260    1.7800 C   0  0  0  0  0  0  0  0  0  0  0  0
    2.8880    0.5380    1.5560 O   0  0  0  0  0  0  0  0  0  0  0  0
    3.1330    0.2390    0.2160 C   0  0  1  0  0  0  0  0  0  0  0  0
    4.3460    0.9760   -0.3160 C   0  0  0  0  0  0  0  0  0  0  0  0
    4.9600   -0.0350   -1.2270 C   0  0  0  0  0  0  0  0  0  0  0  0
    4.3810   -1.2520   -1.0000 O   0  0  0  0  0  0  0  0  0  0  0  0
    3.6120   -1.1950    0.1300 C   0  0  0  0  0  0  0  0  0  0  0  0
    1.9080    0.4640   -0.6400 C   0  0  0  0  0  0  0  0  0  0  0  0
    1.3560    1.7050   -0.3250 O   0  0  0  0  0  0  0  0  0  0  0  0
   -2.8030   -1.1340    1.1520 C   0  0  2  0  0  0  0  0  0  0  0  0
   -2.2380   -2.3140    0.5710 N   0  0  0  0  0  0  0  0  0  0  0  0
   -4.1790   -1.2950    1.2100 O   0  0  0  0  0  0  0  0  0  0  0  0
  1  2  1  0
  2  3  1  0
  4  3  1  6
  4  5  1  0
  4 17  1  0
  5  6  1  0
  7  6  1  6
  7  8  1  0
  7 16  1  0
  8  9  1  0
  9 10  1  0
 10 11  1  6
 10 14  1  0
 10 15  1  0
 11 12  1  0
 12 13  1  0
 13 14  1  0
 15 16  1  0
 17 18  1  6
 17 19  1  0
M  END
