
     RDKit          3D

 39 42  0  0  0  0  0  0  0  0999 V2000
   -4.5150    2.0310    1.9770 N   0  0  0  0  0  0  0  0  0  0  0  0
   -5.5190    1.2130    1.3910 C   0  0  0  0  0  0  0  0  0  0  0  0
   -6.7890    1.2700    1.9210 C   0  0  0  0  0  0  0  0  0  0  0  0
   -7.7720    0.4880    1.3710 C   0  0  0  0  0  0  0  0  0  0  0  0
   -7.4950   -0.3350    0.3100 C   0  0  0  0  0  0  0  0  0  0  0  0
   -6.2130   -0.3650   -0.1940 C   0  0  0  0  0  0  0  0  0  0  0  0
   -5.1950    0.3920    0.3150 C   0  0  0  0  0  0  0  0  0  0  0  0
   -3.8400    0.4170   -0.1550 C   0  0  0  0  0  0  0  0  0  0  0  0
   -2.9440    1.1430    0.3610 O   0  0  0  0  0  0  0  0  0  0  0  0
   -3.4250   -0.3830   -1.2380 N   0  0  0  0  0  0  0  0  0  0  0  0
   -2.0840   -0.4040   -1.7550 C   0  0  0  0  0  0  0  0  0  0  0  0
   -1.0510   -0.8340   -0.7570 C   0  0  0  0  0  0  0  0  0  0  0  0
    0.2840   -0.8490   -1.2930 N   0  0  0  0  0  0  0  0  0  0  0  0
    0.8310   -1.9230   -1.8830 C   0  0  0  0  0  0  0  0  0  0  0  0
    2.1060   -1.9250   -2.3920 C   0  0  0  0  0  0  0  0  0  0  0  0
    2.8810   -0.7780   -2.3030 C   0  0  0  0  0  0  0  0  0  0  0  0
    2.3500    0.3300   -1.7070 C   0  0  0  0  0  0  0  0  0  0  0  0
    3.0970    1.6040   -1.6140 C   0  0  0  0  0  0  0  0  0  0  0  0
    4.4020    1.4750   -2.0870 O   0  0  0  0  0  0  0  0  0  0  0  0
    5.4010    0.7010   -1.5410 C   0  0  0  0  0  0  0  0  0  0  0  0
    6.6290    0.6690   -2.1550 C   0  0  0  0  0  0  0  0  0  0  0  0
    7.6290   -0.0900   -1.6230 C   0  0  0  0  0  0  0  0  0  0  0  0
    7.4120   -0.8290   -0.4660 C   0  0  0  0  0  0  0  0  0  0  0  0
    8.5340   -1.6390    0.0720 C   0  0  0  0  0  0  0  0  0  0  0  0
    9.3820   -0.8580    1.0530 C   0  0  0  0  0  0  0  0  0  0  0  0
    9.9430    0.3410    0.3220 C   0  0  0  0  0  0  0  0  0  0  0  0
   10.8040    1.1580    1.2730 C   0  0  0  0  0  0  0  0  0  0  0  0
   10.0140    1.5710    2.3230 O   0  0  0  0  0  0  0  0  0  0  0  0
    6.2030   -0.8100    0.1570 C   0  0  0  0  0  0  0  0  0  0  0  0
    5.1820   -0.0420   -0.3770 C   0  0  0  0  0  0  0  0  0  0  0  0
    1.0490    0.2510   -1.2160 C   0  0  0  0  0  0  0  0  0  0  0  0
    0.6050    1.3130   -0.6710 O   0  0  0  0  0  0  0  0  0  0  0  0
   -8.5970   -1.1490   -0.2340 C   0  0  0  0  0  0  0  0  0  0  0  0
   -9.8120   -0.2840   -0.3280 C   0  0  0  0  0  0  0  0  0  0  0  0
  -10.2270    0.3620    0.9450 C   0  0  0  0  0  0  0  0  0  0  0  0
   -9.1370    0.5580    1.9530 C   0  0  1  0  0  0  0  0  0  0  0  0
   -9.2970   -0.3940    3.0950 C   0  0  0  0  0  0  0  0  0  0  0  0
  -10.1680   -1.3020    3.0470 O   0  0  0  0  0  0  0  0  0  0  0  0
   -8.5050   -0.3070    4.2200 O   0  0  0  0  0  0  0  0  0  0  0  0
  1  2  1  0
  2  3  2  0
  2  7  1  0
  3  4  1  0
  4  5  2  0
  4 36  1  0
  5  6  1  0
  5 33  1  0
  6  7  2  0
  7  8  1  0
  8  9  2  0
  8 10  1  0
 10 11  1  0
 11 12  1  0
 12 13  1  0
 13 14  1  0
 13 31  1  0
 14 15  2  0
 15 16  1  0
 16 17  2  0
 17 18  1  0
 17 31  1  0
 18 19  1  0
 19 20  1  0
 20 21  2  0
 20 30  1  0
 21 22  1  0
 22 23  2  0
 23 24  1  0
 23 29  1  0
 24 25  1  0
 25 26  1  0
 26 27  1  0
 27 28  1  0
 29 30  2  0
 31 32  2  0
 33 34  1  0
 34 35  1  0
 35 36  1  0
 36 37  1  1
 37 38  2  0
 37 39  1  0
M  END
