
     RDKit          3D

 39 42  0  0  0  0  0  0  0  0999 V2000
    3.3670   -3.6700    0.1870 C   0  0  0  0  0  0  0  0  0  0  0  0
    2.0570   -3.0480    0.6330 C   0  0  0  0  0  0  0  0  0  0  0  0
    1.5900   -1.9850   -0.2940 C   0  0  0  0  0  0  0  0  0  0  0  0
    0.3210   -1.3250    0.0870 C   0  0  0  0  0  0  0  0  0  0  0  0
   -0.8250   -1.8100   -0.4800 N   0  0  0  0  0  0  0  0  0  0  0  0
   -2.0580   -1.3420   -0.2370 C   0  0  0  0  0  0  0  0  0  0  0  0
   -3.2160   -1.9090   -0.9580 C   0  0  0  0  0  0  0  0  0  0  0  0
   -2.8090   -3.0330   -1.6810 O   0  0  0  0  0  0  0  0  0  0  0  0
   -2.5670   -4.1390   -0.8690 C   0  0  0  0  0  0  0  0  0  0  0  0
   -2.1890   -0.2840    0.6510 C   0  0  0  0  0  0  0  0  0  0  0  0
   -3.5230    0.2810    1.0040 C   0  0  2  0  0  0  0  0  0  0  0  0
   -4.5220   -0.6460    1.4520 C   0  0  0  0  0  0  0  0  0  0  0  0
   -4.1330   -1.5830    2.4870 N   0  0  0  0  0  0  0  0  0  0  0  0
   -5.6800   -0.7510    1.0700 O   0  0  0  0  0  0  0  0  0  0  0  0
   -3.9680    1.3420    0.0350 C   0  0  0  0  0  0  0  0  0  0  0  0
   -4.9370    1.1440   -0.8010 C   0  0  0  0  0  0  0  0  0  0  0  0
   -5.5270    1.9930   -1.8020 C   0  0  0  0  0  0  0  0  0  0  0  0
   -6.5510    1.5720   -2.5670 C   0  0  0  0  0  0  0  0  0  0  0  0
   -7.0720    2.4300   -3.5060 O   0  0  0  0  0  0  0  0  0  0  0  0
   -3.2150    2.6250   -0.0180 C   0  0  1  0  0  0  0  0  0  0  0  0
   -1.9140    2.5530   -0.7380 C   0  0  0  0  0  0  0  0  0  0  0  0
   -4.0620    3.6420   -0.4000 O   0  0  0  0  0  0  0  0  0  0  0  0
   -1.0190    0.2210    1.2380 C   0  0  0  0  0  0  0  0  0  0  0  0
   -1.1420    1.1790    2.0460 O   0  0  0  0  0  0  0  0  0  0  0  0
    0.2460   -0.2580    0.9930 C   0  0  0  0  0  0  0  0  0  0  0  0
    1.4690    0.3160    1.5960 C   0  0  1  0  0  0  0  0  0  0  0  0
    2.4910    0.9010    0.6630 C   0  0  0  0  0  0  0  0  0  0  0  0
    2.1920    1.7500   -0.3580 C   0  0  0  0  0  0  0  0  0  0  0  0
    3.3490    2.0550   -0.9580 N   0  0  0  0  0  0  0  0  0  0  0  0
    4.3350    1.4080   -0.3210 C   0  0  0  0  0  0  0  0  0  0  0  0
    5.7450    1.4770   -0.6680 C   0  0  0  0  0  0  0  0  0  0  0  0
    6.1290    2.2440   -1.7380 C   0  0  0  0  0  0  0  0  0  0  0  0
    7.4590    2.3400   -2.0950 C   0  0  0  0  0  0  0  0  0  0  0  0
    8.4070    1.6640   -1.3750 C   0  0  0  0  0  0  0  0  0  0  0  0
    8.0360    0.8990   -0.3110 C   0  0  0  0  0  0  0  0  0  0  0  0
    6.7130    0.8020    0.0460 C   0  0  0  0  0  0  0  0  0  0  0  0
    3.7770    0.7140    0.6620 O   0  0  0  0  0  0  0  0  0  0  0  0
    1.3640    1.0840    2.9210 C   0  0  0  0  0  0  0  0  0  0  0  0
    2.0190   -0.2450    2.9010 C   0  0  0  0  0  0  0  0  0  0  0  0
  1  2  1  0
  2  3  1  0
  3  4  1  0
  4  5  1  0
  4 25  2  0
  5  6  1  0
  6  7  1  0
  6 10  2  0
  7  8  1  0
  8  9  1  0
 10 11  1  0
 10 23  1  0
 11 12  1  6
 11 15  1  0
 12 13  1  0
 12 14  2  0
 15 16  2  3
 15 20  1  0
 16 17  1  0
 17 18  2  3
 18 19  1  0
 20 21  1  6
 20 22  1  0
 23 24  2  0
 23 25  1  0
 26 25  1  6
 26 27  1  0
 26 38  1  0
 26 39  1  0
 27 28  2  0
 27 37  1  0
 28 29  1  0
 29 30  2  0
 30 31  1  0
 30 37  1  0
 31 32  2  0
 31 36  1  0
 32 33  1  0
 33 34  2  0
 34 35  1  0
 35 36  2  0
 38 39  1  0
M  END
