
     RDKit          3D

 39 42  0  0  0  0  0  0  0  0999 V2000
    6.9530   -1.4530   -3.3850 N   0  0  0  0  0  0  0  0  0  0  0  0
    6.2910   -1.1960   -2.0940 C   0  0  0  0  0  0  0  0  0  0  0  0
    4.8820   -1.6880   -2.1120 C   0  0  0  0  0  0  0  0  0  0  0  0
    4.0760   -1.5040   -0.8980 C   0  0  1  0  0  0  0  0  0  0  0  0
    4.5460   -2.0250    0.2750 O   0  0  0  0  0  0  0  0  0  0  0  0
    3.2560   -0.2320   -0.7880 C   0  0  2  0  0  0  0  0  0  0  0  0
    4.1020    1.0110   -0.8520 C   0  0  0  0  0  0  0  0  0  0  0  0
    5.0460    1.1450    0.1110 O   0  0  0  0  0  0  0  0  0  0  0  0
    2.4140   -0.3640    0.4340 C   0  0  0  0  0  0  0  0  0  0  0  0
    1.4910    0.6560    0.8090 N   0  0  0  0  0  0  0  0  0  0  0  0
    0.1170    0.6230    0.3300 C   0  0  0  0  0  0  0  0  0  0  0  0
   -0.5900    1.5860    0.6120 O   0  0  0  0  0  0  0  0  0  0  0  0
   -0.3400   -0.5090   -0.4250 C   0  0  0  0  0  0  0  0  0  0  0  0
   -1.5970   -0.5530   -1.1550 C   0  0  0  0  0  0  0  0  0  0  0  0
   -2.9300   -0.4220   -0.5580 C   0  0  2  0  0  0  0  0  0  0  0  0
   -3.3660    0.7640    0.1330 C   0  0  0  0  0  0  0  0  0  0  0  0
   -3.4590    2.0100   -0.4780 C   0  0  0  0  0  0  0  0  0  0  0  0
   -3.9180    3.1260    0.1850 C   0  0  0  0  0  0  0  0  0  0  0  0
   -4.3050    3.0480    1.4880 C   0  0  0  0  0  0  0  0  0  0  0  0
   -4.2270    1.8330    2.1320 C   0  0  0  0  0  0  0  0  0  0  0  0
   -3.7630    0.7310    1.4450 C   0  0  0  0  0  0  0  0  0  0  0  0
   -3.1360   -1.6930    0.2740 C   0  0  0  0  0  0  0  0  0  0  0  0
   -4.5060   -2.0160    0.5300 N   0  0  0  0  0  0  0  0  0  0  0  0
   -5.3930   -2.0550   -0.5790 C   0  0  0  0  0  0  0  0  0  0  0  0
   -6.5420   -2.7790   -0.6080 C   0  0  0  0  0  0  0  0  0  0  0  0
   -7.3600   -2.7680   -1.7390 C   0  0  0  0  0  0  0  0  0  0  0  0
   -6.9960   -2.0170   -2.8250 C   0  0  0  0  0  0  0  0  0  0  0  0
   -5.8250   -1.2900   -2.7740 C   0  0  0  0  0  0  0  0  0  0  0  0
   -4.9990   -1.2860   -1.6650 C   0  0  0  0  0  0  0  0  0  0  0  0
   -3.8600   -0.5520   -1.6740 O   0  0  0  0  0  0  0  0  0  0  0  0
    1.8220    1.7450    1.6860 C   0  0  0  0  0  0  0  0  0  0  0  0
    2.0040    3.0040    1.1890 C   0  0  0  0  0  0  0  0  0  0  0  0
    2.3630    4.0510    2.0230 C   0  0  0  0  0  0  0  0  0  0  0  0
    2.5340    3.7970    3.3650 C   0  0  0  0  0  0  0  0  0  0  0  0
    2.3460    2.5380    3.8380 C   0  0  0  0  0  0  0  0  0  0  0  0
    1.9860    1.4760    3.0320 C   0  0  0  0  0  0  0  0  0  0  0  0
    1.7280    0.2030    3.6580 C   0  0  0  0  0  0  0  0  0  0  0  0
    1.9670    0.0840    4.8960 O   0  0  0  0  0  0  0  0  0  0  0  0
    1.2320   -0.8920    2.9960 O   0  0  0  0  0  0  0  0  0  0  0  0
  1  2  1  0
  2  3  1  0
  3  4  1  0
  4  5  1  1
  4  6  1  0
  6  7  1  1
  6  9  1  0
  7  8  1  0
  9 10  1  0
 10 11  1  0
 10 31  1  0
 11 12  2  0
 11 13  1  0
 13 14  1  0
 15 14  1  6
 15 16  1  0
 15 22  1  0
 15 30  1  0
 16 17  2  0
 16 21  1  0
 17 18  1  0
 18 19  2  0
 19 20  1  0
 20 21  2  0
 22 23  1  0
 23 24  1  0
 24 25  2  0
 24 29  1  0
 25 26  1  0
 26 27  2  0
 27 28  1  0
 28 29  2  0
 29 30  1  0
 31 32  2  0
 31 36  1  0
 32 33  1  0
 33 34  2  0
 34 35  1  0
 35 36  2  0
 36 37  1  0
 37 38  2  0
 37 39  1  0
M  END
