
     RDKit          3D

 39 42  0  0  0  0  0  0  0  0999 V2000
    3.5000    3.6810   -0.6620 C   0  0  0  0  0  0  0  0  0  0  0  0
    4.9140    3.7930   -0.5800 O   0  0  0  0  0  0  0  0  0  0  0  0
    5.6520    2.8700    0.1630 C   0  0  0  0  0  0  0  0  0  0  0  0
    4.9960    1.8500    0.8170 C   0  0  0  0  0  0  0  0  0  0  0  0
    5.6830    0.9320    1.5500 C   0  0  0  0  0  0  0  0  0  0  0  0
    5.1400   -0.1710    2.2360 N   0  0  0  0  0  0  0  0  0  0  0  0
    4.2930   -1.2140    1.7660 C   0  0  1  0  0  0  0  0  0  0  0  0
    3.8910   -2.0070    2.8520 O   0  0  0  0  0  0  0  0  0  0  0  0
    3.1790   -0.7340    0.9170 C   0  0  0  0  0  0  0  0  0  0  0  0
    2.2910   -1.8670    0.4690 C   0  0  0  0  0  0  0  0  0  0  0  0
    2.5900   -3.0070    0.8570 O   0  0  0  0  0  0  0  0  0  0  0  0
    1.1510   -1.5590   -0.3800 C   0  0  0  0  0  0  0  0  0  0  0  0
    0.9440   -0.3820   -0.7210 O   0  0  0  0  0  0  0  0  0  0  0  0
    0.2740   -2.6350   -0.8120 C   0  0  0  0  0  0  0  0  0  0  0  0
   -0.7710   -2.4480   -1.6060 C   0  0  0  0  0  0  0  0  0  0  0  0
   -1.1360   -1.1640   -2.1270 C   0  0  0  0  0  0  0  0  0  0  0  0
   -0.4970   -0.3730   -3.0480 C   0  0  0  0  0  0  0  0  0  0  0  0
    0.7270   -0.7090   -3.7970 C   0  0  0  0  0  0  0  0  0  0  0  0
   -1.1890    0.7850   -3.2070 N   0  0  0  0  0  0  0  0  0  0  0  0
   -2.2740    0.7810   -2.4150 C   0  0  0  0  0  0  0  0  0  0  0  0
   -3.3080    1.6640   -2.1690 C   0  0  0  0  0  0  0  0  0  0  0  0
   -4.2770    1.3240   -1.2670 C   0  0  0  0  0  0  0  0  0  0  0  0
   -4.2950    0.1210   -0.5630 C   0  0  0  0  0  0  0  0  0  0  0  0
   -5.3700   -0.1900    0.4140 C   0  0  2  0  0  0  0  0  0  0  0  0
   -6.7370    0.1600   -0.0690 C   0  0  0  0  0  0  0  0  0  0  0  0
   -5.0710    0.2870    1.8060 C   0  0  0  0  0  0  0  0  0  0  0  0
   -4.8580    1.7500    1.9610 C   0  0  1  0  0  0  0  0  0  0  0  0
   -4.5820    2.0380    3.4500 C   0  0  0  0  0  0  0  0  0  0  0  0
   -3.6480    2.2120    1.2880 N   0  0  0  0  0  0  0  0  0  0  0  0
   -3.2470   -0.7530   -0.8260 C   0  0  0  0  0  0  0  0  0  0  0  0
   -2.2580   -0.4280   -1.7330 C   0  0  0  0  0  0  0  0  0  0  0  0
   -1.6090   -3.6500   -1.9730 C   0  0  0  0  0  0  0  0  0  0  0  0
   -1.8400   -4.5230   -0.7560 C   0  0  0  0  0  0  0  0  0  0  0  0
   -0.5440   -4.8740   -0.1050 C   0  0  0  0  0  0  0  0  0  0  0  0
    0.4850   -3.9560   -0.4090 O   0  0  0  0  0  0  0  0  0  0  0  0
    7.0750    1.0750    1.6070 C   0  0  0  0  0  0  0  0  0  0  0  0
    7.7310    2.0940    0.9550 C   0  0  0  0  0  0  0  0  0  0  0  0
    6.9990    2.9970    0.2270 C   0  0  0  0  0  0  0  0  0  0  0  0
    7.6390    4.0290   -0.4370 O   0  0  0  0  0  0  0  0  0  0  0  0
  1  2  1  0
  2  3  1  0
  3  4  2  0
  3 38  1  0
  4  5  1  0
  5  6  1  0
  5 36  2  0
  6  7  1  0
  7  8  1  1
  7  9  1  0
  9 10  1  0
 10 11  2  0
 10 12  1  0
 12 13  2  0
 12 14  1  0
 14 15  2  0
 14 35  1  0
 15 16  1  0
 15 32  1  0
 16 17  2  0
 16 31  1  0
 17 18  1  0
 17 19  1  0
 19 20  1  0
 20 21  2  0
 20 31  1  0
 21 22  1  0
 22 23  2  0
 23 24  1  0
 23 30  1  0
 24 25  1  6
 24 26  1  0
 26 27  1  0
 27 28  1  1
 27 29  1  0
 30 31  2  0
 32 33  1  0
 33 34  1  0
 34 35  1  0
 36 37  1  0
 37 38  2  0
 38 39  1  0
M  END
