
     RDKit          3D

 39 42  0  0  0  0  0  0  0  0999 V2000
   -5.5210   -4.1130    1.7390 C   0  0  0  0  0  0  0  0  0  0  0  0
   -4.3640   -3.8350    0.8700 C   0  0  0  0  0  0  0  0  0  0  0  0
   -3.8320   -4.8960    0.1460 C   0  0  0  0  0  0  0  0  0  0  0  0
   -2.7470   -4.7230   -0.6920 C   0  0  0  0  0  0  0  0  0  0  0  0
   -2.2430   -5.8120   -1.4020 O   0  0  0  0  0  0  0  0  0  0  0  0
   -2.2000   -3.4590   -0.7940 C   0  0  0  0  0  0  0  0  0  0  0  0
   -2.6890   -2.3830   -0.1010 C   0  0  0  0  0  0  0  0  0  0  0  0
   -2.0110   -1.0960   -0.2150 C   0  0  0  0  0  0  0  0  0  0  0  0
   -0.6760   -1.0300    0.2330 C   0  0  0  0  0  0  0  0  0  0  0  0
    0.0070    0.1590    0.2620 C   0  0  0  0  0  0  0  0  0  0  0  0
    1.3110    0.2110    0.7060 O   0  0  0  0  0  0  0  0  0  0  0  0
    1.9180   -0.9920    1.1260 C   0  0  0  0  0  0  0  0  0  0  0  0
    3.3060   -0.8150    1.5760 C   0  0  0  0  0  0  0  0  0  0  0  0
    3.5910   -0.5380    2.8860 C   0  0  0  0  0  0  0  0  0  0  0  0
    4.9090   -0.3720    3.3000 C   0  0  0  0  0  0  0  0  0  0  0  0
    5.9570   -0.4850    2.3930 C   0  0  0  0  0  0  0  0  0  0  0  0
    5.6580   -0.7640    1.0760 C   0  0  0  0  0  0  0  0  0  0  0  0
    4.3480   -0.9260    0.6770 C   0  0  0  0  0  0  0  0  0  0  0  0
    6.9490   -0.8200    0.3770 C   0  0  0  0  0  0  0  0  0  0  0  0
    7.9310   -0.1920    1.3500 C   0  0  0  0  0  0  0  0  0  0  0  0
    7.3060   -0.3620    2.5830 O   0  0  0  0  0  0  0  0  0  0  0  0
   -0.5890    1.3440   -0.1500 C   0  0  0  0  0  0  0  0  0  0  0  0
    0.1360    2.4860   -0.0970 O   0  0  0  0  0  0  0  0  0  0  0  0
    0.9360    3.1150   -1.0250 C   0  0  2  0  0  0  0  0  0  0  0  0
    2.4220    3.0060   -0.6250 C   0  0  0  0  0  0  0  0  0  0  0  0
    2.6620    3.6250    0.6970 C   0  0  0  0  0  0  0  0  0  0  0  0
    3.3260    4.8870    0.8580 N   0  0  0  0  0  0  0  0  0  0  0  0
    2.2820    3.0500    1.7720 O   0  0  0  0  0  0  0  0  0  0  0  0
    0.7170    4.5900   -1.1320 C   0  0  0  0  0  0  0  0  0  0  0  0
    1.4730    5.3440   -2.0940 N   0  0  0  0  0  0  0  0  0  0  0  0
   -0.0880    5.2420   -0.4410 O   0  0  0  0  0  0  0  0  0  0  0  0
   -1.8820    1.2900   -0.5880 C   0  0  0  0  0  0  0  0  0  0  0  0
   -2.5540    2.5190   -1.0390 C   0  0  0  0  0  0  0  0  0  0  0  0
   -2.6010    0.0620   -0.6250 C   0  0  0  0  0  0  0  0  0  0  0  0
   -3.9090    0.0870   -1.2150 C   0  0  0  0  0  0  0  0  0  0  0  0
   -4.6500   -0.8620   -1.7040 C   0  0  0  0  0  0  0  0  0  0  0  0
   -6.0180   -0.5800   -2.2740 C   0  0  0  0  0  0  0  0  0  0  0  0
   -6.3460    0.8190   -2.1930 N   0  0  0  0  0  0  0  0  0  0  0  0
   -3.7860   -2.5980    0.7360 C   0  0  0  0  0  0  0  0  0  0  0  0
  1  2  1  0
  2  3  2  0
  2 39  1  0
  3  4  1  0
  4  5  1  0
  4  6  2  0
  6  7  1  0
  7  8  1  0
  7 39  2  0
  8  9  2  0
  8 34  1  0
  9 10  1  0
 10 11  1  0
 10 22  2  0
 11 12  1  0
 12 13  1  0
 13 14  2  0
 13 18  1  0
 14 15  1  0
 15 16  2  0
 16 17  1  0
 16 21  1  0
 17 18  2  0
 17 19  1  0
 19 20  1  0
 20 21  1  0
 22 23  1  0
 22 32  1  0
 23 24  1  0
 24 25  1  1
 24 29  1  0
 25 26  1  0
 26 27  1  0
 26 28  2  0
 29 30  1  0
 29 31  2  0
 32 33  1  0
 32 34  2  0
 34 35  1  0
 35 36  2  3
 36 37  1  0
 37 38  1  0
M  END
