
     RDKit          3D

 39 41  0  0  0  0  0  0  0  0999 V2000
   -7.7130    1.1020    1.0530 C   0  0  0  0  0  0  0  0  0  0  0  0
   -6.6850    0.9710   -0.0100 C   0  0  0  0  0  0  0  0  0  0  0  0
   -6.8810    0.3630   -1.0930 O   0  0  0  0  0  0  0  0  0  0  0  0
   -5.4250    1.5690    0.2240 N   0  0  0  0  0  0  0  0  0  0  0  0
   -4.3690    1.4870   -0.7610 C   0  0  1  0  0  0  0  0  0  0  0  0
   -3.9810    2.8590   -1.2740 C   0  0  0  0  0  0  0  0  0  0  0  0
   -3.1640    0.8270   -0.1570 C   0  0  0  0  0  0  0  0  0  0  0  0
   -3.2040    0.4550    1.0280 O   0  0  0  0  0  0  0  0  0  0  0  0
   -1.9840    0.6260   -0.9220 N   0  0  0  0  0  0  0  0  0  0  0  0
   -0.7900   -0.0200   -0.3470 C   0  0  1  0  0  0  0  0  0  0  0  0
   -0.6250   -1.2840   -1.1760 C   0  0  0  0  0  0  0  0  0  0  0  0
   -1.8240   -2.1240   -1.0420 C   0  0  0  0  0  0  0  0  0  0  0  0
   -2.8800   -1.9610   -1.9250 C   0  0  0  0  0  0  0  0  0  0  0  0
   -4.0210   -2.7230   -1.8380 C   0  0  0  0  0  0  0  0  0  0  0  0
   -4.1650   -3.6860   -0.8670 C   0  0  0  0  0  0  0  0  0  0  0  0
   -3.1190   -3.8550    0.0160 C   0  0  0  0  0  0  0  0  0  0  0  0
   -1.9770   -3.0900   -0.0730 C   0  0  0  0  0  0  0  0  0  0  0  0
    0.3660    0.9190   -0.4700 C   0  0  2  0  0  0  0  0  0  0  0  0
    0.6780    1.2310   -1.7820 O   0  0  0  0  0  0  0  0  0  0  0  0
    1.5590    0.5840    0.3880 C   0  0  0  0  0  0  0  0  0  0  0  0
    2.3300   -0.5170    0.0010 N   0  0  0  0  0  0  0  0  0  0  0  0
    2.4860   -1.5820    0.9500 C   0  0  0  0  0  0  0  0  0  0  0  0
    3.1970   -1.2340    2.1800 C   0  0  0  0  0  0  0  0  0  0  0  0
    4.5700   -1.3370    2.5110 C   0  0  0  0  0  0  0  0  0  0  0  0
    4.9260   -0.9380    3.7320 C   0  0  0  0  0  0  0  0  0  0  0  0
    4.0610   -0.4580    4.6350 C   0  0  0  0  0  0  0  0  0  0  0  0
    2.4620   -0.5550    3.6710 S   0  0  0  0  0  0  0  0  0  0  0  0
    3.5670   -0.3420   -1.1060 S   0  0  2  0  0  0  0  0  0  0  0  0
    2.9460    0.0910   -2.4360 O   0  0  0  0  0  0  0  0  0  0  0  0
    4.1210   -1.7330   -1.4150 O   0  0  0  0  0  0  0  0  0  0  0  0
    4.8810    0.6840   -0.7180 C   0  0  0  0  0  0  0  0  0  0  0  0
    5.0050    1.3380    0.4750 C   0  0  0  0  0  0  0  0  0  0  0  0
    6.1200    2.1540    0.7140 C   0  0  0  0  0  0  0  0  0  0  0  0
    6.2490    2.8100    1.9040 F   0  0  0  0  0  0  0  0  0  0  0  0
    7.1040    2.3160   -0.2270 C   0  0  0  0  0  0  0  0  0  0  0  0
    8.1990    3.1150    0.0040 F   0  0  0  0  0  0  0  0  0  0  0  0
    6.9780    1.6560   -1.4290 C   0  0  0  0  0  0  0  0  0  0  0  0
    5.8800    0.8580   -1.6520 C   0  0  0  0  0  0  0  0  0  0  0  0
    5.8080    0.2290   -2.8600 F   0  0  0  0  0  0  0  0  0  0  0  0
  1  2  1  0
  2  3  2  0
  2  4  1  0
  4  5  1  0
  5  6  1  1
  5  7  1  0
  7  8  2  0
  7  9  1  0
  9 10  1  0
 10 11  1  6
 10 18  1  0
 11 12  1  0
 12 13  2  0
 12 17  1  0
 13 14  1  0
 14 15  2  0
 15 16  1  0
 16 17  2  0
 18 19  1  6
 18 20  1  0
 20 21  1  0
 21 22  1  0
 28 21  1  1
 22 23  1  0
 23 24  2  0
 23 27  1  0
 24 25  1  0
 25 26  2  0
 26 27  1  0
 28 29  2  0
 28 30  2  0
 28 31  1  0
 31 32  2  0
 31 38  1  0
 32 33  1  0
 33 34  1  0
 33 35  2  0
 35 36  1  0
 35 37  1  0
 37 38  2  0
 38 39  1  0
M  END
