
     RDKit          3D

 39 42  0  0  0  0  0  0  0  0999 V2000
   -4.2130    2.3230   -3.0970 C   0  0  0  0  0  0  0  0  0  0  0  0
   -3.2490    1.4410   -2.3550 C   0  0  0  0  0  0  0  0  0  0  0  0
   -3.9540    0.5550   -1.3860 C   0  0  0  0  0  0  0  0  0  0  0  0
   -4.1410   -0.7770   -1.5180 C   0  0  0  0  0  0  0  0  0  0  0  0
   -4.7670   -1.5800   -0.6050 C   0  0  0  0  0  0  0  0  0  0  0  0
   -4.9440   -3.0410   -0.8300 C   0  0  0  0  0  0  0  0  0  0  0  0
   -5.2410   -0.9880    0.5400 C   0  0  0  0  0  0  0  0  0  0  0  0
   -5.0830    0.3570    0.7420 C   0  0  0  0  0  0  0  0  0  0  0  0
   -5.5510    0.9660    1.9270 O   0  0  0  0  0  0  0  0  0  0  0  0
   -6.0680    0.0570    2.9290 C   0  0  0  0  0  0  0  0  0  0  0  0
   -4.9160   -0.8630    3.3070 C   0  0  0  0  0  0  0  0  0  0  0  0
   -5.2040   -1.9640    3.9130 O   0  0  0  0  0  0  0  0  0  0  0  0
   -3.6410   -0.4850    2.9820 N   0  0  0  0  0  0  0  0  0  0  0  0
   -2.3990   -1.2030    3.1780 C   0  0  1  0  0  0  0  0  0  0  0  0
   -1.4480   -0.6340    2.1920 C   0  0  0  0  0  0  0  0  0  0  0  0
   -1.5430    0.6700    2.0090 O   0  0  0  0  0  0  0  0  0  0  0  0
   -0.4670   -1.2310    1.4120 N   0  0  0  0  0  0  0  0  0  0  0  0
    0.3270   -0.4530    0.4830 C   0  0  0  0  0  0  0  0  0  0  0  0
   -0.3540    0.5590   -0.1480 C   0  0  0  0  0  0  0  0  0  0  0  0
    0.2900    1.4830   -0.9760 C   0  0  0  0  0  0  0  0  0  0  0  0
    1.6490    1.3630   -1.1590 C   0  0  0  0  0  0  0  0  0  0  0  0
    2.3460    2.3050   -1.9520 N   0  0  0  0  0  0  0  0  0  0  0  0
    2.3150    0.3410   -0.5260 C   0  0  0  0  0  0  0  0  0  0  0  0
    3.8000    0.2870   -0.7230 C   0  0  0  0  0  0  0  0  0  0  0  0
    4.0290   -0.0640   -2.1490 C   0  0  0  0  0  0  0  0  0  0  0  0
    5.4080   -0.1160   -2.6410 C   0  0  0  0  0  0  0  0  0  0  0  0
    6.5490   -0.1930   -2.0220 C   0  0  0  0  0  0  0  0  0  0  0  0
    7.7760   -0.2130   -2.9110 C   0  0  0  0  0  0  0  0  0  0  0  0
    8.6730    0.8620   -2.3420 C   0  0  0  0  0  0  0  0  0  0  0  0
    9.0680    0.4510   -1.0380 O   0  0  0  0  0  0  0  0  0  0  0  0
    8.2260   -0.3710   -0.2770 C   0  0  0  0  0  0  0  0  0  0  0  0
    8.6070   -1.1300    0.6050 O   0  0  0  0  0  0  0  0  0  0  0  0
    6.7450   -0.3010   -0.5860 C   0  0  0  0  0  0  0  0  0  0  0  0
    1.6680   -0.5870    0.3070 C   0  0  0  0  0  0  0  0  0  0  0  0
   -1.8660   -0.9020    4.5800 C   0  0  1  0  0  0  0  0  0  0  0  0
   -0.6140   -1.4940    5.0620 C   0  0  0  0  0  0  0  0  0  0  0  0
   -0.6960   -0.0080    4.7550 C   0  0  0  0  0  0  0  0  0  0  0  0
   -4.4440    1.1370   -0.2120 C   0  0  0  0  0  0  0  0  0  0  0  0
   -4.2740    2.4840   -0.0330 O   0  0  0  0  0  0  0  0  0  0  0  0
  1  2  1  0
  2  3  1  0
  3  4  2  0
  3 38  1  0
  4  5  1  0
  5  6  1  0
  5  7  2  0
  7  8  1  0
  8  9  1  0
  8 38  2  0
  9 10  1  0
 10 11  1  0
 11 12  2  0
 11 13  1  0
 14 13  1  1
 14 15  1  0
 14 35  1  0
 15 16  2  0
 15 17  1  0
 17 18  1  0
 18 19  2  0
 18 34  1  0
 19 20  1  0
 20 21  2  0
 21 22  1  0
 21 23  1  0
 23 24  1  0
 23 34  2  0
 24 25  1  0
 25 26  1  0
 26 27  2  3
 27 28  1  0
 27 33  1  0
 28 29  1  0
 29 30  1  0
 30 31  1  0
 31 32  2  0
 31 33  1  0
 35 36  1  6
 35 37  1  0
 36 37  1  0
 38 39  1  0
M  END
