
     RDKit          3D

 40 42  0  0  0  0  0  0  0  0999 V2000
   -3.0040   -1.6060    3.0810 C   0  0  0  0  0  0  0  0  0  0  0  0
   -3.6640   -2.4930    2.1210 C   0  0  0  0  0  0  0  0  0  0  0  0
   -3.4500   -2.3540    0.8300 C   0  0  0  0  0  0  0  0  0  0  0  0
   -2.5310   -1.2890    0.3710 C   0  0  0  0  0  0  0  0  0  0  0  0
   -1.9580   -0.5250    1.1590 O   0  0  0  0  0  0  0  0  0  0  0  0
   -2.2690   -1.1000   -1.0270 N   0  0  0  0  0  0  0  0  0  0  0  0
   -1.4010   -0.1110   -1.5880 C   0  0  1  0  0  0  0  0  0  0  0  0
   -1.9280    1.2670   -1.6880 C   0  0  0  0  0  0  0  0  0  0  0  0
   -2.3490    1.9430   -0.4780 C   0  0  0  0  0  0  0  0  0  0  0  0
   -1.4490    2.6510    0.2810 C   0  0  0  0  0  0  0  0  0  0  0  0
   -1.7940    3.3240    1.4290 C   0  0  0  0  0  0  0  0  0  0  0  0
   -3.1000    3.3060    1.8660 C   0  0  0  0  0  0  0  0  0  0  0  0
   -4.0220    2.6090    1.1310 C   0  0  0  0  0  0  0  0  0  0  0  0
   -3.6550    1.9450   -0.0120 C   0  0  0  0  0  0  0  0  0  0  0  0
    0.0650   -0.2450   -1.2390 C   0  0  2  0  0  0  0  0  0  0  0  0
    0.3490   -0.1750    0.0950 O   0  0  0  0  0  0  0  0  0  0  0  0
    0.9540    0.6330   -2.0340 C   0  0  0  0  0  0  0  0  0  0  0  0
    2.3190    0.2580   -1.9300 N   0  0  0  0  0  0  0  0  0  0  0  0
    2.9180    0.1000   -3.2350 C   0  0  0  0  0  0  0  0  0  0  0  0
    3.8030   -1.1030   -3.2140 C   0  0  0  0  0  0  0  0  0  0  0  0
    3.4630   -2.4210   -3.2990 C   0  0  0  0  0  0  0  0  0  0  0  0
    4.4380   -3.3370   -3.2610 C   0  0  0  0  0  0  0  0  0  0  0  0
    5.7230   -2.9420   -3.1410 C   0  0  0  0  0  0  0  0  0  0  0  0
    5.5160   -1.1270   -3.0790 S   0  0  0  0  0  0  0  0  0  0  0  0
    3.2980    1.2130   -0.9560 S   0  0  2  0  0  0  0  0  0  0  0  0
    3.3330    2.6070   -1.5800 O   0  0  0  0  0  0  0  0  0  0  0  0
    4.7470    0.7280   -1.0810 O   0  0  0  0  0  0  0  0  0  0  0  0
    2.9300    1.2990    0.7260 C   0  0  0  0  0  0  0  0  0  0  0  0
    2.5060    2.4770    1.2970 C   0  0  0  0  0  0  0  0  0  0  0  0
    2.2110    2.5580    2.6620 C   0  0  0  0  0  0  0  0  0  0  0  0
    1.7920    3.7060    3.2490 F   0  0  0  0  0  0  0  0  0  0  0  0
    2.3460    1.4360    3.4540 C   0  0  0  0  0  0  0  0  0  0  0  0
    2.0660    1.4880    4.7830 F   0  0  0  0  0  0  0  0  0  0  0  0
    2.7650    0.2630    2.9030 C   0  0  0  0  0  0  0  0  0  0  0  0
    3.0530    0.1980    1.5530 C   0  0  0  0  0  0  0  0  0  0  0  0
    3.4620   -1.0060    1.0880 F   0  0  0  0  0  0  0  0  0  0  0  0
   -4.6020   -3.5770    2.5980 C   0  0  1  0  0  0  0  0  0  0  0  0
   -3.9660   -4.4490    3.4470 F   0  0  0  0  0  0  0  0  0  0  0  0
   -5.7040   -2.9830    3.1980 F   0  0  0  0  0  0  0  0  0  0  0  0
   -5.0690   -4.3040    1.5260 F   0  0  0  0  0  0  0  0  0  0  0  0
  1  2  1  0
  2  3  2  3
  2 37  1  0
  3  4  1  0
  4  5  2  0
  4  6  1  0
  6  7  1  0
  7  8  1  1
  7 15  1  0
  8  9  1  0
  9 10  2  0
  9 14  1  0
 10 11  1  0
 11 12  2  0
 12 13  1  0
 13 14  2  0
 15 16  1  1
 15 17  1  0
 17 18  1  0
 18 19  1  0
 25 18  1  6
 19 20  1  0
 20 21  2  0
 20 24  1  0
 21 22  1  0
 22 23  2  0
 23 24  1  0
 25 26  2  0
 25 27  2  0
 25 28  1  0
 28 29  2  0
 28 35  1  0
 29 30  1  0
 30 31  1  0
 30 32  2  0
 32 33  1  0
 32 34  1  0
 34 35  2  0
 35 36  1  0
 37 38  1  1
 37 39  1  0
 37 40  1  0
M  END
