
     RDKit          3D

 40 43  0  0  0  0  0  0  0  0999 V2000
    6.6980    3.8080   -0.0840 C   0  0  0  0  0  0  0  0  0  0  0  0
    6.1930    2.5240    0.1810 O   0  0  0  0  0  0  0  0  0  0  0  0
    7.0100    1.4230    0.2580 C   0  0  0  0  0  0  0  0  0  0  0  0
    8.3710    1.5850    0.0690 C   0  0  0  0  0  0  0  0  0  0  0  0
    9.1820    0.4720    0.1490 C   0  0  0  0  0  0  0  0  0  0  0  0
    8.6520   -0.7590    0.4100 C   0  0  0  0  0  0  0  0  0  0  0  0
    7.2820   -0.8940    0.5960 C   0  0  0  0  0  0  0  0  0  0  0  0
    6.4380    0.1960    0.5240 C   0  0  0  0  0  0  0  0  0  0  0  0
    5.0660    0.0990    0.7050 O   0  0  0  0  0  0  0  0  0  0  0  0
    4.5100    0.2610    1.9550 C   0  0  0  0  0  0  0  0  0  0  0  0
    5.2920    0.4970    2.9100 O   0  0  0  0  0  0  0  0  0  0  0  0
    3.0470    0.1660    2.1910 C   0  0  0  0  0  0  0  0  0  0  0  0
    2.4000   -0.1170    0.9510 O   0  0  0  0  0  0  0  0  0  0  0  0
    2.6820   -1.2640    0.2320 C   0  0  0  0  0  0  0  0  0  0  0  0
    3.5500   -2.0540    0.7380 O   0  0  0  0  0  0  0  0  0  0  0  0
    2.0510   -1.6180   -1.0550 C   0  0  1  0  0  0  0  0  0  0  0  0
    2.5630   -2.9230   -1.5400 C   0  0  0  0  0  0  0  0  0  0  0  0
    2.4170   -4.1220   -0.7970 N   0  0  0  0  0  0  0  0  0  0  0  0
    3.3270   -2.9660   -2.9930 S   0  0  0  0  0  0  0  0  0  0  0  0
    0.5360   -1.7420   -0.9430 C   0  0  2  0  0  0  0  0  0  0  0  0
    0.2210   -2.7460   -0.0100 O   0  0  0  0  0  0  0  0  0  0  0  0
   -0.0330   -2.1620   -2.2770 C   0  0  0  0  0  0  0  0  0  0  0  0
   -0.8770   -1.0470   -2.8520 C   0  0  0  0  0  0  0  0  0  0  0  0
   -1.9450   -0.8350   -2.0000 O   0  0  0  0  0  0  0  0  0  0  0  0
   -1.5750   -0.4770   -0.7260 C   0  0  1  0  0  0  0  0  0  0  0  0
   -2.1650    0.9210   -0.4670 C   0  0  0  0  0  0  0  0  0  0  0  0
   -3.6080    0.8560   -0.9400 C   0  0  0  0  0  0  0  0  0  0  0  0
   -4.3780   -0.1550   -0.1470 C   0  0  2  0  0  0  0  0  0  0  0  0
   -5.5220    0.3660    0.5280 N   0  0  0  0  0  0  0  0  0  0  0  0
   -5.2130    1.3650    1.5200 C   0  0  0  0  0  0  0  0  0  0  0  0
   -6.5370    1.8590    1.8470 N   0  0  0  0  0  0  0  0  0  0  0  0
   -7.3700    1.6770    0.6810 C   0  0  0  0  0  0  0  0  0  0  0  0
   -8.6000    2.0650    0.4990 C   0  0  0  0  0  0  0  0  0  0  0  0
   -9.2840    1.7800   -0.7760 C   0  0  1  0  0  0  0  0  0  0  0  0
   -9.5670    0.4240   -0.9010 F   0  0  0  0  0  0  0  0  0  0  0  0
  -10.4310    2.5350   -0.8760 F   0  0  0  0  0  0  0  0  0  0  0  0
   -6.5210    0.9410   -0.2950 C   0  0  0  0  0  0  0  0  0  0  0  0
   -3.4730   -0.7990    0.8800 C   0  0  0  0  0  0  0  0  0  0  0  0
   -2.2800   -1.4300    0.2330 C   0  0  0  0  0  0  0  0  0  0  0  0
   -0.1030   -0.4710   -0.5080 C   0  0  0  0  0  0  0  0  0  0  0  0
  1  2  1  0
  2  3  1  0
  3  4  2  0
  3  8  1  0
  4  5  1  0
  5  6  2  0
  6  7  1  0
  7  8  2  0
  8  9  1  0
  9 10  1  0
 10 11  2  0
 10 12  1  0
 12 13  1  0
 13 14  1  0
 14 15  2  0
 16 14  1  1
 16 17  1  0
 16 20  1  0
 17 18  1  0
 17 19  2  0
 20 21  1  1
 20 22  1  0
 20 40  1  0
 22 23  1  0
 23 24  1  0
 24 25  1  0
 25 26  1  1
 25 39  1  0
 25 40  1  0
 26 27  1  0
 27 28  1  0
 28 29  1  1
 28 38  1  0
 29 30  1  0
 29 37  1  0
 30 31  1  0
 31 32  1  0
 32 33  2  3
 32 37  1  0
 33 34  1  0
 34 35  1  1
 34 36  1  0
 38 39  1  0
M  END
