
     RDKit          3D

 40 43  0  0  0  0  0  0  0  0999 V2000
   -0.2800    9.3130    2.2230 C   0  0  0  0  0  0  0  0  0  0  0  0
   -1.1580    8.2310    1.8450 N   0  0  0  0  0  0  0  0  0  0  0  0
   -0.7800    6.8780    1.9320 C   0  0  0  0  0  0  0  0  0  0  0  0
    0.3670    6.5850    2.3550 O   0  0  0  0  0  0  0  0  0  0  0  0
   -1.6560    5.7930    1.5560 C   0  0  0  0  0  0  0  0  0  0  0  0
   -2.9380    5.7480    1.0660 C   0  0  0  0  0  0  0  0  0  0  0  0
   -3.4920    4.5580    0.8060 C   0  0  0  0  0  0  0  0  0  0  0  0
   -2.8140    3.4300    1.0170 C   0  0  0  0  0  0  0  0  0  0  0  0
   -3.2040    2.0400    0.8090 C   0  0  0  0  0  0  0  0  0  0  0  0
   -2.1330    1.0700    1.1770 C   0  0  2  0  0  0  0  0  0  0  0  0
   -2.6820   -0.3050    0.9080 C   0  0  0  0  0  0  0  0  0  0  0  0
   -2.7310   -1.1600    1.8300 O   0  0  0  0  0  0  0  0  0  0  0  0
   -3.1480   -0.6410   -0.3910 N   0  0  0  0  0  0  0  0  0  0  0  0
   -3.6890   -1.9340   -0.7400 C   0  0  0  0  0  0  0  0  0  0  0  0
   -2.6910   -3.0390   -0.5260 C   0  0  0  0  0  0  0  0  0  0  0  0
   -3.1800   -4.2810   -0.8520 O   0  0  0  0  0  0  0  0  0  0  0  0
   -3.5720   -4.4460   -2.1570 C   0  0  0  0  0  0  0  0  0  0  0  0
   -4.0760   -5.8890   -2.2890 C   0  0  0  0  0  0  0  0  0  0  0  0
   -5.2440   -5.9940   -1.3080 C   0  0  1  0  0  0  0  0  0  0  0  0
   -5.7930   -7.2570   -1.3260 F   0  0  0  0  0  0  0  0  0  0  0  0
   -4.8100   -5.7300   -0.0300 F   0  0  0  0  0  0  0  0  0  0  0  0
   -1.7040    1.1880    2.5480 N   0  0  0  0  0  0  0  0  0  0  0  0
   -0.5540    0.4060    2.9170 C   0  0  0  0  0  0  0  0  0  0  0  0
   -0.3860    0.0450    4.1090 O   0  0  0  0  0  0  0  0  0  0  0  0
    0.3980    0.0550    1.8590 C   0  0  0  0  0  0  0  0  0  0  0  0
    1.5110   -0.6850    2.1330 C   0  0  0  0  0  0  0  0  0  0  0  0
    2.4180   -1.0190    1.1180 C   0  0  0  0  0  0  0  0  0  0  0  0
    2.1840   -0.5970   -0.1670 C   0  0  0  0  0  0  0  0  0  0  0  0
    3.0400   -0.9030   -1.1620 O   0  0  0  0  0  0  0  0  0  0  0  0
    4.2080   -1.6230   -1.1910 C   0  0  1  0  0  0  0  0  0  0  0  0
    4.2600   -2.7390   -2.1780 C   0  0  0  0  0  0  0  0  0  0  0  0
    5.7300   -3.0990   -2.2170 C   0  0  0  0  0  0  0  0  0  0  0  0
    6.4760   -1.9430   -1.5920 C   0  0  1  0  0  0  0  0  0  0  0  0
    7.6550   -1.5910   -2.4380 C   0  0  0  0  0  0  0  0  0  0  0  0
    5.4360   -0.8120   -1.5460 C   0  0  1  0  0  0  0  0  0  0  0  0
    5.3920   -0.2880   -2.8320 O   0  0  0  0  0  0  0  0  0  0  0  0
    1.0560    0.1490   -0.4260 C   0  0  0  0  0  0  0  0  0  0  0  0
    0.1550    0.4790    0.5900 C   0  0  0  0  0  0  0  0  0  0  0  0
   -0.9930    1.2320    0.3530 O   0  0  0  0  0  0  0  0  0  0  0  0
   -1.2450    4.0260    1.6400 S   0  0  0  0  0  0  0  0  0  0  0  0
  1  2  1  0
  2  3  1  0
  3  4  2  0
  3  5  1  0
  5  6  2  0
  5 40  1  0
  6  7  1  0
  7  8  2  0
  8  9  1  0
  8 40  1  0
 10  9  1  6
 10 11  1  0
 10 22  1  0
 10 39  1  0
 11 12  2  0
 11 13  1  0
 13 14  1  0
 14 15  1  0
 15 16  1  0
 16 17  1  0
 17 18  1  0
 18 19  1  0
 19 20  1  1
 19 21  1  0
 22 23  1  0
 23 24  2  0
 23 25  1  0
 25 26  2  0
 25 38  1  0
 26 27  1  0
 27 28  2  0
 28 29  1  0
 28 37  1  0
 30 29  1  6
 30 31  1  0
 30 35  1  0
 31 32  1  0
 32 33  1  0
 33 34  1  6
 33 35  1  0
 35 36  1  6
 37 38  2  0
 38 39  1  0
M  END
