
     RDKit          3D

 40 43  0  0  0  0  0  0  0  0999 V2000
   -1.7840    5.5950   -0.7670 C   0  0  0  0  0  0  0  0  0  0  0  0
   -2.6090    5.8160    0.2290 C   0  0  0  0  0  0  0  0  0  0  0  0
   -3.0830    4.8960    1.3210 C   0  0  2  0  0  0  0  0  0  0  0  0
   -2.9200    3.4820    0.9900 C   0  0  0  0  0  0  0  0  0  0  0  0
   -3.9280    2.7660    0.8050 O   0  0  0  0  0  0  0  0  0  0  0  0
   -1.6320    2.8580    0.8640 N   0  0  0  0  0  0  0  0  0  0  0  0
   -1.5800    1.4290    0.5270 C   0  0  0  0  0  0  0  0  0  0  0  0
   -2.9940    0.4350    0.2680 S   0  0  0  0  0  0  0  0  0  0  0  0
   -2.1250   -1.0440   -0.0690 C   0  0  0  0  0  0  0  0  0  0  0  0
   -0.8660   -0.7000    0.0330 C   0  0  0  0  0  0  0  0  0  0  0  0
   -0.5560    0.5960    0.3460 C   0  0  0  0  0  0  0  0  0  0  0  0
    0.8300    1.1020    0.5000 C   0  0  0  0  0  0  0  0  0  0  0  0
    1.0970    2.2890    0.7910 O   0  0  0  0  0  0  0  0  0  0  0  0
    1.9500    0.2830    0.3300 O   0  0  0  0  0  0  0  0  0  0  0  0
    3.2580    0.7630    0.4770 C   0  0  0  0  0  0  0  0  0  0  0  0
    4.2160   -0.3250    0.2380 C   0  0  0  0  0  0  0  0  0  0  0  0
    3.8010   -1.4790   -0.0490 O   0  0  0  0  0  0  0  0  0  0  0  0
    5.6260   -0.1540    0.3130 N   0  0  0  0  0  0  0  0  0  0  0  0
    6.5470   -1.2400    0.0740 C   0  0  0  0  0  0  0  0  0  0  0  0
    7.9610   -0.7470    0.2270 C   0  0  0  0  0  0  0  0  0  0  0  0
    8.9610   -1.8640   -0.0180 C   0  0  0  0  0  0  0  0  0  0  0  0
    8.7120   -2.8770    0.9250 O   0  0  0  0  0  0  0  0  0  0  0  0
    0.1240   -1.8200   -0.2270 C   0  0  0  0  0  0  0  0  0  0  0  0
   -0.5030   -2.8290   -1.1310 C   0  0  2  0  0  0  0  0  0  0  0  0
   -0.8800   -2.2330   -2.4400 C   0  0  0  0  0  0  0  0  0  0  0  0
   -1.5170   -3.2410   -3.3670 C   0  0  0  0  0  0  0  0  0  0  0  0
   -1.6790   -3.4290   -0.3690 C   0  0  0  0  0  0  0  0  0  0  0  0
   -2.7340   -2.3770   -0.3900 C   0  0  1  0  0  0  0  0  0  0  0  0
   -3.8990   -2.6400    0.4700 C   0  0  0  0  0  0  0  0  0  0  0  0
   -3.7490   -3.2610    1.6900 C   0  0  0  0  0  0  0  0  0  0  0  0
   -4.8420   -3.5110    2.5040 C   0  0  0  0  0  0  0  0  0  0  0  0
   -6.0680   -3.1570    2.1260 N   0  0  0  0  0  0  0  0  0  0  0  0
   -6.2700   -2.5490    0.9470 C   0  0  0  0  0  0  0  0  0  0  0  0
   -5.1980   -2.2850    0.1110 C   0  0  0  0  0  0  0  0  0  0  0  0
   -4.4710    5.2560    1.4230 O   0  0  0  0  0  0  0  0  0  0  0  0
   -4.6290    6.5860    1.0120 C   0  0  0  0  0  0  0  0  0  0  0  0
   -5.7250    7.1920    1.0660 O   0  0  0  0  0  0  0  0  0  0  0  0
   -3.3180    7.0990    0.5320 C   0  0  2  0  0  0  0  0  0  0  0  0
   -3.4200    7.9180   -0.5510 F   0  0  0  0  0  0  0  0  0  0  0  0
   -2.6940    7.6830    1.6150 F   0  0  0  0  0  0  0  0  0  0  0  0
  1  2  2  0
  2  3  1  0
  2 38  1  0
  3  4  1  6
  3 35  1  0
  4  5  2  0
  4  6  1  0
  6  7  1  0
  7  8  1  0
  7 11  2  0
  8  9  1  0
  9 10  2  0
  9 28  1  0
 10 11  1  0
 10 23  1  0
 11 12  1  0
 12 13  2  0
 12 14  1  0
 14 15  1  0
 15 16  1  0
 16 17  2  0
 16 18  1  0
 18 19  1  0
 19 20  1  0
 20 21  1  0
 21 22  1  0
 23 24  1  0
 24 25  1  6
 24 27  1  0
 25 26  1  0
 27 28  1  0
 28 29  1  1
 29 30  2  0
 29 34  1  0
 30 31  1  0
 31 32  2  0
 32 33  1  0
 33 34  2  0
 35 36  1  0
 36 37  2  0
 36 38  1  0
 38 39  1  6
 38 40  1  0
M  END
