
     RDKit          3D

 40 43  0  0  0  0  0  0  0  0999 V2000
    8.5140   -2.6620    0.2060 C   0  0  0  0  0  0  0  0  0  0  0  0
    7.2710   -2.2350   -0.2220 O   0  0  0  0  0  0  0  0  0  0  0  0
    6.8810   -1.1340   -0.9140 C   0  0  0  0  0  0  0  0  0  0  0  0
    7.8300   -0.2040   -1.3680 C   0  0  0  0  0  0  0  0  0  0  0  0
    7.3670    0.9130   -2.0800 C   0  0  0  0  0  0  0  0  0  0  0  0
    6.0190    1.0770   -2.3180 C   0  0  0  0  0  0  0  0  0  0  0  0
    5.0670    0.1510   -1.8650 C   0  0  0  0  0  0  0  0  0  0  0  0
    3.7650    0.3430   -2.1180 F   0  0  0  0  0  0  0  0  0  0  0  0
    5.5160   -0.9200   -1.1810 C   0  0  0  0  0  0  0  0  0  0  0  0
    4.6770   -1.9610   -0.6380 O   0  0  0  0  0  0  0  0  0  0  0  0
    4.4440   -1.5780    0.7590 C   0  0  0  0  0  0  0  0  0  0  0  0
    3.5690   -0.4010    0.7720 C   0  0  0  0  0  0  0  0  0  0  0  0
    2.1960   -0.4830    0.5440 C   0  0  0  0  0  0  0  0  0  0  0  0
    1.3470    0.5670    0.8330 C   0  0  0  0  0  0  0  0  0  0  0  0
   -0.0690    0.3430    0.9440 N   0  0  0  0  0  0  0  0  0  0  0  0
   -0.8830   -0.6080    0.3790 C   0  0  0  0  0  0  0  0  0  0  0  0
   -0.3480   -1.4090   -0.4620 O   0  0  0  0  0  0  0  0  0  0  0  0
   -2.3080   -0.7370    0.7240 C   0  0  1  0  0  0  0  0  0  0  0  0
   -2.4130    0.1200    1.9280 O   0  0  0  0  0  0  0  0  0  0  0  0
   -3.3400    1.1850    1.7580 C   0  0  0  0  0  0  0  0  0  0  0  0
   -2.9630    2.3370    1.8150 O   0  0  0  0  0  0  0  0  0  0  0  0
   -4.7230    0.7270    1.5290 C   0  0  1  0  0  0  0  0  0  0  0  0
   -5.6880    1.6980    0.9600 C   0  0  0  0  0  0  0  0  0  0  0  0
   -5.9800    2.9250    1.7540 C   0  0  0  0  0  0  0  0  0  0  0  0
   -4.9180    3.7470    1.9760 O   0  0  0  0  0  0  0  0  0  0  0  0
   -4.6770   -0.4780    0.7230 N   0  0  0  0  0  0  0  0  0  0  0  0
   -3.4290   -0.4150   -0.0850 C   0  0  2  0  0  0  0  0  0  0  0  0
   -3.7890   -1.2420   -1.3150 C   0  0  2  0  0  0  0  0  0  0  0  0
   -5.1490   -0.7150   -1.7120 C   0  0  0  0  0  0  0  0  0  0  0  0
   -5.8310   -1.3620   -2.8600 C   0  0  0  0  0  0  0  0  0  0  0  0
   -5.8330   -3.1470   -2.6260 S   0  0  0  0  0  0  0  0  0  0  0  0
   -4.9290   -3.4910   -1.0850 C   0  0  0  0  0  0  0  0  0  0  0  0
   -3.6420   -2.6910   -1.1860 C   0  0  0  0  0  0  0  0  0  0  0  0
    1.9080    1.7380    1.3480 C   0  0  0  0  0  0  0  0  0  0  0  0
    1.0700    2.8330    1.5710 N   0  0  0  0  0  0  0  0  0  0  0  0
    1.5350    4.1030    1.9760 C   0  0  0  0  0  0  0  0  0  0  0  0
    2.7310    4.3990    2.1670 O   0  0  0  0  0  0  0  0  0  0  0  0
    3.2780    1.8090    1.5670 C   0  0  0  0  0  0  0  0  0  0  0  0
    4.0950    0.7460    1.2820 C   0  0  0  0  0  0  0  0  0  0  0  0
    5.4630    0.8290    1.5110 F   0  0  0  0  0  0  0  0  0  0  0  0
  1  2  1  0
  2  3  1  0
  3  4  2  0
  3  9  1  0
  4  5  1  0
  5  6  2  0
  6  7  1  0
  7  8  1  0
  7  9  2  0
  9 10  1  0
 10 11  1  0
 11 12  1  0
 12 13  2  0
 12 39  1  0
 13 14  1  0
 14 15  1  0
 14 34  2  0
 15 16  1  0
 16 17  2  0
 18 16  1  6
 18 19  1  0
 18 27  1  0
 19 20  1  0
 20 21  2  0
 20 22  1  0
 22 23  1  6
 22 26  1  0
 23 24  1  0
 24 25  1  0
 27 26  1  1
 27 28  1  0
 28 29  1  1
 28 33  1  0
 29 30  1  0
 30 31  1  0
 31 32  1  0
 32 33  1  0
 34 35  1  0
 34 38  1  0
 35 36  1  0
 36 37  2  0
 38 39  2  0
 39 40  1  0
M  END
