
     RDKit          3D

 40 43  0  0  0  0  0  0  0  0999 V2000
   -6.5070   -1.6340   -2.0350 C   0  0  0  0  0  0  0  0  0  0  0  0
   -6.3230   -3.0490   -1.8650 N   0  0  0  0  0  0  0  0  0  0  0  0
   -4.9760   -3.3360   -1.4170 C   0  0  0  0  0  0  0  0  0  0  0  0
   -4.9090   -3.6110    0.0770 C   0  0  2  0  0  0  0  0  0  0  0  0
   -5.7210   -4.7300    0.3920 O   0  0  0  0  0  0  0  0  0  0  0  0
   -5.3950   -2.4430    0.8790 C   0  0  0  0  0  0  0  0  0  0  0  0
   -4.7070   -1.2990    0.6750 O   0  0  0  0  0  0  0  0  0  0  0  0
   -3.4340   -0.8760    0.8970 C   0  0  0  0  0  0  0  0  0  0  0  0
   -2.4860   -1.6680    1.4900 C   0  0  0  0  0  0  0  0  0  0  0  0
   -1.2070   -1.2070    1.7010 C   0  0  0  0  0  0  0  0  0  0  0  0
   -0.2950   -2.0440    2.2990 O   0  0  0  0  0  0  0  0  0  0  0  0
    1.0220   -1.6020    2.5230 C   0  0  0  0  0  0  0  0  0  0  0  0
    1.6120   -1.2870    1.2980 O   0  0  0  0  0  0  0  0  0  0  0  0
    2.9220   -0.8180    1.1770 C   0  0  0  0  0  0  0  0  0  0  0  0
    3.7280   -0.6320    2.2740 C   0  0  0  0  0  0  0  0  0  0  0  0
    5.0110   -0.1700    2.1340 C   0  0  0  0  0  0  0  0  0  0  0  0
    5.5920    0.1440    0.8850 C   0  0  0  0  0  0  0  0  0  0  0  0
    6.9690    0.6020    0.8610 C   0  0  0  0  0  0  0  0  0  0  0  0
    7.5210    0.7290    2.0410 O   0  0  0  0  0  0  0  0  0  0  0  0
    7.8500    0.9390   -0.2300 C   0  0  1  0  0  0  0  0  0  0  0  0
    9.1310    1.5830    0.4220 C   0  0  0  0  0  0  0  0  0  0  0  0
    9.8250    2.4000   -0.6150 C   0  0  0  0  0  0  0  0  0  0  0  0
    9.4800    1.8390   -2.2840 S   0  0  0  0  0  0  0  0  0  0  0  0
    8.8900    0.1150   -2.3170 C   0  0  0  0  0  0  0  0  0  0  0  0
    8.4720   -0.2870   -0.9220 C   0  0  2  0  0  0  0  0  0  0  0  0
    7.6220   -1.3500   -0.9050 O   0  0  0  0  0  0  0  0  0  0  0  0
    4.7860   -0.0420   -0.2060 C   0  0  0  0  0  0  0  0  0  0  0  0
    5.1850    0.2140   -1.4710 O   0  0  0  0  0  0  0  0  0  0  0  0
    3.4510   -0.5250   -0.0360 C   0  0  0  0  0  0  0  0  0  0  0  0
   -0.8690    0.0570    1.3200 C   0  0  0  0  0  0  0  0  0  0  0  0
   -1.8470    0.8690    0.7120 C   0  0  0  0  0  0  0  0  0  0  0  0
   -3.1130    0.4430    0.4900 C   0  0  0  0  0  0  0  0  0  0  0  0
   -4.1250    1.2100   -0.1110 N   0  0  0  0  0  0  0  0  0  0  0  0
   -4.0510    2.5200   -0.5920 C   0  0  0  0  0  0  0  0  0  0  0  0
   -2.9860    3.1560   -0.5150 O   0  0  0  0  0  0  0  0  0  0  0  0
   -5.2150    3.2340   -1.2180 C   0  0  2  0  0  0  0  0  0  0  0  0
   -5.5050    4.4330   -0.3730 C   0  0  0  0  0  0  0  0  0  0  0  0
   -6.6440    3.9540    0.4950 C   0  0  0  0  0  0  0  0  0  0  0  0
   -7.1500    2.7450   -0.2060 C   0  0  0  0  0  0  0  0  0  0  0  0
   -6.3160    2.4230   -1.2360 O   0  0  0  0  0  0  0  0  0  0  0  0
  1  2  1  0
  2  3  1  0
  3  4  1  0
  4  5  1  6
  4  6  1  0
  6  7  1  0
  7  8  1  0
  8  9  2  0
  8 32  1  0
  9 10  1  0
 10 11  1  0
 10 30  2  0
 11 12  1  0
 12 13  1  0
 13 14  1  0
 14 15  2  0
 14 29  1  0
 15 16  1  0
 16 17  2  0
 17 18  1  0
 17 27  1  0
 18 19  2  0
 20 18  1  1
 20 21  1  0
 20 25  1  0
 21 22  1  0
 22 23  1  0
 23 24  1  0
 24 25  1  0
 25 26  1  6
 27 28  1  0
 27 29  2  0
 30 31  1  0
 31 32  2  0
 32 33  1  0
 33 34  1  0
 34 35  2  0
 36 34  1  1
 36 37  1  0
 36 40  1  0
 37 38  1  0
 38 39  1  0
 39 40  1  0
M  CHG  1   2   1
M  END
