
     RDKit          3D

 45 49  0  0  0  0  0  0  0  0999 V2000
    9.6580    3.7990   -0.4400 C   0  0  0  0  0  0  0  0  0  0  0  0
    8.4510    3.2230    0.3020 C   0  0  2  0  0  0  0  0  0  0  0  0
    9.0210    2.2180    1.2860 C   0  0  0  0  0  0  0  0  0  0  0  0
    7.5850    2.5800   -0.7210 C   0  0  0  0  0  0  0  0  0  0  0  0
    6.3220    1.9580   -0.1100 C   0  0  1  0  0  0  0  0  0  0  0  0
    5.4530    2.9170    0.5910 C   0  0  0  0  0  0  0  0  0  0  0  0
    5.7010    1.1570   -1.2020 C   0  0  0  0  0  0  0  0  0  0  0  0
    4.4510    0.4600   -0.9910 C   0  0  0  0  0  0  0  0  0  0  0  0
    3.3870    0.7590   -1.7580 C   0  0  0  0  0  0  0  0  0  0  0  0
    2.1540    0.0280   -1.5530 C   0  0  0  0  0  0  0  0  0  0  0  0
    1.9410   -0.9660   -0.6870 C   0  0  0  0  0  0  0  0  0  0  0  0
    0.6280   -1.5920   -0.5840 C   0  0  0  0  0  0  0  0  0  0  0  0
   -0.4110   -1.1460   -1.4570 N   0  0  1  0  0  0  0  0  0  0  0  0
   -1.3440   -2.2450   -1.7760 C   0  0  0  0  0  0  0  0  0  0  0  0
   -2.0750   -2.7530   -0.5860 C   0  0  0  0  0  0  0  0  0  0  0  0
   -2.0840   -1.9070    0.4840 O   0  0  0  0  0  0  0  0  0  0  0  0
   -2.1170   -0.5660    0.2220 C   0  0  2  0  0  0  0  0  0  0  0  0
   -3.5730   -0.2730   -0.2290 C   0  0  0  0  0  0  0  0  0  0  0  0
   -4.5330   -0.6560    0.8300 C   0  0  0  0  0  0  0  0  0  0  0  0
   -5.9590   -0.3930    0.6020 C   0  0  0  0  0  0  0  0  0  0  0  0
   -6.8330   -0.9870   -0.2490 C   0  0  0  0  0  0  0  0  0  0  0  0
   -6.6220   -1.9110   -1.3600 C   0  0  0  0  0  0  0  0  0  0  0  0
   -6.4950   -1.2690   -2.7020 C   0  0  0  0  0  0  0  0  0  0  0  0
   -5.4590   -0.3090   -2.8820 N   0  0  0  0  0  0  0  0  0  0  0  0
   -8.0630   -0.4750    0.0240 N   0  0  0  0  0  0  0  0  0  0  0  0
   -7.9910    0.4030    0.9940 N   0  0  0  0  0  0  0  0  0  0  0  0
   -9.1080    1.1560    1.5570 C   0  0  0  0  0  0  0  0  0  0  0  0
   -9.2960    2.4610    0.8180 C   0  0  0  0  0  0  0  0  0  0  0  0
   -9.5550    2.1660   -0.5100 O   0  0  0  0  0  0  0  0  0  0  0  0
   -6.7270    0.4910    1.3800 C   0  0  0  0  0  0  0  0  0  0  0  0
   -6.1960    1.3570    2.4470 C   0  0  0  0  0  0  0  0  0  0  0  0
   -5.5080    2.5230    1.8790 C   0  0  0  0  0  0  0  0  0  0  0  0
   -5.4550    2.6370    0.6180 O   0  0  0  0  0  0  0  0  0  0  0  0
   -4.9110    3.5100    2.6310 O   0  0  0  0  0  0  0  0  0  0  0  0
   -1.2220   -0.0970   -0.8700 C   0  0  0  0  0  0  0  0  0  0  0  0
    3.1610   -1.5220   -0.0190 C   0  0  2  0  0  0  0  0  0  0  0  0
    3.7500   -2.5980   -0.9950 C   0  0  0  0  0  0  0  0  0  0  0  0
    3.9080   -3.9170   -0.3270 C   0  0  0  0  0  0  0  0  0  0  0  0
    2.6950   -4.3890    0.4360 C   0  0  0  0  0  0  0  0  0  0  0  0
    2.2760   -3.3590    1.4740 C   0  0  0  0  0  0  0  0  0  0  0  0
    3.0750   -2.1780    1.2090 N   0  0  0  0  0  0  0  0  0  0  0  0
    3.9350   -1.5210    2.1360 C   0  0  0  0  0  0  0  0  0  0  0  0
    4.1430   -1.7930    3.3600 O   0  0  0  0  0  0  0  0  0  0  0  0
    4.5620   -0.4280    1.3770 C   0  0  0  0  0  0  0  0  0  0  0  0
    4.1280   -0.4360    0.1440 C   0  0  0  0  0  0  0  0  0  0  0  0
  2  1  1  6
  2  3  1  0
  2  4  1  0
  4  5  1  0
  5  6  1  6
  5  7  1  0
  7  8  1  0
  8  9  2  0
  8 45  1  0
  9 10  1  0
 10 11  2  0
 11 12  1  0
 11 36  1  0
 13 12  1  1
 13 14  1  0
 13 35  1  0
 14 15  1  0
 15 16  1  0
 16 17  1  0
 17 18  1  6
 17 35  1  0
 18 19  1  0
 19 20  1  0
 20 21  1  0
 20 30  2  0
 21 22  1  0
 21 25  2  0
 22 23  1  0
 23 24  1  0
 25 26  1  0
 26 27  1  0
 26 30  1  0
 27 28  1  0
 28 29  1  0
 30 31  1  0
 31 32  1  0
 32 33  2  0
 32 34  1  0
 36 37  1  6
 36 41  1  0
 36 45  1  0
 37 38  1  0
 38 39  1  0
 39 40  1  0
 40 41  1  0
 41 42  1  0
 42 43  2  0
 42 44  1  0
 44 45  2  0
M  CHG  1  13   1
M  END
