
     RDKit          3D

 45 49  0  0  0  0  0  0  0  0999 V2000
   -7.4170    2.9160   -0.9340 C   0  0  0  0  0  0  0  0  0  0  0  0
   -5.9820    3.1250   -1.2470 C   0  0  0  0  0  0  0  0  0  0  0  0
   -5.1130    1.9940   -1.5540 C   0  0  0  0  0  0  0  0  0  0  0  0
   -4.8240    0.9610   -0.5840 N   0  0  0  0  0  0  0  0  0  0  0  0
   -3.7730    1.3830    0.3210 C   0  0  0  0  0  0  0  0  0  0  0  0
   -3.2050    2.5210    0.1710 O   0  0  0  0  0  0  0  0  0  0  0  0
   -3.3040    0.6150    1.4060 N   0  0  0  0  0  0  0  0  0  0  0  0
   -2.2610    1.0920    2.2840 C   0  0  0  0  0  0  0  0  0  0  0  0
   -0.9560    1.4220    1.7500 C   0  0  0  0  0  0  0  0  0  0  0  0
    0.0050    0.4920    1.1540 C   0  0  0  0  0  0  0  0  0  0  0  0
   -0.3390   -0.2640   -0.0220 C   0  0  2  0  0  0  0  0  0  0  0  0
   -1.4730   -1.2320    0.1600 C   0  0  0  0  0  0  0  0  0  0  0  0
    0.7150   -1.0000   -0.6680 N   0  0  0  0  0  0  0  0  0  0  0  0
    1.9270   -0.2660   -0.9530 C   0  0  2  0  0  0  0  0  0  0  0  0
    2.3430   -0.6700   -2.3300 C   0  0  0  0  0  0  0  0  0  0  0  0
    3.8060   -0.3520   -2.5710 C   0  0  0  0  0  0  0  0  0  0  0  0
    4.6290   -1.0350   -1.6150 N   0  0  0  0  0  0  0  0  0  0  0  0
    6.0190   -1.2070   -1.8110 C   0  0  0  0  0  0  0  0  0  0  0  0
    6.5480   -1.8260   -3.0220 C   0  0  0  0  0  0  0  0  0  0  0  0
    5.7770   -2.2210   -3.9150 O   0  0  0  0  0  0  0  0  0  0  0  0
    6.7830   -0.7840   -0.8240 C   0  0  0  0  0  0  0  0  0  0  0  0
    8.2170   -0.8870   -0.8700 C   0  0  0  0  0  0  0  0  0  0  0  0
    8.9130   -0.4420    0.1670 C   0  0  0  0  0  0  0  0  0  0  0  0
    8.2320    0.0990    1.2390 O   0  0  0  0  0  0  0  0  0  0  0  0
    8.9370    0.5700    2.3370 C   0  0  0  0  0  0  0  0  0  0  0  0
    8.1960    1.1040    3.3880 C   0  0  0  0  0  0  0  0  0  0  0  0
    8.8790    1.5810    4.4960 C   0  0  0  0  0  0  0  0  0  0  0  0
   10.2370    1.5260    4.5480 C   0  0  0  0  0  0  0  0  0  0  0  0
   10.9410    0.9960    3.4980 C   0  0  0  0  0  0  0  0  0  0  0  0
   10.2960    0.5090    2.3710 C   0  0  0  0  0  0  0  0  0  0  0  0
   11.0540   -0.0410    1.2890 N   0  0  0  0  0  0  0  0  0  0  0  0
   10.3510   -0.5230    0.1690 C   0  0  0  0  0  0  0  0  0  0  0  0
   10.9860   -1.0210   -0.8210 O   0  0  0  0  0  0  0  0  0  0  0  0
    4.0300   -1.5610   -0.3860 C   0  0  0  0  0  0  0  0  0  0  0  0
    3.0030   -0.5280    0.0300 C   0  0  1  0  0  0  0  0  0  0  0  0
    3.7390    0.6690    0.2040 O   0  0  0  0  0  0  0  0  0  0  0  0
   -5.2720   -0.3790   -0.5660 C   0  0  2  0  0  0  0  0  0  0  0  0
   -5.0870   -1.0790   -1.9060 C   0  0  0  0  0  0  0  0  0  0  0  0
   -6.0020   -2.2650   -1.9740 C   0  0  0  0  0  0  0  0  0  0  0  0
   -7.4480   -1.8580   -2.0400 C   0  0  0  0  0  0  0  0  0  0  0  0
   -7.6690   -0.6870   -1.0840 C   0  0  1  0  0  0  0  0  0  0  0  0
   -8.9230   -0.8690   -0.2810 C   0  0  0  0  0  0  0  0  0  0  0  0
   -8.6250   -0.2350    1.0470 C   0  0  0  0  0  0  0  0  0  0  0  0
   -7.1040   -0.1810    1.2030 C   0  0  0  0  0  0  0  0  0  0  0  0
   -6.5970   -0.7700   -0.0510 C   0  0  2  0  0  0  0  0  0  0  0  0
  1  2  1  0
  2  3  1  0
  3  4  1  0
  4  5  1  0
 37  4  1  6
  5  6  2  0
  5  7  1  0
  7  8  1  0
  8  9  1  0
  9 10  1  0
 10 11  1  0
 11 12  1  1
 11 13  1  0
 14 13  1  1
 14 15  1  0
 14 35  1  0
 15 16  1  0
 16 17  1  0
 17 18  1  0
 17 34  1  0
 18 19  1  0
 18 21  2  3
 19 20  2  0
 21 22  1  0
 22 23  2  3
 23 24  1  0
 23 32  1  0
 24 25  1  0
 25 26  2  0
 25 30  1  0
 26 27  1  0
 27 28  2  0
 28 29  1  0
 29 30  2  0
 30 31  1  0
 31 32  1  0
 32 33  2  0
 34 35  1  0
 35 36  1  6
 37 38  1  0
 37 45  1  0
 38 39  1  0
 39 40  1  0
 41 40  1  6
 41 42  1  0
 41 45  1  0
 42 43  1  0
 43 44  1  0
 45 44  1  1
M  CHG  1  13   1
M  END
