
     RDKit          3D

 44 47  0  0  0  0  0  0  0  0999 V2000
    7.6780   -1.0690    0.5060 C   0  0  0  0  0  0  0  0  0  0  0  0
    6.6390   -0.4110    1.3520 C   0  0  0  0  0  0  0  0  0  0  0  0
    5.3940   -0.0110    0.6190 C   0  0  0  0  0  0  0  0  0  0  0  0
    4.6880   -1.1660   -0.0110 C   0  0  0  0  0  0  0  0  0  0  0  0
    3.4220   -0.7580   -0.7390 C   0  0  2  0  0  0  0  0  0  0  0  0
    3.7370    0.1990   -1.8250 C   0  0  0  0  0  0  0  0  0  0  0  0
    4.6670   -0.4810   -2.7750 C   0  0  0  0  0  0  0  0  0  0  0  0
    6.0480   -0.5170   -2.7730 C   0  0  0  0  0  0  0  0  0  0  0  0
    6.4760   -1.2650   -3.8450 C   0  0  0  0  0  0  0  0  0  0  0  0
    5.4030   -1.6840   -4.4990 O   0  0  0  0  0  0  0  0  0  0  0  0
    4.3130   -1.2310   -3.8830 C   0  0  0  0  0  0  0  0  0  0  0  0
    2.4890   -0.2980    0.2570 N   0  0  0  0  0  0  0  0  0  0  0  0
    1.3200   -1.0360    0.6340 C   0  0  0  0  0  0  0  0  0  0  0  0
    1.1710   -2.1210    0.0190 O   0  0  0  0  0  0  0  0  0  0  0  0
    0.3540   -0.6260    1.6280 C   0  0  2  0  0  0  0  0  0  0  0  0
    0.9240   -0.2300    2.9660 C   0  0  0  0  0  0  0  0  0  0  0  0
   -0.4180   -1.9310    1.9650 C   0  0  0  0  0  0  0  0  0  0  0  0
   -1.8010   -1.6540    2.4460 C   0  0  0  0  0  0  0  0  0  0  0  0
   -2.6320   -1.2330    1.2360 C   0  0  2  0  0  0  0  0  0  0  0  0
   -3.0760   -2.3760    0.4940 N   0  0  0  0  0  0  0  0  0  0  0  0
   -4.5410   -2.5210    0.6980 C   0  0  2  0  0  0  0  0  0  0  0  0
   -4.9510   -3.8890    0.3280 C   0  0  0  0  0  0  0  0  0  0  0  0
   -4.1560   -4.5270   -0.4350 O   0  0  0  0  0  0  0  0  0  0  0  0
   -6.1520   -4.4760    0.7860 N   0  0  0  0  0  0  0  0  0  0  0  0
   -7.1020   -3.8800    1.6640 C   0  0  0  0  0  0  0  0  0  0  0  0
   -6.4660   -5.8360    0.3180 C   0  0  0  0  0  0  0  0  0  0  0  0
   -5.1380   -1.5000   -0.2770 C   0  0  2  0  0  0  0  0  0  0  0  0
   -6.5990   -1.2930   -0.1060 C   0  0  0  0  0  0  0  0  0  0  0  0
   -4.7660   -1.8100   -1.5820 O   0  0  0  0  0  0  0  0  0  0  0  0
   -1.8180   -0.2730    0.4230 C   0  0  0  0  0  0  0  0  0  0  0  0
   -0.6950    0.3340    1.2630 C   0  0  2  0  0  0  0  0  0  0  0  0
   -0.3640    1.5880    0.6820 N   0  0  0  0  0  0  0  0  0  0  0  0
   -0.5530    2.8540    1.2810 C   0  0  0  0  0  0  0  0  0  0  0  0
   -1.0810    2.7370    2.4480 O   0  0  0  0  0  0  0  0  0  0  0  0
   -0.2550    4.1210    0.7700 N   0  0  0  0  0  0  0  0  0  0  0  0
   -0.8150    5.3020    1.4410 C   0  0  0  0  0  0  0  0  0  0  0  0
   -1.7340    5.9570    0.4290 C   0  0  0  0  0  0  0  0  0  0  0  0
   -1.0290    6.2550   -0.8480 C   0  0  0  0  0  0  0  0  0  0  0  0
    0.1140    5.4070   -1.1960 C   0  0  0  0  0  0  0  0  0  0  0  0
    0.8350    5.6480   -2.3350 C   0  0  0  0  0  0  0  0  0  0  0  0
    1.9160    4.8580   -2.6390 C   0  0  0  0  0  0  0  0  0  0  0  0
    2.3060    3.8120   -1.8220 C   0  0  0  0  0  0  0  0  0  0  0  0
    1.5850    3.5480   -0.6560 C   0  0  0  0  0  0  0  0  0  0  0  0
    0.4920    4.3740   -0.3840 C   0  0  0  0  0  0  0  0  0  0  0  0
  1  2  1  0
  2  3  1  0
  3  4  1  0
  5  4  1  1
  5  6  1  0
  5 12  1  0
  6  7  1  0
  7  8  1  0
  7 11  2  0
  8  9  2  0
  9 10  1  0
 10 11  1  0
 12 13  1  0
 13 14  2  0
 13 15  1  0
 15 16  1  1
 15 17  1  0
 15 31  1  0
 17 18  1  0
 18 19  1  0
 19 20  1  6
 19 30  1  0
 21 20  1  6
 21 22  1  0
 21 27  1  0
 22 23  2  0
 22 24  1  0
 24 25  1  0
 24 26  1  0
 27 28  1  6
 27 29  1  0
 30 31  1  0
 31 32  1  6
 32 33  1  0
 33 34  2  0
 33 35  1  0
 35 36  1  0
 35 44  1  0
 36 37  1  0
 37 38  1  0
 38 39  1  0
 39 40  2  0
 39 44  1  0
 40 41  1  0
 41 42  2  0
 42 43  1  0
 43 44  2  0
M  CHG  1  20   1
M  END
