
     RDKit          3D

 40 43  0  0  0  0  0  0  0  0999 V2000
    7.9770    0.1000    1.2260 C   0  0  0  0  0  0  0  0  0  0  0  0
    6.5870    0.0820    1.4870 O   0  0  0  0  0  0  0  0  0  0  0  0
    5.7300    0.6680    0.5650 C   0  0  0  0  0  0  0  0  0  0  0  0
    6.2080    1.2600   -0.5850 C   0  0  0  0  0  0  0  0  0  0  0  0
    5.3440    1.8410   -1.4950 C   0  0  0  0  0  0  0  0  0  0  0  0
    3.9890    1.8300   -1.2530 C   0  0  0  0  0  0  0  0  0  0  0  0
    3.4830    1.2450   -0.1100 C   0  0  0  0  0  0  0  0  0  0  0  0
    1.7500    1.2190    0.2200 S   0  0  2  0  0  0  0  0  0  0  0  0
    1.1340    2.4520   -0.3530 O   0  0  0  0  0  0  0  0  0  0  0  0
    1.5440    1.3040    1.7260 O   0  0  0  0  0  0  0  0  0  0  0  0
    1.0810   -0.2170   -0.3850 N   0  0  0  0  0  0  0  0  0  0  0  0
    1.6000   -1.3900    0.2020 C   0  0  0  0  0  0  0  0  0  0  0  0
    2.7470   -1.8970   -0.6180 C   0  0  0  0  0  0  0  0  0  0  0  0
    3.6150   -2.9190   -0.2130 C   0  0  0  0  0  0  0  0  0  0  0  0
    4.5860   -3.2670   -1.0510 C   0  0  0  0  0  0  0  0  0  0  0  0
    4.7460   -2.6780   -2.2380 C   0  0  0  0  0  0  0  0  0  0  0  0
    3.3290   -1.4610   -2.1650 S   0  0  0  0  0  0  0  0  0  0  0  0
   -0.3160   -0.1380   -0.5750 C   0  0  0  0  0  0  0  0  0  0  0  0
   -1.1680   -0.5880    0.5910 C   0  0  1  0  0  0  0  0  0  0  0  0
   -0.8340    0.2260    1.6880 O   0  0  0  0  0  0  0  0  0  0  0  0
   -2.6260   -0.5050    0.2780 C   0  0  2  0  0  0  0  0  0  0  0  0
   -2.9860   -1.5050   -0.7830 C   0  0  0  0  0  0  0  0  0  0  0  0
   -2.7180   -2.9140   -0.3930 C   0  0  0  0  0  0  0  0  0  0  0  0
   -1.5450   -3.5580   -0.6800 C   0  0  0  0  0  0  0  0  0  0  0  0
   -1.3180   -4.8820   -0.2920 C   0  0  0  0  0  0  0  0  0  0  0  0
   -2.2850   -5.5730    0.3960 C   0  0  0  0  0  0  0  0  0  0  0  0
   -3.4580   -4.8910    0.6690 C   0  0  0  0  0  0  0  0  0  0  0  0
   -3.6950   -3.6010    0.2980 C   0  0  0  0  0  0  0  0  0  0  0  0
   -3.0850    0.8020   -0.0970 N   0  0  0  0  0  0  0  0  0  0  0  0
   -4.0520    1.5500    0.6240 C   0  0  0  0  0  0  0  0  0  0  0  0
   -4.5560    1.0400    1.6800 O   0  0  0  0  0  0  0  0  0  0  0  0
   -4.5210    2.8700    0.2540 C   0  0  0  0  0  0  0  0  0  0  0  0
   -3.9980    3.5050   -0.8330 C   0  0  0  0  0  0  0  0  0  0  0  0
   -4.4590    4.7690   -1.1760 C   0  0  0  0  0  0  0  0  0  0  0  0
   -5.4370    5.4010   -0.4420 C   0  0  0  0  0  0  0  0  0  0  0  0
   -5.8840    6.6720   -0.8060 O   0  0  0  0  0  0  0  0  0  0  0  0
   -5.9650    4.7690    0.6490 C   0  0  0  0  0  0  0  0  0  0  0  0
   -6.9470    5.4150    1.3790 O   0  0  0  0  0  0  0  0  0  0  0  0
   -5.4990    3.5070    0.9850 C   0  0  0  0  0  0  0  0  0  0  0  0
    4.3600    0.6810    0.7680 C   0  0  0  0  0  0  0  0  0  0  0  0
  1  2  1  0
  2  3  1  0
  3  4  2  0
  3 40  1  0
  4  5  1  0
  5  6  2  0
  6  7  1  0
  7  8  1  0
  7 40  2  0
  8  9  2  0
  8 10  2  0
  8 11  1  6
 11 12  1  0
 11 18  1  0
 12 13  1  0
 13 14  2  0
 13 17  1  0
 14 15  1  0
 15 16  2  0
 16 17  1  0
 18 19  1  0
 19 20  1  1
 19 21  1  0
 21 22  1  6
 21 29  1  0
 22 23  1  0
 23 24  2  0
 23 28  1  0
 24 25  1  0
 25 26  2  0
 26 27  1  0
 27 28  2  0
 29 30  1  0
 30 31  2  0
 30 32  1  0
 32 33  2  0
 32 39  1  0
 33 34  1  0
 34 35  2  0
 35 36  1  0
 35 37  1  0
 37 38  1  0
 37 39  2  0
M  END
