
     RDKit          3D

 37 40  0  0  0  0  0  0  0  0999 V2000
   -2.7850    0.1960    4.5670 C   0  0  0  0  0  0  0  0  0  0  0  0
   -1.5460    0.2360    3.6680 C   0  0  0  0  0  0  0  0  0  0  0  0
   -1.6940   -0.8900    2.6210 C   0  0  1  0  0  0  0  0  0  0  0  0
   -2.9170   -0.6360    1.8390 C   0  0  0  0  0  0  0  0  0  0  0  0
   -2.6360   -0.2160    0.3940 C   0  0  1  0  0  0  0  0  0  0  0  0
   -2.6390    1.1140    0.3490 O   0  0  0  0  0  0  0  0  0  0  0  0
   -3.2320    2.2460    0.1220 C   0  0  0  0  0  0  0  0  0  0  0  0
   -3.9450    2.8650    0.9900 O   0  0  0  0  0  0  0  0  0  0  0  0
   -3.1590    2.9720   -1.1770 C   0  0  1  0  0  0  0  0  0  0  0  0
   -4.3200    3.6920   -1.3580 O   0  0  0  0  0  0  0  0  0  0  0  0
   -2.0200    3.9960   -1.0250 C   0  0  0  0  0  0  0  0  0  0  0  0
   -0.8050    3.3790   -0.8850 O   0  0  0  0  0  0  0  0  0  0  0  0
   -0.1210    3.6410    0.2780 C   0  0  0  0  0  0  0  0  0  0  0  0
    0.6770    2.4360    0.7310 C   0  0  0  0  0  0  0  0  0  0  0  0
    0.5890    1.2770   -0.2950 C   0  0  0  0  0  0  0  0  0  0  0  0
    0.8180   -0.0630    0.2340 C   0  0  2  0  0  0  0  0  0  0  0  0
    2.2210   -0.5300   -0.2390 C   0  0  2  0  0  0  0  0  0  0  0  0
    2.3030   -0.6290   -1.7330 C   0  0  0  0  0  0  0  0  0  0  0  0
    3.5290   -1.1040   -2.2120 O   0  0  0  0  0  0  0  0  0  0  0  0
    2.8130   -1.6010    0.5650 C   0  0  0  0  0  0  0  0  0  0  0  0
    4.1010   -1.3220    1.3400 C   0  0  0  0  0  0  0  0  0  0  0  0
    5.1280   -0.8780    0.3740 C   0  0  0  0  0  0  0  0  0  0  0  0
    4.6000    0.4580   -0.0290 C   0  0  1  0  0  0  0  0  0  0  0  0
    5.2110    1.4170    1.0490 C   0  0  0  0  0  0  0  0  0  0  0  0
    5.2580    0.9140   -1.3020 C   0  0  0  0  0  0  0  0  0  0  0  0
    3.1470    0.6790    0.0930 C   0  0  0  0  0  0  0  0  0  0  0  0
   -0.2270   -1.0950    0.4490 C   0  0  2  0  0  0  0  0  0  0  0  0
    0.1710   -2.5030    0.0450 C   0  0  0  0  0  0  0  0  0  0  0  0
   -1.0280   -3.3640   -0.2390 C   0  0  0  0  0  0  0  0  0  0  0  0
   -2.1200   -2.4700    0.1420 C   0  0  0  0  0  0  0  0  0  0  0  0
   -1.5560   -1.0410   -0.2440 C   0  0  1  0  0  0  0  0  0  0  0  0
   -1.5850   -1.1970   -1.7080 C   0  0  2  0  0  0  0  0  0  0  0  0
   -1.5040    0.0280   -2.3550 O   0  0  0  0  0  0  0  0  0  0  0  0
   -2.7000   -1.8100   -2.4710 C   0  0  2  0  0  0  0  0  0  0  0  0
   -2.2040   -1.7500   -3.9610 C   0  0  0  0  0  0  0  0  0  0  0  0
   -3.9700   -0.9590   -2.5850 C   0  0  0  0  0  0  0  0  0  0  0  0
   -0.4630   -1.2380    1.9700 C   0  0  0  0  0  0  0  0  0  0  0  0
  1  2  1  0
  3  2  1  6
  3  4  1  0
  3 37  1  0
  5  4  1  1
  5  6  1  0
  5 31  1  0
  6  7  1  0
  7  8  2  0
  7  9  1  0
  9 10  1  1
  9 11  1  0
 11 12  1  0
 12 13  1  0
 13 14  1  0
 14 15  1  0
 16 15  1  6
 16 17  1  0
 16 27  1  0
 17 18  1  6
 17 20  1  0
 17 26  1  0
 18 19  1  0
 20 21  1  0
 21 22  1  0
 22 23  1  0
 23 24  1  1
 23 25  1  0
 23 26  1  0
 27 28  1  6
 27 31  1  0
 27 37  1  0
 28 29  1  0
 29 30  1  0
 31 30  1  1
 31 32  1  0
 32 33  1  6
 32 34  1  0
 34 35  1  6
 34 36  1  0
M  END
