
     RDKit          3D

 37 41  0  0  0  0  0  0  0  0999 V2000
    9.5620    2.3550   -1.1220 C   0  0  0  0  0  0  0  0  0  0  0  0
    8.1240    2.0640   -0.9550 C   0  0  0  0  0  0  0  0  0  0  0  0
    7.4580    2.2830    0.1540 C   0  0  0  0  0  0  0  0  0  0  0  0
    8.1790    2.8270    1.2330 O   0  0  0  0  0  0  0  0  0  0  0  0
    6.0470    2.0150    0.3660 C   0  0  1  0  0  0  0  0  0  0  0  0
    5.2780    3.1920    0.4460 O   0  0  0  0  0  0  0  0  0  0  0  0
    5.4140    1.0210   -0.6230 C   0  0  2  0  0  0  0  0  0  0  0  0
    4.4700    0.2230    0.1710 C   0  0  0  0  0  0  0  0  0  0  0  0
    3.6520   -0.8480   -0.4420 C   0  0  1  0  0  0  0  0  0  0  0  0
    4.4980   -1.9180   -1.0150 C   0  0  0  0  0  0  0  0  0  0  0  0
    3.9330   -3.3120   -0.7870 C   0  0  0  0  0  0  0  0  0  0  0  0
    2.4270   -3.3130   -0.8710 C   0  0  0  0  0  0  0  0  0  0  0  0
    1.8760   -2.5000    0.3030 C   0  0  2  0  0  0  0  0  0  0  0  0
    1.7800   -3.3830    1.5330 C   0  0  0  0  0  0  0  0  0  0  0  0
    0.4330   -4.0920    1.5860 C   0  0  0  0  0  0  0  0  0  0  0  0
   -0.6040   -3.0010    1.7990 C   0  0  0  0  0  0  0  0  0  0  0  0
   -0.2170   -1.7620    1.0070 C   0  0  2  0  0  0  0  0  0  0  0  0
   -1.4880   -1.1560    0.3960 C   0  0  0  0  0  0  0  0  0  0  0  0
   -2.4610   -0.7700    1.4850 C   0  0  0  0  0  0  0  0  0  0  0  0
   -3.6360   -0.2210    1.0030 O   0  0  0  0  0  0  0  0  0  0  0  0
   -3.4500    0.9150    0.2540 C   0  0  0  0  0  0  0  0  0  0  0  0
   -4.7530    1.5020   -0.2450 C   0  0  1  0  0  0  0  0  0  0  0  0
   -5.5010    0.5230   -1.1060 C   0  0  1  0  0  0  0  0  0  0  0  0
   -5.4940   -0.7640   -0.5770 O   0  0  0  0  0  0  0  0  0  0  0  0
   -6.8720    1.0120   -1.4210 C   0  0  2  0  0  0  0  0  0  0  0  0
   -7.7830   -0.1390   -1.8670 C   0  0  0  0  0  0  0  0  0  0  0  0
   -6.8530    1.9890   -2.5780 C   0  0  0  0  0  0  0  0  0  0  0  0
   -7.5790    1.6850   -0.2680 C   0  0  1  0  0  0  0  0  0  0  0  0
   -7.6140    0.8420    0.9710 C   0  0  0  0  0  0  0  0  0  0  0  0
   -6.3030    1.1420    1.7040 C   0  0  0  0  0  0  0  0  0  0  0  0
   -5.5680    2.1160    0.8400 C   0  0  1  0  0  0  0  0  0  0  0  0
   -4.7600    2.9960    1.5540 O   0  0  0  0  0  0  0  0  0  0  0  0
   -6.7260    2.8660    0.1730 C   0  0  0  0  0  0  0  0  0  0  0  0
    0.5880   -2.1340   -0.0380 O   0  0  0  0  0  0  0  0  0  0  0  0
    2.6950   -1.3200    0.6450 C   0  0  0  0  0  0  0  0  0  0  0  0
    6.4980    0.3570   -1.3700 C   0  0  0  0  0  0  0  0  0  0  0  0
    7.3200    1.4770   -2.0710 C   0  0  0  0  0  0  0  0  0  0  0  0
  1  2  1  0
  2  3  2  0
  2 37  1  0
  3  4  1  0
  3  5  1  0
  5  6  1  6
  5  7  1  0
  7  8  1  1
  7 36  1  0
  9  8  1  1
  9 10  1  0
  9 35  1  0
 10 11  1  0
 11 12  1  0
 13 12  1  6
 13 14  1  0
 13 34  1  0
 13 35  1  0
 14 15  1  0
 15 16  1  0
 16 17  1  0
 17 18  1  6
 17 34  1  0
 18 19  1  0
 19 20  1  0
 20 21  1  0
 22 21  1  1
 22 23  1  0
 22 31  1  0
 23 24  1  1
 23 25  1  0
 25 26  1  6
 25 27  1  0
 25 28  1  0
 28 29  1  1
 28 33  1  0
 29 30  1  0
 30 31  1  0
 31 32  1  1
 31 33  1  0
 36 37  1  0
M  END
