
     RDKit          3D

 37 40  0  0  0  0  0  0  0  0999 V2000
   -6.4200    0.2500   -0.1920 C   0  0  0  0  0  0  0  0  0  0  0  0
   -5.1320   -0.5130    0.2020 C   0  0  0  0  0  0  0  0  0  0  0  0
   -4.0490    0.5370    0.3220 C   0  0  1  0  0  0  0  0  0  0  0  0
   -4.3430    1.5650    1.3440 C   0  0  0  0  0  0  0  0  0  0  0  0
   -3.4890    2.7580    1.0590 C   0  0  0  0  0  0  0  0  0  0  0  0
   -2.8700    2.6830   -0.3340 C   0  0  0  0  0  0  0  0  0  0  0  0
   -1.9810    1.4630   -0.4750 C   0  0  0  0  0  0  0  0  0  0  0  0
   -2.6650    0.1650   -0.0180 C   0  0  2  0  0  0  0  0  0  0  0  0
   -2.9180   -0.7780   -1.1470 C   0  0  0  0  0  0  0  0  0  0  0  0
   -3.3980   -0.4440   -2.4920 C   0  0  0  0  0  0  0  0  0  0  0  0
   -3.6050   -1.5170   -3.4700 C   0  0  0  0  0  0  0  0  0  0  0  0
   -3.6220    0.7250   -2.7920 O   0  0  0  0  0  0  0  0  0  0  0  0
   -2.6380   -1.9880   -0.6980 C   0  0  0  0  0  0  0  0  0  0  0  0
   -2.7650   -3.1460   -1.4930 O   0  0  0  0  0  0  0  0  0  0  0  0
   -2.1840   -2.0290    0.6770 C   0  0  1  0  0  0  0  0  0  0  0  0
   -3.0880   -2.4540    1.7530 C   0  0  0  0  0  0  0  0  0  0  0  0
   -1.0650   -2.9060    0.8130 O   0  0  0  0  0  0  0  0  0  0  0  0
   -1.7340   -0.5650    0.7710 C   0  0  2  0  0  0  0  0  0  0  0  0
   -1.5400   -0.2670    2.2110 C   0  0  0  0  0  0  0  0  0  0  0  0
   -0.4670    0.6870    2.6010 C   0  0  0  0  0  0  0  0  0  0  0  0
    0.8560    0.4550    1.9020 C   0  0  0  0  0  0  0  0  0  0  0  0
    0.6750   -0.8930    1.1970 C   0  0  0  0  0  0  0  0  0  0  0  0
   -0.3450   -0.6200    0.1120 C   0  0  1  0  0  0  0  0  0  0  0  0
   -0.2030   -1.5760   -0.8650 O   0  0  0  0  0  0  0  0  0  0  0  0
    0.2060   -1.2000   -2.0860 C   0  0  0  0  0  0  0  0  0  0  0  0
    1.5060   -0.5960   -2.3270 C   0  0  0  0  0  0  0  0  0  0  0  0
    1.7090   -0.2600   -3.5610 O   0  0  0  0  0  0  0  0  0  0  0  0
    2.5090   -0.3510   -1.4190 O   0  0  0  0  0  0  0  0  0  0  0  0
    3.7420    0.2490   -1.7840 C   0  0  1  0  0  0  0  0  0  0  0  0
    3.9020    1.5170   -1.0500 C   0  0  0  0  0  0  0  0  0  0  0  0
    4.1840    1.4610    0.4020 C   0  0  0  0  0  0  0  0  0  0  0  0
    5.6650    1.4580    0.7520 C   0  0  2  0  0  0  0  0  0  0  0  0
    6.2500    2.8410    0.6360 C   0  0  0  0  0  0  0  0  0  0  0  0
    6.3830    0.5280   -0.1910 C   0  0  0  0  0  0  0  0  0  0  0  0
    5.5700   -0.7170   -0.3380 C   0  0  2  0  0  0  0  0  0  0  0  0
    6.4810   -1.9270   -0.2310 C   0  0  0  0  0  0  0  0  0  0  0  0
    4.7960   -0.7720   -1.6250 C   0  0  0  0  0  0  0  0  0  0  0  0
  1  2  1  0
  3  2  1  1
  3  4  1  0
  3  8  1  0
  4  5  1  0
  5  6  1  0
  6  7  1  0
  8  7  1  6
  8  9  1  0
  8 18  1  0
  9 10  1  0
  9 13  2  0
 10 11  1  0
 10 12  2  0
 13 14  1  0
 13 15  1  0
 15 16  1  1
 15 17  1  0
 15 18  1  0
 18 19  1  1
 18 23  1  0
 19 20  1  0
 20 21  1  0
 21 22  1  0
 22 23  1  0
 23 24  1  6
 24 25  1  0
 25 26  1  0
 26 27  2  0
 26 28  1  0
 29 28  1  1
 29 30  1  0
 29 37  1  0
 30 31  1  0
 31 32  1  0
 32 33  1  6
 32 34  1  0
 34 35  1  0
 35 36  1  6
 35 37  1  0
M  END
