
     RDKit          3D

 37 39  0  0  0  0  0  0  0  0999 V2000
    2.6410   -4.7610    0.8390 C   0  0  0  0  0  0  0  0  0  0  0  0
    3.0610   -3.3250    0.9470 C   0  0  0  0  0  0  0  0  0  0  0  0
    1.8590   -2.4140    0.5560 C   0  0  2  0  0  0  0  0  0  0  0  0
    1.5580   -2.8250   -0.8690 C   0  0  0  0  0  0  0  0  0  0  0  0
    2.3010   -0.9980    0.6780 C   0  0  0  0  0  0  0  0  0  0  0  0
    1.3480   -0.0110    0.4050 N   0  0  0  0  0  0  0  0  0  0  0  0
    0.8590    0.7010    1.5190 C   0  0  0  0  0  0  0  0  0  0  0  0
   -0.4090    0.1790    2.0820 C   0  0  1  0  0  0  0  0  0  0  0  0
   -0.6600    1.0520    3.2100 O   0  0  0  0  0  0  0  0  0  0  0  0
   -1.6260    0.2620    1.2650 C   0  0  2  0  0  0  0  0  0  0  0  0
   -2.9130   -0.1160    2.0150 C   0  0  0  0  0  0  0  0  0  0  0  0
   -3.1380    0.7530    3.1580 C   0  0  0  0  0  0  0  0  0  0  0  0
   -2.8200    0.4530    4.4810 C   0  0  0  0  0  0  0  0  0  0  0  0
   -3.0790    1.3540    5.4690 C   0  0  0  0  0  0  0  0  0  0  0  0
   -3.6530    2.5790    5.2290 C   0  0  0  0  0  0  0  0  0  0  0  0
   -3.9650    2.8730    3.9280 C   0  0  0  0  0  0  0  0  0  0  0  0
   -3.7200    1.9930    2.9120 C   0  0  0  0  0  0  0  0  0  0  0  0
   -1.6160   -0.5460    0.0360 N   0  0  0  0  0  0  0  0  0  0  0  0
   -2.2390   -0.0680   -1.1350 C   0  0  0  0  0  0  0  0  0  0  0  0
   -2.7830    1.0880   -1.0310 O   0  0  0  0  0  0  0  0  0  0  0  0
   -2.3140   -0.7660   -2.4280 C   0  0  1  0  0  0  0  0  0  0  0  0
   -1.7600   -2.0170   -2.4460 O   0  0  0  0  0  0  0  0  0  0  0  0
   -3.7810   -0.7930   -2.8770 C   0  0  2  0  0  0  0  0  0  0  0  0
   -3.8080   -1.5180   -4.2020 C   0  0  0  0  0  0  0  0  0  0  0  0
   -4.1840    0.6390   -3.1380 C   0  0  0  0  0  0  0  0  0  0  0  0
    1.3210    0.7560   -1.0940 S   0  0  1  0  0  0  0  0  0  0  0  0
    0.8640   -0.1280   -2.1900 O   0  0  0  0  0  0  0  0  0  0  0  0
    0.2110    1.8400   -0.9830 O   0  0  0  0  0  0  0  0  0  0  0  0
    2.8130    1.6030   -1.4450 C   0  0  0  0  0  0  0  0  0  0  0  0
    2.9890    2.9050   -1.0890 C   0  0  0  0  0  0  0  0  0  0  0  0
    4.1310    3.6170   -1.3360 C   0  0  0  0  0  0  0  0  0  0  0  0
    5.2030    2.9970   -1.9950 C   0  0  0  0  0  0  0  0  0  0  0  0
    6.3480    3.4960   -2.3150 N   0  0  0  0  0  0  0  0  0  0  0  0
    7.2950    2.9660   -2.8910 C   0  0  0  0  0  0  0  0  0  0  0  0
    6.5470    1.2480   -3.1430 S   0  0  0  0  0  0  0  0  0  0  0  0
    4.9900    1.6510   -2.3500 C   0  0  0  0  0  0  0  0  0  0  0  0
    3.8430    0.9720   -2.0900 C   0  0  0  0  0  0  0  0  0  0  0  0
  1  2  1  0
  2  3  1  0
  3  4  1  6
  3  5  1  0
  5  6  1  0
  6  7  1  0
 26  6  1  1
  7  8  1  0
  8  9  1  1
  8 10  1  0
 10 11  1  1
 10 18  1  0
 11 12  1  0
 12 13  2  0
 12 17  1  0
 13 14  1  0
 14 15  2  0
 15 16  1  0
 16 17  2  0
 18 19  1  0
 19 20  2  0
 19 21  1  0
 21 22  1  1
 21 23  1  0
 23 24  1  6
 23 25  1  0
 26 27  2  0
 26 28  2  0
 26 29  1  0
 29 30  2  0
 29 37  1  0
 30 31  1  0
 31 32  2  0
 32 33  1  0
 32 36  1  0
 33 34  2  0
 34 35  1  0
 35 36  1  0
 36 37  2  0
M  END
