
     RDKit          3D

 39 42  0  0  0  0  0  0  0  0999 V2000
    4.6340   -3.6370    0.6300 C   0  0  0  0  0  0  0  0  0  0  0  0
    3.3340   -3.7100   -0.0980 C   0  0  0  0  0  0  0  0  0  0  0  0
    2.7520   -2.3250   -0.3870 C   0  0  2  0  0  0  0  0  0  0  0  0
    3.6590   -1.4880   -1.2240 C   0  0  0  0  0  0  0  0  0  0  0  0
    2.3500   -1.7220    0.9310 C   0  0  0  0  0  0  0  0  0  0  0  0
    1.7960   -0.4400    0.9230 N   0  0  0  0  0  0  0  0  0  0  0  0
    0.6610   -0.2070    0.1150 C   0  0  0  0  0  0  0  0  0  0  0  0
   -0.6050    0.0460    0.9050 C   0  0  1  0  0  0  0  0  0  0  0  0
   -0.4910    1.1840    1.7030 O   0  0  0  0  0  0  0  0  0  0  0  0
   -1.7880    0.2400    0.0060 C   0  0  2  0  0  0  0  0  0  0  0  0
   -1.4880    1.2030   -1.0730 C   0  0  0  0  0  0  0  0  0  0  0  0
   -2.6220    1.4590   -1.9810 C   0  0  0  0  0  0  0  0  0  0  0  0
   -2.8510    0.6960   -3.1000 C   0  0  0  0  0  0  0  0  0  0  0  0
   -3.9180    0.9640   -3.9310 C   0  0  0  0  0  0  0  0  0  0  0  0
   -4.7670    2.0040   -3.6450 C   0  0  0  0  0  0  0  0  0  0  0  0
   -4.5580    2.7700   -2.5450 C   0  0  0  0  0  0  0  0  0  0  0  0
   -3.4840    2.4910   -1.7180 C   0  0  0  0  0  0  0  0  0  0  0  0
   -3.0180    0.4360    0.7260 N   0  0  0  0  0  0  0  0  0  0  0  0
   -4.0800   -0.4850    0.7690 C   0  0  0  0  0  0  0  0  0  0  0  0
   -3.9250   -1.5580    0.1250 O   0  0  0  0  0  0  0  0  0  0  0  0
   -5.3290   -0.3060    1.4890 C   0  0  0  0  0  0  0  0  0  0  0  0
   -5.6020    0.8740    2.1280 C   0  0  0  0  0  0  0  0  0  0  0  0
   -6.7870    1.0640    2.8200 C   0  0  0  0  0  0  0  0  0  0  0  0
   -7.7280    0.0650    2.8820 C   0  0  0  0  0  0  0  0  0  0  0  0
   -7.4610   -1.1340    2.2380 C   0  0  0  0  0  0  0  0  0  0  0  0
   -8.4030   -2.1390    2.2980 O   0  0  0  0  0  0  0  0  0  0  0  0
   -6.2860   -1.3090    1.5570 C   0  0  0  0  0  0  0  0  0  0  0  0
    2.7250    0.8360    1.4460 S   0  0  1  0  0  0  0  0  0  0  0  0
    1.9600    2.1350    1.5870 O   0  0  0  0  0  0  0  0  0  0  0  0
    3.1410    0.5180    2.8940 O   0  0  0  0  0  0  0  0  0  0  0  0
    4.1830    1.1860    0.5840 C   0  0  0  0  0  0  0  0  0  0  0  0
    4.2290    1.9540   -0.5570 C   0  0  0  0  0  0  0  0  0  0  0  0
    5.3960    2.2400   -1.2180 C   0  0  0  0  0  0  0  0  0  0  0  0
    6.6350    1.7470   -0.7460 C   0  0  0  0  0  0  0  0  0  0  0  0
    7.8370    1.9300   -1.2620 N   0  0  0  0  0  0  0  0  0  0  0  0
    8.8720    1.5370   -0.8940 C   0  0  0  0  0  0  0  0  0  0  0  0
    8.3060    0.5750    0.6420 S   0  0  0  0  0  0  0  0  0  0  0  0
    6.5630    0.9970    0.3760 C   0  0  0  0  0  0  0  0  0  0  0  0
    5.4150    0.7010    1.0470 C   0  0  0  0  0  0  0  0  0  0  0  0
  1  2  1  0
  2  3  1  0
  3  4  1  1
  3  5  1  0
  5  6  1  0
  6  7  1  0
 28  6  1  6
  7  8  1  0
  8  9  1  6
  8 10  1  0
 10 11  1  1
 10 18  1  0
 11 12  1  0
 12 13  2  0
 12 17  1  0
 13 14  1  0
 14 15  2  0
 15 16  1  0
 16 17  2  0
 18 19  1  0
 19 20  2  0
 19 21  1  0
 21 22  2  0
 21 27  1  0
 22 23  1  0
 23 24  2  0
 24 25  1  0
 25 26  1  0
 25 27  2  0
 28 29  2  0
 28 30  2  0
 28 31  1  0
 31 32  2  0
 31 39  1  0
 32 33  1  0
 33 34  2  0
 34 35  1  0
 34 38  1  0
 35 36  2  0
 36 37  1  0
 37 38  1  0
 38 39  2  0
M  END
