
     RDKit          3D

 41 43  0  0  0  0  0  0  0  0999 V2000
   -4.8580    5.2120    3.1720 C   0  0  0  0  0  0  0  0  0  0  0  0
   -4.3740    3.9150    2.8730 O   0  0  0  0  0  0  0  0  0  0  0  0
   -3.4380    3.6770    1.8830 C   0  0  0  0  0  0  0  0  0  0  0  0
   -3.0050    4.6600    1.2300 O   0  0  0  0  0  0  0  0  0  0  0  0
   -2.9180    2.3310    1.5490 C   0  0  0  0  0  0  0  0  0  0  0  0
   -3.4440    1.9760    0.1950 C   0  0  1  0  0  0  0  0  0  0  0  0
   -3.0070    0.6620   -0.2710 N   0  0  0  0  0  0  0  0  0  0  0  0
   -2.2500    0.5480   -1.4880 C   0  0  0  0  0  0  0  0  0  0  0  0
   -2.0150    1.6450   -2.0730 O   0  0  0  0  0  0  0  0  0  0  0  0
   -1.7740   -0.7290   -2.0320 C   0  0  1  0  0  0  0  0  0  0  0  0
   -0.3140   -0.7980   -2.3380 C   0  0  0  0  0  0  0  0  0  0  0  0
    0.4770   -0.6550   -1.0450 C   0  0  2  0  0  0  0  0  0  0  0  0
    1.8650   -0.7140   -1.2630 O   0  0  0  0  0  0  0  0  0  0  0  0
    2.7250    0.3720   -1.0930 C   0  0  0  0  0  0  0  0  0  0  0  0
    2.1490    1.4410   -0.7140 O   0  0  0  0  0  0  0  0  0  0  0  0
    4.1670    0.2540   -1.3390 C   0  0  0  0  0  0  0  0  0  0  0  0
    4.9390    1.5280   -0.9940 C   0  0  0  0  0  0  0  0  0  0  0  0
    4.7910    1.8190    0.4340 C   0  0  0  0  0  0  0  0  0  0  0  0
    5.7570    1.8920    1.2990 C   0  0  0  0  0  0  0  0  0  0  0  0
    7.1700    1.6930    0.9760 C   0  0  0  0  0  0  0  0  0  0  0  0
    7.7960    0.5410    1.7450 C   0  0  0  0  0  0  0  0  0  0  0  0
    9.2510    0.4550    1.3200 C   0  0  0  0  0  0  0  0  0  0  0  0
    9.4770    0.1730   -0.4170 S   0  0  0  0  0  0  0  0  0  0  0  0
    8.7530   -1.3300   -1.0290 C   0  0  0  0  0  0  0  0  0  0  0  0
    9.2730    1.3770   -1.2850 O   0  0  0  0  0  0  0  0  0  0  0  0
   -0.0440   -1.4870    0.0580 C   0  0  0  0  0  0  0  0  0  0  0  0
   -1.1990   -2.3860   -0.3040 C   0  0  0  0  0  0  0  0  0  0  0  0
   -2.1560   -1.8830   -1.2150 N   0  0  0  0  0  0  0  0  0  0  0  0
   -3.4230   -2.4210   -1.4150 C   0  0  0  0  0  0  0  0  0  0  0  0
   -4.1700   -1.7740   -2.2610 O   0  0  0  0  0  0  0  0  0  0  0  0
   -4.0120   -3.5940   -0.8110 C   0  0  0  0  0  0  0  0  0  0  0  0
   -3.4670   -4.5020    0.0280 C   0  0  0  0  0  0  0  0  0  0  0  0
   -4.4440   -5.4470    0.3360 C   0  0  0  0  0  0  0  0  0  0  0  0
   -5.5600   -5.0530   -0.3520 C   0  0  0  0  0  0  0  0  0  0  0  0
   -6.8390   -5.8320   -0.2720 C   0  0  0  0  0  0  0  0  0  0  0  0
   -5.2810   -3.9870   -1.0010 O   0  0  0  0  0  0  0  0  0  0  0  0
   -4.9270    1.9820    0.1820 C   0  0  0  0  0  0  0  0  0  0  0  0
   -5.7210    1.5030   -0.8320 C   0  0  0  0  0  0  0  0  0  0  0  0
   -7.0320    1.7100   -0.4280 C   0  0  0  0  0  0  0  0  0  0  0  0
   -6.9560    2.3050    0.8130 C   0  0  0  0  0  0  0  0  0  0  0  0
   -5.6960    2.4440    1.1300 O   0  0  0  0  0  0  0  0  0  0  0  0
  1  2  1  0
  2  3  1  0
  3  4  2  0
  3  5  1  0
  6  5  1  1
  6  7  1  0
  6 37  1  0
  7  8  1  0
  8  9  2  0
 10  8  1  1
 10 11  1  0
 10 28  1  0
 11 12  1  0
 12 13  1  6
 12 26  1  0
 13 14  1  0
 14 15  2  0
 14 16  1  0
 16 17  1  0
 17 18  1  0
 18 19  2  3
 19 20  1  0
 20 21  1  0
 21 22  1  0
 22 23  1  0
 23 24  1  6
 23 25  2  0
 26 27  1  0
 27 28  1  0
 28 29  1  0
 29 30  2  0
 29 31  1  0
 31 32  2  0
 31 36  1  0
 32 33  1  0
 33 34  2  0
 34 35  1  0
 34 36  1  0
 37 38  2  0
 37 41  1  0
 38 39  1  0
 39 40  2  0
 40 41  1  0
M  END
