
     RDKit          3D

 41 45  0  0  0  0  0  0  0  0999 V2000
   10.1170    2.7460   -4.9310 C   0  0  0  0  0  0  0  0  0  0  0  0
    9.1900    1.8220   -4.7650 C   0  0  0  0  0  0  0  0  0  0  0  0
    8.2410    1.8570   -3.6270 C   0  0  0  0  0  0  0  0  0  0  0  0
    8.4150    0.6460   -2.8530 N   0  0  0  0  0  0  0  0  0  0  0  0
    7.6150    0.4070   -1.6750 C   0  0  0  0  0  0  0  0  0  0  0  0
    6.7920    1.3010   -1.3940 O   0  0  0  0  0  0  0  0  0  0  0  0
    7.8370   -0.8410   -0.9280 C   0  0  0  0  0  0  0  0  0  0  0  0
    6.9610   -0.9760    0.2740 C   0  0  0  0  0  0  0  0  0  0  0  0
    5.4940   -0.9690   -0.0320 C   0  0  0  0  0  0  0  0  0  0  0  0
    4.7460   -1.1020    1.2550 C   0  0  0  0  0  0  0  0  0  0  0  0
    3.3630   -1.1120    1.3420 C   0  0  0  0  0  0  0  0  0  0  0  0
    3.0360   -1.2480    2.6760 C   0  0  0  0  0  0  0  0  0  0  0  0
    1.8650   -1.3180    3.3760 C   0  0  0  0  0  0  0  0  0  0  0  0
    0.5890   -1.2430    2.6500 C   0  0  0  0  0  0  0  0  0  0  0  0
    0.0590   -2.3070    2.2450 O   0  0  0  0  0  0  0  0  0  0  0  0
   -0.0530   -0.0630    2.3910 O   0  0  0  0  0  0  0  0  0  0  0  0
   -1.2480    0.0940    1.7190 C   0  0  0  0  0  0  0  0  0  0  0  0
   -2.4120    0.1770    2.4500 C   0  0  0  0  0  0  0  0  0  0  0  0
   -3.6510    0.3370    1.8560 C   0  0  0  0  0  0  0  0  0  0  0  0
   -3.7080    0.4130    0.4840 C   0  0  0  0  0  0  0  0  0  0  0  0
   -2.5680    0.3340   -0.2870 C   0  0  0  0  0  0  0  0  0  0  0  0
   -1.3650    0.1770    0.3490 C   0  0  0  0  0  0  0  0  0  0  0  0
   -3.0040    0.4440   -1.6810 C   0  0  0  0  0  0  0  0  0  0  0  0
   -4.3670    0.0620   -1.6290 O   0  0  0  0  0  0  0  0  0  0  0  0
   -4.8410    0.5870   -0.4300 C   0  0  1  0  0  0  0  0  0  0  0  0
   -6.0550   -0.2110   -0.0100 C   0  0  0  0  0  0  0  0  0  0  0  0
   -7.1690    0.0040   -0.9720 C   0  0  0  0  0  0  0  0  0  0  0  0
   -7.3420   -0.8080   -2.0740 C   0  0  0  0  0  0  0  0  0  0  0  0
   -8.3890   -0.5920   -2.9650 C   0  0  0  0  0  0  0  0  0  0  0  0
   -9.2920    0.4360   -2.7860 C   0  0  0  0  0  0  0  0  0  0  0  0
  -10.4130    0.6580   -3.7490 C   0  0  0  0  0  0  0  0  0  0  0  0
   -9.1190    1.2490   -1.6830 C   0  0  0  0  0  0  0  0  0  0  0  0
  -10.0680    2.3650   -1.4560 C   0  0  0  0  0  0  0  0  0  0  0  0
   -8.0790    1.0260   -0.8070 C   0  0  0  0  0  0  0  0  0  0  0  0
    1.8070   -1.4550    4.7450 C   0  0  0  0  0  0  0  0  0  0  0  0
    0.5850   -1.5190    5.3910 O   0  0  0  0  0  0  0  0  0  0  0  0
    0.5770   -1.6600    6.7960 C   0  0  0  0  0  0  0  0  0  0  0  0
    2.9810   -1.5240    5.4340 C   0  0  0  0  0  0  0  0  0  0  0  0
    4.2060   -1.4580    4.7650 C   0  0  0  0  0  0  0  0  0  0  0  0
    4.2160   -1.3200    3.3840 C   0  0  0  0  0  0  0  0  0  0  0  0
    5.2330   -1.2280    2.4940 N   0  0  0  0  0  0  0  0  0  0  0  0
  1  2  2  0
  2  3  1  0
  3  4  1  0
  4  5  1  0
  5  6  2  0
  5  7  1  0
  7  8  1  0
  8  9  1  0
  9 10  1  0
 10 11  2  0
 10 41  1  0
 11 12  1  0
 12 13  2  0
 12 40  1  0
 13 14  1  0
 13 35  1  0
 14 15  2  0
 14 16  1  0
 16 17  1  0
 17 18  2  0
 17 22  1  0
 18 19  1  0
 19 20  2  0
 20 21  1  0
 20 25  1  0
 21 22  2  0
 21 23  1  0
 23 24  1  0
 24 25  1  0
 25 26  1  1
 26 27  1  0
 27 28  2  0
 27 34  1  0
 28 29  1  0
 29 30  2  0
 30 31  1  0
 30 32  1  0
 32 33  1  0
 32 34  2  0
 35 36  1  0
 35 38  2  0
 36 37  1  0
 38 39  1  0
 39 40  2  0
 40 41  1  0
M  END
