
     RDKit          3D

 41 45  0  0  0  0  0  0  0  0999 V2000
   -2.1400   -2.2240    3.3640 C   0  0  0  0  0  0  0  0  0  0  0  0
   -2.1630   -2.2440    1.8290 C   0  0  0  0  0  0  0  0  0  0  0  0
   -1.2070   -1.3110    1.2590 C   0  0  0  0  0  0  0  0  0  0  0  0
   -1.4910   -0.3010    0.4580 C   0  0  0  0  0  0  0  0  0  0  0  0
   -2.9040   -0.0570    0.0760 C   0  0  0  0  0  0  0  0  0  0  0  0
   -3.5110    1.1630    0.6980 C   0  0  1  0  0  0  0  0  0  0  0  0
   -2.8760    2.3560    0.4040 O   0  0  0  0  0  0  0  0  0  0  0  0
   -4.9300    1.3480    0.2770 C   0  0  0  0  0  0  0  0  0  0  0  0
   -5.4030    2.4040   -0.1870 O   0  0  0  0  0  0  0  0  0  0  0  0
   -5.7900    0.2680    0.4060 O   0  0  0  0  0  0  0  0  0  0  0  0
   -7.1400    0.3360    0.0370 C   0  0  1  0  0  0  0  0  0  0  0  0
   -7.4210   -0.5420   -1.1910 C   0  0  0  0  0  0  0  0  0  0  0  0
   -8.8360   -0.1850   -1.6120 C   0  0  0  0  0  0  0  0  0  0  0  0
   -9.7760   -0.7270   -0.5770 C   0  0  0  0  0  0  0  0  0  0  0  0
   -9.1400   -0.9880    0.7620 C   0  0  0  0  0  0  0  0  0  0  0  0
   -8.1160    0.0530    1.1360 C   0  0  0  0  0  0  0  0  0  0  0  0
   -0.4570    0.5100   -0.0320 N   0  0  0  0  0  0  0  0  0  0  0  0
    0.8060    0.4180    0.1950 C   0  0  0  0  0  0  0  0  0  0  0  0
    1.6660    1.3810   -0.4460 C   0  0  0  0  0  0  0  0  0  0  0  0
    1.3660    2.3850   -1.2090 C   0  0  0  0  0  0  0  0  0  0  0  0
    0.0330    2.7700   -1.6010 C   0  0  0  0  0  0  0  0  0  0  0  0
   -0.1810    3.8380   -2.3790 C   0  0  0  0  0  0  0  0  0  0  0  0
    0.9160    4.6570   -2.8610 C   0  0  0  0  0  0  0  0  0  0  0  0
    2.1520    4.3490   -2.5320 C   0  0  0  0  0  0  0  0  0  0  0  0
    2.4230    3.2270   -1.7120 N   0  0  0  0  0  0  0  0  0  0  0  0
    1.2810   -0.6330    1.0620 C   0  0  0  0  0  0  0  0  0  0  0  0
    2.4950   -0.7580    1.4770 C   0  0  0  0  0  0  0  0  0  0  0  0
    3.7250   -0.0550    1.3300 C   0  0  0  0  0  0  0  0  0  0  0  0
    3.9440    1.1870    1.9000 C   0  0  0  0  0  0  0  0  0  0  0  0
    5.1740    1.7890    1.7080 C   0  0  0  0  0  0  0  0  0  0  0  0
    6.1750    1.1940    0.9730 C   0  0  0  0  0  0  0  0  0  0  0  0
    5.9740   -0.0550    0.3920 C   0  0  0  0  0  0  0  0  0  0  0  0
    6.9730   -0.6660   -0.3520 O   0  0  0  0  0  0  0  0  0  0  0  0
    6.7040   -1.9230   -0.9040 C   0  0  0  0  0  0  0  0  0  0  0  0
    7.8360   -2.4910   -1.6930 C   0  0  0  0  0  0  0  0  0  0  0  0
    9.0680   -2.6610   -0.8480 C   0  0  2  0  0  0  0  0  0  0  0  0
    9.7410   -1.5260   -0.1750 C   0  0  0  0  0  0  0  0  0  0  0  0
   10.3390   -2.1320   -1.4130 C   0  0  0  0  0  0  0  0  0  0  0  0
    4.7410   -0.6290    0.6000 C   0  0  0  0  0  0  0  0  0  0  0  0
    0.1980   -1.5140    1.5920 C   0  0  0  0  0  0  0  0  0  0  0  0
    0.5620   -2.4520    2.3500 O   0  0  0  0  0  0  0  0  0  0  0  0
  1  2  1  0
  2  3  1  0
  3  4  2  0
  3 40  1  0
  4  5  1  0
  4 17  1  0
  5  6  1  0
  6  7  1  6
  6  8  1  0
  8  9  2  0
  8 10  1  0
 11 10  1  1
 11 12  1  0
 11 16  1  0
 12 13  1  0
 13 14  1  0
 14 15  1  0
 15 16  1  0
 17 18  2  0
 18 19  1  0
 18 26  1  0
 19 20  2  3
 20 21  1  0
 20 25  1  0
 21 22  2  0
 22 23  1  0
 23 24  2  0
 24 25  1  0
 26 27  2  3
 26 40  1  0
 27 28  1  0
 28 29  2  0
 28 39  1  0
 29 30  1  0
 30 31  2  0
 31 32  1  0
 32 33  1  0
 32 39  2  0
 33 34  1  0
 34 35  1  0
 36 35  1  6
 36 37  1  0
 36 38  1  0
 37 38  1  0
 40 41  2  0
M  END
