
     RDKit          3D

 39 40  0  0  0  0  0  0  0  0999 V2000
   -8.1700   -1.6250    1.1600 C   0  0  0  0  0  0  0  0  0  0  0  0
   -7.9160   -0.3940    0.3390 C   0  0  1  0  0  0  0  0  0  0  0  0
   -7.9150    0.8570    1.1860 C   0  0  0  0  0  0  0  0  0  0  0  0
   -6.9820    1.9110    0.6400 C   0  0  2  0  0  0  0  0  0  0  0  0
   -7.4020    2.3670   -0.5990 O   0  0  0  0  0  0  0  0  0  0  0  0
   -5.5630    1.4340    0.5600 C   0  0  0  0  0  0  0  0  0  0  0  0
   -5.4420   -0.0300    0.2770 C   0  0  2  0  0  0  0  0  0  0  0  0
   -5.2500   -0.7090    1.4660 O   0  0  0  0  0  0  0  0  0  0  0  0
   -4.2340   -0.3200   -0.6210 C   0  0  0  0  0  0  0  0  0  0  0  0
   -2.9790    0.1310    0.0390 C   0  0  0  0  0  0  0  0  0  0  0  0
   -2.9560    0.6550    1.1840 O   0  0  0  0  0  0  0  0  0  0  0  0
   -1.7660   -0.0500   -0.6780 N   0  0  0  0  0  0  0  0  0  0  0  0
   -0.5530    0.3670   -0.0800 C   0  0  0  0  0  0  0  0  0  0  0  0
   -0.5120    0.8850    1.0610 O   0  0  0  0  0  0  0  0  0  0  0  0
    0.6250    0.2070   -0.7510 O   0  0  0  0  0  0  0  0  0  0  0  0
    1.8980    0.5890   -0.2420 C   0  0  1  0  0  0  0  0  0  0  0  0
    2.7160   -0.6930   -0.1800 C   0  0  0  0  0  0  0  0  0  0  0  0
    3.7280   -0.9220   -0.8730 N   0  0  0  0  0  0  0  0  0  0  0  0
    4.3270   -2.2790   -0.5890 C   0  0  2  0  0  0  0  0  0  0  0  0
    5.7020   -2.0210   -0.3820 O   0  0  0  0  0  0  0  0  0  0  0  0
    4.0850   -2.9650   -1.7200 O   0  0  0  0  0  0  0  0  0  0  0  0
    4.5850   -4.1450   -2.0410 C   0  0  0  0  0  0  0  0  0  0  0  0
    4.4220   -5.3540   -1.2000 C   0  0  2  0  0  0  0  0  0  0  0  0
    4.9620   -5.2820    0.0610 F   0  0  0  0  0  0  0  0  0  0  0  0
    5.0760   -6.4580   -1.7960 F   0  0  0  0  0  0  0  0  0  0  0  0
    3.0970   -5.7680   -1.1150 F   0  0  0  0  0  0  0  0  0  0  0  0
    3.5580   -2.6790    0.5790 C   0  0  1  0  0  0  0  0  0  0  0  0
    4.3300   -2.6650    1.8810 C   0  0  0  0  0  0  0  0  0  0  0  0
    2.4650   -1.7720    0.6310 O   0  0  0  0  0  0  0  0  0  0  0  0
    2.5570    1.6290   -1.0980 C   0  0  1  0  0  0  0  0  0  0  0  0
    1.7020    2.7650   -1.1890 O   0  0  0  0  0  0  0  0  0  0  0  0
    3.7880    2.1860   -0.4770 C   0  0  0  0  0  0  0  0  0  0  0  0
    4.7480    1.4090   -0.2760 O   0  0  0  0  0  0  0  0  0  0  0  0
    3.9660    3.4960   -0.0990 O   0  0  0  0  0  0  0  0  0  0  0  0
    5.1060    4.0360    0.4830 C   0  0  0  0  0  0  0  0  0  0  0  0
    6.3370    3.9000   -0.3890 C   0  0  0  0  0  0  0  0  0  0  0  0
    7.5270    4.5260    0.3490 C   0  0  0  0  0  0  0  0  0  0  0  0
    8.6720    4.4320   -0.3950 F   0  0  0  0  0  0  0  0  0  0  0  0
   -6.6570   -0.5760   -0.4560 C   0  0  0  0  0  0  0  0  0  0  0  0
  2  1  1  1
  2  3  1  0
  2 39  1  0
  3  4  1  0
  4  5  1  6
  4  6  1  0
  6  7  1  0
  7  8  1  1
  7  9  1  0
  7 39  1  0
  9 10  1  0
 10 11  2  0
 10 12  1  0
 12 13  1  0
 13 14  2  0
 13 15  1  0
 16 15  1  6
 16 17  1  0
 16 30  1  0
 17 18  2  0
 17 29  1  0
 18 19  1  0
 19 20  1  1
 19 21  1  0
 19 27  1  0
 21 22  1  0
 22 23  1  0
 23 24  1  1
 23 25  1  0
 23 26  1  0
 27 28  1  1
 27 29  1  0
 30 31  1  1
 30 32  1  0
 32 33  2  0
 32 34  1  0
 34 35  1  0
 35 36  1  0
 36 37  1  0
 37 38  1  0
M  END
