
     RDKit          3D

 40 41  0  0  0  0  0  0  0  0999 V2000
   -1.9560    5.1040    0.2030 C   0  0  0  0  0  0  0  0  0  0  0  0
   -1.2230    3.9670    0.5830 O   0  0  0  0  0  0  0  0  0  0  0  0
    0.0560    3.6750    0.1340 C   0  0  0  0  0  0  0  0  0  0  0  0
    0.5950    4.4770   -0.6640 O   0  0  0  0  0  0  0  0  0  0  0  0
    0.8270    2.4690    0.5400 C   0  0  2  0  0  0  0  0  0  0  0  0
    1.2980    1.7690   -0.6870 C   0  0  0  0  0  0  0  0  0  0  0  0
    2.7690    1.5450   -0.6450 C   0  0  0  0  0  0  0  0  0  0  0  0
    3.5120    2.7140   -0.5440 O   0  0  0  0  0  0  0  0  0  0  0  0
    3.4140    0.4160   -0.6920 C   0  0  0  0  0  0  0  0  0  0  0  0
    4.8880    0.4930   -0.6290 C   0  0  0  0  0  0  0  0  0  0  0  0
    5.6590    1.7370   -0.5200 C   0  0  0  0  0  0  0  0  0  0  0  0
    5.5330   -0.6170   -0.6750 O   0  0  0  0  0  0  0  0  0  0  0  0
    2.8860   -0.9400   -0.8080 C   0  0  1  0  0  0  0  0  0  0  0  0
    2.6690   -1.5080    0.5740 C   0  0  1  0  0  0  0  0  0  0  0  0
    1.4990   -0.9850    1.1760 O   0  0  0  0  0  0  0  0  0  0  0  0
    2.5780   -2.9680    0.6500 C   0  0  0  0  0  0  0  0  0  0  0  0
    1.5010   -3.5440    1.1660 C   0  0  0  0  0  0  0  0  0  0  0  0
    1.4380   -4.8880    1.2260 F   0  0  0  0  0  0  0  0  0  0  0  0
    3.6800   -3.8440    0.1720 C   0  0  2  0  0  0  0  0  0  0  0  0
    4.8830   -3.4590    0.7440 F   0  0  0  0  0  0  0  0  0  0  0  0
    3.7580   -3.7780   -1.1840 F   0  0  0  0  0  0  0  0  0  0  0  0
    3.4740   -5.1620    0.5990 F   0  0  0  0  0  0  0  0  0  0  0  0
    1.8110   -1.2530   -1.6550 N   0  0  0  0  0  0  0  0  0  0  0  0
    0.6440   -1.9990   -1.5940 C   0  0  0  0  0  0  0  0  0  0  0  0
    0.6500   -3.1540   -2.2340 O   0  0  0  0  0  0  0  0  0  0  0  0
   -0.6060   -1.7860   -0.9700 N   0  0  0  0  0  0  0  0  0  0  0  0
   -1.5950   -0.7730   -1.2370 C   0  0  1  0  0  0  0  0  0  0  0  0
   -2.6120   -1.2530   -2.1060 O   0  0  0  0  0  0  0  0  0  0  0  0
   -2.2020   -0.3060    0.0570 C   0  0  2  0  0  0  0  0  0  0  0  0
   -1.5900   -0.9240    1.1430 O   0  0  0  0  0  0  0  0  0  0  0  0
   -3.6760   -0.6490    0.1480 C   0  0  1  0  0  0  0  0  0  0  0  0
   -4.4390    0.0360   -0.9740 C   0  0  0  0  0  0  0  0  0  0  0  0
   -3.9120   -1.9980    0.0990 O   0  0  0  0  0  0  0  0  0  0  0  0
   -5.0400   -2.2090    0.8720 C   0  0  0  0  0  0  0  0  0  0  0  0
   -4.9030   -1.1620    1.9470 C   0  0  0  0  0  0  0  0  0  0  0  0
   -4.1800   -0.1670    1.3390 O   0  0  0  0  0  0  0  0  0  0  0  0
   -1.9960    1.1910    0.1390 C   0  0  0  0  0  0  0  0  0  0  0  0
   -1.3060    1.5110    1.4150 C   0  0  0  0  0  0  0  0  0  0  0  0
   -2.0360    1.5600    2.4410 O   0  0  0  0  0  0  0  0  0  0  0  0
    0.0310    1.7290    1.4120 O   0  0  0  0  0  0  0  0  0  0  0  0
  1  2  1  0
  2  3  1  0
  3  4  2  0
  5  3  1  6
  5  6  1  0
  5 40  1  0
  6  7  1  0
  7  8  1  0
  7  9  2  0
  9 10  1  0
  9 13  1  0
 10 11  1  0
 10 12  2  0
 13 14  1  0
 13 23  1  1
 14 15  1  6
 14 16  1  0
 16 17  2  3
 16 19  1  0
 17 18  1  0
 19 20  1  1
 19 21  1  0
 19 22  1  0
 23 24  1  0
 24 25  2  0
 24 26  1  0
 26 27  1  0
 27 28  1  6
 27 29  1  0
 29 30  1  1
 29 31  1  0
 29 37  1  0
 31 32  1  6
 31 33  1  0
 31 36  1  0
 33 34  1  0
 34 35  1  0
 35 36  1  0
 37 38  1  0
 38 39  2  0
 38 40  1  0
M  END
