
     RDKit          3D

 40 41  0  0  0  0  0  0  0  0999 V2000
   -3.5240    1.7710    1.9560 C   0  0  0  0  0  0  0  0  0  0  0  0
   -3.8980    2.3200    0.8260 C   0  0  0  0  0  0  0  0  0  0  0  0
   -4.9970    3.1520    0.8180 O   0  0  0  0  0  0  0  0  0  0  0  0
   -3.1220    2.0290   -0.4320 C   0  0  0  0  0  0  0  0  0  0  0  0
   -2.1060    1.2560   -0.4290 O   0  0  0  0  0  0  0  0  0  0  0  0
   -1.0850    0.4790   -0.4260 C   0  0  1  0  0  0  0  0  0  0  0  0
   -0.3040    0.2860    0.8450 C   0  0  0  0  0  0  0  0  0  0  0  0
   -0.7360   -0.7210    1.5230 O   0  0  0  0  0  0  0  0  0  0  0  0
    0.7530    0.9940    1.3690 N   0  0  0  0  0  0  0  0  0  0  0  0
    1.6130    2.0280    0.9150 C   0  0  0  0  0  0  0  0  0  0  0  0
    1.6370    3.1120    1.6750 C   0  0  0  0  0  0  0  0  0  0  0  0
    2.4000    4.2870    1.4490 N   0  0  0  0  0  0  0  0  0  0  0  0
    3.3810    4.2870    0.4110 C   0  0  0  0  0  0  0  0  0  0  0  0
    3.3500    3.0890   -0.4340 C   0  0  0  0  0  0  0  0  0  0  0  0
    2.5440    2.0030   -0.2450 C   0  0  0  0  0  0  0  0  0  0  0  0
    2.6470    0.9930   -1.1130 O   0  0  0  0  0  0  0  0  0  0  0  0
    2.3530    0.1380   -2.0470 C   0  0  0  0  0  0  0  0  0  0  0  0
    1.5240    0.2380   -3.0490 O   0  0  0  0  0  0  0  0  0  0  0  0
    3.0180   -1.1890   -2.0610 C   0  0  0  0  0  0  0  0  0  0  0  0
    2.7840   -2.0860   -0.9090 C   0  0  2  0  0  0  0  0  0  0  0  0
    3.3520   -1.5750    0.4020 C   0  0  0  0  0  0  0  0  0  0  0  0
    3.6010   -3.2390   -1.1810 O   0  0  0  0  0  0  0  0  0  0  0  0
    1.4060   -2.6110   -0.6970 C   0  0  2  0  0  0  0  0  0  0  0  0
    1.4450   -4.0310   -0.6050 O   0  0  0  0  0  0  0  0  0  0  0  0
    0.5170   -2.2500   -1.8080 C   0  0  0  0  0  0  0  0  0  0  0  0
    0.8070   -2.8540   -2.9080 O   0  0  0  0  0  0  0  0  0  0  0  0
   -0.4760   -1.4140   -1.7430 O   0  0  0  0  0  0  0  0  0  0  0  0
   -1.4780   -0.9030   -0.9770 C   0  0  1  0  0  0  0  0  0  0  0  0
   -2.1140   -1.7740    0.0100 C   0  0  0  0  0  0  0  0  0  0  0  0
   -3.0720   -1.3720    0.7130 O   0  0  0  0  0  0  0  0  0  0  0  0
   -1.6660   -3.0660    0.1860 O   0  0  0  0  0  0  0  0  0  0  0  0
   -2.1890   -3.9970    1.0990 C   0  0  0  0  0  0  0  0  0  0  0  0
   -2.0660   -3.5480    2.5180 C   0  0  0  0  0  0  0  0  0  0  0  0
   -2.5920   -4.4890    3.3890 O   0  0  0  0  0  0  0  0  0  0  0  0
   -3.5930    2.6410   -1.5050 C   0  0  0  0  0  0  0  0  0  0  0  0
   -4.6810    3.4370   -1.3750 F   0  0  0  0  0  0  0  0  0  0  0  0
   -3.0130    2.5130   -2.8380 C   0  0  1  0  0  0  0  0  0  0  0  0
   -1.9610    1.6610   -2.9090 F   0  0  0  0  0  0  0  0  0  0  0  0
   -3.9910    2.0510   -3.7150 F   0  0  0  0  0  0  0  0  0  0  0  0
   -2.5930    3.7540   -3.3130 F   0  0  0  0  0  0  0  0  0  0  0  0
  1  2  2  0
  2  3  1  0
  2  4  1  0
  4  5  1  0
  4 35  2  3
  6  5  1  1
  6  7  1  0
  6 28  1  0
  7  8  2  0
  7  9  1  0
  9 10  1  0
 10 11  2  0
 10 15  1  0
 11 12  1  0
 12 13  1  0
 13 14  1  0
 14 15  2  0
 15 16  1  0
 16 17  1  0
 17 18  2  0
 17 19  1  0
 19 20  1  0
 20 21  1  1
 20 22  1  0
 20 23  1  0
 23 24  1  6
 23 25  1  0
 25 26  2  0
 25 27  1  0
 27 28  1  0
 28 29  1  1
 29 30  2  0
 29 31  1  0
 31 32  1  0
 32 33  1  0
 33 34  1  0
 35 36  1  0
 35 37  1  0
 37 38  1  1
 37 39  1  0
 37 40  1  0
M  END
