
     RDKit          3D

 40 43  0  0  0  0  0  0  0  0999 V2000
    3.3590   -3.8350    0.2970 C   0  0  0  0  0  0  0  0  0  0  0  0
    2.2070   -3.0470    0.1650 O   0  0  0  0  0  0  0  0  0  0  0  0
    2.3040   -1.6850   -0.1380 C   0  0  0  0  0  0  0  0  0  0  0  0
    1.1590   -0.8900   -0.2720 C   0  0  0  0  0  0  0  0  0  0  0  0
    1.2360    0.4390   -0.5650 C   0  0  0  0  0  0  0  0  0  0  0  0
    0.1200    1.2900   -0.7000 N   0  0  0  0  0  0  0  0  0  0  0  0
   -1.1910    0.9830   -0.2880 C   0  0  0  0  0  0  0  0  0  0  0  0
   -1.4490   -0.1130    0.2560 O   0  0  0  0  0  0  0  0  0  0  0  0
   -2.3180    1.9720   -0.4930 C   0  0  0  0  0  0  0  0  0  0  0  0
   -3.5120    1.3840   -0.0540 O   0  0  0  0  0  0  0  0  0  0  0  0
   -4.0020    0.2580   -0.6790 C   0  0  0  0  0  0  0  0  0  0  0  0
   -3.3560   -0.2980   -1.7570 C   0  0  0  0  0  0  0  0  0  0  0  0
   -3.8800   -1.4330   -2.3640 C   0  0  0  0  0  0  0  0  0  0  0  0
   -5.0370   -1.9700   -1.8670 C   0  0  0  0  0  0  0  0  0  0  0  0
   -5.6190   -3.1840   -2.4990 C   0  0  0  0  0  0  0  0  0  0  0  0
   -5.6830   -1.4090   -0.7860 C   0  0  0  0  0  0  0  0  0  0  0  0
   -5.1840   -0.2920   -0.1730 C   0  0  0  0  0  0  0  0  0  0  0  0
   -5.7900    0.3430    0.9770 C   0  0  2  0  0  0  0  0  0  0  0  0
   -4.9710    0.1530    2.0980 O   0  0  0  0  0  0  0  0  0  0  0  0
   -7.1910   -0.0620    1.3280 C   0  0  1  0  0  0  0  0  0  0  0  0
   -7.5770    0.7080    2.5700 C   0  0  0  0  0  0  0  0  0  0  0  0
   -8.6960    1.6520    2.3420 C   0  0  0  0  0  0  0  0  0  0  0  0
   -8.4250    2.5850    1.1610 C   0  0  0  0  0  0  0  0  0  0  0  0
   -8.3200    1.7060   -0.0060 N   0  0  0  0  0  0  0  0  0  0  0  0
   -8.1540    0.2910    0.2430 C   0  0  0  0  0  0  0  0  0  0  0  0
   -8.8080   -0.4950   -0.4470 O   0  0  0  0  0  0  0  0  0  0  0  0
    2.5110    0.9650   -0.7260 C   0  0  0  0  0  0  0  0  0  0  0  0
    3.6850    0.2220   -0.6050 C   0  0  0  0  0  0  0  0  0  0  0  0
    4.9370    0.8510   -0.7660 N   0  0  0  0  0  0  0  0  0  0  0  0
    6.1790    0.2390   -0.9750 C   0  0  0  0  0  0  0  0  0  0  0  0
    6.2640   -1.0040   -1.0480 O   0  0  0  0  0  0  0  0  0  0  0  0
    7.4390    1.0800   -1.1180 C   0  0  1  0  0  0  0  0  0  0  0  0
    7.6780    1.8370    0.1730 C   0  0  0  0  0  0  0  0  0  0  0  0
    8.7610    0.9470    0.8010 C   0  0  0  0  0  0  0  0  0  0  0  0
    9.5230    0.5680   -0.4520 C   0  0  1  0  0  0  0  0  0  0  0  0
   10.4520   -0.5980   -0.2560 C   0  0  0  0  0  0  0  0  0  0  0  0
   11.6510   -0.1730    1.0110 S   0  0  0  0  0  0  0  0  0  0  0  0
   12.0390   -1.4540    1.7400 O   0  0  0  0  0  0  0  0  0  0  0  0
    8.4970    0.2410   -1.3290 O   0  0  0  0  0  0  0  0  0  0  0  0
    3.5610   -1.1140   -0.3080 C   0  0  0  0  0  0  0  0  0  0  0  0
  1  2  1  0
  2  3  1  0
  3  4  2  0
  3 40  1  0
  4  5  1  0
  5  6  1  0
  5 27  2  0
  6  7  1  0
  7  8  2  0
  7  9  1  0
  9 10  1  0
 10 11  1  0
 11 12  2  0
 11 17  1  0
 12 13  1  0
 13 14  2  0
 14 15  1  0
 14 16  1  0
 16 17  2  0
 17 18  1  0
 18 19  1  1
 18 20  1  0
 20 21  1  1
 20 25  1  0
 21 22  1  0
 22 23  1  0
 23 24  1  0
 24 25  1  0
 25 26  2  0
 27 28  1  0
 28 29  1  0
 28 40  2  0
 29 30  1  0
 30 31  2  0
 32 30  1  1
 32 33  1  0
 32 39  1  0
 33 34  1  0
 34 35  1  0
 35 36  1  1
 35 39  1  0
 36 37  1  0
 37 38  2  0
M  END
