
     RDKit          3D

 39 40  0  0  0  0  0  0  0  0999 V2000
   -1.0520   -1.9550    3.6320 C   0  0  0  0  0  0  0  0  0  0  0  0
   -1.1040   -1.5450    2.2830 O   0  0  0  0  0  0  0  0  0  0  0  0
   -0.0090   -1.3380    1.4800 C   0  0  0  0  0  0  0  0  0  0  0  0
    1.1340   -1.5390    2.0210 O   0  0  0  0  0  0  0  0  0  0  0  0
   -0.1380   -0.9170    0.1030 C   0  0  0  0  0  0  0  0  0  0  0  0
   -1.1870   -0.6700   -0.5980 C   0  0  0  0  0  0  0  0  0  0  0  0
   -0.9870   -0.2730   -1.9580 O   0  0  0  0  0  0  0  0  0  0  0  0
   -2.5570   -0.7330   -0.2210 C   0  0  0  0  0  0  0  0  0  0  0  0
   -2.9330   -1.0590    0.9120 O   0  0  0  0  0  0  0  0  0  0  0  0
   -3.6080   -0.4270   -1.1100 O   0  0  0  0  0  0  0  0  0  0  0  0
   -4.9720   -0.4880   -0.7350 C   0  0  2  0  0  0  0  0  0  0  0  0
   -5.7830   -1.3490   -1.6480 C   0  0  0  0  0  0  0  0  0  0  0  0
   -7.2150   -0.9380   -1.7970 C   0  0  0  0  0  0  0  0  0  0  0  0
   -7.6200   -0.3380   -0.6080 O   0  0  0  0  0  0  0  0  0  0  0  0
   -7.0270    0.8710   -0.3790 C   0  0  1  0  0  0  0  0  0  0  0  0
   -7.2230    1.2840    1.0500 C   0  0  0  0  0  0  0  0  0  0  0  0
   -8.5340    1.4580    1.4700 O   0  0  0  0  0  0  0  0  0  0  0  0
   -9.5510    0.5530    1.5480 C   0  0  0  0  0  0  0  0  0  0  0  0
   -9.3610   -0.6230    1.2200 O   0  0  0  0  0  0  0  0  0  0  0  0
   -5.5690    0.9120   -0.7400 C   0  0  0  0  0  0  0  0  0  0  0  0
    1.2180   -0.7830   -0.5940 C   0  0  2  0  0  0  0  0  0  0  0  0
    1.7520   -2.1100   -1.0000 C   0  0  0  0  0  0  0  0  0  0  0  0
    2.2630   -0.0970    0.3240 C   0  0  1  0  0  0  0  0  0  0  0  0
    3.2760   -0.9440    0.7460 O   0  0  0  0  0  0  0  0  0  0  0  0
    2.7300    0.5940   -0.9640 C   0  0  2  0  0  0  0  0  0  0  0  0
    3.1250    2.0050   -0.7330 C   0  0  0  0  0  0  0  0  0  0  0  0
    4.2090    2.0620    0.2090 N   0  0  0  0  0  0  0  0  0  0  0  0
    5.4370    1.4370   -0.0910 C   0  0  0  0  0  0  0  0  0  0  0  0
    5.5490    0.8330   -1.2110 O   0  0  0  0  0  0  0  0  0  0  0  0
    6.5520    1.4470    0.7880 N   0  0  0  0  0  0  0  0  0  0  0  0
    7.7930    0.8020    0.4350 C   0  0  2  0  0  0  0  0  0  0  0  0
    8.0690   -0.2900    1.4200 C   0  0  0  0  0  0  0  0  0  0  0  0
    7.1050   -1.2730    1.4740 O   0  0  0  0  0  0  0  0  0  0  0  0
    8.9570    1.7820    0.4790 C   0  0  2  0  0  0  0  0  0  0  0  0
    9.0500    2.2800    1.7760 F   0  0  0  0  0  0  0  0  0  0  0  0
    8.8240    2.7960   -0.4350 F   0  0  0  0  0  0  0  0  0  0  0  0
   10.1250    1.1040    0.2180 F   0  0  0  0  0  0  0  0  0  0  0  0
    1.2990    0.3910   -1.4820 C   0  0  2  0  0  0  0  0  0  0  0  0
    0.4830    1.4730   -1.1300 O   0  0  0  0  0  0  0  0  0  0  0  0
  1  2  1  0
  2  3  1  0
  3  4  2  0
  3  5  1  0
  5  6  2  3
  5 21  1  0
  6  7  1  0
  6  8  1  0
  8  9  2  0
  8 10  1  0
 11 10  1  6
 11 12  1  0
 11 20  1  0
 12 13  1  0
 13 14  1  0
 14 15  1  0
 15 16  1  1
 15 20  1  0
 16 17  1  0
 17 18  1  0
 18 19  2  0
 21 22  1  6
 21 23  1  0
 21 38  1  0
 23 24  1  6
 23 25  1  0
 25 26  1  1
 25 38  1  0
 26 27  1  0
 27 28  1  0
 28 29  2  0
 28 30  1  0
 30 31  1  0
 31 32  1  1
 31 34  1  0
 32 33  1  0
 34 35  1  1
 34 36  1  0
 34 37  1  0
 38 39  1  1
M  END
