
     RDKit          3D

 40 42  0  0  0  0  0  0  0  0999 V2000
   12.5840    2.2590    0.6310 C   0  0  0  0  0  0  0  0  0  0  0  0
   11.4360    2.1080    1.2740 C   0  0  0  0  0  0  0  0  0  0  0  0
   11.2510    2.4160    2.6090 O   0  0  0  0  0  0  0  0  0  0  0  0
   10.2360    1.5670    0.5320 C   0  0  0  0  0  0  0  0  0  0  0  0
   10.5850    1.3080   -0.7680 O   0  0  0  0  0  0  0  0  0  0  0  0
    9.5730    0.8120   -1.5290 C   0  0  0  0  0  0  0  0  0  0  0  0
    9.0890   -0.5120   -1.1060 C   0  0  0  0  0  0  0  0  0  0  0  0
    9.5960   -1.0780   -0.0880 O   0  0  0  0  0  0  0  0  0  0  0  0
    8.0510   -1.1960   -1.8140 N   0  0  0  0  0  0  0  0  0  0  0  0
    7.5610   -2.4980   -1.4020 C   0  0  2  0  0  0  0  0  0  0  0  0
    8.3220   -3.5800   -2.2250 C   0  0  0  0  0  0  0  0  0  0  0  0
    6.1300   -2.7330   -1.6720 C   0  0  0  0  0  0  0  0  0  0  0  0
    5.1800   -1.7940   -1.0380 C   0  0  0  0  0  0  0  0  0  0  0  0
    5.6870   -0.8770   -0.3020 O   0  0  0  0  0  0  0  0  0  0  0  0
    3.7660   -1.9040   -1.2390 C   0  0  0  0  0  0  0  0  0  0  0  0
    2.8720   -1.0950   -0.7270 C   0  0  0  0  0  0  0  0  0  0  0  0
    3.0440    0.0100    0.0940 O   0  0  0  0  0  0  0  0  0  0  0  0
    1.7660    0.5430    0.3650 C   0  0  0  0  0  0  0  0  0  0  0  0
    1.3150    1.6170    1.1040 C   0  0  0  0  0  0  0  0  0  0  0  0
   -0.0300    1.8910    1.1780 C   0  0  0  0  0  0  0  0  0  0  0  0
   -1.0000    1.1120    0.5220 C   0  0  0  0  0  0  0  0  0  0  0  0
   -2.3660    1.4850    0.6110 N   0  0  0  0  0  0  0  0  0  0  0  0
   -3.4740    0.6940    0.3090 C   0  0  0  0  0  0  0  0  0  0  0  0
   -3.2960   -0.4970   -0.0480 O   0  0  0  0  0  0  0  0  0  0  0  0
   -4.8460    1.1230    0.3640 N   0  0  0  0  0  0  0  0  0  0  0  0
   -5.8830    0.1800    0.0250 C   0  0  2  0  0  0  0  0  0  0  0  0
   -6.6460    0.5240   -1.2520 C   0  0  0  0  0  0  0  0  0  0  0  0
   -7.9380    0.3210   -0.4960 C   0  0  1  0  0  0  0  0  0  0  0  0
   -8.6830    1.5250   -0.6110 O   0  0  0  0  0  0  0  0  0  0  0  0
   -8.7880   -0.8020   -0.9470 C   0  0  1  0  0  0  0  0  0  0  0  0
   -8.2270   -2.1720   -0.9010 C   0  0  0  0  0  0  0  0  0  0  0  0
  -10.4650   -0.7550   -0.2270 S   0  0  0  0  0  0  0  0  0  0  0  0
  -11.3840    0.6590   -0.8660 C   0  0  0  0  0  0  0  0  0  0  0  0
   -7.1770    0.2390    0.7760 C   0  0  1  0  0  0  0  0  0  0  0  0
   -7.4490   -0.9660    1.6540 C   0  0  0  0  0  0  0  0  0  0  0  0
   -7.3940    1.4730    1.6480 C   0  0  0  0  0  0  0  0  0  0  0  0
   -6.3610    1.6140    2.7130 C   0  0  0  0  0  0  0  0  0  0  0  0
   -0.5490    0.0500   -0.2060 C   0  0  0  0  0  0  0  0  0  0  0  0
    0.8170   -0.2130   -0.2710 C   0  0  0  0  0  0  0  0  0  0  0  0
    1.4760   -1.2120   -0.9380 O   0  0  0  0  0  0  0  0  0  0  0  0
  1  2  2  0
  2  3  1  0
  2  4  1  0
  4  5  1  0
  5  6  1  0
  6  7  1  0
  7  8  2  0
  7  9  1  0
  9 10  1  0
 10 11  1  6
 10 12  1  0
 12 13  1  0
 13 14  2  0
 13 15  1  0
 15 16  2  3
 16 17  1  0
 16 40  1  0
 17 18  1  0
 18 19  2  0
 18 39  1  0
 19 20  1  0
 20 21  2  0
 21 22  1  0
 21 38  1  0
 22 23  1  0
 23 24  2  0
 23 25  1  0
 26 25  1  1
 26 27  1  0
 26 34  1  0
 27 28  1  0
 28 29  1  1
 28 30  1  0
 28 34  1  0
 30 31  1  1
 30 32  1  0
 32 33  1  0
 34 35  1  1
 34 36  1  0
 36 37  1  0
 38 39  2  0
 39 40  1  0
M  END
