
     RDKit          3D

 40 42  0  0  0  0  0  0  0  0999 V2000
    4.1700   -3.4920    4.0890 C   0  0  0  0  0  0  0  0  0  0  0  0
    3.0400   -4.1330    3.3190 C   0  0  0  0  0  0  0  0  0  0  0  0
    2.7650   -3.4010    2.0230 C   0  0  0  0  0  0  0  0  0  0  0  0
    2.3810   -1.9490    2.2940 C   0  0  0  0  0  0  0  0  0  0  0  0
    2.1170   -1.2760    0.9350 C   0  0  0  0  0  0  0  0  0  0  0  0
    1.7540    0.0870    1.0690 N   0  0  0  0  0  0  0  0  0  0  0  0
    0.6140    0.5830    0.4450 C   0  0  0  0  0  0  0  0  0  0  0  0
   -0.1780   -0.2970   -0.4770 C   0  0  1  0  0  0  0  0  0  0  0  0
   -0.6790   -1.4130    0.2260 O   0  0  0  0  0  0  0  0  0  0  0  0
   -1.3840    0.4580   -0.9540 C   0  0  2  0  0  0  0  0  0  0  0  0
   -1.0270    1.4380   -2.0340 C   0  0  0  0  0  0  0  0  0  0  0  0
   -0.4790    0.8060   -3.2360 C   0  0  0  0  0  0  0  0  0  0  0  0
    0.8450    0.5730   -3.4680 C   0  0  0  0  0  0  0  0  0  0  0  0
    1.2580   -0.0400   -4.6390 C   0  0  0  0  0  0  0  0  0  0  0  0
    0.3640   -0.4330   -5.6040 C   0  0  0  0  0  0  0  0  0  0  0  0
   -0.9840   -0.2070   -5.3910 C   0  0  0  0  0  0  0  0  0  0  0  0
   -1.3730    0.3970   -4.2310 C   0  0  0  0  0  0  0  0  0  0  0  0
   -2.2300    0.9980    0.0690 N   0  0  0  0  0  0  0  0  0  0  0  0
   -3.5430    0.5640    0.2920 C   0  0  0  0  0  0  0  0  0  0  0  0
   -3.9330   -0.3690   -0.5040 O   0  0  0  0  0  0  0  0  0  0  0  0
   -4.5060    1.0260    1.2870 C   0  0  1  0  0  0  0  0  0  0  0  0
   -5.8170    0.3920    1.0940 N   0  0  0  0  0  0  0  0  0  0  0  0
   -7.0010    1.1100    0.8810 C   0  0  0  0  0  0  0  0  0  0  0  0
   -8.2870    0.3980    0.6960 C   0  0  0  0  0  0  0  0  0  0  0  0
   -6.9760    2.3640    0.8460 O   0  0  0  0  0  0  0  0  0  0  0  0
   -4.0800    0.6400    2.6880 C   0  0  2  0  0  0  0  0  0  0  0  0
   -5.1100    1.1240    3.7060 C   0  0  0  0  0  0  0  0  0  0  0  0
   -2.7050    1.1340    3.0740 C   0  0  0  0  0  0  0  0  0  0  0  0
    3.1390    1.0600    0.9750 S   0  0  2  0  0  0  0  0  0  0  0  0
    4.0710    0.6990    2.1380 O   0  0  0  0  0  0  0  0  0  0  0  0
    2.6750    2.4990    1.2200 O   0  0  0  0  0  0  0  0  0  0  0  0
    4.0520    1.0330   -0.4660 C   0  0  0  0  0  0  0  0  0  0  0  0
    5.0680    0.1640   -0.7830 C   0  0  0  0  0  0  0  0  0  0  0  0
    5.7910    0.1740   -1.9230 C   0  0  0  0  0  0  0  0  0  0  0  0
    5.5280    1.1350   -2.9100 C   0  0  0  0  0  0  0  0  0  0  0  0
    6.1170    1.2900   -4.0540 N   0  0  0  0  0  0  0  0  0  0  0  0
    5.8940    2.1270   -4.9260 C   0  0  0  0  0  0  0  0  0  0  0  0
    4.4800    3.0500   -4.0700 S   0  0  0  0  0  0  0  0  0  0  0  0
    4.5010    2.0240   -2.6090 C   0  0  0  0  0  0  0  0  0  0  0  0
    3.7850    1.9920   -1.4480 C   0  0  0  0  0  0  0  0  0  0  0  0
  1  2  1  0
  2  3  1  0
  3  4  1  0
  4  5  1  0
  5  6  1  0
  6  7  1  0
 29  6  1  6
  7  8  1  0
  8  9  1  1
  8 10  1  0
 10 11  1  6
 10 18  1  0
 11 12  1  0
 12 13  2  0
 12 17  1  0
 13 14  1  0
 14 15  2  0
 15 16  1  0
 16 17  2  0
 18 19  1  0
 19 20  2  0
 19 21  1  0
 21 22  1  6
 21 26  1  0
 22 23  1  0
 23 24  1  0
 23 25  2  0
 26 27  1  1
 26 28  1  0
 29 30  2  0
 29 31  2  0
 29 32  1  0
 32 33  2  0
 32 40  1  0
 33 34  1  0
 34 35  2  0
 35 36  1  0
 35 39  1  0
 36 37  2  0
 37 38  1  0
 38 39  1  0
 39 40  2  0
M  END
