
     RDKit          3D

 38 42  0  0  0  0  0  0  0  0999 V2000
    7.3430    0.2610    2.9390 C   0  0  0  0  0  0  0  0  0  0  0  0
    7.0300    0.2620    1.6590 C   0  0  0  0  0  0  0  0  0  0  0  0
    5.7300    0.3270    1.0200 C   0  0  0  0  0  0  0  0  0  0  0  0
    4.6380    0.3970    1.6560 O   0  0  0  0  0  0  0  0  0  0  0  0
    5.9290    0.2970   -0.4170 C   0  0  0  0  0  0  0  0  0  0  0  0
    4.8600    0.3440   -1.4460 C   0  0  0  0  0  0  0  0  0  0  0  0
    3.9070    1.8740   -1.2840 S   0  0  0  0  0  0  0  0  0  0  0  0
    2.6100    1.9420   -2.5280 C   0  0  0  0  0  0  0  0  0  0  0  0
    1.6150    0.9660   -2.3660 O   0  0  0  0  0  0  0  0  0  0  0  0
    0.8170    0.8520   -1.2390 C   0  0  0  0  0  0  0  0  0  0  0  0
    0.9460    1.7050   -0.1810 C   0  0  0  0  0  0  0  0  0  0  0  0
    0.1790    1.6190    0.9260 C   0  0  0  0  0  0  0  0  0  0  0  0
    0.3610    2.7020    2.4600 Br  0  0  0  0  0  0  0  0  0  0  0  0
   -0.8140    0.5910    0.9890 C   0  0  0  0  0  0  0  0  0  0  0  0
   -1.6910    0.6630    2.1320 C   0  0  0  0  0  0  0  0  0  0  0  0
   -2.5430    1.9440    1.7680 C   0  0  0  0  0  0  0  0  0  0  0  0
   -3.2790    1.7740    0.4630 C   0  0  0  0  0  0  0  0  0  0  0  0
   -4.0430    3.0540    0.1550 C   0  0  2  0  0  0  0  0  0  0  0  0
   -3.0410    4.1700    0.0560 C   0  0  0  0  0  0  0  0  0  0  0  0
   -5.1210    3.3250    1.1500 C   0  0  0  0  0  0  0  0  0  0  0  0
   -4.6990    2.8520   -1.1980 C   0  0  0  0  0  0  0  0  0  0  0  0
   -0.9730   -0.2960   -0.0500 C   0  0  0  0  0  0  0  0  0  0  0  0
   -1.8830   -1.3340    0.0070 C   0  0  0  0  0  0  0  0  0  0  0  0
   -1.9480   -2.2060   -1.0840 C   0  0  0  0  0  0  0  0  0  0  0  0
   -1.1430   -2.0530   -2.1800 C   0  0  0  0  0  0  0  0  0  0  0  0
   -0.2340   -1.0240   -2.2280 C   0  0  0  0  0  0  0  0  0  0  0  0
   -0.1350   -0.1470   -1.1810 C   0  0  0  0  0  0  0  0  0  0  0  0
   -2.8710   -3.3610   -1.0860 C   0  0  0  0  0  0  0  0  0  0  0  0
   -2.5720   -3.9560    0.3160 C   0  0  2  0  0  0  0  0  0  0  0  0
   -3.1840   -5.2310    0.4030 N   0  0  0  0  0  0  0  0  0  0  0  0
   -4.4560   -5.3420   -0.2640 C   0  0  0  0  0  0  0  0  0  0  0  0
   -3.2980   -3.0170    1.2140 C   0  0  0  0  0  0  0  0  0  0  0  0
   -2.6780   -1.5880    1.2190 C   0  0  0  0  0  0  0  0  0  0  0  0
    7.2310    0.2200   -0.6790 C   0  0  0  0  0  0  0  0  0  0  0  0
    8.1910    0.1510   -1.7340 N   0  0  0  0  0  0  0  0  0  0  0  0
    9.3610    0.0920   -1.2180 C   0  0  0  0  0  0  0  0  0  0  0  0
    9.2940    0.1150    0.2370 C   0  0  0  0  0  0  0  0  0  0  0  0
    8.0010    0.1920    0.5570 C   0  0  0  0  0  0  0  0  0  0  0  0
  1  2  2  0
  2  3  1  0
  2 38  1  0
  3  4  2  0
  3  5  1  0
  5  6  1  0
  5 34  2  0
  6  7  1  0
  7  8  1  0
  8  9  1  0
  9 10  1  0
 10 11  2  0
 10 27  1  0
 11 12  1  0
 12 13  1  0
 12 14  2  0
 14 15  1  0
 14 22  1  0
 15 16  1  0
 16 17  1  0
 17 18  1  0
 18 19  1  6
 18 20  1  0
 18 21  1  0
 22 23  2  0
 22 27  1  0
 23 24  1  0
 23 33  1  0
 24 25  2  0
 24 28  1  0
 25 26  1  0
 26 27  2  0
 28 29  1  0
 29 30  1  6
 29 32  1  0
 30 31  1  0
 32 33  1  0
 34 35  1  0
 34 38  1  0
 35 36  2  0
 36 37  1  0
 37 38  2  0
M  CHG  2  30   1  35   1
M  END
