
     RDKit          3D

 38 41  0  0  0  0  0  0  0  0999 V2000
    1.4260   -2.5710   -1.1660 C   0  0  0  0  0  0  0  0  0  0  0  0
    2.6900   -1.9980   -0.6110 C   0  0  2  0  0  0  0  0  0  0  0  0
    3.2910   -3.1150    0.2630 C   0  0  0  0  0  0  0  0  0  0  0  0
    2.4980   -0.8150    0.2620 C   0  0  0  0  0  0  0  0  0  0  0  0
    1.8730    0.3300   -0.3260 N   0  0  0  0  0  0  0  0  0  0  0  0
    0.4880    0.3010   -0.5060 C   0  0  0  0  0  0  0  0  0  0  0  0
   -0.3030    1.4100    0.2020 C   0  0  1  0  0  0  0  0  0  0  0  0
    0.0450    2.6680   -0.2240 O   0  0  0  0  0  0  0  0  0  0  0  0
   -1.7560    1.1430   -0.1470 C   0  0  2  0  0  0  0  0  0  0  0  0
   -2.6070    2.2580    0.3500 C   0  0  0  0  0  0  0  0  0  0  0  0
   -4.0430    2.0590    0.0610 C   0  0  0  0  0  0  0  0  0  0  0  0
   -4.8350    1.4040    0.9760 C   0  0  0  0  0  0  0  0  0  0  0  0
   -6.1730    1.1710    0.7700 C   0  0  0  0  0  0  0  0  0  0  0  0
   -6.7770    1.6030   -0.3990 C   0  0  0  0  0  0  0  0  0  0  0  0
   -5.9880    2.2600   -1.3210 C   0  0  0  0  0  0  0  0  0  0  0  0
   -4.6340    2.4860   -1.0940 C   0  0  0  0  0  0  0  0  0  0  0  0
   -2.1790   -0.1610    0.2870 N   0  0  0  0  0  0  0  0  0  0  0  0
   -2.3290   -1.2920   -0.5490 C   0  0  0  0  0  0  0  0  0  0  0  0
   -2.0650   -1.1590   -1.7940 O   0  0  0  0  0  0  0  0  0  0  0  0
   -2.7660   -2.5820   -0.0500 C   0  0  0  0  0  0  0  0  0  0  0  0
   -3.7310   -2.6710    0.9090 C   0  0  0  0  0  0  0  0  0  0  0  0
   -4.2030   -3.8360    1.4550 C   0  0  0  0  0  0  0  0  0  0  0  0
   -3.6400   -5.0050    0.9780 C   0  0  0  0  0  0  0  0  0  0  0  0
   -2.6540   -4.9520   -0.0020 C   0  0  0  0  0  0  0  0  0  0  0  0
   -2.1510   -6.1810   -0.4140 O   0  0  0  0  0  0  0  0  0  0  0  0
   -2.2080   -3.7550   -0.5240 C   0  0  0  0  0  0  0  0  0  0  0  0
    2.8360    1.2720   -1.3190 S   0  0  2  0  0  0  0  0  0  0  0  0
    2.0060    2.3920   -1.8880 O   0  0  0  0  0  0  0  0  0  0  0  0
    3.3110    0.5160   -2.5690 O   0  0  0  0  0  0  0  0  0  0  0  0
    4.2180    1.9860   -0.5140 C   0  0  0  0  0  0  0  0  0  0  0  0
    5.4520    1.3770   -0.4370 C   0  0  0  0  0  0  0  0  0  0  0  0
    6.5270    1.9530    0.1940 C   0  0  0  0  0  0  0  0  0  0  0  0
    6.4140    3.2120    0.7980 C   0  0  0  0  0  0  0  0  0  0  0  0
    7.3410    3.8970    1.4360 N   0  0  0  0  0  0  0  0  0  0  0  0
    7.2510    4.9490    1.9410 C   0  0  0  0  0  0  0  0  0  0  0  0
    5.4330    5.3220    1.5600 S   0  0  0  0  0  0  0  0  0  0  0  0
    5.1910    3.7980    0.7110 C   0  0  0  0  0  0  0  0  0  0  0  0
    4.1070    3.2300    0.0830 C   0  0  0  0  0  0  0  0  0  0  0  0
  2  1  1  1
  2  3  1  0
  2  4  1  0
  4  5  1  0
  5  6  1  0
 27  5  1  1
  6  7  1  0
  7  8  1  6
  7  9  1  0
  9 10  1  1
  9 17  1  0
 10 11  1  0
 11 12  2  0
 11 16  1  0
 12 13  1  0
 13 14  2  0
 14 15  1  0
 15 16  2  0
 17 18  1  0
 18 19  2  0
 18 20  1  0
 20 21  2  0
 20 26  1  0
 21 22  1  0
 22 23  2  0
 23 24  1  0
 24 25  1  0
 24 26  2  0
 27 28  2  0
 27 29  2  0
 27 30  1  0
 30 31  2  0
 30 38  1  0
 31 32  1  0
 32 33  2  0
 33 34  1  0
 33 37  1  0
 34 35  2  0
 35 36  1  0
 36 37  1  0
 37 38  2  0
M  END
