
     RDKit          3D

 37 42  0  0  0  0  0  0  0  0999 V2000
   -8.4280    2.2600    0.7440 Br  0  0  0  0  0  0  0  0  0  0  0  0
   -7.3560    3.5490   -0.1940 C   0  0  2  0  0  0  0  0  0  0  0  0
   -7.4700    3.3920   -1.6870 C   0  0  0  0  0  0  0  0  0  0  0  0
   -7.0440    2.0410   -2.1620 C   0  0  0  0  0  0  0  0  0  0  0  0
   -6.0130    1.4110   -1.3020 C   0  0  0  0  0  0  0  0  0  0  0  0
   -5.6000    0.1280   -1.6440 C   0  0  0  0  0  0  0  0  0  0  0  0
   -4.6470   -0.5270   -0.8970 C   0  0  0  0  0  0  0  0  0  0  0  0
   -4.0620    0.0640    0.2240 C   0  0  0  0  0  0  0  0  0  0  0  0
   -4.4950    1.3360    0.5340 C   0  0  0  0  0  0  0  0  0  0  0  0
   -5.4500    2.0140   -0.2010 C   0  0  0  0  0  0  0  0  0  0  0  0
   -5.8830    3.4020    0.1890 C   0  0  0  0  0  0  0  0  0  0  0  0
   -3.0270   -0.6620    1.0220 C   0  0  2  0  0  0  0  0  0  0  0  0
   -1.6890   -0.2630    0.6770 N   0  0  0  0  0  0  0  0  0  0  0  0
   -0.7790   -1.2960    0.3740 C   0  0  0  0  0  0  0  0  0  0  0  0
   -0.0540   -1.8750    1.5200 C   0  0  0  0  0  0  0  0  0  0  0  0
   -0.2050   -1.4780    2.8270 C   0  0  0  0  0  0  0  0  0  0  0  0
    0.5070   -2.0630    3.8490 C   0  0  0  0  0  0  0  0  0  0  0  0
    1.4110   -3.0860    3.5790 C   0  0  0  0  0  0  0  0  0  0  0  0
    1.5640   -3.4850    2.2700 C   0  0  0  0  0  0  0  0  0  0  0  0
    0.8430   -2.8900    1.2530 C   0  0  0  0  0  0  0  0  0  0  0  0
    1.1000   -3.4740   -0.4410 S   0  0  0  0  0  0  0  0  0  0  0  0
    2.4470   -2.5110   -1.2200 C   0  0  0  0  0  0  0  0  0  0  0  0
    3.7100   -2.8500   -0.4860 C   0  0  0  0  0  0  0  0  0  0  0  0
    4.9220   -2.1430   -1.0010 C   0  0  0  0  0  0  0  0  0  0  0  0
    4.8210   -0.6960   -0.9220 N   0  0  2  0  0  0  0  0  0  0  0  0
    5.0830   -0.1340   -2.2360 C   0  0  0  0  0  0  0  0  0  0  0  0
    4.5910    1.3080   -2.2000 C   0  0  0  0  0  0  0  0  0  0  0  0
    5.4950    2.0140   -1.2360 C   0  0  0  0  0  0  0  0  0  0  0  0
    5.7930    3.3530   -1.3530 C   0  0  0  0  0  0  0  0  0  0  0  0
    6.6320    3.9830   -0.4490 C   0  0  0  0  0  0  0  0  0  0  0  0
    7.1870    3.2680    0.5940 C   0  0  0  0  0  0  0  0  0  0  0  0
    6.8720    1.9290    0.6890 C   0  0  0  0  0  0  0  0  0  0  0  0
    6.0310    1.2930   -0.2160 C   0  0  0  0  0  0  0  0  0  0  0  0
    5.7820   -0.1510    0.0100 C   0  0  0  0  0  0  0  0  0  0  0  0
   -3.2820   -2.1150    1.0490 C   0  0  0  0  0  0  0  0  0  0  0  0
   -3.8260   -2.7310   -0.1940 C   0  0  0  0  0  0  0  0  0  0  0  0
   -4.1990   -1.8040   -1.1920 O   0  0  0  0  0  0  0  0  0  0  0  0
  2  1  1  1
  2  3  1  0
  2 11  1  0
  3  4  1  0
  4  5  1  0
  5  6  2  0
  5 10  1  0
  6  7  1  0
  7  8  2  0
  7 37  1  0
  8  9  1  0
  8 12  1  0
  9 10  2  0
 10 11  1  0
 12 13  1  6
 12 35  1  0
 13 14  1  0
 14 15  1  0
 15 16  2  0
 15 20  1  0
 16 17  1  0
 17 18  2  0
 18 19  1  0
 19 20  2  0
 20 21  1  0
 21 22  1  0
 22 23  1  0
 23 24  1  0
 25 24  1  6
 25 26  1  0
 25 34  1  0
 26 27  1  0
 27 28  1  0
 28 29  2  0
 28 33  1  0
 29 30  1  0
 30 31  2  0
 31 32  1  0
 32 33  2  0
 33 34  1  0
 35 36  1  0
 36 37  1  0
M  CHG  2  13   1  25   1
M  END
