
     RDKit          3D

 38 42  0  0  0  0  0  0  0  0999 V2000
   -5.3110    2.2620   -2.8430 C   0  0  0  0  0  0  0  0  0  0  0  0
   -5.2850    0.9510   -2.2000 N   0  0  0  0  0  0  0  0  0  0  0  0
   -5.1980    1.1760   -0.7780 C   0  0  0  0  0  0  0  0  0  0  0  0
   -4.9320   -0.0800    0.0110 C   0  0  2  0  0  0  0  0  0  0  0  0
   -3.7000   -0.8130   -0.3320 C   0  0  0  0  0  0  0  0  0  0  0  0
   -3.7700   -2.1370   -0.7820 C   0  0  0  0  0  0  0  0  0  0  0  0
   -2.6580   -2.8810   -1.0970 C   0  0  0  0  0  0  0  0  0  0  0  0
   -1.4200   -2.3010   -0.9670 C   0  0  0  0  0  0  0  0  0  0  0  0
   -1.2860   -1.0030   -0.5310 C   0  0  0  0  0  0  0  0  0  0  0  0
   -2.4230   -0.2860   -0.2230 C   0  0  0  0  0  0  0  0  0  0  0  0
   -2.1910    1.1260    0.1530 C   0  0  0  0  0  0  0  0  0  0  0  0
   -0.7940    1.4280    0.3650 O   0  0  0  0  0  0  0  0  0  0  0  0
   -0.0820    0.8330    1.3950 C   0  0  0  0  0  0  0  0  0  0  0  0
   -0.7180    0.0470    2.1030 O   0  0  0  0  0  0  0  0  0  0  0  0
    1.3220    1.0850    1.6650 C   0  0  0  0  0  0  0  0  0  0  0  0
    1.9010    0.4090    2.7190 C   0  0  0  0  0  0  0  0  0  0  0  0
    3.2020    0.5770    3.0620 C   0  0  0  0  0  0  0  0  0  0  0  0
    4.0090    1.4580    2.3450 C   0  0  0  0  0  0  0  0  0  0  0  0
    3.4430    2.1220    1.3120 C   0  0  0  0  0  0  0  0  0  0  0  0
    4.2400    3.0880    0.4970 C   0  0  0  0  0  0  0  0  0  0  0  0
    4.9560    2.2430   -0.8900 S   0  0  0  0  0  0  0  0  0  0  0  0
    6.3480    1.2120   -0.5150 C   0  0  0  0  0  0  0  0  0  0  0  0
    7.2850    1.3670    0.3780 C   0  0  0  0  0  0  0  0  0  0  0  0
    7.4580    2.8170    1.6180 Br  0  0  0  0  0  0  0  0  0  0  0  0
    8.2990    0.3050    0.3060 C   0  0  0  0  0  0  0  0  0  0  0  0
    9.3360    0.1510    1.0270 N   0  0  0  0  0  0  0  0  0  0  0  0
    7.8660   -0.5510   -0.7760 C   0  0  0  0  0  0  0  0  0  0  0  0
    8.4080   -1.7100   -1.3220 C   0  0  0  0  0  0  0  0  0  0  0  0
    7.7760   -2.3310   -2.3720 C   0  0  0  0  0  0  0  0  0  0  0  0
    6.6110   -1.7940   -2.8670 C   0  0  0  0  0  0  0  0  0  0  0  0
    6.0790   -0.6400   -2.3170 C   0  0  0  0  0  0  0  0  0  0  0  0
    6.7150   -0.0210   -1.2680 C   0  0  0  0  0  0  0  0  0  0  0  0
    2.0990    1.9430    0.9630 C   0  0  0  0  0  0  0  0  0  0  0  0
   -6.0960   -1.0320   -0.2890 C   0  0  0  0  0  0  0  0  0  0  0  0
   -6.4540   -1.9900    0.7650 C   0  0  0  0  0  0  0  0  0  0  0  0
   -5.4740   -2.2770    1.8570 C   0  0  0  0  0  0  0  0  0  0  0  0
   -4.6160   -1.0790    2.2010 C   0  0  0  0  0  0  0  0  0  0  0  0
   -5.1430    0.1530    1.4950 C   0  0  0  0  0  0  0  0  0  0  0  0
  1  2  1  0
  2  3  1  0
  4  3  1  6
  4  5  1  0
  4 34  1  0
  4 38  1  0
  5  6  2  0
  5 10  1  0
  6  7  1  0
  7  8  2  0
  8  9  1  0
  9 10  2  0
 10 11  1  0
 11 12  1  0
 12 13  1  0
 13 14  2  0
 13 15  1  0
 15 16  2  0
 15 33  1  0
 16 17  1  0
 17 18  2  0
 18 19  1  0
 19 20  1  0
 19 33  2  0
 20 21  1  0
 21 22  1  0
 22 23  2  0
 22 32  1  0
 23 24  1  0
 23 25  1  0
 25 26  2  0
 25 27  1  0
 27 28  2  0
 27 32  1  0
 28 29  1  0
 29 30  2  0
 30 31  1  0
 31 32  2  0
 34 35  1  0
 35 36  1  0
 36 37  1  0
 37 38  1  0
M  CHG  2   2   1  26   1
M  END
