
     RDKit          3D

 38 42  0  0  0  0  0  0  0  0999 V2000
   -4.5620    3.8460   -1.9850 C   0  0  0  0  0  0  0  0  0  0  0  0
   -5.4460    3.2540   -0.9500 C   0  0  0  0  0  0  0  0  0  0  0  0
   -4.8790    2.0980   -0.2250 C   0  0  0  0  0  0  0  0  0  0  0  0
   -5.0870    0.8100   -0.6700 C   0  0  0  0  0  0  0  0  0  0  0  0
   -4.6180   -0.2760    0.0170 C   0  0  0  0  0  0  0  0  0  0  0  0
   -3.8950   -0.1500    1.2190 C   0  0  0  0  0  0  0  0  0  0  0  0
   -3.5290   -1.4130    1.9060 C   0  0  2  0  0  0  0  0  0  0  0  0
   -2.9200   -2.4280    1.0210 C   0  0  0  0  0  0  0  0  0  0  0  0
   -3.5000   -3.5690    1.0290 O   0  0  0  0  0  0  0  0  0  0  0  0
   -1.7600   -2.2770    0.1650 C   0  0  0  0  0  0  0  0  0  0  0  0
   -1.0150   -1.1950    0.2410 C   0  0  0  0  0  0  0  0  0  0  0  0
    0.1440   -0.9720   -0.5930 C   0  0  0  0  0  0  0  0  0  0  0  0
    1.0200   -0.0350   -0.5930 C   0  0  0  0  0  0  0  0  0  0  0  0
    1.1570    1.1460    0.2490 C   0  0  0  0  0  0  0  0  0  0  0  0
    2.1830    1.9450    0.1180 C   0  0  0  0  0  0  0  0  0  0  0  0
    3.4970    1.7020   -1.0520 S   0  0  0  0  0  0  0  0  0  0  0  0
    4.4940    3.0430   -0.4250 C   0  0  0  0  0  0  0  0  0  0  0  0
    5.8780    3.2580   -0.9750 C   0  0  0  0  0  0  0  0  0  0  0  0
    6.6110    1.9890   -0.6100 C   0  0  0  0  0  0  0  0  0  0  0  0
    7.2110    1.9620    0.6320 C   0  0  0  0  0  0  0  0  0  0  0  0
    7.8570    0.8230    1.0350 C   0  0  0  0  0  0  0  0  0  0  0  0
    7.9260   -0.2840    0.2490 N   0  0  0  0  0  0  0  0  0  0  0  0
    7.3410   -0.2460   -0.9560 C   0  0  0  0  0  0  0  0  0  0  0  0
    6.6680    0.8880   -1.4210 C   0  0  0  0  0  0  0  0  0  0  0  0
    3.8510    3.6000    0.5100 N   0  0  0  0  0  0  0  0  0  0  0  0
    2.5890    3.0880    0.8670 C   0  0  0  0  0  0  0  0  0  0  0  0
    1.8820    3.6080    1.7780 O   0  0  0  0  0  0  0  0  0  0  0  0
   -1.3980   -3.4600   -0.6310 C   0  0  0  0  0  0  0  0  0  0  0  0
   -2.3980   -4.2040   -1.2150 C   0  0  0  0  0  0  0  0  0  0  0  0
   -2.1410   -5.3600   -1.8800 C   0  0  0  0  0  0  0  0  0  0  0  0
   -0.8300   -5.7750   -1.9600 C   0  0  0  0  0  0  0  0  0  0  0  0
   -0.4910   -7.3970   -2.9100 Br  0  0  0  0  0  0  0  0  0  0  0  0
    0.1920   -5.0540   -1.3860 C   0  0  0  0  0  0  0  0  0  0  0  0
   -0.1080   -3.8730   -0.7070 C   0  0  0  0  0  0  0  0  0  0  0  0
   -4.3300   -1.9470    3.0230 C   0  0  0  0  0  0  0  0  0  0  0  0
   -2.9830   -1.2990    3.2970 C   0  0  0  0  0  0  0  0  0  0  0  0
   -3.6810    1.1130    1.6620 C   0  0  0  0  0  0  0  0  0  0  0  0
   -4.1530    2.2370    0.9750 C   0  0  0  0  0  0  0  0  0  0  0  0
  1  2  1  0
  2  3  1  0
  3  4  2  0
  3 38  1  0
  4  5  1  0
  5  6  2  0
  6  7  1  0
  6 37  1  0
  7  8  1  6
  7 35  1  0
  7 36  1  0
  8  9  2  0
  8 10  1  0
 10 11  2  3
 10 28  1  0
 11 12  1  0
 12 13  2  3
 13 14  1  0
 14 15  2  3
 15 16  1  0
 15 26  1  0
 16 17  1  0
 17 18  1  0
 17 25  2  0
 18 19  1  0
 19 20  2  0
 19 24  1  0
 20 21  1  0
 21 22  2  0
 22 23  1  0
 23 24  2  0
 25 26  1  0
 26 27  2  0
 28 29  2  0
 28 34  1  0
 29 30  1  0
 30 31  2  0
 31 32  1  0
 31 33  1  0
 33 34  2  0
 35 36  1  0
 37 38  2  0
M  CHG  2  22   1  25   1
M  END
