
     RDKit          3D

 38 42  0  0  0  0  0  0  0  0999 V2000
   12.2290    1.0530    1.4080 C   0  0  0  0  0  0  0  0  0  0  0  0
   11.3000    0.3760    0.4500 C   0  0  0  0  0  0  0  0  0  0  0  0
   11.1660    0.7990   -0.8370 C   0  0  0  0  0  0  0  0  0  0  0  0
   10.2950    0.1520   -1.7090 C   0  0  0  0  0  0  0  0  0  0  0  0
    9.5600   -0.9190   -1.2830 C   0  0  0  0  0  0  0  0  0  0  0  0
    8.4550   -1.7360   -2.3940 S   0  0  0  0  0  0  0  0  0  0  0  0
    6.8280   -0.9040   -2.2460 C   0  0  0  0  0  0  0  0  0  0  0  0
    6.3090   -1.1890   -0.8310 C   0  0  0  0  0  0  0  0  0  0  0  0
    4.9860   -0.5410   -0.6360 C   0  0  0  0  0  0  0  0  0  0  0  0
    3.8220   -1.2130   -0.9420 C   0  0  0  0  0  0  0  0  0  0  0  0
    2.5620   -0.6330   -0.7730 C   0  0  0  0  0  0  0  0  0  0  0  0
    2.4590    0.6500   -0.2860 C   0  0  0  0  0  0  0  0  0  0  0  0
    1.1560    1.3050   -0.0920 C   0  0  0  0  0  0  0  0  0  0  0  0
    1.1090    2.4720    0.3550 O   0  0  0  0  0  0  0  0  0  0  0  0
   -0.0960    0.6060   -0.4180 C   0  0  0  0  0  0  0  0  0  0  0  0
   -1.2170    1.4630   -0.1400 N   0  0  2  0  0  0  0  0  0  0  0  0
   -1.4390    1.4980    1.2780 C   0  0  0  0  0  0  0  0  0  0  0  0
   -2.8740    1.8420    1.6220 C   0  0  0  0  0  0  0  0  0  0  0  0
   -3.7590    0.6920    1.1680 C   0  0  1  0  0  0  0  0  0  0  0  0
   -5.1540    1.1280    1.2420 C   0  0  0  0  0  0  0  0  0  0  0  0
   -5.4320    2.3230    1.5970 O   0  0  0  0  0  0  0  0  0  0  0  0
   -6.3080    0.2670    0.9240 C   0  0  0  0  0  0  0  0  0  0  0  0
   -6.1490   -1.0540    0.5640 C   0  0  0  0  0  0  0  0  0  0  0  0
   -7.2460   -1.8690    0.2550 C   0  0  0  0  0  0  0  0  0  0  0  0
   -8.5080   -1.3620    0.3050 C   0  0  0  0  0  0  0  0  0  0  0  0
   -8.6920   -0.0440    0.6630 C   0  0  0  0  0  0  0  0  0  0  0  0
   -7.5930    0.7650    0.9710 C   0  0  0  0  0  0  0  0  0  0  0  0
  -10.0710    0.4810    0.7140 C   0  0  0  0  0  0  0  0  0  0  0  0
  -11.0690   -0.2580   -0.0980 C   0  0  0  0  0  0  0  0  0  0  0  0
  -10.5050   -1.3100   -0.9150 N   0  0  0  0  0  0  0  0  0  0  0  0
   -9.7120   -2.1650   -0.0140 C   0  0  0  0  0  0  0  0  0  0  0  0
   -3.3630    0.2290   -0.2190 C   0  0  0  0  0  0  0  0  0  0  0  0
   -2.3880    1.1570   -0.9010 C   0  0  0  0  0  0  0  0  0  0  0  0
    3.6230    1.3250    0.0210 C   0  0  0  0  0  0  0  0  0  0  0  0
    4.8650    0.7480   -0.1480 C   0  0  0  0  0  0  0  0  0  0  0  0
    9.6870   -1.3510    0.0090 C   0  0  0  0  0  0  0  0  0  0  0  0
   10.5590   -0.7150    0.9050 C   0  0  0  0  0  0  0  0  0  0  0  0
   10.7570   -1.2890    2.6930 Br  0  0  0  0  0  0  0  0  0  0  0  0
  1  2  1  0
  2  3  2  0
  2 37  1  0
  3  4  1  0
  4  5  2  0
  5  6  1  0
  5 36  1  0
  6  7  1  0
  7  8  1  0
  8  9  1  0
  9 10  2  0
  9 35  1  0
 10 11  1  0
 11 12  2  0
 12 13  1  0
 12 34  1  0
 13 14  2  0
 13 15  1  0
 16 15  1  1
 16 17  1  0
 16 33  1  0
 17 18  1  0
 18 19  1  0
 19 20  1  6
 19 32  1  0
 20 21  2  0
 20 22  1  0
 22 23  2  0
 22 27  1  0
 23 24  1  0
 24 25  2  0
 25 26  1  0
 25 31  1  0
 26 27  2  0
 26 28  1  0
 28 29  1  0
 29 30  1  0
 30 31  1  0
 32 33  1  0
 34 35  2  0
 36 37  2  0
 37 38  1  0
M  CHG  2  16   1  30   1
M  END
