
     RDKit          3D

 37 40  0  0  0  0  0  0  0  0999 V2000
   10.5280   -0.3350    0.1200 C   0  0  0  0  0  0  0  0  0  0  0  0
    9.4400    0.1640   -0.3840 C   0  0  0  0  0  0  0  0  0  0  0  0
    9.5120    1.4180   -1.1980 C   0  0  0  0  0  0  0  0  0  0  0  0
    8.6110    2.3380   -0.4710 N   0  0  0  0  0  0  0  0  0  0  0  0
    7.2590    1.9110   -0.2630 C   0  0  0  0  0  0  0  0  0  0  0  0
    6.2530    2.8510   -0.2050 C   0  0  0  0  0  0  0  0  0  0  0  0
    4.9460    2.3990   -0.0010 C   0  0  0  0  0  0  0  0  0  0  0  0
    4.6400    1.0660    0.1410 C   0  0  0  0  0  0  0  0  0  0  0  0
    3.2480    0.6510    0.3530 C   0  0  0  0  0  0  0  0  0  0  0  0
    2.9100   -0.6920    0.4990 C   0  0  0  0  0  0  0  0  0  0  0  0
    1.5890   -1.0860    0.7000 C   0  0  0  0  0  0  0  0  0  0  0  0
    1.2800   -2.4270    0.8420 O   0  0  0  0  0  0  0  0  0  0  0  0
   -0.0700   -2.7980    1.0450 C   0  0  0  0  0  0  0  0  0  0  0  0
    0.6500   -0.1330    0.7480 N   0  0  0  0  0  0  0  0  0  0  0  0
    0.9410    1.1670    0.6110 C   0  0  0  0  0  0  0  0  0  0  0  0
   -0.1210    2.1790    0.6710 C   0  0  0  0  0  0  0  0  0  0  0  0
   -1.4270    1.6220    0.8740 N   0  0  0  0  0  0  0  0  0  0  0  0
   -2.0470    0.7030   -0.0070 C   0  0  0  0  0  0  0  0  0  0  0  0
   -1.4270    0.3460   -1.0300 O   0  0  0  0  0  0  0  0  0  0  0  0
   -3.4050    0.1800    0.2860 C   0  0  0  0  0  0  0  0  0  0  0  0
   -4.0180    0.5450    1.3160 O   0  0  0  0  0  0  0  0  0  0  0  0
   -4.0340   -0.7390   -0.5880 N   0  0  0  0  0  0  0  0  0  0  0  0
   -5.3300   -1.3160   -0.4380 C   0  0  0  0  0  0  0  0  0  0  0  0
   -6.4950   -0.3990   -0.4360 C   0  0  1  0  0  0  0  0  0  0  0  0
   -7.7340   -1.2630   -0.1450 C   0  0  0  0  0  0  0  0  0  0  0  0
   -8.9300   -0.4140   -0.4780 C   0  0  2  0  0  0  0  0  0  0  0  0
  -10.0690   -0.7720    0.4540 C   0  0  0  0  0  0  0  0  0  0  0  0
   -9.3740   -0.8120   -1.8850 C   0  0  0  0  0  0  0  0  0  0  0  0
   -8.5750    1.0370   -0.3920 C   0  0  0  0  0  0  0  0  0  0  0  0
   -7.5410    1.3350    0.6700 C   0  0  0  0  0  0  0  0  0  0  0  0
   -6.4420    0.5170    0.5960 O   0  0  0  0  0  0  0  0  0  0  0  0
    2.2260    1.5180    0.4190 N   0  0  0  0  0  0  0  0  0  0  0  0
    5.6810    0.1540    0.0760 C   0  0  0  0  0  0  0  0  0  0  0  0
    6.9780    0.5620   -0.1230 C   0  0  0  0  0  0  0  0  0  0  0  0
    8.1060   -0.3960   -0.1880 C   0  0  0  0  0  0  0  0  0  0  0  0
    7.9180   -1.6820   -0.1400 C   0  0  0  0  0  0  0  0  0  0  0  0
    8.9640   -2.7100   -0.2780 C   0  0  0  0  0  0  0  0  0  0  0  0
  1  2  2  0
  2  3  1  0
  2 35  1  0
  3  4  1  0
  4  5  1  0
  5  6  2  0
  5 34  1  0
  6  7  1  0
  7  8  2  0
  8  9  1  0
  8 33  1  0
  9 10  2  0
  9 32  1  0
 10 11  1  0
 11 12  1  0
 11 14  2  0
 12 13  1  0
 14 15  1  0
 15 16  1  0
 15 32  2  0
 16 17  1  0
 17 18  1  0
 18 19  2  0
 18 20  1  0
 20 21  2  0
 20 22  1  0
 22 23  1  0
 24 23  1  1
 24 25  1  0
 24 31  1  0
 25 26  1  0
 26 27  1  1
 26 28  1  0
 26 29  1  0
 29 30  1  0
 30 31  1  0
 33 34  2  0
 34 35  1  0
 35 36  2  3
 36 37  1  0
M  CHG  1  32   1
M  END
