
     RDKit          3D

 37 40  0  0  0  0  0  0  0  0999 V2000
   -2.4120    5.8970   -0.8280 C   0  0  0  0  0  0  0  0  0  0  0  0
   -2.1590    4.9030    0.3140 C   0  0  0  0  0  0  0  0  0  0  0  0
   -1.3770    3.7330   -0.1970 C   0  0  0  0  0  0  0  0  0  0  0  0
   -1.0720    2.7100    0.9140 C   0  0  1  0  0  0  0  0  0  0  0  0
   -2.3450    2.2180    1.4550 C   0  0  0  0  0  0  0  0  0  0  0  0
   -3.0180    2.9780    2.2000 O   0  0  0  0  0  0  0  0  0  0  0  0
   -2.8240    0.8930    1.1480 C   0  0  0  0  0  0  0  0  0  0  0  0
   -4.2400    0.5640    1.4740 C   0  0  0  0  0  0  0  0  0  0  0  0
   -4.5050    0.7040    2.8860 N   0  0  0  0  0  0  0  0  0  0  0  0
   -2.0070    0.0390    0.6010 C   0  0  0  0  0  0  0  0  0  0  0  0
   -2.5380   -1.2760    0.3270 N   0  0  0  0  0  0  0  0  0  0  0  0
   -3.1680   -1.6210   -0.8000 N   0  0  0  0  0  0  0  0  0  0  0  0
   -3.5410   -2.9100   -0.7500 C   0  0  0  0  0  0  0  0  0  0  0  0
   -4.2610   -3.7390   -1.7510 C   0  0  0  0  0  0  0  0  0  0  0  0
   -3.1060   -3.3660    0.4850 C   0  0  0  0  0  0  0  0  0  0  0  0
   -3.2720   -4.7130    1.0170 C   0  0  0  0  0  0  0  0  0  0  0  0
   -3.9310   -5.7180    0.2610 N   0  0  0  0  0  0  0  0  0  0  0  0
   -2.8390   -5.0270    2.1530 O   0  0  0  0  0  0  0  0  0  0  0  0
   -2.4760   -2.3320    1.1570 C   0  0  0  0  0  0  0  0  0  0  0  0
   -1.8550   -2.3510    2.5030 C   0  0  0  0  0  0  0  0  0  0  0  0
   -0.6290    0.3880    0.1660 C   0  0  0  0  0  0  0  0  0  0  0  0
    0.1480   -0.6460   -0.4460 C   0  0  0  0  0  0  0  0  0  0  0  0
   -0.4370   -1.8010   -0.6360 O   0  0  0  0  0  0  0  0  0  0  0  0
    1.5040   -0.6770   -0.9150 C   0  0  0  0  0  0  0  0  0  0  0  0
    2.5950   -0.5710   -0.0880 C   0  0  0  0  0  0  0  0  0  0  0  0
    3.8600   -0.6930   -0.5720 C   0  0  0  0  0  0  0  0  0  0  0  0
    4.0230   -0.9260   -1.9170 C   0  0  0  0  0  0  0  0  0  0  0  0
    2.9640   -1.0320   -2.7370 N   0  0  0  0  0  0  0  0  0  0  0  0
    1.7210   -0.9110   -2.2520 C   0  0  0  0  0  0  0  0  0  0  0  0
    0.7560   -1.0200   -3.0720 O   0  0  0  0  0  0  0  0  0  0  0  0
    5.3690   -1.0620   -2.4710 C   0  0  0  0  0  0  0  0  0  0  0  0
    6.4000   -0.1780   -1.8300 C   0  0  0  0  0  0  0  0  0  0  0  0
    6.0620    0.2750   -0.4530 C   0  0  2  0  0  0  0  0  0  0  0  0
    7.3720    0.3580    0.3360 C   0  0  0  0  0  0  0  0  0  0  0  0
    5.0820   -0.5880    0.2670 C   0  0  0  0  0  0  0  0  0  0  0  0
   -0.2080    1.6270    0.3230 C   0  0  0  0  0  0  0  0  0  0  0  0
    1.1530    2.0670   -0.0740 C   0  0  0  0  0  0  0  0  0  0  0  0
  1  2  1  0
  2  3  1  0
  4  3  1  6
  4  5  1  0
  4 36  1  0
  5  6  2  0
  5  7  1  0
  7  8  1  0
  7 10  2  0
  8  9  1  0
 10 11  1  0
 10 21  1  0
 11 12  1  0
 11 19  1  0
 12 13  2  0
 13 14  1  0
 13 15  1  0
 15 16  1  0
 15 19  2  0
 16 17  1  0
 16 18  2  0
 19 20  1  0
 21 22  1  0
 21 36  2  0
 22 23  2  0
 22 24  1  0
 24 25  2  0
 24 29  1  0
 25 26  1  0
 26 27  2  0
 26 35  1  0
 27 28  1  0
 27 31  1  0
 28 29  1  0
 29 30  2  0
 31 32  1  0
 32 33  1  0
 33 34  1  1
 33 35  1  0
 36 37  1  0
M  CHG  1   9   1
M  END
