
     RDKit          3D

 37 41  0  0  0  0  0  0  0  0999 V2000
    0.3900   -2.5140    1.8670 C   0  0  0  0  0  0  0  0  0  0  0  0
    1.1420   -1.1850    1.7190 C   0  0  0  0  0  0  0  0  0  0  0  0
    2.5100   -1.4200    1.2670 C   0  0  0  0  0  0  0  0  0  0  0  0
    2.9820   -0.9440    0.1390 C   0  0  0  0  0  0  0  0  0  0  0  0
    1.9900   -0.1590   -0.5780 C   0  0  0  0  0  0  0  0  0  0  0  0
    2.0160    0.1640   -1.8390 C   0  0  0  0  0  0  0  0  0  0  0  0
    1.0630    0.9310   -2.5730 C   0  0  0  0  0  0  0  0  0  0  0  0
    1.2380    1.1240   -3.8360 O   0  0  0  0  0  0  0  0  0  0  0  0
   -0.1320    1.5610   -2.0570 N   0  0  0  0  0  0  0  0  0  0  0  0
   -0.9320    2.3360   -2.9670 C   0  0  0  0  0  0  0  0  0  0  0  0
   -0.5380    2.4640   -4.2570 N   0  0  0  0  0  0  0  0  0  0  0  0
   -1.1630    3.1950   -5.1750 C   0  0  0  0  0  0  0  0  0  0  0  0
   -2.2860    3.8650   -4.7760 C   0  0  0  0  0  0  0  0  0  0  0  0
   -2.7690    3.8030   -3.4980 C   0  0  0  0  0  0  0  0  0  0  0  0
   -3.7890    4.3490   -2.8380 N   0  0  0  0  0  0  0  0  0  0  0  0
   -3.7850    3.9600   -1.5700 C   0  0  0  0  0  0  0  0  0  0  0  0
   -2.6830    3.0920   -1.3660 C   0  0  0  0  0  0  0  0  0  0  0  0
   -2.4560    2.3960   -0.0970 C   0  0  0  0  0  0  0  0  0  0  0  0
   -2.0280    2.9920    0.9070 O   0  0  0  0  0  0  0  0  0  0  0  0
   -2.7400    1.0050    0.0320 N   0  0  0  0  0  0  0  0  0  0  0  0
   -2.6220    0.2130    1.1850 C   0  0  0  0  0  0  0  0  0  0  0  0
   -2.1500    0.5760    2.4090 C   0  0  0  0  0  0  0  0  0  0  0  0
   -2.1180   -0.2800    3.5170 C   0  0  0  0  0  0  0  0  0  0  0  0
   -2.5790   -1.5750    3.4080 C   0  0  0  0  0  0  0  0  0  0  0  0
   -2.5500   -2.5070    4.5680 C   0  0  0  0  0  0  0  0  0  0  0  0
   -3.0610   -1.9690    2.1780 C   0  0  0  0  0  0  0  0  0  0  0  0
   -3.0870   -1.1160    1.0950 C   0  0  0  0  0  0  0  0  0  0  0  0
   -3.5730   -1.5600   -0.0920 F   0  0  0  0  0  0  0  0  0  0  0  0
   -2.0530    3.0000   -2.5640 C   0  0  0  0  0  0  0  0  0  0  0  0
    3.2250   -0.2620   -2.5770 C   0  0  0  0  0  0  0  0  0  0  0  0
    3.3490   -0.0010   -3.8040 O   0  0  0  0  0  0  0  0  0  0  0  0
    4.2570   -0.9650   -1.9300 N   0  0  0  0  0  0  0  0  0  0  0  0
    4.3340   -1.1210   -0.4920 C   0  0  2  0  0  0  0  0  0  0  0  0
    4.8940   -2.5240   -0.2560 C   0  0  0  0  0  0  0  0  0  0  0  0
    5.4050   -2.6270    1.1210 C   0  0  0  0  0  0  0  0  0  0  0  0
    4.6840   -2.4810    2.2070 N   0  0  0  0  0  0  0  0  0  0  0  0
    3.3230   -2.2040    2.2140 N   0  0  0  0  0  0  0  0  0  0  0  0
  1  2  1  0
  2  3  1  0
  3  4  2  0
  3 37  1  0
  4  5  1  0
  4 33  1  0
  5  6  2  0
  6  7  1  0
  6 30  1  0
  7  8  2  0
  7  9  1  0
  9 10  1  0
 10 11  2  0
 10 29  1  0
 11 12  1  0
 12 13  2  0
 13 14  1  0
 14 15  1  0
 14 29  2  0
 15 16  1  0
 16 17  2  0
 17 18  1  0
 17 29  1  0
 18 19  2  0
 18 20  1  0
 20 21  1  0
 21 22  2  0
 21 27  1  0
 22 23  1  0
 23 24  2  0
 24 25  1  0
 24 26  1  0
 26 27  2  0
 27 28  1  0
 30 31  2  0
 30 32  1  0
 32 33  1  0
 33 34  1  6
 34 35  1  0
 35 36  2  0
 36 37  1  0
M  END
