
     RDKit          3D

 37 41  0  0  0  0  0  0  0  0999 V2000
   -2.0980    2.0620    1.3540 O   0  0  0  0  0  0  0  0  0  0  0  0
   -1.9650    1.0160    0.6840 C   0  0  0  0  0  0  0  0  0  0  0  0
   -3.1850    0.2540    0.5330 N   0  0  0  0  0  0  0  0  0  0  0  0
   -4.4200    0.7000    1.1210 C   0  0  0  0  0  0  0  0  0  0  0  0
   -5.5990   -0.1690    0.8830 C   0  0  2  0  0  0  0  0  0  0  0  0
   -5.9450   -0.3330   -0.5590 C   0  0  2  0  0  0  0  0  0  0  0  0
   -7.1720   -1.1890   -0.7580 C   0  0  0  0  0  0  0  0  0  0  0  0
   -6.9710   -1.7210   -2.1620 C   0  0  0  0  0  0  0  0  0  0  0  0
   -5.6660   -1.0550   -2.5720 C   0  0  0  0  0  0  0  0  0  0  0  0
   -5.0000   -0.9440   -1.3400 O   0  0  0  0  0  0  0  0  0  0  0  0
   -6.8140    0.4700    1.5510 C   0  0  0  0  0  0  0  0  0  0  0  0
   -6.5150    0.8620    2.9780 C   0  0  0  0  0  0  0  0  0  0  0  0
   -5.8200   -0.2430    3.6080 N   0  0  0  0  0  0  0  0  0  0  0  0
   -6.1120   -1.4610    2.8920 C   0  0  0  0  0  0  0  0  0  0  0  0
   -5.3630   -1.4930    1.5800 C   0  0  0  0  0  0  0  0  0  0  0  0
   -0.7540    0.6080    0.1250 N   0  0  0  0  0  0  0  0  0  0  0  0
    0.4690    1.3090    0.2230 C   0  0  0  0  0  0  0  0  0  0  0  0
    0.5240    2.6040    0.6450 C   0  0  0  0  0  0  0  0  0  0  0  0
    1.7420    3.2690    0.7510 C   0  0  0  0  0  0  0  0  0  0  0  0
    2.8920    2.6050    0.4220 C   0  0  0  0  0  0  0  0  0  0  0  0
    2.9010    1.2760   -0.0180 C   0  0  0  0  0  0  0  0  0  0  0  0
    4.1420    0.7040   -0.3250 N   0  0  0  0  0  0  0  0  0  0  0  0
    4.4020   -0.6170   -0.7650 C   0  0  0  0  0  0  0  0  0  0  0  0
    3.4550   -1.3960   -0.9110 O   0  0  0  0  0  0  0  0  0  0  0  0
    5.7800   -1.0700   -1.0500 C   0  0  0  0  0  0  0  0  0  0  0  0
    6.0690   -2.3100   -1.4670 N   0  0  0  0  0  0  0  0  0  0  0  0
    7.3780   -2.4260   -1.6400 N   0  0  0  0  0  0  0  0  0  0  0  0
    7.9430   -1.2360   -1.3270 C   0  0  0  0  0  0  0  0  0  0  0  0
    9.3490   -0.9060   -1.3710 C   0  0  0  0  0  0  0  0  0  0  0  0
   10.2770   -1.8440   -1.7610 C   0  0  0  0  0  0  0  0  0  0  0  0
   11.6100   -1.4970   -1.7920 C   0  0  0  0  0  0  0  0  0  0  0  0
   12.0550   -0.2440   -1.4470 C   0  0  0  0  0  0  0  0  0  0  0  0
   13.3840    0.0350   -1.4990 F   0  0  0  0  0  0  0  0  0  0  0  0
   11.1100    0.6880   -1.0570 C   0  0  0  0  0  0  0  0  0  0  0  0
    9.7870    0.3400   -1.0280 C   0  0  0  0  0  0  0  0  0  0  0  0
    6.9340   -0.4170   -0.9660 N   0  0  0  0  0  0  0  0  0  0  0  0
    1.6700    0.6830   -0.0980 C   0  0  0  0  0  0  0  0  0  0  0  0
  1  2  2  0
  2  3  1  0
  2 16  1  0
  3  4  1  0
  5  4  1  6
  5  6  1  0
  5 11  1  0
  5 15  1  0
  6  7  1  1
  6 10  1  0
  7  8  1  0
  8  9  1  0
  9 10  1  0
 11 12  1  0
 12 13  1  0
 13 14  1  0
 14 15  1  0
 16 17  1  0
 17 18  2  0
 17 37  1  0
 18 19  1  0
 19 20  2  0
 20 21  1  0
 21 22  1  0
 21 37  2  0
 22 23  1  0
 23 24  2  0
 23 25  1  0
 25 26  2  0
 25 36  1  0
 26 27  1  0
 27 28  1  0
 28 29  1  0
 28 36  2  0
 29 30  2  0
 29 35  1  0
 30 31  1  0
 31 32  2  0
 32 33  1  0
 32 34  1  0
 34 35  2  0
M  END
