
     RDKit          3D

 37 41  0  0  0  0  0  0  0  0999 V2000
   -9.1270   -0.7320    2.0240 C   0  0  0  0  0  0  0  0  0  0  0  0
   -8.1960   -0.7180    0.8710 C   0  0  0  0  0  0  0  0  0  0  0  0
   -8.3700   -1.5920   -0.1760 C   0  0  0  0  0  0  0  0  0  0  0  0
   -7.4870   -1.5550   -1.2360 C   0  0  0  0  0  0  0  0  0  0  0  0
   -6.4430   -0.6470   -1.2370 C   0  0  0  0  0  0  0  0  0  0  0  0
   -6.2540    0.2260   -0.2110 C   0  0  0  0  0  0  0  0  0  0  0  0
   -5.1600    1.2170   -0.1820 C   0  0  1  0  0  0  0  0  0  0  0  0
   -4.4160    1.0970    1.0500 N   0  0  0  0  0  0  0  0  0  0  0  0
   -3.1900    0.8300    0.7980 C   0  0  0  0  0  0  0  0  0  0  0  0
   -2.2120    0.6500    1.8070 N   0  0  0  0  0  0  0  0  0  0  0  0
   -2.9520    0.7740   -0.6170 C   0  0  0  0  0  0  0  0  0  0  0  0
   -4.1530    1.0350   -1.2310 C   0  0  0  0  0  0  0  0  0  0  0  0
   -4.2000    1.0730   -2.6130 C   0  0  0  0  0  0  0  0  0  0  0  0
   -3.0450    0.8470   -3.3120 C   0  0  0  0  0  0  0  0  0  0  0  0
   -1.8480    0.5860   -2.6810 C   0  0  0  0  0  0  0  0  0  0  0  0
   -0.7570    0.3740   -3.4470 F   0  0  0  0  0  0  0  0  0  0  0  0
   -1.7820    0.5450   -1.3070 C   0  0  0  0  0  0  0  0  0  0  0  0
   -0.5470    0.2770   -0.6570 N   0  0  0  0  0  0  0  0  0  0  0  0
    0.4020    1.2470   -0.2800 C   0  0  0  0  0  0  0  0  0  0  0  0
    0.1480    2.4520   -0.5340 O   0  0  0  0  0  0  0  0  0  0  0  0
    1.6590    0.9100    0.3920 C   0  0  0  0  0  0  0  0  0  0  0  0
    2.0260   -0.3820    0.7190 C   0  0  0  0  0  0  0  0  0  0  0  0
    3.2780   -0.3260    1.3450 C   0  0  0  0  0  0  0  0  0  0  0  0
    4.0580   -1.4920    1.8670 C   0  0  0  0  0  0  0  0  0  0  0  0
    5.0380   -1.8270    0.8330 N   0  0  0  0  0  0  0  0  0  0  0  0
    6.1850   -0.9960    0.7110 C   0  0  0  0  0  0  0  0  0  0  0  0
    6.3340    0.0010    1.4870 O   0  0  0  0  0  0  0  0  0  0  0  0
    7.2140   -1.1990   -0.2420 N   0  0  0  0  0  0  0  0  0  0  0  0
    8.3530   -0.3560   -0.3400 C   0  0  0  0  0  0  0  0  0  0  0  0
    9.3230   -0.5990   -1.2880 C   0  0  0  0  0  0  0  0  0  0  0  0
   10.4550    0.2070   -1.4090 C   0  0  0  0  0  0  0  0  0  0  0  0
   10.6250    1.2830   -0.5610 C   0  0  0  0  0  0  0  0  0  0  0  0
    9.6380    1.5050    0.3820 C   0  0  0  0  0  0  0  0  0  0  0  0
    8.5490    0.6990    0.4690 N   0  0  0  0  0  0  0  0  0  0  0  0
    3.5830    0.9820    1.3550 N   0  0  0  0  0  0  0  0  0  0  0  0
    2.6280    1.6730    0.7960 O   0  0  0  0  0  0  0  0  0  0  0  0
   -7.1560    0.1800    0.8610 C   0  0  0  0  0  0  0  0  0  0  0  0
  1  2  1  0
  2  3  2  0
  2 37  1  0
  3  4  1  0
  4  5  2  0
  5  6  1  0
  7  6  1  1
  6 37  2  0
  7  8  1  0
  7 12  1  0
  8  9  2  0
  9 10  1  0
  9 11  1  0
 11 12  2  0
 11 17  1  0
 12 13  1  0
 13 14  2  0
 14 15  1  0
 15 16  1  0
 15 17  2  0
 17 18  1  0
 18 19  1  0
 19 20  2  0
 19 21  1  0
 21 22  2  0
 21 36  1  0
 22 23  1  0
 23 24  1  0
 23 35  2  0
 24 25  1  0
 25 26  1  0
 26 27  2  0
 26 28  1  0
 28 29  1  0
 29 30  2  0
 29 34  1  0
 30 31  1  0
 31 32  2  0
 32 33  1  0
 33 34  2  0
 35 36  1  0
M  END
