
     RDKit          3D

 37 41  0  0  0  0  0  0  0  0999 V2000
   -1.8030   -5.5420    0.3100 C   0  0  0  0  0  0  0  0  0  0  0  0
   -1.1910   -4.2070    0.5320 C   0  0  0  0  0  0  0  0  0  0  0  0
    0.0540   -3.9670    0.9440 N   0  0  0  0  0  0  0  0  0  0  0  0
    0.2060   -2.6760    1.0140 N   0  0  0  0  0  0  0  0  0  0  0  0
   -0.9480   -2.0150    0.6470 C   0  0  0  0  0  0  0  0  0  0  0  0
   -1.0850   -0.5690    0.6280 C   0  0  0  0  0  0  0  0  0  0  0  0
   -2.1630    0.0630    0.3020 C   0  0  0  0  0  0  0  0  0  0  0  0
   -2.1820    1.5440    0.3200 C   0  0  0  0  0  0  0  0  0  0  0  0
   -3.2820    2.1870   -0.0130 C   0  0  0  0  0  0  0  0  0  0  0  0
   -4.3850    1.4880   -0.3680 F   0  0  0  0  0  0  0  0  0  0  0  0
   -3.3470    3.6290   -0.0120 C   0  0  0  0  0  0  0  0  0  0  0  0
   -4.4400    4.3990   -0.3400 C   0  0  0  0  0  0  0  0  0  0  0  0
   -4.0420    5.7100   -0.1970 C   0  0  0  0  0  0  0  0  0  0  0  0
   -2.7310    5.6920    0.2110 C   0  0  0  0  0  0  0  0  0  0  0  0
   -2.3510    4.4550    0.3100 O   0  0  0  0  0  0  0  0  0  0  0  0
    0.0570    0.2260    1.0010 N   0  0  0  0  0  0  0  0  0  0  0  0
    1.2600    0.0870    0.2120 C   0  0  0  0  0  0  0  0  0  0  0  0
    1.2550   -0.7120   -0.7530 O   0  0  0  0  0  0  0  0  0  0  0  0
    2.4000    0.8570    0.5560 N   0  0  0  0  0  0  0  0  0  0  0  0
    3.6290    0.8070   -0.1290 C   0  0  0  0  0  0  0  0  0  0  0  0
    3.9900   -0.0750   -1.1050 C   0  0  0  0  0  0  0  0  0  0  0  0
    5.2530    0.0250   -1.6940 C   0  0  0  0  0  0  0  0  0  0  0  0
    6.1670    0.9770   -1.3390 C   0  0  0  0  0  0  0  0  0  0  0  0
    7.3790    1.1000   -1.8800 N   0  0  0  0  0  0  0  0  0  0  0  0
    8.2300    2.0580   -1.4840 C   0  0  0  0  0  0  0  0  0  0  0  0
    7.9180    2.9540   -0.5200 N   0  0  0  0  0  0  0  0  0  0  0  0
    6.6930    2.8620    0.0560 C   0  0  0  0  0  0  0  0  0  0  0  0
    6.3200    3.6460    0.9530 O   0  0  0  0  0  0  0  0  0  0  0  0
    5.8150    1.8740   -0.3510 C   0  0  0  0  0  0  0  0  0  0  0  0
    4.5780    1.7750    0.2230 C   0  0  0  0  0  0  0  0  0  0  0  0
   -1.8550   -2.9870    0.3340 C   0  0  0  0  0  0  0  0  0  0  0  0
   -3.2320   -2.8810   -0.1140 C   0  0  0  0  0  0  0  0  0  0  0  0
   -4.2620   -2.9060    0.8280 C   0  0  0  0  0  0  0  0  0  0  0  0
   -5.5890   -2.8360    0.4730 C   0  0  0  0  0  0  0  0  0  0  0  0
   -5.9320   -2.7400   -0.8180 N   0  0  0  0  0  0  0  0  0  0  0  0
   -4.9620   -2.7120   -1.7590 C   0  0  0  0  0  0  0  0  0  0  0  0
   -3.6130   -2.7800   -1.4430 C   0  0  0  0  0  0  0  0  0  0  0  0
  1  2  1  0
  2  3  1  0
  2 31  2  0
  3  4  1  0
  4  5  2  0
  5  6  1  0
  5 31  1  0
  6  7  2  3
  6 16  1  0
  7  8  1  0
  8  9  2  3
  9 10  1  0
  9 11  1  0
 11 12  2  0
 11 15  1  0
 12 13  1  0
 13 14  2  0
 14 15  1  0
 16 17  1  0
 17 18  2  0
 17 19  1  0
 19 20  1  0
 20 21  2  0
 20 30  1  0
 21 22  1  0
 22 23  2  0
 23 24  1  0
 23 29  1  0
 24 25  1  0
 25 26  2  0
 26 27  1  0
 27 28  2  0
 27 29  1  0
 29 30  2  0
 31 32  1  0
 32 33  2  0
 32 37  1  0
 33 34  1  0
 34 35  2  0
 35 36  1  0
 36 37  2  0
M  END
