
     RDKit          3D

 37 41  0  0  0  0  0  0  0  0999 V2000
   -4.2830    4.9640   -1.6410 N   0  0  0  0  0  0  0  0  0  0  0  0
   -4.9360    3.7040   -1.4070 C   0  0  0  0  0  0  0  0  0  0  0  0
   -3.8930    2.6670   -0.9730 C   0  0  0  0  0  0  0  0  0  0  0  0
   -2.7470    3.0120   -0.8890 O   0  0  0  0  0  0  0  0  0  0  0  0
   -4.3480    1.3760   -0.7010 N   0  0  0  0  0  0  0  0  0  0  0  0
   -3.8110    0.1820   -0.2910 C   0  0  0  0  0  0  0  0  0  0  0  0
   -2.5850   -0.2000    0.0360 C   0  0  0  0  0  0  0  0  0  0  0  0
   -1.5320    0.7340    0.0080 N   0  0  0  0  0  0  0  0  0  0  0  0
   -0.1660    0.4280    0.3420 C   0  0  0  0  0  0  0  0  0  0  0  0
    0.1330   -0.7210    0.6810 O   0  0  0  0  0  0  0  0  0  0  0  0
    0.8250    1.4770    0.2710 N   0  0  0  0  0  0  0  0  0  0  0  0
    2.1630    1.2320    0.5700 C   0  0  0  0  0  0  0  0  0  0  0  0
    2.9660    2.3590    0.7830 C   0  0  0  0  0  0  0  0  0  0  0  0
    4.2880    2.2490    1.0640 C   0  0  0  0  0  0  0  0  0  0  0  0
    4.8820    0.9880    1.1480 C   0  0  0  0  0  0  0  0  0  0  0  0
    6.2700    0.9190    1.4450 N   0  0  0  0  0  0  0  0  0  0  0  0
    6.8110    1.3280    2.5650 N   0  0  0  0  0  0  0  0  0  0  0  0
    8.1540    1.1200    2.5260 C   0  0  0  0  0  0  0  0  0  0  0  0
    8.4250    0.5540    1.3110 C   0  0  0  0  0  0  0  0  0  0  0  0
    7.2190    0.4350    0.6410 C   0  0  0  0  0  0  0  0  0  0  0  0
    6.9720   -0.1180   -0.7140 C   0  0  2  0  0  0  0  0  0  0  0  0
    7.6930   -1.4450   -0.9610 C   0  0  0  0  0  0  0  0  0  0  0  0
    8.0820   -0.2060   -1.6950 C   0  0  0  0  0  0  0  0  0  0  0  0
    4.1380   -0.1370    0.9470 C   0  0  0  0  0  0  0  0  0  0  0  0
    2.7790    0.0250    0.6600 C   0  0  0  0  0  0  0  0  0  0  0  0
   -2.3490   -1.6220    0.2850 C   0  0  0  0  0  0  0  0  0  0  0  0
   -3.2330   -2.5900    0.1880 C   0  0  0  0  0  0  0  0  0  0  0  0
   -2.9960   -3.9950    0.4690 C   0  0  0  0  0  0  0  0  0  0  0  0
   -1.8950   -4.3620    0.9460 O   0  0  0  0  0  0  0  0  0  0  0  0
   -3.9820   -4.9900    0.2210 N   0  0  0  0  0  0  0  0  0  0  0  0
   -5.2140   -4.5460   -0.3380 C   0  0  0  0  0  0  0  0  0  0  0  0
   -5.4640   -3.2740   -0.6500 C   0  0  0  0  0  0  0  0  0  0  0  0
   -4.5240   -2.2040   -0.4740 C   0  0  1  0  0  0  0  0  0  0  0  0
   -4.8880   -0.8960   -0.0130 C   0  0  0  0  0  0  0  0  0  0  0  0
   -5.9840   -0.5050    0.6000 C   0  0  0  0  0  0  0  0  0  0  0  0
   -7.1580   -1.2820    1.0000 C   0  0  0  0  0  0  0  0  0  0  0  0
   -7.3470   -1.1540    2.4060 F   0  0  0  0  0  0  0  0  0  0  0  0
  1  2  1  0
  2  3  1  0
  3  4  2  0
  3  5  1  0
  5  6  1  0
  6  7  2  0
  6 34  1  0
  7  8  1  0
  7 26  1  0
  8  9  1  0
  9 10  2  0
  9 11  1  0
 11 12  1  0
 12 13  2  0
 12 25  1  0
 13 14  1  0
 14 15  2  0
 15 16  1  0
 15 24  1  0
 16 17  1  0
 16 20  1  0
 17 18  2  0
 18 19  1  0
 19 20  2  0
 21 20  1  1
 21 22  1  0
 21 23  1  0
 22 23  1  0
 24 25  2  0
 26 27  2  0
 27 28  1  0
 27 33  1  0
 28 29  2  0
 28 30  1  0
 30 31  1  0
 31 32  2  0
 33 32  1  1
 33 34  1  0
 34 35  2  3
 35 36  1  0
 36 37  1  0
M  END
