
     RDKit          3D

 37 41  0  0  0  0  0  0  0  0999 V2000
   -5.7070    4.2590    1.1330 C   0  0  0  0  0  0  0  0  0  0  0  0
   -4.8090    3.2100    0.7120 C   0  0  0  0  0  0  0  0  0  0  0  0
   -5.0220    2.0180    0.2270 C   0  0  0  0  0  0  0  0  0  0  0  0
   -6.2300    1.4580   -0.0220 C   0  0  0  0  0  0  0  0  0  0  0  0
   -7.3880    2.0650   -0.1420 C   0  0  0  0  0  0  0  0  0  0  0  0
   -7.6990    3.3220   -0.0680 F   0  0  0  0  0  0  0  0  0  0  0  0
   -6.3110    0.1140   -0.3610 N   0  0  0  0  0  0  0  0  0  0  0  0
   -5.2690   -0.7000   -0.4710 C   0  0  0  0  0  0  0  0  0  0  0  0
   -5.4370   -2.0630   -0.8200 N   0  0  0  0  0  0  0  0  0  0  0  0
   -6.7920   -2.5540   -1.0570 C   0  0  0  0  0  0  0  0  0  0  0  0
   -6.7990   -4.0150   -1.4160 C   0  0  0  0  0  0  0  0  0  0  0  0
   -4.0240   -0.1910   -0.2390 C   0  0  0  0  0  0  0  0  0  0  0  0
   -2.9330   -1.0320   -0.3600 C   0  0  0  0  0  0  0  0  0  0  0  0
   -1.6700   -0.5240   -0.1320 C   0  0  0  0  0  0  0  0  0  0  0  0
   -0.3930   -1.0930   -0.1700 C   0  0  0  0  0  0  0  0  0  0  0  0
    0.4900   -0.1010    0.1470 C   0  0  0  0  0  0  0  0  0  0  0  0
    1.9550   -0.2810    0.2200 C   0  0  0  0  0  0  0  0  0  0  0  0
    2.4730   -1.3840   -0.0120 O   0  0  0  0  0  0  0  0  0  0  0  0
    2.7230    0.8330    0.5590 N   0  0  0  0  0  0  0  0  0  0  0  0
    4.1490    0.8280    0.6660 C   0  0  0  0  0  0  0  0  0  0  0  0
    4.7350    1.9170    1.3320 C   0  0  0  0  0  0  0  0  0  0  0  0
    6.0570    1.9910    1.4570 N   0  0  0  0  0  0  0  0  0  0  0  0
    6.8820    1.0280    0.9500 C   0  0  0  0  0  0  0  0  0  0  0  0
    6.3490   -0.0550    0.2900 C   0  0  0  0  0  0  0  0  0  0  0  0
    7.2110   -1.1060   -0.2660 C   0  0  2  0  0  0  0  0  0  0  0  0
    7.2870   -2.3280    0.6240 C   0  0  0  0  0  0  0  0  0  0  0  0
    8.5270   -0.5480   -0.4580 N   0  0  0  0  0  0  0  0  0  0  0  0
    8.6080   -0.0980   -1.7910 C   0  0  0  0  0  0  0  0  0  0  0  0
    9.4550    0.6590   -2.3290 O   0  0  0  0  0  0  0  0  0  0  0  0
    7.5060   -0.6580   -2.5350 N   0  0  0  0  0  0  0  0  0  0  0  0
    6.7650   -1.4490   -1.6250 C   0  0  0  0  0  0  0  0  0  0  0  0
    5.8700   -2.3110   -1.8830 O   0  0  0  0  0  0  0  0  0  0  0  0
    4.9730   -0.1290    0.1620 C   0  0  0  0  0  0  0  0  0  0  0  0
   -0.2020    1.0140    0.3690 N   0  0  0  0  0  0  0  0  0  0  0  0
   -1.5250    0.7920    0.2070 C   0  0  0  0  0  0  0  0  0  0  0  0
   -2.6490    1.6340    0.3260 C   0  0  0  0  0  0  0  0  0  0  0  0
   -3.8900    1.1450    0.1050 C   0  0  0  0  0  0  0  0  0  0  0  0
  1  2  1  0
  2  3  2  3
  3  4  1  0
  3 37  1  0
  4  5  2  3
  4  7  1  0
  5  6  1  0
  7  8  2  0
  8  9  1  0
  8 12  1  0
  9 10  1  0
 10 11  1  0
 12 13  2  0
 12 37  1  0
 13 14  1  0
 14 15  1  0
 14 35  2  0
 15 16  2  0
 16 17  1  0
 16 34  1  0
 17 18  2  0
 17 19  1  0
 19 20  1  0
 20 21  2  0
 20 33  1  0
 21 22  1  0
 22 23  2  0
 23 24  1  0
 24 25  1  0
 24 33  2  0
 25 26  1  1
 25 27  1  0
 25 31  1  0
 27 28  1  0
 28 29  2  0
 28 30  1  0
 30 31  1  0
 31 32  2  0
 34 35  1  0
 35 36  1  0
 36 37  2  0
M  END
