
     RDKit          3D

 12 11  0  0  0  0  0  0  0  0999 V2000
    4.6840    0.0000   -1.3150 O   0  0  0  0  0  0  0  0  0  0  0  0
    3.3730    0.4830   -1.1020 C   0  0  0  0  0  0  0  0  0  0  0  0
    3.3260    0.9360    0.3170 C   0  0  0  0  0  0  0  0  0  0  0  0
    2.1540    1.4550    0.7700 O   0  0  0  0  0  0  0  0  0  0  0  0
    1.0450    0.6580    0.7410 C   0  0  0  0  0  0  0  0  0  0  0  0
    0.6870    0.2170   -0.5170 O   0  0  0  0  0  0  0  0  0  0  0  0
   -0.4210   -0.5760   -0.4680 C   0  0  0  0  0  0  0  0  0  0  0  0
   -1.6530    0.0630    0.0850 C   0  0  0  0  0  0  0  0  0  0  0  0
   -2.6750   -0.8950    0.0510 O   0  0  0  0  0  0  0  0  0  0  0  0
   -3.8750   -0.3970    0.5480 C   0  0  1  0  0  0  0  0  0  0  0  0
   -4.8570   -0.3570   -0.4400 O   0  0  0  0  0  0  0  0  0  0  0  0
   -4.2910   -1.0720    1.6820 O   0  0  0  0  0  0  0  0  0  0  0  0
  1  2  1  0
  2  3  1  0
  3  4  1  0
  4  5  1  0
  5  6  1  0
  6  7  1  0
  7  8  1  0
  8  9  1  0
  9 10  1  0
 10 11  1  6
 10 12  1  0
M  END
