
     RDKit          3D

 12 11  0  0  0  0  0  0  0  0999 V2000
    0.7440    2.1900    0.6240 O   0  0  0  0  0  0  0  0  0  0  0  0
    0.5610    0.9440    0.6040 C   0  0  0  0  0  0  0  0  0  0  0  0
   -0.8230    0.4710    0.5960 C   0  0  0  0  0  0  0  0  0  0  0  0
   -0.9760   -0.8890    0.5740 O   0  0  0  0  0  0  0  0  0  0  0  0
   -2.3380   -1.1760    0.5690 C   0  0  2  0  0  0  0  0  0  0  0  0
   -2.7310   -1.9330    1.6650 O   0  0  0  0  0  0  0  0  0  0  0  0
   -2.7470   -1.9230   -0.6830 C   0  0  0  0  0  0  0  0  0  0  0  0
   -2.4600   -1.1490   -1.8280 O   0  0  0  0  0  0  0  0  0  0  0  0
    1.6850    0.1390    0.5920 O   0  0  0  0  0  0  0  0  0  0  0  0
    3.0050    0.6450    0.6000 C   0  0  0  0  0  0  0  0  0  0  0  0
    3.2830    1.5140   -0.6060 C   0  0  0  0  0  0  0  0  0  0  0  0
    3.1110    0.7700   -1.7950 O   0  0  0  0  0  0  0  0  0  0  0  0
  1  2  2  0
  2  3  1  0
  2  9  1  0
  3  4  1  0
  4  5  1  0
  5  6  1  1
  5  7  1  0
  7  8  1  0
  9 10  1  0
 10 11  1  0
 11 12  1  0
M  END
