
     RDKit          3D

 30 32  0  0  0  0  0  0  0  0999 V2000
    7.6610   -0.3190    2.1210 C   0  0  0  0  0  0  0  0  0  0  0  0
    6.2730   -0.1140    1.5730 C   0  0  0  0  0  0  0  0  0  0  0  0
    5.0840   -0.0980    2.2710 C   0  0  0  0  0  0  0  0  0  0  0  0
    4.0600    0.1260    1.3740 C   0  0  0  0  0  0  0  0  0  0  0  0
    2.5910    0.2220    1.7070 C   0  0  0  0  0  0  0  0  0  0  0  0
    1.9330    0.6930    0.5110 N   0  0  0  0  0  0  0  0  0  0  0  0
    1.9850   -0.1120   -0.6540 C   0  0  0  0  0  0  0  0  0  0  0  0
    2.5560   -1.2190   -0.7400 O   0  0  0  0  0  0  0  0  0  0  0  0
    1.3000    0.4190   -1.8560 C   0  0  0  0  0  0  0  0  0  0  0  0
   -0.1380    0.4290   -1.7060 N   0  0  0  0  0  0  0  0  0  0  0  0
   -0.7360    1.4880   -1.1800 N   0  0  0  0  0  0  0  0  0  0  0  0
   -2.0540    1.2720   -1.1280 C   0  0  0  0  0  0  0  0  0  0  0  0
   -3.0880    2.2220   -0.6020 C   0  0  0  0  0  0  0  0  0  0  0  0
   -4.3550    1.5360   -0.4690 N   0  0  0  0  0  0  0  0  0  0  0  0
   -4.5830    0.6590    0.6090 C   0  0  0  0  0  0  0  0  0  0  0  0
   -3.6810    0.4600    1.4800 O   0  0  0  0  0  0  0  0  0  0  0  0
   -5.8500   -0.0330    0.7510 C   0  0  0  0  0  0  0  0  0  0  0  0
   -6.0930   -0.8000    1.8940 C   0  0  0  0  0  0  0  0  0  0  0  0
   -7.2690   -1.4710    2.0730 C   0  0  0  0  0  0  0  0  0  0  0  0
   -8.2380   -1.4020    1.1280 N   0  0  0  0  0  0  0  0  0  0  0  0
   -8.0660   -0.6890    0.0180 C   0  0  0  0  0  0  0  0  0  0  0  0
   -6.8730   -0.0060   -0.1690 C   0  0  0  0  0  0  0  0  0  0  0  0
   -2.2710    0.0360   -1.6420 C   0  0  0  0  0  0  0  0  0  0  0  0
   -1.0470   -0.4960   -2.0090 C   0  0  0  0  0  0  0  0  0  0  0  0
   -0.7960   -1.8130   -2.6100 C   0  0  0  0  0  0  0  0  0  0  0  0
    4.6220    0.2360    0.2030 O   0  0  0  0  0  0  0  0  0  0  0  0
    5.9220    0.1040    0.2570 C   0  0  0  0  0  0  0  0  0  0  0  0
    6.8630    0.1760   -0.8970 C   0  0  2  0  0  0  0  0  0  0  0  0
    6.7210    1.4010   -1.5610 F   0  0  0  0  0  0  0  0  0  0  0  0
    6.4340   -1.0800   -2.0910 Cl  0  0  0  0  0  0  0  0  0  0  0  0
  1  2  1  0
  2  3  1  0
  2 27  2  0
  3  4  2  0
  4  5  1  0
  4 26  1  0
  5  6  1  0
  6  7  1  0
  7  8  2  0
  7  9  1  0
  9 10  1  0
 10 11  1  0
 10 24  1  0
 11 12  2  0
 12 13  1  0
 12 23  1  0
 13 14  1  0
 14 15  1  0
 15 16  2  0
 15 17  1  0
 17 18  2  0
 17 22  1  0
 18 19  1  0
 19 20  2  0
 20 21  1  0
 21 22  2  0
 23 24  2  0
 24 25  1  0
 26 27  1  0
 27 28  1  0
 28 29  1  6
 28 30  1  0
M  END
