
     RDKit          3D

 31 33  0  0  0  0  0  0  0  0999 V2000
    0.6940    1.2230   -1.4410 C   0  0  0  0  0  0  0  0  0  0  0  0
    2.0220    0.7580   -0.9610 C   0  0  0  0  0  0  0  0  0  0  0  0
    3.1770    1.0230   -1.5400 N   0  0  0  0  0  0  0  0  0  0  0  0
    4.1350    0.4490   -0.8420 N   0  0  0  0  0  0  0  0  0  0  0  0
    3.6190   -0.2020    0.2030 C   0  0  0  0  0  0  0  0  0  0  0  0
    2.2320   -0.0170    0.1540 C   0  0  0  0  0  0  0  0  0  0  0  0
    1.2940   -0.5600    1.1080 C   0  0  0  0  0  0  0  0  0  0  0  0
    1.7320   -1.2620    2.0690 O   0  0  0  0  0  0  0  0  0  0  0  0
   -0.0980   -0.3610    1.0460 O   0  0  0  0  0  0  0  0  0  0  0  0
   -0.8720   -0.9590    2.0460 C   0  0  0  0  0  0  0  0  0  0  0  0
   -2.3370   -0.6870    1.8970 C   0  0  0  0  0  0  0  0  0  0  0  0
   -3.0570   -1.2400    2.7390 O   0  0  0  0  0  0  0  0  0  0  0  0
   -2.7850    0.1320    0.8720 N   0  0  0  0  0  0  0  0  0  0  0  0
   -4.1610    0.4350    0.6390 C   0  0  0  0  0  0  0  0  0  0  0  0
   -5.1040   -0.2760    1.2490 C   0  0  0  0  0  0  0  0  0  0  0  0
   -6.5480   -0.0110    1.0530 C   0  0  2  0  0  0  0  0  0  0  0  0
   -7.2600   -0.8420    1.9830 O   0  0  0  0  0  0  0  0  0  0  0  0
   -6.9610   -0.4810   -0.2510 N   0  0  0  0  0  0  0  0  0  0  0  0
   -6.7580   -1.8420   -0.4100 N   0  0  0  0  0  0  0  0  0  0  0  0
   -4.5030    1.5230   -0.2570 C   0  0  0  0  0  0  0  0  0  0  0  0
   -5.8690    1.7960   -0.4720 O   0  0  0  0  0  0  0  0  0  0  0  0
   -3.6750    2.2770   -0.8860 C   0  0  0  0  0  0  0  0  0  0  0  0
   -2.3090    2.2990   -0.9140 O   0  0  0  0  0  0  0  0  0  0  0  0
    4.6990   -0.8330    0.9430 N   0  0  0  0  0  0  0  0  0  0  0  0
    5.6480   -1.0830   -0.1000 C   0  0  2  0  0  0  0  0  0  0  0  0
    7.0750   -1.1820    0.2410 C   0  0  0  0  0  0  0  0  0  0  0  0
    7.7750   -0.7290   -1.3710 S   0  0  1  0  0  0  0  0  0  0  0  0
    8.8470    0.2820   -1.2180 O   0  0  0  0  0  0  0  0  0  0  0  0
    8.1640   -1.9330   -2.1380 O   0  0  0  0  0  0  0  0  0  0  0  0
    6.2700    0.0220   -2.0580 C   0  0  0  0  0  0  0  0  0  0  0  0
    5.5650    0.2700   -0.7790 C   0  0  1  0  0  0  0  0  0  0  0  0
  1  2  1  0
  2  3  2  0
  2  6  1  0
  3  4  1  0
  4  5  1  0
  4 31  1  0
  5  6  2  0
  5 24  1  0
  6  7  1  0
  7  8  2  0
  7  9  1  0
  9 10  1  0
 10 11  1  0
 11 12  2  0
 11 13  1  0
 13 14  1  0
 14 15  2  3
 14 20  1  0
 15 16  1  0
 16 17  1  1
 16 18  1  0
 18 19  1  0
 20 21  1  0
 20 22  2  3
 22 23  1  0
 24 25  1  0
 25 26  1  1
 25 31  1  0
 27 26  1  1
 27 28  2  0
 27 29  2  0
 27 30  1  0
 31 30  1  6
M  END
