
     RDKit          3D

 44 48  0  0  0  0  0  0  0  0999 V2000
    4.6150    3.2570   -1.1700 C   0  0  0  0  0  0  0  0  0  0  0  0
    4.8940    1.8870   -1.0060 O   0  0  0  0  0  0  0  0  0  0  0  0
    3.9390    1.0850   -0.4030 C   0  0  0  0  0  0  0  0  0  0  0  0
    2.7440    1.6130    0.0290 C   0  0  0  0  0  0  0  0  0  0  0  0
    1.7600    0.8470    0.6370 C   0  0  0  0  0  0  0  0  0  0  0  0
    0.5110    1.4790    1.1180 C   0  0  0  0  0  0  0  0  0  0  0  0
   -0.5660    1.6340    0.1250 C   0  0  2  0  0  0  0  0  0  0  0  0
   -1.7790    2.2850    0.7040 C   0  0  0  0  0  0  0  0  0  0  0  0
   -2.8030    1.5250    0.8840 O   0  0  0  0  0  0  0  0  0  0  0  0
   -1.8870    3.6300    1.0620 N   0  0  0  0  0  0  0  0  0  0  0  0
   -0.8340    4.5630    0.8690 C   0  0  0  0  0  0  0  0  0  0  0  0
   -1.3100    5.9500    0.5220 C   0  0  0  0  0  0  0  0  0  0  0  0
   -2.6840    6.3070    0.9210 C   0  0  0  0  0  0  0  0  0  0  0  0
   -3.6380    5.1750    0.6970 C   0  0  2  0  0  0  0  0  0  0  0  0
   -4.9580    5.4790    0.9180 O   0  0  0  0  0  0  0  0  0  0  0  0
   -5.6930    5.1580   -0.2140 C   0  0  0  0  0  0  0  0  0  0  0  0
   -3.1730    4.0630    1.6630 C   0  0  0  0  0  0  0  0  0  0  0  0
   -0.9830    0.4430   -0.6430 C   0  0  2  0  0  0  0  0  0  0  0  0
   -2.0910    0.7770   -1.6440 C   0  0  0  0  0  0  0  0  0  0  0  0
   -1.5320   -0.6210    0.3080 C   0  0  0  0  0  0  0  0  0  0  0  0
   -1.3190   -0.5200    1.4810 O   0  0  0  0  0  0  0  0  0  0  0  0
   -2.2690   -1.6890   -0.2080 N   0  0  0  0  0  0  0  0  0  0  0  0
   -2.9040   -2.8350    0.2700 C   0  0  0  0  0  0  0  0  0  0  0  0
   -2.9400   -3.2630    1.5180 C   0  0  0  0  0  0  0  0  0  0  0  0
   -2.3100   -2.6290    2.6800 C   0  0  1  0  0  0  0  0  0  0  0  0
   -3.0740   -1.7320    3.3340 F   0  0  0  0  0  0  0  0  0  0  0  0
   -2.1210   -3.7480    3.6190 F   0  0  0  0  0  0  0  0  0  0  0  0
   -3.7190   -4.5220    1.8810 C   0  0  0  0  0  0  0  0  0  0  0  0
   -4.4830   -5.0230    0.8650 O   0  0  0  0  0  0  0  0  0  0  0  0
   -4.4310   -4.5870   -0.4220 C   0  0  0  0  0  0  0  0  0  0  0  0
   -3.7070   -3.5650   -0.7570 C   0  0  0  0  0  0  0  0  0  0  0  0
   -3.7130   -3.1620   -2.1680 C   0  0  0  0  0  0  0  0  0  0  0  0
   -2.3960   -3.3640   -2.7370 N   0  0  0  0  0  0  0  0  0  0  0  0
    2.0180   -0.4950    0.8010 C   0  0  0  0  0  0  0  0  0  0  0  0
    3.2100   -1.0970    0.3870 C   0  0  0  0  0  0  0  0  0  0  0  0
    3.4360   -2.4510    0.5770 C   0  0  0  0  0  0  0  0  0  0  0  0
    4.6220   -3.0320    0.1690 C   0  0  0  0  0  0  0  0  0  0  0  0
    5.5480   -2.2100   -0.4230 C   0  0  0  0  0  0  0  0  0  0  0  0
    5.3280   -0.8620   -0.6150 C   0  0  0  0  0  0  0  0  0  0  0  0
    4.1430   -0.2760   -0.2090 C   0  0  0  0  0  0  0  0  0  0  0  0
    6.8280   -2.8220   -0.8570 C   0  0  0  0  0  0  0  0  0  0  0  0
    6.4910   -4.1650   -1.4660 C   0  0  0  0  0  0  0  0  0  0  0  0
    5.8990   -5.0830   -0.4490 C   0  0  0  0  0  0  0  0  0  0  0  0
    4.8240   -4.4790    0.3890 C   0  0  0  0  0  0  0  0  0  0  0  0
  1  2  1  0
  2  3  1  0
  3  4  2  0
  3 40  1  0
  4  5  1  0
  5  6  1  0
  5 34  2  0
  7  6  1  1
  7  8  1  0
  7 18  1  0
  8  9  2  0
  8 10  1  0
 10 11  1  0
 10 17  1  0
 11 12  1  0
 12 13  1  0
 13 14  1  0
 14 15  1  1
 14 17  1  0
 15 16  1  0
 18 19  1  6
 18 20  1  0
 20 21  2  0
 20 22  1  0
 22 23  1  0
 23 24  2  0
 23 31  1  0
 24 25  1  0
 24 28  1  0
 25 26  1  1
 25 27  1  0
 28 29  1  0
 29 30  1  0
 30 31  2  0
 31 32  1  0
 32 33  1  0
 34 35  1  0
 35 36  2  0
 35 40  1  0
 36 37  1  0
 37 38  2  0
 37 44  1  0
 38 39  1  0
 38 41  1  0
 39 40  2  0
 41 42  1  0
 42 43  1  0
 43 44  1  0
M  CHG  1  33   1
M  END
