
     RDKit          3D

 44 48  0  0  0  0  0  0  0  0999 V2000
   -3.5640   -0.4990    1.4830 C   0  0  0  0  0  0  0  0  0  0  0  0
   -3.4870    0.9030    0.9810 C   0  0  1  0  0  0  0  0  0  0  0  0
   -2.0680    1.2650    0.7420 C   0  0  0  0  0  0  0  0  0  0  0  0
   -1.2170    0.3840    0.2560 C   0  0  0  0  0  0  0  0  0  0  0  0
    0.2020    0.8020    0.0350 C   0  0  0  0  0  0  0  0  0  0  0  0
    0.8670   -0.1550   -0.8830 C   0  0  1  0  0  0  0  0  0  0  0  0
    1.6830   -1.2300   -0.1960 C   0  0  0  0  0  0  0  0  0  0  0  0
    2.7820   -0.6770    0.6290 C   0  0  0  0  0  0  0  0  0  0  0  0
    2.5180   -0.3940    1.8370 O   0  0  0  0  0  0  0  0  0  0  0  0
    4.0730   -0.4770    0.0800 N   0  0  0  0  0  0  0  0  0  0  0  0
    4.5210   -0.7410   -1.2680 C   0  0  0  0  0  0  0  0  0  0  0  0
    5.9730   -1.0910   -1.0840 C   0  0  0  0  0  0  0  0  0  0  0  0
    6.3660   -0.2830    0.1210 C   0  0  0  0  0  0  0  0  0  0  0  0
    7.6110    0.1110    0.5890 C   0  0  0  0  0  0  0  0  0  0  0  0
    7.7240    0.8480    1.7390 C   0  0  0  0  0  0  0  0  0  0  0  0
    9.0030    1.2510    2.2160 N   0  0  0  0  0  0  0  0  0  0  0  0
   10.1540    0.8920    1.4960 C   0  0  0  0  0  0  0  0  0  0  0  0
   10.6690    1.4940    0.4120 C   0  0  0  0  0  0  0  0  0  0  0  0
   11.8970    0.7820   -0.0250 C   0  0  0  0  0  0  0  0  0  0  0  0
   12.0150   -0.3120    0.9600 C   0  0  0  0  0  0  0  0  0  0  0  0
   11.0200   -0.2400    1.8200 C   0  0  0  0  0  0  0  0  0  0  0  0
    6.5670    1.1900    2.4220 C   0  0  0  0  0  0  0  0  0  0  0  0
    5.3520    0.7880    1.9370 C   0  0  0  0  0  0  0  0  0  0  0  0
    5.2040    0.0420    0.7780 C   0  0  0  0  0  0  0  0  0  0  0  0
   -0.0350   -0.7640   -1.9340 C   0  0  0  0  0  0  0  0  0  0  0  0
   -1.1710   -1.5430   -1.2970 C   0  0  2  0  0  0  0  0  0  0  0  0
   -0.8040   -2.9800   -1.0360 C   0  0  0  0  0  0  0  0  0  0  0  0
   -2.3850   -1.4810   -2.1980 C   0  0  0  0  0  0  0  0  0  0  0  0
   -1.5590   -0.9110   -0.0630 O   0  0  0  0  0  0  0  0  0  0  0  0
   -4.2310    1.1550   -0.2240 N   0  0  0  0  0  0  0  0  0  0  0  0
   -5.5570    0.5430   -0.2210 C   0  0  0  0  0  0  0  0  0  0  0  0
   -6.0570    0.3240   -1.6160 C   0  0  2  0  0  0  0  0  0  0  0  0
   -6.1800    1.4970   -2.3430 O   0  0  0  0  0  0  0  0  0  0  0  0
   -7.1960   -0.6250   -1.7740 C   0  0  0  0  0  0  0  0  0  0  0  0
   -8.4620   -0.2100   -1.5110 O   0  0  0  0  0  0  0  0  0  0  0  0
   -8.9780    0.2710   -0.3630 C   0  0  0  0  0  0  0  0  0  0  0  0
   -8.9330    1.5890   -0.1160 C   0  0  0  0  0  0  0  0  0  0  0  0
   -9.4630    2.1930    1.0930 C   0  0  0  0  0  0  0  0  0  0  0  0
  -10.0110    1.3800    1.9750 C   0  0  0  0  0  0  0  0  0  0  0  0
  -10.0930    0.0260    1.7900 O   0  0  0  0  0  0  0  0  0  0  0  0
   -9.5940   -0.6020    0.6350 C   0  0  0  0  0  0  0  0  0  0  0  0
   -9.7050   -1.9000    0.5110 C   0  0  0  0  0  0  0  0  0  0  0  0
  -10.2940   -2.6140    1.5020 F   0  0  0  0  0  0  0  0  0  0  0  0
   -9.2690   -2.5520   -0.5770 F   0  0  0  0  0  0  0  0  0  0  0  0
  2  1  1  6
  2  3  1  0
  2 30  1  0
  3  4  2  3
  4  5  1  0
  4 29  1  0
  5  6  1  0
  6  7  1  1
  6 25  1  0
  7  8  1  0
  8  9  2  0
  8 10  1  0
 10 11  1  0
 10 24  1  0
 11 12  1  0
 12 13  1  0
 13 14  2  0
 13 24  1  0
 14 15  1  0
 15 16  1  0
 15 22  2  0
 16 17  1  0
 17 18  2  0
 17 21  1  0
 18 19  1  0
 19 20  1  0
 20 21  2  0
 22 23  1  0
 23 24  2  0
 25 26  1  0
 26 27  1  1
 26 28  1  0
 26 29  1  0
 30 31  1  0
 31 32  1  0
 32 33  1  1
 32 34  1  0
 34 35  1  0
 35 36  1  0
 36 37  2  0
 36 41  1  0
 37 38  1  0
 38 39  2  0
 39 40  1  0
 40 41  1  0
 41 42  2  3
 42 43  1  0
 42 44  1  0
M  CHG  1  30   1
M  END
