
     RDKit          3D

 44 48  0  0  0  0  0  0  0  0999 V2000
    6.4850    5.0320   -1.2560 C   0  0  0  0  0  0  0  0  0  0  0  0
    6.7540    3.6040   -0.8430 C   0  0  0  0  0  0  0  0  0  0  0  0
    6.6040    2.7310   -2.0820 C   0  0  0  0  0  0  0  0  0  0  0  0
    6.8620    1.2870   -1.7240 C   0  0  0  0  0  0  0  0  0  0  0  0
    5.9520    0.8320   -0.7430 O   0  0  0  0  0  0  0  0  0  0  0  0
    4.5990    0.8100   -0.9150 C   0  0  0  0  0  0  0  0  0  0  0  0
    4.1190    1.2140   -2.0040 O   0  0  0  0  0  0  0  0  0  0  0  0
    3.6580    0.3400    0.1010 C   0  0  0  0  0  0  0  0  0  0  0  0
    4.1320   -0.1280    1.3290 C   0  0  0  0  0  0  0  0  0  0  0  0
    3.2320   -0.5640    2.2780 C   0  0  0  0  0  0  0  0  0  0  0  0
    1.8750   -0.5480    2.0390 C   0  0  0  0  0  0  0  0  0  0  0  0
    0.9070   -0.9650    2.9310 O   0  0  0  0  0  0  0  0  0  0  0  0
    1.1710   -1.4730    4.2280 C   0  0  0  0  0  0  0  0  0  0  0  0
    1.9920   -2.7100    4.1640 C   0  0  0  0  0  0  0  0  0  0  0  0
    2.6090   -3.1880    5.3010 C   0  0  0  0  0  0  0  0  0  0  0  0
    3.3730   -4.3450    5.2710 C   0  0  0  0  0  0  0  0  0  0  0  0
    3.5210   -5.0300    4.0950 C   0  0  0  0  0  0  0  0  0  0  0  0
    4.2620   -6.1580    4.0540 F   0  0  0  0  0  0  0  0  0  0  0  0
    2.8910   -4.5310    2.9640 C   0  0  0  0  0  0  0  0  0  0  0  0
    2.1280   -3.3850    2.9710 C   0  0  0  0  0  0  0  0  0  0  0  0
    1.3780   -0.0820    0.8150 C   0  0  0  0  0  0  0  0  0  0  0  0
   -0.0540   -0.0360    0.5190 C   0  0  1  0  0  0  0  0  0  0  0  0
   -0.2770    0.5770   -0.8430 C   0  0  0  0  0  0  0  0  0  0  0  0
   -1.7780    0.6550   -1.0660 C   0  0  0  0  0  0  0  0  0  0  0  0
   -2.2350    1.7270   -1.9280 C   0  0  0  0  0  0  0  0  0  0  0  0
   -2.8690    1.4450   -3.1070 C   0  0  0  0  0  0  0  0  0  0  0  0
   -3.3600    2.4270   -3.9690 C   0  0  0  0  0  0  0  0  0  0  0  0
   -3.1870    3.7400   -3.5970 C   0  0  0  0  0  0  0  0  0  0  0  0
   -3.6610    4.7100   -4.4280 F   0  0  0  0  0  0  0  0  0  0  0  0
   -2.5430    4.0330   -2.4020 C   0  0  0  0  0  0  0  0  0  0  0  0
   -2.0670    3.0570   -1.5660 C   0  0  0  0  0  0  0  0  0  0  0  0
   -2.6310   -0.1990   -0.5220 C   0  0  0  0  0  0  0  0  0  0  0  0
   -4.0530   -0.0380   -0.7970 C   0  0  0  0  0  0  0  0  0  0  0  0
   -4.8330   -1.0170   -1.5310 C   0  0  1  0  0  0  0  0  0  0  0  0
   -5.0560   -2.4000   -1.0990 C   0  0  0  0  0  0  0  0  0  0  0  0
   -5.8840   -2.7070    0.0740 C   0  0  0  0  0  0  0  0  0  0  0  0
   -6.7940   -1.7240    0.5560 N   0  0  0  0  0  0  0  0  0  0  0  0
   -7.6480   -1.1690   -0.3740 N   0  0  0  0  0  0  0  0  0  0  0  0
   -7.0620   -0.0700   -1.0180 N   0  0  0  0  0  0  0  0  0  0  0  0
   -6.1630   -0.4570   -2.0510 C   0  0  0  0  0  0  0  0  0  0  0  0
   -2.1180   -1.2240    0.3760 C   0  0  0  0  0  0  0  0  0  0  0  0
   -2.8690   -2.0630    0.9320 O   0  0  0  0  0  0  0  0  0  0  0  0
   -0.7320   -1.2560    0.6200 O   0  0  0  0  0  0  0  0  0  0  0  0
    2.2950    0.3440   -0.1080 C   0  0  0  0  0  0  0  0  0  0  0  0
  1  2  1  0
  2  3  1  0
  3  4  1  0
  4  5  1  0
  5  6  1  0
  6  7  2  0
  6  8  1  0
  8  9  2  0
  8 44  1  0
  9 10  1  0
 10 11  2  0
 11 12  1  0
 11 21  1  0
 12 13  1  0
 13 14  1  0
 14 15  2  0
 14 20  1  0
 15 16  1  0
 16 17  2  0
 17 18  1  0
 17 19  1  0
 19 20  2  0
 22 21  1  6
 21 44  2  0
 22 23  1  0
 22 43  1  0
 23 24  1  0
 24 25  1  0
 24 32  2  0
 25 26  2  0
 25 31  1  0
 26 27  1  0
 27 28  2  0
 28 29  1  0
 28 30  1  0
 30 31  2  0
 32 33  1  0
 32 41  1  0
 34 33  1  1
 34 35  1  0
 34 40  1  0
 35 36  1  0
 36 37  1  0
 37 38  1  0
 38 39  1  0
 39 40  1  0
 41 42  2  0
 41 43  1  0
M  CHG  1  37   1
M  END
