
     RDKit          3D

 44 48  0  0  0  0  0  0  0  0999 V2000
    3.5610   -1.0640    3.5270 C   0  0  0  0  0  0  0  0  0  0  0  0
    3.3440   -1.0480    2.0210 C   0  0  2  0  0  0  0  0  0  0  0  0
    2.1250   -1.7050    1.6870 N   0  0  0  0  0  0  0  0  0  0  0  0
    1.1980   -0.9580    0.9030 C   0  0  0  0  0  0  0  0  0  0  0  0
    0.8860    0.3940    1.4000 C   0  0  0  0  0  0  0  0  0  0  0  0
    1.3590    0.9220    2.4310 O   0  0  0  0  0  0  0  0  0  0  0  0
   -0.0430    1.2170    0.6640 N   0  0  0  0  0  0  0  0  0  0  0  0
   -0.6350    0.6600   -0.5290 C   0  0  0  0  0  0  0  0  0  0  0  0
   -1.9140   -0.0800   -0.1370 C   0  0  0  0  0  0  0  0  0  0  0  0
   -2.2280   -0.0940    1.0680 O   0  0  0  0  0  0  0  0  0  0  0  0
   -2.6870   -0.7120   -1.1240 N   0  0  0  0  0  0  0  0  0  0  0  0
   -3.8920   -1.4250   -0.8790 C   0  0  0  0  0  0  0  0  0  0  0  0
   -4.5500   -1.4590    0.3110 C   0  0  0  0  0  0  0  0  0  0  0  0
   -5.7000   -2.1790    0.4860 C   0  0  0  0  0  0  0  0  0  0  0  0
   -6.2150   -2.8920   -0.5660 C   0  0  0  0  0  0  0  0  0  0  0  0
   -7.4450   -3.6740   -0.3980 C   0  0  0  0  0  0  0  0  0  0  0  0
   -8.0680   -4.4010   -1.3020 C   0  0  0  0  0  0  0  0  0  0  0  0
   -9.2850   -5.0390   -0.7260 C   0  0  0  0  0  0  0  0  0  0  0  0
   -9.2600   -4.5580    0.6710 C   0  0  0  0  0  0  0  0  0  0  0  0
   -8.1900   -3.7730    0.8340 C   0  0  0  0  0  0  0  0  0  0  0  0
   -5.5660   -2.8770   -1.7970 C   0  0  0  0  0  0  0  0  0  0  0  0
   -4.4220   -2.1580   -1.9590 C   0  0  0  0  0  0  0  0  0  0  0  0
   -0.3920    2.5350    1.0810 C   0  0  0  0  0  0  0  0  0  0  0  0
    0.5170    3.6270    0.5680 C   0  0  1  0  0  0  0  0  0  0  0  0
    1.8390    3.4210    1.0050 O   0  0  0  0  0  0  0  0  0  0  0  0
    0.5250    3.7590   -0.9250 C   0  0  0  0  0  0  0  0  0  0  0  0
    1.2720    4.8020   -1.3710 O   0  0  0  0  0  0  0  0  0  0  0  0
    1.1720    6.1480   -1.2290 C   0  0  0  0  0  0  0  0  0  0  0  0
    0.2010    6.8480   -0.5740 C   0  0  0  0  0  0  0  0  0  0  0  0
    0.2180    8.2460   -0.4980 C   0  0  0  0  0  0  0  0  0  0  0  0
    1.2270    8.9660   -1.0900 C   0  0  0  0  0  0  0  0  0  0  0  0
    1.2210   10.3170   -1.0010 F   0  0  0  0  0  0  0  0  0  0  0  0
    2.2070    8.2700   -1.7510 C   0  0  0  0  0  0  0  0  0  0  0  0
    3.2030    8.9950   -2.3370 F   0  0  0  0  0  0  0  0  0  0  0  0
    2.1890    6.9150   -1.8240 C   0  0  0  0  0  0  0  0  0  0  0  0
    4.5320   -1.6670    1.3730 C   0  0  0  0  0  0  0  0  0  0  0  0
    5.6930   -1.8440    2.0930 C   0  0  0  0  0  0  0  0  0  0  0  0
    6.8270   -2.4230    1.5120 C   0  0  0  0  0  0  0  0  0  0  0  0
    6.7960   -2.8270    0.2000 C   0  0  0  0  0  0  0  0  0  0  0  0
    5.6430   -2.6570   -0.5340 C   0  0  0  0  0  0  0  0  0  0  0  0
    4.5330   -2.0810    0.0620 C   0  0  0  0  0  0  0  0  0  0  0  0
    5.9260   -3.1850   -1.8970 C   0  0  0  0  0  0  0  0  0  0  0  0
    7.0790   -4.1510   -1.6220 C   0  0  0  0  0  0  0  0  0  0  0  0
    7.7820   -3.4260   -0.6040 O   0  0  0  0  0  0  0  0  0  0  0  0
  2  1  1  1
  2  3  1  0
  2 36  1  0
  3  4  1  0
  4  5  1  0
  5  6  2  0
  5  7  1  0
  7  8  1  0
  7 23  1  0
  8  9  1  0
  9 10  2  0
  9 11  1  0
 11 12  1  0
 12 13  2  0
 12 22  1  0
 13 14  1  0
 14 15  2  0
 15 16  1  0
 15 21  1  0
 16 17  2  0
 16 20  1  0
 17 18  1  0
 18 19  1  0
 19 20  2  0
 21 22  2  0
 23 24  1  0
 24 25  1  6
 24 26  1  0
 26 27  1  0
 27 28  1  0
 28 29  2  0
 28 35  1  0
 29 30  1  0
 30 31  2  0
 31 32  1  0
 31 33  1  0
 33 34  1  0
 33 35  2  0
 36 37  2  0
 36 41  1  0
 37 38  1  0
 38 39  2  0
 39 40  1  0
 39 44  1  0
 40 41  2  0
 40 42  1  0
 42 43  1  0
 43 44  1  0
M  CHG  1   3   1
M  END
