
     RDKit          3D

 44 48  0  0  0  0  0  0  0  0999 V2000
    9.8830   -3.6440   -0.3370 C   0  0  0  0  0  0  0  0  0  0  0  0
    8.5020   -3.0910   -0.3660 C   0  0  0  0  0  0  0  0  0  0  0  0
    7.4170   -3.8760   -0.7640 C   0  0  0  0  0  0  0  0  0  0  0  0
    6.1300   -3.3880   -0.7980 C   0  0  0  0  0  0  0  0  0  0  0  0
    5.8750   -2.0870   -0.4330 C   0  0  0  0  0  0  0  0  0  0  0  0
    4.5140   -1.5170   -0.4470 C   0  0  0  0  0  0  0  0  0  0  0  0
    3.5560   -2.2830   -0.7860 N   0  0  0  0  0  0  0  0  0  0  0  0
    2.2530   -1.9120   -0.8490 N   0  0  0  0  0  0  0  0  0  0  0  0
    1.6990   -0.8880   -0.0480 C   0  0  0  0  0  0  0  0  0  0  0  0
    2.3820   -0.2430    0.7820 O   0  0  0  0  0  0  0  0  0  0  0  0
    0.2790   -0.5860   -0.2090 C   0  0  1  0  0  0  0  0  0  0  0  0
   -0.5720   -1.8390    0.1950 C   0  0  0  0  0  0  0  0  0  0  0  0
   -1.8380   -1.5810   -0.3220 O   0  0  0  0  0  0  0  0  0  0  0  0
   -2.4120   -0.4260    0.1420 C   0  0  2  0  0  0  0  0  0  0  0  0
   -3.7690   -0.2790   -0.4060 C   0  0  0  0  0  0  0  0  0  0  0  0
   -4.2840   -1.1280   -1.1780 O   0  0  0  0  0  0  0  0  0  0  0  0
   -4.5270    0.8320   -0.0700 O   0  0  0  0  0  0  0  0  0  0  0  0
   -5.8320    0.9380   -0.6150 C   0  0  0  0  0  0  0  0  0  0  0  0
   -6.5930   -0.2480   -0.1400 C   0  0  0  0  0  0  0  0  0  0  0  0
   -6.2030   -0.8640    1.0390 C   0  0  0  0  0  0  0  0  0  0  0  0
   -6.9100   -1.9670    1.4730 C   0  0  0  0  0  0  0  0  0  0  0  0
   -7.9770   -2.4440    0.7500 C   0  0  0  0  0  0  0  0  0  0  0  0
   -8.3510   -1.8290   -0.4110 C   0  0  0  0  0  0  0  0  0  0  0  0
   -7.6610   -0.7240   -0.8670 C   0  0  0  0  0  0  0  0  0  0  0  0
   -9.5180   -2.5170   -1.0170 C   0  0  0  0  0  0  0  0  0  0  0  0
  -10.0950   -3.2520    0.1720 C   0  0  0  0  0  0  0  0  0  0  0  0
   -8.8770   -3.5810    0.9920 C   0  0  0  0  0  0  0  0  0  0  0  0
   -1.5370    0.8160   -0.0950 C   0  0  0  0  0  0  0  0  0  0  0  0
   -0.2650    0.4730    0.5700 N   0  0  2  0  0  0  0  0  0  0  0  0
    0.4970    1.5380    1.0200 C   0  0  0  0  0  0  0  0  0  0  0  0
    1.2970    2.3760    0.1510 C   0  0  0  0  0  0  0  0  0  0  0  0
    1.3740    2.2450   -1.2030 C   0  0  0  0  0  0  0  0  0  0  0  0
    2.1640    3.1040   -1.9780 C   0  0  0  0  0  0  0  0  0  0  0  0
    2.8960    4.1180   -1.4020 C   0  0  0  0  0  0  0  0  0  0  0  0
    2.8330    4.2690   -0.0380 C   0  0  0  0  0  0  0  0  0  0  0  0
    3.6020    5.3380    0.5840 C   0  0  0  0  0  0  0  0  0  0  0  0
    4.3660    6.1560   -0.0700 C   0  0  0  0  0  0  0  0  0  0  0  0
    5.1010    7.2140    0.7100 C   0  0  2  0  0  0  0  0  0  0  0  0
    5.8040    6.5800    1.7090 F   0  0  0  0  0  0  0  0  0  0  0  0
    4.1590    8.1110    1.2130 F   0  0  0  0  0  0  0  0  0  0  0  0
    2.0570    3.4260    0.7270 C   0  0  0  0  0  0  0  0  0  0  0  0
    1.9370    3.5060    2.0960 O   0  0  0  0  0  0  0  0  0  0  0  0
    6.9220   -1.3100   -0.0420 C   0  0  0  0  0  0  0  0  0  0  0  0
    8.2190   -1.7940   -0.0060 C   0  0  0  0  0  0  0  0  0  0  0  0
  1  2  1  0
  2  3  2  0
  2 44  1  0
  3  4  1  0
  4  5  2  0
  5  6  1  0
  5 43  1  0
  6  7  2  3
  7  8  1  0
  8  9  1  0
  9 10  2  0
 11  9  1  1
 11 12  1  0
 11 29  1  0
 12 13  1  0
 13 14  1  0
 14 15  1  6
 14 28  1  0
 15 16  2  0
 15 17  1  0
 17 18  1  0
 18 19  1  0
 19 20  2  0
 19 24  1  0
 20 21  1  0
 21 22  2  0
 22 23  1  0
 22 27  1  0
 23 24  2  0
 23 25  1  0
 25 26  1  0
 26 27  1  0
 28 29  1  0
 29 30  1  6
 30 31  1  0
 31 32  2  0
 31 41  1  0
 32 33  1  0
 33 34  2  0
 34 35  1  0
 35 36  1  0
 35 41  2  0
 36 37  2  3
 37 38  1  0
 38 39  1  1
 38 40  1  0
 41 42  1  0
 43 44  2  0
M  CHG  1  29   1
M  END
