
     RDKit          3D

 44 48  0  0  0  0  0  0  0  0999 V2000
  -10.1140    0.9510   -3.7690 C   0  0  0  0  0  0  0  0  0  0  0  0
   -8.9330    0.9700   -2.8380 C   0  0  0  0  0  0  0  0  0  0  0  0
   -8.5060   -0.1530   -2.1940 C   0  0  0  0  0  0  0  0  0  0  0  0
   -7.3870   -0.1680   -1.3090 C   0  0  0  0  0  0  0  0  0  0  0  0
   -7.1110   -1.4190   -0.6790 C   0  0  0  0  0  0  0  0  0  0  0  0
   -6.0950   -1.9310   -0.1090 C   0  0  0  0  0  0  0  0  0  0  0  0
   -4.7520   -1.5240    0.1780 C   0  0  0  0  0  0  0  0  0  0  0  0
   -3.8650   -1.5100   -1.0700 C   0  0  0  0  0  0  0  0  0  0  0  0
   -2.4850   -1.1960   -0.6700 C   0  0  0  0  0  0  0  0  0  0  0  0
   -1.6940   -2.3020   -0.3390 C   0  0  0  0  0  0  0  0  0  0  0  0
   -0.3720   -2.1680    0.0360 C   0  0  0  0  0  0  0  0  0  0  0  0
    0.2380   -0.9400    0.1060 C   0  0  0  0  0  0  0  0  0  0  0  0
    1.6330   -0.8220    0.5190 C   0  0  2  0  0  0  0  0  0  0  0  0
    2.1590   -1.8640    1.4390 C   0  0  0  0  0  0  0  0  0  0  0  0
    3.4790   -2.3130    1.3180 N   0  0  1  0  0  0  0  0  0  0  0  0
    3.6220   -3.4040    0.4070 C   0  0  0  0  0  0  0  0  0  0  0  0
    4.9210   -4.1130    0.6790 C   0  0  0  0  0  0  0  0  0  0  0  0
    4.9430   -5.3210    0.8060 O   0  0  0  0  0  0  0  0  0  0  0  0
    6.0350   -3.2140    0.7590 N   0  0  0  0  0  0  0  0  0  0  0  0
    5.7500   -1.8770    1.0990 C   0  0  0  0  0  0  0  0  0  0  0  0
    4.5510   -1.3820    1.3600 C   0  0  0  0  0  0  0  0  0  0  0  0
    4.3680    0.0840    1.5250 C   0  0  0  0  0  0  0  0  0  0  0  0
    5.3500    0.9710    1.4080 C   0  0  0  0  0  0  0  0  0  0  0  0
    5.1290    2.3930    1.6070 C   0  0  0  0  0  0  0  0  0  0  0  0
    5.7680    2.9780    2.8520 C   0  0  0  0  0  0  0  0  0  0  0  0
    7.1670    2.8390    2.8730 O   0  0  0  0  0  0  0  0  0  0  0  0
    6.6240    0.3900    0.8480 C   0  0  2  0  0  0  0  0  0  0  0  0
    6.5380    0.2780   -0.6780 C   0  0  0  0  0  0  0  0  0  0  0  0
    6.3140    1.5790   -1.3630 C   0  0  0  0  0  0  0  0  0  0  0  0
    6.2870    1.2840   -2.8310 N   0  0  0  0  0  0  0  0  0  0  0  0
    6.9220   -0.9740    1.3610 C   0  0  0  0  0  0  0  0  0  0  0  0
    3.0910    0.7860    1.7670 C   0  0  0  0  0  0  0  0  0  0  0  0
    3.2220    1.7640    2.5030 O   0  0  0  0  0  0  0  0  0  0  0  0
    1.8250    0.4350    1.2470 O   0  0  0  0  0  0  0  0  0  0  0  0
   -0.5600    0.1450   -0.2250 C   0  0  0  0  0  0  0  0  0  0  0  0
   -1.8900    0.0180   -0.6040 C   0  0  0  0  0  0  0  0  0  0  0  0
   -6.7220    1.0110   -1.1040 C   0  0  0  0  0  0  0  0  0  0  0  0
   -5.6630    1.0580   -0.2760 O   0  0  0  0  0  0  0  0  0  0  0  0
   -4.8680    2.1010    0.1250 C   0  0  0  0  0  0  0  0  0  0  0  0
   -5.6060    3.1030    0.9480 C   0  0  0  0  0  0  0  0  0  0  0  0
   -6.0970    2.4690    2.1030 F   0  0  0  0  0  0  0  0  0  0  0  0
   -7.1550    2.1820   -1.7700 C   0  0  0  0  0  0  0  0  0  0  0  0
   -8.2410    2.1260   -2.6100 C   0  0  0  0  0  0  0  0  0  0  0  0
   -8.6570    3.2490   -3.2460 F   0  0  0  0  0  0  0  0  0  0  0  0
  1  2  1  0
  2  3  2  0
  2 43  1  0
  3  4  1  0
  4  5  1  0
  4 37  2  0
  5  6  2  3
  6  7  1  0
  7  8  1  0
  8  9  1  0
  9 10  2  0
  9 36  1  0
 10 11  1  0
 11 12  2  0
 13 12  1  1
 12 35  1  0
 13 14  1  0
 13 34  1  0
 15 14  1  6
 15 16  1  0
 15 21  1  0
 16 17  1  0
 17 18  2  0
 17 19  1  0
 19 20  1  0
 20 21  2  0
 20 31  1  0
 21 22  1  0
 22 23  2  0
 22 32  1  0
 23 24  1  0
 23 27  1  0
 24 25  1  0
 25 26  1  0
 27 28  1  6
 27 31  1  0
 28 29  1  0
 29 30  1  0
 32 33  2  0
 32 34  1  0
 35 36  2  0
 37 38  1  0
 37 42  1  0
 38 39  1  0
 39 40  1  0
 40 41  1  0
 42 43  2  0
 43 44  1  0
M  CHG  1  15   1
M  END
