
     RDKit          3D

 47 52  0  0  0  0  0  0  0  0999 V2000
   -0.1180    4.4710   -2.1990 C   0  0  0  0  0  0  0  0  0  0  0  0
   -0.7500    3.2770   -1.4970 C   0  0  0  0  0  0  0  0  0  0  0  0
   -0.0790    2.0680   -1.9110 N   0  0  2  0  0  0  0  0  0  0  0  0
   -1.0080    1.0290   -2.1070 C   0  0  0  0  0  0  0  0  0  0  0  0
   -1.5220    0.2190   -1.0010 C   0  0  1  0  0  0  0  0  0  0  0  0
   -2.2740    0.9530    0.0830 C   0  0  0  0  0  0  0  0  0  0  0  0
   -2.8940   -0.0510    1.0570 C   0  0  0  0  0  0  0  0  0  0  0  0
   -3.7480   -0.9890    0.4100 N   0  0  1  0  0  0  0  0  0  0  0  0
   -4.9490   -1.3460    1.0650 C   0  0  0  0  0  0  0  0  0  0  0  0
   -6.0830   -0.4540    1.0510 C   0  0  0  0  0  0  0  0  0  0  0  0
   -6.0080    0.8980    0.8820 C   0  0  0  0  0  0  0  0  0  0  0  0
   -7.1760    1.6370    0.8920 C   0  0  0  0  0  0  0  0  0  0  0  0
   -8.3570    1.0720    1.0630 N   0  0  0  0  0  0  0  0  0  0  0  0
   -8.4990   -0.2550    1.2350 C   0  0  0  0  0  0  0  0  0  0  0  0
   -9.7700   -0.7970    1.4110 O   0  0  0  0  0  0  0  0  0  0  0  0
  -10.5830   -1.2380    0.3660 C   0  0  1  0  0  0  0  0  0  0  0  0
  -10.9050   -0.1270   -0.6100 C   0  0  0  0  0  0  0  0  0  0  0  0
   -9.9450   -2.3720   -0.4150 C   0  0  0  0  0  0  0  0  0  0  0  0
  -11.9070   -1.7030    0.9620 C   0  0  0  0  0  0  0  0  0  0  0  0
   -7.3600   -1.0050    1.2280 C   0  0  0  0  0  0  0  0  0  0  0  0
   -3.8950   -0.6180   -0.9790 C   0  0  0  0  0  0  0  0  0  0  0  0
   -2.5180   -0.7940   -1.5880 C   0  0  0  0  0  0  0  0  0  0  0  0
    1.1600    1.8340   -1.2620 C   0  0  2  0  0  0  0  0  0  0  0  0
    1.7700    0.4960   -1.4810 C   0  0  0  0  0  0  0  0  0  0  0  0
    2.3530   -0.1240   -0.2000 C   0  0  0  0  0  0  0  0  0  0  0  0
    3.2530    0.9170    0.3450 C   0  0  0  0  0  0  0  0  0  0  0  0
    2.7070    2.1640    0.5470 C   0  0  0  0  0  0  0  0  0  0  0  0
    3.4370    3.2180    1.0410 C   0  0  0  0  0  0  0  0  0  0  0  0
    4.7860    3.0180    1.3520 C   0  0  0  0  0  0  0  0  0  0  0  0
    5.6030    4.1380    1.8890 C   0  0  0  0  0  0  0  0  0  0  0  0
    5.3650    1.7710    1.1600 C   0  0  0  0  0  0  0  0  0  0  0  0
    6.6870    1.5580    1.4660 C   0  0  0  0  0  0  0  0  0  0  0  0
    7.2030    0.2960    1.2590 C   0  0  0  0  0  0  0  0  0  0  0  0
    6.4370   -0.7380    0.7610 C   0  0  0  0  0  0  0  0  0  0  0  0
    6.9000   -2.0890    0.5290 C   0  0  0  0  0  0  0  0  0  0  0  0
    6.1220   -2.9720    0.0330 O   0  0  0  0  0  0  0  0  0  0  0  0
    8.2320   -2.4940    0.8400 N   0  0  0  0  0  0  0  0  0  0  0  0
    8.6630   -3.8020    0.6110 N   0  0  0  0  0  0  0  0  0  0  0  0
    9.8190   -4.1300    0.1880 C   0  0  0  0  0  0  0  0  0  0  0  0
   10.2260   -5.5270   -0.0380 C   0  0  0  0  0  0  0  0  0  0  0  0
   11.4670   -5.5130   -0.4700 C   0  0  0  0  0  0  0  0  0  0  0  0
   11.9360   -4.1420   -0.5510 C   0  0  0  0  0  0  0  0  0  0  0  0
   10.9550   -3.3060   -0.1590 C   0  0  0  0  0  0  0  0  0  0  0  0
   11.0400   -1.8320   -0.1010 C   0  0  0  0  0  0  0  0  0  0  0  0
    5.1330   -0.4750    0.4730 N   0  0  0  0  0  0  0  0  0  0  0  0
    4.5760    0.7280    0.6530 C   0  0  0  0  0  0  0  0  0  0  0  0
    1.2420    2.2620    0.1910 C   0  0  0  0  0  0  0  0  0  0  0  0
  1  2  1  0
  3  2  1  1
  3  4  1  0
  3 23  1  0
  5  4  1  6
  5  6  1  0
  5 22  1  0
  6  7  1  0
  7  8  1  0
  8  9  1  1
  8 21  1  0
  9 10  1  0
 10 11  2  0
 10 20  1  0
 11 12  1  0
 12 13  2  0
 13 14  1  0
 14 15  1  0
 14 20  2  0
 15 16  1  0
 16 17  1  6
 16 18  1  0
 16 19  1  0
 21 22  1  0
 23 24  1  1
 23 47  1  0
 24 25  1  0
 25 26  1  0
 26 27  2  0
 26 46  1  0
 27 28  1  0
 27 47  1  0
 28 29  2  0
 29 30  1  0
 29 31  1  0
 31 32  2  0
 31 46  1  0
 32 33  1  0
 33 34  2  0
 34 35  1  0
 34 45  1  0
 35 36  2  0
 35 37  1  0
 37 38  1  0
 38 39  2  3
 39 40  1  0
 39 43  1  0
 40 41  2  0
 41 42  1  0
 42 43  2  0
 43 44  1  0
 45 46  2  0
M  CHG  2   3   1   8   1
M  END
