
     RDKit          3D

 41 45  0  0  0  0  0  0  0  0999 V2000
   -2.0160   -2.6330    0.5170 O   0  0  0  0  0  0  0  0  0  0  0  0
   -2.4700   -1.3210   -0.0600 S   0  0  2  0  0  0  0  0  0  0  0  0
   -3.5610   -0.9050    0.8910 O   0  0  0  0  0  0  0  0  0  0  0  0
   -3.2410   -1.7790   -1.5640 C   0  0  0  0  0  0  0  0  0  0  0  0
   -4.6210   -1.6660   -1.7310 C   0  0  0  0  0  0  0  0  0  0  0  0
   -5.2810   -2.0030   -2.8700 C   0  0  0  0  0  0  0  0  0  0  0  0
   -4.5670   -2.4840   -3.9270 C   0  0  0  0  0  0  0  0  0  0  0  0
   -3.2090   -2.6180   -3.8230 C   0  0  0  0  0  0  0  0  0  0  0  0
   -2.5550   -2.2620   -2.6370 C   0  0  0  0  0  0  0  0  0  0  0  0
   -0.8200   -2.4730   -2.6050 Cl  0  0  0  0  0  0  0  0  0  0  0  0
   -1.3920   -0.1350   -0.2820 N   0  0  0  0  0  0  0  0  0  0  0  0
   -1.9820    1.0370   -0.8210 C   0  0  0  0  0  0  0  0  0  0  0  0
   -2.5770    2.0310    0.0730 C   0  0  0  0  0  0  0  0  0  0  0  0
   -3.9410    2.0740    0.3530 C   0  0  0  0  0  0  0  0  0  0  0  0
   -4.5060    3.0190    1.1740 C   0  0  0  0  0  0  0  0  0  0  0  0
   -3.7230    3.9820    1.7630 C   0  0  0  0  0  0  0  0  0  0  0  0
   -2.3800    3.9840    1.5190 C   0  0  0  0  0  0  0  0  0  0  0  0
   -1.8440    3.0290    0.6960 C   0  0  0  0  0  0  0  0  0  0  0  0
   -0.1930    0.0850    0.3970 C   0  0  1  0  0  0  0  0  0  0  0  0
   -0.4910    0.4340    1.8270 C   0  0  0  0  0  0  0  0  0  0  0  0
   -0.0240   -0.6570    2.6250 N   0  0  0  0  0  0  0  0  0  0  0  0
    0.7810   -1.4990    1.8320 C   0  0  0  0  0  0  0  0  0  0  0  0
    0.8710   -0.8880    0.4810 C   0  0  2  0  0  0  0  0  0  0  0  0
    2.1830   -0.5290    0.1770 N   0  0  0  0  0  0  0  0  0  0  0  0
    2.7010   -1.2090   -0.9400 C   0  0  0  0  0  0  0  0  0  0  0  0
    3.4960   -2.4250   -0.6880 C   0  0  0  0  0  0  0  0  0  0  0  0
    4.0310   -2.8230    0.4960 C   0  0  0  0  0  0  0  0  0  0  0  0
    4.7470   -3.9810    0.5800 C   0  0  0  0  0  0  0  0  0  0  0  0
    4.9630   -4.8020   -0.5210 C   0  0  0  0  0  0  0  0  0  0  0  0
    4.4210   -4.3940   -1.7120 C   0  0  0  0  0  0  0  0  0  0  0  0
    3.7090   -3.2420   -1.7950 C   0  0  0  0  0  0  0  0  0  0  0  0
    3.0890    0.6160    0.8710 S   0  0  1  0  0  0  0  0  0  0  0  0
    3.5560    0.3260    2.3030 O   0  0  0  0  0  0  0  0  0  0  0  0
    4.4450    0.6130    0.1330 O   0  0  0  0  0  0  0  0  0  0  0  0
    2.6190    2.2790    0.8380 C   0  0  0  0  0  0  0  0  0  0  0  0
    2.3970    2.9500    2.0250 C   0  0  0  0  0  0  0  0  0  0  0  0
    2.0160    4.2720    2.0640 C   0  0  0  0  0  0  0  0  0  0  0  0
    1.8460    4.9660    0.8890 C   0  0  0  0  0  0  0  0  0  0  0  0
    2.0560    4.3340   -0.2940 C   0  0  0  0  0  0  0  0  0  0  0  0
    2.4440    2.9860   -0.3040 C   0  0  0  0  0  0  0  0  0  0  0  0
    2.6920    2.2610   -1.8390 Cl  0  0  0  0  0  0  0  0  0  0  0  0
  1  2  2  0
  2  3  2  0
  2  4  1  0
  2 11  1  6
  4  5  2  0
  4  9  1  0
  5  6  1  0
  6  7  2  0
  7  8  1  0
  8  9  2  0
  9 10  1  0
 11 12  1  0
 19 11  1  1
 12 13  1  0
 13 14  2  0
 13 18  1  0
 14 15  1  0
 15 16  2  0
 16 17  1  0
 17 18  2  0
 19 20  1  0
 19 23  1  0
 20 21  1  0
 21 22  1  0
 22 23  1  0
 23 24  1  1
 24 25  1  0
 32 24  1  6
 25 26  1  0
 26 27  2  0
 26 31  1  0
 27 28  1  0
 28 29  2  0
 29 30  1  0
 30 31  2  0
 32 33  2  0
 32 34  2  0
 32 35  1  0
 35 36  2  0
 35 40  1  0
 36 37  1  0
 37 38  2  0
 38 39  1  0
 39 40  2  0
 40 41  1  0
M  CHG  1  21   1
M  END
