
     RDKit          3D

 41 45  0  0  0  0  0  0  0  0999 V2000
    7.9010   -3.7060   -1.9140 C   0  0  0  0  0  0  0  0  0  0  0  0
    7.2740   -3.2870   -0.6310 C   0  0  2  0  0  0  0  0  0  0  0  0
    6.4350   -2.1090   -0.7730 N   0  0  0  0  0  0  0  0  0  0  0  0
    5.0770   -2.0370   -0.4440 C   0  0  0  0  0  0  0  0  0  0  0  0
    4.5150   -3.0620    0.0130 O   0  0  0  0  0  0  0  0  0  0  0  0
    4.2940   -0.8090   -0.6160 C   0  0  1  0  0  0  0  0  0  0  0  0
    4.0760   -0.4620   -2.0960 C   0  0  0  0  0  0  0  0  0  0  0  0
    2.9140    0.4500   -1.9760 C   0  0  0  0  0  0  0  0  0  0  0  0
    2.4350    1.4670   -2.7530 C   0  0  0  0  0  0  0  0  0  0  0  0
    1.3110    2.1930   -2.4250 C   0  0  0  0  0  0  0  0  0  0  0  0
    0.6490    1.8740   -1.2650 C   0  0  0  0  0  0  0  0  0  0  0  0
    1.1260    0.8500   -0.4780 C   0  0  0  0  0  0  0  0  0  0  0  0
    0.4590    0.5140    0.7670 C   0  0  0  0  0  0  0  0  0  0  0  0
    0.9650   -0.2960    1.5980 O   0  0  0  0  0  0  0  0  0  0  0  0
   -0.7780    1.0660    1.1240 O   0  0  0  0  0  0  0  0  0  0  0  0
   -1.3820    0.7430    2.3460 C   0  0  0  0  0  0  0  0  0  0  0  0
   -2.6670    1.3650    2.6170 C   0  0  0  0  0  0  0  0  0  0  0  0
   -3.0260    1.3030    3.8620 O   0  0  0  0  0  0  0  0  0  0  0  0
   -3.5820    2.0180    1.7650 N   0  0  0  0  0  0  0  0  0  0  0  0
   -4.7750    2.6480    2.2800 C   0  0  0  0  0  0  0  0  0  0  0  0
   -5.9980    1.8720    2.4140 C   0  0  2  0  0  0  0  0  0  0  0  0
   -6.9950    2.7870    2.9240 O   0  0  0  0  0  0  0  0  0  0  0  0
   -5.8610    0.8070    3.5080 C   0  0  0  0  0  0  0  0  0  0  0  0
   -5.6670   -0.4900    3.2740 C   0  0  0  0  0  0  0  0  0  0  0  0
   -5.5820   -1.3980    4.2690 C   0  0  0  0  0  0  0  0  0  0  0  0
   -5.7980   -0.3450    5.7590 S   0  0  0  0  0  0  0  0  0  0  0  0
   -5.9820    1.2450    4.8240 C   0  0  0  0  0  0  0  0  0  0  0  0
   -3.2880    2.1360    0.3340 C   0  0  0  0  0  0  0  0  0  0  0  0
   -3.6990    0.9250   -0.4130 C   0  0  1  0  0  0  0  0  0  0  0  0
   -5.0530    0.6540   -0.3050 O   0  0  0  0  0  0  0  0  0  0  0  0
   -5.2950   -0.6230   -0.8100 C   0  0  0  0  0  0  0  0  0  0  0  0
   -5.0730   -0.5260   -2.3190 C   0  0  0  0  0  0  0  0  0  0  0  0
   -4.5080    0.6860   -2.6530 O   0  0  0  0  0  0  0  0  0  0  0  0
   -3.3460    0.9240   -1.8850 C   0  0  2  0  0  0  0  0  0  0  0  0
   -2.4000   -0.2350   -2.2300 C   0  0  0  0  0  0  0  0  0  0  0  0
   -2.7230    2.1790   -2.3820 C   0  0  0  0  0  0  0  0  0  0  0  0
    2.2660    0.1150   -0.8120 C   0  0  0  0  0  0  0  0  0  0  0  0
    2.9490   -0.9540   -0.1980 O   0  0  0  0  0  0  0  0  0  0  0  0
    8.3420   -3.0880    0.4190 C   0  0  1  0  0  0  0  0  0  0  0  0
    9.4270   -2.1010    0.2500 C   0  0  0  0  0  0  0  0  0  0  0  0
    8.3450   -1.9370    1.3220 C   0  0  0  0  0  0  0  0  0  0  0  0
  2  1  1  6
  2  3  1  0
  2 39  1  0
  3  4  1  0
  4  5  2  0
  6  4  1  6
  6  7  1  0
  6 38  1  0
  7  8  1  0
  8  9  2  0
  8 37  1  0
  9 10  1  0
 10 11  2  0
 11 12  1  0
 12 13  1  0
 12 37  2  0
 13 14  2  0
 13 15  1  0
 15 16  1  0
 16 17  1  0
 17 18  2  0
 17 19  1  0
 19 20  1  0
 19 28  1  0
 20 21  1  0
 21 22  1  1
 21 23  1  0
 23 24  1  0
 23 27  2  0
 24 25  2  0
 25 26  1  0
 26 27  1  0
 29 28  1  6
 29 30  1  0
 29 34  1  0
 30 31  1  0
 31 32  1  0
 32 33  1  0
 33 34  1  0
 34 35  1  1
 34 36  1  0
 37 38  1  0
 39 40  1  6
 39 41  1  0
 40 41  1  0
M  END
