
     RDKit          3D

 47 52  0  0  0  0  0  0  0  0999 V2000
   -8.1260   -1.7980    0.0220 C   0  0  0  0  0  0  0  0  0  0  0  0
   -7.0570   -1.1610   -0.4720 O   0  0  0  0  0  0  0  0  0  0  0  0
   -6.0650   -1.2760   -1.3560 C   0  0  0  0  0  0  0  0  0  0  0  0
   -5.8990   -2.3660   -2.1560 C   0  0  0  0  0  0  0  0  0  0  0  0
   -4.8640   -2.4570   -3.0630 C   0  0  0  0  0  0  0  0  0  0  0  0
   -3.9850   -1.4010   -3.1580 C   0  0  0  0  0  0  0  0  0  0  0  0
   -4.1700   -0.3190   -2.3590 C   0  0  0  0  0  0  0  0  0  0  0  0
   -5.1270   -0.1560   -1.4520 C   0  0  0  0  0  0  0  0  0  0  0  0
   -5.4280    0.9210   -0.5800 C   0  0  0  0  0  0  0  0  0  0  0  0
   -4.6000    1.3650    0.4600 N   0  0  1  0  0  0  0  0  0  0  0  0
   -5.3980    1.0650    1.7140 C   0  0  0  0  0  0  0  0  0  0  0  0
   -4.5670    0.1060    2.3980 C   0  0  0  0  0  0  0  0  0  0  0  0
   -4.9320   -0.8250    3.3920 C   0  0  0  0  0  0  0  0  0  0  0  0
   -3.9060   -1.4960    4.0360 C   0  0  0  0  0  0  0  0  0  0  0  0
   -2.6150   -1.2630    3.7190 C   0  0  0  0  0  0  0  0  0  0  0  0
   -2.2950   -0.3220    2.7080 C   0  0  0  0  0  0  0  0  0  0  0  0
   -3.3040    0.3340    2.0680 C   0  0  0  0  0  0  0  0  0  0  0  0
   -3.2690    1.1350    0.7240 C   0  0  2  0  0  0  0  0  0  0  0  0
   -2.4800    2.3390    1.1110 C   0  0  0  0  0  0  0  0  0  0  0  0
   -2.4700    0.1520   -0.0700 C   0  0  0  0  0  0  0  0  0  0  0  0
   -2.9270   -1.0310   -0.1120 O   0  0  0  0  0  0  0  0  0  0  0  0
   -1.3120    0.4430   -0.7450 N   0  0  0  0  0  0  0  0  0  0  0  0
   -0.4850   -0.4940   -1.4970 C   0  0  0  0  0  0  0  0  0  0  0  0
    0.8480    0.1380   -1.8010 C   0  0  0  0  0  0  0  0  0  0  0  0
    1.6220    0.3640   -0.5790 N   0  0  1  0  0  0  0  0  0  0  0  0
    1.2040    1.3670    0.2820 C   0  0  0  0  0  0  0  0  0  0  0  0
    1.4560    2.7660   -0.1100 C   0  0  0  0  0  0  0  0  0  0  0  0
    0.8150    3.7800    0.5460 C   0  0  0  0  0  0  0  0  0  0  0  0
    0.9990    5.1180    0.3800 C   0  0  0  0  0  0  0  0  0  0  0  0
    1.9200    5.4790   -0.5570 N   0  0  0  0  0  0  0  0  0  0  0  0
    2.1980    6.8890   -0.7700 C   0  0  0  0  0  0  0  0  0  0  0  0
    2.5720    4.5320   -1.2370 C   0  0  0  0  0  0  0  0  0  0  0  0
    3.4270    4.8900   -2.1060 O   0  0  0  0  0  0  0  0  0  0  0  0
    2.3840    3.1600   -1.0600 C   0  0  0  0  0  0  0  0  0  0  0  0
    1.9700   -0.9080    0.0290 C   0  0  2  0  0  0  0  0  0  0  0  0
    0.9860   -1.4170    1.0510 C   0  0  0  0  0  0  0  0  0  0  0  0
    3.3620   -1.0170    0.5540 C   0  0  0  0  0  0  0  0  0  0  0  0
    3.8300   -0.3460    1.6530 C   0  0  0  0  0  0  0  0  0  0  0  0
    5.1530   -0.4600    2.1140 C   0  0  0  0  0  0  0  0  0  0  0  0
    6.0090   -1.2830    1.4430 C   0  0  0  0  0  0  0  0  0  0  0  0
    5.5820   -1.9830    0.3370 C   0  0  0  0  0  0  0  0  0  0  0  0
    6.4980   -2.8640   -0.3060 N   0  0  0  0  0  0  0  0  0  0  0  0
    7.8460   -3.1080    0.0900 C   0  0  0  0  0  0  0  0  0  0  0  0
    8.5920   -3.4880   -1.1670 C   0  0  0  0  0  0  0  0  0  0  0  0
    7.5310   -3.6090   -2.2290 C   0  0  0  0  0  0  0  0  0  0  0  0
    6.2250   -3.6800   -1.4680 C   0  0  0  0  0  0  0  0  0  0  0  0
    4.2960   -1.8420   -0.0830 C   0  0  0  0  0  0  0  0  0  0  0  0
  1  2  1  0
  2  3  1  0
  3  4  2  0
  3  8  1  0
  4  5  1  0
  5  6  2  0
  6  7  1  0
  7  8  2  0
  8  9  1  0
 10  9  1  6
 10 11  1  0
 10 18  1  0
 11 12  1  0
 12 13  2  0
 12 17  1  0
 13 14  1  0
 14 15  2  0
 15 16  1  0
 16 17  2  0
 17 18  1  0
 18 19  1  1
 18 20  1  0
 20 21  2  0
 20 22  1  0
 22 23  1  0
 23 24  1  0
 25 24  1  6
 25 26  1  0
 25 35  1  0
 26 27  1  0
 27 28  1  0
 27 34  2  0
 28 29  2  0
 29 30  1  0
 30 31  1  0
 30 32  1  0
 32 33  2  0
 32 34  1  0
 35 36  1  1
 35 37  1  0
 37 38  2  0
 37 47  1  0
 38 39  1  0
 39 40  2  0
 40 41  1  0
 41 42  1  0
 41 47  2  0
 42 43  1  0
 42 46  1  0
 43 44  1  0
 44 45  1  0
 45 46  1  0
M  CHG  2  10   1  25   1
M  END
