
     RDKit          3D

 12 11  0  0  0  0  0  0  0  0999 V2000
    2.7570    0.4610    1.4370 O   0  0  0  0  0  0  0  0  0  0  0  0
    2.5950    0.4580    0.0440 C   0  0  0  0  0  0  0  0  0  0  0  0
    2.6540   -0.9590   -0.4530 C   0  0  0  0  0  0  0  0  0  0  0  0
    1.7120   -1.7380    0.0850 O   0  0  0  0  0  0  0  0  0  0  0  0
    0.3840   -1.5050   -0.0670 C   0  0  0  0  0  0  0  0  0  0  0  0
   -0.0350   -0.3150    0.4280 O   0  0  0  0  0  0  0  0  0  0  0  0
   -1.3510   -0.0150    0.3100 C   0  0  2  0  0  0  0  0  0  0  0  0
   -1.4650    1.2560   -0.5430 C   0  0  0  0  0  0  0  0  0  0  0  0
   -0.9280    1.0840   -1.7940 O   0  0  0  0  0  0  0  0  0  0  0  0
   -2.0620    0.2980    1.5990 C   0  0  1  0  0  0  0  0  0  0  0  0
   -3.4020    0.5770    1.2430 O   0  0  0  0  0  0  0  0  0  0  0  0
   -2.1140   -0.7850    2.4630 O   0  0  0  0  0  0  0  0  0  0  0  0
  1  2  1  0
  2  3  1  0
  3  4  1  0
  4  5  1  0
  5  6  1  0
  6  7  1  0
  7  8  1  6
  7 10  1  0
  8  9  1  0
 10 11  1  6
 10 12  1  0
M  END
