
     RDKit          3D

 12 11  0  0  0  0  0  0  0  0999 V2000
    4.5790    0.6900   -1.2760 O   0  0  0  0  0  0  0  0  0  0  0  0
    4.2950    0.7890   -0.0710 C   0  0  0  0  0  0  0  0  0  0  0  0
    5.2760    1.2540    0.8150 O   0  0  0  0  0  0  0  0  0  0  0  0
    3.0270    0.4380    0.3510 O   0  0  0  0  0  0  0  0  0  0  0  0
    2.1000   -0.0200   -0.5990 C   0  0  0  0  0  0  0  0  0  0  0  0
    0.7660   -0.3630    0.0130 C   0  0  0  0  0  0  0  0  0  0  0  0
   -0.0650   -0.7980   -0.9960 O   0  0  0  0  0  0  0  0  0  0  0  0
   -1.3250   -1.1480   -0.5820 C   0  0  0  0  0  0  0  0  0  0  0  0
   -2.0880   -0.0230    0.0730 C   0  0  1  0  0  0  0  0  0  0  0  0
   -2.2430    1.0530   -0.8170 O   0  0  0  0  0  0  0  0  0  0  0  0
   -3.5040   -0.5590    0.3200 C   0  0  0  0  0  0  0  0  0  0  0  0
   -4.3170    0.4160    0.8710 O   0  0  0  0  0  0  0  0  0  0  0  0
  1  2  2  0
  2  3  1  0
  2  4  1  0
  4  5  1  0
  5  6  1  0
  6  7  1  0
  7  8  1  0
  8  9  1  0
  9 10  1  6
  9 11  1  0
 11 12  1  0
M  END
