
     RDKit          3D

 12 11  0  0  0  0  0  0  0  0999 V2000
    5.1370    0.3370   -0.1280 O   0  0  0  0  0  0  0  0  0  0  0  0
    3.7860    0.0560    0.1930 C   0  0  0  0  0  0  0  0  0  0  0  0
    3.2170   -0.5550   -0.8940 O   0  0  0  0  0  0  0  0  0  0  0  0
    1.8830   -0.9060   -0.7500 C   0  0  0  0  0  0  0  0  0  0  0  0
    1.0350    0.2850   -0.4860 C   0  0  0  0  0  0  0  0  0  0  0  0
   -0.3080    0.0060   -0.3360 O   0  0  0  0  0  0  0  0  0  0  0  0
   -0.6150   -0.8430    0.6920 C   0  0  0  0  0  0  0  0  0  0  0  0
   -2.0180   -1.0200    0.7050 O   0  0  0  0  0  0  0  0  0  0  0  0
   -2.6170    0.2250    0.8960 C   0  0  2  0  0  0  0  0  0  0  0  0
   -3.4300    0.2450    2.0030 O   0  0  0  0  0  0  0  0  0  0  0  0
   -3.4580    0.5350   -0.3420 C   0  0  0  0  0  0  0  0  0  0  0  0
   -4.0710    1.7930   -0.1620 O   0  0  0  0  0  0  0  0  0  0  0  0
  1  2  1  0
  2  3  1  0
  3  4  1  0
  4  5  1  0
  5  6  1  0
  6  7  1  0
  7  8  1  0
  8  9  1  0
  9 10  1  1
  9 11  1  0
 11 12  1  0
M  END
