
     RDKit          3D

 12 11  0  0  0  0  0  0  0  0999 V2000
   -3.4440    0.8610    0.6540 O   0  0  0  0  0  0  0  0  0  0  0  0
   -3.4730    0.1220   -0.5440 C   0  0  0  0  0  0  0  0  0  0  0  0
   -2.5350   -1.0640   -0.3160 C   0  0  2  0  0  0  0  0  0  0  0  0
   -3.0390   -1.7760    0.7570 O   0  0  0  0  0  0  0  0  0  0  0  0
   -1.1510   -0.4980   -0.0270 C   0  0  0  0  0  0  0  0  0  0  0  0
   -0.7410    0.1840   -1.1380 O   0  0  0  0  0  0  0  0  0  0  0  0
    0.4980    0.7620   -1.0450 C   0  0  0  0  0  0  0  0  0  0  0  0
    1.5200   -0.1290   -0.8120 O   0  0  0  0  0  0  0  0  0  0  0  0
    2.7320    0.5320   -0.7320 C   0  0  2  0  0  0  0  0  0  0  0  0
    3.6160    0.0870   -1.6960 O   0  0  0  0  0  0  0  0  0  0  0  0
    3.2750    0.3330    0.6700 C   0  0  0  0  0  0  0  0  0  0  0  0
    3.4280   -1.0400    0.8590 O   0  0  0  0  0  0  0  0  0  0  0  0
  1  2  1  0
  2  3  1  0
  3  4  1  1
  3  5  1  0
  5  6  1  0
  6  7  1  0
  7  8  1  0
  8  9  1  0
  9 10  1  6
  9 11  1  0
 11 12  1  0
M  END
