
     RDKit          3D

 32 35  0  0  0  0  0  0  0  0999 V2000
   -4.7430   -3.2740   -0.2950 C   0  0  0  0  0  0  0  0  0  0  0  0
   -4.6140   -2.2290   -1.3060 C   0  0  0  0  0  0  0  0  0  0  0  0
   -3.5860   -1.3960   -1.4030 C   0  0  0  0  0  0  0  0  0  0  0  0
   -2.5350   -1.5180   -0.4670 N   0  0  0  0  0  0  0  0  0  0  0  0
   -1.4310   -0.6440   -0.0370 C   0  0  2  0  0  0  0  0  0  0  0  0
   -1.9270    0.1200    1.0930 C   0  0  0  0  0  0  0  0  0  0  0  0
   -1.7850    1.4780    1.1820 C   0  0  0  0  0  0  0  0  0  0  0  0
   -2.2520    2.2100    2.2480 C   0  0  0  0  0  0  0  0  0  0  0  0
   -2.1120    3.5600    2.3400 F   0  0  0  0  0  0  0  0  0  0  0  0
   -2.8900    1.5590    3.2720 C   0  0  0  0  0  0  0  0  0  0  0  0
   -3.0540    0.2020    3.2250 C   0  0  0  0  0  0  0  0  0  0  0  0
   -3.8750   -0.6170    4.5470 Cl  0  0  0  0  0  0  0  0  0  0  0  0
   -2.5700   -0.4960    2.1360 C   0  0  0  0  0  0  0  0  0  0  0  0
   -0.7680    0.1190   -1.0800 C   0  0  0  0  0  0  0  0  0  0  0  0
    0.5670    0.4260   -0.7940 C   0  0  0  0  0  0  0  0  0  0  0  0
    1.2290    0.0860    0.4150 C   0  0  0  0  0  0  0  0  0  0  0  0
    0.6930   -0.5280    1.3420 O   0  0  0  0  0  0  0  0  0  0  0  0
    2.5700    0.4260    0.6610 N   0  0  0  0  0  0  0  0  0  0  0  0
    3.3400    1.1420   -0.3200 C   0  0  0  0  0  0  0  0  0  0  0  0
    4.7450    1.4190    0.2330 C   0  0  0  0  0  0  0  0  0  0  0  0
    5.3840    0.1810    0.6300 N   0  0  0  0  0  0  0  0  0  0  0  0
    5.6050   -0.5930   -0.5760 C   0  0  0  0  0  0  0  0  0  0  0  0
    4.5720   -0.5790    1.5250 C   0  0  0  0  0  0  0  0  0  0  0  0
    3.2760    0.0940    1.8920 C   0  0  0  0  0  0  0  0  0  0  0  0
    1.2770    1.1220   -1.7240 N   0  0  0  0  0  0  0  0  0  0  0  0
    0.8470    1.5450   -2.8730 N   0  0  0  0  0  0  0  0  0  0  0  0
   -0.4240    1.2750   -3.1850 C   0  0  0  0  0  0  0  0  0  0  0  0
   -0.9140    1.6500   -4.2760 O   0  0  0  0  0  0  0  0  0  0  0  0
   -1.2380    0.5600   -2.2890 C   0  0  0  0  0  0  0  0  0  0  0  0
   -2.5350    0.4430   -2.8660 N   0  0  0  0  0  0  0  0  0  0  0  0
   -3.6150   -0.4080   -2.4770 C   0  0  0  0  0  0  0  0  0  0  0  0
   -4.7090   -0.3400   -3.0790 O   0  0  0  0  0  0  0  0  0  0  0  0
  1  2  1  0
  2  3  2  3
  3  4  1  0
  3 31  1  0
  4  5  1  0
  5  6  1  1
  5 14  1  0
  6  7  2  0
  6 13  1  0
  7  8  1  0
  8  9  1  0
  8 10  2  0
 10 11  1  0
 11 12  1  0
 11 13  2  0
 14 15  1  0
 14 29  2  0
 15 16  1  0
 15 25  2  0
 16 17  2  0
 16 18  1  0
 18 19  1  0
 18 24  1  0
 19 20  1  0
 20 21  1  0
 21 22  1  0
 21 23  1  0
 23 24  1  0
 25 26  1  0
 26 27  1  0
 27 28  2  0
 27 29  1  0
 29 30  1  0
 30 31  1  0
 31 32  2  0
M  END
