
     RDKit          3D

 32 34  0  0  0  0  0  0  0  0999 V2000
   -4.6630    0.5280    1.8830 C   0  0  0  0  0  0  0  0  0  0  0  0
   -3.7890    0.7830    0.6350 C   0  0  0  0  0  0  0  0  0  0  0  0
   -3.1070    2.0530    0.8230 C   0  0  0  0  0  0  0  0  0  0  0  0
   -2.2550    2.6870   -0.0450 C   0  0  0  0  0  0  0  0  0  0  0  0
   -2.0500    2.0150   -1.2250 C   0  0  0  0  0  0  0  0  0  0  0  0
   -2.6950    0.7730   -1.4500 C   0  0  0  0  0  0  0  0  0  0  0  0
   -3.5370    0.1640   -0.5470 C   0  0  0  0  0  0  0  0  0  0  0  0
   -3.9210   -1.3070   -0.8600 C   0  0  0  0  0  0  0  0  0  0  0  0
   -2.6800   -2.1060   -0.4400 C   0  0  0  0  0  0  0  0  0  0  0  0
   -2.5580   -3.4980   -0.8110 C   0  0  0  0  0  0  0  0  0  0  0  0
   -1.6920   -4.3260   -0.2590 C   0  0  0  0  0  0  0  0  0  0  0  0
   -0.7050   -4.1300    0.7770 C   0  0  0  0  0  0  0  0  0  0  0  0
   -0.3080   -5.6160    1.7660 Cl  0  0  0  0  0  0  0  0  0  0  0  0
   -0.0160   -3.0790    1.1420 C   0  0  0  0  0  0  0  0  0  0  0  0
    0.0300   -1.7260    0.6600 N   0  0  0  0  0  0  0  0  0  0  0  0
    0.7000   -1.1720   -0.4260 N   0  0  0  0  0  0  0  0  0  0  0  0
    1.7520   -0.1500   -0.4390 C   0  0  0  0  0  0  0  0  0  0  0  0
    2.9250   -0.5680   -0.7830 N   0  0  0  0  0  0  0  0  0  0  0  0
    4.0890    0.1930   -0.8600 C   0  0  0  0  0  0  0  0  0  0  0  0
    5.3020   -0.4440   -1.2790 N   0  0  0  0  0  0  0  0  0  0  0  0
    6.4560    0.3000   -1.4520 N   0  0  0  0  0  0  0  0  0  0  0  0
    7.2670    0.1600   -0.2500 C   0  0  0  0  0  0  0  0  0  0  0  0
    8.4380    0.8910   -0.3770 F   0  0  0  0  0  0  0  0  0  0  0  0
    4.0340    1.4360   -0.5540 N   0  0  0  0  0  0  0  0  0  0  0  0
    2.8230    2.0260   -0.1370 C   0  0  0  0  0  0  0  0  0  0  0  0
    2.8250    3.2340    0.3130 O   0  0  0  0  0  0  0  0  0  0  0  0
    1.5590    1.2940   -0.2050 C   0  0  2  0  0  0  0  0  0  0  0  0
    0.6560    1.5710    0.8400 O   0  0  0  0  0  0  0  0  0  0  0  0
    0.2820    2.6910    1.4810 C   0  0  0  0  0  0  0  0  0  0  0  0
    0.5430    2.6710    2.7690 O   0  0  0  0  0  0  0  0  0  0  0  0
   -0.3620    3.9200    0.9970 C   0  0  0  0  0  0  0  0  0  0  0  0
   -1.5250    3.9780    0.2960 C   0  0  0  0  0  0  0  0  0  0  0  0
  1  2  1  0
  2  3  2  0
  2  7  1  0
  3  4  1  0
  4  5  2  0
  4 32  1  0
  5  6  1  0
  6  7  2  0
  7  8  1  0
  8  9  1  0
  9 10  1  0
 10 11  2  0
 11 12  1  0
 12 13  1  0
 12 14  2  0
 14 15  1  0
 15 16  1  0
 16 17  1  0
 17 18  2  0
 17 27  1  0
 18 19  1  0
 19 20  1  0
 19 24  2  0
 20 21  1  0
 21 22  1  0
 22 23  1  0
 24 25  1  0
 25 26  2  0
 25 27  1  0
 27 28  1  1
 28 29  1  0
 29 30  2  0
 29 31  1  0
 31 32  2  0
M  END
