
     RDKit          3D

 32 35  0  0  0  0  0  0  0  0999 V2000
   -5.1660    2.4520    1.1530 C   0  0  0  0  0  0  0  0  0  0  0  0
   -4.8690    0.9440    1.2540 C   0  0  2  0  0  0  0  0  0  0  0  0
   -4.1050    0.7320    2.4960 C   0  0  0  0  0  0  0  0  0  0  0  0
   -2.7880    0.0710    2.4080 C   0  0  0  0  0  0  0  0  0  0  0  0
   -2.1940    0.2290    1.0270 C   0  0  1  0  0  0  0  0  0  0  0  0
   -0.8750   -0.2810    0.8970 N   0  0  0  0  0  0  0  0  0  0  0  0
    0.2220    0.5810    0.5400 C   0  0  0  0  0  0  0  0  0  0  0  0
   -0.0100    1.7950    0.3430 O   0  0  0  0  0  0  0  0  0  0  0  0
    1.5340    0.0960    0.4090 N   0  0  0  0  0  0  0  0  0  0  0  0
    2.6880    0.8400    0.0770 C   0  0  0  0  0  0  0  0  0  0  0  0
    2.7330    2.1960    0.0640 C   0  0  0  0  0  0  0  0  0  0  0  0
    3.9410    2.8080   -0.3020 C   0  0  0  0  0  0  0  0  0  0  0  0
    5.0490    2.0760   -0.6370 C   0  0  0  0  0  0  0  0  0  0  0  0
    6.2020    2.6870   -0.9860 F   0  0  0  0  0  0  0  0  0  0  0  0
    4.9980    0.7010   -0.6210 C   0  0  0  0  0  0  0  0  0  0  0  0
    6.2040   -0.0750   -0.9850 C   0  0  0  0  0  0  0  0  0  0  0  0
    6.9370    0.2920   -2.0920 C   0  0  0  0  0  0  0  0  0  0  0  0
    8.0360   -0.4300   -2.4080 N   0  0  0  0  0  0  0  0  0  0  0  0
    8.4560   -1.4880   -1.7010 C   0  0  0  0  0  0  0  0  0  0  0  0
    9.5830   -2.1840   -2.0710 F   0  0  0  0  0  0  0  0  0  0  0  0
    7.7400   -1.8680   -0.5960 C   0  0  0  0  0  0  0  0  0  0  0  0
    8.1550   -3.0360    0.2300 C   0  0  0  0  0  0  0  0  0  0  0  0
    9.2390   -2.7180    1.0320 F   0  0  0  0  0  0  0  0  0  0  0  0
    6.5980   -1.1580   -0.2270 C   0  0  0  0  0  0  0  0  0  0  0  0
    3.8320    0.0810   -0.2690 C   0  0  0  0  0  0  0  0  0  0  0  0
   -3.2130   -0.4040    0.0950 C   0  0  0  0  0  0  0  0  0  0  0  0
   -4.3130    0.5350    0.0230 N   0  0  1  0  0  0  0  0  0  0  0  0
   -5.3740    0.0540   -0.8440 C   0  0  2  0  0  0  0  0  0  0  0  0
   -6.0790   -1.1400   -0.3100 C   0  0  0  0  0  0  0  0  0  0  0  0
   -5.6290   -2.2370   -1.2100 C   0  0  0  0  0  0  0  0  0  0  0  0
   -4.9860   -1.7620   -2.2690 C   0  0  0  0  0  0  0  0  0  0  0  0
   -4.9120   -0.2740   -2.2320 C   0  0  0  0  0  0  0  0  0  0  0  0
  2  1  1  6
  2  3  1  0
  2 27  1  0
  3  4  1  0
  4  5  1  0
  5  6  1  1
  5 26  1  0
  6  7  1  0
  7  8  2  0
  7  9  1  0
  9 10  1  0
 10 11  2  0
 10 25  1  0
 11 12  1  0
 12 13  2  0
 13 14  1  0
 13 15  1  0
 15 16  1  0
 15 25  2  0
 16 17  2  0
 16 24  1  0
 17 18  1  0
 18 19  2  0
 19 20  1  0
 19 21  1  0
 21 22  1  0
 21 24  2  0
 22 23  1  0
 27 26  1  1
 27 28  1  0
 28 29  1  1
 28 32  1  0
 29 30  1  0
 30 31  2  0
 31 32  1  0
M  CHG  1  27   1
M  END
