
     RDKit          3D

 32 35  0  0  0  0  0  0  0  0999 V2000
    4.5010    3.9530    0.9530 C   0  0  0  0  0  0  0  0  0  0  0  0
    4.8360    2.6720    0.2030 C   0  0  0  0  0  0  0  0  0  0  0  0
    3.5910    1.8780   -0.0560 C   0  0  0  0  0  0  0  0  0  0  0  0
    3.4840    0.6730    0.4240 C   0  0  0  0  0  0  0  0  0  0  0  0
    2.3290   -0.1990    0.2440 C   0  0  0  0  0  0  0  0  0  0  0  0
    2.3050   -1.3940    0.7580 C   0  0  0  0  0  0  0  0  0  0  0  0
    3.7060   -1.9640    1.6830 Cl  0  0  0  0  0  0  0  0  0  0  0  0
    1.1290   -2.2390    0.6290 C   0  0  0  0  0  0  0  0  0  0  0  0
    1.1870   -3.5620    1.0800 C   0  0  0  0  0  0  0  0  0  0  0  0
    2.3180   -3.9400    1.7170 F   0  0  0  0  0  0  0  0  0  0  0  0
    0.1620   -4.4570    0.9010 C   0  0  0  0  0  0  0  0  0  0  0  0
   -0.9490   -4.0040    0.2490 C   0  0  0  0  0  0  0  0  0  0  0  0
   -1.1080   -2.7000   -0.2380 C   0  0  0  0  0  0  0  0  0  0  0  0
   -0.0390   -1.8590   -0.0190 C   0  0  0  0  0  0  0  0  0  0  0  0
   -0.0950   -0.3960   -0.4110 C   0  0  1  0  0  0  0  0  0  0  0  0
    1.2220    0.2630   -0.5710 C   0  0  0  0  0  0  0  0  0  0  0  0
   -0.8890   -0.1650   -1.5800 N   0  0  0  0  0  0  0  0  0  0  0  0
   -1.6090    0.9590   -1.9740 C   0  0  0  0  0  0  0  0  0  0  0  0
   -1.6480    1.0780   -3.2790 O   0  0  0  0  0  0  0  0  0  0  0  0
   -2.2800    1.9560   -1.2520 N   0  0  0  0  0  0  0  0  0  0  0  0
   -2.2700    2.3640    0.1050 C   0  0  0  0  0  0  0  0  0  0  0  0
   -1.8960    3.6630    0.5320 C   0  0  0  0  0  0  0  0  0  0  0  0
   -2.0150    3.6670    1.8470 N   0  0  0  0  0  0  0  0  0  0  0  0
   -2.4180    2.5260    2.2710 N   0  0  0  0  0  0  0  0  0  0  0  0
   -2.6120    1.6190    1.2260 C   0  0  0  0  0  0  0  0  0  0  0  0
   -3.0610    0.2700    1.2730 N   0  0  0  0  0  0  0  0  0  0  0  0
   -3.7130   -0.6060    0.4020 C   0  0  0  0  0  0  0  0  0  0  0  0
   -4.9930   -0.7710    0.6560 O   0  0  0  0  0  0  0  0  0  0  0  0
   -3.3310   -1.4100   -0.7500 C   0  0  0  0  0  0  0  0  0  0  0  0
   -4.0200   -1.2070   -1.8610 O   0  0  0  0  0  0  0  0  0  0  0  0
   -2.3340   -2.4000   -0.9240 N   0  0  0  0  0  0  0  0  0  0  0  0
   -2.5760   -3.3690   -2.0430 C   0  0  0  0  0  0  0  0  0  0  0  0
  1  2  1  0
  2  3  1  0
  3  4  2  3
  4  5  1  0
  5  6  2  0
  5 16  1  0
  6  7  1  0
  6  8  1  0
  8  9  2  0
  8 14  1  0
  9 10  1  0
  9 11  1  0
 11 12  2  0
 12 13  1  0
 13 14  2  0
 13 31  1  0
 14 15  1  0
 15 16  1  6
 15 17  1  0
 17 18  1  0
 18 19  2  0
 18 20  1  0
 20 21  1  0
 21 22  1  0
 21 25  2  0
 22 23  2  0
 23 24  1  0
 24 25  1  0
 25 26  1  0
 26 27  1  0
 27 28  2  0
 27 29  1  0
 29 30  2  0
 29 31  1  0
 31 32  1  0
M  END
