
     RDKit          3D

 32 34  0  0  0  0  0  0  0  0999 V2000
   -4.3320   -0.5920   -2.3030 C   0  0  0  0  0  0  0  0  0  0  0  0
   -4.4910   -1.5290   -1.1300 C   0  0  2  0  0  0  0  0  0  0  0  0
   -5.4310   -1.0150   -0.0930 C   0  0  1  0  0  0  0  0  0  0  0  0
   -6.1120   -2.0290    0.5830 O   0  0  0  0  0  0  0  0  0  0  0  0
   -4.8370   -0.0900    0.9150 C   0  0  2  0  0  0  0  0  0  0  0  0
   -4.7850    1.2330    0.4810 O   0  0  0  0  0  0  0  0  0  0  0  0
   -3.4530   -0.4840    1.3700 C   0  0  1  0  0  0  0  0  0  0  0  0
   -3.4220   -1.6710    2.0620 O   0  0  0  0  0  0  0  0  0  0  0  0
   -2.6140   -0.6310    0.1170 C   0  0  1  0  0  0  0  0  0  0  0  0
   -1.2120   -0.6070    0.3920 N   0  0  0  0  0  0  0  0  0  0  0  0
   -0.8350    0.8010    0.5520 C   0  0  1  0  0  0  0  0  0  0  0  0
    0.1500    0.9950    1.6770 C   0  0  2  0  0  0  0  0  0  0  0  0
   -0.4420    1.6050    2.7950 O   0  0  0  0  0  0  0  0  0  0  0  0
    1.2280    1.9270    1.1810 C   0  0  1  0  0  0  0  0  0  0  0  0
    2.1180    2.3300    2.1370 O   0  0  0  0  0  0  0  0  0  0  0  0
    1.8430    1.3670   -0.0760 C   0  0  1  0  0  0  0  0  0  0  0  0
    2.3720    0.0810    0.0860 O   0  0  0  0  0  0  0  0  0  0  0  0
    3.7090   -0.0330   -0.1720 C   0  0  2  0  0  0  0  0  0  0  0  0
    4.0220   -1.0300   -1.2680 C   0  0  1  0  0  0  0  0  0  0  0  0
    4.2570   -0.3850   -2.6040 C   0  0  0  0  0  0  0  0  0  0  0  0
    3.1620    0.3740   -3.0120 O   0  0  0  0  0  0  0  0  0  0  0  0
    5.1340   -1.7540   -0.9410 O   0  0  0  0  0  0  0  0  0  0  0  0
    6.2300   -1.0030   -0.5210 C   0  0  0  0  0  0  0  0  0  0  0  0
    5.9250   -0.2540    0.7630 C   0  0  2  0  0  0  0  0  0  0  0  0
    6.7500   -0.7060    1.7820 O   0  0  0  0  0  0  0  0  0  0  0  0
    4.4560   -0.5170    1.0440 C   0  0  1  0  0  0  0  0  0  0  0  0
    4.0240   -0.0550    2.2450 O   0  0  0  0  0  0  0  0  0  0  0  0
    0.9140    1.2580   -1.0810 O   0  0  0  0  0  0  0  0  0  0  0  0
   -0.3990    1.3980   -0.7610 C   0  0  2  0  0  0  0  0  0  0  0  0
   -0.9450    2.7970   -0.9670 C   0  0  0  0  0  0  0  0  0  0  0  0
   -3.1070   -1.8450   -0.6040 C   0  0  2  0  0  0  0  0  0  0  0  0
   -2.3000   -2.1460   -1.6780 O   0  0  0  0  0  0  0  0  0  0  0  0
  2  1  1  6
  2  3  1  0
  2 31  1  0
  3  4  1  1
  3  5  1  0
  5  6  1  6
  5  7  1  0
  7  8  1  6
  7  9  1  0
  9 10  1  1
  9 31  1  0
 11 10  1  6
 11 12  1  0
 11 29  1  0
 12 13  1  1
 12 14  1  0
 14 15  1  1
 14 16  1  0
 16 17  1  1
 16 28  1  0
 18 17  1  1
 18 19  1  0
 18 26  1  0
 19 20  1  6
 19 22  1  0
 20 21  1  0
 22 23  1  0
 23 24  1  0
 24 25  1  1
 24 26  1  0
 26 27  1  1
 28 29  1  0
 29 30  1  1
 31 32  1  6
M  CHG  1  10   1
M  END
