
     RDKit          3D

 15 14  0  0  0  0  0  0  0  0999 V2000
    4.3840    0.0300    0.4070 C   0  0  0  0  0  0  0  0  0  0  0  0
    3.1910   -0.1650   -0.5030 C   0  0  0  0  0  0  0  0  0  0  0  0
    2.1080   -0.9480    0.1470 C   0  0  0  0  0  0  0  0  0  0  0  0
    2.1840   -2.1620    0.1150 O   0  0  0  0  0  0  0  0  0  0  0  0
    0.7100   -0.1630    0.9650 P   0  0  0  0  0  0  0  0  0  0  0  0
   -0.7310    0.1910   -0.1040 C   0  0  1  0  0  0  0  0  0  0  0  0
   -0.3610    0.8400   -1.4290 C   0  0  0  0  0  0  0  0  0  0  0  0
   -1.5190   -1.0470   -0.4530 C   0  0  0  0  0  0  0  0  0  0  0  0
   -2.0250   -1.7080    0.6530 O   0  0  0  0  0  0  0  0  0  0  0  0
   -2.7230   -2.8230    0.1320 C   0  0  0  0  0  0  0  0  0  0  0  0
   -1.6050    1.1360    0.6220 C   0  0  0  0  0  0  0  0  0  0  0  0
   -2.7950    0.8140    0.8350 O   0  0  0  0  0  0  0  0  0  0  0  0
   -1.1560    2.3590    1.0720 O   0  0  0  0  0  0  0  0  0  0  0  0
   -1.8920    3.2480    1.7270 O   0  0  0  0  0  0  0  0  0  0  0  0
   -3.1190    3.3320    1.2590 O   0  0  0  0  0  0  0  0  0  0  0  0
  1  2  1  0
  2  3  1  0
  3  4  2  0
  3  5  1  0
  5  6  1  0
  6  7  1  6
  6  8  1  0
  6 11  1  0
  8  9  1  0
  9 10  1  0
 11 12  2  0
 11 13  1  0
 13 14  1  0
 14 15  1  0
M  END
