
     RDKit          3D

 16 15  0  0  0  0  0  0  0  0999 V2000
   -2.7210   -2.6130   -0.1530 C   0  0  0  0  0  0  0  0  0  0  0  0
   -1.8690   -1.6480   -0.7210 O   0  0  0  0  0  0  0  0  0  0  0  0
   -1.5780   -0.4620    0.5050 P   0  0  0  0  0  0  0  0  0  0  0  0
   -3.0650    0.4000    0.7490 O   0  0  0  0  0  0  0  0  0  0  0  0
   -0.2830    0.7610    0.0100 C   0  0  2  0  0  0  0  0  0  0  0  0
   -0.4740    1.2700   -1.2650 O   0  0  0  0  0  0  0  0  0  0  0  0
   -0.6000    2.5660   -1.1880 O   0  0  0  0  0  0  0  0  0  0  0  0
   -1.7850    3.0200   -0.6720 C   0  0  0  0  0  0  0  0  0  0  0  0
   -2.9010    2.6080   -1.4180 O   0  0  0  0  0  0  0  0  0  0  0  0
    1.1180    0.1940    0.1610 C   0  0  2  0  0  0  0  0  0  0  0  0
    1.3340   -0.2460    1.5930 C   0  0  0  0  0  0  0  0  0  0  0  0
    2.0120    1.2370   -0.0740 O   0  0  0  0  0  0  0  0  0  0  0  0
    1.3960   -0.8990   -0.8160 C   0  0  0  0  0  0  0  0  0  0  0  0
    2.7600   -1.5090   -0.7230 C   0  0  0  0  0  0  0  0  0  0  0  0
    3.8810   -0.5930   -0.9510 C   0  0  0  0  0  0  0  0  0  0  0  0
    5.0200   -1.0650   -0.8310 O   0  0  0  0  0  0  0  0  0  0  0  0
  1  2  1  0
  2  3  1  0
  3  4  1  0
  3  5  1  0
  5  6  1  6
  5 10  1  0
  6  7  1  0
  7  8  1  0
  8  9  1  0
 10 11  1  1
 10 12  1  0
 10 13  1  0
 13 14  1  0
 14 15  1  0
 15 16  2  0
M  END
