
     RDKit          3D

 23 25  0  0  0  0  0  0  0  0999 V2000
   -6.2620   -1.4980   -1.8040 N   0  0  0  0  0  0  0  0  0  0  0  0
   -5.2930   -0.5970   -1.3080 C   0  0  0  0  0  0  0  0  0  0  0  0
   -5.6280    0.6950   -1.1720 N   0  0  0  0  0  0  0  0  0  0  0  0
   -4.7410    1.6120   -0.7010 C   0  0  0  0  0  0  0  0  0  0  0  0
   -3.5010    1.2190   -0.3630 N   0  0  0  0  0  0  0  0  0  0  0  0
   -3.0910   -0.0590   -0.4710 C   0  0  0  0  0  0  0  0  0  0  0  0
   -4.0160   -0.9700   -0.9540 C   0  0  0  0  0  0  0  0  0  0  0  0
   -3.3870   -2.1620   -0.9730 N   0  0  0  0  0  0  0  0  0  0  0  0
   -2.1180   -1.9600   -0.5120 C   0  0  0  0  0  0  0  0  0  0  0  0
   -1.9280   -0.6790   -0.2030 N   0  0  0  0  0  0  0  0  0  0  0  0
   -0.7600   -0.0470    0.3070 C   0  0  2  0  0  0  0  0  0  0  0  0
    0.2910    0.0110   -0.5990 O   0  0  0  0  0  0  0  0  0  0  0  0
    1.2800    0.6130    0.1780 C   0  0  2  0  0  0  0  0  0  0  0  0
    2.6710    0.3360   -0.3780 C   0  0  0  0  0  0  0  0  0  0  0  0
    3.5650    0.9650    0.4500 O   0  0  0  0  0  0  0  0  0  0  0  0
    5.1000    0.6870   -0.1200 P   0  0  0  0  0  0  0  0  0  0  0  0
    5.3800    0.1420   -1.6150 O   0  0  0  0  0  0  0  0  0  0  0  0
    6.3590    0.7570    0.9940 O   0  0  0  0  0  0  0  0  0  0  0  0
    5.2910    2.1790   -0.3930 O   0  0  0  0  0  0  0  0  0  0  0  0
    1.2140   -0.0600    1.5360 C   0  0  1  0  0  0  0  0  0  0  0  0
    1.0690    0.8940    2.5670 O   0  0  0  0  0  0  0  0  0  0  0  0
   -0.1130   -0.7950    1.4550 C   0  0  1  0  0  0  0  0  0  0  0  0
   -0.8440   -0.6650    2.6320 O   0  0  0  0  0  0  0  0  0  0  0  0
  1  2  1  0
  2  3  2  0
  2  7  1  0
  3  4  1  0
  4  5  2  0
  5  6  1  0
  6  7  2  0
  6 10  1  0
  7  8  1  0
  8  9  2  0
  9 10  1  0
 11 10  1  6
 11 12  1  0
 11 22  1  0
 12 13  1  0
 13 14  1  6
 13 20  1  0
 14 15  1  0
 15 16  1  0
 16 17  1  0
 16 18  1  0
 16 19  1  0
 20 21  1  1
 20 22  1  0
 22 23  1  1
M  END
