
     RDKit          3D

 16 15  0  0  0  0  0  0  0  0999 V2000
   -4.8990    0.4600   -0.4480 C   0  0  0  0  0  0  0  0  0  0  0  0
   -3.6840   -0.3830   -0.6280 C   0  0  0  0  0  0  0  0  0  0  0  0
   -2.3990    0.4260   -0.6210 C   0  0  0  0  0  0  0  0  0  0  0  0
   -1.3610   -0.5590   -0.8890 O   0  0  0  0  0  0  0  0  0  0  0  0
   -0.3830   -0.7310    0.4160 P   0  0  0  0  0  0  0  0  0  0  0  0
   -1.1910   -1.2770    1.8960 O   0  0  0  0  0  0  0  0  0  0  0  0
    1.2460   -0.2360    0.7440 C   0  0  1  0  0  0  0  0  0  0  0  0
    1.2690    0.7630    1.8130 O   0  0  0  0  0  0  0  0  0  0  0  0
    2.0020   -1.4290    1.3720 C   0  0  0  0  0  0  0  0  0  0  0  0
    2.3140   -2.6130    0.5780 C   0  0  0  0  0  0  0  0  0  0  0  0
    2.3380   -1.3560    2.5330 O   0  0  0  0  0  0  0  0  0  0  0  0
    2.1180    0.2720   -0.3630 C   0  0  0  0  0  0  0  0  0  0  0  0
    2.0530   -0.3480   -1.3970 O   0  0  0  0  0  0  0  0  0  0  0  0
    2.9400    1.4550   -0.0770 C   0  0  0  0  0  0  0  0  0  0  0  0
    3.9670    1.6500   -1.0480 O   0  0  0  0  0  0  0  0  0  0  0  0
    4.6270    2.7440   -0.5920 O   0  0  0  0  0  0  0  0  0  0  0  0
  1  2  1  0
  2  3  1  0
  3  4  1  0
  4  5  1  0
  5  6  1  0
  5  7  1  0
  7  8  1  1
  7  9  1  0
  7 12  1  0
  9 10  1  0
  9 11  2  0
 12 13  2  0
 12 14  1  0
 14 15  1  0
 15 16  1  0
M  END
