
     RDKit          3D

 16 15  0  0  0  0  0  0  0  0999 V2000
   -2.6570    1.8660    1.3120 C   0  0  0  0  0  0  0  0  0  0  0  0
   -2.1720    0.8930    0.2580 C   0  0  0  0  0  0  0  0  0  0  0  0
   -0.8100    0.5710    0.4520 O   0  0  0  0  0  0  0  0  0  0  0  0
   -0.4780   -0.3170   -0.5610 C   0  0  1  0  0  0  0  0  0  0  0  0
   -1.3910   -1.5370   -0.4720 C   0  0  0  0  0  0  0  0  0  0  0  0
   -0.6960    0.3400   -1.7750 O   0  0  0  0  0  0  0  0  0  0  0  0
   -0.3900   -0.4750   -2.8610 C   0  0  0  0  0  0  0  0  0  0  0  0
    1.2490   -0.8990   -0.5080 P   0  0  0  0  0  0  0  0  0  0  0  0
    2.3550    0.2060    0.2520 O   0  0  0  0  0  0  0  0  0  0  0  0
    2.3580    1.5450   -0.0850 C   0  0  0  0  0  0  0  0  0  0  0  0
    3.2790    2.5430    0.5290 C   0  0  0  0  0  0  0  0  0  0  0  0
    1.5270    1.9080   -0.9580 O   0  0  0  0  0  0  0  0  0  0  0  0
    1.4410   -2.4920    0.1600 O   0  0  0  0  0  0  0  0  0  0  0  0
    1.2820   -2.7060    1.5050 C   0  0  0  0  0  0  0  0  0  0  0  0
    0.9990   -1.7780    2.2870 O   0  0  0  0  0  0  0  0  0  0  0  0
    1.4450   -3.9980    2.0000 O   0  0  0  0  0  0  0  0  0  0  0  0
  1  2  1  0
  2  3  1  0
  3  4  1  0
  4  5  1  6
  4  6  1  0
  4  8  1  0
  6  7  1  0
  8  9  1  0
  8 13  1  0
  9 10  1  0
 10 11  1  0
 10 12  2  0
 13 14  1  0
 14 15  2  0
 14 16  1  0
M  END
