
     RDKit          3D

 22 24  0  0  0  0  0  0  0  0999 V2000
   -3.5830   -1.7250    2.0920 C   0  0  0  0  0  0  0  0  0  0  0  0
   -2.8290   -1.1200    0.9330 C   0  0  2  0  0  0  0  0  0  0  0  0
   -1.8310   -0.0820    1.4040 C   0  0  0  0  0  0  0  0  0  0  0  0
   -1.0080    0.2840    0.1560 C   0  0  1  0  0  0  0  0  0  0  0  0
   -1.8430    1.2050   -0.6640 C   0  0  0  0  0  0  0  0  0  0  0  0
   -3.2320    0.6480   -0.8360 C   0  0  0  0  0  0  0  0  0  0  0  0
   -4.0080    1.2270   -1.7250 C   0  0  0  0  0  0  0  0  0  0  0  0
   -5.3890    0.7870   -1.9980 C   0  0  0  0  0  0  0  0  0  0  0  0
   -5.7340   -0.3020   -1.1940 O   0  0  0  0  0  0  0  0  0  0  0  0
   -4.9230   -0.9160   -0.2560 C   0  0  0  0  0  0  0  0  0  0  0  0
   -3.7020   -0.4790   -0.0590 C   0  0  0  0  0  0  0  0  0  0  0  0
    0.2590    0.8970    0.6670 C   0  0  0  0  0  0  0  0  0  0  0  0
    1.3500   -0.1590    0.4540 C   0  0  2  0  0  0  0  0  0  0  0  0
    2.5350    0.2680    1.1300 N   0  0  0  0  0  0  0  0  0  0  0  0
    3.7260   -0.4000    0.7020 C   0  0  0  0  0  0  0  0  0  0  0  0
    4.5510    0.5790   -0.0980 C   0  0  0  0  0  0  0  0  0  0  0  0
    5.8340   -0.0240   -0.5990 C   0  0  1  0  0  0  0  0  0  0  0  0
    6.5030    0.9730   -1.3200 O   0  0  0  0  0  0  0  0  0  0  0  0
    6.6380   -0.3340    0.5010 O   0  0  0  0  0  0  0  0  0  0  0  0
    1.4750   -0.2960   -1.0200 C   0  0  0  0  0  0  0  0  0  0  0  0
    0.1470   -0.8250   -1.5230 C   0  0  0  0  0  0  0  0  0  0  0  0
   -0.8110   -0.9050   -0.5290 O   0  0  0  0  0  0  0  0  0  0  0  0
  2  1  1  1
  2  3  1  0
  2 11  1  0
  4  3  1  1
  4  5  1  0
  4 12  1  0
  4 22  1  0
  5  6  1  0
  6  7  2  0
  6 11  1  0
  7  8  1  0
  8  9  1  0
  9 10  1  0
 10 11  2  0
 12 13  1  0
 13 14  1  6
 13 20  1  0
 14 15  1  0
 15 16  1  0
 16 17  1  0
 17 18  1  6
 17 19  1  0
 20 21  1  0
 21 22  1  0
M  CHG  1  14   1
M  END
