
     RDKit          3D

 22 24  0  0  0  0  0  0  0  0999 V2000
    4.8430   -1.9830   -1.4580 C   0  0  0  0  0  0  0  0  0  0  0  0
    3.9820   -1.6460   -0.4160 O   0  0  0  0  0  0  0  0  0  0  0  0
    3.2180   -0.5110   -0.7160 C   0  0  1  0  0  0  0  0  0  0  0  0
    1.7800   -0.8820   -0.7410 C   0  0  0  0  0  0  0  0  0  0  0  0
    0.8890   -0.2530    0.0180 C   0  0  0  0  0  0  0  0  0  0  0  0
    1.3780    0.8340    0.8900 C   0  0  0  0  0  0  0  0  0  0  0  0
    2.6350    1.1790    0.9430 C   0  0  0  0  0  0  0  0  0  0  0  0
    3.0510    2.3000    1.8610 C   0  0  0  0  0  0  0  0  0  0  0  0
    3.5320    0.5080    0.1600 O   0  0  0  0  0  0  0  0  0  0  0  0
    0.3790    1.6290    1.6570 C   0  0  0  0  0  0  0  0  0  0  0  0
   -0.5690    1.9730    0.4500 C   0  0  0  0  0  0  0  0  0  0  0  0
   -1.3420    0.7540    0.0920 C   0  0  1  0  0  0  0  0  0  0  0  0
   -2.5980    0.7300    0.8790 C   0  0  0  0  0  0  0  0  0  0  0  0
   -3.5730    1.8540    0.6810 C   0  0  0  0  0  0  0  0  0  0  0  0
   -3.1510    3.0940    1.0010 O   0  0  0  0  0  0  0  0  0  0  0  0
   -1.6370    0.6920   -1.3540 N   0  0  0  0  0  0  0  0  0  0  0  0
   -2.1500   -0.6640   -1.5200 C   0  0  0  0  0  0  0  0  0  0  0  0
   -1.2510   -1.5250   -0.6240 C   0  0  2  0  0  0  0  0  0  0  0  0
   -0.6120   -2.6090   -1.4350 C   0  0  0  0  0  0  0  0  0  0  0  0
   -2.2460   -2.3210    0.2700 C   0  0  0  0  0  0  0  0  0  0  0  0
   -0.5310   -0.5570    0.1540 C   0  0  1  0  0  0  0  0  0  0  0  0
   -0.6860   -0.9410    1.5410 O   0  0  0  0  0  0  0  0  0  0  0  0
  1  2  1  0
  3  2  1  1
  3  4  1  0
  3  9  1  0
  4  5  2  0
  5  6  1  0
  5 21  1  0
  6  7  2  0
  6 10  1  0
  7  8  1  0
  7  9  1  0
 10 11  1  0
 11 12  1  0
 12 13  1  1
 12 16  1  0
 12 21  1  0
 13 14  1  0
 14 15  1  0
 16 17  1  0
 17 18  1  0
 18 19  1  6
 18 20  1  0
 18 21  1  0
 21 22  1  1
M  CHG  1  16   1
M  END
