
     RDKit          3D

  7  7  0  0  0  0  0  0  0  0999 V2000
   -0.8130    1.4490   -1.1990 Cl  0  0  0  0  0  0  0  0  0  0  0  0
   -0.8430    0.1430   -0.0110 C   0  0  1  0  0  0  0  0  0  0  0  0
    0.2410   -0.8900   -0.2820 C   0  0  0  0  0  0  0  0  0  0  0  0
    1.4620   -0.2330   -0.2790 O   0  0  0  0  0  0  0  0  0  0  0  0
    1.2680    1.0170    0.0470 O   0  0  0  0  0  0  0  0  0  0  0  0
    0.7190    1.0650    1.2490 O   0  0  0  0  0  0  0  0  0  0  0  0
   -0.5380    0.7060    1.2390 O   0  0  0  0  0  0  0  0  0  0  0  0
  2  1  1  6
  2  3  1  0
  2  7  1  0
  3  4  1  0
  4  5  1  0
  5  6  1  0
  6  7  1  0
M  END
