
     RDKit          3D

  7  7  0  0  0  0  0  0  0  0999 V2000
   -1.5460    0.7750    0.2660 O   0  0  0  0  0  0  0  0  0  0  0  0
   -0.5200   -0.1220    0.4590 C   0  0  1  0  0  0  0  0  0  0  0  0
   -0.7080   -1.3250   -0.1650 O   0  0  0  0  0  0  0  0  0  0  0  0
    0.3440   -1.6710   -0.8020 O   0  0  0  0  0  0  0  0  0  0  0  0
    1.3190   -0.8650   -0.5620 O   0  0  0  0  0  0  0  0  0  0  0  0
    0.7980    0.3470   -0.1310 C   0  0  2  0  0  0  0  0  0  0  0  0
    1.8130    1.1760    1.0370 Cl  0  0  0  0  0  0  0  0  0  0  0  0
  2  1  1  6
  2  3  1  0
  2  6  1  0
  3  4  1  0
  4  5  1  0
  5  6  1  0
  6  7  1  1
M  END
