
     RDKit          3D

 19 18  0  0  0  0  0  0  0  0999 V2000
    5.3560   -1.1130   -0.1950 C   0  0  0  0  0  0  0  0  0  0  0  0
    4.0180   -1.4760    0.4200 C   0  0  0  0  0  0  0  0  0  0  0  0
    2.7340   -1.4690   -0.9250 P   0  0  0  0  0  0  0  0  0  0  0  0
    1.0470   -1.5470   -0.1650 C   0  0  1  0  0  0  0  0  0  0  0  0
    1.0700   -0.6400    1.0350 C   0  0  0  0  0  0  0  0  0  0  0  0
    0.8360   -1.1030    2.1880 O   0  0  0  0  0  0  0  0  0  0  0  0
    1.3500    0.7090    0.8850 O   0  0  0  0  0  0  0  0  0  0  0  0
   -0.1910   -0.9310   -1.4160 P   0  0  0  0  0  0  0  0  0  0  0  0
    0.5600   -0.3600   -2.8480 O   0  0  0  0  0  0  0  0  0  0  0  0
   -1.4690    0.5320   -0.4590 P   0  0  0  0  0  0  0  0  0  0  0  0
   -0.7780    2.0890   -0.3250 O   0  0  0  0  0  0  0  0  0  0  0  0
   -1.7990    3.0000   -0.4570 N   0  0  0  0  0  0  0  0  0  0  0  0
   -1.2490    4.2850   -0.0480 C   0  0  0  0  0  0  0  0  0  0  0  0
   -2.5800    5.6710   -0.1820 Br  0  0  0  0  0  0  0  0  0  0  0  0
   -3.0840    0.5230   -1.0130 O   0  0  0  0  0  0  0  0  0  0  0  0
   -3.8820    0.6310    0.0290 O   0  0  0  0  0  0  0  0  0  0  0  0
   -3.7650   -0.6930    1.1120 P   0  0  0  0  0  0  0  0  0  0  0  0
   -5.1300   -1.8820    0.7720 C   0  0  0  0  0  0  0  0  0  0  0  0
   -2.2230   -1.4440    1.1070 O   0  0  0  0  0  0  0  0  0  0  0  0
  1  2  1  0
  2  3  1  0
  4  3  1  6
  4  5  1  0
  4  8  1  0
  5  6  2  0
  5  7  1  0
  8  9  1  0
  8 10  1  0
 10 11  1  0
 10 15  1  0
 11 12  1  0
 12 13  1  0
 13 14  1  0
 15 16  1  0
 16 17  1  0
 17 18  1  0
 17 19  1  0
M  END
