
     RDKit          3D

 19 19  0  0  0  0  0  0  0  0999 V2000
    1.0980    2.9290   -0.4960 N   0  0  0  0  0  0  0  0  0  0  0  0
    2.0960    2.0050   -0.0840 C   0  0  0  0  0  0  0  0  0  0  0  0
    1.8920    0.6870   -0.0600 C   0  0  0  0  0  0  0  0  0  0  0  0
    2.9720   -0.1730    0.3750 C   0  0  0  0  0  0  0  0  0  0  0  0
    2.7650   -1.4260    0.3940 O   0  0  0  0  0  0  0  0  0  0  0  0
    4.5840    0.5050    0.8840 P   0  0  0  0  0  0  0  0  0  0  0  0
    5.8010   -0.7100    0.5590 O   0  0  0  0  0  0  0  0  0  0  0  0
    0.2660    0.0800   -0.5790 P   0  0  0  0  0  0  0  0  0  0  0  0
    0.3810   -1.2950   -1.6310 O   0  0  0  0  0  0  0  0  0  0  0  0
   -0.2720   -2.3440   -0.9760 C   0  0  0  0  0  0  0  0  0  0  0  0
   -1.6820   -1.9390   -0.6970 C   0  0  0  0  0  0  0  0  0  0  0  0
   -2.6410   -2.5230   -1.1730 O   0  0  0  0  0  0  0  0  0  0  0  0
   -1.9420   -0.7810    0.1930 C   0  0  1  0  0  0  0  0  0  0  0  0
   -2.3320    0.3030   -0.6080 F   0  0  0  0  0  0  0  0  0  0  0  0
   -3.2370   -1.1510    1.4340 P   0  0  0  0  0  0  0  0  0  0  0  0
   -4.7860   -0.6240    1.1880 C   0  0  0  0  0  0  0  0  0  0  0  0
   -5.1080    0.0940    0.0510 O   0  0  0  0  0  0  0  0  0  0  0  0
   -4.6710    1.3440   -0.1290 O   0  0  0  0  0  0  0  0  0  0  0  0
   -0.7330   -0.3530    0.7870 O   0  0  0  0  0  0  0  0  0  0  0  0
  1  2  1  0
  2  3  2  3
  3  4  1  0
  3  8  1  0
  4  5  2  0
  4  6  1  0
  6  7  1  0
  8  9  1  0
  8 19  1  0
  9 10  1  0
 10 11  1  0
 11 12  2  0
 11 13  1  0
 13 14  1  6
 13 15  1  0
 13 19  1  0
 15 16  2  3
 16 17  1  0
 17 18  1  0
M  END
