
     RDKit          3D

 22 23  0  0  0  0  0  0  0  0999 V2000
    6.6620    0.5780    0.3640 C   0  0  0  0  0  0  0  0  0  0  0  0
    5.2470    0.5280   -0.0340 C   0  0  0  0  0  0  0  0  0  0  0  0
    4.3880    1.5230    0.3380 N   0  0  0  0  0  0  0  0  0  0  0  0
    3.0920    1.4060   -0.0970 C   0  0  0  0  0  0  0  0  0  0  0  0
    2.6480    0.3770   -0.8670 C   0  0  0  0  0  0  0  0  0  0  0  0
    1.3300    0.2010   -1.3680 C   0  0  0  0  0  0  0  0  0  0  0  0
    0.3470   -0.6050   -0.5870 N   0  0  0  0  0  0  0  0  0  0  0  0
    0.5500   -1.9280   -0.5710 C   0  0  0  0  0  0  0  0  0  0  0  0
   -0.8320   -2.5730    0.3870 S   0  0  0  0  0  0  0  0  0  0  0  0
   -1.5790   -0.9290    0.6730 C   0  0  0  0  0  0  0  0  0  0  0  0
   -2.9370   -0.8260    1.1210 C   0  0  0  0  0  0  0  0  0  0  0  0
   -3.7100    0.0370    1.9520 C   0  0  0  0  0  0  0  0  0  0  0  0
   -5.0190   -0.6380    1.8950 O   0  0  0  0  0  0  0  0  0  0  0  0
   -6.1570    0.1570    1.0040 P   0  0  1  0  0  0  0  0  0  0  0  0
   -7.5240    0.0720    1.6190 O   0  0  0  0  0  0  0  0  0  0  0  0
   -5.8360    1.7290    0.5600 O   0  0  0  0  0  0  0  0  0  0  0  0
   -6.3470   -0.6900   -0.5200 O   0  0  0  0  0  0  0  0  0  0  0  0
   -0.7060   -0.1200    0.0400 C   0  0  0  0  0  0  0  0  0  0  0  0
   -0.9670    1.3890    0.1950 C   0  0  0  0  0  0  0  0  0  0  0  0
    3.6030   -0.6130   -1.2130 C   0  0  0  0  0  0  0  0  0  0  0  0
    3.2670   -1.6900   -2.0880 N   0  0  0  0  0  0  0  0  0  0  0  0
    4.8440   -0.4920   -0.7810 N   0  0  0  0  0  0  0  0  0  0  0  0
  1  2  1  0
  2  3  2  0
  2 22  1  0
  3  4  1  0
  4  5  2  0
  5  6  1  0
  5 20  1  0
  6  7  1  0
  7  8  2  0
  7 18  1  0
  8  9  1  0
  9 10  1  0
 10 11  1  0
 10 18  2  0
 11 12  1  0
 12 13  1  0
 13 14  1  0
 14 15  2  0
 14 16  1  6
 14 17  1  0
 18 19  1  0
 20 21  1  0
 20 22  2  0
M  CHG  1   7   1
M  END
