
     RDKit          3D

 20 21  0  0  0  0  0  0  0  0999 V2000
    4.4400   -0.8790   -1.1790 C   0  0  0  0  0  0  0  0  0  0  0  0
    3.4660   -0.6050   -2.3230 C   0  0  1  0  0  0  0  0  0  0  0  0
    2.1500   -1.1750   -2.0330 C   0  0  0  0  0  0  0  0  0  0  0  0
    0.9960   -0.6000   -2.0440 C   0  0  0  0  0  0  0  0  0  0  0  0
   -0.1610   -1.4280   -1.7080 N   0  0  0  0  0  0  0  0  0  0  0  0
   -1.2880   -0.8480   -1.0310 C   0  0  0  0  0  0  0  0  0  0  0  0
   -0.9750   -0.4430    0.3550 C   0  0  0  0  0  0  0  0  0  0  0  0
    0.2040   -0.6520    0.7500 O   0  0  0  0  0  0  0  0  0  0  0  0
   -1.9260    0.1610    1.2540 C   0  0  0  0  0  0  0  0  0  0  0  0
   -1.5290    0.5020    2.5280 C   0  0  0  0  0  0  0  0  0  0  0  0
   -0.1980    0.2700    2.9920 N   0  0  0  0  0  0  0  0  0  0  0  0
   -2.4060    1.0760    3.4010 N   0  0  0  0  0  0  0  0  0  0  0  0
   -3.6560    1.3030    3.0040 C   0  0  0  0  0  0  0  0  0  0  0  0
   -4.4280    1.8400    3.8610 O   0  0  0  0  0  0  0  0  0  0  0  0
   -4.0790    0.9870    1.7780 N   0  0  0  0  0  0  0  0  0  0  0  0
   -3.2360    0.4260    0.9120 C   0  0  0  0  0  0  0  0  0  0  0  0
   -3.6630    0.1400   -0.2350 O   0  0  0  0  0  0  0  0  0  0  0  0
    0.7370    0.7890   -2.3560 C   0  0  0  0  0  0  0  0  0  0  0  0
    1.6890    1.6430   -2.6730 C   0  0  0  0  0  0  0  0  0  0  0  0
    3.3740    1.1210   -2.7340 S   0  0  0  0  0  0  0  0  0  0  0  0
  2  1  1  1
  2  3  1  0
  2 20  1  0
  3  4  2  0
  4  5  1  0
  4 18  1  0
  5  6  1  0
  6  7  1  0
  7  8  2  0
  7  9  1  0
  9 10  2  0
  9 16  1  0
 10 11  1  0
 10 12  1  0
 12 13  1  0
 13 14  2  0
 13 15  1  0
 15 16  1  0
 16 17  2  0
 18 19  2  0
 19 20  1  0
M  END
