
     RDKit          3D

 20 21  0  0  0  0  0  0  0  0999 V2000
   -4.0960    0.2540   -2.7420 C   0  0  0  0  0  0  0  0  0  0  0  0
   -3.0220   -0.8100   -1.7720 S   0  0  0  0  0  0  0  0  0  0  0  0
   -2.9670   -0.3270   -0.0300 C   0  0  0  0  0  0  0  0  0  0  0  0
   -3.6580    0.7120    0.4110 C   0  0  0  0  0  0  0  0  0  0  0  0
   -3.4470    0.8840    1.8360 C   0  0  0  0  0  0  0  0  0  0  0  0
   -3.9500    1.7810    2.5940 O   0  0  0  0  0  0  0  0  0  0  0  0
   -2.5660   -0.1400    2.2340 N   0  0  0  0  0  0  0  0  0  0  0  0
   -2.2410   -0.9050    1.0680 C   0  0  2  0  0  0  0  0  0  0  0  0
   -0.7200   -1.0120    0.8880 C   0  0  1  0  0  0  0  0  0  0  0  0
   -0.5520   -1.8910   -0.3220 C   0  0  0  0  0  0  0  0  0  0  0  0
   -0.0900    0.3010    0.7260 C   0  0  0  0  0  0  0  0  0  0  0  0
    1.2880    0.4750    0.5860 N   0  0  0  0  0  0  0  0  0  0  0  0
    2.2040    0.0570   -0.3790 C   0  0  0  0  0  0  0  0  0  0  0  0
    1.8120   -0.5950   -1.3390 O   0  0  0  0  0  0  0  0  0  0  0  0
    3.6450    0.3730   -0.2890 C   0  0  0  0  0  0  0  0  0  0  0  0
    4.2980    1.0870    0.6940 C   0  0  0  0  0  0  0  0  0  0  0  0
    5.6160    1.1390    0.3850 N   0  0  0  0  0  0  0  0  0  0  0  0
    5.7890    0.4690   -0.7730 C   0  0  0  0  0  0  0  0  0  0  0  0
    6.8560    0.2860   -1.3950 O   0  0  0  0  0  0  0  0  0  0  0  0
    4.5900    0.0130   -1.1670 N   0  0  0  0  0  0  0  0  0  0  0  0
  1  2  1  0
  2  3  1  0
  3  4  2  0
  3  8  1  0
  4  5  1  0
  5  6  2  0
  5  7  1  0
  8  7  1  1
  8  9  1  0
  9 10  1  6
  9 11  1  0
 11 12  1  0
 12 13  1  0
 13 14  2  0
 13 15  1  0
 15 16  2  0
 15 20  1  0
 16 17  1  0
 17 18  1  0
 18 19  2  0
 18 20  1  0
M  END
