
     RDKit          3D

 20 22  0  0  0  0  0  0  0  0999 V2000
   -1.8200    2.0860    0.7800 N   0  0  0  0  0  0  0  0  0  0  0  0
   -2.6910    0.9920    0.5240 C   0  0  0  0  0  0  0  0  0  0  0  0
   -3.4560    0.5840    1.4890 C   0  0  0  0  0  0  0  0  0  0  0  0
   -4.5460   -0.7570    1.2280 S   0  0  0  0  0  0  0  0  0  0  0  0
   -5.9670   -0.4670    1.6650 O   0  0  0  0  0  0  0  0  0  0  0  0
   -4.4050   -1.3640   -0.4120 C   0  0  0  0  0  0  0  0  0  0  0  0
   -3.4110   -0.6170   -1.1970 C   0  0  0  0  0  0  0  0  0  0  0  0
   -2.6780    0.3900   -0.7960 C   0  0  0  0  0  0  0  0  0  0  0  0
   -1.7290    0.9750   -1.8240 C   0  0  0  0  0  0  0  0  0  0  0  0
   -0.3890    0.8590   -1.3390 N   0  0  0  0  0  0  0  0  0  0  0  0
    0.2510   -0.3640   -1.0180 C   0  0  0  0  0  0  0  0  0  0  0  0
   -0.4010   -1.4270   -1.1690 O   0  0  0  0  0  0  0  0  0  0  0  0
    1.6220   -0.4290   -0.5250 C   0  0  0  0  0  0  0  0  0  0  0  0
    2.3210   -1.5690   -0.1900 C   0  0  0  0  0  0  0  0  0  0  0  0
    3.5890   -1.2290    0.2350 C   0  0  0  0  0  0  0  0  0  0  0  0
    3.6430    0.1110    0.1530 N   0  0  0  0  0  0  0  0  0  0  0  0
    2.4770    0.5840   -0.2980 N   0  0  0  0  0  0  0  0  0  0  0  0
    4.9580    0.5310    0.5900 C   0  0  0  0  0  0  0  0  0  0  0  0
    5.7810   -0.7140    0.3370 C   0  0  0  0  0  0  0  0  0  0  0  0
    4.8230   -1.7180    0.7120 O   0  0  0  0  0  0  0  0  0  0  0  0
  1  2  1  0
  2  3  2  0
  2  8  1  0
  3  4  1  0
  4  5  2  0
  4  6  1  6
  6  7  1  0
  7  8  2  0
  8  9  1  0
  9 10  1  0
 10 11  1  0
 11 12  2  0
 11 13  1  0
 13 14  1  0
 13 17  2  0
 14 15  2  0
 15 16  1  0
 15 20  1  0
 16 17  1  0
 16 18  1  0
 18 19  1  0
 19 20  1  0
M  END
