
     RDKit          3D

 22 23  0  0  0  0  0  0  0  0999 V2000
    4.9190    2.7740   -0.9710 O   0  0  0  0  0  0  0  0  0  0  0  0
    3.7450    2.3350   -0.9330 C   0  0  0  0  0  0  0  0  0  0  0  0
    2.7060    3.2240   -1.1300 O   0  0  0  0  0  0  0  0  0  0  0  0
    3.4570    0.9360   -0.6900 C   0  0  0  0  0  0  0  0  0  0  0  0
    4.4720    0.1110   -0.5060 C   0  0  0  0  0  0  0  0  0  0  0  0
    4.2860   -1.3100   -0.2560 C   0  0  0  0  0  0  0  0  0  0  0  0
    3.0620   -1.7820   -0.2140 C   0  0  0  0  0  0  0  0  0  0  0  0
    1.9380   -0.9380   -0.4060 N   0  0  0  0  0  0  0  0  0  0  0  0
    0.6310   -1.5410   -0.3430 C   0  0  2  0  0  0  0  0  0  0  0  0
   -0.3970   -0.6600   -0.5530 O   0  0  0  0  0  0  0  0  0  0  0  0
   -1.4520   -1.0840    0.2760 C   0  0  2  0  0  0  0  0  0  0  0  0
   -2.4920   -0.0140    0.4220 C   0  0  0  0  0  0  0  0  0  0  0  0
   -2.9820    0.2690   -0.8380 O   0  0  0  0  0  0  0  0  0  0  0  0
   -4.1600    1.4890   -0.6050 P   0  0  0  0  0  0  0  0  0  0  0  0
   -3.0700    2.4980   -0.9620 O   0  0  0  0  0  0  0  0  0  0  0  0
   -5.2010    1.8350   -1.7630 O   0  0  0  0  0  0  0  0  0  0  0  0
   -4.2910    2.0740    0.9410 O   0  0  0  0  0  0  0  0  0  0  0  0
   -0.7070   -1.3340    1.5730 C   0  0  1  0  0  0  0  0  0  0  0  0
   -1.4410   -2.0360    2.4970 O   0  0  0  0  0  0  0  0  0  0  0  0
    0.4680   -2.1510    1.0200 C   0  0  1  0  0  0  0  0  0  0  0  0
    0.0100   -3.4460    0.8600 O   0  0  0  0  0  0  0  0  0  0  0  0
    2.0570    0.4770   -0.6570 C   0  0  0  0  0  0  0  0  0  0  0  0
  1  2  2  0
  2  3  1  0
  2  4  1  0
  4  5  2  0
  4 22  1  0
  5  6  1  0
  6  7  2  0
  7  8  1  0
  9  8  1  1
  8 22  1  0
  9 10  1  0
  9 20  1  0
 10 11  1  0
 11 12  1  1
 11 18  1  0
 12 13  1  0
 13 14  1  0
 14 15  1  0
 14 16  1  0
 14 17  1  0
 18 19  1  1
 18 20  1  0
 20 21  1  6
M  END
