
     RDKit          3D

 23 24  0  0  0  0  0  0  0  0999 V2000
   -1.8210   -2.0950    1.3040 C   0  0  0  0  0  0  0  0  0  0  0  0
   -1.2900   -1.7620   -0.0830 C   0  0  2  0  0  0  0  0  0  0  0  0
   -2.0700   -2.5820   -1.0330 N   0  0  0  0  0  0  0  0  0  0  0  0
    0.1220   -2.2100   -0.2630 C   0  0  0  0  0  0  0  0  0  0  0  0
    1.0740   -1.6140    0.6610 N   0  0  0  0  0  0  0  0  0  0  0  0
    1.3920   -2.1510    1.9200 C   0  0  0  0  0  0  0  0  0  0  0  0
    0.9080   -3.2250    2.4440 O   0  0  0  0  0  0  0  0  0  0  0  0
    2.3860   -1.2760    2.5600 C   0  0  0  0  0  0  0  0  0  0  0  0
    2.6280   -0.2040    1.5250 C   0  0  0  0  0  0  0  0  0  0  0  0
    3.5290    0.8530    1.6790 C   0  0  0  0  0  0  0  0  0  0  0  0
    3.5840    1.9030    0.3490 S   0  0  0  0  0  0  0  0  0  0  0  0
    2.5260    1.4550   -0.9060 C   0  0  0  0  0  0  0  0  0  0  0  0
    2.4110    2.1360   -2.0330 N   0  0  0  0  0  0  0  0  0  0  0  0
    3.2050    3.2820   -2.1910 N   0  0  0  0  0  0  0  0  0  0  0  0
    1.8170    0.3680   -0.6800 N   0  0  0  0  0  0  0  0  0  0  0  0
    1.8440   -0.4140    0.4290 C   0  0  0  0  0  0  0  0  0  0  0  0
   -1.5650   -0.3570   -0.3970 C   0  0  0  0  0  0  0  0  0  0  0  0
   -1.0970    0.5340    0.3530 O   0  0  0  0  0  0  0  0  0  0  0  0
   -2.3180    0.0740   -1.4820 O   0  0  0  0  0  0  0  0  0  0  0  0
   -2.5510    1.3580   -1.7440 O   0  0  0  0  0  0  0  0  0  0  0  0
   -3.7970    1.7020   -1.6690 O   0  0  0  0  0  0  0  0  0  0  0  0
   -3.9180    3.1420   -0.7080 P   0  0  0  0  0  0  0  0  0  0  0  0
   -5.0960    4.2320   -1.3740 O   0  0  0  0  0  0  0  0  0  0  0  0
  2  1  1  1
  2  3  1  0
  2  4  1  0
  2 17  1  0
  4  5  1  0
  5  6  1  0
  5 16  1  0
  6  7  2  0
  6  8  1  0
  8  9  1  0
  9 10  2  0
  9 16  1  0
 10 11  1  0
 11 12  1  0
 12 13  2  3
 12 15  1  0
 13 14  1  0
 15 16  2  0
 17 18  2  0
 17 19  1  0
 19 20  1  0
 20 21  1  0
 21 22  1  0
 22 23  1  0
M  END
