
     RDKit          3D

 23 24  0  0  0  0  0  0  0  0999 V2000
   -2.3380    1.8820   -1.9290 N   0  0  0  0  0  0  0  0  0  0  0  0
   -1.9490    0.6070   -1.3050 C   0  0  1  0  0  0  0  0  0  0  0  0
   -2.9920    0.1490   -0.3970 C   0  0  0  0  0  0  0  0  0  0  0  0
   -4.0710    0.8400   -0.2380 N   0  0  0  0  0  0  0  0  0  0  0  0
   -5.1120    0.4610    0.6150 N   0  0  0  0  0  0  0  0  0  0  0  0
   -5.2700   -0.9170    1.0380 C   0  0  0  0  0  0  0  0  0  0  0  0
   -3.9070   -1.4850    1.2220 C   0  0  0  0  0  0  0  0  0  0  0  0
   -3.6740   -2.3230    2.1310 O   0  0  0  0  0  0  0  0  0  0  0  0
   -2.8730   -1.0490    0.3350 N   0  0  0  0  0  0  0  0  0  0  0  0
   -1.7230   -0.2660   -2.3650 O   0  0  0  0  0  0  0  0  0  0  0  0
   -1.0160    0.3730   -3.3720 C   0  0  0  0  0  0  0  0  0  0  0  0
   -0.1730    1.5030   -2.8360 C   0  0  0  0  0  0  0  0  0  0  0  0
    0.1020    2.5140   -3.5480 O   0  0  0  0  0  0  0  0  0  0  0  0
    0.2770    1.3380   -1.4920 N   0  0  0  0  0  0  0  0  0  0  0  0
   -0.6340    0.8700   -0.6690 C   0  0  0  0  0  0  0  0  0  0  0  0
   -0.3490    0.6560    0.6700 O   0  0  0  0  0  0  0  0  0  0  0  0
    1.0090    0.4870    1.0920 C   0  0  0  0  0  0  0  0  0  0  0  0
    1.7390   -0.9480    0.2610 S   0  0  0  0  0  0  0  0  0  0  0  0
    3.4360   -1.2300    0.7440 C   0  0  0  0  0  0  0  0  0  0  0  0
    4.3710   -0.1270    0.2960 C   0  0  0  0  0  0  0  0  0  0  0  0
    6.0840   -0.5710    0.8730 P   0  0  0  0  0  0  0  0  0  0  0  0
    6.6820   -1.9100   -0.0340 O   0  0  0  0  0  0  0  0  0  0  0  0
    7.1800    0.7560    0.6710 O   0  0  0  0  0  0  0  0  0  0  0  0
  2  1  1  6
  2  3  1  0
  2 10  1  0
  2 15  1  0
  3  4  2  0
  3  9  1  0
  4  5  1  0
  5  6  1  0
  6  7  1  0
  7  8  2  0
  7  9  1  0
 10 11  1  0
 11 12  1  0
 12 13  2  0
 12 14  1  0
 14 15  2  0
 15 16  1  0
 16 17  1  0
 17 18  1  0
 18 19  1  0
 19 20  1  0
 20 21  1  0
 21 22  1  0
 21 23  1  0
M  END
