
     RDKit          3D

 23 24  0  0  0  0  0  0  0  0999 V2000
   -3.1800    3.2950    1.1110 O   0  0  0  0  0  0  0  0  0  0  0  0
   -3.5630    3.1260   -0.0920 C   0  0  0  0  0  0  0  0  0  0  0  0
   -4.6230    3.9070   -0.4990 O   0  0  0  0  0  0  0  0  0  0  0  0
   -2.8920    2.1420   -0.9770 C   0  0  0  0  0  0  0  0  0  0  0  0
   -1.7910    1.4820   -0.2010 C   0  0  0  0  0  0  0  0  0  0  0  0
   -1.6000    1.8210    0.9930 O   0  0  0  0  0  0  0  0  0  0  0  0
   -0.9860    0.5240   -0.7440 O   0  0  0  0  0  0  0  0  0  0  0  0
    0.0870   -0.1180   -0.0260 C   0  0  2  0  0  0  0  0  0  0  0  0
    1.0740    0.9230    0.3290 C   0  0  0  0  0  0  0  0  0  0  0  0
    2.2730    0.5600    0.9970 N   0  0  0  0  0  0  0  0  0  0  0  0
    3.3630   -0.1970    0.5270 C   0  0  0  0  0  0  0  0  0  0  0  0
    3.3450   -0.6230   -0.6450 O   0  0  0  0  0  0  0  0  0  0  0  0
    4.5510   -0.5060    1.4040 C   0  0  0  0  0  0  0  0  0  0  0  0
    5.4280   -1.2600    0.6340 O   0  0  0  0  0  0  0  0  0  0  0  0
    0.5240   -1.3330   -0.7590 C   0  0  0  0  0  0  0  0  0  0  0  0
   -0.6180   -2.2590   -0.8730 N   0  0  0  0  0  0  0  0  0  0  0  0
   -0.8840   -3.1420   -1.8290 C   0  0  0  0  0  0  0  0  0  0  0  0
   -2.0370   -3.7770   -1.4790 N   0  0  0  0  0  0  0  0  0  0  0  0
   -2.4750   -3.2980   -0.3320 N   0  0  0  0  0  0  0  0  0  0  0  0
   -1.5840   -2.3500    0.0390 C   0  0  0  0  0  0  0  0  0  0  0  0
   -1.6150   -1.5120    1.2070 N   0  0  0  0  0  0  0  0  0  0  0  0
   -0.5360   -0.5780    1.3090 C   0  0  0  0  0  0  0  0  0  0  0  0
    0.0150   -0.0210    2.7070 S   0  0  0  0  0  0  0  0  0  0  0  0
  1  2  2  0
  2  3  1  0
  2  4  1  0
  4  5  1  0
  5  6  2  0
  5  7  1  0
  7  8  1  0
  8  9  1  1
  8 15  1  0
  8 22  1  0
  9 10  1  0
 10 11  1  0
 11 12  2  0
 11 13  1  0
 13 14  1  0
 15 16  1  0
 16 17  1  0
 16 20  1  0
 17 18  2  0
 18 19  1  0
 19 20  2  0
 20 21  1  0
 21 22  1  0
 22 23  2  0
M  END
