
     RDKit          3D

 13 14  0  0  0  0  0  0  0  0999 V2000
   -2.5290    2.1350    0.1440 C   0  0  0  0  0  0  0  0  0  0  0  0
   -1.1300    2.0040    0.2660 N   0  0  0  0  0  0  0  0  0  0  0  0
   -0.3470    1.0310    0.2110 C   0  0  0  0  0  0  0  0  0  0  0  0
    1.0860    1.2340    0.3830 C   0  0  0  0  0  0  0  0  0  0  0  0
    1.9550    0.2450    0.3340 C   0  0  0  0  0  0  0  0  0  0  0  0
    3.4190    0.4870    0.5150 C   0  0  0  0  0  0  0  0  0  0  0  0
    1.5200   -1.1020    0.1050 C   0  0  0  0  0  0  0  0  0  0  0  0
    0.2390   -1.3860   -0.0620 C   0  0  0  0  0  0  0  0  0  0  0  0
   -0.4760   -2.6350   -0.3060 C   0  0  0  0  0  0  0  0  0  0  0  0
    0.0920   -3.7580   -0.4030 O   0  0  0  0  0  0  0  0  0  0  0  0
   -1.8450   -2.3080   -0.3980 N   0  0  0  0  0  0  0  0  0  0  0  0
   -1.9740   -0.9060   -0.2190 C   0  0  0  0  0  0  0  0  0  0  0  0
   -0.7940   -0.3280   -0.0210 C   0  0  0  0  0  0  0  0  0  0  0  0
  1  2  1  0
  2  3  2  3
  3  4  1  0
  3 13  1  0
  4  5  2  0
  5  6  1  0
  5  7  1  0
  7  8  2  0
  8  9  1  0
  8 13  1  0
  9 10  2  0
  9 11  1  0
 11 12  1  0
 12 13  2  0
M  END
