
     RDKit          3D

 13 14  0  0  0  0  0  0  0  0999 V2000
   -2.4140    1.9830    1.2860 O   0  0  0  0  0  0  0  0  0  0  0  0
   -1.2050    1.2870    1.0000 C   0  0  0  0  0  0  0  0  0  0  0  0
   -1.5760   -0.0370    0.4100 C   0  0  1  0  0  0  0  0  0  0  0  0
   -2.2720    0.1690   -0.9330 C   0  0  0  0  0  0  0  0  0  0  0  0
   -2.1700   -1.1850   -1.5700 C   0  0  0  0  0  0  0  0  0  0  0  0
   -1.3230   -1.9800   -0.6140 C   0  0  0  0  0  0  0  0  0  0  0  0
   -0.5290   -0.9490    0.1170 N   0  0  0  0  0  0  0  0  0  0  0  0
    0.4930   -0.5510   -0.7780 C   0  0  0  0  0  0  0  0  0  0  0  0
    1.7120    0.0440   -0.1600 C   0  0  0  0  0  0  0  0  0  0  0  0
    2.9540   -0.4690   -0.3170 C   0  0  0  0  0  0  0  0  0  0  0  0
    3.8980    0.3750    0.4320 C   0  0  0  0  0  0  0  0  0  0  0  0
    3.0220    1.4070    1.0310 C   0  0  0  0  0  0  0  0  0  0  0  0
    1.8320    1.1590    0.6570 N   0  0  0  0  0  0  0  0  0  0  0  0
  1  2  1  0
  3  2  1  6
  3  4  1  0
  3  7  1  0
  4  5  1  0
  5  6  1  0
  6  7  1  0
  7  8  1  0
  8  9  1  0
  9 10  2  0
  9 13  1  0
 10 11  1  0
 11 12  1  0
 12 13  2  0
M  END
