
     RDKit          3D

 13 14  0  0  0  0  0  0  0  0999 V2000
    3.5540   -0.5900    0.5110 C   0  0  0  0  0  0  0  0  0  0  0  0
    2.1530   -1.0560    0.4840 C   0  0  0  0  0  0  0  0  0  0  0  0
    1.8570   -2.2720    0.7330 O   0  0  0  0  0  0  0  0  0  0  0  0
    1.1010   -0.0900    0.1630 C   0  0  0  0  0  0  0  0  0  0  0  0
    1.2350    1.1900   -0.1160 C   0  0  0  0  0  0  0  0  0  0  0  0
    2.4980    1.9010   -0.1580 N   0  0  0  0  0  0  0  0  0  0  0  0
   -0.0480    1.7440   -0.3710 N   0  0  0  0  0  0  0  0  0  0  0  0
   -1.0350    0.8390    0.1620 C   0  0  1  0  0  0  0  0  0  0  0  0
   -2.2650    0.7660   -0.7090 C   0  0  0  0  0  0  0  0  0  0  0  0
   -3.1440   -0.3250   -0.1790 C   0  0  0  0  0  0  0  0  0  0  0  0
   -2.4490   -1.6220    0.0230 C   0  0  0  0  0  0  0  0  0  0  0  0
   -0.9890   -1.5750    0.0540 C   0  0  0  0  0  0  0  0  0  0  0  0
   -0.3360   -0.4610    0.1170 C   0  0  0  0  0  0  0  0  0  0  0  0
  1  2  1  0
  2  3  2  0
  2  4  1  0
  4  5  2  0
  4 13  1  0
  5  6  1  0
  5  7  1  0
  7  8  1  0
  8  9  1  6
  8 13  1  0
  9 10  1  0
 10 11  1  0
 11 12  1  0
 12 13  2  0
M  END
