
     RDKit          3D

 13 13  0  0  0  0  0  0  0  0999 V2000
   -0.2540    1.9140    2.0320 C   0  0  0  0  0  0  0  0  0  0  0  0
   -0.3400    1.2740    0.8980 C   0  0  0  0  0  0  0  0  0  0  0  0
    0.6530    1.5660   -0.1990 C   0  0  0  0  0  0  0  0  0  0  0  0
    0.9390    0.3430   -0.9200 N   0  0  0  0  0  0  0  0  0  0  0  0
    2.2790    0.1140   -1.3970 C   0  0  0  0  0  0  0  0  0  0  0  0
    3.1700   -0.1150   -0.1950 C   0  0  0  0  0  0  0  0  0  0  0  0
    4.4520   -0.3380   -0.6970 O   0  0  0  0  0  0  0  0  0  0  0  0
   -0.0530   -0.6340   -1.1660 C   0  0  0  0  0  0  0  0  0  0  0  0
   -1.1880   -0.7060   -0.4430 C   0  0  0  0  0  0  0  0  0  0  0  0
   -2.1160   -1.7780   -0.8260 C   0  0  0  0  0  0  0  0  0  0  0  0
   -1.3660    0.2570    0.6200 C   0  0  0  0  0  0  0  0  0  0  0  0
   -2.4500    0.2380    1.3350 C   0  0  0  0  0  0  0  0  0  0  0  0
   -3.4940   -0.6900    1.1570 N   0  0  0  0  0  0  0  0  0  0  0  0
  1  2  2  0
  2  3  1  0
  2 11  1  0
  3  4  1  0
  4  5  1  0
  4  8  1  0
  5  6  1  0
  6  7  1  0
  8  9  2  0
  9 10  1  0
  9 11  1  0
 11 12  2  3
 12 13  1  0
M  END
