
     RDKit          3D

 19 21  0  0  0  0  0  0  0  0999 V2000
    5.2800   -0.1600   -0.6130 N   0  0  0  0  0  0  0  0  0  0  0  0
    4.0060   -0.8100   -0.4760 C   0  0  0  0  0  0  0  0  0  0  0  0
    3.7780   -2.1150   -0.6420 N   0  0  0  0  0  0  0  0  0  0  0  0
    2.5600   -2.6410   -0.4780 C   0  0  0  0  0  0  0  0  0  0  0  0
    1.4830   -1.9470   -0.1330 N   0  0  0  0  0  0  0  0  0  0  0  0
    1.6210   -0.5500    0.0600 C   0  0  0  0  0  0  0  0  0  0  0  0
    0.7100    0.3790    0.2610 C   0  0  0  0  0  0  0  0  0  0  0  0
   -0.6750    0.4380    0.6750 C   0  0  2  0  0  0  0  0  0  0  0  0
   -1.4090   -0.5600    1.0320 O   0  0  0  0  0  0  0  0  0  0  0  0
   -2.7680   -0.2240    0.8700 C   0  0  2  0  0  0  0  0  0  0  0  0
   -3.3640   -1.4090    0.1530 C   0  0  0  0  0  0  0  0  0  0  0  0
   -4.6790   -1.3070   -0.1940 O   0  0  0  0  0  0  0  0  0  0  0  0
   -2.8440    1.0730    0.0840 C   0  0  1  0  0  0  0  0  0  0  0  0
   -3.0000    2.1300    0.9810 O   0  0  0  0  0  0  0  0  0  0  0  0
   -1.4730    1.1420   -0.5070 C   0  0  1  0  0  0  0  0  0  0  0  0
   -0.9460    2.3210   -0.8860 O   0  0  0  0  0  0  0  0  0  0  0  0
    1.4170    1.6310    0.2010 N   0  0  0  0  0  0  0  0  0  0  0  0
    2.7160    1.2700   -0.0230 N   0  0  0  0  0  0  0  0  0  0  0  0
    2.8950   -0.0180   -0.1200 C   0  0  0  0  0  0  0  0  0  0  0  0
  1  2  1  0
  2  3  2  0
  2 19  1  0
  3  4  1  0
  4  5  2  0
  5  6  1  0
  6  7  1  0
  6 19  2  0
  8  7  1  6
  7 17  2  0
  8  9  1  0
  8 15  1  0
  9 10  1  0
 10 11  1  6
 10 13  1  0
 11 12  1  0
 13 14  1  1
 13 15  1  0
 15 16  1  1
 17 18  1  0
 18 19  1  0
M  END
