
     RDKit          3D

 37 40  0  0  0  0  0  0  0  0999 V2000
    6.6630    1.2920    1.8420 C   0  0  0  0  0  0  0  0  0  0  0  0
    5.4170    0.5510    1.3430 C   0  0  0  0  0  0  0  0  0  0  0  0
    5.2760   -0.5650    1.8890 N   0  0  0  0  0  0  0  0  0  0  0  0
    4.6500    1.2570    0.3500 C   0  0  0  0  0  0  0  0  0  0  0  0
    3.5600    0.8030   -0.2070 C   0  0  0  0  0  0  0  0  0  0  0  0
    2.9980   -0.4830    0.1360 C   0  0  0  0  0  0  0  0  0  0  0  0
    3.4980   -1.2750    0.9720 O   0  0  0  0  0  0  0  0  0  0  0  0
    1.7930   -1.0220   -0.4320 N   0  0  0  0  0  0  0  0  0  0  0  0
    1.2120   -2.2770   -0.1410 C   0  0  0  0  0  0  0  0  0  0  0  0
    1.9260   -3.3480    0.3640 C   0  0  0  0  0  0  0  0  0  0  0  0
    1.3360   -4.5920    0.5230 C   0  0  0  0  0  0  0  0  0  0  0  0
    0.0410   -4.7790    0.1820 C   0  0  0  0  0  0  0  0  0  0  0  0
   -0.7100   -6.3400    0.3760 Cl  0  0  0  0  0  0  0  0  0  0  0  0
   -0.6750   -3.6960   -0.3260 C   0  0  0  0  0  0  0  0  0  0  0  0
   -0.1330   -2.4480   -0.4980 C   0  0  0  0  0  0  0  0  0  0  0  0
   -0.8830   -1.3540   -0.9290 N   0  0  1  0  0  0  0  0  0  0  0  0
   -2.2210   -1.7930   -1.3700 C   0  0  0  0  0  0  0  0  0  0  0  0
   -3.2010   -2.0350   -0.2890 C   0  0  0  0  0  0  0  0  0  0  0  0
   -4.2280   -0.8940   -0.1910 C   0  0  0  0  0  0  0  0  0  0  0  0
   -3.5470    0.3880   -0.1830 N   0  0  0  0  0  0  0  0  0  0  0  0
   -4.3540    1.5320   -0.0350 C   0  0  0  0  0  0  0  0  0  0  0  0
   -4.2000    2.3640    1.0470 C   0  0  0  0  0  0  0  0  0  0  0  0
   -4.9970    3.5030    1.2050 C   0  0  0  0  0  0  0  0  0  0  0  0
   -4.8580    4.3330    2.2640 F   0  0  0  0  0  0  0  0  0  0  0  0
   -5.9580    3.8050    0.2630 C   0  0  0  0  0  0  0  0  0  0  0  0
   -6.1190    2.9780   -0.8240 C   0  0  0  0  0  0  0  0  0  0  0  0
   -5.3090    1.8450   -0.9590 C   0  0  0  0  0  0  0  0  0  0  0  0
   -5.4730    1.0390   -2.0320 F   0  0  0  0  0  0  0  0  0  0  0  0
   -2.1340    0.5720   -0.3050 C   0  0  0  0  0  0  0  0  0  0  0  0
   -1.8200    1.6550   -0.8580 O   0  0  0  0  0  0  0  0  0  0  0  0
   -1.0790   -0.3690    0.1500 C   0  0  0  0  0  0  0  0  0  0  0  0
    2.9850    1.6480   -1.2790 C   0  0  0  0  0  0  0  0  0  0  0  0
    1.8530    1.2810   -1.9140 F   0  0  0  0  0  0  0  0  0  0  0  0
    3.5120    2.7820   -1.6780 C   0  0  0  0  0  0  0  0  0  0  0  0
    2.9260    3.4930   -2.6560 F   0  0  0  0  0  0  0  0  0  0  0  0
    4.6590    3.2250   -1.0950 O   0  0  0  0  0  0  0  0  0  0  0  0
    5.1800    2.6580    0.0370 C   0  0  0  0  0  0  0  0  0  0  0  0
  1  2  1  0
  2  3  2  0
  2  4  1  0
  4  5  2  0
  4 37  1  0
  5  6  1  0
  5 32  1  0
  6  7  2  0
  6  8  1  0
  8  9  1  0
  9 10  2  0
  9 15  1  0
 10 11  1  0
 11 12  2  0
 12 13  1  0
 12 14  1  0
 14 15  2  0
 16 15  1  1
 16 17  1  0
 16 31  1  0
 17 18  1  0
 18 19  1  0
 19 20  1  0
 20 21  1  0
 20 29  1  0
 21 22  2  0
 21 27  1  0
 22 23  1  0
 23 24  1  0
 23 25  2  0
 25 26  1  0
 26 27  2  0
 27 28  1  0
 29 30  2  0
 29 31  1  0
 32 33  1  0
 32 34  2  0
 34 35  1  0
 34 36  1  0
 36 37  1  0
M  CHG  1  16   1
M  END
