
     RDKit          3D

 37 40  0  0  0  0  0  0  0  0999 V2000
    4.4770   -2.5930   -0.7270 N   0  0  0  0  0  0  0  0  0  0  0  0
    3.7400   -1.4720   -1.2570 C   0  0  0  0  0  0  0  0  0  0  0  0
    2.2620   -1.6320   -0.8870 C   0  0  2  0  0  0  0  0  0  0  0  0
    1.4650   -0.4990   -1.4280 C   0  0  0  0  0  0  0  0  0  0  0  0
    0.9250    0.1910   -0.2530 N   0  0  0  0  0  0  0  0  0  0  0  0
   -0.1910    1.0390   -0.1500 C   0  0  0  0  0  0  0  0  0  0  0  0
   -1.5620    0.6440   -0.4000 C   0  0  0  0  0  0  0  0  0  0  0  0
   -2.4790    1.7310   -0.2600 C   0  0  0  0  0  0  0  0  0  0  0  0
   -1.9760    3.0050    0.0830 N   0  0  0  0  0  0  0  0  0  0  0  0
   -1.6730    3.9270   -0.9900 C   0  0  0  0  0  0  0  0  0  0  0  0
   -0.7830    5.0640   -0.5430 C   0  0  0  0  0  0  0  0  0  0  0  0
   -1.2760    5.6390    0.7490 C   0  0  0  0  0  0  0  0  0  0  0  0
   -1.0880    4.6170    1.8400 C   0  0  0  0  0  0  0  0  0  0  0  0
   -1.7960    3.3680    1.4250 C   0  0  0  0  0  0  0  0  0  0  0  0
   -2.2320    2.6440    2.3540 O   0  0  0  0  0  0  0  0  0  0  0  0
   -3.8250    1.5570   -0.4630 C   0  0  0  0  0  0  0  0  0  0  0  0
   -4.3470    0.3400   -0.8070 C   0  0  0  0  0  0  0  0  0  0  0  0
   -3.5070   -0.7120   -0.9480 C   0  0  0  0  0  0  0  0  0  0  0  0
   -3.9480   -1.9610   -1.2890 F   0  0  0  0  0  0  0  0  0  0  0  0
   -2.1260   -0.5230   -0.7370 C   0  0  0  0  0  0  0  0  0  0  0  0
   -1.3770   -1.7290   -0.9220 O   0  0  0  0  0  0  0  0  0  0  0  0
   -1.6660   -2.7970   -0.0700 C   0  0  0  0  0  0  0  0  0  0  0  0
   -2.5470   -2.5780    0.8170 O   0  0  0  0  0  0  0  0  0  0  0  0
   -1.0650   -4.1060   -0.1100 C   0  0  0  0  0  0  0  0  0  0  0  0
   -1.3510   -5.0570    0.8450 C   0  0  0  0  0  0  0  0  0  0  0  0
   -0.8020   -6.3320    0.7980 C   0  0  0  0  0  0  0  0  0  0  0  0
    0.0370   -6.6640   -0.2040 N   0  0  0  0  0  0  0  0  0  0  0  0
    0.3430   -5.7700   -1.1560 C   0  0  0  0  0  0  0  0  0  0  0  0
   -0.2080   -4.4830   -1.1140 C   0  0  0  0  0  0  0  0  0  0  0  0
    1.8190   -0.1040    0.8140 C   0  0  0  0  0  0  0  0  0  0  0  0
    2.3550    0.5700    1.7910 C   0  0  0  0  0  0  0  0  0  0  0  0
    2.2170    1.9880    2.1650 C   0  0  2  0  0  0  0  0  0  0  0  0
    1.1180    2.1860    2.9370 F   0  0  0  0  0  0  0  0  0  0  0  0
    2.3260    3.0210    0.7310 Cl  0  0  0  0  0  0  0  0  0  0  0  0
    2.1910   -1.5740    0.5980 C   0  0  1  0  0  0  0  0  0  0  0  0
    1.2190   -2.3530    1.0960 F   0  0  0  0  0  0  0  0  0  0  0  0
    3.3850   -1.8570    1.2370 F   0  0  0  0  0  0  0  0  0  0  0  0
  1  2  1  0
  3  2  1  1
  3  4  1  0
  3 35  1  0
  4  5  1  0
  5  6  1  0
  5 30  1  0
  6  7  1  0
  7  8  1  0
  7 20  2  0
  8  9  1  0
  8 16  2  0
  9 10  1  0
  9 14  1  0
 10 11  1  0
 11 12  1  0
 12 13  1  0
 13 14  1  0
 14 15  2  0
 16 17  1  0
 17 18  2  0
 18 19  1  0
 18 20  1  0
 20 21  1  0
 21 22  1  0
 22 23  2  0
 22 24  1  0
 24 25  2  0
 24 29  1  0
 25 26  1  0
 26 27  2  0
 27 28  1  0
 28 29  2  0
 30 31  2  3
 30 35  1  0
 31 32  1  0
 32 33  1  6
 32 34  1  0
 35 36  1  1
 35 37  1  0
M  CHG  1   1   1
M  END
