
     RDKit          3D

 37 39  0  0  0  0  0  0  0  0999 V2000
    1.9010   -4.8240    1.7210 C   0  0  0  0  0  0  0  0  0  0  0  0
    0.6400   -4.1030    1.5110 C   0  0  0  0  0  0  0  0  0  0  0  0
   -0.2760   -4.2450    2.2740 O   0  0  0  0  0  0  0  0  0  0  0  0
    0.5010   -3.1920    0.3430 C   0  0  1  0  0  0  0  0  0  0  0  0
   -0.8820   -2.7650    0.1400 C   0  0  0  0  0  0  0  0  0  0  0  0
   -1.9720   -3.8490    0.1110 C   0  0  0  0  0  0  0  0  0  0  0  0
   -1.2330   -1.5560   -0.0130 N   0  0  0  0  0  0  0  0  0  0  0  0
   -0.3490   -0.4650   -0.0110 C   0  0  0  0  0  0  0  0  0  0  0  0
   -0.6930    0.7880   -0.1630 C   0  0  0  0  0  0  0  0  0  0  0  0
   -2.0330    1.1980   -0.3500 C   0  0  0  0  0  0  0  0  0  0  0  0
   -2.1130    2.4420   -0.4740 O   0  0  0  0  0  0  0  0  0  0  0  0
   -3.3690    1.0880   -0.4900 N   0  0  1  0  0  0  0  0  0  0  0  0
   -4.1780    1.8730    0.5060 C   0  0  0  0  0  0  0  0  0  0  0  0
   -5.6130    1.4060    0.4660 C   0  0  1  0  0  0  0  0  0  0  0  0
   -6.3810    2.2870    1.4270 C   0  0  0  0  0  0  0  0  0  0  0  0
   -6.2270    1.5500   -0.8940 C   0  0  0  0  0  0  0  0  0  0  0  0
   -5.3290    1.1120   -2.0020 C   0  0  2  0  0  0  0  0  0  0  0  0
   -5.4160   -0.3600   -2.3080 C   0  0  0  0  0  0  0  0  0  0  0  0
   -3.9330    1.5990   -1.7730 C   0  0  0  0  0  0  0  0  0  0  0  0
    1.0690   -0.8060    0.1840 C   0  0  0  0  0  0  0  0  0  0  0  0
    2.1960    0.0030    0.2340 C   0  0  0  0  0  0  0  0  0  0  0  0
    3.2800   -0.8080    0.4300 C   0  0  0  0  0  0  0  0  0  0  0  0
    4.6700   -0.3350    0.5390 C   0  0  0  0  0  0  0  0  0  0  0  0
    5.6080   -1.1490    0.7290 O   0  0  0  0  0  0  0  0  0  0  0  0
    4.9670    1.0340    0.4330 N   0  0  0  0  0  0  0  0  0  0  0  0
    6.3380    1.5080    0.5460 C   0  0  0  0  0  0  0  0  0  0  0  0
    6.7940    2.0770   -0.5400 C   0  0  0  0  0  0  0  0  0  0  0  0
    8.1140    2.6220   -0.6810 C   0  0  0  0  0  0  0  0  0  0  0  0
    8.4960    3.1940   -1.8380 C   0  0  0  0  0  0  0  0  0  0  0  0
    9.7180    3.6990   -1.9700 F   0  0  0  0  0  0  0  0  0  0  0  0
    7.3550    3.2490   -3.1470 Cl  0  0  0  0  0  0  0  0  0  0  0  0
    7.0120    1.3080    1.8260 C   0  0  2  0  0  0  0  0  0  0  0  0
    7.4460    0.0200    1.9670 F   0  0  0  0  0  0  0  0  0  0  0  0
    6.0090    1.5080    2.8080 F   0  0  0  0  0  0  0  0  0  0  0  0
    8.0190    2.2010    2.0050 F   0  0  0  0  0  0  0  0  0  0  0  0
    2.8140   -2.0460    0.4940 N   0  0  0  0  0  0  0  0  0  0  0  0
    1.4590   -2.0950    0.3470 C   0  0  0  0  0  0  0  0  0  0  0  0
  1  2  1  0
  2  3  2  0
  4  2  1  1
  4  5  1  0
  4 37  1  0
  5  6  1  0
  5  7  2  0
  7  8  1  0
  8  9  2  3
  8 20  1  0
  9 10  1  0
 10 11  2  0
 12 10  1  6
 12 13  1  0
 12 19  1  0
 13 14  1  0
 14 15  1  1
 14 16  1  0
 16 17  1  0
 17 18  1  1
 17 19  1  0
 20 21  1  0
 20 37  2  0
 21 22  2  0
 22 23  1  0
 22 36  1  0
 23 24  2  0
 23 25  1  0
 25 26  1  0
 26 27  2  3
 26 32  1  0
 27 28  1  0
 28 29  2  3
 29 30  1  0
 29 31  1  0
 32 33  1  6
 32 34  1  0
 32 35  1  0
 36 37  1  0
M  CHG  1  12   1
M  END
