
     RDKit          3D

 37 40  0  0  0  0  0  0  0  0999 V2000
   -5.4260   -0.2130    1.5050 C   0  0  0  0  0  0  0  0  0  0  0  0
   -4.8670    0.6860    0.5630 N   0  0  1  0  0  0  0  0  0  0  0  0
   -3.8010    1.5260    1.1580 C   0  0  0  0  0  0  0  0  0  0  0  0
   -3.3270    2.2480   -0.1240 C   0  0  0  0  0  0  0  0  0  0  0  0
   -3.1820    1.0060   -1.0260 C   0  0  1  0  0  0  0  0  0  0  0  0
   -1.8010    0.5010   -0.6400 C   0  0  0  0  0  0  0  0  0  0  0  0
   -1.6220   -0.6280   -0.1250 O   0  0  0  0  0  0  0  0  0  0  0  0
   -0.6630    1.3150   -0.8570 N   0  0  0  0  0  0  0  0  0  0  0  0
    0.6720    0.9620   -0.5430 C   0  0  0  0  0  0  0  0  0  0  0  0
    1.6480    0.8750   -1.4630 C   0  0  0  0  0  0  0  0  0  0  0  0
    2.9060    0.4940   -0.8320 C   0  0  0  0  0  0  0  0  0  0  0  0
    4.1940    0.2420   -1.1150 N   0  0  0  0  0  0  0  0  0  0  0  0
    4.8060   -0.0730    0.0620 C   0  0  0  0  0  0  0  0  0  0  0  0
    3.9020   -0.0190    1.0920 C   0  0  0  0  0  0  0  0  0  0  0  0
    4.1420   -0.2800    2.4940 C   0  0  0  0  0  0  0  0  0  0  0  0
    5.2260   -0.6050    3.0160 N   0  0  0  0  0  0  0  0  0  0  0  0
    6.5010   -0.8210    2.5020 C   0  0  0  0  0  0  0  0  0  0  0  0
    7.3970    0.2290    2.4240 C   0  0  0  0  0  0  0  0  0  0  0  0
    8.6640    0.0710    1.9380 C   0  0  0  0  0  0  0  0  0  0  0  0
    9.1060   -1.1540    1.5000 C   0  0  0  0  0  0  0  0  0  0  0  0
    8.2180   -2.2130    1.5730 C   0  0  0  0  0  0  0  0  0  0  0  0
    8.6230   -3.4660    1.1420 O   0  0  0  0  0  0  0  0  0  0  0  0
    6.9440   -2.0670    2.0590 C   0  0  0  0  0  0  0  0  0  0  0  0
    2.6830    0.3460    0.5110 C   0  0  0  0  0  0  0  0  0  0  0  0
    1.2790    0.6330    0.7380 C   0  0  0  0  0  0  0  0  0  0  0  0
    0.6830    0.6040    1.8540 O   0  0  0  0  0  0  0  0  0  0  0  0
   -4.2520    0.0860   -0.5940 C   0  0  2  0  0  0  0  0  0  0  0  0
   -5.3010   -0.2290   -1.5990 C   0  0  0  0  0  0  0  0  0  0  0  0
   -5.0690   -0.8430   -2.8920 C   0  0  0  0  0  0  0  0  0  0  0  0
   -3.9550   -1.2340   -3.4260 C   0  0  0  0  0  0  0  0  0  0  0  0
   -2.7350   -1.1690   -2.9120 F   0  0  0  0  0  0  0  0  0  0  0  0
   -4.0310   -1.7910   -4.6910 F   0  0  0  0  0  0  0  0  0  0  0  0
   -6.5590    0.0500   -1.3040 C   0  0  0  0  0  0  0  0  0  0  0  0
   -7.7260   -0.2000   -2.2000 C   0  0  2  0  0  0  0  0  0  0  0  0
   -7.5720    0.4840   -3.3670 F   0  0  0  0  0  0  0  0  0  0  0  0
   -8.8610    0.3150   -1.5290 F   0  0  0  0  0  0  0  0  0  0  0  0
   -7.9540   -1.9410   -2.3870 Cl  0  0  0  0  0  0  0  0  0  0  0  0
  2  1  1  1
  2  3  1  0
  2 27  1  0
  3  4  1  0
  4  5  1  0
  5  6  1  1
  5 27  1  0
  6  7  2  0
  6  8  1  0
  8  9  1  0
  9 10  2  0
  9 25  1  0
 10 11  1  0
 11 12  1  0
 11 24  2  0
 12 13  1  0
 13 14  2  0
 14 15  1  0
 14 24  1  0
 15 16  2  3
 16 17  1  0
 17 18  2  0
 17 23  1  0
 18 19  1  0
 19 20  2  0
 20 21  1  0
 21 22  1  0
 21 23  2  0
 24 25  1  0
 25 26  2  0
 27 28  1  6
 28 29  1  0
 28 33  2  3
 29 30  2  3
 30 31  1  0
 30 32  1  0
 33 34  1  0
 34 35  1  6
 34 36  1  0
 34 37  1  0
M  CHG  1   2   1
M  END
