
     RDKit          3D

 12 12  0  0  0  0  0  0  0  0999 V2000
   -3.3240    0.9050    0.3940 C   0  0  0  0  0  0  0  0  0  0  0  0
   -1.9190    0.8060    0.3660 O   0  0  0  0  0  0  0  0  0  0  0  0
   -1.6170   -0.3850   -0.2570 C   0  0  0  0  0  0  0  0  0  0  0  0
   -0.1240   -0.6100   -0.3490 C   0  0  1  0  0  0  0  0  0  0  0  0
    0.1380   -1.8220   -0.9840 O   0  0  0  0  0  0  0  0  0  0  0  0
    0.4880    0.4790   -1.2100 C   0  0  0  0  0  0  0  0  0  0  0  0
    1.9690    0.1420   -1.3300 C   0  0  0  0  0  0  0  0  0  0  0  0
    2.5280    0.0040    0.0610 C   0  0  1  0  0  0  0  0  0  0  0  0
    3.6420    0.8210    0.2720 O   0  0  0  0  0  0  0  0  0  0  0  0
    1.5830    0.3730    1.0360 O   0  0  0  0  0  0  0  0  0  0  0  0
    0.5490   -0.5780    0.9950 C   0  0  1  0  0  0  0  0  0  0  0  0
   -0.3240   -0.3590    2.0450 O   0  0  0  0  0  0  0  0  0  0  0  0
  1  2  1  0
  2  3  1  0
  3  4  1  0
  4  5  1  6
  4  6  1  0
  4 11  1  0
  6  7  1  0
  7  8  1  0
  8  9  1  6
  8 10  1  0
 10 11  1  0
 11 12  1  1
M  END
