
     RDKit          3D

 13 13  0  0  0  0  0  0  0  0999 V2000
    0.8540    0.3150    1.4920 C   0  0  0  0  0  0  0  0  0  0  0  0
    0.6830    0.0630    0.0020 C   0  0  1  0  0  0  0  0  0  0  0  0
    1.9130    0.3700   -0.7270 C   0  0  0  0  0  0  0  0  0  0  0  0
    2.4860   -0.5350   -1.3850 O   0  0  0  0  0  0  0  0  0  0  0  0
    2.4890    1.6300   -0.7300 O   0  0  0  0  0  0  0  0  0  0  0  0
    0.1660   -1.3290   -0.2800 C   0  0  1  0  0  0  0  0  0  0  0  0
    1.1330   -2.3010   -0.1010 O   0  0  0  0  0  0  0  0  0  0  0  0
   -0.9900   -1.5620    0.6510 C   0  0  0  0  0  0  0  0  0  0  0  0
   -1.8720   -0.5490    0.7580 O   0  0  0  0  0  0  0  0  0  0  0  0
   -1.7830    0.5070   -0.0660 C   0  0  1  0  0  0  0  0  0  0  0  0
   -2.4590    1.5940    0.5410 O   0  0  0  0  0  0  0  0  0  0  0  0
   -0.4400    0.9880   -0.4530 C   0  0  2  0  0  0  0  0  0  0  0  0
   -0.3320    1.0650   -1.8590 O   0  0  0  0  0  0  0  0  0  0  0  0
  2  1  1  1
  2  3  1  0
  2  6  1  0
  2 12  1  0
  3  4  2  0
  3  5  1  0
  6  7  1  1
  6  8  1  0
  8  9  1  0
  9 10  1  0
 10 11  1  1
 10 12  1  0
 12 13  1  6
M  END
