
     RDKit          3D

 13 13  0  0  0  0  0  0  0  0999 V2000
    3.6450   -0.0970    1.3970 O   0  0  0  0  0  0  0  0  0  0  0  0
    2.8670   -0.0130    0.2450 C   0  0  0  0  0  0  0  0  0  0  0  0
    1.4030   -0.3440    0.5630 C   0  0  2  0  0  0  0  0  0  0  0  0
    1.3310   -1.6270    1.0680 O   0  0  0  0  0  0  0  0  0  0  0  0
    0.6380   -0.1560   -0.7020 C   0  0  1  0  0  0  0  0  0  0  0  0
    1.1290   -1.0100   -1.6850 O   0  0  0  0  0  0  0  0  0  0  0  0
   -0.8280   -0.3630   -0.5890 C   0  0  1  0  0  0  0  0  0  0  0  0
   -1.2120   -1.6330   -0.2490 O   0  0  0  0  0  0  0  0  0  0  0  0
   -2.5290   -1.4900    0.1440 C   0  0  0  0  0  0  0  0  0  0  0  0
   -2.7220   -0.2000    0.5700 O   0  0  0  0  0  0  0  0  0  0  0  0
   -1.5000    0.4680    0.4620 C   0  0  2  0  0  0  0  0  0  0  0  0
   -1.6770    1.8960    0.0070 C   0  0  0  0  0  0  0  0  0  0  0  0
   -2.2860    1.9860   -1.2250 O   0  0  0  0  0  0  0  0  0  0  0  0
  1  2  1  0
  2  3  1  0
  3  4  1  6
  3  5  1  0
  5  6  1  6
  5  7  1  0
  7  8  1  1
  7 11  1  0
  8  9  1  0
  9 10  1  0
 10 11  1  0
 11 12  1  6
 12 13  1  0
M  END
