
     RDKit          3D

 13 13  0  0  0  0  0  0  0  0999 V2000
   -1.9360    2.3110    0.4620 C   0  0  0  0  0  0  0  0  0  0  0  0
   -1.0160    1.2930    0.7160 O   0  0  0  0  0  0  0  0  0  0  0  0
   -0.8750    0.4560   -0.3910 C   0  0  2  0  0  0  0  0  0  0  0  0
   -1.3690   -0.9090    0.0230 C   0  0  1  0  0  0  0  0  0  0  0  0
   -1.7940   -1.6430   -1.1010 O   0  0  0  0  0  0  0  0  0  0  0  0
   -0.3120   -1.7270    0.7170 C   0  0  2  0  0  0  0  0  0  0  0  0
   -0.8380   -2.3100    1.8640 O   0  0  0  0  0  0  0  0  0  0  0  0
    0.7600   -0.9280    1.1040 O   0  0  0  0  0  0  0  0  0  0  0  0
    1.3910   -0.5120   -0.0830 C   0  0  2  0  0  0  0  0  0  0  0  0
    2.7330    0.1340    0.2780 C   0  0  0  0  0  0  0  0  0  0  0  0
    2.4790    1.2210    1.1020 O   0  0  0  0  0  0  0  0  0  0  0  0
    0.5480    0.4740   -0.8300 C   0  0  1  0  0  0  0  0  0  0  0  0
    0.7140    0.2880   -2.2020 O   0  0  0  0  0  0  0  0  0  0  0  0
  1  2  1  0
  3  2  1  1
  3  4  1  0
  3 12  1  0
  4  5  1  6
  4  6  1  0
  6  7  1  1
  6  8  1  0
  8  9  1  0
  9 10  1  1
  9 12  1  0
 10 11  1  0
 12 13  1  6
M  END
