
     RDKit          3D

 12 12  0  0  0  0  0  0  0  0999 V2000
    1.6050    1.7890    0.4100 O   0  0  0  0  0  0  0  0  0  0  0  0
    2.1940    0.5660    0.1330 C   0  0  0  0  0  0  0  0  0  0  0  0
    1.4990   -0.2820   -0.8470 C   0  0  1  0  0  0  0  0  0  0  0  0
    2.2710   -1.4630   -0.9790 O   0  0  0  0  0  0  0  0  0  0  0  0
    0.0610   -0.6260   -0.5660 C   0  0  1  0  0  0  0  0  0  0  0  0
   -0.3060   -1.3940   -1.7100 O   0  0  0  0  0  0  0  0  0  0  0  0
   -0.1470   -1.5000    0.6100 C   0  0  0  0  0  0  0  0  0  0  0  0
   -0.8250   -0.9500    1.6760 O   0  0  0  0  0  0  0  0  0  0  0  0
   -2.0060   -0.3170    1.2840 C   0  0  0  0  0  0  0  0  0  0  0  0
   -1.5140    0.9750    0.6140 C   0  0  2  0  0  0  0  0  0  0  0  0
   -2.6320    1.7490    0.2990 O   0  0  0  0  0  0  0  0  0  0  0  0
   -0.8170    0.5940   -0.6360 C   0  0  0  0  0  0  0  0  0  0  0  0
  1  2  1  0
  2  3  1  0
  3  4  1  1
  3  5  1  0
  5  6  1  6
  5  7  1  0
  5 12  1  0
  7  8  1  0
  8  9  1  0
  9 10  1  0
 10 11  1  6
 10 12  1  0
M  END
