
     RDKit          3D

 12 12  0  0  0  0  0  0  0  0999 V2000
    3.5460   -0.7460   -0.7490 C   0  0  0  0  0  0  0  0  0  0  0  0
    2.8500    0.2880    0.1450 C   0  0  0  0  0  0  0  0  0  0  0  0
    1.4710    0.0720    0.0100 O   0  0  0  0  0  0  0  0  0  0  0  0
    0.5810    0.8700    0.7130 C   0  0  0  0  0  0  0  0  0  0  0  0
    1.0600    1.7660    1.4520 O   0  0  0  0  0  0  0  0  0  0  0  0
   -0.8600    0.6610    0.5860 C   0  0  0  0  0  0  0  0  0  0  0  0
   -1.7090    1.4150    1.2500 C   0  0  0  0  0  0  0  0  0  0  0  0
   -3.0380    1.1860    1.1020 O   0  0  0  0  0  0  0  0  0  0  0  0
   -3.6540    0.2290    0.3180 C   0  0  0  0  0  0  0  0  0  0  0  0
   -2.6710   -0.5950   -0.4090 C   0  0  0  0  0  0  0  0  0  0  0  0
   -1.3780   -0.3850   -0.2770 C   0  0  0  0  0  0  0  0  0  0  0  0
   -0.4720   -1.2300   -1.0190 N   0  0  0  0  0  0  0  0  0  0  0  0
  1  2  1  0
  2  3  1  0
  3  4  1  0
  4  5  2  0
  4  6  1  0
  6  7  2  0
  6 11  1  0
  7  8  1  0
  8  9  1  0
  9 10  1  0
 10 11  2  0
 11 12  1  0
M  END
