
     RDKit          3D

 21 21  0  0  0  0  0  0  0  0999 V2000
   -1.8690   -3.5240   -1.2690 C   0  0  0  0  0  0  0  0  0  0  0  0
   -1.5820   -2.0680   -1.0710 C   0  0  0  0  0  0  0  0  0  0  0  0
   -1.9000   -1.1900   -1.8920 O   0  0  0  0  0  0  0  0  0  0  0  0
   -0.9040   -1.6560    0.1310 N   0  0  0  0  0  0  0  0  0  0  0  0
   -0.6190   -0.2240    0.3340 C   0  0  2  0  0  0  0  0  0  0  0  0
   -1.9360    0.5150    0.3920 C   0  0  1  0  0  0  0  0  0  0  0  0
   -2.3320    0.6750    1.7410 O   0  0  0  0  0  0  0  0  0  0  0  0
   -1.9530    1.8590   -0.2290 C   0  0  0  0  0  0  0  0  0  0  0  0
   -0.4800    2.3140   -0.2880 C   0  0  2  0  0  0  0  0  0  0  0  0
    0.0140    2.1530    1.0030 O   0  0  0  0  0  0  0  0  0  0  0  0
   -0.3960    3.7420   -0.6430 C   0  0  0  0  0  0  0  0  0  0  0  0
   -0.7670    4.1970   -1.7470 O   0  0  0  0  0  0  0  0  0  0  0  0
    0.1170    4.6340    0.2800 O   0  0  0  0  0  0  0  0  0  0  0  0
    0.0720    1.4830   -1.2270 O   0  0  0  0  0  0  0  0  0  0  0  0
    0.3310    0.2250   -0.6750 C   0  0  1  0  0  0  0  0  0  0  0  0
    1.7940    0.2620   -0.2990 C   0  0  2  0  0  0  0  0  0  0  0  0
    2.5210    0.5640   -1.5140 O   0  0  0  0  0  0  0  0  0  0  0  0
    2.4020   -1.0020    0.1790 C   0  0  2  0  0  0  0  0  0  0  0  0
    2.2430   -2.0950   -0.6270 O   0  0  0  0  0  0  0  0  0  0  0  0
    2.2360   -1.2300    1.6450 C   0  0  0  0  0  0  0  0  0  0  0  0
    3.2670   -2.1320    2.0070 O   0  0  0  0  0  0  0  0  0  0  0  0
  1  2  1  0
  2  3  2  0
  2  4  1  0
  5  4  1  6
  5  6  1  0
  5 15  1  0
  6  7  1  1
  6  8  1  0
  8  9  1  0
  9 10  1  1
  9 11  1  0
  9 14  1  0
 11 12  2  0
 11 13  1  0
 15 14  1  1
 15 16  1  0
 16 17  1  6
 16 18  1  0
 18 19  1  6
 18 20  1  0
 20 21  1  0
M  END
