
     RDKit          3D

 11 11  0  0  0  0  0  0  0  0999 V2000
    3.8020   -0.0950    0.1720 C   0  0  0  0  0  0  0  0  0  0  0  0
    2.4390    0.4810   -0.0730 C   0  0  0  0  0  0  0  0  0  0  0  0
    1.4270   -0.1990    0.6430 O   0  0  0  0  0  0  0  0  0  0  0  0
    0.1240    0.2730    0.4730 C   0  0  0  0  0  0  0  0  0  0  0  0
   -0.3240    1.5070    0.6110 C   0  0  0  0  0  0  0  0  0  0  0  0
   -1.7530    1.5850    0.3430 C   0  0  0  0  0  0  0  0  0  0  0  0
   -2.2100    0.3820    0.0320 C   0  0  0  0  0  0  0  0  0  0  0  0
   -3.5580    0.0620   -0.2940 N   0  0  0  0  0  0  0  0  0  0  0  0
   -1.0510   -0.5220    0.0940 C   0  0  0  0  0  0  0  0  0  0  0  0
   -1.0800   -1.8140   -0.1500 C   0  0  0  0  0  0  0  0  0  0  0  0
   -2.2370   -2.4940   -0.5030 O   0  0  0  0  0  0  0  0  0  0  0  0
  1  2  1  0
  2  3  1  0
  3  4  1  0
  4  5  2  0
  4  9  1  0
  5  6  1  0
  6  7  2  0
  7  8  1  0
  7  9  1  0
  9 10  2  3
 10 11  1  0
M  END
