
     RDKit          3D

 12 12  0  0  0  0  0  0  0  0999 V2000
   -1.2910    1.6290    1.8490 N   0  0  0  0  0  0  0  0  0  0  0  0
   -1.8080    0.5480    1.0850 C   0  0  0  0  0  0  0  0  0  0  0  0
   -3.0240    0.0750    1.3220 C   0  0  0  0  0  0  0  0  0  0  0  0
   -3.4690   -0.9740    0.5490 O   0  0  0  0  0  0  0  0  0  0  0  0
   -2.7610   -1.5990   -0.4730 C   0  0  0  0  0  0  0  0  0  0  0  0
   -1.4100   -1.0320   -0.6960 C   0  0  0  0  0  0  0  0  0  0  0  0
   -0.9630   -0.0260    0.0340 C   0  0  0  0  0  0  0  0  0  0  0  0
    0.3780    0.5290   -0.1950 C   0  0  0  0  0  0  0  0  0  0  0  0
    0.9920   -0.1560   -1.2230 O   0  0  0  0  0  0  0  0  0  0  0  0
    2.2490    0.2530   -1.5600 C   0  0  0  0  0  0  0  0  0  0  0  0
    3.2620    0.1560   -0.4520 C   0  0  0  0  0  0  0  0  0  0  0  0
    3.3650   -1.1800   -0.0330 O   0  0  0  0  0  0  0  0  0  0  0  0
  1  2  1  0
  2  3  2  0
  2  7  1  0
  3  4  1  0
  4  5  1  0
  5  6  1  0
  6  7  2  0
  7  8  1  0
  8  9  1  0
  9 10  1  0
 10 11  1  0
 11 12  1  0
M  END
