
     RDKit          3D

 21 21  0  0  0  0  0  0  0  0999 V2000
   -2.6310   -3.7090   -0.0880 N   0  0  0  0  0  0  0  0  0  0  0  0
   -2.1700   -2.4580   -0.6550 C   0  0  1  0  0  0  0  0  0  0  0  0
   -3.2700   -1.6690   -0.8960 O   0  0  0  0  0  0  0  0  0  0  0  0
   -3.0030   -0.3850   -0.4960 C   0  0  1  0  0  0  0  0  0  0  0  0
   -4.2460    0.3960   -0.1380 C   0  0  0  0  0  0  0  0  0  0  0  0
   -3.8830    1.6910    0.2580 O   0  0  0  0  0  0  0  0  0  0  0  0
   -4.8570    2.6100    0.6390 C   0  0  0  0  0  0  0  0  0  0  0  0
   -6.0660    2.2020    0.6030 O   0  0  0  0  0  0  0  0  0  0  0  0
   -4.5990    3.8920    1.0390 O   0  0  0  0  0  0  0  0  0  0  0  0
   -2.1830   -0.5850    0.7610 C   0  0  0  0  0  0  0  0  0  0  0  0
   -1.2850   -1.7500    0.3300 C   0  0  2  0  0  0  0  0  0  0  0  0
   -0.1660   -1.1960   -0.2460 O   0  0  0  0  0  0  0  0  0  0  0  0
    1.0110   -1.5720    0.4040 C   0  0  0  0  0  0  0  0  0  0  0  0
    2.2260   -0.9560   -0.2400 C   0  0  0  0  0  0  0  0  0  0  0  0
    2.2000    0.4170   -0.2330 O   0  0  0  0  0  0  0  0  0  0  0  0
    3.3520    0.8920   -0.8470 C   0  0  1  0  0  0  0  0  0  0  0  0
    2.9180    1.6360   -1.9620 O   0  0  0  0  0  0  0  0  0  0  0  0
    4.1570    1.7870    0.0650 C   0  0  1  0  0  0  0  0  0  0  0  0
    3.3780    2.8790    0.4450 O   0  0  0  0  0  0  0  0  0  0  0  0
    4.6480    1.0570    1.2750 C   0  0  0  0  0  0  0  0  0  0  0  0
    5.4320   -0.0320    0.9570 O   0  0  0  0  0  0  0  0  0  0  0  0
  2  1  1  1
  2  3  1  0
  2 11  1  0
  3  4  1  0
  4  5  1  1
  4 10  1  0
  5  6  1  0
  6  7  1  0
  7  8  2  0
  7  9  1  0
 10 11  1  0
 11 12  1  6
 12 13  1  0
 13 14  1  0
 14 15  1  0
 15 16  1  0
 16 17  1  6
 16 18  1  0
 18 19  1  1
 18 20  1  0
 20 21  1  0
M  END
