
     RDKit          3D

 20 20  0  0  0  0  0  0  0  0999 V2000
    0.2210   -1.1200    0.9800 C   0  0  0  0  0  0  0  0  0  0  0  0
   -0.6250   -0.9800   -0.2500 C   0  0  2  0  0  0  0  0  0  0  0  0
   -0.8840   -2.3590   -0.6220 O   0  0  0  0  0  0  0  0  0  0  0  0
    0.0210   -0.4180   -1.4510 C   0  0  0  0  0  0  0  0  0  0  0  0
    0.6060    0.9290   -1.4270 C   0  0  2  0  0  0  0  0  0  0  0  0
    1.1190    1.1500   -2.7510 O   0  0  0  0  0  0  0  0  0  0  0  0
    1.8340    1.0960   -0.5500 C   0  0  0  0  0  0  0  0  0  0  0  0
    2.8400    0.2080   -0.8560 O   0  0  0  0  0  0  0  0  0  0  0  0
    3.9460    0.3720   -0.0650 C   0  0  2  0  0  0  0  0  0  0  0  0
    4.5290    1.6300   -0.1540 O   0  0  0  0  0  0  0  0  0  0  0  0
    4.9340   -0.5390   -0.5080 O   0  0  0  0  0  0  0  0  0  0  0  0
    3.7100    0.0210    1.3350 N   0  0  0  0  0  0  0  0  0  0  0  0
    4.8700    0.2270    2.0360 O   0  0  0  0  0  0  0  0  0  0  0  0
   -2.0150   -0.4780    0.0550 C   0  0  1  0  0  0  0  0  0  0  0  0
   -2.5670   -1.5010    1.0740 C   0  0  0  0  0  0  0  0  0  0  0  0
   -2.1020    0.9060    0.5950 C   0  0  0  0  0  0  0  0  0  0  0  0
   -3.4250    1.0120    1.1160 O   0  0  0  0  0  0  0  0  0  0  0  0
   -4.2580    1.0990    0.0080 C   0  0  0  0  0  0  0  0  0  0  0  0
   -4.1130   -0.1590   -0.8090 C   0  0  0  0  0  0  0  0  0  0  0  0
   -2.8290   -0.5680   -1.0430 O   0  0  0  0  0  0  0  0  0  0  0  0
  2  1  1  1
  2  3  1  0
  2  4  1  0
  2 14  1  0
  4  5  1  0
  5  6  1  6
  5  7  1  0
  7  8  1  0
  8  9  1  0
  9 10  1  1
  9 11  1  0
  9 12  1  0
 12 13  1  0
 14 15  1  1
 14 16  1  0
 14 20  1  0
 16 17  1  0
 17 18  1  0
 18 19  1  0
 19 20  1  0
M  END
