
     RDKit          3D

 23 24  0  0  0  0  0  0  0  0999 V2000
    6.2710    2.2770   -1.6700 C   0  0  0  0  0  0  0  0  0  0  0  0
    6.3460    1.0060   -1.2820 C   0  0  0  0  0  0  0  0  0  0  0  0
    6.2030    0.6920    0.1600 C   0  0  0  0  0  0  0  0  0  0  0  0
    5.0940   -0.1710    0.3800 O   0  0  0  0  0  0  0  0  0  0  0  0
    3.8290    0.2630    0.0050 C   0  0  0  0  0  0  0  0  0  0  0  0
    3.7010    1.3980   -0.5140 O   0  0  0  0  0  0  0  0  0  0  0  0
    2.6720   -0.5760    0.2080 C   0  0  0  0  0  0  0  0  0  0  0  0
    1.3670   -0.2730   -0.1150 C   0  0  0  0  0  0  0  0  0  0  0  0
    0.6160   -1.3500    0.2510 C   0  0  0  0  0  0  0  0  0  0  0  0
   -0.8360   -1.4470    0.0830 C   0  0  0  0  0  0  0  0  0  0  0  0
   -1.4280   -2.5030    0.4640 O   0  0  0  0  0  0  0  0  0  0  0  0
   -1.5270   -0.4080   -0.4750 O   0  0  0  0  0  0  0  0  0  0  0  0
   -2.9080   -0.4480   -0.6520 C   0  0  0  0  0  0  0  0  0  0  0  0
   -3.6020   -0.5550    0.6650 C   0  0  0  0  0  0  0  0  0  0  0  0
   -5.0020   -0.5890    0.4420 O   0  0  0  0  0  0  0  0  0  0  0  0
   -5.6510    0.4960   -0.2080 C   0  0  0  0  0  0  0  0  0  0  0  0
   -5.7900    1.6410    0.3580 C   0  0  0  0  0  0  0  0  0  0  0  0
   -6.4770    2.7110   -0.3910 C   0  0  0  0  0  0  0  0  0  0  0  0
   -6.4810    2.0240   -2.0750 S   0  0  0  0  0  0  0  0  0  0  0  0
   -6.1760    0.3030   -1.5640 C   0  0  0  0  0  0  0  0  0  0  0  0
    1.3850   -2.2910    0.7780 N   0  0  0  0  0  0  0  0  0  0  0  0
    2.6500   -1.8450    0.7640 C   0  0  0  0  0  0  0  0  0  0  0  0
    3.7990   -2.6330    1.2790 C   0  0  0  0  0  0  0  0  0  0  0  0
  1  2  2  0
  2  3  1  0
  3  4  1  0
  4  5  1  0
  5  6  2  0
  5  7  1  0
  7  8  1  0
  7 22  2  0
  8  9  2  0
  9 10  1  0
  9 21  1  0
 10 11  2  0
 10 12  1  0
 12 13  1  0
 13 14  1  0
 14 15  1  0
 15 16  1  0
 16 17  2  0
 16 20  1  0
 17 18  1  0
 18 19  1  0
 19 20  1  0
 21 22  1  0
 22 23  1  0
M  END
