
     RDKit          3D

 19 19  0  0  0  0  0  0  0  0999 V2000
    0.5650    2.2140   -0.6920 C   0  0  0  0  0  0  0  0  0  0  0  0
    0.0390    0.8510   -1.1500 C   0  0  1  0  0  0  0  0  0  0  0  0
    0.0800    1.0220   -2.5900 O   0  0  0  0  0  0  0  0  0  0  0  0
    1.0160   -0.2190   -0.8730 C   0  0  2  0  0  0  0  0  0  0  0  0
    1.3390   -0.3210    0.6330 C   0  0  0  0  0  0  0  0  0  0  0  0
    2.2540   -1.3630    0.7780 O   0  0  0  0  0  0  0  0  0  0  0  0
    3.4940   -0.8180    0.4070 C   0  0  2  0  0  0  0  0  0  0  0  0
    4.1920   -0.2380    1.5290 N   0  0  0  0  0  0  0  0  0  0  0  0
    3.2960    0.2810   -0.6000 C   0  0  0  0  0  0  0  0  0  0  0  0
    2.2750    0.1010   -1.4630 O   0  0  0  0  0  0  0  0  0  0  0  0
   -1.4010    0.6760   -0.9470 C   0  0  1  0  0  0  0  0  0  0  0  0
   -1.7660   -0.4190   -1.8120 O   0  0  0  0  0  0  0  0  0  0  0  0
   -2.0660    0.4230    0.3070 C   0  0  2  0  0  0  0  0  0  0  0  0
   -1.9030    1.3790    1.4490 C   0  0  0  0  0  0  0  0  0  0  0  0
   -2.6690    0.8540    2.5220 O   0  0  0  0  0  0  0  0  0  0  0  0
   -2.3280   -0.9450    0.8180 C   0  0  0  0  0  0  0  0  0  0  0  0
   -3.2070   -1.7670   -0.0930 C   0  0  0  0  0  0  0  0  0  0  0  0
   -2.7590   -2.6100   -0.8940 O   0  0  0  0  0  0  0  0  0  0  0  0
   -4.5760   -1.5630   -0.0240 O   0  0  0  0  0  0  0  0  0  0  0  0
  2  1  1  1
  2  3  1  0
  2  4  1  0
  2 11  1  0
  4  5  1  1
  4 10  1  0
  5  6  1  0
  6  7  1  0
  7  8  1  1
  7  9  1  0
  9 10  1  0
 11 12  1  6
 11 13  1  0
 13 14  1  1
 13 16  1  0
 14 15  1  0
 16 17  1  0
 17 18  2  0
 17 19  1  0
M  END
