
     RDKit          3D

 20 20  0  0  0  0  0  0  0  0999 V2000
    2.6190   -1.5200   -0.7190 O   0  0  0  0  0  0  0  0  0  0  0  0
    2.6300   -0.5850    0.1350 C   0  0  0  0  0  0  0  0  0  0  0  0
    1.3360   -0.1540    0.5710 N   0  0  0  0  0  0  0  0  0  0  0  0
    0.1250   -0.7610    0.0560 C   0  0  0  0  0  0  0  0  0  0  0  0
   -1.1000   -0.1320    0.6680 C   0  0  1  0  0  0  0  0  0  0  0  0
   -0.9680   -0.3480    2.0650 O   0  0  0  0  0  0  0  0  0  0  0  0
   -1.0620    1.3710    0.4900 C   0  0  0  0  0  0  0  0  0  0  0  0
   -2.4790    1.8640    0.6900 C   0  0  1  0  0  0  0  0  0  0  0  0
   -2.5190    3.2700    0.7280 O   0  0  0  0  0  0  0  0  0  0  0  0
   -3.2460    1.4420   -0.5600 C   0  0  0  0  0  0  0  0  0  0  0  0
   -3.1580   -0.0400   -0.7880 C   0  0  0  0  0  0  0  0  0  0  0  0
   -2.3900   -0.7650    0.2800 C   0  0  2  0  0  0  0  0  0  0  0  0
   -3.2550   -0.8820    1.4000 O   0  0  0  0  0  0  0  0  0  0  0  0
   -2.1750   -2.1510   -0.1940 C   0  0  0  0  0  0  0  0  0  0  0  0
   -2.6490   -3.1750    0.3740 O   0  0  0  0  0  0  0  0  0  0  0  0
   -1.4140   -2.3780   -1.3280 O   0  0  0  0  0  0  0  0  0  0  0  0
    3.7800   -0.0030    0.6290 O   0  0  0  0  0  0  0  0  0  0  0  0
    5.0270   -0.4420    0.1850 C   0  0  0  0  0  0  0  0  0  0  0  0
    5.2320   -0.2800   -1.2890 C   0  0  0  0  0  0  0  0  0  0  0  0
    5.1090    1.0990   -1.5710 O   0  0  0  0  0  0  0  0  0  0  0  0
  1  2  2  0
  2  3  1  0
  2 17  1  0
  3  4  1  0
  4  5  1  0
  5  6  1  1
  5  7  1  0
  5 12  1  0
  7  8  1  0
  8  9  1  6
  8 10  1  0
 10 11  1  0
 11 12  1  0
 12 13  1  1
 12 14  1  0
 14 15  2  0
 14 16  1  0
 17 18  1  0
 18 19  1  0
 19 20  1  0
M  END
