
     RDKit          3D

 20 20  0  0  0  0  0  0  0  0999 V2000
   -3.8740    1.8700   -0.2610 O   0  0  0  0  0  0  0  0  0  0  0  0
   -4.2120    1.0680   -1.1530 C   0  0  0  0  0  0  0  0  0  0  0  0
   -3.9550   -0.3110   -1.0500 N   0  0  0  0  0  0  0  0  0  0  0  0
   -3.2890   -1.0160   -0.0060 C   0  0  0  0  0  0  0  0  0  0  0  0
   -1.8490   -0.8100    0.2360 C   0  0  1  0  0  0  0  0  0  0  0  0
   -1.4140   -1.6590    1.2990 O   0  0  0  0  0  0  0  0  0  0  0  0
   -0.9930   -1.2430   -0.9560 C   0  0  0  0  0  0  0  0  0  0  0  0
    0.4310   -1.3290   -0.4590 C   0  0  0  0  0  0  0  0  0  0  0  0
    0.9030    0.0310   -0.0190 C   0  0  2  0  0  0  0  0  0  0  0  0
    0.8410    0.8870   -1.0910 O   0  0  0  0  0  0  0  0  0  0  0  0
    2.2900   -0.0550    0.5790 C   0  0  0  0  0  0  0  0  0  0  0  0
    3.2290   -0.5060   -0.3310 O   0  0  0  0  0  0  0  0  0  0  0  0
    4.4610   -0.5630    0.2930 C   0  0  0  0  0  0  0  0  0  0  0  0
    4.9630    0.7370    0.8250 C   0  0  0  0  0  0  0  0  0  0  0  0
    5.1100    1.6990   -0.1750 O   0  0  0  0  0  0  0  0  0  0  0  0
   -0.0160    0.5250    1.0690 C   0  0  2  0  0  0  0  0  0  0  0  0
   -0.0140   -0.2660    2.1920 O   0  0  0  0  0  0  0  0  0  0  0  0
   -1.4700    0.5990    0.5340 C   0  0  0  0  0  0  0  0  0  0  0  0
   -4.8720    1.5100   -2.3110 O   0  0  0  0  0  0  0  0  0  0  0  0
   -5.1140    2.8410   -2.3980 O   0  0  0  0  0  0  0  0  0  0  0  0
  1  2  2  0
  2  3  1  0
  2 19  1  0
  3  4  1  0
  4  5  1  0
  5  6  1  1
  5  7  1  0
  5 18  1  0
  7  8  1  0
  8  9  1  0
  9 10  1  6
  9 11  1  0
  9 16  1  0
 11 12  1  0
 12 13  1  0
 13 14  1  0
 14 15  1  0
 16 17  1  1
 16 18  1  0
 19 20  1  0
M  END
