
     RDKit          3D

 11 11  0  0  0  0  0  0  0  0999 V2000
    2.0510   -2.0980    0.9420 O   0  0  0  0  0  0  0  0  0  0  0  0
    0.8810   -1.4370    0.5890 C   0  0  0  0  0  0  0  0  0  0  0  0
   -0.3480   -2.0500    0.7400 C   0  0  0  0  0  0  0  0  0  0  0  0
   -1.5220   -1.4140    0.3970 C   0  0  0  0  0  0  0  0  0  0  0  0
   -1.4810   -0.1240   -0.1150 C   0  0  0  0  0  0  0  0  0  0  0  0
   -2.6320    0.5640   -0.4780 O   0  0  0  0  0  0  0  0  0  0  0  0
   -0.2660    0.5100   -0.2760 C   0  0  0  0  0  0  0  0  0  0  0  0
   -0.2350    1.7850   -0.7830 O   0  0  0  0  0  0  0  0  0  0  0  0
    0.9720    2.5120   -0.9810 C   0  0  0  0  0  0  0  0  0  0  0  0
    0.7080    3.7560   -1.4980 F   0  0  0  0  0  0  0  0  0  0  0  0
    0.9150   -0.1540    0.0790 C   0  0  0  0  0  0  0  0  0  0  0  0
  1  2  1  0
  2  3  2  0
  2 11  1  0
  3  4  1  0
  4  5  2  0
  5  6  1  0
  5  7  1  0
  7  8  1  0
  7 11  2  0
  8  9  1  0
  9 10  1  0
M  END
