
     RDKit          3D

 19 22  0  0  0  0  0  0  0  0999 V2000
   -5.9760   -0.2550   -0.0510 C   0  0  0  0  0  0  0  0  0  0  0  0
   -5.0090   -1.2400    0.0210 C   0  0  0  0  0  0  0  0  0  0  0  0
   -3.8420   -0.6330   -0.2600 N   0  0  0  0  0  0  0  0  0  0  0  0
   -2.5980   -1.1300   -0.3250 C   0  0  0  0  0  0  0  0  0  0  0  0
   -1.4910   -0.3220   -0.6380 C   0  0  0  0  0  0  0  0  0  0  0  0
   -0.2490   -0.9580   -0.7140 N   0  0  0  0  0  0  0  0  0  0  0  0
    0.9710   -0.4310   -0.2390 C   0  0  0  0  0  0  0  0  0  0  0  0
    1.1260    0.7340    0.4690 C   0  0  0  0  0  0  0  0  0  0  0  0
    2.3470    1.2360    0.8940 C   0  0  0  0  0  0  0  0  0  0  0  0
    3.4770    0.5230    0.5890 C   0  0  0  0  0  0  0  0  0  0  0  0
    3.3390   -0.6470   -0.1190 C   0  0  0  0  0  0  0  0  0  0  0  0
    2.1370   -1.0970   -0.5120 N   0  0  0  0  0  0  0  0  0  0  0  0
    4.6550   -1.2240   -0.3160 N   0  0  0  0  0  0  0  0  0  0  0  0
    5.4490   -0.7040    0.8070 C   0  0  0  0  0  0  0  0  0  0  0  0
    4.9330    0.7150    0.8470 C   0  0  0  0  0  0  0  0  0  0  0  0
   -1.7330    1.0090   -0.8790 C   0  0  0  0  0  0  0  0  0  0  0  0
   -3.0130    1.5200   -0.8120 C   0  0  0  0  0  0  0  0  0  0  0  0
   -4.0790    0.6700   -0.4940 C   0  0  0  0  0  0  0  0  0  0  0  0
   -5.3940    0.9090   -0.3670 N   0  0  0  0  0  0  0  0  0  0  0  0
  1  2  2  0
  1 19  1  0
  2  3  1  0
  3  4  1  0
  3 18  1  0
  4  5  2  0
  5  6  1  0
  5 16  1  0
  6  7  1  0
  7  8  2  0
  7 12  1  0
  8  9  1  0
  9 10  2  0
 10 11  1  0
 10 15  1  0
 11 12  2  0
 11 13  1  0
 13 14  1  0
 14 15  1  0
 16 17  2  0
 17 18  1  0
 18 19  2  0
M  CHG  1  19   1
M  END
