
     RDKit          3D

 20 20  0  0  0  0  0  0  0  0999 V2000
    2.8070   -3.5880    1.6760 C   0  0  0  0  0  0  0  0  0  0  0  0
    2.4510   -2.3810    0.8570 C   0  0  0  0  0  0  0  0  0  0  0  0
    2.9700   -2.2120   -0.2730 O   0  0  0  0  0  0  0  0  0  0  0  0
    1.5320   -1.4030    1.3220 N   0  0  0  0  0  0  0  0  0  0  0  0
    1.1580   -0.2110    0.5580 C   0  0  2  0  0  0  0  0  0  0  0  0
    1.6500    1.0340    1.1990 C   0  0  1  0  0  0  0  0  0  0  0  0
    2.1750    1.9120    0.1370 N   0  0  0  0  0  0  0  0  0  0  0  0
    0.5580    1.8030    1.8280 C   0  0  0  0  0  0  0  0  0  0  0  0
   -0.6800    1.8310    1.3440 C   0  0  0  0  0  0  0  0  0  0  0  0
   -1.7620    2.5870    1.9580 C   0  0  0  0  0  0  0  0  0  0  0  0
   -1.5470    3.2560    2.9980 O   0  0  0  0  0  0  0  0  0  0  0  0
   -3.0330    2.5940    1.4280 O   0  0  0  0  0  0  0  0  0  0  0  0
   -0.8280    1.0560    0.1850 O   0  0  0  0  0  0  0  0  0  0  0  0
   -0.2710   -0.2560    0.1420 C   0  0  1  0  0  0  0  0  0  0  0  0
   -0.4060   -0.7710   -1.2720 C   0  0  2  0  0  0  0  0  0  0  0  0
    0.2460    0.0460   -2.2040 O   0  0  0  0  0  0  0  0  0  0  0  0
   -1.8200   -0.9570   -1.7240 C   0  0  2  0  0  0  0  0  0  0  0  0
   -1.8230   -1.5770   -2.9990 O   0  0  0  0  0  0  0  0  0  0  0  0
   -2.5960    0.3180   -1.8990 C   0  0  0  0  0  0  0  0  0  0  0  0
   -3.8840   -0.0840   -2.3380 O   0  0  0  0  0  0  0  0  0  0  0  0
  1  2  1  0
  2  3  2  0
  2  4  1  0
  5  4  1  1
  5  6  1  0
  5 14  1  0
  6  7  1  6
  6  8  1  0
  8  9  2  0
  9 10  1  0
  9 13  1  0
 10 11  2  0
 10 12  1  0
 14 13  1  6
 14 15  1  0
 15 16  1  6
 15 17  1  0
 17 18  1  6
 17 19  1  0
 19 20  1  0
M  CHG  1   7   1
M  END
