
     RDKit          3D

 19 21  0  0  0  0  0  0  0  0999 V2000
    5.2170   -1.2060    1.4180 C   0  0  0  0  0  0  0  0  0  0  0  0
    4.9490   -0.5110    0.3040 C   0  0  0  0  0  0  0  0  0  0  0  0
    5.8960   -0.1090   -0.7570 C   0  0  0  0  0  0  0  0  0  0  0  0
    5.0460    0.6230   -1.7150 C   0  0  0  0  0  0  0  0  0  0  0  0
    3.7820    0.6760   -1.3300 C   0  0  0  0  0  0  0  0  0  0  0  0
    2.4660    1.1390   -1.6420 N   0  0  0  0  0  0  0  0  0  0  0  0
    1.5510    0.7500   -0.6150 C   0  0  0  0  0  0  0  0  0  0  0  0
    0.2220    0.9330   -0.4320 N   0  0  0  0  0  0  0  0  0  0  0  0
   -0.3480    0.4250    0.6720 C   0  0  0  0  0  0  0  0  0  0  0  0
   -1.8200    0.5930    0.9350 C   0  0  0  0  0  0  0  0  0  0  0  0
   -2.4970   -0.5290    0.3410 N   0  0  0  0  0  0  0  0  0  0  0  0
   -3.7180   -0.1660   -0.3330 C   0  0  1  0  0  0  0  0  0  0  0  0
   -3.6240    1.1450   -1.0680 C   0  0  0  0  0  0  0  0  0  0  0  0
   -4.0560   -1.2320   -1.3520 C   0  0  0  0  0  0  0  0  0  0  0  0
   -4.8830   -0.0610    0.6350 C   0  0  0  0  0  0  0  0  0  0  0  0
    0.4060   -0.2670    1.5960 C   0  0  0  0  0  0  0  0  0  0  0  0
    1.7230   -0.4500    1.4180 N   0  0  0  0  0  0  0  0  0  0  0  0
    2.2970    0.0580    0.3130 C   0  0  0  0  0  0  0  0  0  0  0  0
    3.6790   -0.0100   -0.0910 N   0  0  0  0  0  0  0  0  0  0  0  0
  1  2  2  0
  2  3  1  0
  2 19  1  0
  3  4  1  0
  4  5  2  0
  5  6  1  0
  5 19  1  0
  6  7  1  0
  7  8  2  0
  7 18  1  0
  8  9  1  0
  9 10  1  0
  9 16  2  0
 10 11  1  0
 11 12  1  0
 12 13  1  6
 12 14  1  0
 12 15  1  0
 16 17  1  0
 17 18  2  0
 18 19  1  0
M  CHG  1  11   1
M  END
