
     RDKit          3D

 19 21  0  0  0  0  0  0  0  0999 V2000
   -1.5450   -2.8000    0.2440 C   0  0  0  0  0  0  0  0  0  0  0  0
   -0.3630   -1.8920    0.2120 C   0  0  0  0  0  0  0  0  0  0  0  0
    0.8900   -2.4190    0.1280 N   0  0  0  0  0  0  0  0  0  0  0  0
    2.0120   -1.6920    0.0670 C   0  0  0  0  0  0  0  0  0  0  0  0
    3.2450   -2.3710   -0.0180 N   0  0  0  0  0  0  0  0  0  0  0  0
    1.9030   -0.3270    0.0900 C   0  0  0  0  0  0  0  0  0  0  0  0
    3.1020    0.5160    0.0260 C   0  0  0  0  0  0  0  0  0  0  0  0
    3.0250    1.8220    0.0470 N   0  0  0  0  0  0  0  0  0  0  0  0
    4.3040    2.4440   -0.0250 C   0  0  0  0  0  0  0  0  0  0  0  0
    5.2460    1.3190   -0.0960 C   0  0  0  0  0  0  0  0  0  0  0  0
    4.4980    0.2010   -0.0630 C   0  0  0  0  0  0  0  0  0  0  0  0
    0.6780    0.2300    0.1740 N   0  0  0  0  0  0  0  0  0  0  0  0
   -0.4700   -0.5250    0.2360 C   0  0  0  0  0  0  0  0  0  0  0  0
   -1.6600    0.1900    0.3610 N   0  0  0  0  0  0  0  0  0  0  0  0
   -1.6310    1.6150   -0.0760 C   0  0  0  0  0  0  0  0  0  0  0  0
   -2.9700    2.2560    0.0480 C   0  0  0  0  0  0  0  0  0  0  0  0
   -4.1080    1.4500   -0.5350 C   0  0  0  0  0  0  0  0  0  0  0  0
   -3.9480   -0.0290   -0.2410 C   0  0  0  0  0  0  0  0  0  0  0  0
   -2.9370   -0.2000    0.8840 C   0  0  0  0  0  0  0  0  0  0  0  0
  1  2  1  0
  2  3  2  0
  2 13  1  0
  3  4  1  0
  4  5  1  0
  4  6  2  0
  6  7  1  0
  6 12  1  0
  7  8  2  0
  7 11  1  0
  8  9  1  0
  9 10  1  0
 10 11  2  0
 12 13  2  0
 13 14  1  0
 14 15  1  0
 14 19  1  0
 15 16  1  0
 16 17  1  0
 17 18  1  0
 18 19  1  0
M  CHG  1   3   1
M  END
