
     RDKit          3D

 19 21  0  0  0  0  0  0  0  0999 V2000
   -2.7900    1.3850    1.5020 C   0  0  0  0  0  0  0  0  0  0  0  0
   -1.8960    0.2130    1.2080 C   0  0  0  0  0  0  0  0  0  0  0  0
   -1.8250   -0.2110   -0.1870 C   0  0  0  0  0  0  0  0  0  0  0  0
   -0.7330   -0.1720   -0.8900 N   0  0  0  0  0  0  0  0  0  0  0  0
    0.5050    0.2960   -0.3430 C   0  0  0  0  0  0  0  0  0  0  0  0
    0.6350    1.4690    0.1510 N   0  0  0  0  0  0  0  0  0  0  0  0
    1.7780    2.0250    0.7040 N   0  0  0  0  0  0  0  0  0  0  0  0
    2.8380    1.2820    0.7270 C   0  0  0  0  0  0  0  0  0  0  0  0
    4.0930    1.8000    1.2990 C   0  0  0  0  0  0  0  0  0  0  0  0
    5.2010    1.0850    1.3470 C   0  0  0  0  0  0  0  0  0  0  0  0
    5.1450   -0.2310    0.8200 N   0  0  0  0  0  0  0  0  0  0  0  0
    4.0880   -0.7430    0.3100 C   0  0  0  0  0  0  0  0  0  0  0  0
    2.8480   -0.0410    0.2170 N   0  0  0  0  0  0  0  0  0  0  0  0
    1.6720   -0.6130   -0.3520 C   0  0  2  0  0  0  0  0  0  0  0  0
    1.7490   -1.7220   -1.3380 C   0  0  0  0  0  0  0  0  0  0  0  0
    1.2940   -2.0330    0.0780 C   0  0  0  0  0  0  0  0  0  0  0  0
   -3.0260   -0.7170   -0.8800 C   0  0  2  0  0  0  0  0  0  0  0  0
   -2.6900   -1.1570   -2.3120 C   0  0  0  0  0  0  0  0  0  0  0  0
   -4.1920    0.2420   -0.8930 C   0  0  0  0  0  0  0  0  0  0  0  0
  1  2  1  0
  2  3  1  0
  3  4  2  3
  3 17  1  0
  4  5  1  0
  5  6  2  0
  5 14  1  0
  6  7  1  0
  7  8  2  0
  8  9  1  0
  8 13  1  0
  9 10  2  0
 10 11  1  0
 11 12  2  0
 12 13  1  0
 13 14  1  0
 14 15  1  6
 14 16  1  0
 15 16  1  0
 17 18  1  6
 17 19  1  0
M  CHG  1   7   1
M  END
