
     RDKit          3D

 18 21  0  0  0  0  0  0  0  0999 V2000
   -3.0420    2.8350   -0.6820 C   0  0  0  0  0  0  0  0  0  0  0  0
   -4.0790    1.9270   -0.5520 C   0  0  0  0  0  0  0  0  0  0  0  0
   -3.8290    0.6480   -0.2520 N   0  0  0  0  0  0  0  0  0  0  0  0
   -2.5810    0.2050   -0.0710 C   0  0  0  0  0  0  0  0  0  0  0  0
   -1.5300    1.0710   -0.1910 C   0  0  0  0  0  0  0  0  0  0  0  0
   -1.7750    2.3860   -0.4980 C   0  0  0  0  0  0  0  0  0  0  0  0
   -0.1170    0.9430   -0.0680 N   0  0  0  0  0  0  0  0  0  0  0  0
    0.7090   -0.0380    0.1980 C   0  0  0  0  0  0  0  0  0  0  0  0
    2.1360    0.2410    0.2350 C   0  0  0  0  0  0  0  0  0  0  0  0
    2.8230   -0.8460    0.5150 C   0  0  0  0  0  0  0  0  0  0  0  0
    4.2890   -0.5150    0.5440 C   0  0  0  0  0  0  0  0  0  0  0  0
    4.3520    0.6680   -0.3910 C   0  0  0  0  0  0  0  0  0  0  0  0
    3.0750    1.4060    0.0440 C   0  0  0  0  0  0  0  0  0  0  0  0
    1.8760   -1.9010    0.6770 N   0  0  0  0  0  0  0  0  0  0  0  0
    0.5810   -1.4260    0.4870 N   0  0  0  0  0  0  0  0  0  0  0  0
   -0.5380   -2.3370    0.6060 C   0  0  0  0  0  0  0  0  0  0  0  0
   -1.7370   -1.7130    1.2610 C   0  0  0  0  0  0  0  0  0  0  0  0
   -2.7390   -1.2320    0.2360 C   0  0  0  0  0  0  0  0  0  0  0  0
  1  2  2  0
  1  6  1  0
  2  3  1  0
  3  4  2  0
  4  5  1  0
  4 18  1  0
  5  6  2  0
  5  7  1  0
  7  8  2  0
  8  9  1  0
  8 15  1  0
  9 10  2  0
  9 13  1  0
 10 11  1  0
 10 14  1  0
 11 12  1  0
 12 13  1  0
 14 15  1  0
 15 16  1  0
 16 17  1  0
 17 18  1  0
M  CHG  1   3   1
M  END
