
     RDKit          3D

 19 21  0  0  0  0  0  0  0  0999 V2000
   -3.9690    0.7730    0.2160 C   0  0  0  0  0  0  0  0  0  0  0  0
   -2.8200    0.1340    0.1300 C   0  0  0  0  0  0  0  0  0  0  0  0
   -2.7070   -1.2560    0.0080 C   0  0  0  0  0  0  0  0  0  0  0  0
   -1.3510   -1.4930   -0.0520 C   0  0  0  0  0  0  0  0  0  0  0  0
   -0.6660   -0.2710    0.0300 C   0  0  0  0  0  0  0  0  0  0  0  0
    0.7820   -0.1250   -0.0090 C   0  0  0  0  0  0  0  0  0  0  0  0
    1.5720   -0.5450   -1.0480 N   0  0  0  0  0  0  0  0  0  0  0  0
    2.8280   -0.3040   -0.7990 N   0  0  0  0  0  0  0  0  0  0  0  0
    3.9750   -0.6040   -1.6740 C   0  0  0  0  0  0  0  0  0  0  0  0
    2.9300    0.2770    0.3940 C   0  0  0  0  0  0  0  0  0  0  0  0
    4.2190    0.7070    1.0220 C   0  0  0  0  0  0  0  0  0  0  0  0
    1.6580    0.3960    0.9050 C   0  0  0  0  0  0  0  0  0  0  0  0
    1.3550    0.9490    2.1540 N   0  0  0  0  0  0  0  0  0  0  0  0
   -1.5740    0.6940    0.1390 N   0  0  0  0  0  0  0  0  0  0  0  0
   -1.3700    2.1040    0.2300 C   0  0  0  0  0  0  0  0  0  0  0  0
   -1.3790    2.7680   -1.1470 C   0  0  0  0  0  0  0  0  0  0  0  0
   -1.1260   -2.8850   -0.1720 N   0  0  0  0  0  0  0  0  0  0  0  0
   -2.4020   -3.5310   -0.1930 C   0  0  0  0  0  0  0  0  0  0  0  0
   -3.3590   -2.4080   -0.0730 C   0  0  0  0  0  0  0  0  0  0  0  0
  1  2  2  0
  2  3  1  0
  2 14  1  0
  3  4  1  0
  3 19  2  0
  4  5  2  0
  4 17  1  0
  5  6  1  0
  5 14  1  0
  6  7  2  0
  6 12  1  0
  7  8  1  0
  8  9  1  0
  8 10  1  0
 10 11  1  0
 10 12  2  0
 12 13  1  0
 14 15  1  0
 15 16  1  0
 17 18  1  0
 18 19  1  0
M  END
