
     RDKit          3D

 22 23  0  0  0  0  0  0  0  0999 V2000
   -3.1070    4.2920   -0.5020 C   0  0  0  0  0  0  0  0  0  0  0  0
   -2.7820    3.0370   -0.3220 C   0  0  0  0  0  0  0  0  0  0  0  0
   -3.5680    2.0450    0.4730 C   0  0  0  0  0  0  0  0  0  0  0  0
   -2.4990    1.1720    1.0990 C   0  0  0  0  0  0  0  0  0  0  0  0
   -1.2130    1.4670    0.4020 C   0  0  1  0  0  0  0  0  0  0  0  0
   -0.4030    0.2470    0.0360 C   0  0  2  0  0  0  0  0  0  0  0  0
    0.9110    0.7120   -0.6540 C   0  0  0  0  0  0  0  0  0  0  0  0
    1.7580   -0.4550   -1.0520 C   0  0  0  0  0  0  0  0  0  0  0  0
    2.1750   -1.3060    0.1090 C   0  0  0  0  0  0  0  0  0  0  0  0
    2.9080   -0.7550    1.0870 O   0  0  0  0  0  0  0  0  0  0  0  0
    4.1390   -0.2670    0.9030 C   0  0  1  0  0  0  0  0  0  0  0  0
    5.1380   -1.2660    0.3410 C   0  0  0  0  0  0  0  0  0  0  0  0
    4.3250    1.0330    0.1890 C   0  0  0  0  0  0  0  0  0  0  0  0
    4.6930    0.0110    2.3410 C   0  0  0  0  0  0  0  0  0  0  0  0
   -1.1080   -0.5860   -0.7700 O   0  0  0  0  0  0  0  0  0  0  0  0
   -2.2340   -1.3030   -0.7380 C   0  0  0  0  0  0  0  0  0  0  0  0
   -3.3120   -1.0270   -1.4720 C   0  0  0  0  0  0  0  0  0  0  0  0
   -4.3970   -1.9870   -1.2280 C   0  0  0  0  0  0  0  0  0  0  0  0
   -3.8140   -2.9030   -0.2250 C   0  0  0  0  0  0  0  0  0  0  0  0
   -2.5890   -2.5060    0.0460 C   0  0  0  0  0  0  0  0  0  0  0  0
   -1.6480   -3.1520    1.0060 C   0  0  0  0  0  0  0  0  0  0  0  0
   -1.6080    2.2690   -0.8230 C   0  0  0  0  0  0  0  0  0  0  0  0
  1  2  2  0
  2  3  1  0
  2 22  1  0
  3  4  1  0
  5  4  1  6
  5  6  1  0
  5 22  1  0
  6  7  1  6
  6 15  1  0
  7  8  1  0
  8  9  1  0
  9 10  1  0
 10 11  1  0
 11 12  1  6
 11 13  1  0
 11 14  1  0
 15 16  1  0
 16 17  2  0
 16 20  1  0
 17 18  1  0
 18 19  1  0
 19 20  2  0
 20 21  1  0
M  END
