
     RDKit          3D

 22 23  0  0  0  0  0  0  0  0999 V2000
   -4.0370   -2.6910   -0.4200 C   0  0  0  0  0  0  0  0  0  0  0  0
   -2.9280   -1.6870   -0.6750 C   0  0  0  0  0  0  0  0  0  0  0  0
   -2.4150   -1.0940    0.6170 C   0  0  0  0  0  0  0  0  0  0  0  0
   -1.2920   -0.1020    0.2920 C   0  0  1  0  0  0  0  0  0  0  0  0
   -1.8270    1.0080   -0.5880 C   0  0  0  0  0  0  0  0  0  0  0  0
   -2.9350    1.8260   -0.1010 C   0  0  1  0  0  0  0  0  0  0  0  0
   -2.7850    2.6200    1.1380 C   0  0  0  0  0  0  0  0  0  0  0  0
   -3.1790    2.8710   -1.2180 C   0  0  0  0  0  0  0  0  0  0  0  0
   -0.6000    0.4490    1.4640 C   0  0  0  0  0  0  0  0  0  0  0  0
    0.7780   -0.0260    1.7680 C   0  0  0  0  0  0  0  0  0  0  0  0
    1.5210   -0.7400    0.6620 C   0  0  2  0  0  0  0  0  0  0  0  0
    2.2990   -1.7270    1.3700 O   0  0  0  0  0  0  0  0  0  0  0  0
    2.5390    0.1370    0.1050 C   0  0  1  0  0  0  0  0  0  0  0  0
    3.5230    0.4470    1.2550 C   0  0  0  0  0  0  0  0  0  0  0  0
    3.3940   -0.2830   -1.0230 C   0  0  0  0  0  0  0  0  0  0  0  0
    4.2920    0.9310   -1.2070 C   0  0  0  0  0  0  0  0  0  0  0  0
    3.3300    2.0770   -1.0390 C   0  0  0  0  0  0  0  0  0  0  0  0
    2.0730    1.4940   -0.3870 C   0  0  0  0  0  0  0  0  0  0  0  0
    0.5630   -1.5080   -0.1200 C   0  0  2  0  0  0  0  0  0  0  0  0
    0.1600   -2.7080    0.7730 C   0  0  0  0  0  0  0  0  0  0  0  0
    1.1610   -2.2230   -1.3490 C   0  0  0  0  0  0  0  0  0  0  0  0
   -0.4730   -0.8050   -0.5870 O   0  0  0  0  0  0  0  0  0  0  0  0
  1  2  1  0
  2  3  1  0
  4  3  1  1
  4  5  1  0
  4  9  1  0
  4 22  1  0
  5  6  1  0
  6  7  1  1
  6  8  1  0
  9 10  1  0
 10 11  1  0
 11 12  1  1
 11 13  1  0
 11 19  1  0
 13 14  1  1
 13 15  1  0
 13 18  1  0
 15 16  1  0
 16 17  1  0
 17 18  1  0
 19 20  1  1
 19 21  1  0
 19 22  1  0
M  END
