
     RDKit          3D

 22 23  0  0  0  0  0  0  0  0999 V2000
    4.2500    1.1700    1.6110 C   0  0  0  0  0  0  0  0  0  0  0  0
    4.3930   -0.2240    1.0830 C   0  0  0  0  0  0  0  0  0  0  0  0
    3.7140   -0.3850   -0.2590 C   0  0  2  0  0  0  0  0  0  0  0  0
    3.8840   -1.7950   -0.7460 C   0  0  0  0  0  0  0  0  0  0  0  0
    4.3750    0.5600   -1.2290 C   0  0  0  0  0  0  0  0  0  0  0  0
    2.2740    0.0170   -0.0920 C   0  0  1  0  0  0  0  0  0  0  0  0
    1.5090   -0.1100   -1.3910 C   0  0  0  0  0  0  0  0  0  0  0  0
    0.1730    0.6120   -1.1590 C   0  0  0  0  0  0  0  0  0  0  0  0
   -0.5490    0.0370    0.0040 C   0  0  1  0  0  0  0  0  0  0  0  0
   -0.3430    0.9070    1.0860 O   0  0  0  0  0  0  0  0  0  0  0  0
   -2.0010   -0.2900   -0.2320 C   0  0  1  0  0  0  0  0  0  0  0  0
   -2.7830    0.8380   -0.7110 C   0  0  0  0  0  0  0  0  0  0  0  0
   -3.0440    2.0970   -0.0890 C   0  0  2  0  0  0  0  0  0  0  0  0
   -3.9730    2.8890   -1.0820 C   0  0  0  0  0  0  0  0  0  0  0  0
   -2.0850    3.0830    0.3800 C   0  0  0  0  0  0  0  0  0  0  0  0
   -2.0190   -1.4180   -1.2640 C   0  0  0  0  0  0  0  0  0  0  0  0
   -2.5720   -2.7100   -0.8220 C   0  0  0  0  0  0  0  0  0  0  0  0
   -3.6340   -2.7250    0.2070 C   0  0  0  0  0  0  0  0  0  0  0  0
   -3.6990   -1.4160    0.9070 C   0  0  0  0  0  0  0  0  0  0  0  0
   -2.4500   -0.8800    0.9450 O   0  0  0  0  0  0  0  0  0  0  0  0
    0.1830   -1.2450    0.4650 C   0  0  0  0  0  0  0  0  0  0  0  0
    1.5560   -0.8250    0.9360 C   0  0  0  0  0  0  0  0  0  0  0  0
  1  2  1  0
  2  3  1  0
  3  4  1  6
  3  5  1  0
  3  6  1  0
  6  7  1  6
  6 22  1  0
  7  8  1  0
  8  9  1  0
  9 10  1  1
  9 11  1  0
  9 21  1  0
 11 12  1  6
 11 16  1  0
 11 20  1  0
 12 13  1  0
 13 14  1  6
 13 15  1  0
 16 17  1  0
 17 18  1  0
 18 19  1  0
 19 20  1  0
 21 22  1  0
M  END
