
     RDKit          3D

 21 23  0  0  0  0  0  0  0  0999 V2000
   -2.1550    2.2530    0.8920 C   0  0  0  0  0  0  0  0  0  0  0  0
   -2.9120    1.0330    0.3490 C   0  0  1  0  0  0  0  0  0  0  0  0
   -3.3420    1.4040   -1.0510 C   0  0  0  0  0  0  0  0  0  0  0  0
   -4.3410    0.5680   -1.6130 N   0  0  0  0  0  0  0  0  0  0  0  0
   -2.8560    2.3400   -1.6750 O   0  0  0  0  0  0  0  0  0  0  0  0
   -2.0030   -0.0440    0.1430 N   0  0  2  0  0  0  0  0  0  0  0  0
   -2.2540   -1.1660    1.0640 C   0  0  0  0  0  0  0  0  0  0  0  0
   -1.3430   -2.2060    0.3770 C   0  0  0  0  0  0  0  0  0  0  0  0
   -0.2000   -1.3400   -0.1140 C   0  0  2  0  0  0  0  0  0  0  0  0
   -0.0620   -1.4360   -1.5000 O   0  0  0  0  0  0  0  0  0  0  0  0
    1.0040   -1.7330    0.6040 C   0  0  0  0  0  0  0  0  0  0  0  0
    2.1930   -0.9080    0.2880 C   0  0  0  0  0  0  0  0  0  0  0  0
    3.4410   -1.1680    0.8460 C   0  0  0  0  0  0  0  0  0  0  0  0
    4.3330   -0.2160    0.4170 C   0  0  0  0  0  0  0  0  0  0  0  0
    3.5770    0.6050   -0.4140 N   0  0  0  0  0  0  0  0  0  0  0  0
    2.3790    0.1740   -0.4640 N   0  0  0  0  0  0  0  0  0  0  0  0
    4.2360    1.7070   -1.0480 C   0  0  0  0  0  0  0  0  0  0  0  0
    5.5370    1.9500   -0.6030 O   0  0  0  0  0  0  0  0  0  0  0  0
    6.2430    1.1080    0.1990 N   0  0  0  0  0  0  0  0  0  0  0  0
    5.6700    0.1050    0.6780 N   0  0  0  0  0  0  0  0  0  0  0  0
   -0.6210    0.1130    0.1940 C   0  0  0  0  0  0  0  0  0  0  0  0
  2  1  1  6
  2  3  1  0
  2  6  1  0
  3  4  1  0
  3  5  2  0
  6  7  1  1
  6 21  1  0
  7  8  1  0
  8  9  1  0
  9 10  1  6
  9 11  1  0
  9 21  1  0
 11 12  1  0
 12 13  1  0
 12 16  2  0
 13 14  2  0
 14 15  1  0
 14 20  1  0
 15 16  1  0
 15 17  1  0
 17 18  1  0
 18 19  1  0
 19 20  2  0
M  CHG  1   6   1
M  END
