
     RDKit          3D

 18 20  0  0  0  0  0  0  0  0999 V2000
   -2.4550   -3.0700    0.7880 C   0  0  0  0  0  0  0  0  0  0  0  0
   -2.5060   -1.7960    0.3820 C   0  0  0  0  0  0  0  0  0  0  0  0
   -3.8260   -1.1690    0.2220 C   0  0  0  0  0  0  0  0  0  0  0  0
   -3.7230    0.2160   -0.2240 C   0  0  0  0  0  0  0  0  0  0  0  0
   -2.5700    0.7890   -0.4440 C   0  0  0  0  0  0  0  0  0  0  0  0
   -2.6230    2.1250   -0.8700 C   0  0  0  0  0  0  0  0  0  0  0  0
   -1.4400    2.7870   -1.1190 C   0  0  0  0  0  0  0  0  0  0  0  0
   -0.2320    2.1340   -0.9470 C   0  0  0  0  0  0  0  0  0  0  0  0
   -0.1730    0.8240   -0.5300 C   0  0  0  0  0  0  0  0  0  0  0  0
    1.0260    0.1360   -0.3470 O   0  0  0  0  0  0  0  0  0  0  0  0
    2.2190    0.8530   -0.6130 C   0  0  0  0  0  0  0  0  0  0  0  0
    3.4210    0.0330   -0.3880 C   0  0  0  0  0  0  0  0  0  0  0  0
    4.1010   -0.0660    0.8060 C   0  0  0  0  0  0  0  0  0  0  0  0
    5.1750   -0.9340    0.6120 C   0  0  0  0  0  0  0  0  0  0  0  0
    5.0720   -1.3160   -0.7240 C   0  0  0  0  0  0  0  0  0  0  0  0
    4.0260   -0.7230   -1.2730 O   0  0  0  0  0  0  0  0  0  0  0  0
   -1.3570    0.1550   -0.2790 C   0  0  0  0  0  0  0  0  0  0  0  0
   -1.3310   -1.0640    0.1110 N   0  0  0  0  0  0  0  0  0  0  0  0
  1  2  2  0
  2  3  1  0
  2 18  1  0
  3  4  1  0
  4  5  2  0
  5  6  1  0
  5 17  1  0
  6  7  2  0
  7  8  1  0
  8  9  2  0
  9 10  1  0
  9 17  1  0
 10 11  1  0
 11 12  1  0
 12 13  2  0
 12 16  1  0
 13 14  1  0
 14 15  2  0
 15 16  1  0
 17 18  2  0
M  END
