
     RDKit          3D

 21 22  0  0  0  0  0  0  0  0999 V2000
    2.2900   -3.7600   -0.2010 C   0  0  0  0  0  0  0  0  0  0  0  0
    2.8920   -2.5650    0.3690 N   0  0  0  0  0  0  0  0  0  0  0  0
    2.1890   -1.3280    0.3720 C   0  0  0  0  0  0  0  0  0  0  0  0
    2.8440   -0.2050    0.9450 N   0  0  0  0  0  0  0  0  0  0  0  0
    3.8180    0.3890    0.3510 C   0  0  0  0  0  0  0  0  0  0  0  0
    4.3570   -0.0220   -0.9700 C   0  0  0  0  0  0  0  0  0  0  0  0
    5.4870    0.8170   -1.1440 O   0  0  0  0  0  0  0  0  0  0  0  0
    5.5300    1.7360   -0.1050 C   0  0  0  0  0  0  0  0  0  0  0  0
    4.5850    1.5040    0.7540 N   0  0  0  0  0  0  0  0  0  0  0  0
    1.0210   -1.3080   -0.1380 N   0  0  0  0  0  0  0  0  0  0  0  0
    0.1970   -0.1500   -0.2080 C   0  0  0  0  0  0  0  0  0  0  0  0
    0.6360    0.8290   -0.8640 O   0  0  0  0  0  0  0  0  0  0  0  0
   -1.1290   -0.0810    0.4590 C   0  0  0  0  0  0  0  0  0  0  0  0
   -1.7270    1.1960    0.2170 N   0  0  2  0  0  0  0  0  0  0  0  0
   -2.0340    1.8270    1.4970 C   0  0  0  0  0  0  0  0  0  0  0  0
   -3.3800    1.2910    1.9090 C   0  0  0  0  0  0  0  0  0  0  0  0
   -3.8630    0.5130    0.7040 C   0  0  0  0  0  0  0  0  0  0  0  0
   -3.0130    1.1460   -0.4030 C   0  0  2  0  0  0  0  0  0  0  0  0
   -3.0600    0.4010   -1.6520 C   0  0  0  0  0  0  0  0  0  0  0  0
   -4.2740    0.2780   -2.3630 N   0  0  0  0  0  0  0  0  0  0  0  0
   -2.0310   -0.1390   -2.1120 O   0  0  0  0  0  0  0  0  0  0  0  0
  1  2  1  0
  2  3  1  0
  3  4  1  0
  3 10  2  3
  4  5  2  3
  5  6  1  0
  5  9  1  0
  6  7  1  0
  7  8  1  0
  8  9  2  0
 10 11  1  0
 11 12  2  0
 11 13  1  0
 14 13  1  1
 14 15  1  0
 14 18  1  0
 15 16  1  0
 16 17  1  0
 17 18  1  0
 18 19  1  6
 19 20  1  0
 19 21  2  0
M  CHG  1  14   1
M  END
