
     RDKit          3D

 21 23  0  0  0  0  0  0  0  0999 V2000
    0.5470    1.0530   -0.2530 N   0  0  0  0  0  0  0  0  0  0  0  0
    0.5740   -0.3060   -0.3060 N   0  0  0  0  0  0  0  0  0  0  0  0
    1.8460   -0.8530   -0.6520 C   0  0  0  0  0  0  0  0  0  0  0  0
    1.9240   -2.1250   -0.7730 O   0  0  0  0  0  0  0  0  0  0  0  0
    3.0510   -0.0660   -0.8760 C   0  0  2  0  0  0  0  0  0  0  0  0
    4.2180   -0.5870   -0.0080 C   0  0  0  0  0  0  0  0  0  0  0  0
    4.8560    0.7470    0.3440 C   0  0  0  0  0  0  0  0  0  0  0  0
    3.6860    1.5810    0.4500 N   0  0  0  0  0  0  0  0  0  0  0  0
    2.9320    1.2540   -0.5930 O   0  0  0  0  0  0  0  0  0  0  0  0
   -0.4610   -1.2170    0.0680 C   0  0  0  0  0  0  0  0  0  0  0  0
   -1.6900   -0.9260    0.2430 C   0  0  0  0  0  0  0  0  0  0  0  0
   -2.2970    0.3750    0.0700 N   0  0  0  0  0  0  0  0  0  0  0  0
   -1.9920    1.5130   -0.7240 C   0  0  0  0  0  0  0  0  0  0  0  0
   -3.4300    1.9560   -1.2040 C   0  0  0  0  0  0  0  0  0  0  0  0
   -4.0210    2.0420    0.1920 C   0  0  0  0  0  0  0  0  0  0  0  0
   -3.5820    0.6690    0.6410 C   0  0  0  0  0  0  0  0  0  0  0  0
   -4.2710   -0.0400    1.3860 O   0  0  0  0  0  0  0  0  0  0  0  0
   -2.6250   -2.0240    0.7220 C   0  0  0  0  0  0  0  0  0  0  0  0
   -2.1270   -3.3410    0.6500 N   0  0  0  0  0  0  0  0  0  0  0  0
   -0.7470   -3.5780    0.4530 C   0  0  0  0  0  0  0  0  0  0  0  0
    0.0030   -2.5910    0.1840 N   0  0  0  0  0  0  0  0  0  0  0  0
  1  2  1  0
  2  3  1  0
  2 10  1  0
  3  4  2  0
  5  3  1  1
  5  6  1  0
  5  9  1  0
  6  7  1  0
  7  8  1  0
  8  9  1  0
 10 11  2  0
 10 21  1  0
 11 12  1  0
 11 18  1  0
 12 13  1  0
 12 16  1  0
 13 14  1  0
 14 15  1  0
 15 16  1  0
 16 17  2  0
 18 19  1  0
 19 20  1  0
 20 21  2  0
M  CHG  1   8   1
M  END
