
     RDKit          3D

 26 29  0  0  0  0  0  0  0  0999 V2000
   -7.3960   -1.2050    0.7990 C   0  0  0  0  0  0  0  0  0  0  0  0
   -6.0650   -0.6480    0.4830 C   0  0  0  0  0  0  0  0  0  0  0  0
   -5.7050    0.6010    0.9340 C   0  0  0  0  0  0  0  0  0  0  0  0
   -4.4600    1.1080    0.6250 C   0  0  0  0  0  0  0  0  0  0  0  0
   -4.1090    2.4580    1.1240 C   0  0  0  0  0  0  0  0  0  0  0  0
   -3.5630    0.3580   -0.1450 C   0  0  0  0  0  0  0  0  0  0  0  0
   -2.2830    0.9470   -0.4540 C   0  0  0  0  0  0  0  0  0  0  0  0
   -2.0290    2.1490   -0.1330 O   0  0  0  0  0  0  0  0  0  0  0  0
   -1.1790    0.2380   -1.1500 C   0  0  2  0  0  0  0  0  0  0  0  0
   -0.5560   -0.8510   -0.2600 C   0  0  0  0  0  0  0  0  0  0  0  0
    0.7440   -1.0040   -1.0800 C   0  0  0  0  0  0  0  0  0  0  0  0
    1.0850    0.4250   -1.2340 C   0  0  2  0  0  0  0  0  0  0  0  0
    1.7880    1.1290   -0.1540 C   0  0  0  0  0  0  0  0  0  0  0  0
    3.0460    0.6780    0.3030 N   0  0  0  0  0  0  0  0  0  0  0  0
    3.1040   -0.5110    1.0590 C   0  0  0  0  0  0  0  0  0  0  0  0
    4.0870   -1.5470    0.4950 C   0  0  0  0  0  0  0  0  0  0  0  0
    5.3840   -0.8480    0.4840 C   0  0  0  0  0  0  0  0  0  0  0  0
    6.6020   -1.1380    0.9020 N   0  0  0  0  0  0  0  0  0  0  0  0
    7.4160   -0.0850    0.6360 C   0  0  0  0  0  0  0  0  0  0  0  0
    6.6680    0.8640    0.0430 N   0  0  0  0  0  0  0  0  0  0  0  0
    5.3980    0.4120   -0.0630 C   0  0  0  0  0  0  0  0  0  0  0  0
    4.1270    0.9290   -0.6060 C   0  0  0  0  0  0  0  0  0  0  0  0
   -0.1270    1.0930   -1.4450 O   0  0  0  0  0  0  0  0  0  0  0  0
   -3.9370   -0.8940   -0.5920 C   0  0  0  0  0  0  0  0  0  0  0  0
   -5.1920   -1.3880   -0.2710 C   0  0  0  0  0  0  0  0  0  0  0  0
   -5.5150   -2.6340   -0.7380 F   0  0  0  0  0  0  0  0  0  0  0  0
  1  2  1  0
  2  3  2  0
  2 25  1  0
  3  4  1  0
  4  5  1  0
  4  6  2  0
  6  7  1  0
  6 24  1  0
  7  8  2  0
  9  7  1  1
  9 10  1  0
  9 23  1  0
 10 11  1  0
 11 12  1  0
 12 13  1  1
 12 23  1  0
 13 14  1  0
 14 15  1  0
 14 22  1  0
 15 16  1  0
 16 17  1  0
 17 18  1  0
 17 21  2  0
 18 19  2  0
 19 20  1  0
 20 21  1  0
 21 22  1  0
 24 25  2  0
 25 26  1  0
M  CHG  1  18   1
M  END
