
     RDKit          3D

 10 10  0  0  0  0  0  0  0  0999 V2000
    0.7650   -1.9210    0.3330 C   0  0  0  0  0  0  0  0  0  0  0  0
   -0.0370   -0.7330    0.4460 N   0  0  0  0  0  0  0  0  0  0  0  0
   -1.2620   -0.9380   -0.2880 C   0  0  0  0  0  0  0  0  0  0  0  0
   -2.2160    0.1930   -0.2510 C   0  0  0  0  0  0  0  0  0  0  0  0
   -1.6160    1.5570   -0.2060 C   0  0  0  0  0  0  0  0  0  0  0  0
   -0.2350    1.5860    0.2820 C   0  0  0  0  0  0  0  0  0  0  0  0
    0.1810    2.4910    0.9370 O   0  0  0  0  0  0  0  0  0  0  0  0
    0.6170    0.4470   -0.0740 C   0  0  1  0  0  0  0  0  0  0  0  0
    2.0000    0.6460    0.4790 C   0  0  0  0  0  0  0  0  0  0  0  0
    2.8460   -0.4130    0.1950 O   0  0  0  0  0  0  0  0  0  0  0  0
  1  2  1  0
  2  3  1  0
  2  8  1  0
  3  4  1  0
  4  5  1  0
  5  6  1  0
  6  7  2  0
  6  8  1  0
  8  9  1  1
  9 10  1  0
M  END
