
     RDKit          3D

 10  9  0  0  0  0  0  0  0  0999 V2000
    3.0310    0.7600    0.4190 C   0  0  0  0  0  0  0  0  0  0  0  0
    1.7240    0.4650   -0.3050 C   0  0  0  0  0  0  0  0  0  0  0  0
    0.9120   -0.4490    0.4380 N   0  0  0  0  0  0  0  0  0  0  0  0
    1.6010   -1.7570    0.4130 C   0  0  0  0  0  0  0  0  0  0  0  0
   -0.3800   -0.6930   -0.1190 C   0  0  0  0  0  0  0  0  0  0  0  0
   -1.3760    0.4130   -0.0420 C   0  0  1  0  0  0  0  0  0  0  0  0
   -1.8290    0.6850    1.3740 C   0  0  0  0  0  0  0  0  0  0  0  0
   -0.9800    1.5760   -0.6500 O   0  0  0  0  0  0  0  0  0  0  0  0
   -2.6260   -0.1090   -0.7940 C   0  0  0  0  0  0  0  0  0  0  0  0
   -2.2780   -0.3590   -2.1240 O   0  0  0  0  0  0  0  0  0  0  0  0
  1  2  1  0
  2  3  1  0
  3  4  1  0
  3  5  1  0
  5  6  1  0
  6  7  1  1
  6  8  1  0
  6  9  1  0
  9 10  1  0
M  END
