
     RDKit          3D

 26 28  0  0  0  0  0  0  0  0999 V2000
   -4.1750   -0.0460   -2.6430 C   0  0  0  0  0  0  0  0  0  0  0  0
   -4.0560    0.7330   -1.5340 C   0  0  0  0  0  0  0  0  0  0  0  0
   -4.7300    2.0290   -1.6130 C   0  0  0  0  0  0  0  0  0  0  0  0
   -3.9710    3.0380   -0.9430 N   0  0  0  0  0  0  0  0  0  0  0  0
   -3.0310    2.7330   -0.1360 C   0  0  0  0  0  0  0  0  0  0  0  0
   -2.5710    1.4080    0.1840 C   0  0  0  0  0  0  0  0  0  0  0  0
   -3.1290    0.3610   -0.4950 C   0  0  0  0  0  0  0  0  0  0  0  0
   -2.7390   -0.9730   -0.1870 C   0  0  0  0  0  0  0  0  0  0  0  0
   -3.2470   -2.1350   -0.5530 C   0  0  0  0  0  0  0  0  0  0  0  0
   -4.3140   -2.2130   -1.3280 F   0  0  0  0  0  0  0  0  0  0  0  0
   -2.6310   -3.4250   -0.0840 C   0  0  0  0  0  0  0  0  0  0  0  0
   -2.2940   -3.3720    1.3710 C   0  0  0  0  0  0  0  0  0  0  0  0
   -1.5620   -2.0930    1.7400 C   0  0  0  0  0  0  0  0  0  0  0  0
   -1.5080   -1.1720    0.6180 N   0  0  0  0  0  0  0  0  0  0  0  0
   -0.3370   -0.4810    0.3290 C   0  0  0  0  0  0  0  0  0  0  0  0
   -0.2800    0.2040   -0.7530 O   0  0  0  0  0  0  0  0  0  0  0  0
    0.8340   -0.4770    1.1700 C   0  0  0  0  0  0  0  0  0  0  0  0
    1.9320    0.2250    0.7650 C   0  0  0  0  0  0  0  0  0  0  0  0
    3.1500    0.3130    1.4970 C   0  0  0  0  0  0  0  0  0  0  0  0
    4.2660    1.0940    0.9800 C   0  0  0  0  0  0  0  0  0  0  0  0
    4.2460    1.7380   -0.1380 C   0  0  0  0  0  0  0  0  0  0  0  0
    5.4660    2.5070   -0.5550 C   0  0  0  0  0  0  0  0  0  0  0  0
    5.8810    1.9060   -1.8240 N   0  0  0  0  0  0  0  0  0  0  0  0
    3.2530   -0.3240    2.6630 C   0  0  0  0  0  0  0  0  0  0  0  0
    2.1390   -1.1050    3.1960 C   0  0  0  0  0  0  0  0  0  0  0  0
    1.0070   -1.1030    2.3700 O   0  0  0  0  0  0  0  0  0  0  0  0
  1  2  2  0
  2  3  1  0
  2  7  1  0
  3  4  1  0
  4  5  2  0
  5  6  1  0
  6  7  2  0
  7  8  1  0
  8  9  2  0
  8 14  1  0
  9 10  1  0
  9 11  1  0
 11 12  1  0
 12 13  1  0
 13 14  1  0
 14 15  1  0
 15 16  2  0
 15 17  1  0
 17 18  2  0
 17 26  1  0
 18 19  1  0
 19 20  1  0
 19 24  2  0
 20 21  2  3
 21 22  1  0
 22 23  1  0
 24 25  1  0
 25 26  1  0
M  CHG  1  23   1
M  END
