
     RDKit          3D

 25 28  0  0  0  0  0  0  0  0999 V2000
   -3.2050   -0.8330    1.6270 C   0  0  0  0  0  0  0  0  0  0  0  0
   -3.0580    0.7240    1.0330 S   0  0  0  0  0  0  0  0  0  0  0  0
   -2.8350    2.0450    0.5930 O   0  0  0  0  0  0  0  0  0  0  0  0
   -4.3170    0.4580   -0.1000 C   0  0  0  0  0  0  0  0  0  0  0  0
   -5.5640    0.0800    0.3320 C   0  0  0  0  0  0  0  0  0  0  0  0
   -6.6170   -0.1350   -0.5670 C   0  0  0  0  0  0  0  0  0  0  0  0
   -6.4430    0.0220   -1.9080 C   0  0  0  0  0  0  0  0  0  0  0  0
   -5.1980    0.3990   -2.3390 C   0  0  0  0  0  0  0  0  0  0  0  0
   -4.1630    0.6110   -1.4510 C   0  0  0  0  0  0  0  0  0  0  0  0
   -1.4590    0.2920    0.4770 C   0  0  0  0  0  0  0  0  0  0  0  0
   -0.3820    0.8080    1.0880 C   0  0  0  0  0  0  0  0  0  0  0  0
    0.9010    0.4530    0.6400 C   0  0  0  0  0  0  0  0  0  0  0  0
    1.0390   -0.4070   -0.4060 C   0  0  0  0  0  0  0  0  0  0  0  0
    2.2910   -0.8080   -0.9110 N   0  0  0  0  0  0  0  0  0  0  0  0
    3.5500   -0.4080   -0.4430 C   0  0  0  0  0  0  0  0  0  0  0  0
    3.7970    0.4280    0.5680 N   0  0  0  0  0  0  0  0  0  0  0  0
    4.9980    0.7950    0.9950 C   0  0  0  0  0  0  0  0  0  0  0  0
    6.0990    0.3010    0.3800 N   0  0  0  0  0  0  0  0  0  0  0  0
    7.3920    0.4970    0.5990 C   0  0  0  0  0  0  0  0  0  0  0  0
    8.0710   -0.2560   -0.3250 C   0  0  0  0  0  0  0  0  0  0  0  0
    7.1470   -0.9100   -1.1050 C   0  0  0  0  0  0  0  0  0  0  0  0
    5.8750   -0.5400   -0.6380 C   0  0  0  0  0  0  0  0  0  0  0  0
    4.6710   -0.9030   -1.0610 N   0  0  0  0  0  0  0  0  0  0  0  0
   -0.0970   -0.9010   -0.9890 N   0  0  0  0  0  0  0  0  0  0  0  0
   -1.3020   -0.5620   -0.5610 C   0  0  0  0  0  0  0  0  0  0  0  0
  1  2  1  0
  2  3  2  0
  2  4  1  0
  2 10  1  0
  4  5  2  0
  4  9  1  0
  5  6  1  0
  6  7  2  0
  7  8  1  0
  8  9  2  0
 10 11  2  0
 10 25  1  0
 11 12  1  0
 12 13  2  0
 13 14  1  0
 13 24  1  0
 14 15  1  0
 15 16  1  0
 15 23  2  0
 16 17  2  0
 17 18  1  0
 18 19  1  0
 18 22  1  0
 19 20  2  0
 20 21  1  0
 21 22  2  0
 22 23  1  0
 24 25  2  0
M  END
