
     RDKit          3D

 26 29  0  0  0  0  0  0  0  0999 V2000
    1.9700   -3.0660    0.8560 C   0  0  0  0  0  0  0  0  0  0  0  0
    2.3110   -1.9960    1.7510 N   0  0  0  0  0  0  0  0  0  0  0  0
    2.6920   -2.3220    3.1030 C   0  0  0  0  0  0  0  0  0  0  0  0
    2.2900   -0.6330    1.3650 C   0  0  0  0  0  0  0  0  0  0  0  0
    2.1910   -0.2630    0.1390 N   0  0  0  0  0  0  0  0  0  0  0  0
    2.1690    1.1000   -0.2630 C   0  0  0  0  0  0  0  0  0  0  0  0
    3.1030    2.0240    0.1710 C   0  0  0  0  0  0  0  0  0  0  0  0
    3.0670    3.3700   -0.2340 C   0  0  0  0  0  0  0  0  0  0  0  0
    2.0990    3.7610   -1.0630 C   0  0  0  0  0  0  0  0  0  0  0  0
    1.1520    2.8190   -1.5000 C   0  0  0  0  0  0  0  0  0  0  0  0
    1.1680    1.5010   -1.1180 C   0  0  0  0  0  0  0  0  0  0  0  0
    0.1350    0.5390   -1.6170 C   0  0  0  0  0  0  0  0  0  0  0  0
   -0.8990    0.2250   -0.5730 C   0  0  0  0  0  0  0  0  0  0  0  0
   -1.8770   -0.7280   -1.1400 C   0  0  0  0  0  0  0  0  0  0  0  0
   -1.7360   -1.0970   -2.3370 O   0  0  0  0  0  0  0  0  0  0  0  0
   -2.9670   -1.2490   -0.4050 N   0  0  0  0  0  0  0  0  0  0  0  0
   -3.2780   -0.9360    0.9720 C   0  0  0  0  0  0  0  0  0  0  0  0
   -4.6240   -1.5360    1.2680 C   0  0  0  0  0  0  0  0  0  0  0  0
   -4.9180   -2.3470    0.0860 C   0  0  0  0  0  0  0  0  0  0  0  0
   -5.8360   -3.2320   -0.4020 N   0  0  0  0  0  0  0  0  0  0  0  0
   -5.4870   -3.6150   -1.6200 N   0  0  0  0  0  0  0  0  0  0  0  0
   -4.3450   -2.9840   -1.9320 C   0  0  0  0  0  0  0  0  0  0  0  0
   -3.9450   -2.1640   -0.8720 C   0  0  0  0  0  0  0  0  0  0  0  0
    2.0810    5.1750   -1.4700 C   0  0  0  0  0  0  0  0  0  0  0  0
    3.1980    5.9340   -0.2270 S   0  0  0  0  0  0  0  0  0  0  0  0
    4.0450    4.3880    0.2020 C   0  0  0  0  0  0  0  0  0  0  0  0
  1  2  1  0
  2  3  1  0
  2  4  1  0
  4  5  2  3
  5  6  1  0
  6  7  2  0
  6 11  1  0
  7  8  1  0
  8  9  2  0
  8 26  1  0
  9 10  1  0
  9 24  1  0
 10 11  2  0
 11 12  1  0
 12 13  1  0
 13 14  1  0
 14 15  2  0
 14 16  1  0
 16 17  1  0
 16 23  1  0
 17 18  1  0
 18 19  1  0
 19 20  2  0
 19 23  1  0
 20 21  1  0
 21 22  1  0
 22 23  2  0
 24 25  1  0
 25 26  1  0
M  END
