
     RDKit          3D

 26 29  0  0  0  0  0  0  0  0999 V2000
   -2.5980   -3.8630    0.5560 C   0  0  0  0  0  0  0  0  0  0  0  0
   -1.7920   -2.6470    0.3990 C   0  0  0  0  0  0  0  0  0  0  0  0
   -2.3630   -1.4280    0.0930 C   0  0  0  0  0  0  0  0  0  0  0  0
   -3.7450   -1.4350   -0.0550 C   0  0  0  0  0  0  0  0  0  0  0  0
   -4.6540   -0.6030   -0.3710 C   0  0  0  0  0  0  0  0  0  0  0  0
   -4.5750    0.8070   -0.7480 C   0  0  0  0  0  0  0  0  0  0  0  0
   -5.0820    1.6080    0.4250 C   0  0  0  0  0  0  0  0  0  0  0  0
   -6.4210    1.0540    0.8410 C   0  0  0  0  0  0  0  0  0  0  0  0
   -6.9940    0.0070   -0.0510 C   0  0  0  0  0  0  0  0  0  0  0  0
   -6.0530   -1.0330   -0.3790 O   0  0  0  0  0  0  0  0  0  0  0  0
   -1.3470   -0.3600    0.0370 C   0  0  0  0  0  0  0  0  0  0  0  0
   -0.1050   -0.4330    0.0080 N   0  0  0  0  0  0  0  0  0  0  0  0
    0.7300    0.5450    0.0580 C   0  0  0  0  0  0  0  0  0  0  0  0
    2.2130    0.3520    0.0160 C   0  0  0  0  0  0  0  0  0  0  0  0
    2.7870   -0.8900   -0.0800 C   0  0  0  0  0  0  0  0  0  0  0  0
    4.1570   -1.0710   -0.1200 C   0  0  0  0  0  0  0  0  0  0  0  0
    4.9590    0.0400   -0.0610 C   0  0  0  0  0  0  0  0  0  0  0  0
    6.2790    0.2360   -0.0740 N   0  0  0  0  0  0  0  0  0  0  0  0
    6.5460    1.5630    0.0110 C   0  0  0  0  0  0  0  0  0  0  0  0
    7.8410    2.1470    0.0250 N   0  0  0  0  0  0  0  0  0  0  0  0
    9.0400    1.3430   -0.0540 C   0  0  0  0  0  0  0  0  0  0  0  0
    5.3520    2.1750    0.0770 N   0  0  0  0  0  0  0  0  0  0  0  0
    4.3630    1.2810    0.0360 C   0  0  0  0  0  0  0  0  0  0  0  0
    3.0050    1.4190    0.0720 N   0  0  0  0  0  0  0  0  0  0  0  0
    0.1910    1.7850    0.1520 C   0  0  0  0  0  0  0  0  0  0  0  0
   -1.5910    1.4060    0.1610 S   0  0  0  0  0  0  0  0  0  0  0  0
  1  2  1  0
  2  3  2  3
  3  4  1  0
  3 11  1  0
  4  5  2  3
  5  6  1  0
  5 10  1  0
  6  7  1  0
  7  8  1  0
  8  9  1  0
  9 10  1  0
 11 12  2  0
 11 26  1  0
 12 13  1  0
 13 14  1  0
 13 25  2  0
 14 15  2  0
 14 24  1  0
 15 16  1  0
 16 17  2  0
 17 18  1  0
 17 23  1  0
 18 19  1  0
 19 20  1  0
 19 22  2  0
 20 21  1  0
 22 23  1  0
 23 24  2  0
 25 26  1  0
M  END
