
     RDKit          3D

 23 25  0  0  0  0  0  0  0  0999 V2000
   -3.2010   -1.7310   -1.3720 C   0  0  0  0  0  0  0  0  0  0  0  0
   -3.8870   -0.5860   -0.7390 C   0  0  0  0  0  0  0  0  0  0  0  0
   -5.2240   -0.3850   -0.9820 C   0  0  0  0  0  0  0  0  0  0  0  0
   -5.8930    0.6710   -0.4070 C   0  0  0  0  0  0  0  0  0  0  0  0
   -5.1620    1.5010    0.4100 C   0  0  0  0  0  0  0  0  0  0  0  0
   -3.7970    1.2910    0.6540 C   0  0  0  0  0  0  0  0  0  0  0  0
   -3.1220    0.2470    0.0920 C   0  0  0  0  0  0  0  0  0  0  0  0
   -1.7480   -0.0330    0.2120 N   0  0  0  0  0  0  0  0  0  0  0  0
   -0.8940    0.4850    1.2230 C   0  0  0  0  0  0  0  0  0  0  0  0
   -1.2110    1.0230    2.4520 C   0  0  0  0  0  0  0  0  0  0  0  0
   -0.0360    1.3040    3.0820 N   0  0  0  0  0  0  0  0  0  0  0  0
    0.9530    0.9590    2.2940 N   0  0  0  0  0  0  0  0  0  0  0  0
    0.5030    0.4610    1.1640 C   0  0  0  0  0  0  0  0  0  0  0  0
    1.2350   -0.0340    0.0290 N   0  0  0  0  0  0  0  0  0  0  0  0
    2.6620   -0.0080    0.0840 C   0  0  0  0  0  0  0  0  0  0  0  0
    3.2620    0.4410    1.1070 O   0  0  0  0  0  0  0  0  0  0  0  0
    3.4640   -0.4720   -0.9810 N   0  0  0  0  0  0  0  0  0  0  0  0
    4.8800   -0.4260   -0.8810 C   0  0  0  0  0  0  0  0  0  0  0  0
    5.8030    0.1820    0.5060 S   0  0  0  0  0  0  0  0  0  0  0  0
    7.4370   -0.1360   -0.2290 C   0  0  0  0  0  0  0  0  0  0  0  0
    7.0660   -0.6610   -1.4270 C   0  0  0  0  0  0  0  0  0  0  0  0
    5.8200   -0.8030   -1.7470 N   0  0  0  0  0  0  0  0  0  0  0  0
    5.3740   -1.3480   -2.9900 O   0  0  0  0  0  0  0  0  0  0  0  0
  1  2  1  0
  2  3  2  0
  2  7  1  0
  3  4  1  0
  4  5  2  0
  5  6  1  0
  6  7  2  0
  7  8  1  0
  8  9  1  0
  9 10  2  0
  9 13  1  0
 10 11  1  0
 11 12  1  0
 12 13  2  0
 13 14  1  0
 14 15  1  0
 15 16  2  0
 15 17  1  0
 17 18  1  0
 18 19  1  0
 18 22  2  0
 19 20  1  0
 20 21  2  0
 21 22  1  0
 22 23  1  0
M  CHG  2  22   1  23  -1
M  END
