
     RDKit          3D

 23 25  0  0  0  0  0  0  0  0999 V2000
   -6.7250    2.1610   -1.3150 C   0  0  0  0  0  0  0  0  0  0  0  0
   -5.7390    1.1310   -0.8410 C   0  0  0  0  0  0  0  0  0  0  0  0
   -5.9150   -0.1410   -0.4220 C   0  0  0  0  0  0  0  0  0  0  0  0
   -4.8180   -0.8590   -0.0410 C   0  0  0  0  0  0  0  0  0  0  0  0
   -5.0620   -2.1960    0.3800 O   0  0  0  0  0  0  0  0  0  0  0  0
   -3.6280   -0.3000   -0.0880 C   0  0  0  0  0  0  0  0  0  0  0  0
   -2.2370   -0.7170    0.1930 C   0  0  0  0  0  0  0  0  0  0  0  0
   -1.8570   -1.7800    0.9430 C   0  0  0  0  0  0  0  0  0  0  0  0
   -0.5130   -2.1560    1.1090 C   0  0  0  0  0  0  0  0  0  0  0  0
    0.4760   -1.4250    0.4930 C   0  0  0  0  0  0  0  0  0  0  0  0
    0.0740   -0.3470   -0.2640 C   0  0  0  0  0  0  0  0  0  0  0  0
    1.0750    0.4550   -0.9040 N   0  0  0  0  0  0  0  0  0  0  0  0
    2.4930    0.2670   -0.7440 C   0  0  0  0  0  0  0  0  0  0  0  0
    3.0420    0.6970    0.5790 C   0  0  0  0  0  0  0  0  0  0  0  0
    4.5180    0.4070    0.5350 C   0  0  0  0  0  0  0  0  0  0  0  0
    5.5030    1.2290    0.1190 N   0  0  0  0  0  0  0  0  0  0  0  0
    6.6690    0.5710    0.2480 C   0  0  0  0  0  0  0  0  0  0  0  0
    7.9730    1.0420   -0.0680 N   0  0  0  0  0  0  0  0  0  0  0  0
    6.4280   -0.6540    0.7410 N   0  0  0  0  0  0  0  0  0  0  0  0
    5.1280   -0.7370    0.9080 N   0  0  0  0  0  0  0  0  0  0  0  0
   -1.2270   -0.0210   -0.3980 N   0  0  0  0  0  0  0  0  0  0  0  0
   -1.5790    1.0710   -1.1760 O   0  0  0  0  0  0  0  0  0  0  0  0
   -3.9730    1.3540   -0.7050 S   0  0  0  0  0  0  0  0  0  0  0  0
  1  2  1  0
  2  3  2  0
  2 23  1  0
  3  4  1  0
  4  5  1  0
  4  6  2  0
  6  7  1  0
  6 23  1  0
  7  8  2  0
  7 21  1  0
  8  9  1  0
  9 10  2  0
 10 11  1  0
 11 12  1  0
 11 21  2  0
 12 13  1  0
 13 14  1  0
 14 15  1  0
 15 16  2  0
 15 20  1  0
 16 17  1  0
 17 18  1  0
 17 19  2  0
 19 20  1  0
 21 22  1  0
M  CHG  2  21   1  22  -1
M  END
