
     RDKit          3D

 23 25  0  0  0  0  0  0  0  0999 V2000
   -6.2730   -1.8320   -0.4090 N   0  0  0  0  0  0  0  0  0  0  0  0
   -5.4350   -0.7200   -0.8310 C   0  0  0  0  0  0  0  0  0  0  0  0
   -5.9400    0.1430   -1.5800 N   0  0  0  0  0  0  0  0  0  0  0  0
   -5.4070    1.2740   -2.1260 C   0  0  0  0  0  0  0  0  0  0  0  0
   -4.8260    1.2520   -3.2600 O   0  0  0  0  0  0  0  0  0  0  0  0
   -5.5350    2.8320   -1.2190 S   0  0  0  0  0  0  0  0  0  0  0  0
   -4.0950   -0.6620   -0.3870 N   0  0  0  0  0  0  0  0  0  0  0  0
   -3.0470   -0.0110   -1.1230 C   0  0  0  0  0  0  0  0  0  0  0  0
   -1.7380   -0.2610   -0.4020 C   0  0  0  0  0  0  0  0  0  0  0  0
   -1.5200   -0.9800    0.7060 N   0  0  0  0  0  0  0  0  0  0  0  0
   -0.1970   -0.9380    1.0090 C   0  0  0  0  0  0  0  0  0  0  0  0
    0.3980   -0.1820    0.0700 N   0  0  0  0  0  0  0  0  0  0  0  0
   -0.5520    0.2240   -0.7830 N   0  0  0  0  0  0  0  0  0  0  0  0
    1.7850   -0.1330    0.3800 C   0  0  0  0  0  0  0  0  0  0  0  0
    2.6760    0.5040   -0.3040 N   0  0  0  0  0  0  0  0  0  0  0  0
    4.0380    0.5430    0.0160 C   0  0  0  0  0  0  0  0  0  0  0  0
    4.8900   -0.5430   -0.1020 C   0  0  0  0  0  0  0  0  0  0  0  0
    6.2260   -0.4560    0.2260 C   0  0  0  0  0  0  0  0  0  0  0  0
    6.7620    0.7300    0.6860 C   0  0  0  0  0  0  0  0  0  0  0  0
    5.9350    1.8110    0.8080 C   0  0  0  0  0  0  0  0  0  0  0  0
    4.5970    1.7170    0.4780 C   0  0  0  0  0  0  0  0  0  0  0  0
    2.0080   -0.9170    1.5860 C   0  0  0  0  0  0  0  0  0  0  0  0
    0.8260   -1.3840    1.9410 C   0  0  0  0  0  0  0  0  0  0  0  0
  1  2  1  0
  2  3  2  3
  2  7  1  0
  3  4  1  0
  4  5  2  0
  4  6  1  0
  7  8  1  0
  8  9  1  0
  9 10  1  0
  9 13  2  0
 10 11  2  0
 11 12  1  0
 11 23  1  0
 12 13  1  0
 12 14  1  0
 14 15  2  3
 14 22  1  0
 15 16  1  0
 16 17  2  0
 16 21  1  0
 17 18  1  0
 18 19  2  0
 19 20  1  0
 20 21  2  0
 22 23  2  0
M  END
