
     RDKit          3D

 23 25  0  0  0  0  0  0  0  0999 V2000
   -5.5570   -2.6010    2.0430 C   0  0  0  0  0  0  0  0  0  0  0  0
   -4.6880   -1.0670    2.3410 S   0  0  0  0  0  0  0  0  0  0  0  0
   -3.5260   -0.6790    1.0400 C   0  0  0  0  0  0  0  0  0  0  0  0
   -3.3740   -1.5210   -0.0420 C   0  0  0  0  0  0  0  0  0  0  0  0
   -2.4630   -1.1980   -1.0440 C   0  0  0  0  0  0  0  0  0  0  0  0
   -1.7170   -0.0540   -0.9640 N   0  0  0  0  0  0  0  0  0  0  0  0
   -0.8740    0.1720   -2.0250 O   0  0  0  0  0  0  0  0  0  0  0  0
   -1.8480    0.7760    0.0760 C   0  0  0  0  0  0  0  0  0  0  0  0
   -1.0650    1.9990    0.1170 C   0  0  0  0  0  0  0  0  0  0  0  0
   -1.6340    3.2330    0.2900 N   0  0  0  0  0  0  0  0  0  0  0  0
   -0.6710    4.1190    0.2980 N   0  0  0  0  0  0  0  0  0  0  0  0
    0.5120    3.5070    0.1360 N   0  0  0  0  0  0  0  0  0  0  0  0
    0.2850    2.1930    0.0240 C   0  0  0  0  0  0  0  0  0  0  0  0
    1.2700    1.1850   -0.1190 N   0  0  0  0  0  0  0  0  0  0  0  0
    2.6620    1.3790   -0.2350 C   0  0  0  0  0  0  0  0  0  0  0  0
    3.0800    2.5840   -0.2320 O   0  0  0  0  0  0  0  0  0  0  0  0
    3.6520    0.3250   -0.3570 C   0  0  0  0  0  0  0  0  0  0  0  0
    3.3380   -1.0130   -0.3730 C   0  0  0  0  0  0  0  0  0  0  0  0
    4.3060   -1.9920   -0.4900 C   0  0  0  0  0  0  0  0  0  0  0  0
    5.5980   -1.6720   -0.5940 N   0  0  0  0  0  0  0  0  0  0  0  0
    5.9570   -0.3690   -0.5830 C   0  0  0  0  0  0  0  0  0  0  0  0
    4.9890    0.6350   -0.4640 C   0  0  0  0  0  0  0  0  0  0  0  0
   -2.7530    0.4450    1.0600 C   0  0  0  0  0  0  0  0  0  0  0  0
  1  2  1  0
  2  3  1  0
  3  4  2  0
  3 23  1  0
  4  5  1  0
  5  6  2  0
  6  7  1  0
  6  8  1  0
  8  9  1  0
  8 23  2  0
  9 10  1  0
  9 13  2  0
 10 11  2  0
 11 12  1  0
 12 13  1  0
 13 14  1  0
 14 15  1  0
 15 16  2  0
 15 17  1  0
 17 18  2  0
 17 22  1  0
 18 19  1  0
 19 20  2  0
 20 21  1  0
 21 22  2  0
M  CHG  2   6   1   7  -1
M  END
