
     RDKit          3D

 23 25  0  0  0  0  0  0  0  0999 V2000
   -4.4660   -1.4940    0.8600 N   0  0  0  0  0  0  0  0  0  0  0  0
   -4.8590   -0.2660    0.2720 C   0  0  0  0  0  0  0  0  0  0  0  0
   -4.5720    0.0860   -1.0280 C   0  0  0  0  0  0  0  0  0  0  0  0
   -3.6700   -0.9060   -2.2090 S   0  0  0  0  0  0  0  0  0  0  0  0
   -1.9180   -0.4720   -2.0510 C   0  0  0  0  0  0  0  0  0  0  0  0
   -1.3670   -0.8870   -0.7040 C   0  0  0  0  0  0  0  0  0  0  0  0
    0.0730   -0.5080   -0.6260 C   0  0  0  0  0  0  0  0  0  0  0  0
    0.5760    0.0560   -1.6140 O   0  0  0  0  0  0  0  0  0  0  0  0
    0.8720   -0.7570    0.5000 N   0  0  0  0  0  0  0  0  0  0  0  0
    2.2370   -0.4370    0.6700 C   0  0  0  0  0  0  0  0  0  0  0  0
    2.8280   -0.7680    1.9010 C   0  0  0  0  0  0  0  0  0  0  0  0
    4.1310   -0.5230    2.2100 C   0  0  0  0  0  0  0  0  0  0  0  0
    4.9170    0.0870    1.2580 C   0  0  0  0  0  0  0  0  0  0  0  0
    6.2050    0.3450    1.5250 N   0  0  0  0  0  0  0  0  0  0  0  0
    6.9530    0.9310    0.6050 N   0  0  0  0  0  0  0  0  0  0  0  0
    6.5170    1.2970   -0.6040 C   0  0  0  0  0  0  0  0  0  0  0  0
    5.1970    1.0520   -0.9260 C   0  0  0  0  0  0  0  0  0  0  0  0
    4.4110    0.4420    0.0270 C   0  0  0  0  0  0  0  0  0  0  0  0
    3.0630    0.1590   -0.2210 C   0  0  0  0  0  0  0  0  0  0  0  0
   -5.1280    1.3440   -1.2000 C   0  0  0  0  0  0  0  0  0  0  0  0
   -5.7150    1.7090   -0.0450 N   0  0  0  0  0  0  0  0  0  0  0  0
   -5.5610    0.7480    0.8530 N   0  0  0  0  0  0  0  0  0  0  0  0
   -6.0230    0.7580    2.1430 O   0  0  0  0  0  0  0  0  0  0  0  0
  1  2  1  0
  2  3  1  0
  2 22  2  0
  3  4  1  0
  3 20  2  0
  4  5  1  0
  5  6  1  0
  6  7  1  0
  7  8  2  0
  7  9  1  0
  9 10  1  0
 10 11  2  0
 10 19  1  0
 11 12  1  0
 12 13  2  0
 13 14  1  0
 13 18  1  0
 14 15  2  0
 15 16  1  0
 16 17  2  0
 17 18  1  0
 18 19  2  0
 20 21  1  0
 21 22  1  0
 22 23  1  0
M  CHG  2  22   1  23  -1
M  END
