
     RDKit          3D

 23 25  0  0  0  0  0  0  0  0999 V2000
    2.9040   -0.5990    3.6800 C   0  0  0  0  0  0  0  0  0  0  0  0
    2.2110   -0.4170    2.3740 C   0  0  0  0  0  0  0  0  0  0  0  0
    0.8660   -0.6350    2.2160 C   0  0  0  0  0  0  0  0  0  0  0  0
    0.1930   -0.4690    0.9960 C   0  0  0  0  0  0  0  0  0  0  0  0
   -1.2660   -0.7040    0.9790 C   0  0  0  0  0  0  0  0  0  0  0  0
   -1.7720   -1.3600    1.9380 O   0  0  0  0  0  0  0  0  0  0  0  0
   -2.1430   -0.2570   -0.0170 N   0  0  0  0  0  0  0  0  0  0  0  0
   -3.5550   -0.5120    0.0050 C   0  0  0  0  0  0  0  0  0  0  0  0
   -4.3290   -1.2010    0.9030 C   0  0  0  0  0  0  0  0  0  0  0  0
   -5.6150   -1.1560    0.4700 N   0  0  0  0  0  0  0  0  0  0  0  0
   -5.7080   -0.4860   -0.6380 N   0  0  0  0  0  0  0  0  0  0  0  0
   -4.4450   -0.0720   -0.9530 C   0  0  0  0  0  0  0  0  0  0  0  0
   -4.0660    0.7400   -2.1510 C   0  0  0  0  0  0  0  0  0  0  0  0
    0.9280   -0.0710   -0.0790 C   0  0  0  0  0  0  0  0  0  0  0  0
    0.3820    0.0990   -1.2690 N   0  0  0  0  0  0  0  0  0  0  0  0
    1.0180    0.4670   -2.3470 N   0  0  0  0  0  0  0  0  0  0  0  0
    2.3390    0.6970   -2.2570 C   0  0  0  0  0  0  0  0  0  0  0  0
    2.9840    1.0500   -3.2630 O   0  0  0  0  0  0  0  0  0  0  0  0
    3.0490    0.5560   -1.0610 C   0  0  0  0  0  0  0  0  0  0  0  0
    4.4270    0.8080   -1.0150 N   0  0  0  0  0  0  0  0  0  0  0  0
    5.2490    1.3060   -2.5110 S   0  0  0  0  0  0  0  0  0  0  0  0
    2.3040    0.1620    0.0370 C   0  0  0  0  0  0  0  0  0  0  0  0
    2.9140   -0.0130    1.2500 C   0  0  0  0  0  0  0  0  0  0  0  0
  1  2  1  0
  2  3  1  0
  2 23  2  0
  3  4  2  0
  4  5  1  0
  4 14  1  0
  5  6  2  0
  5  7  1  0
  7  8  1  0
  8  9  1  0
  8 12  2  0
  9 10  2  0
 10 11  1  0
 11 12  1  0
 12 13  1  0
 14 15  2  0
 14 22  1  0
 15 16  1  0
 16 17  1  0
 17 18  2  0
 17 19  1  0
 19 20  1  0
 19 22  2  0
 20 21  1  0
 22 23  1  0
M  END
