
     RDKit          3D

 43 47  0  0  0  0  0  0  0  0999 V2000
   -0.1530   -0.1140    3.4520 C   0  0  0  0  0  0  0  0  0  0  0  0
    0.5080   -0.1400    2.1420 C   0  0  0  0  0  0  0  0  0  0  0  0
    1.9200   -0.1120    2.1330 C   0  0  0  0  0  0  0  0  0  0  0  0
    2.6590   -0.0840    0.9790 C   0  0  0  0  0  0  0  0  0  0  0  0
    4.0700   -0.0530    0.9740 N   0  0  0  0  0  0  0  0  0  0  0  0
    4.7890   -1.0870    1.6760 C   0  0  0  0  0  0  0  0  0  0  0  0
    6.2170   -1.1870    1.2350 C   0  0  0  0  0  0  0  0  0  0  0  0
    7.0550   -1.8520    1.9270 O   0  0  0  0  0  0  0  0  0  0  0  0
    6.6820   -0.5560    0.0490 N   0  0  0  0  0  0  0  0  0  0  0  0
    7.6970   -1.1790   -0.7760 C   0  0  0  0  0  0  0  0  0  0  0  0
    9.1040   -0.7890   -0.3970 C   0  0  2  0  0  0  0  0  0  0  0  0
   10.0450   -1.5300   -1.2980 C   0  0  0  0  0  0  0  0  0  0  0  0
    9.4200   -1.1550    0.9550 O   0  0  0  0  0  0  0  0  0  0  0  0
   10.3420   -0.2110    1.3990 C   0  0  0  0  0  0  0  0  0  0  0  0
   11.1250   -0.3230    2.3600 O   0  0  0  0  0  0  0  0  0  0  0  0
   10.2080    0.9540    0.5050 C   0  0  1  0  0  0  0  0  0  0  0  0
   11.5290    1.2430   -0.2070 C   0  0  0  0  0  0  0  0  0  0  0  0
    9.2800    0.5910   -0.4380 O   0  0  0  0  0  0  0  0  0  0  0  0
    6.1340    0.7230   -0.3270 C   0  0  0  0  0  0  0  0  0  0  0  0
    4.8190    0.9510    0.3060 C   0  0  0  0  0  0  0  0  0  0  0  0
    4.2920    2.1180    0.2690 O   0  0  0  0  0  0  0  0  0  0  0  0
    1.9790   -0.0820   -0.2170 C   0  0  0  0  0  0  0  0  0  0  0  0
    2.6830   -0.0520   -1.5340 C   0  0  0  0  0  0  0  0  0  0  0  0
    0.6030   -0.1100   -0.2030 C   0  0  0  0  0  0  0  0  0  0  0  0
   -0.1550   -0.1400    0.9740 C   0  0  0  0  0  0  0  0  0  0  0  0
   -1.6030   -0.2300    0.8850 C   0  0  0  0  0  0  0  0  0  0  0  0
   -2.6400   -0.5710    1.6910 C   0  0  0  0  0  0  0  0  0  0  0  0
   -3.8880   -0.5540    1.1630 C   0  0  0  0  0  0  0  0  0  0  0  0
   -4.0710   -0.2130   -0.1040 C   0  0  0  0  0  0  0  0  0  0  0  0
   -5.2880   -0.1000   -0.9190 C   0  0  0  0  0  0  0  0  0  0  0  0
   -5.1780    0.2440   -2.1190 O   0  0  0  0  0  0  0  0  0  0  0  0
   -6.5340   -0.3490   -0.4350 O   0  0  0  0  0  0  0  0  0  0  0  0
   -7.7540   -0.2680   -1.1220 C   0  0  1  0  0  0  0  0  0  0  0  0
   -8.0250    1.1250   -1.6530 C   0  0  0  0  0  0  0  0  0  0  0  0
   -8.0860    2.1680   -0.5610 C   0  0  0  0  0  0  0  0  0  0  0  0
   -8.3560    3.5000   -1.2370 C   0  0  0  0  0  0  0  0  0  0  0  0
   -9.5860    3.3720   -1.9110 O   0  0  0  0  0  0  0  0  0  0  0  0
   -7.8640   -1.2030   -2.2910 C   0  0  0  0  0  0  0  0  0  0  0  0
   -8.2280   -2.5340   -1.7100 C   0  0  0  0  0  0  0  0  0  0  0  0
   -8.8020   -2.2410   -0.3590 C   0  0  0  0  0  0  0  0  0  0  0  0
   -8.8480   -0.7380   -0.1990 C   0  0  1  0  0  0  0  0  0  0  0  0
   -8.5350   -0.4340    1.2520 C   0  0  0  0  0  0  0  0  0  0  0  0
   -2.4890    0.1140   -0.6680 S   0  0  0  0  0  0  0  0  0  0  0  0
  1  2  1  0
  2  3  2  0
  2 25  1  0
  3  4  1  0
  4  5  1  0
  4 22  2  0
  5  6  1  0
  5 20  1  0
  6  7  1  0
  7  8  2  0
  7  9  1  0
  9 10  1  0
  9 19  1  0
 10 11  1  0
 11 12  1  6
 11 13  1  0
 11 18  1  0
 13 14  1  0
 14 15  2  0
 14 16  1  0
 16 17  1  6
 16 18  1  0
 19 20  1  0
 20 21  2  0
 22 23  1  0
 22 24  1  0
 24 25  2  0
 25 26  1  0
 26 27  2  0
 26 43  1  0
 27 28  1  0
 28 29  2  0
 29 30  1  0
 29 43  1  0
 30 31  2  0
 30 32  1  0
 32 33  1  0
 33 34  1  6
 33 38  1  0
 33 41  1  0
 34 35  1  0
 35 36  1  0
 36 37  1  0
 38 39  1  0
 39 40  1  0
 40 41  1  0
 41 42  1  1
M  END
