
     RDKit          3D

 43 47  0  0  0  0  0  0  0  0999 V2000
    0.9930   -5.4600    0.8500 C   0  0  0  0  0  0  0  0  0  0  0  0
    1.9230   -5.0340    1.6450 C   0  0  0  0  0  0  0  0  0  0  0  0
    2.2350   -3.6490    2.0280 C   0  0  0  0  0  0  0  0  0  0  0  0
    1.3150   -2.6560    1.4680 N   0  0  0  0  0  0  0  0  0  0  0  0
   -0.0370   -2.6630    1.7760 C   0  0  0  0  0  0  0  0  0  0  0  0
   -0.4330   -3.5860    2.5650 O   0  0  0  0  0  0  0  0  0  0  0  0
   -0.9970   -1.6800    1.2500 C   0  0  0  0  0  0  0  0  0  0  0  0
   -2.2480   -1.8730    1.6470 C   0  0  0  0  0  0  0  0  0  0  0  0
   -3.4410   -1.1430    1.3330 C   0  0  0  0  0  0  0  0  0  0  0  0
   -3.4230   -0.0680    0.4880 C   0  0  0  0  0  0  0  0  0  0  0  0
   -4.6820    0.4520    0.5230 C   0  0  0  0  0  0  0  0  0  0  0  0
   -5.1080    1.6430   -0.2560 C   0  0  0  0  0  0  0  0  0  0  0  0
   -5.4690   -0.2940    1.3760 C   0  0  0  0  0  0  0  0  0  0  0  0
   -6.8760   -0.0740    1.6830 C   0  0  0  0  0  0  0  0  0  0  0  0
   -7.4780   -0.8240    2.4980 O   0  0  0  0  0  0  0  0  0  0  0  0
   -7.5210    0.9780    1.0530 O   0  0  0  0  0  0  0  0  0  0  0  0
   -8.8840    1.2450    1.3070 C   0  0  1  0  0  0  0  0  0  0  0  0
   -9.0190    2.6720    1.7380 C   0  0  0  0  0  0  0  0  0  0  0  0
   -9.7580    3.4160    0.6520 C   0  0  0  0  0  0  0  0  0  0  0  0
  -10.3850    2.3690   -0.2430 C   0  0  0  0  0  0  0  0  0  0  0  0
   -9.6010    1.0990   -0.0210 C   0  0  0  0  0  0  0  0  0  0  0  0
   -4.6840   -1.2780    1.8670 N   0  0  0  0  0  0  0  0  0  0  0  0
   -5.1460   -2.2800    2.8030 C   0  0  0  0  0  0  0  0  0  0  0  0
   -1.9630    0.2490   -0.4200 S   0  0  0  0  0  0  0  0  0  0  0  0
   -0.5760   -0.5040    0.5160 C   0  0  2  0  0  0  0  0  0  0  0  0
    0.5370   -0.5350   -0.3130 O   0  0  0  0  0  0  0  0  0  0  0  0
    1.5310    0.4140   -0.1480 C   0  0  0  0  0  0  0  0  0  0  0  0
    1.3630    1.2800    0.7820 O   0  0  0  0  0  0  0  0  0  0  0  0
    2.7480    0.5110   -0.9400 C   0  0  0  0  0  0  0  0  0  0  0  0
    3.8320    1.3110   -0.6200 C   0  0  0  0  0  0  0  0  0  0  0  0
    4.7730    1.0900   -1.6100 C   0  0  0  0  0  0  0  0  0  0  0  0
    6.1230    1.7390   -1.6860 C   0  0  1  0  0  0  0  0  0  0  0  0
    6.6680    2.2860   -0.3980 C   0  0  0  0  0  0  0  0  0  0  0  0
    7.2240    1.0200   -0.8680 C   0  0  1  0  0  0  0  0  0  0  0  0
    6.7950   -0.2740   -0.2390 C   0  0  0  0  0  0  0  0  0  0  0  0
    6.3840   -1.1680   -1.2520 O   0  0  0  0  0  0  0  0  0  0  0  0
    8.5650    0.9690   -1.5810 C   0  0  0  0  0  0  0  0  0  0  0  0
    9.0970    2.3290   -1.8750 C   0  0  0  0  0  0  0  0  0  0  0  0
   10.3150    2.3260   -2.4980 O   0  0  0  0  0  0  0  0  0  0  0  0
   10.2620    1.7120   -3.7230 C   0  0  0  0  0  0  0  0  0  0  0  0
    4.2930    0.2310   -2.4540 O   0  0  0  0  0  0  0  0  0  0  0  0
    3.0770   -0.1430   -2.0870 C   0  0  0  0  0  0  0  0  0  0  0  0
    2.2300   -1.1310   -2.8370 C   0  0  0  0  0  0  0  0  0  0  0  0
  1  2  2  0
  2  3  1  0
  3  4  1  0
  4  5  1  0
  5  6  2  0
  5  7  1  0
  7  8  2  0
  7 25  1  0
  8  9  1  0
  9 10  2  0
  9 22  1  0
 10 11  1  0
 10 24  1  0
 11 12  1  0
 11 13  2  0
 13 14  1  0
 13 22  1  0
 14 15  2  0
 14 16  1  0
 17 16  1  6
 17 18  1  0
 17 21  1  0
 18 19  1  0
 19 20  1  0
 20 21  1  0
 22 23  1  0
 24 25  1  0
 25 26  1  6
 26 27  1  0
 27 28  2  0
 27 29  1  0
 29 30  1  0
 29 42  2  0
 30 31  2  0
 32 31  1  1
 31 41  1  0
 32 33  1  0
 32 34  1  0
 33 34  1  0
 34 35  1  1
 34 37  1  0
 35 36  1  0
 37 38  1  0
 38 39  1  0
 39 40  1  0
 41 42  1  0
 42 43  1  0
M  END
