
     RDKit          3D

 43 46  0  0  0  0  0  0  0  0999 V2000
   -7.3410   -2.5880    1.2760 C   0  0  0  0  0  0  0  0  0  0  0  0
   -6.9090   -2.7550   -0.1900 C   0  0  1  0  0  0  0  0  0  0  0  0
   -7.7170   -3.7950   -0.8090 C   0  0  0  0  0  0  0  0  0  0  0  0
   -8.5880   -3.4650   -1.8670 N   0  0  0  0  0  0  0  0  0  0  0  0
   -7.6500   -4.9760   -0.4160 O   0  0  0  0  0  0  0  0  0  0  0  0
   -7.1420   -1.4950   -0.7870 O   0  0  0  0  0  0  0  0  0  0  0  0
   -6.3100   -0.4020   -0.6190 C   0  0  0  0  0  0  0  0  0  0  0  0
   -6.7610    0.8860   -0.8070 C   0  0  0  0  0  0  0  0  0  0  0  0
   -5.9010    1.9470   -0.6260 C   0  0  0  0  0  0  0  0  0  0  0  0
   -4.5790    1.8040   -0.2590 C   0  0  0  0  0  0  0  0  0  0  0  0
   -4.0900    0.5120   -0.0640 C   0  0  0  0  0  0  0  0  0  0  0  0
   -4.9930   -0.5410   -0.2560 C   0  0  0  0  0  0  0  0  0  0  0  0
   -4.5830   -1.9260   -0.0690 N   0  0  0  0  0  0  0  0  0  0  0  0
   -5.4610   -3.0030   -0.2460 C   0  0  0  0  0  0  0  0  0  0  0  0
   -5.0320   -4.1530   -0.4490 O   0  0  0  0  0  0  0  0  0  0  0  0
   -2.8190    0.2450    0.2910 O   0  0  0  0  0  0  0  0  0  0  0  0
   -1.5270    0.3050   -0.1210 C   0  0  0  0  0  0  0  0  0  0  0  0
   -1.0540    1.2090   -1.1650 C   0  0  0  0  0  0  0  0  0  0  0  0
    0.3350    1.7460   -1.0380 C   0  0  2  0  0  0  0  0  0  0  0  0
    0.2490    3.1830   -1.1430 O   0  0  0  0  0  0  0  0  0  0  0  0
    1.1540    1.3790   -2.2540 C   0  0  0  0  0  0  0  0  0  0  0  0
    2.8360    1.8850   -2.2900 S   0  0  0  0  0  0  0  0  0  0  0  0
    3.9830    0.9570   -1.3420 C   0  0  0  0  0  0  0  0  0  0  0  0
    5.2890    1.4200   -1.1210 C   0  0  0  0  0  0  0  0  0  0  0  0
    6.2070    0.6730   -0.4240 C   0  0  0  0  0  0  0  0  0  0  0  0
    5.8870   -0.5630    0.0880 C   0  0  0  0  0  0  0  0  0  0  0  0
    6.8860   -1.3740    0.8440 C   0  0  2  0  0  0  0  0  0  0  0  0
    7.5330   -0.5300    1.7310 O   0  0  0  0  0  0  0  0  0  0  0  0
    7.8700   -1.9110   -0.1560 C   0  0  1  0  0  0  0  0  0  0  0  0
    7.2330   -2.8500   -1.1450 C   0  0  0  0  0  0  0  0  0  0  0  0
    8.4320   -0.8650   -0.8500 O   0  0  0  0  0  0  0  0  0  0  0  0
    8.9110   -2.7090    0.6140 C   0  0  0  0  0  0  0  0  0  0  0  0
    9.5330   -1.8630    1.5110 O   0  0  0  0  0  0  0  0  0  0  0  0
    4.6040   -1.0160   -0.1310 C   0  0  0  0  0  0  0  0  0  0  0  0
    3.6660   -0.2840   -0.8270 C   0  0  0  0  0  0  0  0  0  0  0  0
    1.0880    1.5150    0.1930 C   0  0  0  0  0  0  0  0  0  0  0  0
    0.6750    2.3420    1.4030 C   0  0  0  0  0  0  0  0  0  0  0  0
   -0.4840    3.0670    1.2180 O   0  0  0  0  0  0  0  0  0  0  0  0
   -1.2540    2.8780    2.3750 C   0  0  0  0  0  0  0  0  0  0  0  0
   -2.7460    2.9420    2.0860 C   0  0  1  0  0  0  0  0  0  0  0  0
   -3.2780    3.8150    3.0730 O   0  0  0  0  0  0  0  0  0  0  0  0
   -3.0240    3.5370    0.7630 C   0  0  0  0  0  0  0  0  0  0  0  0
   -3.8570    2.9460   -0.1160 O   0  0  0  0  0  0  0  0  0  0  0  0
  2  1  1  1
  2  3  1  0
  2  6  1  0
  2 14  1  0
  3  4  1  0
  3  5  2  0
  6  7  1  0
  7  8  2  0
  7 12  1  0
  8  9  1  0
  9 10  2  0
 10 11  1  0
 10 43  1  0
 11 12  2  0
 11 16  1  0
 12 13  1  0
 13 14  1  0
 14 15  2  0
 16 17  1  0
 17 18  1  0
 18 19  1  0
 19 20  1  6
 19 21  1  0
 19 36  1  0
 21 22  1  0
 22 23  1  0
 23 24  2  0
 23 35  1  0
 24 25  1  0
 25 26  2  0
 26 27  1  0
 26 34  1  0
 27 28  1  1
 27 29  1  0
 29 30  1  6
 29 31  1  0
 29 32  1  0
 32 33  1  0
 34 35  2  0
 36 37  1  0
 37 38  1  0
 38 39  1  0
 39 40  1  0
 40 41  1  1
 40 42  1  0
 42 43  1  0
M  END
