
     RDKit          3D

 31 33  0  0  0  0  0  0  0  0999 V2000
   -3.2870   -6.0450    0.5190 O   0  0  0  0  0  0  0  0  0  0  0  0
   -2.6330   -4.9880    0.3670 C   0  0  0  0  0  0  0  0  0  0  0  0
   -3.2640   -3.6830    0.2320 C   0  0  0  0  0  0  0  0  0  0  0  0
   -2.5850   -2.5690    0.0730 C   0  0  0  0  0  0  0  0  0  0  0  0
   -3.2600   -1.3030   -0.0560 C   0  0  0  0  0  0  0  0  0  0  0  0
   -2.7150   -0.1220   -0.2220 C   0  0  0  0  0  0  0  0  0  0  0  0
   -3.5790    1.1050   -0.3360 C   0  0  0  0  0  0  0  0  0  0  0  0
   -4.8250    1.1310   -0.7310 C   0  0  0  0  0  0  0  0  0  0  0  0
   -5.5910    2.3610   -0.8130 C   0  0  0  0  0  0  0  0  0  0  0  0
   -5.2310    3.5640   -0.5410 N   0  0  0  0  0  0  0  0  0  0  0  0
   -6.2510    4.4590   -0.7480 O   0  0  0  0  0  0  0  0  0  0  0  0
   -7.4350    3.6610   -0.7170 C   0  0  0  0  0  0  0  0  0  0  0  0
   -6.9370    2.4480   -1.2320 O   0  0  0  0  0  0  0  0  0  0  0  0
   -2.7850    2.2120    0.0740 N   0  0  0  0  0  0  0  0  0  0  0  0
   -1.5100    1.6990    0.4210 C   0  0  0  0  0  0  0  0  0  0  0  0
   -0.6330    2.1460    1.1700 O   0  0  0  0  0  0  0  0  0  0  0  0
   -1.3920    0.4100   -0.3410 C   0  0  1  0  0  0  0  0  0  0  0  0
   -0.2060   -0.3770    0.0600 C   0  0  0  0  0  0  0  0  0  0  0  0
    0.8410    0.6410   -0.2380 N   0  0  0  0  0  0  0  0  0  0  0  0
    1.9920    0.8140    0.5620 C   0  0  0  0  0  0  0  0  0  0  0  0
    3.1440   -0.0030    0.1620 C   0  0  0  0  0  0  0  0  0  0  0  0
    3.0330   -0.7700   -0.8270 O   0  0  0  0  0  0  0  0  0  0  0  0
    4.3720    0.0650    0.8720 N   0  0  0  0  0  0  0  0  0  0  0  0
    5.5310   -0.7430    0.4870 C   0  0  0  0  0  0  0  0  0  0  0  0
    6.6490   -0.4010    1.4740 C   0  0  0  0  0  0  0  0  0  0  0  0
    8.1460   -1.3840    1.0490 P   0  0  0  0  0  0  0  0  0  0  0  0
    7.6550   -2.8540    0.2620 O   0  0  0  0  0  0  0  0  0  0  0  0
    9.1810   -0.4420    0.0330 O   0  0  0  0  0  0  0  0  0  0  0  0
    0.3390    1.2610   -1.4170 C   0  0  0  0  0  0  0  0  0  0  0  0
    1.0290    2.0630   -2.0990 O   0  0  0  0  0  0  0  0  0  0  0  0
   -0.9880    0.8270   -1.6480 O   0  0  0  0  0  0  0  0  0  0  0  0
  1  2  2  0
  2  3  1  0
  3  4  2  3
  4  5  1  0
  5  6  2  3
  6  7  1  0
  6 17  1  0
  7  8  2  3
  7 14  1  0
  8  9  1  0
  9 10  2  0
  9 13  1  0
 10 11  1  0
 11 12  1  0
 12 13  1  0
 14 15  1  0
 15 16  2  0
 15 17  1  0
 17 18  1  1
 17 31  1  0
 18 19  1  0
 19 20  1  0
 19 29  1  0
 20 21  1  0
 21 22  2  0
 21 23  1  0
 23 24  1  0
 24 25  1  0
 25 26  1  0
 26 27  1  0
 26 28  1  0
 29 30  2  0
 29 31  1  0
M  END
