
     RDKit          3D

 30 32  0  0  0  0  0  0  0  0999 V2000
   -6.7480   -2.1520   -0.7660 O   0  0  0  0  0  0  0  0  0  0  0  0
   -5.5940   -1.8550   -0.4070 C   0  0  0  0  0  0  0  0  0  0  0  0
   -4.8360   -2.7750    0.4090 N   0  0  0  0  0  0  0  0  0  0  0  0
   -3.4550   -2.5560    0.6450 C   0  0  0  0  0  0  0  0  0  0  0  0
   -2.7710   -3.2910    1.3390 O   0  0  0  0  0  0  0  0  0  0  0  0
   -2.8800   -1.3560   -0.0150 C   0  0  2  0  0  0  0  0  0  0  0  0
   -1.5340   -1.0030    0.4000 C   0  0  0  0  0  0  0  0  0  0  0  0
   -0.9750   -1.8140    1.2200 O   0  0  0  0  0  0  0  0  0  0  0  0
   -0.8550    0.1430   -0.0510 N   0  0  0  0  0  0  0  0  0  0  0  0
   -1.4070    1.0710   -1.0010 C   0  0  0  0  0  0  0  0  0  0  0  0
   -0.3630    1.4050   -2.0830 C   0  0  0  0  0  0  0  0  0  0  0  0
    0.8510    1.7800   -1.5730 O   0  0  0  0  0  0  0  0  0  0  0  0
    0.8240    1.8300   -0.1910 C   0  0  0  0  0  0  0  0  0  0  0  0
    0.5010    0.4750    0.4160 C   0  0  1  0  0  0  0  0  0  0  0  0
    0.5730    0.6200    1.9030 C   0  0  0  0  0  0  0  0  0  0  0  0
   -0.2810    1.6370    2.3220 O   0  0  0  0  0  0  0  0  0  0  0  0
    1.4390   -0.5860   -0.0660 C   0  0  0  0  0  0  0  0  0  0  0  0
    2.8010   -0.2860    0.3810 N   0  0  0  0  0  0  0  0  0  0  0  0
    3.7040   -1.3110   -0.0840 C   0  0  0  0  0  0  0  0  0  0  0  0
    5.1220   -1.0620    0.3580 C   0  0  0  0  0  0  0  0  0  0  0  0
    5.6330    0.2420   -0.1660 C   0  0  0  0  0  0  0  0  0  0  0  0
    7.4010    0.4230    0.4500 P   0  0  0  0  0  0  0  0  0  0  0  0
    8.2310    1.4500   -0.6800 O   0  0  0  0  0  0  0  0  0  0  0  0
    8.1330   -1.1510    0.3400 O   0  0  0  0  0  0  0  0  0  0  0  0
   -3.8730   -0.3120   -0.0050 N   0  0  0  0  0  0  0  0  0  0  0  0
   -3.9940    0.9000    0.6800 C   0  0  0  0  0  0  0  0  0  0  0  0
   -3.2850    1.3720    1.6230 O   0  0  0  0  0  0  0  0  0  0  0  0
   -5.1680    1.6800    0.1410 C   0  0  0  0  0  0  0  0  0  0  0  0
   -5.9380    0.5990   -0.5400 C   0  0  0  0  0  0  0  0  0  0  0  0
   -5.0330   -0.5420   -0.8400 C   0  0  2  0  0  0  0  0  0  0  0  0
  1  2  2  0
  2  3  1  0
  2 30  1  0
  3  4  1  0
  4  5  2  0
  4  6  1  0
  6  7  1  1
  6 25  1  0
  7  8  2  0
  7  9  1  0
  9 10  1  0
  9 14  1  0
 10 11  1  0
 11 12  1  0
 12 13  1  0
 13 14  1  0
 14 15  1  1
 14 17  1  0
 15 16  1  0
 17 18  1  0
 18 19  1  0
 19 20  1  0
 20 21  1  0
 21 22  1  0
 22 23  1  0
 22 24  1  0
 25 26  1  0
 25 30  1  0
 26 27  2  0
 26 28  1  0
 28 29  1  0
 30 29  1  1
M  END
