
     RDKit          3D

 31 32  0  0  0  0  0  0  0  0999 V2000
    5.3110   -0.8180   -3.1830 C   0  0  0  0  0  0  0  0  0  0  0  0
    6.3010   -0.2250   -2.3120 C   0  0  0  0  0  0  0  0  0  0  0  0
    6.0480    0.2360   -1.0490 C   0  0  0  0  0  0  0  0  0  0  0  0
    7.1750    0.7860   -0.3620 C   0  0  0  0  0  0  0  0  0  0  0  0
    7.3520    1.3040    0.7920 C   0  0  0  0  0  0  0  0  0  0  0  0
    8.6640    1.7750    1.1810 O   0  0  0  0  0  0  0  0  0  0  0  0
    8.8490    3.1330    2.2510 P   0  0  0  0  0  0  0  0  0  0  0  0
    8.8940    2.6490    3.9170 O   0  0  0  0  0  0  0  0  0  0  0  0
   10.2960    4.0350    1.8460 O   0  0  0  0  0  0  0  0  0  0  0  0
    4.7090    0.0880   -0.6410 C   0  0  0  0  0  0  0  0  0  0  0  0
    3.8290   -0.4420   -1.4280 O   0  0  0  0  0  0  0  0  0  0  0  0
    4.1580    0.4380    0.5320 N   0  0  0  0  0  0  0  0  0  0  0  0
    2.9030    0.3110    0.9930 C   0  0  0  0  0  0  0  0  0  0  0  0
    3.1820    0.8680    2.2530 O   0  0  0  0  0  0  0  0  0  0  0  0
    1.6140    0.0980    1.2500 N   0  0  0  0  0  0  0  0  0  0  0  0
    0.5870   -0.3260    0.4800 C   0  0  0  0  0  0  0  0  0  0  0  0
    0.9010   -0.7140   -0.6550 O   0  0  0  0  0  0  0  0  0  0  0  0
   -0.7530   -0.2760    1.0310 C   0  0  0  0  0  0  0  0  0  0  0  0
   -0.9750    0.0080    2.2230 O   0  0  0  0  0  0  0  0  0  0  0  0
   -1.7710   -0.5490    0.1690 O   0  0  0  0  0  0  0  0  0  0  0  0
   -3.1170   -0.5120    0.5750 C   0  0  0  0  0  0  0  0  0  0  0  0
   -3.9920   -0.8210   -0.6330 C   0  0  0  0  0  0  0  0  0  0  0  0
   -5.3820   -0.7840   -0.2590 N   0  0  0  0  0  0  0  0  0  0  0  0
   -6.0910    0.4920   -0.3790 C   0  0  0  0  0  0  0  0  0  0  0  0
   -7.5720    0.1360   -0.5040 C   0  0  1  0  0  0  0  0  0  0  0  0
   -7.8140   -0.9250   -1.5320 C   0  0  0  0  0  0  0  0  0  0  0  0
   -8.3150   -2.1180   -0.7040 C   0  0  0  0  0  0  0  0  0  0  0  0
   -7.5400   -1.8380    0.5930 C   0  0  2  0  0  0  0  0  0  0  0  0
   -7.9450   -0.4390    0.7990 N   0  0  0  0  0  0  0  0  0  0  0  0
   -6.1090   -1.9040    0.2150 C   0  0  0  0  0  0  0  0  0  0  0  0
   -5.5160   -3.0010    0.3200 O   0  0  0  0  0  0  0  0  0  0  0  0
  1  2  1  0
  2  3  2  3
  3  4  1  0
  3 10  1  0
  4  5  2  3
  5  6  1  0
  6  7  1  0
  7  8  1  0
  7  9  1  0
 10 11  2  0
 10 12  1  0
 12 13  1  0
 13 14  2  0
 13 15  1  0
 15 16  1  0
 16 17  2  0
 16 18  1  0
 18 19  2  0
 18 20  1  0
 20 21  1  0
 21 22  1  0
 22 23  1  0
 23 24  1  0
 23 30  1  0
 25 24  1  1
 25 26  1  0
 25 29  1  0
 26 27  1  0
 28 27  1  6
 28 29  1  0
 28 30  1  0
 30 31  2  0
M  END
