
     RDKit          3D

 31 33  0  0  0  0  0  0  0  0999 V2000
   -5.6180    3.3090   -1.4550 C   0  0  0  0  0  0  0  0  0  0  0  0
   -5.5750    1.8370   -1.8890 C   0  0  1  0  0  0  0  0  0  0  0  0
   -4.1460    1.4050   -1.9670 C   0  0  0  0  0  0  0  0  0  0  0  0
   -3.2310    1.8500   -2.7520 O   0  0  0  0  0  0  0  0  0  0  0  0
   -3.9650    0.3980   -0.9980 N   0  0  0  0  0  0  0  0  0  0  0  0
   -3.0060   -0.5440   -0.3520 C   0  0  0  0  0  0  0  0  0  0  0  0
   -1.6080   -0.1080   -0.5130 C   0  0  0  0  0  0  0  0  0  0  0  0
   -1.2040    0.2880   -1.6750 O   0  0  0  0  0  0  0  0  0  0  0  0
   -0.6600   -0.0380    0.5030 N   0  0  0  0  0  0  0  0  0  0  0  0
    0.6490    0.4130    0.3480 C   0  0  0  0  0  0  0  0  0  0  0  0
    1.6450   -0.4810   -0.3190 C   0  0  0  0  0  0  0  0  0  0  0  0
    2.8600    0.3000   -0.3360 O   0  0  0  0  0  0  0  0  0  0  0  0
    3.9700   -0.4240    0.8900 P   0  0  0  0  0  0  0  0  0  0  0  0
    3.6070    0.6600    2.3360 O   0  0  0  0  0  0  0  0  0  0  0  0
    5.7020    0.0170    0.4390 C   0  0  1  0  0  0  0  0  0  0  0  0
    6.4990   -1.2580    0.3700 C   0  0  0  0  0  0  0  0  0  0  0  0
    7.8930   -1.0560   -0.1030 C   0  0  0  0  0  0  0  0  0  0  0  0
    8.0050    0.3570   -0.6570 C   0  0  0  0  0  0  0  0  0  0  0  0
    6.9460    0.6250   -1.5280 O   0  0  0  0  0  0  0  0  0  0  0  0
    5.7260    0.7520   -0.8720 C   0  0  0  0  0  0  0  0  0  0  0  0
   -3.6370   -1.2350    0.5410 C   0  0  0  0  0  0  0  0  0  0  0  0
   -2.9450   -2.2790    1.3420 C   0  0  0  0  0  0  0  0  0  0  0  0
   -1.6360   -2.7060    1.1940 N   0  0  0  0  0  0  0  0  0  0  0  0
   -3.6080   -2.8680    2.2660 O   0  0  0  0  0  0  0  0  0  0  0  0
   -5.0110   -0.8660    0.6180 N   0  0  0  0  0  0  0  0  0  0  0  0
   -6.0200   -1.3820    1.4300 C   0  0  0  0  0  0  0  0  0  0  0  0
   -7.2120   -0.8750    1.3940 O   0  0  0  0  0  0  0  0  0  0  0  0
   -5.9280   -2.4270    2.3310 O   0  0  0  0  0  0  0  0  0  0  0  0
   -5.2060    0.1730   -0.3600 C   0  0  0  0  0  0  0  0  0  0  0  0
   -6.1440    0.9560   -0.8420 C   0  0  0  0  0  0  0  0  0  0  0  0
   -7.4840    0.9350   -0.4140 O   0  0  0  0  0  0  0  0  0  0  0  0
  2  1  1  1
  2  3  1  0
  2 30  1  0
  3  4  2  0
  3  5  1  0
  5  6  1  0
  5 29  1  0
  6  7  1  0
  6 21  2  0
  7  8  2  0
  7  9  1  0
  9 10  1  0
 10 11  1  0
 11 12  1  0
 12 13  1  0
 13 14  1  0
 15 13  1  6
 15 16  1  0
 15 20  1  0
 16 17  1  0
 17 18  1  0
 18 19  1  0
 19 20  1  0
 21 22  1  0
 21 25  1  0
 22 23  1  0
 22 24  2  0
 25 26  1  0
 25 29  1  0
 26 27  2  0
 26 28  1  0
 29 30  2  0
 30 31  1  0
M  END
