
     RDKit          3D

 31 33  0  0  0  0  0  0  0  0999 V2000
   -5.3400   -2.0050    1.3540 C   0  0  0  0  0  0  0  0  0  0  0  0
   -4.0350   -1.4320    0.9380 C   0  0  0  0  0  0  0  0  0  0  0  0
   -3.8820   -0.4000    0.1260 C   0  0  0  0  0  0  0  0  0  0  0  0
   -2.5580    0.0740   -0.2110 C   0  0  0  0  0  0  0  0  0  0  0  0
   -2.3540    1.0690   -0.9930 O   0  0  0  0  0  0  0  0  0  0  0  0
   -1.3340   -0.5090    0.2850 N   0  0  0  0  0  0  0  0  0  0  0  0
   -0.0570    0.0040   -0.0840 C   0  0  0  0  0  0  0  0  0  0  0  0
    1.0250   -0.5570    0.3910 C   0  0  0  0  0  0  0  0  0  0  0  0
    1.1430   -1.6580    1.2650 O   0  0  0  0  0  0  0  0  0  0  0  0
    2.5380   -1.8820    1.5690 C   0  0  0  0  0  0  0  0  0  0  0  0
    3.1650   -1.4110    0.2870 C   0  0  2  0  0  0  0  0  0  0  0  0
    4.5920   -1.2550    0.2300 C   0  0  0  0  0  0  0  0  0  0  0  0
    5.3680   -2.1760    0.5780 O   0  0  0  0  0  0  0  0  0  0  0  0
    5.1860   -0.0270   -0.2310 N   0  0  0  0  0  0  0  0  0  0  0  0
    6.6090    0.0630   -0.4220 C   0  0  1  0  0  0  0  0  0  0  0  0
    6.9440    0.5730   -1.7720 C   0  0  0  0  0  0  0  0  0  0  0  0
    7.5030    1.7340   -1.7030 N   0  0  0  0  0  0  0  0  0  0  0  0
    7.6220    2.1540   -0.3750 N   0  0  0  0  0  0  0  0  0  0  0  0
    7.0880    1.1690    0.4810 C   0  0  0  0  0  0  0  0  0  0  0  0
    7.0250    1.2050    1.7300 O   0  0  0  0  0  0  0  0  0  0  0  0
    4.3940    1.1310   -0.5110 C   0  0  0  0  0  0  0  0  0  0  0  0
    4.9010    2.2120   -0.9090 O   0  0  0  0  0  0  0  0  0  0  0  0
    2.9380    0.9830   -0.3040 C   0  0  0  0  0  0  0  0  0  0  0  0
    2.4000   -0.1360    0.0980 C   0  0  0  0  0  0  0  0  0  0  0  0
   -5.0600    0.2350   -0.4100 C   0  0  0  0  0  0  0  0  0  0  0  0
   -5.0590    1.2630   -1.2230 C   0  0  0  0  0  0  0  0  0  0  0  0
   -6.3140    1.7660   -1.6570 O   0  0  0  0  0  0  0  0  0  0  0  0
   -6.3180   -0.2950   -0.0270 O   0  0  0  0  0  0  0  0  0  0  0  0
   -7.5520    0.9040    0.3860 P   0  0  0  0  0  0  0  0  0  0  0  0
   -6.8260    2.1770    1.2960 O   0  0  0  0  0  0  0  0  0  0  0  0
   -8.7840    0.1610    1.3590 O   0  0  0  0  0  0  0  0  0  0  0  0
  1  2  1  0
  2  3  2  3
  3  4  1  0
  3 25  1  0
  4  5  2  0
  4  6  1  0
  6  7  1  0
  7  8  2  3
  8  9  1  0
  8 24  1  0
  9 10  1  0
 11 10  1  1
 11 12  1  0
 11 24  1  0
 12 13  2  0
 12 14  1  0
 15 14  1  6
 14 21  1  0
 15 16  1  0
 15 19  1  0
 16 17  2  0
 17 18  1  0
 18 19  1  0
 19 20  2  0
 21 22  2  0
 21 23  1  0
 23 24  2  0
 25 26  2  3
 25 28  1  0
 26 27  1  0
 28 29  1  0
 29 30  1  0
 29 31  1  0
M  END
