
     RDKit          3D

 33 37  0  0  0  0  0  0  0  0999 V2000
   -5.7190    2.4520    2.6700 C   0  0  0  0  0  0  0  0  0  0  0  0
   -5.4650    1.7070    1.4030 C   0  0  0  0  0  0  0  0  0  0  0  0
   -6.2820    1.8460    0.3150 C   0  0  0  0  0  0  0  0  0  0  0  0
   -6.0260    1.1560   -0.8370 C   0  0  0  0  0  0  0  0  0  0  0  0
   -4.9290    0.2870   -0.9560 C   0  0  0  0  0  0  0  0  0  0  0  0
   -4.7790   -0.3850   -2.2270 C   0  0  0  0  0  0  0  0  0  0  0  0
   -3.9090   -1.1890   -2.5600 O   0  0  0  0  0  0  0  0  0  0  0  0
   -4.1010    0.1410    0.1360 C   0  0  0  0  0  0  0  0  0  0  0  0
   -2.9750   -0.7210    0.0370 N   0  0  0  0  0  0  0  0  0  0  0  0
   -2.1000   -1.1020    1.0700 C   0  0  0  0  0  0  0  0  0  0  0  0
   -2.2540   -0.7060    2.2270 O   0  0  0  0  0  0  0  0  0  0  0  0
   -0.9400   -2.0070    0.8500 C   0  0  0  0  0  0  0  0  0  0  0  0
   -0.9040   -3.1820    1.5810 C   0  0  0  0  0  0  0  0  0  0  0  0
    0.0520   -4.1280    1.3350 C   0  0  0  0  0  0  0  0  0  0  0  0
    1.0040   -3.9570    0.3680 C   0  0  0  0  0  0  0  0  0  0  0  0
    0.9600   -2.7750   -0.3560 C   0  0  0  0  0  0  0  0  0  0  0  0
    0.0050   -1.7960   -0.1280 C   0  0  0  0  0  0  0  0  0  0  0  0
    0.0730   -0.5340   -0.8160 C   0  0  0  0  0  0  0  0  0  0  0  0
   -0.7060    0.3990   -0.4960 O   0  0  0  0  0  0  0  0  0  0  0  0
    1.0140   -0.2440   -1.9020 C   0  0  0  0  0  0  0  0  0  0  0  0
    1.9030    0.8570   -1.5840 N   0  0  0  0  0  0  0  0  0  0  0  0
    1.6630    2.1610   -1.8140 C   0  0  0  0  0  0  0  0  0  0  0  0
    2.7080    2.9280   -1.3880 C   0  0  0  0  0  0  0  0  0  0  0  0
    3.6500    2.0420   -0.8640 C   0  0  0  0  0  0  0  0  0  0  0  0
    4.8890    2.2100   -0.2980 C   0  0  0  0  0  0  0  0  0  0  0  0
    5.6440    1.1050    0.1520 C   0  0  0  0  0  0  0  0  0  0  0  0
    5.1540   -0.1220    0.0310 C   0  0  0  0  0  0  0  0  0  0  0  0
    3.8820   -0.2840   -0.5510 C   0  0  0  0  0  0  0  0  0  0  0  0
    3.1100    0.7580   -1.0040 C   0  0  0  0  0  0  0  0  0  0  0  0
    5.9870   -1.2520    0.5190 C   0  0  0  0  0  0  0  0  0  0  0  0
    7.6440   -0.4510    0.4290 S   0  0  0  0  0  0  0  0  0  0  0  0
    7.0070    1.2470    0.7590 C   0  0  0  0  0  0  0  0  0  0  0  0
   -4.3850    0.8490    1.2840 C   0  0  0  0  0  0  0  0  0  0  0  0
  1  2  1  0
  2  3  2  0
  2 33  1  0
  3  4  1  0
  4  5  2  0
  5  6  1  0
  5  8  1  0
  6  7  2  0
  8  9  1  0
  8 33  2  0
  9 10  1  0
 10 11  2  0
 10 12  1  0
 12 13  2  0
 12 17  1  0
 13 14  1  0
 14 15  2  0
 15 16  1  0
 16 17  2  0
 17 18  1  0
 18 19  2  0
 18 20  1  0
 20 21  1  0
 21 22  1  0
 21 29  1  0
 22 23  2  0
 23 24  1  0
 24 25  2  0
 24 29  1  0
 25 26  1  0
 26 27  2  0
 26 32  1  0
 27 28  1  0
 27 30  1  0
 28 29  2  0
 30 31  1  0
 31 32  1  0
M  END
