
     RDKit          3D

 35 36  0  0  0  0  0  0  0  0999 V2000
   -2.2750    3.6390   -0.8100 C   0  0  0  0  0  0  0  0  0  0  0  0
   -2.1310    2.8320    0.2440 C   0  0  0  0  0  0  0  0  0  0  0  0
   -3.2240    1.9570    0.6590 C   0  0  0  0  0  0  0  0  0  0  0  0
   -3.0900    0.6370    0.6910 O   0  0  0  0  0  0  0  0  0  0  0  0
   -2.2390   -0.0750    1.4130 C   0  0  2  0  0  0  0  0  0  0  0  0
   -2.3570    0.0210    2.8710 C   0  0  0  0  0  0  0  0  0  0  0  0
   -1.5850   -0.6250    3.6040 O   0  0  0  0  0  0  0  0  0  0  0  0
   -3.3170    0.8210    3.4420 O   0  0  0  0  0  0  0  0  0  0  0  0
   -0.7930    0.0270    0.9810 C   0  0  0  0  0  0  0  0  0  0  0  0
   -0.6420   -0.2470   -0.5130 C   0  0  1  0  0  0  0  0  0  0  0  0
    0.5470   -0.9230   -0.6440 O   0  0  0  0  0  0  0  0  0  0  0  0
    1.5900   -0.2530   -1.2590 C   0  0  1  0  0  0  0  0  0  0  0  0
    1.2780    0.2390   -2.6300 C   0  0  0  0  0  0  0  0  0  0  0  0
    0.1770    0.0800   -3.2090 O   0  0  0  0  0  0  0  0  0  0  0  0
    2.2410    0.9280   -3.3600 O   0  0  0  0  0  0  0  0  0  0  0  0
    1.8360    0.8570   -0.5010 O   0  0  0  0  0  0  0  0  0  0  0  0
    2.7590    0.8240    0.4740 C   0  0  2  0  0  0  0  0  0  0  0  0
    4.0680    1.5020    0.1580 C   0  0  2  0  0  0  0  0  0  0  0  0
    4.8890    1.3650    1.2770 O   0  0  0  0  0  0  0  0  0  0  0  0
    3.8520    3.0110   -0.0120 C   0  0  0  0  0  0  0  0  0  0  0  0
    3.0360    3.2590   -1.1150 O   0  0  0  0  0  0  0  0  0  0  0  0
    3.0020   -0.5510    1.0560 C   0  0  2  0  0  0  0  0  0  0  0  0
    3.9920   -0.5050    2.0330 O   0  0  0  0  0  0  0  0  0  0  0  0
    3.5070   -1.4080   -0.0790 C   0  0  2  0  0  0  0  0  0  0  0  0
    4.8880   -1.1800   -0.2800 O   0  0  0  0  0  0  0  0  0  0  0  0
    2.7330   -1.2360   -1.3290 C   0  0  2  0  0  0  0  0  0  0  0  0
    3.6260   -0.8660   -2.3450 O   0  0  0  0  0  0  0  0  0  0  0  0
   -1.7470   -1.0210   -1.1230 C   0  0  1  0  0  0  0  0  0  0  0  0
   -1.2000   -2.1960   -1.6840 O   0  0  0  0  0  0  0  0  0  0  0  0
   -2.8390   -1.4830   -0.2050 C   0  0  1  0  0  0  0  0  0  0  0  0
   -3.3320   -2.8780   -0.6140 C   0  0  2  0  0  0  0  0  0  0  0  0
   -3.6500   -2.8510   -1.9710 O   0  0  0  0  0  0  0  0  0  0  0  0
   -4.6070   -3.2260    0.1230 C   0  0  0  0  0  0  0  0  0  0  0  0
   -4.4260   -3.2850    1.4930 O   0  0  0  0  0  0  0  0  0  0  0  0
   -2.5160   -1.4670    1.1210 O   0  0  0  0  0  0  0  0  0  0  0  0
  1  2  2  0
  2  3  1  0
  3  4  1  0
  5  4  1  6
  5  6  1  0
  5  9  1  0
  5 35  1  0
  6  7  2  0
  6  8  1  0
  9 10  1  0
 10 11  1  1
 10 28  1  0
 12 11  1  1
 12 13  1  0
 12 16  1  0
 12 26  1  0
 13 14  2  0
 13 15  1  0
 17 16  1  6
 17 18  1  0
 17 22  1  0
 18 19  1  1
 18 20  1  0
 20 21  1  0
 22 23  1  1
 22 24  1  0
 24 25  1  6
 24 26  1  0
 26 27  1  6
 28 29  1  1
 28 30  1  0
 30 31  1  0
 30 35  1  1
 31 32  1  6
 31 33  1  0
 33 34  1  0
M  END
