
     RDKit          3D

 34 36  0  0  0  0  0  0  0  0999 V2000
    5.0320    1.8630   -0.2180 C   0  0  0  0  0  0  0  0  0  0  0  0
    3.6190    2.3090   -0.7320 C   0  0  0  0  0  0  0  0  0  0  0  0
    2.8510    1.0720   -0.7740 C   0  0  0  0  0  0  0  0  0  0  0  0
    1.6600    0.7660   -0.2150 C   0  0  0  0  0  0  0  0  0  0  0  0
    0.9950    1.8010    0.5550 C   0  0  0  0  0  0  0  0  0  0  0  0
    1.2300    3.0230    0.0880 O   0  0  0  0  0  0  0  0  0  0  0  0
    0.1740    1.8030    1.6640 N   0  0  0  0  0  0  0  0  0  0  0  0
   -1.2000    1.5710    1.8930 C   0  0  0  0  0  0  0  0  0  0  0  0
   -1.4730    0.6850    2.7870 O   0  0  0  0  0  0  0  0  0  0  0  0
   -2.3420    2.1950    1.2620 C   0  0  0  0  0  0  0  0  0  0  0  0
   -3.4640    2.2560    1.8390 O   0  0  0  0  0  0  0  0  0  0  0  0
   -2.3490    2.8210   -0.0840 C   0  0  2  0  0  0  0  0  0  0  0  0
   -3.0000    4.2030    0.0920 C   0  0  0  0  0  0  0  0  0  0  0  0
   -3.1430    2.1460   -1.0170 O   0  0  0  0  0  0  0  0  0  0  0  0
   -2.7420    1.3010   -2.0180 C   0  0  0  0  0  0  0  0  0  0  0  0
   -3.5090    0.9630   -2.9470 O   0  0  0  0  0  0  0  0  0  0  0  0
   -1.3650    0.7670   -2.0090 C   0  0  0  0  0  0  0  0  0  0  0  0
   -1.2310   -0.3950   -1.0300 C   0  0  0  0  0  0  0  0  0  0  0  0
   -2.3200   -0.7440   -0.4090 C   0  0  0  0  0  0  0  0  0  0  0  0
   -2.7230   -1.7070    0.5670 C   0  0  0  0  0  0  0  0  0  0  0  0
   -2.5040   -3.0080    0.8860 C   0  0  0  0  0  0  0  0  0  0  0  0
   -3.2290   -3.3840    2.0320 C   0  0  0  0  0  0  0  0  0  0  0  0
   -3.8830   -2.3180    2.4010 N   0  0  0  0  0  0  0  0  0  0  0  0
   -3.6400   -1.3030    1.5980 C   0  0  0  0  0  0  0  0  0  0  0  0
    0.0230   -1.1130   -0.8330 C   0  0  0  0  0  0  0  0  0  0  0  0
   -0.0580   -2.5110   -1.0650 C   0  0  0  0  0  0  0  0  0  0  0  0
    0.9590   -3.3880   -0.9360 C   0  0  0  0  0  0  0  0  0  0  0  0
    0.8150   -4.6990   -1.1690 F   0  0  0  0  0  0  0  0  0  0  0  0
    2.2170   -2.9090   -0.5420 C   0  0  0  0  0  0  0  0  0  0  0  0
    3.3150   -3.8450   -0.4010 C   0  0  0  0  0  0  0  0  0  0  0  0
    4.5230   -3.5510   -0.0470 C   0  0  0  0  0  0  0  0  0  0  0  0
    5.0380   -2.3550    0.2650 F   0  0  0  0  0  0  0  0  0  0  0  0
    2.3000   -1.5740   -0.3220 C   0  0  0  0  0  0  0  0  0  0  0  0
    1.2400   -0.6320   -0.4530 C   0  0  0  0  0  0  0  0  0  0  0  0
  1  2  1  0
  2  3  1  0
  3  4  2  3
  4  5  1  0
  4 34  1  0
  5  6  2  0
  5  7  1  0
  7  8  1  0
  8  9  2  0
  8 10  1  0
 10 11  2  0
 10 12  1  0
 12 13  1  1
 12 14  1  0
 14 15  1  0
 15 16  2  0
 15 17  1  0
 17 18  1  0
 18 19  2  3
 18 25  1  0
 19 20  1  0
 20 21  1  0
 20 24  2  0
 21 22  2  0
 22 23  1  0
 23 24  1  0
 25 26  2  0
 25 34  1  0
 26 27  1  0
 27 28  1  0
 27 29  2  0
 29 30  1  0
 29 33  1  0
 30 31  2  3
 31 32  1  0
 33 34  2  0
M  END
