
     RDKit          3D

 34 36  0  0  0  0  0  0  0  0999 V2000
   -4.7130   -1.7020    0.4960 C   0  0  0  0  0  0  0  0  0  0  0  0
   -3.5190   -1.0250    0.1860 O   0  0  0  0  0  0  0  0  0  0  0  0
   -3.4420    0.0940   -0.6130 C   0  0  0  0  0  0  0  0  0  0  0  0
   -2.6500    1.1130   -0.5260 C   0  0  0  0  0  0  0  0  0  0  0  0
   -1.6070    1.3870    0.4310 C   0  0  0  0  0  0  0  0  0  0  0  0
   -0.8830    2.5200    0.3780 C   0  0  0  0  0  0  0  0  0  0  0  0
   -1.2080    3.4670   -0.7070 C   0  0  0  0  0  0  0  0  0  0  0  0
    0.1240    2.8260    1.3490 C   0  0  0  0  0  0  0  0  0  0  0  0
    1.2050    2.2660    1.7480 C   0  0  0  0  0  0  0  0  0  0  0  0
    1.9250    1.0960    1.4230 N   0  0  0  0  0  0  0  0  0  0  0  0
    2.7190    0.7830    0.2400 C   0  0  0  0  0  0  0  0  0  0  0  0
    4.1260    0.6660    0.4410 C   0  0  0  0  0  0  0  0  0  0  0  0
    5.0550    0.5060   -0.5420 C   0  0  0  0  0  0  0  0  0  0  0  0
    6.4090    0.4020   -0.2470 O   0  0  0  0  0  0  0  0  0  0  0  0
    6.9240    0.4510    1.0480 C   0  0  0  0  0  0  0  0  0  0  0  0
    4.5800    0.4540   -1.8330 C   0  0  0  0  0  0  0  0  0  0  0  0
    3.2460    0.5570   -2.0470 C   0  0  0  0  0  0  0  0  0  0  0  0
    2.2570    0.7180   -1.0400 C   0  0  0  0  0  0  0  0  0  0  0  0
    0.8730    0.6560   -1.4890 N   0  0  0  0  0  0  0  0  0  0  0  0
   -0.0820   -0.4010   -1.3140 C   0  0  0  0  0  0  0  0  0  0  0  0
   -0.8320   -0.6940   -2.3780 O   0  0  0  0  0  0  0  0  0  0  0  0
   -0.3970   -1.2450   -0.1780 C   0  0  0  0  0  0  0  0  0  0  0  0
   -0.8800   -0.9250    1.0640 C   0  0  0  0  0  0  0  0  0  0  0  0
   -1.0490   -1.9340    2.0350 C   0  0  0  0  0  0  0  0  0  0  0  0
   -0.7540   -3.2590    1.7980 C   0  0  0  0  0  0  0  0  0  0  0  0
   -0.9390   -4.1910    2.7860 F   0  0  0  0  0  0  0  0  0  0  0  0
   -0.2790   -3.5950    0.5620 C   0  0  0  0  0  0  0  0  0  0  0  0
    0.0120   -4.9000    0.3160 F   0  0  0  0  0  0  0  0  0  0  0  0
   -0.1110   -2.6160   -0.3870 C   0  0  0  0  0  0  0  0  0  0  0  0
    0.3200   -3.0640   -1.7650 C   0  0  0  0  0  0  0  0  0  0  0  0
   -1.3680    0.3990    1.5080 C   0  0  2  0  0  0  0  0  0  0  0  0
   -2.6000    0.3650    2.1700 O   0  0  0  0  0  0  0  0  0  0  0  0
   -4.4500    0.0820   -1.7430 C   0  0  0  0  0  0  0  0  0  0  0  0
   -5.7410    0.0260   -1.2000 O   0  0  0  0  0  0  0  0  0  0  0  0
  1  2  1  0
  2  3  1  0
  3  4  2  3
  3 33  1  0
  4  5  1  0
  5  6  2  0
  5 31  1  0
  6  7  1  0
  6  8  1  0
  8  9  2  0
  9 10  1  0
 10 11  1  0
 11 12  2  0
 11 18  1  0
 12 13  1  0
 13 14  1  0
 13 16  2  0
 14 15  1  0
 16 17  1  0
 17 18  2  0
 18 19  1  0
 19 20  1  0
 20 21  2  0
 20 22  1  0
 22 23  2  0
 22 29  1  0
 23 24  1  0
 23 31  1  0
 24 25  2  0
 25 26  1  0
 25 27  1  0
 27 28  1  0
 27 29  2  0
 29 30  1  0
 31 32  1  6
 33 34  1  0
M  END
