
     RDKit          3D

 15 15  0  0  0  0  0  0  0  0999 V2000
   -0.0280   -1.0990   -0.7260 O   0  0  0  0  0  0  0  0  0  0  0  0
   -0.6990   -0.3330   -0.0190 C   0  0  0  0  0  0  0  0  0  0  0  0
   -0.1190    0.5790    0.8430 O   0  0  0  0  0  0  0  0  0  0  0  0
    1.1640    0.7920    1.0900 C   0  0  0  0  0  0  0  0  0  0  0  0
    2.2620    1.3330    0.2060 C   0  0  0  0  0  0  0  0  0  0  0  0
    2.2920    0.4680   -0.9390 O   0  0  0  0  0  0  0  0  0  0  0  0
    3.9470   -0.2350   -0.9660 P   0  0  0  0  0  0  0  0  0  0  0  0
    3.6000   -1.9490   -0.4850 O   0  0  0  0  0  0  0  0  0  0  0  0
    4.8190    0.4380    0.4230 O   0  0  0  0  0  0  0  0  0  0  0  0
   -2.1720   -0.4660   -0.1220 C   0  0  2  0  0  0  0  0  0  0  0  0
   -2.4920   -1.7750   -0.4130 O   0  0  0  0  0  0  0  0  0  0  0  0
   -2.7270    0.3360   -1.3280 C   0  0  0  0  0  0  0  0  0  0  0  0
   -4.0940    0.2840   -0.9900 O   0  0  0  0  0  0  0  0  0  0  0  0
   -4.1610    0.2300    0.3800 C   0  0  0  0  0  0  0  0  0  0  0  0
   -2.8870    0.0330    0.8940 O   0  0  0  0  0  0  0  0  0  0  0  0
  1  2  2  0
  2  3  1  0
  2 10  1  0
  3  4  1  0
  4  5  1  0
  5  6  1  0
  6  7  1  0
  7  8  1  0
  7  9  1  0
 10 11  1  6
 10 12  1  0
 10 15  1  0
 12 13  1  0
 13 14  1  0
 14 15  1  0
M  END
