
     RDKit          3D

 15 15  0  0  0  0  0  0  0  0999 V2000
   -4.1420    0.8880    0.0440 O   0  0  0  0  0  0  0  0  0  0  0  0
   -2.9950    1.3020   -0.3200 C   0  0  0  0  0  0  0  0  0  0  0  0
   -2.9380    2.5580   -0.9050 O   0  0  0  0  0  0  0  0  0  0  0  0
   -1.8040    0.4670   -0.1180 C   0  0  1  0  0  0  0  0  0  0  0  0
   -2.1420   -0.7250    0.4800 O   0  0  0  0  0  0  0  0  0  0  0  0
   -0.9920   -1.4090    0.9280 C   0  0  0  0  0  0  0  0  0  0  0  0
   -0.1060   -1.7530   -0.2420 C   0  0  2  0  0  0  0  0  0  0  0  0
    1.3290   -1.3490   -0.0140 C   0  0  0  0  0  0  0  0  0  0  0  0
    1.4290    0.0420    0.1940 O   0  0  0  0  0  0  0  0  0  0  0  0
    3.0520    0.5310    0.4560 P   0  0  0  0  0  0  0  0  0  0  0  0
    3.1730    1.4310    1.9430 O   0  0  0  0  0  0  0  0  0  0  0  0
    3.6360    1.5130   -0.8720 O   0  0  0  0  0  0  0  0  0  0  0  0
   -0.5670   -1.0600   -1.4880 C   0  0  0  0  0  0  0  0  0  0  0  0
   -0.4260   -1.6080   -2.6190 O   0  0  0  0  0  0  0  0  0  0  0  0
   -1.1470    0.1950   -1.3530 O   0  0  0  0  0  0  0  0  0  0  0  0
  1  2  2  0
  2  3  1  0
  4  2  1  6
  4  5  1  0
  4 15  1  0
  5  6  1  0
  6  7  1  0
  7  8  1  1
  7 13  1  0
  8  9  1  0
  9 10  1  0
 10 11  1  0
 10 12  1  0
 13 14  2  0
 13 15  1  0
M  END
