
     RDKit          3D

 15 15  0  0  0  0  0  0  0  0999 V2000
    5.5660    0.2900    0.5240 O   0  0  0  0  0  0  0  0  0  0  0  0
    5.0380   -0.0540   -0.8940 P   0  0  0  0  0  0  0  0  0  0  0  0
    3.4370    0.4150   -1.4080 O   0  0  0  0  0  0  0  0  0  0  0  0
    2.5220    0.1100   -0.4160 C   0  0  1  0  0  0  0  0  0  0  0  0
    1.7500    1.3420    0.0520 C   0  0  0  0  0  0  0  0  0  0  0  0
    0.8950    1.5060   -1.0370 O   0  0  0  0  0  0  0  0  0  0  0  0
    0.4350    0.2000   -1.2040 C   0  0  2  0  0  0  0  0  0  0  0  0
   -0.7130    0.0370   -0.2510 C   0  0  0  0  0  0  0  0  0  0  0  0
   -1.1000    0.9720    0.5060 O   0  0  0  0  0  0  0  0  0  0  0  0
   -1.4100   -1.1580   -0.1550 O   0  0  0  0  0  0  0  0  0  0  0  0
   -2.4900   -1.2940    0.7480 C   0  0  0  0  0  0  0  0  0  0  0  0
   -3.5890   -0.3370    0.4660 C   0  0  0  0  0  0  0  0  0  0  0  0
   -3.4700    0.4550   -0.4980 O   0  0  0  0  0  0  0  0  0  0  0  0
   -4.7130   -0.3420    1.2700 O   0  0  0  0  0  0  0  0  0  0  0  0
    1.4740   -0.6600   -0.9300 O   0  0  0  0  0  0  0  0  0  0  0  0
  1  2  2  0
  2  3  1  0
  4  3  1  6
  4  5  1  0
  4 15  1  0
  5  6  1  0
  6  7  1  0
  7  8  1  1
  7 15  1  0
  8  9  2  0
  8 10  1  0
 10 11  1  0
 11 12  1  0
 12 13  2  0
 12 14  1  0
M  END
