
     RDKit          3D

 16 16  0  0  0  0  0  0  0  0999 V2000
   -4.7690    1.6450    2.2830 O   0  0  0  0  0  0  0  0  0  0  0  0
   -4.1390    1.0790    1.3310 C   0  0  0  0  0  0  0  0  0  0  0  0
   -4.4020    1.2460   -0.0170 O   0  0  0  0  0  0  0  0  0  0  0  0
   -3.5070    0.4680   -0.7200 C   0  0  0  0  0  0  0  0  0  0  0  0
   -3.4430    0.3650   -1.9570 O   0  0  0  0  0  0  0  0  0  0  0  0
   -2.6440   -0.2170    0.2530 C   0  0  1  0  0  0  0  0  0  0  0  0
   -2.7480   -1.5960    0.1780 O   0  0  0  0  0  0  0  0  0  0  0  0
   -1.1920    0.2190    0.1380 C   0  0  0  0  0  0  0  0  0  0  0  0
   -0.6300   -0.1730   -1.0480 O   0  0  0  0  0  0  0  0  0  0  0  0
    0.6690    0.2360   -1.1490 C   0  0  0  0  0  0  0  0  0  0  0  0
    1.5810   -0.2910   -0.0900 C   0  0  0  0  0  0  0  0  0  0  0  0
    2.8920    0.1960   -0.3030 O   0  0  0  0  0  0  0  0  0  0  0  0
    3.9090   -0.4560    0.9680 P   0  0  0  0  0  0  0  0  0  0  0  0
    4.9770    0.8240    1.5030 O   0  0  0  0  0  0  0  0  0  0  0  0
    4.8390   -1.7680    0.3550 O   0  0  0  0  0  0  0  0  0  0  0  0
   -3.0980    0.2140    1.5190 O   0  0  0  0  0  0  0  0  0  0  0  0
  1  2  2  0
  2  3  1  0
  2 16  1  0
  3  4  1  0
  4  5  2  0
  4  6  1  0
  6  7  1  1
  6  8  1  0
  6 16  1  0
  8  9  1  0
  9 10  1  0
 10 11  1  0
 11 12  1  0
 12 13  1  0
 13 14  1  0
 13 15  1  0
M  END
