
     RDKit          3D

 27 28  0  0  0  0  0  0  0  0999 V2000
   -3.5960   -3.5460    1.6170 O   0  0  0  0  0  0  0  0  0  0  0  0
   -2.5760   -2.7270    1.4740 C   0  0  0  0  0  0  0  0  0  0  0  0
   -3.0440   -1.4950    0.9390 N   0  0  0  0  0  0  0  0  0  0  0  0
   -2.9460   -0.1830    1.5070 C   0  0  0  0  0  0  0  0  0  0  0  0
   -3.0050    0.8220    0.3810 C   0  0  0  0  0  0  0  0  0  0  0  0
   -1.7200    1.4220    0.2290 N   0  0  0  0  0  0  0  0  0  0  0  0
   -1.9540    3.0710   -0.4500 P   0  0  0  0  0  0  0  0  0  0  0  0
   -3.0620    2.9680   -1.8100 O   0  0  0  0  0  0  0  0  0  0  0  0
   -2.7330    4.0290    0.7690 O   0  0  0  0  0  0  0  0  0  0  0  0
   -0.9650    0.5840   -0.7210 C   0  0  0  0  0  0  0  0  0  0  0  0
    0.4510    1.0280   -0.7120 C   0  0  0  0  0  0  0  0  0  0  0  0
    1.4270   -0.0270   -0.2350 C   0  0  1  0  0  0  0  0  0  0  0  0
    2.5820    0.7580    0.3460 C   0  0  0  0  0  0  0  0  0  0  0  0
    2.9310    0.5540    1.5290 O   0  0  0  0  0  0  0  0  0  0  0  0
    3.2910    1.7250   -0.4060 N   0  0  0  0  0  0  0  0  0  0  0  0
    4.3150    2.3860    0.1800 O   0  0  0  0  0  0  0  0  0  0  0  0
    5.1460    2.9050   -0.6990 O   0  0  0  0  0  0  0  0  0  0  0  0
    5.9030    3.7880   -0.0920 O   0  0  0  0  0  0  0  0  0  0  0  0
    0.9120   -0.9470    0.7750 C   0  0  0  0  0  0  0  0  0  0  0  0
    0.6750   -2.3180    0.3800 N   0  0  0  0  0  0  0  0  0  0  0  0
    1.2370   -2.7820   -0.8770 C   0  0  0  0  0  0  0  0  0  0  0  0
    1.1690   -1.7900   -1.9970 C   0  0  0  0  0  0  0  0  0  0  0  0
    1.9990   -0.6380   -1.4660 C   0  0  0  0  0  0  0  0  0  0  0  0
    3.0100   -0.2940   -2.0190 O   0  0  0  0  0  0  0  0  0  0  0  0
   -0.0540   -3.2630    1.1560 C   0  0  0  0  0  0  0  0  0  0  0  0
    0.6000   -4.4150    1.1920 O   0  0  0  0  0  0  0  0  0  0  0  0
   -1.2820   -3.1320    1.8350 N   0  0  0  0  0  0  0  0  0  0  0  0
  1  2  2  0
  2  3  1  0
  2 27  1  0
  3  4  1  0
  4  5  1  0
  5  6  1  0
  6  7  1  0
  6 10  1  0
  7  8  1  0
  7  9  1  0
 10 11  1  0
 11 12  1  0
 12 13  1  1
 12 19  1  0
 12 23  1  0
 13 14  2  0
 13 15  1  0
 15 16  1  0
 16 17  1  0
 17 18  1  0
 19 20  1  0
 20 21  1  0
 20 25  1  0
 21 22  1  0
 22 23  1  0
 23 24  2  0
 25 26  2  0
 25 27  1  0
M  END
