
     RDKit          3D

 27 28  0  0  0  0  0  0  0  0999 V2000
    4.6380    0.3610   -1.0180 N   0  0  0  0  0  0  0  0  0  0  0  0
    3.8980    0.2300    0.0490 C   0  0  0  0  0  0  0  0  0  0  0  0
    4.4030    0.8110    1.2450 N   0  0  0  0  0  0  0  0  0  0  0  0
    5.6910    2.0340    1.2760 P   0  0  0  0  0  0  0  0  0  0  0  0
    5.1330    3.5960    0.7820 O   0  0  0  0  0  0  0  0  0  0  0  0
    7.1020    1.5380    0.4110 O   0  0  0  0  0  0  0  0  0  0  0  0
    2.6560   -0.4610   -0.0090 N   0  0  0  0  0  0  0  0  0  0  0  0
    1.4070    0.2520    0.2140 C   0  0  0  0  0  0  0  0  0  0  0  0
    0.4340   -0.2160   -0.8080 C   0  0  0  0  0  0  0  0  0  0  0  0
   -0.2210    0.5890   -1.5530 O   0  0  0  0  0  0  0  0  0  0  0  0
    0.2570   -1.6260   -0.9290 N   0  0  0  0  0  0  0  0  0  0  0  0
   -0.9080   -2.1760   -1.5300 C   0  0  0  0  0  0  0  0  0  0  0  0
   -2.0380   -2.4900   -0.6040 C   0  0  0  0  0  0  0  0  0  0  0  0
   -2.4850   -1.2620    0.0870 C   0  0  0  0  0  0  0  0  0  0  0  0
   -3.7220   -0.8500   -0.1290 C   0  0  0  0  0  0  0  0  0  0  0  0
   -4.2700    0.3450    0.4970 C   0  0  2  0  0  0  0  0  0  0  0  0
   -5.5020    0.0910    1.1400 O   0  0  0  0  0  0  0  0  0  0  0  0
   -4.5940    1.3100   -0.5180 O   0  0  0  0  0  0  0  0  0  0  0  0
   -5.1320    2.5220   -0.1220 C   0  0  0  0  0  0  0  0  0  0  0  0
   -5.3150    2.7320    1.0970 O   0  0  0  0  0  0  0  0  0  0  0  0
   -5.4830    3.5260   -1.0060 O   0  0  0  0  0  0  0  0  0  0  0  0
   -3.3680    0.9700    1.3570 O   0  0  0  0  0  0  0  0  0  0  0  0
   -2.0710    0.5420    1.5880 C   0  0  0  0  0  0  0  0  0  0  0  0
   -1.6900   -0.5080    0.9760 N   0  0  0  0  0  0  0  0  0  0  0  0
    1.3240   -2.4500   -0.4080 C   0  0  0  0  0  0  0  0  0  0  0  0
    0.9990   -3.6220   -0.0870 O   0  0  0  0  0  0  0  0  0  0  0  0
    2.6670   -1.8820   -0.2930 C   0  0  0  0  0  0  0  0  0  0  0  0
  1  2  2  0
  2  3  1  0
  2  7  1  0
  3  4  1  0
  4  5  1  0
  4  6  1  0
  7  8  1  0
  7 27  1  0
  8  9  1  0
  9 10  2  0
  9 11  1  0
 11 12  1  0
 11 25  1  0
 12 13  1  0
 13 14  1  0
 14 15  2  0
 14 24  1  0
 15 16  1  0
 16 17  1  1
 16 18  1  0
 16 22  1  0
 18 19  1  0
 19 20  2  0
 19 21  1  0
 22 23  1  0
 23 24  2  0
 25 26  2  0
 25 27  1  0
M  END
