
     RDKit          3D

 30 31  0  0  0  0  0  0  0  0999 V2000
   -8.8350   -0.5230    1.0610 N   0  0  0  0  0  0  0  0  0  0  0  0
   -7.7220   -1.1460    0.3630 C   0  0  0  0  0  0  0  0  0  0  0  0
   -7.8800   -2.1350   -0.4280 N   0  0  0  0  0  0  0  0  0  0  0  0
   -6.4800   -0.6120    0.6770 N   0  0  0  0  0  0  0  0  0  0  0  0
   -5.4100   -0.4950   -0.0720 O   0  0  0  0  0  0  0  0  0  0  0  0
   -5.3370    0.8850   -0.5060 C   0  0  0  0  0  0  0  0  0  0  0  0
   -4.3920    1.5840    0.3870 C   0  0  0  0  0  0  0  0  0  0  0  0
   -3.0510    1.2190    0.5090 N   0  0  0  0  0  0  0  0  0  0  0  0
   -2.5010   -0.0940    0.6680 C   0  0  0  0  0  0  0  0  0  0  0  0
   -3.2320   -1.1070    0.6600 O   0  0  0  0  0  0  0  0  0  0  0  0
   -1.0670   -0.3090    0.8480 C   0  0  0  0  0  0  0  0  0  0  0  0
   -0.1550    0.2790   -0.1180 C   0  0  0  0  0  0  0  0  0  0  0  0
   -0.5280    0.9290   -1.2420 C   0  0  0  0  0  0  0  0  0  0  0  0
   -2.0980    0.8610   -2.0100 Cl  0  0  0  0  0  0  0  0  0  0  0  0
    0.4680    1.6270   -1.9550 C   0  0  0  0  0  0  0  0  0  0  0  0
    1.7730    1.6260   -1.5170 C   0  0  0  0  0  0  0  0  0  0  0  0
    2.1720    0.9660   -0.3960 C   0  0  0  0  0  0  0  0  0  0  0  0
    3.5080    0.8270    0.0370 N   0  0  0  0  0  0  0  0  0  0  0  0
    4.6350    1.5780   -0.3690 C   0  0  0  0  0  0  0  0  0  0  0  0
    5.8680    1.1520    0.4000 C   0  0  1  0  0  0  0  0  0  0  0  0
    6.9150    1.9600   -0.0820 F   0  0  0  0  0  0  0  0  0  0  0  0
    5.6230    1.5190    1.7310 F   0  0  0  0  0  0  0  0  0  0  0  0
    6.2510   -0.2550    0.3670 C   0  0  0  0  0  0  0  0  0  0  0  0
    7.3320   -0.6650   -0.4390 C   0  0  0  0  0  0  0  0  0  0  0  0
    7.7700   -1.9760   -0.5130 C   0  0  0  0  0  0  0  0  0  0  0  0
    7.1320   -2.9500    0.2290 C   0  0  0  0  0  0  0  0  0  0  0  0
    6.0790   -2.5990    1.0250 C   0  0  0  0  0  0  0  0  0  0  0  0
    5.6650   -1.2630    1.0790 C   0  0  0  0  0  0  0  0  0  0  0  0
    1.1830    0.2800    0.3200 C   0  0  0  0  0  0  0  0  0  0  0  0
    1.5330   -0.3860    1.4550 F   0  0  0  0  0  0  0  0  0  0  0  0
  1  2  1  0
  2  3  2  0
  2  4  1  0
  4  5  1  0
  5  6  1  0
  6  7  1  0
  7  8  1  0
  8  9  1  0
  9 10  2  0
  9 11  1  0
 11 12  1  0
 12 13  2  0
 12 29  1  0
 13 14  1  0
 13 15  1  0
 15 16  2  0
 16 17  1  0
 17 18  1  0
 17 29  2  0
 18 19  1  0
 19 20  1  0
 20 21  1  6
 20 22  1  0
 20 23  1  0
 23 24  2  0
 23 28  1  0
 24 25  1  0
 25 26  2  0
 26 27  1  0
 27 28  2  0
 29 30  1  0
M  CHG  1   3   1
M  END
