
     RDKit          3D

 29 31  0  0  0  0  0  0  0  0999 V2000
    2.7620    2.5090    1.0960 C   0  0  0  0  0  0  0  0  0  0  0  0
    3.6570    1.7220    0.5710 C   0  0  0  0  0  0  0  0  0  0  0  0
    5.3820    2.0860    0.7700 S   0  0  0  0  0  0  0  0  0  0  0  0
    5.6680    3.5780    1.7250 C   0  0  0  0  0  0  0  0  0  0  0  0
    3.2570    0.5440   -0.1800 C   0  0  0  0  0  0  0  0  0  0  0  0
    4.1790   -0.2690   -0.7220 C   0  0  0  0  0  0  0  0  0  0  0  0
    3.8180   -1.4400   -1.4690 C   0  0  0  0  0  0  0  0  0  0  0  0
    4.7030   -2.2420   -2.0040 C   0  0  0  0  0  0  0  0  0  0  0  0
    6.1470   -2.0220   -1.8920 C   0  0  0  0  0  0  0  0  0  0  0  0
    6.8940   -3.4250   -1.0690 Cl  0  0  0  0  0  0  0  0  0  0  0  0
    2.4330   -1.7750   -1.6560 N   0  0  0  0  0  0  0  0  0  0  0  0
    1.8550   -2.7810   -2.2920 N   0  0  0  0  0  0  0  0  0  0  0  0
    0.5090   -2.6700   -2.1930 C   0  0  0  0  0  0  0  0  0  0  0  0
   -0.5460   -3.5590   -2.7440 C   0  0  0  0  0  0  0  0  0  0  0  0
    0.2940   -1.5310   -1.4550 C   0  0  0  0  0  0  0  0  0  0  0  0
   -0.9860   -0.9610   -1.0610 C   0  0  0  0  0  0  0  0  0  0  0  0
   -2.0280   -1.5480   -1.4180 O   0  0  0  0  0  0  0  0  0  0  0  0
   -1.1090    0.1900   -0.3170 O   0  0  0  0  0  0  0  0  0  0  0  0
   -2.3170    0.7720    0.0820 C   0  0  0  0  0  0  0  0  0  0  0  0
   -3.1260   -0.1420    0.9260 C   0  0  0  0  0  0  0  0  0  0  0  0
   -2.7170   -1.2950    1.2130 O   0  0  0  0  0  0  0  0  0  0  0  0
   -4.3880    0.2680    1.4300 N   0  0  0  0  0  0  0  0  0  0  0  0
   -5.1970   -0.6070    2.2570 C   0  0  0  0  0  0  0  0  0  0  0  0
   -6.5280    0.0950    2.4420 C   0  0  0  0  0  0  0  0  0  0  0  0
   -7.0290    0.3530    1.1730 O   0  0  0  0  0  0  0  0  0  0  0  0
   -6.3640    1.4620    0.6480 C   0  0  0  0  0  0  0  0  0  0  0  0
   -4.9450    1.5820    1.1520 C   0  0  0  0  0  0  0  0  0  0  0  0
    1.5160   -0.9680   -1.1170 C   0  0  0  0  0  0  0  0  0  0  0  0
    1.8970    0.1840   -0.3830 N   0  0  0  0  0  0  0  0  0  0  0  0
  1  2  2  0
  2  3  1  0
  2  5  1  0
  3  4  1  0
  5  6  2  0
  5 29  1  0
  6  7  1  0
  7  8  2  3
  7 11  1  0
  8  9  1  0
  9 10  1  0
 11 12  1  0
 11 28  1  0
 12 13  2  0
 13 14  1  0
 13 15  1  0
 15 16  1  0
 15 28  2  0
 16 17  2  0
 16 18  1  0
 18 19  1  0
 19 20  1  0
 20 21  2  0
 20 22  1  0
 22 23  1  0
 22 27  1  0
 23 24  1  0
 24 25  1  0
 25 26  1  0
 26 27  1  0
 28 29  1  0
M  END
