
     RDKit          3D

 29 31  0  0  0  0  0  0  0  0999 V2000
    8.0930    0.4680    1.3500 C   0  0  0  0  0  0  0  0  0  0  0  0
    7.7530   -0.8480    0.7260 C   0  0  0  0  0  0  0  0  0  0  0  0
    6.2960   -0.9060    0.3430 C   0  0  0  0  0  0  0  0  0  0  0  0
    5.7500   -0.5280   -0.8640 C   0  0  0  0  0  0  0  0  0  0  0  0
    4.3700   -0.7480   -0.7890 C   0  0  0  0  0  0  0  0  0  0  0  0
    3.3760   -0.4800   -1.8730 C   0  0  0  0  0  0  0  0  0  0  0  0
    2.7860    1.2080   -1.6880 S   0  0  0  0  0  0  0  0  0  0  0  0
    1.7900    1.5370   -2.7890 O   0  0  0  0  0  0  0  0  0  0  0  0
    2.0140    1.3600   -0.0730 C   0  0  0  0  0  0  0  0  0  0  0  0
    0.8820    0.4030   -0.0070 C   0  0  0  0  0  0  0  0  0  0  0  0
    1.0140   -0.8570    0.4330 N   0  0  0  0  0  0  0  0  0  0  0  0
   -0.0570   -1.7010    0.4760 C   0  0  0  0  0  0  0  0  0  0  0  0
    0.0850   -2.8770    0.8910 O   0  0  0  0  0  0  0  0  0  0  0  0
   -1.2870   -1.2690    0.0660 C   0  0  0  0  0  0  0  0  0  0  0  0
   -2.4010   -2.0640    0.0830 C   0  0  0  0  0  0  0  0  0  0  0  0
   -3.6180   -1.5490   -0.3500 C   0  0  0  0  0  0  0  0  0  0  0  0
   -5.0320   -2.5980   -0.3310 Cl  0  0  0  0  0  0  0  0  0  0  0  0
   -3.7740   -0.2570   -0.8060 C   0  0  0  0  0  0  0  0  0  0  0  0
   -5.0480    0.2890   -1.2500 C   0  0  0  0  0  0  0  0  0  0  0  0
   -5.4310    0.1770   -2.4420 O   0  0  0  0  0  0  0  0  0  0  0  0
   -5.8750    0.9640   -0.3230 N   0  0  0  0  0  0  0  0  0  0  0  0
   -7.1600    1.5310   -0.6900 C   0  0  0  0  0  0  0  0  0  0  0  0
   -5.4560    1.1180    1.0420 C   0  0  0  0  0  0  0  0  0  0  0  0
   -5.9560   -0.0580    1.8460 C   0  0  0  0  0  0  0  0  0  0  0  0
   -2.6170    0.5310   -0.8110 C   0  0  0  0  0  0  0  0  0  0  0  0
   -1.4180    0.0120   -0.3800 C   0  0  0  0  0  0  0  0  0  0  0  0
   -0.3190    0.8170   -0.4040 N   0  0  0  0  0  0  0  0  0  0  0  0
    4.1760   -1.2400    0.4460 N   0  0  0  0  0  0  0  0  0  0  0  0
    5.3000   -1.3220    1.0790 O   0  0  0  0  0  0  0  0  0  0  0  0
  1  2  1  0
  2  3  1  0
  3  4  2  0
  3 29  1  0
  4  5  1  0
  5  6  1  0
  5 28  2  0
  7  6  1  6
  7  8  2  0
  7  9  1  0
  9 10  1  0
 10 11  2  0
 10 27  1  0
 11 12  1  0
 12 13  2  0
 12 14  1  0
 14 15  2  0
 14 26  1  0
 15 16  1  0
 16 17  1  0
 16 18  2  0
 18 19  1  0
 18 25  1  0
 19 20  2  0
 19 21  1  0
 21 22  1  0
 21 23  1  0
 23 24  1  0
 25 26  2  0
 26 27  1  0
 28 29  1  0
M  END
