
     RDKit          3D

 29 31  0  0  0  0  0  0  0  0999 V2000
   -4.4750   -2.2450   -1.0670 C   0  0  0  0  0  0  0  0  0  0  0  0
   -3.6260   -1.9120   -0.1170 C   0  0  0  0  0  0  0  0  0  0  0  0
   -2.6010   -0.9480   -0.2660 N   0  0  0  0  0  0  0  0  0  0  0  0
   -1.8040   -1.0060   -1.2330 C   0  0  0  0  0  0  0  0  0  0  0  0
   -1.8860   -2.3180   -2.5210 S   0  0  0  0  0  0  0  0  0  0  0  0
   -0.3980   -1.5660   -3.4090 C   0  0  0  0  0  0  0  0  0  0  0  0
    0.1210   -2.1980   -4.6650 C   0  0  0  0  0  0  0  0  0  0  0  0
   -0.1770   -0.6710   -2.7170 N   0  0  0  0  0  0  0  0  0  0  0  0
   -0.7480   -0.2600   -1.6400 N   0  0  0  0  0  0  0  0  0  0  0  0
   -0.2830    0.9110   -0.9300 C   0  0  1  0  0  0  0  0  0  0  0  0
   -1.1760    1.2260    0.2150 C   0  0  0  0  0  0  0  0  0  0  0  0
   -0.7270    2.4460    0.9600 C   0  0  0  0  0  0  0  0  0  0  0  0
    0.2980    3.0350    0.5610 O   0  0  0  0  0  0  0  0  0  0  0  0
   -1.3850    2.9470    2.0570 O   0  0  0  0  0  0  0  0  0  0  0  0
   -0.9660    4.1000    2.7630 C   0  0  0  0  0  0  0  0  0  0  0  0
    1.1380    0.7700   -0.5540 C   0  0  0  0  0  0  0  0  0  0  0  0
    1.4680    0.5540    0.7620 C   0  0  0  0  0  0  0  0  0  0  0  0
    2.8190    0.4140    1.1180 C   0  0  0  0  0  0  0  0  0  0  0  0
    3.1910    0.1940    2.4330 C   0  0  0  0  0  0  0  0  0  0  0  0
    4.5210    0.0540    2.7910 C   0  0  0  0  0  0  0  0  0  0  0  0
    4.9200   -0.2200    4.4640 Cl  0  0  0  0  0  0  0  0  0  0  0  0
    5.5100    0.1330    1.8250 C   0  0  0  0  0  0  0  0  0  0  0  0
    5.1380    0.3500    0.5300 C   0  0  0  0  0  0  0  0  0  0  0  0
    3.8220    0.4910    0.1600 C   0  0  0  0  0  0  0  0  0  0  0  0
    3.4350    0.7040   -1.1090 N   0  0  0  0  0  0  0  0  0  0  0  0
    2.1400    0.8430   -1.4840 C   0  0  0  0  0  0  0  0  0  0  0  0
    1.9050    1.0410   -2.7210 O   0  0  0  0  0  0  0  0  0  0  0  0
   -3.7230   -2.5340    1.1200 O   0  0  0  0  0  0  0  0  0  0  0  0
   -4.9440   -2.7120    1.7760 C   0  0  0  0  0  0  0  0  0  0  0  0
  1  2  2  0
  2  3  1  0
  2 28  1  0
  3  4  2  3
  4  5  1  0
  4  9  1  0
  5  6  1  0
  6  7  1  0
  6  8  2  0
  8  9  1  0
  9 10  1  0
 10 11  1  1
 10 16  1  0
 11 12  1  0
 12 13  2  0
 12 14  1  0
 14 15  1  0
 16 17  2  0
 16 26  1  0
 17 18  1  0
 18 19  2  0
 18 24  1  0
 19 20  1  0
 20 21  1  0
 20 22  2  0
 22 23  1  0
 23 24  2  0
 24 25  1  0
 25 26  1  0
 26 27  2  0
 28 29  1  0
M  END
