
     RDKit          3D

 29 31  0  0  0  0  0  0  0  0999 V2000
   -2.5590   -2.2220    1.2120 C   0  0  0  0  0  0  0  0  0  0  0  0
   -1.7860   -1.0010    1.0480 N   0  0  0  0  0  0  0  0  0  0  0  0
   -0.3710   -1.0120    1.2370 C   0  0  0  0  0  0  0  0  0  0  0  0
    0.4050   -1.3100   -0.0290 C   0  0  2  0  0  0  0  0  0  0  0  0
    0.0610   -2.5800   -0.5560 O   0  0  0  0  0  0  0  0  0  0  0  0
   -0.4790   -2.7580   -1.8120 C   0  0  0  0  0  0  0  0  0  0  0  0
   -0.6910   -1.7640   -2.5520 O   0  0  0  0  0  0  0  0  0  0  0  0
    1.8480   -1.2490    0.3300 C   0  0  0  0  0  0  0  0  0  0  0  0
    2.6960   -1.8190    0.8520 N   0  0  0  0  0  0  0  0  0  0  0  0
    3.9290   -1.4460    0.9930 N   0  0  0  0  0  0  0  0  0  0  0  0
    4.3770   -0.4410    0.5960 C   0  0  0  0  0  0  0  0  0  0  0  0
    5.6310    0.3630    0.5220 C   0  0  0  0  0  0  0  0  0  0  0  0
    5.6970    1.5740   -0.0840 C   0  0  0  0  0  0  0  0  0  0  0  0
    6.9330    2.2290   -0.0870 C   0  0  0  0  0  0  0  0  0  0  0  0
    8.0560    1.7070    0.4840 C   0  0  0  0  0  0  0  0  0  0  0  0
    7.9450    0.4590    1.0960 C   0  0  0  0  0  0  0  0  0  0  0  0
    6.7520   -0.1940    1.1100 C   0  0  0  0  0  0  0  0  0  0  0  0
    2.8370    0.3100   -0.2050 S   0  0  0  0  0  0  0  0  0  0  0  0
   -2.4610    0.1920    0.6980 C   0  0  0  0  0  0  0  0  0  0  0  0
   -1.8050    1.2480    0.5540 O   0  0  0  0  0  0  0  0  0  0  0  0
   -3.8740    0.2520    0.4990 N   0  0  0  0  0  0  0  0  0  0  0  0
   -4.5540    1.4290    0.1530 C   0  0  0  0  0  0  0  0  0  0  0  0
   -3.8340    2.4810    0.0210 O   0  0  0  0  0  0  0  0  0  0  0  0
   -5.9830    1.5640   -0.0690 C   0  0  0  0  0  0  0  0  0  0  0  0
   -6.6430    2.6820   -0.3950 C   0  0  0  0  0  0  0  0  0  0  0  0
   -8.0500    2.3320   -0.5100 C   0  0  0  0  0  0  0  0  0  0  0  0
   -8.1310    1.1450    0.0230 C   0  0  0  0  0  0  0  0  0  0  0  0
   -6.9640    0.5000    0.0150 C   0  0  0  0  0  0  0  0  0  0  0  0
   -6.7340   -1.2260    0.0830 Cl  0  0  0  0  0  0  0  0  0  0  0  0
  1  2  1  0
  2  3  1  0
  2 19  1  0
  4  3  1  1
  4  5  1  0
  4  8  1  0
  5  6  1  0
  6  7  2  0
  8  9  2  0
  8 18  1  0
  9 10  1  0
 10 11  2  0
 11 12  1  0
 11 18  1  0
 12 13  2  0
 12 17  1  0
 13 14  1  0
 14 15  2  0
 15 16  1  0
 16 17  2  0
 19 20  2  0
 19 21  1  0
 21 22  1  0
 22 23  2  0
 22 24  1  0
 24 25  2  0
 24 28  1  0
 25 26  1  0
 26 27  2  0
 27 28  2  0
 28 29  1  0
M  END
