
     RDKit          3D

 19 20  0  0  0  0  0  0  0  0999 V2000
   -0.2540    3.3990   -0.4340 C   0  0  0  0  0  0  0  0  0  0  0  0
   -0.2340    1.9780   -0.2640 N   0  0  0  0  0  0  0  0  0  0  0  0
    1.0100    1.4260   -0.3330 C   0  0  0  0  0  0  0  0  0  0  0  0
    2.0300    2.1210   -0.5300 O   0  0  0  0  0  0  0  0  0  0  0  0
    1.1890    0.0970   -0.1890 C   0  0  0  0  0  0  0  0  0  0  0  0
    2.5140   -0.4990   -0.2610 C   0  0  0  0  0  0  0  0  0  0  0  0
    3.4450   -0.1990   -1.1960 C   0  0  0  0  0  0  0  0  0  0  0  0
    4.6790   -0.8170   -1.1850 C   0  0  0  0  0  0  0  0  0  0  0  0
    5.0080   -1.7610   -0.2220 C   0  0  0  0  0  0  0  0  0  0  0  0
    4.0670   -2.0750    0.7360 C   0  0  0  0  0  0  0  0  0  0  0  0
    2.8350   -1.4390    0.7020 C   0  0  0  0  0  0  0  0  0  0  0  0
    0.1030   -0.7160    0.0290 C   0  0  0  0  0  0  0  0  0  0  0  0
   -1.2180   -0.1780    0.1080 C   0  0  0  0  0  0  0  0  0  0  0  0
   -2.1940   -1.0040    0.3170 C   0  0  0  0  0  0  0  0  0  0  0  0
   -3.6250   -0.9450    0.4670 C   0  0  0  0  0  0  0  0  0  0  0  0
   -4.1580   -2.3430    0.7020 N   0  0  0  0  0  0  0  0  0  0  0  0
   -1.3300    1.1780   -0.0460 C   0  0  0  0  0  0  0  0  0  0  0  0
   -2.4950    1.7680    0.0050 C   0  0  0  0  0  0  0  0  0  0  0  0
   -2.5540    3.1640   -0.1640 O   0  0  0  0  0  0  0  0  0  0  0  0
  1  2  1  0
  2  3  1  0
  2 17  1  0
  3  4  2  0
  3  5  1  0
  5  6  1  0
  5 12  2  0
  6  7  2  0
  6 11  1  0
  7  8  1  0
  8  9  2  0
  9 10  1  0
 10 11  2  0
 12 13  1  0
 13 14  2  3
 13 17  1  0
 14 15  1  0
 15 16  1  0
 17 18  2  3
 18 19  1  0
M  CHG  1  16   1
M  END
