
     RDKit          3D

 19 20  0  0  0  0  0  0  0  0999 V2000
   -0.4710   -0.9180   -2.5070 C   0  0  0  0  0  0  0  0  0  0  0  0
   -0.1430    0.2230   -1.5860 C   0  0  0  0  0  0  0  0  0  0  0  0
   -0.3000   -0.0560   -0.1560 C   0  0  0  0  0  0  0  0  0  0  0  0
    0.7920   -0.0310    0.6060 C   0  0  0  0  0  0  0  0  0  0  0  0
    2.1360    0.2390    0.1630 C   0  0  0  0  0  0  0  0  0  0  0  0
    2.7680   -0.4020   -0.8810 C   0  0  0  0  0  0  0  0  0  0  0  0
    4.0400   -0.1090   -1.2880 C   0  0  0  0  0  0  0  0  0  0  0  0
    4.7710    0.8670   -0.6560 C   0  0  0  0  0  0  0  0  0  0  0  0
    4.1900    1.5420    0.3950 C   0  0  0  0  0  0  0  0  0  0  0  0
    4.9160    2.5400    1.0530 O   0  0  0  0  0  0  0  0  0  0  0  0
    2.8980    1.2270    0.7900 C   0  0  0  0  0  0  0  0  0  0  0  0
    2.3270    1.9160    1.8520 O   0  0  0  0  0  0  0  0  0  0  0  0
   -1.5780   -0.3560    0.4560 C   0  0  0  0  0  0  0  0  0  0  0  0
   -2.7990   -0.4630    0.0250 C   0  0  0  0  0  0  0  0  0  0  0  0
   -3.2810   -0.2860   -1.3820 C   0  0  0  0  0  0  0  0  0  0  0  0
   -3.6570   -0.7950    1.1690 C   0  0  0  0  0  0  0  0  0  0  0  0
   -5.0740   -0.9900    1.0730 N   0  0  0  0  0  0  0  0  0  0  0  0
   -2.9880   -0.8860    2.2470 N   0  0  0  0  0  0  0  0  0  0  0  0
   -1.6270   -0.6290    1.9510 C   0  0  0  0  0  0  0  0  0  0  0  0
  1  2  1  0
  2  3  1  0
  3  4  2  3
  3 13  1  0
  4  5  1  0
  5  6  2  0
  5 11  1  0
  6  7  1  0
  7  8  2  0
  8  9  1  0
  9 10  1  0
  9 11  2  0
 11 12  1  0
 13 14  2  0
 13 19  1  0
 14 15  1  0
 14 16  1  0
 16 17  1  0
 16 18  2  0
 18 19  1  0
M  CHG  1  18   1
M  END
