
     RDKit          3D

 19 20  0  0  0  0  0  0  0  0999 V2000
    3.5400    1.9280   -1.0280 C   0  0  0  0  0  0  0  0  0  0  0  0
    3.5810    0.7090   -0.1730 C   0  0  0  0  0  0  0  0  0  0  0  0
    4.6910    0.2850    0.3690 C   0  0  0  0  0  0  0  0  0  0  0  0
    4.5020   -0.9230    1.1590 C   0  0  0  0  0  0  0  0  0  0  0  0
    3.0390   -1.1350    1.0400 N   0  0  0  0  0  0  0  0  0  0  0  0
    2.4360   -0.1710    0.2140 C   0  0  0  0  0  0  0  0  0  0  0  0
    1.2340    0.0790   -0.1710 C   0  0  0  0  0  0  0  0  0  0  0  0
   -0.0620   -0.5190   -0.0070 C   0  0  0  0  0  0  0  0  0  0  0  0
   -0.3510   -1.8320    0.5560 C   0  0  0  0  0  0  0  0  0  0  0  0
   -1.6690   -2.4190    0.6050 N   0  0  0  0  0  0  0  0  0  0  0  0
    0.5780   -2.5260    1.0210 O   0  0  0  0  0  0  0  0  0  0  0  0
   -1.1120    0.1130   -0.5690 C   0  0  0  0  0  0  0  0  0  0  0  0
   -1.0660    1.3580   -1.3850 C   0  0  0  0  0  0  0  0  0  0  0  0
   -2.4090    1.3410   -2.1220 C   0  0  0  0  0  0  0  0  0  0  0  0
   -3.1180    0.0350   -1.7100 C   0  0  0  0  0  0  0  0  0  0  0  0
   -2.5260   -0.0690   -0.3130 C   0  0  0  0  0  0  0  0  0  0  0  0
   -3.1650   -0.1350    0.8300 C   0  0  0  0  0  0  0  0  0  0  0  0
   -2.6530   -0.0360    2.1980 C   0  0  0  0  0  0  0  0  0  0  0  0
   -4.5510   -0.3320    0.7150 O   0  0  0  0  0  0  0  0  0  0  0  0
  1  2  1  0
  2  3  2  0
  2  6  1  0
  3  4  1  0
  4  5  1  0
  5  6  1  0
  6  7  2  3
  7  8  1  0
  8  9  1  0
  8 12  2  3
  9 10  1  0
  9 11  2  0
 12 13  1  0
 12 16  1  0
 13 14  1  0
 14 15  1  0
 15 16  1  0
 16 17  2  3
 17 18  1  0
 17 19  1  0
M  END
