
     RDKit          3D

 19 19  0  0  0  0  0  0  0  0999 V2000
   -0.7570    3.9540    1.0130 C   0  0  0  0  0  0  0  0  0  0  0  0
   -1.5380    2.9120    0.6200 C   0  0  0  0  0  0  0  0  0  0  0  0
   -0.9190    1.6960    0.1630 C   0  0  0  0  0  0  0  0  0  0  0  0
   -1.3460    0.5570   -0.2690 C   0  0  0  0  0  0  0  0  0  0  0  0
   -2.6730    0.2460   -0.3930 C   0  0  0  0  0  0  0  0  0  0  0  0
   -3.7250    1.1750   -0.0650 N   0  0  0  0  0  0  0  0  0  0  0  0
   -3.0360   -1.0150   -0.8590 C   0  0  0  0  0  0  0  0  0  0  0  0
   -2.0880   -1.9480   -1.1960 C   0  0  0  0  0  0  0  0  0  0  0  0
   -2.4820   -3.1320   -1.6350 C   0  0  0  0  0  0  0  0  0  0  0  0
   -0.7370   -1.6360   -1.0730 C   0  0  0  0  0  0  0  0  0  0  0  0
    0.2550   -2.6750   -1.4490 C   0  0  0  0  0  0  0  0  0  0  0  0
   -0.3630   -0.4080   -0.6180 C   0  0  0  0  0  0  0  0  0  0  0  0
    1.0720   -0.0730   -0.4850 C   0  0  0  0  0  0  0  0  0  0  0  0
    1.6280    0.4430   -1.4890 O   0  0  0  0  0  0  0  0  0  0  0  0
    1.8060   -0.3340    0.7620 C   0  0  0  0  0  0  0  0  0  0  0  0
    3.2360    0.1150    0.5790 C   0  0  0  0  0  0  0  0  0  0  0  0
    4.0410   -0.1180    1.8030 C   0  0  0  0  0  0  0  0  0  0  0  0
    5.4170    0.2690    1.7470 N   0  0  0  0  0  0  0  0  0  0  0  0
    3.5640   -0.6310    2.8540 O   0  0  0  0  0  0  0  0  0  0  0  0
  1  2  2  0
  2  3  1  0
  3  4  2  3
  4  5  1  0
  4 12  1  0
  5  6  1  0
  5  7  2  0
  7  8  1  0
  8  9  2  0
  8 10  1  0
 10 11  1  0
 10 12  2  0
 12 13  1  0
 13 14  2  0
 13 15  1  0
 15 16  1  0
 16 17  1  0
 17 18  1  0
 17 19  2  0
M  CHG  1   6   1
M  END
