
     RDKit          3D

 19 19  0  0  0  0  0  0  0  0999 V2000
   -0.5170   -2.8560    1.2710 C   0  0  0  0  0  0  0  0  0  0  0  0
   -1.1710   -1.8330    0.7760 C   0  0  0  0  0  0  0  0  0  0  0  0
   -0.7570   -1.0940   -0.4230 C   0  0  0  0  0  0  0  0  0  0  0  0
   -1.5440   -0.0590   -0.7910 C   0  0  0  0  0  0  0  0  0  0  0  0
   -1.4460    0.8470   -1.8750 C   0  0  0  0  0  0  0  0  0  0  0  0
   -0.9790    2.0420   -2.1040 C   0  0  0  0  0  0  0  0  0  0  0  0
   -0.3200    3.0210   -1.2850 C   0  0  0  0  0  0  0  0  0  0  0  0
    0.0570    3.0610   -0.0550 C   0  0  0  0  0  0  0  0  0  0  0  0
    0.0020    2.1530    1.0650 C   0  0  0  0  0  0  0  0  0  0  0  0
    0.8270    1.1400    1.3600 C   0  0  0  0  0  0  0  0  0  0  0  0
    0.4940    0.4040    2.5860 C   0  0  0  0  0  0  0  0  0  0  0  0
   -0.6220    0.7140    3.4140 N   0  0  0  0  0  0  0  0  0  0  0  0
    1.1770   -0.5600    2.9950 O   0  0  0  0  0  0  0  0  0  0  0  0
    1.9700    0.7800    0.5770 N   0  0  0  0  0  0  0  0  0  0  0  0
    2.0780    0.2870   -0.7300 C   0  0  0  0  0  0  0  0  0  0  0  0
    2.6810    1.0480   -1.5770 O   0  0  0  0  0  0  0  0  0  0  0  0
    1.6050   -0.9720   -1.2700 C   0  0  0  0  0  0  0  0  0  0  0  0
    0.4300   -1.5470   -1.1380 C   0  0  0  0  0  0  0  0  0  0  0  0
    0.3200   -2.9230   -1.7900 C   0  0  0  0  0  0  0  0  0  0  0  0
  1  2  2  0
  2  3  1  0
  3  4  2  0
  3 18  1  0
  4  5  1  0
  5  6  2  0
  6  7  1  0
  7  8  2  0
  8  9  1  0
  9 10  2  0
 10 11  1  0
 10 14  1  0
 11 12  1  0
 11 13  2  0
 14 15  1  0
 15 16  2  0
 15 17  1  0
 17 18  2  0
 18 19  1  0
M  END
