
     RDKit          3D

 44 48  0  0  0  0  0  0  0  0999 V2000
  -10.5960    3.2630    2.3810 C   0  0  0  0  0  0  0  0  0  0  0  0
  -10.7850    2.1390    1.3550 C   0  0  0  0  0  0  0  0  0  0  0  0
   -9.5090    2.0800    0.5920 C   0  0  0  0  0  0  0  0  0  0  0  0
   -9.3560    2.8390   -0.5470 C   0  0  0  0  0  0  0  0  0  0  0  0
   -8.1920    2.8140   -1.2790 C   0  0  0  0  0  0  0  0  0  0  0  0
   -7.1390    1.9840   -0.8410 C   0  0  0  0  0  0  0  0  0  0  0  0
   -7.2540    1.2180    0.2810 C   0  0  0  0  0  0  0  0  0  0  0  0
   -6.2500    0.3530    0.7650 N   0  0  0  0  0  0  0  0  0  0  0  0
   -5.1060   -0.0470    0.0350 C   0  0  0  0  0  0  0  0  0  0  0  0
   -4.9110    0.3460   -1.1230 O   0  0  0  0  0  0  0  0  0  0  0  0
   -4.1260   -0.9210    0.6000 N   0  0  0  0  0  0  0  0  0  0  0  0
   -2.9600   -1.3040   -0.2100 C   0  0  1  0  0  0  0  0  0  0  0  0
   -1.7520   -0.8630    0.5240 C   0  0  0  0  0  0  0  0  0  0  0  0
   -0.5840   -1.7100    0.3260 N   0  0  0  0  0  0  0  0  0  0  0  0
    0.5690   -0.7400    0.2170 C   0  0  0  0  0  0  0  0  0  0  0  0
    1.8110   -1.4940    0.2330 C   0  0  0  0  0  0  0  0  0  0  0  0
    1.7550   -2.8700    0.4650 C   0  0  0  0  0  0  0  0  0  0  0  0
    2.8600   -3.6760    0.5150 C   0  0  0  0  0  0  0  0  0  0  0  0
    4.0830   -3.0860    0.3270 C   0  0  0  0  0  0  0  0  0  0  0  0
    4.1370   -1.7090    0.0970 C   0  0  0  0  0  0  0  0  0  0  0  0
    5.2150   -0.9870   -0.1260 N   0  0  0  0  0  0  0  0  0  0  0  0
    4.8670    0.3350   -0.3340 C   0  0  0  0  0  0  0  0  0  0  0  0
    5.8150    1.1610   -0.6560 C   0  0  0  0  0  0  0  0  0  0  0  0
    6.1670    2.4730   -0.9900 C   0  0  0  0  0  0  0  0  0  0  0  0
    5.3360    3.4890   -1.3190 F   0  0  0  0  0  0  0  0  0  0  0  0
    7.4680    2.8550   -1.1480 C   0  0  0  0  0  0  0  0  0  0  0  0
    8.6020    1.9940   -0.9920 C   0  0  0  0  0  0  0  0  0  0  0  0
    9.5200    1.9130   -2.0330 C   0  0  0  0  0  0  0  0  0  0  0  0
   10.6330    1.1380   -1.9010 C   0  0  0  0  0  0  0  0  0  0  0  0
   10.9140    0.4000   -0.7520 C   0  0  0  0  0  0  0  0  0  0  0  0
   10.0030    0.4820    0.2780 C   0  0  0  0  0  0  0  0  0  0  0  0
   10.2350   -0.2720    1.5170 C   0  0  0  0  0  0  0  0  0  0  0  0
    8.8700    1.2780    0.1310 C   0  0  0  0  0  0  0  0  0  0  0  0
    3.4600    0.3990   -0.2120 C   0  0  0  0  0  0  0  0  0  0  0  0
    2.8020    1.5050   -0.0940 C   0  0  0  0  0  0  0  0  0  0  0  0
    1.4820    2.0610    0.0270 C   0  0  0  0  0  0  0  0  0  0  0  0
    3.7500    2.6310   -0.0310 O   0  0  0  0  0  0  0  0  0  0  0  0
    3.0300   -0.9030    0.0480 C   0  0  0  0  0  0  0  0  0  0  0  0
   -0.7010   -2.3070   -1.0230 C   0  0  0  0  0  0  0  0  0  0  0  0
   -1.7070   -3.3940   -0.8750 C   0  0  0  0  0  0  0  0  0  0  0  0
   -3.0400   -2.7380   -0.6110 C   0  0  1  0  0  0  0  0  0  0  0  0
   -3.7320   -3.5400    0.4840 C   0  0  0  0  0  0  0  0  0  0  0  0
   -3.8390   -2.8750   -1.9210 C   0  0  0  0  0  0  0  0  0  0  0  0
   -8.4660    1.2800    0.9960 C   0  0  0  0  0  0  0  0  0  0  0  0
  1  2  1  0
  2  3  1  0
  3  4  2  0
  3 44  1  0
  4  5  1  0
  5  6  2  0
  6  7  1  0
  7  8  1  0
  7 44  2  0
  8  9  1  0
  9 10  2  0
  9 11  1  0
 12 11  1  1
 12 13  1  0
 12 41  1  0
 13 14  1  0
 14 15  1  0
 14 39  1  0
 15 16  1  0
 16 17  2  0
 16 38  1  0
 17 18  1  0
 18 19  2  0
 19 20  1  0
 20 21  1  0
 20 38  2  0
 21 22  1  0
 22 23  2  3
 22 34  1  0
 23 24  1  0
 24 25  1  0
 24 26  2  3
 26 27  1  0
 27 28  2  0
 27 33  1  0
 28 29  1  0
 29 30  2  0
 30 31  1  0
 31 32  1  0
 31 33  2  0
 34 35  2  3
 34 38  1  0
 35 36  1  0
 35 37  1  0
 39 40  1  0
 40 41  1  0
 41 42  1  1
 41 43  1  0
M  END
