
     RDKit          3D

 44 48  0  0  0  0  0  0  0  0999 V2000
   10.4010    0.5310   -3.0710 C   0  0  0  0  0  0  0  0  0  0  0  0
    9.5240   -0.0080   -2.0040 C   0  0  0  0  0  0  0  0  0  0  0  0
    8.6910    0.6910   -1.2440 C   0  0  0  0  0  0  0  0  0  0  0  0
    8.5330    2.1710   -1.3840 C   0  0  0  0  0  0  0  0  0  0  0  0
    8.0070   -0.1770   -0.3080 C   0  0  0  0  0  0  0  0  0  0  0  0
    7.0500    0.1500    0.6750 N   0  0  0  0  0  0  0  0  0  0  0  0
    5.7770    0.7090    0.3820 C   0  0  0  0  0  0  0  0  0  0  0  0
    5.4930    0.9270   -0.8450 O   0  0  0  0  0  0  0  0  0  0  0  0
    4.8170    1.0250    1.4150 C   0  0  0  0  0  0  0  0  0  0  0  0
    5.0830    1.8730    2.4550 C   0  0  0  0  0  0  0  0  0  0  0  0
    4.1480    2.1330    3.4370 C   0  0  0  0  0  0  0  0  0  0  0  0
    2.9080    1.5400    3.3990 C   0  0  0  0  0  0  0  0  0  0  0  0
    1.9180    1.8420    4.4730 C   0  0  0  0  0  0  0  0  0  0  0  0
    2.5920    0.6600    2.3470 C   0  0  0  0  0  0  0  0  0  0  0  0
    1.3070    0.0710    2.3830 N   0  0  0  0  0  0  0  0  0  0  0  0
    0.7740   -0.8520    1.4490 C   0  0  0  0  0  0  0  0  0  0  0  0
    1.4540   -1.2130    0.4740 O   0  0  0  0  0  0  0  0  0  0  0  0
   -0.5900   -1.3940    1.6270 C   0  0  0  0  0  0  0  0  0  0  0  0
   -1.0380   -2.2870    0.4960 C   0  0  0  0  0  0  0  0  0  0  0  0
   -1.1700   -1.6210   -0.8240 C   0  0  0  0  0  0  0  0  0  0  0  0
   -2.1420   -0.5160   -0.9420 C   0  0  0  0  0  0  0  0  0  0  0  0
   -3.5730   -0.7000   -0.7980 C   0  0  0  0  0  0  0  0  0  0  0  0
   -4.2470   -1.8510   -0.7960 C   0  0  0  0  0  0  0  0  0  0  0  0
   -3.9740   -3.2970   -0.9180 C   0  0  0  0  0  0  0  0  0  0  0  0
   -5.1140   -3.9010   -1.6500 N   0  0  0  0  0  0  0  0  0  0  0  0
   -6.2800   -3.8200   -0.7440 C   0  0  0  0  0  0  0  0  0  0  0  0
   -6.6120   -2.4020   -0.5520 C   0  0  0  0  0  0  0  0  0  0  0  0
   -8.0200   -1.9660   -0.3210 C   0  0  1  0  0  0  0  0  0  0  0  0
   -8.9040   -2.3690   -1.4970 C   0  0  0  0  0  0  0  0  0  0  0  0
   -8.5640   -2.6160    0.9280 C   0  0  0  0  0  0  0  0  0  0  0  0
   -5.6470   -1.4820   -0.5810 C   0  0  0  0  0  0  0  0  0  0  0  0
   -5.6640   -0.0880   -0.4710 N   0  0  0  0  0  0  0  0  0  0  0  0
   -4.4950    0.4440   -0.5880 C   0  0  0  0  0  0  0  0  0  0  0  0
   -4.2540    1.8760   -0.4830 C   0  0  0  0  0  0  0  0  0  0  0  0
   -3.1370    2.5700   -0.7810 C   0  0  0  0  0  0  0  0  0  0  0  0
   -2.9850    3.9350   -0.5910 C   0  0  0  0  0  0  0  0  0  0  0  0
   -1.7220    4.6350   -0.9450 C   0  0  0  0  0  0  0  0  0  0  0  0
   -4.0350    4.6530   -0.0650 C   0  0  0  0  0  0  0  0  0  0  0  0
   -5.2040    3.9920    0.2570 C   0  0  0  0  0  0  0  0  0  0  0  0
   -6.2210    4.7240    0.7740 F   0  0  0  0  0  0  0  0  0  0  0  0
   -5.3130    2.6370    0.0550 C   0  0  0  0  0  0  0  0  0  0  0  0
    3.5450    0.4290    1.3930 C   0  0  0  0  0  0  0  0  0  0  0  0
    8.4430   -1.4070   -0.5180 C   0  0  0  0  0  0  0  0  0  0  0  0
    9.4350   -1.4290   -1.6010 C   0  0  0  0  0  0  0  0  0  0  0  0
  1  2  1  0
  2  3  2  0
  2 44  1  0
  3  4  1  0
  3  5  1  0
  5  6  1  0
  5 43  2  0
  6  7  1  0
  7  8  2  0
  7  9  1  0
  9 10  2  0
  9 42  1  0
 10 11  1  0
 11 12  2  0
 12 13  1  0
 12 14  1  0
 14 15  1  0
 14 42  2  0
 15 16  1  0
 16 17  2  0
 16 18  1  0
 18 19  1  0
 19 20  1  0
 20 21  1  0
 21 22  1  0
 22 23  2  0
 22 33  1  0
 23 24  1  0
 23 31  1  0
 24 25  1  0
 25 26  1  0
 26 27  1  0
 27 28  1  0
 27 31  2  0
 28 29  1  6
 28 30  1  0
 31 32  1  0
 32 33  2  0
 33 34  1  0
 34 35  2  0
 34 41  1  0
 35 36  1  0
 36 37  1  0
 36 38  2  0
 38 39  1  0
 39 40  1  0
 39 41  2  0
 43 44  1  0
M  END
