
     RDKit          3D

 44 49  0  0  0  0  0  0  0  0999 V2000
   -0.8000    4.1660   -0.6600 C   0  0  0  0  0  0  0  0  0  0  0  0
   -1.5590    2.9170   -0.3710 C   0  0  0  0  0  0  0  0  0  0  0  0
   -2.6380    2.9620    0.5190 C   0  0  0  0  0  0  0  0  0  0  0  0
   -3.3480    1.8120    0.7930 C   0  0  0  0  0  0  0  0  0  0  0  0
   -2.9870    0.6210    0.1840 C   0  0  0  0  0  0  0  0  0  0  0  0
   -3.7550   -0.6180    0.4810 C   0  0  0  0  0  0  0  0  0  0  0  0
   -5.1740   -0.4120    0.2760 N   0  0  0  0  0  0  0  0  0  0  0  0
   -5.9420   -1.5870    0.5540 C   0  0  0  0  0  0  0  0  0  0  0  0
   -7.3840   -1.3710    0.3570 C   0  0  0  0  0  0  0  0  0  0  0  0
   -8.3050   -2.3660    0.5180 C   0  0  0  0  0  0  0  0  0  0  0  0
   -9.6730   -2.1360    0.3270 C   0  0  0  0  0  0  0  0  0  0  0  0
  -10.0820   -0.8770   -0.0310 C   0  0  0  0  0  0  0  0  0  0  0  0
   -9.0820    0.0870   -0.1770 C   0  0  0  0  0  0  0  0  0  0  0  0
   -9.4690    1.2510   -0.5080 O   0  0  0  0  0  0  0  0  0  0  0  0
   -7.8230   -0.1700    0.0110 O   0  0  0  0  0  0  0  0  0  0  0  0
  -11.4940   -0.5150   -0.2630 C   0  0  0  0  0  0  0  0  0  0  0  0
  -12.4360   -1.0100    0.8120 C   0  0  0  0  0  0  0  0  0  0  0  0
  -12.2720   -2.8190    0.9610 S   0  0  0  0  0  0  0  0  0  0  0  0
  -10.6040   -3.1890    0.5050 N   0  0  0  0  0  0  0  0  0  0  0  0
   -1.9150    0.6060   -0.6920 C   0  0  0  0  0  0  0  0  0  0  0  0
   -1.1910    1.7390   -0.9820 C   0  0  0  0  0  0  0  0  0  0  0  0
   -0.0670    1.7440   -1.8940 C   0  0  0  0  0  0  0  0  0  0  0  0
   -0.2980    1.9620   -3.1280 O   0  0  0  0  0  0  0  0  0  0  0  0
    1.2680    1.5210   -1.4870 N   0  0  0  0  0  0  0  0  0  0  0  0
    1.5460    1.2740   -0.0990 C   0  0  0  0  0  0  0  0  0  0  0  0
    2.5380    0.1770    0.1100 C   0  0  0  0  0  0  0  0  0  0  0  0
    3.6910    0.2750   -0.8910 C   0  0  1  0  0  0  0  0  0  0  0  0
    4.6010   -0.7980   -0.6280 N   0  0  0  0  0  0  0  0  0  0  0  0
    5.9530   -0.5460   -0.1600 C   0  0  0  0  0  0  0  0  0  0  0  0
    6.2370    0.6620   -0.0130 O   0  0  0  0  0  0  0  0  0  0  0  0
    6.8710   -1.6030    0.1010 C   0  0  0  0  0  0  0  0  0  0  0  0
    8.0950   -1.5950    0.5450 C   0  0  0  0  0  0  0  0  0  0  0  0
    8.9590   -2.8560    0.7580 C   0  0  0  0  0  0  0  0  0  0  0  0
   10.2330   -2.3050    0.0960 C   0  0  1  0  0  0  0  0  0  0  0  0
   11.3050   -3.0830    0.4040 F   0  0  0  0  0  0  0  0  0  0  0  0
    9.9780   -2.2670   -1.2590 F   0  0  0  0  0  0  0  0  0  0  0  0
   10.3140   -0.9290    0.6890 C   0  0  0  0  0  0  0  0  0  0  0  0
   11.3830   -0.1280    0.9740 C   0  0  0  0  0  0  0  0  0  0  0  0
   11.1450    1.1020    1.5960 C   0  0  0  0  0  0  0  0  0  0  0  0
    9.8450    1.4770    1.9060 C   0  0  0  0  0  0  0  0  0  0  0  0
    8.7660    0.6480    1.6080 C   0  0  0  0  0  0  0  0  0  0  0  0
    9.0050   -0.5560    0.9960 C   0  0  0  0  0  0  0  0  0  0  0  0
    3.1340    0.2690   -2.3090 C   0  0  0  0  0  0  0  0  0  0  0  0
    2.3320    1.5460   -2.4460 C   0  0  0  0  0  0  0  0  0  0  0  0
  1  2  1  0
  2  3  2  0
  2 21  1  0
  3  4  1  0
  4  5  2  0
  5  6  1  0
  5 20  1  0
  6  7  1  0
  7  8  1  0
  8  9  1  0
  9 10  2  0
  9 15  1  0
 10 11  1  0
 11 12  2  0
 11 19  1  0
 12 13  1  0
 12 16  1  0
 13 14  2  0
 13 15  1  0
 16 17  1  0
 17 18  1  0
 18 19  1  0
 20 21  2  0
 21 22  1  0
 22 23  2  0
 22 24  1  0
 24 25  1  0
 24 44  1  0
 25 26  1  0
 26 27  1  0
 27 28  1  6
 27 43  1  0
 28 29  1  0
 29 30  2  0
 29 31  1  0
 31 32  2  3
 32 33  1  0
 32 42  1  0
 33 34  1  0
 34 35  1  6
 34 36  1  0
 34 37  1  0
 37 38  2  0
 37 42  1  0
 38 39  1  0
 39 40  2  0
 40 41  1  0
 41 42  2  0
 43 44  1  0
M  END
