
     RDKit          3D

 45 49  0  0  0  0  0  0  0  0999 V2000
    7.2750   -0.8770    2.3150 N   0  0  0  0  0  0  0  0  0  0  0  0
    6.6010   -1.7400    1.4060 C   0  0  0  0  0  0  0  0  0  0  0  0
    7.3600   -2.5480    0.7490 O   0  0  0  0  0  0  0  0  0  0  0  0
    5.1450   -1.7140    1.2290 C   0  0  0  0  0  0  0  0  0  0  0  0
    4.4420   -0.7000    1.7900 C   0  0  0  0  0  0  0  0  0  0  0  0
    3.0870   -0.6210    1.6760 C   0  0  0  0  0  0  0  0  0  0  0  0
    2.3530   -1.6120    0.9450 C   0  0  0  0  0  0  0  0  0  0  0  0
    0.6300   -1.4270    0.8930 S   0  0  1  0  0  0  0  0  0  0  0  0
    0.1270   -2.8950    0.8330 O   0  0  0  0  0  0  0  0  0  0  0  0
    0.0350   -0.8940    2.2140 O   0  0  0  0  0  0  0  0  0  0  0  0
    0.1000   -0.6200   -0.4800 N   0  0  0  0  0  0  0  0  0  0  0  0
    0.0620   -1.2350   -1.7060 C   0  0  0  0  0  0  0  0  0  0  0  0
    1.1060   -1.5630   -2.6090 C   0  0  0  0  0  0  0  0  0  0  0  0
    1.5860   -2.9020   -2.6340 C   0  0  0  0  0  0  0  0  0  0  0  0
    2.5540   -3.3590   -3.4890 C   0  0  0  0  0  0  0  0  0  0  0  0
    3.1120   -2.5000   -4.4020 C   0  0  0  0  0  0  0  0  0  0  0  0
    2.6850   -1.1780   -4.4390 C   0  0  0  0  0  0  0  0  0  0  0  0
    1.7050   -0.7400   -3.5520 C   0  0  0  0  0  0  0  0  0  0  0  0
   -0.2430    0.7460   -0.3040 C   0  0  1  0  0  0  0  0  0  0  0  0
    0.7940    1.6340   -0.9360 C   0  0  0  0  0  0  0  0  0  0  0  0
    0.1090    2.5360   -1.8260 N   0  0  0  0  0  0  0  0  0  0  0  0
   -1.2360    2.0470   -1.9820 C   0  0  0  0  0  0  0  0  0  0  0  0
   -1.5730    1.2060   -0.7750 C   0  0  2  0  0  0  0  0  0  0  0  0
   -2.3420    1.8510    0.2330 N   0  0  0  0  0  0  0  0  0  0  0  0
   -1.8070    2.7940    1.0690 C   0  0  0  0  0  0  0  0  0  0  0  0
   -2.2300    4.2080    0.8480 C   0  0  0  0  0  0  0  0  0  0  0  0
   -3.2070    4.4990   -0.0760 C   0  0  0  0  0  0  0  0  0  0  0  0
   -3.6010    5.8010   -0.2550 C   0  0  0  0  0  0  0  0  0  0  0  0
   -3.0520    6.8490    0.4670 C   0  0  0  0  0  0  0  0  0  0  0  0
   -2.0610    6.5240    1.3970 C   0  0  0  0  0  0  0  0  0  0  0  0
   -1.6510    5.2230    1.5890 C   0  0  0  0  0  0  0  0  0  0  0  0
   -3.8540    1.1590    0.5580 S   0  0  2  0  0  0  0  0  0  0  0  0
   -4.7610    1.0830   -0.6410 O   0  0  0  0  0  0  0  0  0  0  0  0
   -4.4690    1.9360    1.7100 O   0  0  0  0  0  0  0  0  0  0  0  0
   -3.5460   -0.4620    1.1460 C   0  0  0  0  0  0  0  0  0  0  0  0
   -3.4570   -1.5080    0.2380 C   0  0  0  0  0  0  0  0  0  0  0  0
   -3.1770   -2.8100    0.6520 C   0  0  0  0  0  0  0  0  0  0  0  0
   -2.9800   -3.0790    1.9970 C   0  0  0  0  0  0  0  0  0  0  0  0
   -2.6670   -4.4480    2.4150 C   0  0  0  0  0  0  0  0  0  0  0  0
   -2.5150   -5.5130    1.4940 N   0  0  0  0  0  0  0  0  0  0  0  0
   -2.5150   -4.7340    3.6460 O   0  0  0  0  0  0  0  0  0  0  0  0
   -3.0700   -2.0480    2.9040 C   0  0  0  0  0  0  0  0  0  0  0  0
   -3.3540   -0.7300    2.4810 C   0  0  0  0  0  0  0  0  0  0  0  0
    3.0710   -2.6140    0.4000 C   0  0  0  0  0  0  0  0  0  0  0  0
    4.4620   -2.6860    0.5260 C   0  0  0  0  0  0  0  0  0  0  0  0
  1  2  1  0
  2  3  2  0
  2  4  1  0
  4  5  2  0
  4 45  1  0
  5  6  1  0
  6  7  2  0
  7  8  1  0
  7 44  1  0
  8  9  2  0
  8 10  2  0
  8 11  1  6
 11 12  1  0
 19 11  1  6
 12 13  1  0
 13 14  2  0
 13 18  1  0
 14 15  1  0
 15 16  2  0
 16 17  1  0
 17 18  2  0
 19 20  1  0
 19 23  1  0
 20 21  1  0
 21 22  1  0
 22 23  1  0
 23 24  1  1
 24 25  1  0
 32 24  1  6
 25 26  1  0
 26 27  2  0
 26 31  1  0
 27 28  1  0
 28 29  2  0
 29 30  1  0
 30 31  2  0
 32 33  2  0
 32 34  2  0
 32 35  1  0
 35 36  2  0
 35 43  1  0
 36 37  1  0
 37 38  2  0
 38 39  1  0
 38 42  1  0
 39 40  1  0
 39 41  2  0
 42 43  2  0
 44 45  2  0
M  CHG  1  21   1
M  END
