
     RDKit          3D

 44 48  0  0  0  0  0  0  0  0999 V2000
  -10.9870    0.4280   -1.4900 C   0  0  0  0  0  0  0  0  0  0  0  0
   -9.6800    0.8910   -2.0900 C   0  0  0  0  0  0  0  0  0  0  0  0
   -8.5300    0.0480   -1.6420 C   0  0  0  0  0  0  0  0  0  0  0  0
   -7.9810   -0.8890   -2.4860 C   0  0  0  0  0  0  0  0  0  0  0  0
   -6.9310   -1.6920   -2.1390 C   0  0  0  0  0  0  0  0  0  0  0  0
   -6.3870   -1.5640   -0.8800 C   0  0  0  0  0  0  0  0  0  0  0  0
   -5.2420   -2.3860   -0.4310 C   0  0  2  0  0  0  0  0  0  0  0  0
   -5.4990   -2.9230    0.9260 C   0  0  0  0  0  0  0  0  0  0  0  0
   -4.3150   -2.9020    1.8430 C   0  0  0  0  0  0  0  0  0  0  0  0
   -3.0160   -2.9980    1.0990 C   0  0  0  0  0  0  0  0  0  0  0  0
   -2.9360   -1.8090    0.1910 C   0  0  0  0  0  0  0  0  0  0  0  0
   -1.8130   -1.0250    0.0960 C   0  0  0  0  0  0  0  0  0  0  0  0
   -1.7350    0.0620   -0.7310 C   0  0  0  0  0  0  0  0  0  0  0  0
   -0.5990    0.8890   -0.8680 N   0  0  0  0  0  0  0  0  0  0  0  0
    0.6950    0.6860   -0.3610 C   0  0  0  0  0  0  0  0  0  0  0  0
    0.9240   -0.3330    0.2900 O   0  0  0  0  0  0  0  0  0  0  0  0
    1.7600    1.5990   -0.5610 N   0  0  0  0  0  0  0  0  0  0  0  0
    3.0790    1.4960   -0.1060 C   0  0  0  0  0  0  0  0  0  0  0  0
    3.6210    0.4730    0.6290 C   0  0  0  0  0  0  0  0  0  0  0  0
    4.9600    0.4580    1.0410 C   0  0  0  0  0  0  0  0  0  0  0  0
    5.4550   -0.6290    1.7980 N   0  0  0  0  0  0  0  0  0  0  0  0
    6.8400   -0.7360    2.2060 C   0  0  0  0  0  0  0  0  0  0  0  0
    7.6620   -0.7920    0.9820 C   0  0  0  0  0  0  0  0  0  0  0  0
    7.1030   -1.2380   -0.1850 C   0  0  0  0  0  0  0  0  0  0  0  0
    7.8560   -1.2950   -1.3670 C   0  0  0  0  0  0  0  0  0  0  0  0
    7.2900   -1.7400   -2.5140 F   0  0  0  0  0  0  0  0  0  0  0  0
    9.1640   -0.8840   -1.2870 C   0  0  0  0  0  0  0  0  0  0  0  0
    9.7710   -0.4250   -0.1290 C   0  0  0  0  0  0  0  0  0  0  0  0
   11.1460   -0.0140   -0.1570 C   0  0  0  0  0  0  0  0  0  0  0  0
   11.7860   -0.0470   -1.2310 O   0  0  0  0  0  0  0  0  0  0  0  0
   11.7910    0.4290    1.0190 N   0  0  0  0  0  0  0  0  0  0  0  0
   13.1940    0.8440    0.9620 C   0  0  0  0  0  0  0  0  0  0  0  0
    8.9880   -0.3910    0.9950 C   0  0  0  0  0  0  0  0  0  0  0  0
    5.7750    1.5060    0.7000 C   0  0  0  0  0  0  0  0  0  0  0  0
    5.2740    2.5740   -0.0480 C   0  0  0  0  0  0  0  0  0  0  0  0
    3.9530    2.5370   -0.4250 C   0  0  0  0  0  0  0  0  0  0  0  0
    3.4400    3.6940   -1.2250 C   0  0  0  0  0  0  0  0  0  0  0  0
   -2.8830    0.3250   -1.4810 C   0  0  0  0  0  0  0  0  0  0  0  0
   -4.0050   -0.4530   -1.3910 C   0  0  0  0  0  0  0  0  0  0  0  0
   -4.0320   -1.5330   -0.5440 C   0  0  0  0  0  0  0  0  0  0  0  0
   -6.9180   -0.6330   -0.0180 C   0  0  0  0  0  0  0  0  0  0  0  0
   -7.9890    0.1850   -0.3730 C   0  0  0  0  0  0  0  0  0  0  0  0
   -8.5300    1.1750    0.5940 C   0  0  0  0  0  0  0  0  0  0  0  0
   -8.0400    2.5360    0.1950 C   0  0  0  0  0  0  0  0  0  0  0  0
  1  2  1  0
  2  3  1  0
  3  4  2  0
  3 42  1  0
  4  5  1  0
  5  6  2  0
  7  6  1  1
  6 41  1  0
  7  8  1  0
  7 40  1  0
  8  9  1  0
  9 10  1  0
 10 11  1  0
 11 12  2  0
 11 40  1  0
 12 13  1  0
 13 14  1  0
 13 38  2  0
 14 15  1  0
 15 16  2  0
 15 17  1  0
 17 18  1  0
 18 19  2  0
 18 36  1  0
 19 20  1  0
 20 21  1  0
 20 34  2  0
 21 22  1  0
 22 23  1  0
 23 24  2  0
 23 33  1  0
 24 25  1  0
 25 26  1  0
 25 27  2  0
 27 28  1  0
 28 29  1  0
 28 33  2  0
 29 30  2  0
 29 31  1  0
 31 32  1  0
 34 35  1  0
 35 36  2  0
 36 37  1  0
 38 39  1  0
 39 40  2  0
 41 42  2  0
 42 43  1  0
 43 44  1  0
M  END
