
     RDKit          3D

 44 48  0  0  0  0  0  0  0  0999 V2000
  -11.9600   -1.0640   -0.8910 C   0  0  0  0  0  0  0  0  0  0  0  0
  -10.6000   -0.5940   -0.5240 C   0  0  0  0  0  0  0  0  0  0  0  0
   -9.6620   -1.5750   -0.2860 C   0  0  0  0  0  0  0  0  0  0  0  0
   -8.3690   -1.2560    0.0470 C   0  0  0  0  0  0  0  0  0  0  0  0
   -7.4100   -2.3580    0.2410 C   0  0  0  0  0  0  0  0  0  0  0  0
   -8.0180    0.1070    0.1430 C   0  0  0  0  0  0  0  0  0  0  0  0
   -6.6710    0.3800    0.6270 C   0  0  0  0  0  0  0  0  0  0  0  0
   -5.6970    0.9840   -0.1240 N   0  0  0  0  0  0  0  0  0  0  0  0
   -5.4630    1.9640   -0.9880 C   0  0  0  0  0  0  0  0  0  0  0  0
   -4.0080    2.5110   -1.0270 C   0  0  0  0  0  0  0  0  0  0  0  0
   -2.9680    1.4510   -1.1920 C   0  0  0  0  0  0  0  0  0  0  0  0
   -3.4800    0.0810   -0.7340 C   0  0  1  0  0  0  0  0  0  0  0  0
   -2.3950   -0.7760   -0.2160 C   0  0  0  0  0  0  0  0  0  0  0  0
   -2.4400   -1.0290    1.0810 C   0  0  0  0  0  0  0  0  0  0  0  0
   -1.5100   -1.8600    1.8950 C   0  0  0  0  0  0  0  0  0  0  0  0
   -1.9530   -2.1180    3.0240 O   0  0  0  0  0  0  0  0  0  0  0  0
   -0.2470   -2.3310    1.4610 N   0  0  0  0  0  0  0  0  0  0  0  0
    0.5030   -1.8470    0.3340 C   0  0  0  0  0  0  0  0  0  0  0  0
    1.8530   -1.7930    0.5830 C   0  0  0  0  0  0  0  0  0  0  0  0
    2.7320   -1.2870   -0.3870 C   0  0  0  0  0  0  0  0  0  0  0  0
    4.0390   -0.9320    0.2420 C   0  0  0  0  0  0  0  0  0  0  0  0
    4.7540   -1.7600    0.7260 O   0  0  0  0  0  0  0  0  0  0  0  0
    4.3590    0.4660    0.2650 N   0  0  0  0  0  0  0  0  0  0  0  0
    5.3550    1.1820    0.8930 C   0  0  0  0  0  0  0  0  0  0  0  0
    6.7510    1.0860    1.0380 C   0  0  0  0  0  0  0  0  0  0  0  0
    7.8310    0.9940    0.1100 C   0  0  0  0  0  0  0  0  0  0  0  0
    8.7240   -0.0800    0.2800 C   0  0  0  0  0  0  0  0  0  0  0  0
    9.9220   -0.1960   -0.3780 C   0  0  0  0  0  0  0  0  0  0  0  0
   10.8130   -1.3850   -0.1190 C   0  0  2  0  0  0  0  0  0  0  0  0
   10.0160   -2.6510   -0.1960 C   0  0  0  0  0  0  0  0  0  0  0  0
   11.3500   -1.1790    1.3100 C   0  0  0  0  0  0  0  0  0  0  0  0
   10.2470    0.8070   -1.2480 C   0  0  0  0  0  0  0  0  0  0  0  0
    9.3750    1.8740   -1.4350 C   0  0  0  0  0  0  0  0  0  0  0  0
    8.1710    1.9820   -0.7730 C   0  0  0  0  0  0  0  0  0  0  0  0
    7.2740    3.1070   -1.0820 C   0  0  0  0  0  0  0  0  0  0  0  0
    7.1670    4.0350   -0.0720 F   0  0  0  0  0  0  0  0  0  0  0  0
    2.2670   -0.8730   -1.5730 C   0  0  0  0  0  0  0  0  0  0  0  0
    0.8680   -0.9390   -1.8240 C   0  0  0  0  0  0  0  0  0  0  0  0
    0.0090   -1.4160   -0.8650 C   0  0  0  0  0  0  0  0  0  0  0  0
   -1.3930   -1.2150   -1.1870 N   0  0  0  0  0  0  0  0  0  0  0  0
   -4.4110    0.4070    0.4060 C   0  0  0  0  0  0  0  0  0  0  0  0
   -8.9670    1.0970   -0.0930 C   0  0  0  0  0  0  0  0  0  0  0  0
   -8.6920    2.5210    0.1480 C   0  0  0  0  0  0  0  0  0  0  0  0
  -10.2730    0.7190   -0.4330 C   0  0  0  0  0  0  0  0  0  0  0  0
  1  2  1  0
  2  3  2  0
  2 44  1  0
  3  4  1  0
  4  5  1  0
  4  6  2  0
  6  7  1  0
  6 42  1  0
  7  8  1  0
  8  9  1  0
  8 41  1  0
  9 10  1  0
 10 11  1  0
 11 12  1  0
 12 13  1  1
 12 41  1  0
 13 14  2  0
 13 40  1  0
 14 15  1  0
 15 16  2  0
 15 17  1  0
 17 18  1  0
 18 19  2  0
 18 39  1  0
 19 20  1  0
 20 21  1  0
 20 37  2  0
 21 22  2  0
 21 23  1  0
 23 24  1  0
 24 25  1  0
 25 26  1  0
 26 27  2  0
 26 34  1  0
 27 28  1  0
 28 29  1  0
 28 32  2  0
 29 30  1  1
 29 31  1  0
 32 33  1  0
 33 34  2  0
 34 35  1  0
 35 36  1  0
 37 38  1  0
 38 39  2  0
 39 40  1  0
 42 43  1  0
 42 44  2  0
M  END
