
     RDKit          3D

 45 49  0  0  0  0  0  0  0  0999 V2000
   -6.8020    4.0770    0.5230 N   0  0  0  0  0  0  0  0  0  0  0  0
   -5.5250    4.2610   -0.0600 C   0  0  0  0  0  0  0  0  0  0  0  0
   -5.3820    5.1550   -0.9420 O   0  0  0  0  0  0  0  0  0  0  0  0
   -4.3910    3.4390    0.3430 C   0  0  0  0  0  0  0  0  0  0  0  0
   -4.5120    2.4930    1.3340 C   0  0  0  0  0  0  0  0  0  0  0  0
   -3.4230    1.7300    1.6910 C   0  0  0  0  0  0  0  0  0  0  0  0
   -2.1800    1.8680    1.0910 C   0  0  0  0  0  0  0  0  0  0  0  0
   -0.8200    0.8850    1.5780 S   0  0  1  0  0  0  0  0  0  0  0  0
    0.4170    1.7050    1.3380 O   0  0  0  0  0  0  0  0  0  0  0  0
   -1.0020    0.5830    3.0400 O   0  0  0  0  0  0  0  0  0  0  0  0
   -0.7980   -0.5840    0.6860 N   0  0  0  0  0  0  0  0  0  0  0  0
   -1.9590   -1.3350    0.9300 C   0  0  0  0  0  0  0  0  0  0  0  0
   -3.1120   -0.9730    0.0500 C   0  0  0  0  0  0  0  0  0  0  0  0
   -3.0290   -0.2060   -1.0600 C   0  0  0  0  0  0  0  0  0  0  0  0
   -4.1600    0.0620   -1.7980 C   0  0  0  0  0  0  0  0  0  0  0  0
   -5.4010   -0.4420   -1.4260 C   0  0  0  0  0  0  0  0  0  0  0  0
   -5.4880   -1.2150   -0.3060 C   0  0  0  0  0  0  0  0  0  0  0  0
   -4.3420   -1.4720    0.4190 C   0  0  0  0  0  0  0  0  0  0  0  0
    0.4080   -1.3400    0.8830 C   0  0  1  0  0  0  0  0  0  0  0  0
    0.2230   -2.6430    1.6010 C   0  0  0  0  0  0  0  0  0  0  0  0
    0.3310   -3.7130    0.6600 N   0  0  0  0  0  0  0  0  0  0  0  0
    0.5000   -3.1160   -0.6440 C   0  0  0  0  0  0  0  0  0  0  0  0
    1.0660   -1.7070   -0.3920 C   0  0  2  0  0  0  0  0  0  0  0  0
    2.4500   -1.7780   -0.4700 N   0  0  0  0  0  0  0  0  0  0  0  0
    3.2900   -1.6350    0.6460 C   0  0  0  0  0  0  0  0  0  0  0  0
    4.2610   -2.7900    0.6670 C   0  0  0  0  0  0  0  0  0  0  0  0
    4.2880   -3.6590   -0.3960 C   0  0  0  0  0  0  0  0  0  0  0  0
    5.1710   -4.7410   -0.4030 C   0  0  0  0  0  0  0  0  0  0  0  0
    6.0200   -4.9400    0.6610 C   0  0  0  0  0  0  0  0  0  0  0  0
    6.0090   -4.0780    1.7400 C   0  0  0  0  0  0  0  0  0  0  0  0
    5.1200   -3.0120    1.7170 C   0  0  0  0  0  0  0  0  0  0  0  0
    3.1010   -0.9110   -1.7910 S   0  0  1  0  0  0  0  0  0  0  0  0
    4.6190   -1.0000   -1.7030 O   0  0  0  0  0  0  0  0  0  0  0  0
    2.6200   -1.3850   -3.1230 O   0  0  0  0  0  0  0  0  0  0  0  0
    2.7440    0.8150   -1.7030 C   0  0  0  0  0  0  0  0  0  0  0  0
    3.5430    1.7070   -1.0320 C   0  0  0  0  0  0  0  0  0  0  0  0
    3.2450    3.0440   -0.9780 C   0  0  0  0  0  0  0  0  0  0  0  0
    2.1090    3.5480   -1.6080 C   0  0  0  0  0  0  0  0  0  0  0  0
    1.7650    4.9500   -1.5720 C   0  0  0  0  0  0  0  0  0  0  0  0
    2.6250    5.8650   -0.9340 N   0  0  0  0  0  0  0  0  0  0  0  0
    0.7140    5.3500   -2.1020 O   0  0  0  0  0  0  0  0  0  0  0  0
    1.2990    2.6530   -2.2860 C   0  0  0  0  0  0  0  0  0  0  0  0
    1.6150    1.3310   -2.3260 C   0  0  0  0  0  0  0  0  0  0  0  0
   -2.0660    2.8250    0.0920 C   0  0  0  0  0  0  0  0  0  0  0  0
   -3.1580    3.5780   -0.2540 C   0  0  0  0  0  0  0  0  0  0  0  0
  1  2  1  0
  2  3  2  0
  2  4  1  0
  4  5  2  0
  4 45  1  0
  5  6  1  0
  6  7  2  0
  7  8  1  0
  7 44  1  0
  8  9  2  0
  8 10  2  0
  8 11  1  6
 11 12  1  0
 19 11  1  6
 12 13  1  0
 13 14  2  0
 13 18  1  0
 14 15  1  0
 15 16  2  0
 16 17  1  0
 17 18  2  0
 19 20  1  0
 19 23  1  0
 20 21  1  0
 21 22  1  0
 22 23  1  0
 23 24  1  1
 24 25  1  0
 32 24  1  1
 25 26  1  0
 26 27  2  0
 26 31  1  0
 27 28  1  0
 28 29  2  0
 29 30  1  0
 30 31  2  0
 32 33  2  0
 32 34  2  0
 32 35  1  0
 35 36  2  0
 35 43  1  0
 36 37  1  0
 37 38  2  0
 38 39  1  0
 38 42  1  0
 39 40  1  0
 39 41  2  0
 42 43  2  0
 44 45  2  0
M  CHG  1  21   1
M  END
