
     RDKit          3D

 44 48  0  0  0  0  0  0  0  0999 V2000
  -11.9360    2.2580    0.2220 C   0  0  0  0  0  0  0  0  0  0  0  0
  -10.8670    3.1320   -0.4030 C   0  0  0  0  0  0  0  0  0  0  0  0
   -9.8300    2.2490   -1.0370 C   0  0  0  0  0  0  0  0  0  0  0  0
   -9.9410    1.8400   -2.3420 C   0  0  0  0  0  0  0  0  0  0  0  0
   -8.9870    1.0260   -2.9420 C   0  0  0  0  0  0  0  0  0  0  0  0
   -7.9060    0.6410   -2.1520 C   0  0  0  0  0  0  0  0  0  0  0  0
   -7.7370    1.0120   -0.8480 C   0  0  0  0  0  0  0  0  0  0  0  0
   -6.6530    0.6560   -0.0220 N   0  0  0  0  0  0  0  0  0  0  0  0
   -5.4700   -0.0240   -0.3920 C   0  0  0  0  0  0  0  0  0  0  0  0
   -5.3220   -0.3710   -1.5830 O   0  0  0  0  0  0  0  0  0  0  0  0
   -4.4520   -0.3140    0.5750 N   0  0  0  0  0  0  0  0  0  0  0  0
   -3.2570   -1.0030    0.1830 C   0  0  1  0  0  0  0  0  0  0  0  0
   -2.0340   -0.1480    0.4060 C   0  0  0  0  0  0  0  0  0  0  0  0
   -0.9410   -0.6840   -0.4060 N   0  0  0  0  0  0  0  0  0  0  0  0
    0.3330   -0.2250    0.2560 C   0  0  0  0  0  0  0  0  0  0  0  0
    1.4210   -0.5120   -0.6870 C   0  0  0  0  0  0  0  0  0  0  0  0
    1.1250   -1.0180   -1.9550 C   0  0  0  0  0  0  0  0  0  0  0  0
    2.0580   -1.3130   -2.9040 C   0  0  0  0  0  0  0  0  0  0  0  0
    3.3550   -1.0980   -2.5890 C   0  0  0  0  0  0  0  0  0  0  0  0
    3.6930   -0.5970   -1.3500 C   0  0  0  0  0  0  0  0  0  0  0  0
    4.8920   -0.3170   -0.8380 N   0  0  0  0  0  0  0  0  0  0  0  0
    4.8100    0.1510    0.4050 C   0  0  0  0  0  0  0  0  0  0  0  0
    5.7950    0.4830    1.1910 C   0  0  0  0  0  0  0  0  0  0  0  0
    7.1890    0.4550    0.9820 C   0  0  0  0  0  0  0  0  0  0  0  0
    7.9470    0.9300    2.1010 F   0  0  0  0  0  0  0  0  0  0  0  0
    7.9370    0.1130    0.0060 C   0  0  0  0  0  0  0  0  0  0  0  0
    9.4340    0.2040    0.1090 C   0  0  0  0  0  0  0  0  0  0  0  0
   10.0540   -0.2110    1.2330 C   0  0  0  0  0  0  0  0  0  0  0  0
   11.4480   -0.0960    1.2940 C   0  0  0  0  0  0  0  0  0  0  0  0
   12.1410    0.4320    0.2140 C   0  0  0  0  0  0  0  0  0  0  0  0
   11.5080    0.8490   -0.9180 C   0  0  0  0  0  0  0  0  0  0  0  0
   12.1980    1.4200   -2.0990 C   0  0  0  0  0  0  0  0  0  0  0  0
   10.1130    0.7220   -0.9510 C   0  0  0  0  0  0  0  0  0  0  0  0
    3.3990    0.1890    0.7500 C   0  0  0  0  0  0  0  0  0  0  0  0
    2.9530    0.6800    1.8510 C   0  0  0  0  0  0  0  0  0  0  0  0
    1.7000    0.8830    2.5270 C   0  0  0  0  0  0  0  0  0  0  0  0
    3.9930    1.2360    2.7450 O   0  0  0  0  0  0  0  0  0  0  0  0
    2.7610   -0.2900   -0.3720 C   0  0  0  0  0  0  0  0  0  0  0  0
   -0.9590   -2.1430   -0.2940 C   0  0  0  0  0  0  0  0  0  0  0  0
   -1.5860   -2.6320    0.9990 C   0  0  0  0  0  0  0  0  0  0  0  0
   -3.0720   -2.2890    0.9970 C   0  0  1  0  0  0  0  0  0  0  0  0
   -3.4730   -2.0040    2.4180 C   0  0  0  0  0  0  0  0  0  0  0  0
   -3.9390   -3.3660    0.4310 C   0  0  0  0  0  0  0  0  0  0  0  0
   -8.7340    1.8270   -0.3200 C   0  0  0  0  0  0  0  0  0  0  0  0
  1  2  1  0
  2  3  1  0
  3  4  2  0
  3 44  1  0
  4  5  1  0
  5  6  2  0
  6  7  1  0
  7  8  1  0
  7 44  2  0
  8  9  1  0
  9 10  2  0
  9 11  1  0
 12 11  1  1
 12 13  1  0
 12 41  1  0
 13 14  1  0
 14 15  1  0
 14 39  1  0
 15 16  1  0
 16 17  2  0
 16 38  1  0
 17 18  1  0
 18 19  2  0
 19 20  1  0
 20 21  1  0
 20 38  2  0
 21 22  1  0
 22 23  2  3
 22 34  1  0
 23 24  1  0
 24 25  1  0
 24 26  2  3
 26 27  1  0
 27 28  2  0
 27 33  1  0
 28 29  1  0
 29 30  2  0
 30 31  1  0
 31 32  1  0
 31 33  2  0
 34 35  2  3
 34 38  1  0
 35 36  1  0
 35 37  1  0
 39 40  1  0
 40 41  1  0
 41 42  1  1
 41 43  1  0
M  END
