
     RDKit          3D

 44 48  0  0  0  0  0  0  0  0999 V2000
    9.9540    3.3780   -2.3500 C   0  0  0  0  0  0  0  0  0  0  0  0
    9.0940    3.3380   -1.1300 C   0  0  0  0  0  0  0  0  0  0  0  0
    8.3890    4.4350   -0.6880 C   0  0  0  0  0  0  0  0  0  0  0  0
    7.5980    4.3610    0.4560 C   0  0  0  0  0  0  0  0  0  0  0  0
    7.4920    3.1840    1.1910 C   0  0  0  0  0  0  0  0  0  0  0  0
    8.1910    2.0880    0.7570 C   0  0  0  0  0  0  0  0  0  0  0  0
    8.1390    0.8020    1.4640 C   0  0  0  0  0  0  0  0  0  0  0  0
    7.1830   -0.1350    0.9780 N   0  0  0  0  0  0  0  0  0  0  0  0
    5.8240   -0.0290    1.2980 C   0  0  0  0  0  0  0  0  0  0  0  0
    5.4070    0.8950    2.0330 O   0  0  0  0  0  0  0  0  0  0  0  0
    4.8330   -0.9480    0.8220 N   0  0  0  0  0  0  0  0  0  0  0  0
    3.4350   -0.8440    1.1710 C   0  0  0  0  0  0  0  0  0  0  0  0
    2.6980   -1.9720    0.4820 C   0  0  2  0  0  0  0  0  0  0  0  0
    1.2600   -1.9190    0.8280 N   0  0  0  0  0  0  0  0  0  0  0  0
    0.2760   -1.6570   -0.1170 C   0  0  0  0  0  0  0  0  0  0  0  0
    0.7220   -1.4590   -1.3140 O   0  0  0  0  0  0  0  0  0  0  0  0
   -1.1570   -1.5910    0.1300 C   0  0  0  0  0  0  0  0  0  0  0  0
   -1.8280   -1.8560    1.2960 C   0  0  0  0  0  0  0  0  0  0  0  0
   -1.2860   -2.2790    2.6190 C   0  0  0  0  0  0  0  0  0  0  0  0
   -3.1570   -1.6620    1.0330 N   0  0  0  0  0  0  0  0  0  0  0  0
   -3.3600   -1.2940   -0.2210 C   0  0  0  0  0  0  0  0  0  0  0  0
   -2.1280   -1.2410   -0.8080 C   0  0  0  0  0  0  0  0  0  0  0  0
   -1.9380   -0.8440   -2.2260 C   0  0  0  0  0  0  0  0  0  0  0  0
   -2.9710    0.0960   -2.7070 C   0  0  0  0  0  0  0  0  0  0  0  0
   -4.2590    0.0870   -1.9730 C   0  0  0  0  0  0  0  0  0  0  0  0
   -5.1250    1.0990   -2.1550 C   0  0  0  0  0  0  0  0  0  0  0  0
   -6.4020    1.2200   -1.5230 C   0  0  0  0  0  0  0  0  0  0  0  0
   -6.7010    2.4190   -0.8620 C   0  0  0  0  0  0  0  0  0  0  0  0
   -7.9270    2.6190   -0.2640 C   0  0  0  0  0  0  0  0  0  0  0  0
   -8.9050    1.6660   -0.2850 C   0  0  0  0  0  0  0  0  0  0  0  0
  -10.2320    1.8730    0.3550 C   0  0  2  0  0  0  0  0  0  0  0  0
  -10.9170    3.1160   -0.1740 C   0  0  0  0  0  0  0  0  0  0  0  0
  -10.0800    2.0290    1.8530 C   0  0  0  0  0  0  0  0  0  0  0  0
   -8.6360    0.4890   -0.9240 C   0  0  0  0  0  0  0  0  0  0  0  0
   -7.4010    0.2780   -1.5310 C   0  0  0  0  0  0  0  0  0  0  0  0
   -7.2040   -0.8900   -2.1750 F   0  0  0  0  0  0  0  0  0  0  0  0
   -4.5970   -0.9810   -1.0310 C   0  0  0  0  0  0  0  0  0  0  0  0
    3.2800   -3.3010    0.7720 C   0  0  0  0  0  0  0  0  0  0  0  0
    4.0560   -3.9360   -0.1980 C   0  0  0  0  0  0  0  0  0  0  0  0
    4.6150   -5.1610    0.0450 C   0  0  0  0  0  0  0  0  0  0  0  0
    4.4450   -5.8240    1.2400 C   0  0  0  0  0  0  0  0  0  0  0  0
    3.6760   -5.1890    2.1950 C   0  0  0  0  0  0  0  0  0  0  0  0
    3.1050   -3.9560    1.9670 C   0  0  0  0  0  0  0  0  0  0  0  0
    8.9810    2.1810   -0.3970 C   0  0  0  0  0  0  0  0  0  0  0  0
  1  2  1  0
  2  3  2  0
  2 44  1  0
  3  4  1  0
  4  5  2  0
  5  6  1  0
  6  7  1  0
  6 44  2  0
  7  8  1  0
  8  9  1  0
  9 10  2  0
  9 11  1  0
 11 12  1  0
 13 12  1  1
 13 14  1  0
 13 38  1  0
 14 15  1  0
 15 16  2  0
 15 17  1  0
 17 18  2  0
 17 22  1  0
 18 19  1  0
 18 20  1  0
 20 21  1  0
 21 22  2  0
 21 37  1  0
 22 23  1  0
 23 24  1  0
 24 25  1  0
 25 26  2  3
 25 37  1  0
 26 27  1  0
 27 28  2  0
 27 35  1  0
 28 29  1  0
 29 30  2  0
 30 31  1  0
 30 34  1  0
 31 32  1  6
 31 33  1  0
 34 35  2  0
 35 36  1  0
 38 39  2  0
 38 43  1  0
 39 40  1  0
 40 41  2  0
 41 42  1  0
 42 43  2  0
M  END
