
     RDKit          3D

 41 45  0  0  0  0  0  0  0  0999 V2000
   -4.8090    0.1890    3.7540 C   0  0  0  0  0  0  0  0  0  0  0  0
   -5.4870   -0.5990    2.8000 N   0  0  0  0  0  0  0  0  0  0  0  0
   -6.7780   -1.0680    3.0930 C   0  0  0  0  0  0  0  0  0  0  0  0
   -7.8270   -0.1540    2.6410 N   0  0  0  0  0  0  0  0  0  0  0  0
   -7.3720    0.5550    1.4470 C   0  0  0  0  0  0  0  0  0  0  0  0
   -6.8710   -0.4460    0.4690 C   0  0  0  0  0  0  0  0  0  0  0  0
   -5.4230   -0.5120    0.3630 N   0  0  0  0  0  0  0  0  0  0  0  0
   -4.8710    0.7580   -0.0540 C   0  0  0  0  0  0  0  0  0  0  0  0
   -3.4620    0.5610   -0.4770 C   0  0  0  0  0  0  0  0  0  0  0  0
   -2.8260   -0.6460   -0.5560 C   0  0  0  0  0  0  0  0  0  0  0  0
   -1.5000   -0.7600   -1.0040 C   0  0  0  0  0  0  0  0  0  0  0  0
   -0.7570    0.3190   -1.3910 C   0  0  0  0  0  0  0  0  0  0  0  0
    0.5360    0.1890   -1.8800 N   0  0  0  0  0  0  0  0  0  0  0  0
    1.3910   -0.9380   -1.8460 C   0  0  0  0  0  0  0  0  0  0  0  0
    0.9730   -1.9930   -1.2890 O   0  0  0  0  0  0  0  0  0  0  0  0
    2.7240   -0.8970   -2.4350 C   0  0  0  0  0  0  0  0  0  0  0  0
    2.8570   -0.8540   -3.8010 C   0  0  0  0  0  0  0  0  0  0  0  0
    4.0930   -0.8320   -4.4090 C   0  0  0  0  0  0  0  0  0  0  0  0
    5.2170   -0.8520   -3.6050 C   0  0  0  0  0  0  0  0  0  0  0  0
    6.4950   -0.8490   -4.2080 C   0  0  0  0  0  0  0  0  0  0  0  0
    7.5750   -0.8480   -4.6950 N   0  0  0  0  0  0  0  0  0  0  0  0
    5.1440   -0.8940   -2.2000 C   0  0  0  0  0  0  0  0  0  0  0  0
    6.3560   -0.9090   -1.4810 N   0  0  0  0  0  0  0  0  0  0  0  0
    6.5440   -0.8930   -0.0890 C   0  0  0  0  0  0  0  0  0  0  0  0
    5.5070   -0.8600    0.6390 O   0  0  0  0  0  0  0  0  0  0  0  0
    7.8320   -0.9090    0.5830 C   0  0  0  0  0  0  0  0  0  0  0  0
    7.9370   -0.9220    1.9540 C   0  0  0  0  0  0  0  0  0  0  0  0
    9.1630   -0.9270    2.5990 C   0  0  0  0  0  0  0  0  0  0  0  0
    9.2470   -0.9390    3.9610 F   0  0  0  0  0  0  0  0  0  0  0  0
   10.3300   -0.9180    1.8550 C   0  0  0  0  0  0  0  0  0  0  0  0
   10.2460   -0.9050    0.4740 C   0  0  0  0  0  0  0  0  0  0  0  0
   11.3930   -0.8950   -0.2460 F   0  0  0  0  0  0  0  0  0  0  0  0
    8.9930   -0.9010   -0.1340 C   0  0  0  0  0  0  0  0  0  0  0  0
    3.8770   -0.9160   -1.6650 C   0  0  0  0  0  0  0  0  0  0  0  0
   -1.3970    1.5690   -1.3170 C   0  0  0  0  0  0  0  0  0  0  0  0
   -0.7330    2.7290   -1.6800 C   0  0  0  0  0  0  0  0  0  0  0  0
   -1.3550    3.9600   -1.6070 C   0  0  0  0  0  0  0  0  0  0  0  0
   -2.6330    4.0530   -1.1740 C   0  0  0  0  0  0  0  0  0  0  0  0
   -3.3050    2.9010   -0.8070 C   0  0  0  0  0  0  0  0  0  0  0  0
   -2.6940    1.6680   -0.8770 C   0  0  0  0  0  0  0  0  0  0  0  0
   -4.8360   -0.9590    1.6140 C   0  0  0  0  0  0  0  0  0  0  0  0
  1  2  1  0
  2  3  1  0
  2 41  1  0
  3  4  1  0
  4  5  1  0
  5  6  1  0
  6  7  1  0
  7  8  1  0
  7 41  1  0
  8  9  1  0
  9 10  2  0
  9 40  1  0
 10 11  1  0
 11 12  2  0
 12 13  1  0
 12 35  1  0
 13 14  1  0
 14 15  2  0
 14 16  1  0
 16 17  2  0
 16 34  1  0
 17 18  1  0
 18 19  2  0
 19 20  1  0
 19 22  1  0
 20 21  3  0
 22 23  1  0
 22 34  2  0
 23 24  1  0
 24 25  2  0
 24 26  1  0
 26 27  2  0
 26 33  1  0
 27 28  1  0
 28 29  1  0
 28 30  2  0
 30 31  1  0
 31 32  1  0
 31 33  2  0
 35 36  2  0
 35 40  1  0
 36 37  1  0
 37 38  2  0
 38 39  1  0
 39 40  2  0
M  CHG  1   4   1
M  END
