
     RDKit          3D

 40 44  0  0  0  0  0  0  0  0999 V2000
   -2.0630    3.2580    0.5100 C   0  0  0  0  0  0  0  0  0  0  0  0
   -2.9080    3.2100   -0.7330 C   0  0  0  0  0  0  0  0  0  0  0  0
   -2.8560    1.8980   -1.3710 N   0  0  2  0  0  0  0  0  0  0  0  0
   -3.7310    1.9630   -2.5210 C   0  0  0  0  0  0  0  0  0  0  0  0
   -3.7870    0.5830   -3.1520 C   0  0  0  0  0  0  0  0  0  0  0  0
   -4.5590   -0.2740   -2.1770 C   0  0  0  0  0  0  0  0  0  0  0  0
   -3.6540   -0.4090   -0.9370 C   0  0  2  0  0  0  0  0  0  0  0  0
   -2.6030   -1.3610   -1.3380 C   0  0  0  0  0  0  0  0  0  0  0  0
   -2.9070   -2.5090   -1.8230 O   0  0  0  0  0  0  0  0  0  0  0  0
   -1.1890   -1.1060   -1.2260 N   0  0  0  0  0  0  0  0  0  0  0  0
   -0.2890   -2.1210   -1.6740 C   0  0  0  0  0  0  0  0  0  0  0  0
    1.1320   -1.8520   -1.4820 C   0  0  0  0  0  0  0  0  0  0  0  0
    1.9280   -2.7460   -1.9140 O   0  0  0  0  0  0  0  0  0  0  0  0
    1.6730   -0.7170   -0.8700 N   0  0  0  0  0  0  0  0  0  0  0  0
    3.0540   -0.4130   -0.6490 C   0  0  0  0  0  0  0  0  0  0  0  0
    4.0730   -1.2260   -1.0530 C   0  0  0  0  0  0  0  0  0  0  0  0
    5.4130   -0.9190   -0.7890 C   0  0  0  0  0  0  0  0  0  0  0  0
    5.7380    0.2240   -0.1080 C   0  0  0  0  0  0  0  0  0  0  0  0
    4.7080    1.0660    0.3110 C   0  0  0  0  0  0  0  0  0  0  0  0
    3.3930    0.7560    0.0450 C   0  0  0  0  0  0  0  0  0  0  0  0
    2.3170    1.6720    0.4490 C   0  0  0  0  0  0  0  0  0  0  0  0
    5.0610    2.2940    1.0600 C   0  0  0  0  0  0  0  0  0  0  0  0
    6.3420    2.1210    1.8350 C   0  0  0  0  0  0  0  0  0  0  0  0
    7.3750    1.7380    0.9250 N   0  0  0  0  0  0  0  0  0  0  0  0
    8.4940    2.4360    0.7520 F   0  0  0  0  0  0  0  0  0  0  0  0
    7.1440    0.5240    0.1810 C   0  0  0  0  0  0  0  0  0  0  0  0
    8.1510   -0.2230   -0.2000 C   0  0  0  0  0  0  0  0  0  0  0  0
    9.4850    0.1790    0.1470 N   0  0  0  0  0  0  0  0  0  0  0  0
   10.5420    0.4050   -0.7930 C   0  0  0  0  0  0  0  0  0  0  0  0
   -4.5820   -1.0220    0.0560 N   0  0  0  0  0  0  0  0  0  0  0  0
   -5.6950   -0.2460    0.4110 C   0  0  0  0  0  0  0  0  0  0  0  0
   -6.5340   -0.6270    1.3550 C   0  0  0  0  0  0  0  0  0  0  0  0
   -6.3230   -1.8860    2.0610 C   0  0  0  0  0  0  0  0  0  0  0  0
   -7.1790   -2.2830    3.0930 C   0  0  0  0  0  0  0  0  0  0  0  0
   -6.9700   -3.4490    3.7940 C   0  0  0  0  0  0  0  0  0  0  0  0
   -5.8780   -4.2090    3.4340 C   0  0  0  0  0  0  0  0  0  0  0  0
   -5.0260   -3.8330    2.4180 C   0  0  0  0  0  0  0  0  0  0  0  0
   -5.2520   -2.6430    1.7140 C   0  0  0  0  0  0  0  0  0  0  0  0
   -4.3330   -2.3010    0.6030 C   0  0  0  0  0  0  0  0  0  0  0  0
   -3.2150    0.8910   -0.4110 C   0  0  0  0  0  0  0  0  0  0  0  0
  1  2  1  0
  3  2  1  1
  3  4  1  0
  3 40  1  0
  4  5  1  0
  5  6  1  0
  6  7  1  0
  7  8  1  0
  7 30  1  1
  7 40  1  0
  8  9  2  0
  8 10  1  0
 10 11  1  0
 11 12  1  0
 12 13  2  0
 12 14  1  0
 14 15  1  0
 15 16  2  0
 15 20  1  0
 16 17  1  0
 17 18  2  0
 18 19  1  0
 18 26  1  0
 19 20  2  0
 19 22  1  0
 20 21  1  0
 22 23  1  0
 23 24  1  0
 24 25  1  0
 24 26  1  0
 26 27  2  3
 27 28  1  0
 28 29  1  0
 30 31  1  0
 30 39  1  0
 31 32  2  0
 32 33  1  0
 33 34  2  0
 33 38  1  0
 34 35  1  0
 35 36  2  0
 36 37  1  0
 37 38  2  0
 38 39  1  0
M  CHG  1   3   1
M  END
