
     RDKit          3D

 41 45  0  0  0  0  0  0  0  0999 V2000
   -0.7390   -4.1880    2.1160 C   0  0  0  0  0  0  0  0  0  0  0  0
   -1.0410   -2.9940    1.5840 O   0  0  0  0  0  0  0  0  0  0  0  0
   -0.5150   -1.8960    1.0660 C   0  0  0  0  0  0  0  0  0  0  0  0
    0.8100   -1.6580    0.9050 C   0  0  0  0  0  0  0  0  0  0  0  0
    1.3160   -0.4490    0.3550 C   0  0  0  0  0  0  0  0  0  0  0  0
    2.6650   -0.4200   -0.0530 C   0  0  0  0  0  0  0  0  0  0  0  0
    2.8180   -0.2410   -1.3530 O   0  0  0  0  0  0  0  0  0  0  0  0
    3.9140   -0.5690    0.6290 N   0  0  0  0  0  0  0  0  0  0  0  0
    5.0220   -0.5800   -0.3270 C   0  0  0  0  0  0  0  0  0  0  0  0
    5.1290   -1.8010   -1.0340 C   0  0  0  0  0  0  0  0  0  0  0  0
    4.3800   -2.9570   -0.4830 C   0  0  0  0  0  0  0  0  0  0  0  0
    5.9850   -1.9190   -2.0830 C   0  0  0  0  0  0  0  0  0  0  0  0
    6.7750   -0.8660   -2.4920 C   0  0  0  0  0  0  0  0  0  0  0  0
    6.6800    0.3520   -1.7820 C   0  0  0  0  0  0  0  0  0  0  0  0
    5.8020    0.4380   -0.7160 C   0  0  0  0  0  0  0  0  0  0  0  0
    5.7110    1.6860    0.1070 C   0  0  0  0  0  0  0  0  0  0  0  0
    6.9570    1.9310    0.7500 N   0  0  1  0  0  0  0  0  0  0  0  0
    7.0910    0.6310    1.5700 C   0  0  0  0  0  0  0  0  0  0  0  0
    8.1990    2.0860    0.1770 C   0  0  0  0  0  0  0  0  0  0  0  0
    0.4050    0.5100   -0.0110 C   0  0  0  0  0  0  0  0  0  0  0  0
   -0.9570    0.3170    0.1290 C   0  0  0  0  0  0  0  0  0  0  0  0
   -1.3710   -0.8660    0.6520 C   0  0  0  0  0  0  0  0  0  0  0  0
   -2.7820   -1.1560    0.7120 N   0  0  0  0  0  0  0  0  0  0  0  0
   -3.6410   -0.2760    0.3110 C   0  0  0  0  0  0  0  0  0  0  0  0
   -5.0600   -0.5450    0.2920 C   0  0  0  0  0  0  0  0  0  0  0  0
   -6.0450   -0.1650    1.1160 C   0  0  0  0  0  0  0  0  0  0  0  0
   -7.3210   -0.4920    0.8510 N   0  0  0  0  0  0  0  0  0  0  0  0
   -7.6860   -1.1950   -0.2150 C   0  0  0  0  0  0  0  0  0  0  0  0
   -9.0340   -1.5270   -0.5520 N   0  0  0  0  0  0  0  0  0  0  0  0
   -6.7010   -1.6190   -1.0920 C   0  0  0  0  0  0  0  0  0  0  0  0
   -7.0440   -2.3560   -2.1840 F   0  0  0  0  0  0  0  0  0  0  0  0
   -5.4210   -1.3090   -0.8530 C   0  0  0  0  0  0  0  0  0  0  0  0
   -3.2000    1.1110    0.1740 N   0  0  0  0  0  0  0  0  0  0  0  0
   -4.0660    2.0840    0.7510 C   0  0  0  0  0  0  0  0  0  0  0  0
   -5.3150    2.4450    0.1350 C   0  0  0  0  0  0  0  0  0  0  0  0
   -5.7940    2.2630   -1.0680 C   0  0  0  0  0  0  0  0  0  0  0  0
   -7.1690    2.8340   -1.1880 C   0  0  0  0  0  0  0  0  0  0  0  0
   -7.4440    3.3110    0.1790 C   0  0  0  0  0  0  0  0  0  0  0  0
   -6.3960    3.1020    0.9160 C   0  0  0  0  0  0  0  0  0  0  0  0
   -6.3080    3.4180    2.2240 F   0  0  0  0  0  0  0  0  0  0  0  0
   -1.8990    1.3580   -0.4180 C   0  0  0  0  0  0  0  0  0  0  0  0
  1  2  1  0
  2  3  1  0
  3  4  2  0
  3 22  1  0
  4  5  1  0
  5  6  1  0
  5 20  2  0
  6  7  2  0
  6  8  1  0
  8  9  1  0
  9 10  2  0
  9 15  1  0
 10 11  1  0
 10 12  1  0
 12 13  2  0
 13 14  1  0
 14 15  2  0
 15 16  1  0
 16 17  1  0
 17 18  1  1
 17 19  1  0
 20 21  1  0
 21 22  2  0
 21 41  1  0
 22 23  1  0
 23 24  2  0
 24 25  1  0
 24 33  1  0
 25 26  2  0
 25 32  1  0
 26 27  1  0
 27 28  2  0
 28 29  1  0
 28 30  1  0
 30 31  1  0
 30 32  2  0
 33 34  1  0
 33 41  1  0
 34 35  1  0
 35 36  2  0
 35 39  1  0
 36 37  1  0
 37 38  1  0
 38 39  2  0
 39 40  1  0
M  CHG  1  17   1
M  END
