
     RDKit          3D

 41 45  0  0  0  0  0  0  0  0999 V2000
    6.4980    4.2100    1.2980 N   0  0  0  0  0  0  0  0  0  0  0  0
    5.4350    3.4370    0.7430 C   0  0  0  0  0  0  0  0  0  0  0  0
    5.7260    2.2640    0.0860 C   0  0  0  0  0  0  0  0  0  0  0  0
    4.7020    1.5140   -0.4520 C   0  0  0  0  0  0  0  0  0  0  0  0
    3.3710    1.8800   -0.3680 C   0  0  0  0  0  0  0  0  0  0  0  0
    2.0760    0.9480   -1.0580 S   0  0  2  0  0  0  0  0  0  0  0  0
    2.6940    0.3040   -2.3100 O   0  0  0  0  0  0  0  0  0  0  0  0
    1.0220    1.8720   -1.6690 O   0  0  0  0  0  0  0  0  0  0  0  0
    1.4480   -0.2810   -0.1460 N   0  0  0  0  0  0  0  0  0  0  0  0
    2.4470   -1.2750    0.1510 C   0  0  0  0  0  0  0  0  0  0  0  0
    2.4990   -2.3560   -0.8550 C   0  0  0  0  0  0  0  0  0  0  0  0
    1.5870   -2.4020   -1.8610 C   0  0  0  0  0  0  0  0  0  0  0  0
    1.6420   -3.4180   -2.8020 C   0  0  0  0  0  0  0  0  0  0  0  0
    2.6200   -4.3870   -2.7260 C   0  0  0  0  0  0  0  0  0  0  0  0
    3.5440   -4.3310   -1.6990 C   0  0  0  0  0  0  0  0  0  0  0  0
    3.4810   -3.3150   -0.7660 C   0  0  0  0  0  0  0  0  0  0  0  0
    0.5290   -0.1440    0.8670 C   0  0  1  0  0  0  0  0  0  0  0  0
    0.9470    0.5890    2.1260 C   0  0  0  0  0  0  0  0  0  0  0  0
   -0.3140    0.7390    2.8790 N   0  0  0  0  0  0  0  0  0  0  0  0
   -1.1910    1.1730    1.8090 C   0  0  0  0  0  0  0  0  0  0  0  0
   -0.8330    0.4130    0.5660 C   0  0  2  0  0  0  0  0  0  0  0  0
   -1.7800   -0.5370    0.1220 N   0  0  0  0  0  0  0  0  0  0  0  0
   -2.7280   -1.0580    1.0180 C   0  0  0  0  0  0  0  0  0  0  0  0
   -2.7730   -2.5540    0.8440 C   0  0  0  0  0  0  0  0  0  0  0  0
   -1.9220   -3.1530   -0.0460 C   0  0  0  0  0  0  0  0  0  0  0  0
   -1.9040   -4.5110   -0.2600 C   0  0  0  0  0  0  0  0  0  0  0  0
   -2.7770   -5.2870    0.4520 C   0  0  0  0  0  0  0  0  0  0  0  0
   -3.6380   -4.6890    1.3520 C   0  0  0  0  0  0  0  0  0  0  0  0
   -3.6550   -3.3280    1.5660 C   0  0  0  0  0  0  0  0  0  0  0  0
   -2.4330   -0.1490   -1.3960 S   0  0  2  0  0  0  0  0  0  0  0  0
   -3.3320   -1.3070   -1.8140 O   0  0  0  0  0  0  0  0  0  0  0  0
   -1.3720   -0.0720   -2.4770 O   0  0  0  0  0  0  0  0  0  0  0  0
   -3.2940    1.3550   -1.4310 C   0  0  0  0  0  0  0  0  0  0  0  0
   -4.6380    1.3760   -1.1370 C   0  0  0  0  0  0  0  0  0  0  0  0
   -5.3700    2.5630   -1.1540 C   0  0  0  0  0  0  0  0  0  0  0  0
   -4.7520    3.7370   -1.4680 C   0  0  0  0  0  0  0  0  0  0  0  0
   -5.5050    4.9690   -1.4860 N   0  0  0  0  0  0  0  0  0  0  0  0
   -3.4060    3.7220   -1.7630 C   0  0  0  0  0  0  0  0  0  0  0  0
   -2.6830    2.5470   -1.7460 C   0  0  0  0  0  0  0  0  0  0  0  0
    3.0950    3.0540    0.2920 C   0  0  0  0  0  0  0  0  0  0  0  0
    4.1170    3.8160    0.8370 C   0  0  0  0  0  0  0  0  0  0  0  0
  1  2  1  0
  2  3  2  0
  2 41  1  0
  3  4  1  0
  4  5  2  0
  5  6  1  0
  5 40  1  0
  6  7  2  0
  6  8  2  0
  6  9  1  1
  9 10  1  0
 17  9  1  6
 10 11  1  0
 11 12  2  0
 11 16  1  0
 12 13  1  0
 13 14  2  0
 14 15  1  0
 15 16  2  0
 17 18  1  0
 17 21  1  0
 18 19  1  0
 19 20  1  0
 20 21  1  0
 21 22  1  1
 22 23  1  0
 30 22  1  1
 23 24  1  0
 24 25  2  0
 24 29  1  0
 25 26  1  0
 26 27  2  0
 27 28  1  0
 28 29  2  0
 30 31  2  0
 30 32  2  0
 30 33  1  0
 33 34  2  0
 33 39  1  0
 34 35  1  0
 35 36  2  0
 36 37  1  0
 36 38  1  0
 38 39  2  0
 40 41  2  0
M  CHG  1  19   1
M  END
