
     RDKit          3D

 41 45  0  0  0  0  0  0  0  0999 V2000
    0.0960    0.9390    3.9840 C   0  0  0  0  0  0  0  0  0  0  0  0
   -0.8560    1.0070    2.9250 O   0  0  0  0  0  0  0  0  0  0  0  0
   -0.4760    0.5030    1.6880 C   0  0  0  0  0  0  0  0  0  0  0  0
    0.7650   -0.0450    1.4670 C   0  0  0  0  0  0  0  0  0  0  0  0
    1.1570   -0.5490    0.2490 C   0  0  0  0  0  0  0  0  0  0  0  0
    2.5050   -1.1200    0.0340 C   0  0  0  0  0  0  0  0  0  0  0  0
    2.7530   -1.7650   -1.0170 O   0  0  0  0  0  0  0  0  0  0  0  0
    3.5630   -0.9770    0.9660 N   0  0  0  0  0  0  0  0  0  0  0  0
    4.8740   -1.5410    0.7320 C   0  0  0  0  0  0  0  0  0  0  0  0
    5.1360   -2.8100    1.1870 C   0  0  0  0  0  0  0  0  0  0  0  0
    4.0970   -3.6210    1.9100 C   0  0  0  0  0  0  0  0  0  0  0  0
    6.4030   -3.3380    0.9580 C   0  0  0  0  0  0  0  0  0  0  0  0
    7.3540   -2.5790    0.2880 C   0  0  0  0  0  0  0  0  0  0  0  0
    7.0670   -1.2960   -0.1630 C   0  0  0  0  0  0  0  0  0  0  0  0
    5.8250   -0.8000    0.0700 C   0  0  0  0  0  0  0  0  0  0  0  0
    5.4200    0.5570   -0.3780 C   0  0  0  0  0  0  0  0  0  0  0  0
    6.4870    1.2490   -1.0620 N   0  0  1  0  0  0  0  0  0  0  0  0
    5.9640    2.4410   -1.7500 C   0  0  0  0  0  0  0  0  0  0  0  0
    7.5310    1.6820   -0.1880 C   0  0  0  0  0  0  0  0  0  0  0  0
    0.2490   -0.4930   -0.7850 C   0  0  0  0  0  0  0  0  0  0  0  0
   -1.0260    0.0520   -0.6260 C   0  0  0  0  0  0  0  0  0  0  0  0
   -1.3590    0.5350    0.6030 C   0  0  0  0  0  0  0  0  0  0  0  0
   -2.6320    1.0620    0.8320 N   0  0  0  0  0  0  0  0  0  0  0  0
   -3.5230    1.1040   -0.0910 C   0  0  0  0  0  0  0  0  0  0  0  0
   -4.8350    1.6830    0.2310 C   0  0  0  0  0  0  0  0  0  0  0  0
   -5.3850    2.6980   -0.5130 C   0  0  0  0  0  0  0  0  0  0  0  0
   -6.5960    3.1770   -0.1830 N   0  0  0  0  0  0  0  0  0  0  0  0
   -7.3140    2.7240    0.8400 C   0  0  0  0  0  0  0  0  0  0  0  0
   -8.5940    3.2680    1.1480 N   0  0  0  0  0  0  0  0  0  0  0  0
   -6.8080    1.7090    1.6170 C   0  0  0  0  0  0  0  0  0  0  0  0
   -7.4920    1.2060    2.6750 F   0  0  0  0  0  0  0  0  0  0  0  0
   -5.5680    1.2020    1.2970 C   0  0  0  0  0  0  0  0  0  0  0  0
   -3.2650    0.5220   -1.3610 N   0  0  0  0  0  0  0  0  0  0  0  0
   -4.3650    0.2770   -2.3120 C   0  0  0  0  0  0  0  0  0  0  0  0
   -5.2860   -0.7760   -1.7930 C   0  0  0  0  0  0  0  0  0  0  0  0
   -6.5920   -0.5660   -1.5540 C   0  0  0  0  0  0  0  0  0  0  0  0
   -7.2320   -1.7870   -1.0520 C   0  0  0  0  0  0  0  0  0  0  0  0
   -6.1310   -2.7540   -1.0250 C   0  0  0  0  0  0  0  0  0  0  0  0
   -5.0220   -2.1620   -1.4530 C   0  0  0  0  0  0  0  0  0  0  0  0
   -3.8050   -2.7600   -1.5610 F   0  0  0  0  0  0  0  0  0  0  0  0
   -1.9560    0.1320   -1.7730 C   0  0  0  0  0  0  0  0  0  0  0  0
  1  2  1  0
  2  3  1  0
  3  4  2  0
  3 22  1  0
  4  5  1  0
  5  6  1  0
  5 20  2  0
  6  7  2  0
  6  8  1  0
  8  9  1  0
  9 10  2  0
  9 15  1  0
 10 11  1  0
 10 12  1  0
 12 13  2  0
 13 14  1  0
 14 15  2  0
 15 16  1  0
 16 17  1  0
 17 18  1  1
 17 19  1  0
 20 21  1  0
 21 22  2  0
 21 41  1  0
 22 23  1  0
 23 24  2  0
 24 25  1  0
 24 33  1  0
 25 26  2  0
 25 32  1  0
 26 27  1  0
 27 28  2  0
 28 29  1  0
 28 30  1  0
 30 31  1  0
 30 32  2  0
 33 34  1  0
 33 41  1  0
 34 35  1  0
 35 36  2  0
 35 39  1  0
 36 37  1  0
 37 38  1  0
 38 39  2  0
 39 40  1  0
M  CHG  1  17   1
M  END
