
     RDKit          3D

 41 46  0  0  0  0  0  0  0  0999 V2000
   -5.4350   -3.5730    1.5280 C   0  0  0  0  0  0  0  0  0  0  0  0
   -5.3380   -2.3500    0.8490 O   0  0  0  0  0  0  0  0  0  0  0  0
   -4.8150   -2.5670   -0.4030 C   0  0  0  0  0  0  0  0  0  0  0  0
   -4.6700   -1.3120   -1.2290 C   0  0  1  0  0  0  0  0  0  0  0  0
   -6.0160   -0.6330   -1.4440 C   0  0  0  0  0  0  0  0  0  0  0  0
   -5.8400    0.6970   -0.7610 C   0  0  1  0  0  0  0  0  0  0  0  0
   -7.0480    1.2900   -0.2140 C   0  0  0  0  0  0  0  0  0  0  0  0
   -8.3160    0.7540   -0.3620 C   0  0  0  0  0  0  0  0  0  0  0  0
   -9.4210    1.3760    0.1760 C   0  0  0  0  0  0  0  0  0  0  0  0
   -9.3310    2.5570    0.8860 C   0  0  0  0  0  0  0  0  0  0  0  0
   -8.0680    3.1000    1.0390 C   0  0  0  0  0  0  0  0  0  0  0  0
   -6.9500    2.4680    0.4930 C   0  0  0  0  0  0  0  0  0  0  0  0
   -5.7530    3.0720    0.6900 F   0  0  0  0  0  0  0  0  0  0  0  0
   -4.7070    0.4800    0.2160 C   0  0  0  0  0  0  0  0  0  0  0  0
   -3.8040   -0.3230   -0.6390 N   0  0  0  0  0  0  0  0  0  0  0  0
   -2.4140   -0.1340   -0.8230 C   0  0  0  0  0  0  0  0  0  0  0  0
   -1.8820    0.8430   -1.6710 C   0  0  0  0  0  0  0  0  0  0  0  0
   -0.5450    0.7590   -1.6200 N   0  0  0  0  0  0  0  0  0  0  0  0
   -0.1880   -0.2470   -0.7630 C   0  0  0  0  0  0  0  0  0  0  0  0
    1.1970   -0.5790   -0.4770 C   0  0  0  0  0  0  0  0  0  0  0  0
    2.2070    0.1840   -1.0330 C   0  0  0  0  0  0  0  0  0  0  0  0
    3.5710   -0.1070   -0.7710 C   0  0  0  0  0  0  0  0  0  0  0  0
    4.5540    0.6890   -1.4180 C   0  0  0  0  0  0  0  0  0  0  0  0
    5.3760    1.3640   -1.9770 N   0  0  0  0  0  0  0  0  0  0  0  0
    3.8950   -1.1550    0.0400 C   0  0  0  0  0  0  0  0  0  0  0  0
    5.2160   -1.4260    0.3940 N   0  0  0  0  0  0  0  0  0  0  0  0
    6.3550   -0.6100    0.1590 C   0  0  0  0  0  0  0  0  0  0  0  0
    7.3530   -0.9660   -0.7000 C   0  0  0  0  0  0  0  0  0  0  0  0
    8.4820   -0.1820   -0.8850 C   0  0  0  0  0  0  0  0  0  0  0  0
    9.4670   -0.5330   -1.7350 F   0  0  0  0  0  0  0  0  0  0  0  0
    8.6450    1.0250   -0.1850 C   0  0  0  0  0  0  0  0  0  0  0  0
    7.6380    1.3740    0.6740 C   0  0  0  0  0  0  0  0  0  0  0  0
    6.5130    0.5960    0.8610 C   0  0  0  0  0  0  0  0  0  0  0  0
    7.9900    2.6890    1.3230 C   0  0  0  0  0  0  0  0  0  0  0  0
    9.0920    3.2270    0.4760 C   0  0  0  0  0  0  0  0  0  0  0  0
    9.7240    2.0410   -0.1820 C   0  0  0  0  0  0  0  0  0  0  0  0
    2.9060   -1.8990    0.5780 N   0  0  0  0  0  0  0  0  0  0  0  0
    3.1610   -3.0420    1.4580 C   0  0  0  0  0  0  0  0  0  0  0  0
    1.5980   -1.6140    0.3230 C   0  0  0  0  0  0  0  0  0  0  0  0
    0.6860   -2.3370    0.8480 O   0  0  0  0  0  0  0  0  0  0  0  0
   -1.3430   -0.7520   -0.3110 N   0  0  0  0  0  0  0  0  0  0  0  0
  1  2  1  0
  2  3  1  0
  4  3  1  1
  4  5  1  0
  4 15  1  0
  5  6  1  0
  6  7  1  1
  6 14  1  0
  7  8  2  0
  7 12  1  0
  8  9  1  0
  9 10  2  0
 10 11  1  0
 11 12  2  0
 12 13  1  0
 14 15  1  0
 15 16  1  0
 16 17  2  0
 16 41  1  0
 17 18  1  0
 18 19  1  0
 19 20  1  0
 19 41  2  0
 20 21  2  0
 20 39  1  0
 21 22  1  0
 22 23  1  0
 22 25  2  0
 23 24  3  0
 25 26  1  0
 25 37  1  0
 26 27  1  0
 27 28  2  0
 27 33  1  0
 28 29  1  0
 29 30  1  0
 29 31  2  0
 31 32  1  0
 31 36  1  0
 32 33  2  0
 32 34  1  0
 34 35  1  0
 35 36  1  0
 37 38  1  0
 37 39  1  0
 39 40  2  0
M  CHG  1  41   1
M  END
