
     RDKit          3D

 40 44  0  0  0  0  0  0  0  0999 V2000
    8.3960    0.1720   -1.8700 C   0  0  0  0  0  0  0  0  0  0  0  0
    7.5790    0.7240   -0.7450 C   0  0  0  0  0  0  0  0  0  0  0  0
    6.2050    0.7240   -0.8030 C   0  0  0  0  0  0  0  0  0  0  0  0
    5.4810    1.2460    0.2600 C   0  0  0  0  0  0  0  0  0  0  0  0
    6.1340    1.7570    1.3620 C   0  0  0  0  0  0  0  0  0  0  0  0
    7.5200    1.7630    1.4340 C   0  0  0  0  0  0  0  0  0  0  0  0
    8.2160    1.2430    0.3730 C   0  0  0  0  0  0  0  0  0  0  0  0
    9.5620    1.2290    0.4010 F   0  0  0  0  0  0  0  0  0  0  0  0
    5.1750    2.1780    2.2020 N   0  0  0  0  0  0  0  0  0  0  0  0
    3.9870    1.9270    1.6240 C   0  0  0  0  0  0  0  0  0  0  0  0
    2.8450    2.1910    2.1280 O   0  0  0  0  0  0  0  0  0  0  0  0
    4.1510    1.3560    0.4340 N   0  0  0  0  0  0  0  0  0  0  0  0
    3.1130    0.9260   -0.5080 C   0  0  0  0  0  0  0  0  0  0  0  0
    2.7860   -0.5030   -0.1650 C   0  0  0  0  0  0  0  0  0  0  0  0
    1.7340   -1.1110   -1.0100 C   0  0  0  0  0  0  0  0  0  0  0  0
    2.1650   -1.8250   -2.0600 N   0  0  0  0  0  0  0  0  0  0  0  0
    1.3350   -2.4060   -2.9340 C   0  0  0  0  0  0  0  0  0  0  0  0
   -0.0160   -2.2550   -2.7340 C   0  0  0  0  0  0  0  0  0  0  0  0
   -0.5040   -1.5330   -1.6720 C   0  0  0  0  0  0  0  0  0  0  0  0
    0.3820   -0.9530   -0.7960 C   0  0  0  0  0  0  0  0  0  0  0  0
   -0.0850   -0.2440    0.3870 C   0  0  0  0  0  0  0  0  0  0  0  0
   -1.5580   -0.1100    0.4750 N   0  0  0  0  0  0  0  0  0  0  0  0
   -2.3230   -1.1020    1.0490 C   0  0  0  0  0  0  0  0  0  0  0  0
   -1.5580   -1.9570    1.7250 O   0  0  0  0  0  0  0  0  0  0  0  0
   -3.7070   -1.4490    1.1120 C   0  0  0  0  0  0  0  0  0  0  0  0
   -4.1730   -2.4400    1.9420 N   0  0  0  0  0  0  0  0  0  0  0  0
   -5.4820   -2.6420    1.7860 C   0  0  0  0  0  0  0  0  0  0  0  0
   -6.3290   -3.6490    2.5310 C   0  0  0  0  0  0  0  0  0  0  0  0
   -5.8840   -1.7640    0.8280 C   0  0  0  0  0  0  0  0  0  0  0  0
   -7.2870   -1.6250    0.3210 C   0  0  0  0  0  0  0  0  0  0  0  0
   -4.7910   -1.0030    0.3860 C   0  0  0  0  0  0  0  0  0  0  0  0
   -4.8680    0.0090   -0.7110 C   0  0  0  0  0  0  0  0  0  0  0  0
   -2.0570    1.1240   -0.0020 C   0  0  0  0  0  0  0  0  0  0  0  0
   -1.9560    1.5630   -1.2820 C   0  0  0  0  0  0  0  0  0  0  0  0
   -2.4520    2.8360   -1.5800 C   0  0  0  0  0  0  0  0  0  0  0  0
   -3.0290    3.6620   -0.6680 C   0  0  0  0  0  0  0  0  0  0  0  0
   -3.5070    4.8800   -0.9350 F   0  0  0  0  0  0  0  0  0  0  0  0
   -3.1130    3.1720    0.6340 C   0  0  0  0  0  0  0  0  0  0  0  0
   -2.6420    1.9330    0.9770 C   0  0  0  0  0  0  0  0  0  0  0  0
   -2.7480    1.4540    2.3630 C   0  0  0  0  0  0  0  0  0  0  0  0
  1  2  1  0
  2  3  2  0
  2  7  1  0
  3  4  1  0
  4  5  2  0
  4 12  1  0
  5  6  1  0
  5  9  1  0
  6  7  2  0
  7  8  1  0
  9 10  1  0
 10 11  2  0
 10 12  1  0
 12 13  1  0
 13 14  1  0
 14 15  1  0
 15 16  2  0
 15 20  1  0
 16 17  1  0
 17 18  2  0
 18 19  1  0
 19 20  2  0
 20 21  1  0
 21 22  1  0
 22 23  1  0
 22 33  1  0
 23 24  2  0
 23 25  1  0
 25 26  1  0
 25 31  2  0
 26 27  1  0
 27 28  1  0
 27 29  2  0
 29 30  1  0
 29 31  1  0
 31 32  1  0
 33 34  2  0
 33 39  1  0
 34 35  1  0
 35 36  2  0
 36 37  1  0
 36 38  1  0
 38 39  2  0
 39 40  1  0
M  CHG  1  16   1
M  END
