
     RDKit          3D

 41 45  0  0  0  0  0  0  0  0999 V2000
    8.3010    1.1440   -1.1120 C   0  0  0  0  0  0  0  0  0  0  0  0
    7.1280    0.6370   -0.3590 C   0  0  0  0  0  0  0  0  0  0  0  0
    6.3880    1.5100    0.4040 C   0  0  0  0  0  0  0  0  0  0  0  0
    5.2930    1.0710    1.1130 C   0  0  0  0  0  0  0  0  0  0  0  0
    4.8890   -0.2260    1.1000 C   0  0  0  0  0  0  0  0  0  0  0  0
    3.7270   -0.7700    1.8320 C   0  0  0  0  0  0  0  0  0  0  0  0
    2.4940   -0.7250    1.0260 N   0  0  0  0  0  0  0  0  0  0  0  0
    1.3240   -1.2290    1.6370 C   0  0  0  0  0  0  0  0  0  0  0  0
    1.3140   -1.7290    2.9030 C   0  0  0  0  0  0  0  0  0  0  0  0
    0.1790   -2.2170    3.5000 C   0  0  0  0  0  0  0  0  0  0  0  0
   -0.9880   -2.1870    2.7700 C   0  0  0  0  0  0  0  0  0  0  0  0
   -1.0350   -1.6740    1.4440 C   0  0  0  0  0  0  0  0  0  0  0  0
   -2.3180   -1.5300    0.8590 N   0  0  0  0  0  0  0  0  0  0  0  0
   -3.4200   -2.3840    1.0430 C   0  0  0  0  0  0  0  0  0  0  0  0
   -3.2350   -3.4120    1.7910 O   0  0  0  0  0  0  0  0  0  0  0  0
   -4.7610   -2.2900    0.5090 C   0  0  0  0  0  0  0  0  0  0  0  0
   -5.4740   -3.4870    0.2430 C   0  0  0  0  0  0  0  0  0  0  0  0
   -6.7080   -3.5340   -0.3040 C   0  0  0  0  0  0  0  0  0  0  0  0
   -7.3420   -2.3600   -0.6360 C   0  0  0  0  0  0  0  0  0  0  0  0
   -6.7050   -1.1960   -0.4020 C   0  0  0  0  0  0  0  0  0  0  0  0
   -5.4160   -1.1550    0.1710 C   0  0  0  0  0  0  0  0  0  0  0  0
   -4.8480    0.1250    0.4330 N   0  0  0  0  0  0  0  0  0  0  0  0
   -4.5390    0.6250    1.7520 C   0  0  0  0  0  0  0  0  0  0  0  0
   -5.0330    2.0760    1.6140 C   0  0  1  0  0  0  0  0  0  0  0  0
   -4.5350    2.9200    2.7510 C   0  0  0  0  0  0  0  0  0  0  0  0
   -4.3340    2.4520    0.3000 C   0  0  0  0  0  0  0  0  0  0  0  0
   -4.5150    1.1720   -0.4690 C   0  0  0  0  0  0  0  0  0  0  0  0
   -4.3960    1.0350   -1.7060 O   0  0  0  0  0  0  0  0  0  0  0  0
    0.0970   -1.2090    0.8900 C   0  0  0  0  0  0  0  0  0  0  0  0
    0.2920   -0.7330   -0.4580 C   0  0  0  0  0  0  0  0  0  0  0  0
   -0.7130   -0.6680   -1.4260 N   0  0  0  0  0  0  0  0  0  0  0  0
   -1.1730    0.6840   -1.7310 C   0  0  0  0  0  0  0  0  0  0  0  0
   -0.0280    1.5090   -2.2320 C   0  0  0  0  0  0  0  0  0  0  0  0
    0.5110    1.3370   -3.4900 C   0  0  0  0  0  0  0  0  0  0  0  0
    1.5770    2.1280   -3.9260 C   0  0  0  0  0  0  0  0  0  0  0  0
    2.0940    3.0900   -3.0890 C   0  0  0  0  0  0  0  0  0  0  0  0
    1.5280    3.2350   -1.8310 C   0  0  0  0  0  0  0  0  0  0  0  0
    0.5000    2.4550   -1.4440 N   0  0  0  0  0  0  0  0  0  0  0  0
    5.6370   -1.1090    0.3280 C   0  0  0  0  0  0  0  0  0  0  0  0
    6.7410   -0.6850   -0.3920 C   0  0  0  0  0  0  0  0  0  0  0  0
    7.5500   -1.6170   -1.2210 C   0  0  0  0  0  0  0  0  0  0  0  0
  1  2  1  0
  2  3  2  0
  2 40  1  0
  3  4  1  0
  4  5  2  0
  5  6  1  0
  5 39  1  0
  6  7  1  0
  7  8  1  0
  8  9  2  0
  8 29  1  0
  9 10  1  0
 10 11  2  0
 11 12  1  0
 12 13  1  0
 12 29  2  0
 13 14  1  0
 14 15  2  0
 14 16  1  0
 16 17  2  0
 16 21  1  0
 17 18  1  0
 18 19  2  0
 19 20  1  0
 20 21  2  0
 21 22  1  0
 22 23  1  0
 22 27  1  0
 23 24  1  0
 24 25  1  1
 24 26  1  0
 26 27  1  0
 27 28  2  0
 29 30  1  0
 30 31  1  0
 31 32  1  0
 32 33  1  0
 33 34  2  0
 33 38  1  0
 34 35  1  0
 35 36  2  0
 36 37  1  0
 37 38  2  0
 39 40  2  0
 40 41  1  0
M  CHG  2  31   1  38   1
M  END
