
     RDKit          3D

 12 11  0  0  0  0  0  0  0  0999 V2000
   -3.7900    1.3180   -0.5230 C   0  0  0  0  0  0  0  0  0  0  0  0
   -3.1170    0.0660   -0.2380 N   0  0  0  0  0  0  0  0  0  0  0  0
   -1.7480    0.2850    0.2260 C   0  0  0  0  0  0  0  0  0  0  0  0
   -0.8550   -0.8230   -0.3380 C   0  0  1  0  0  0  0  0  0  0  0  0
   -1.4340   -2.1550    0.1500 C   0  0  0  0  0  0  0  0  0  0  0  0
   -0.8900   -0.7930   -1.7300 O   0  0  0  0  0  0  0  0  0  0  0  0
    0.5450   -0.6570    0.1620 C   0  0  0  0  0  0  0  0  0  0  0  0
    1.0790    0.6000   -0.2810 N   0  0  0  0  0  0  0  0  0  0  0  0
    2.4750    0.7430   -0.0150 C   0  0  1  0  0  0  0  0  0  0  0  0
    2.7110    1.4840    1.2890 C   0  0  0  0  0  0  0  0  0  0  0  0
    3.2100   -0.5800    0.0240 C   0  0  0  0  0  0  0  0  0  0  0  0
    4.5520   -0.3370    0.2870 O   0  0  0  0  0  0  0  0  0  0  0  0
  1  2  1  0
  2  3  1  0
  3  4  1  0
  4  5  1  1
  4  6  1  0
  4  7  1  0
  7  8  1  0
  8  9  1  0
  9 10  1  1
  9 11  1  0
 11 12  1  0
M  CHG  2   2   1   8   1
M  END
