
     RDKit          3D

 11 10  0  0  0  0  0  0  0  0999 V2000
    3.5770    0.9430   -0.4580 C   0  0  0  0  0  0  0  0  0  0  0  0
    2.2930    0.3310   -0.9280 C   0  0  0  0  0  0  0  0  0  0  0  0
    1.3180    0.1820    0.1520 N   0  0  0  0  0  0  0  0  0  0  0  0
    0.2390   -0.6300   -0.3140 C   0  0  1  0  0  0  0  0  0  0  0  0
    0.4390   -2.0510    0.1640 C   0  0  0  0  0  0  0  0  0  0  0  0
    0.4730   -2.0950    1.5590 O   0  0  0  0  0  0  0  0  0  0  0  0
   -1.1040   -0.1100    0.1520 C   0  0  2  0  0  0  0  0  0  0  0  0
   -1.1850   -0.0790    1.6480 C   0  0  0  0  0  0  0  0  0  0  0  0
   -2.2390   -0.9100   -0.3910 C   0  0  0  0  0  0  0  0  0  0  0  0
   -1.2280    1.2460   -0.3580 N   0  0  0  0  0  0  0  0  0  0  0  0
   -2.6240    1.6240   -0.5160 C   0  0  0  0  0  0  0  0  0  0  0  0
  1  2  1  0
  2  3  1  0
  3  4  1  0
  4  5  1  1
  4  7  1  0
  5  6  1  0
  7  8  1  1
  7  9  1  0
  7 10  1  0
 10 11  1  0
M  CHG  2   3   1  10   1
M  END
