
     RDKit          3D

 12 11  0  0  0  0  0  0  0  0999 V2000
   -3.3190   -1.1680   -1.3810 C   0  0  0  0  0  0  0  0  0  0  0  0
   -2.0470   -0.6720   -1.1820 O   0  0  0  0  0  0  0  0  0  0  0  0
   -1.9180    0.0490   -0.0000 C   0  0  1  0  0  0  0  0  0  0  0  0
   -2.8570    1.2150   -0.0180 C   0  0  0  0  0  0  0  0  0  0  0  0
   -2.2850   -0.8220    1.1750 C   0  0  0  0  0  0  0  0  0  0  0  0
   -0.4580    0.4920    0.0740 C   0  0  1  0  0  0  0  0  0  0  0  0
   -0.1730    1.2450    1.2410 N   0  0  0  0  0  0  0  0  0  0  0  0
    0.4810   -0.6420   -0.1420 C   0  0  0  0  0  0  0  0  0  0  0  0
    1.7540   -0.3130   -0.3720 O   0  0  0  0  0  0  0  0  0  0  0  0
    2.5500    0.3680    0.4590 C   0  0  0  0  0  0  0  0  0  0  0  0
    3.9890    0.4850   -0.1050 C   0  0  0  0  0  0  0  0  0  0  0  0
    4.5490   -0.8300   -0.2930 N   0  0  0  0  0  0  0  0  0  0  0  0
  1  2  1  0
  2  3  1  0
  3  4  1  6
  3  5  1  0
  3  6  1  0
  6  7  1  1
  6  8  1  0
  8  9  1  0
  9 10  1  0
 10 11  1  0
 11 12  1  0
M  CHG  2   7   1  12   1
M  END
