
     RDKit          3D

 12 11  0  0  0  0  0  0  0  0999 V2000
    3.9030    0.5360    0.1910 C   0  0  0  0  0  0  0  0  0  0  0  0
    3.4700   -0.9050    0.0250 C   0  0  0  0  0  0  0  0  0  0  0  0
    2.4680   -0.9490   -1.1090 C   0  0  0  0  0  0  0  0  0  0  0  0
    1.3550   -0.1080   -0.7490 N   0  0  0  0  0  0  0  0  0  0  0  0
    0.1000   -0.6840   -0.9720 C   0  0  0  0  0  0  0  0  0  0  0  0
   -0.0490   -1.5970   -1.7200 O   0  0  0  0  0  0  0  0  0  0  0  0
   -1.0680   -0.1100   -0.2310 C   0  0  1  0  0  0  0  0  0  0  0  0
   -1.0650    1.3530   -0.5490 C   0  0  0  0  0  0  0  0  0  0  0  0
   -2.0360    2.0710    0.2050 N   0  0  0  0  0  0  0  0  0  0  0  0
   -2.2350   -0.6930   -0.4800 O   0  0  0  0  0  0  0  0  0  0  0  0
   -2.9750   -1.3810    0.3600 C   0  0  0  0  0  0  0  0  0  0  0  0
   -3.3930   -0.5880    1.5670 C   0  0  0  0  0  0  0  0  0  0  0  0
  1  2  1  0
  2  3  1  0
  3  4  1  0
  4  5  1  0
  5  6  2  0
  5  7  1  0
  7  8  1  6
  7 10  1  0
  8  9  1  0
 10 11  1  0
 11 12  1  0
M  CHG  2   4   1   9   1
M  END
