
     RDKit          3D

 12 11  0  0  0  0  0  0  0  0999 V2000
   -3.3370    1.3490   -0.5570 C   0  0  0  0  0  0  0  0  0  0  0  0
   -3.1650    0.3670    0.4600 N   0  0  1  0  0  0  0  0  0  0  0  0
   -3.8830   -0.8570    0.0710 C   0  0  0  0  0  0  0  0  0  0  0  0
   -1.8360    0.0900    0.8520 C   0  0  0  0  0  0  0  0  0  0  0  0
   -0.8220    0.0730   -0.2500 C   0  0  0  0  0  0  0  0  0  0  0  0
    0.5260   -0.2390    0.3690 C   0  0  0  0  0  0  0  0  0  0  0  0
    1.6220   -0.2790   -0.6700 C   0  0  0  0  0  0  0  0  0  0  0  0
    2.9180   -0.5960    0.0520 C   0  0  2  0  0  0  0  0  0  0  0  0
    3.1880    0.4290    1.0330 N   0  0  0  0  0  0  0  0  0  0  0  0
    4.0530   -0.7350   -0.9130 C   0  0  0  0  0  0  0  0  0  0  0  0
    3.9980   -1.5790   -1.8390 O   0  0  0  0  0  0  0  0  0  0  0  0
    5.1670    0.0590   -0.7960 O   0  0  0  0  0  0  0  0  0  0  0  0
  2  1  1  6
  2  3  1  0
  2  4  1  0
  4  5  1  0
  5  6  1  0
  6  7  1  0
  7  8  1  0
  8  9  1  1
  8 10  1  0
 10 11  2  0
 10 12  1  0
M  CHG  2   2   1   9   1
M  END
