
     RDKit          3D

 23 26  0  0  0  0  0  0  0  0999 V2000
    0.5450   -2.1520    0.9560 C   0  0  0  0  0  0  0  0  0  0  0  0
    0.7840   -0.7030    0.8040 C   0  0  0  0  0  0  0  0  0  0  0  0
   -0.1820    0.2440    1.0550 C   0  0  0  0  0  0  0  0  0  0  0  0
   -1.5620   -0.1040    1.4250 C   0  0  1  0  0  0  0  0  0  0  0  0
   -2.2560    1.0710    1.9860 N   0  0  0  0  0  0  0  0  0  0  0  0
   -2.9390    1.9720    1.1370 C   0  0  0  0  0  0  0  0  0  0  0  0
   -3.5630    2.9580    1.6140 O   0  0  0  0  0  0  0  0  0  0  0  0
   -2.9220    1.7540   -0.3420 C   0  0  0  0  0  0  0  0  0  0  0  0
   -3.0720    0.2890   -0.5250 C   0  0  0  0  0  0  0  0  0  0  0  0
   -2.4310   -0.5720    0.3360 C   0  0  0  0  0  0  0  0  0  0  0  0
   -2.6430   -1.9110    0.1270 C   0  0  0  0  0  0  0  0  0  0  0  0
   -3.4640   -2.3620   -0.9070 C   0  0  0  0  0  0  0  0  0  0  0  0
   -4.0630   -1.4900   -1.7170 N   0  0  0  0  0  0  0  0  0  0  0  0
   -3.8830   -0.1650   -1.5470 C   0  0  0  0  0  0  0  0  0  0  0  0
   -4.5410    0.6850   -2.4310 O   0  0  0  0  0  0  0  0  0  0  0  0
    0.1690    1.5670    0.9300 C   0  0  0  0  0  0  0  0  0  0  0  0
    1.4610    1.9490    0.5590 C   0  0  0  0  0  0  0  0  0  0  0  0
    2.4310    1.0060    0.3050 C   0  0  0  0  0  0  0  0  0  0  0  0
    2.0830   -0.3200    0.4300 C   0  0  0  0  0  0  0  0  0  0  0  0
    3.1290   -1.3310    0.1340 C   0  0  0  0  0  0  0  0  0  0  0  0
    3.8840   -0.8420   -1.1040 C   0  0  0  0  0  0  0  0  0  0  0  0
    4.5810    0.4510   -0.8580 C   0  0  0  0  0  0  0  0  0  0  0  0
    3.7970    1.4390   -0.0750 C   0  0  0  0  0  0  0  0  0  0  0  0
  1  2  1  0
  2  3  2  0
  2 19  1  0
  4  3  1  6
  3 16  1  0
  4  5  1  0
  4 10  1  0
  5  6  1  0
  6  7  2  0
  6  8  1  0
  8  9  1  0
  9 10  2  0
  9 14  1  0
 10 11  1  0
 11 12  2  0
 12 13  1  0
 13 14  2  0
 14 15  1  0
 16 17  2  0
 17 18  1  0
 18 19  2  0
 18 23  1  0
 19 20  1  0
 20 21  1  0
 21 22  1  0
 22 23  1  0
M  END
