
     RDKit          3D

 23 26  0  0  0  0  0  0  0  0999 V2000
   -6.4090    0.0570    0.9020 C   0  0  0  0  0  0  0  0  0  0  0  0
   -5.5430    1.0430    0.2900 C   0  0  0  0  0  0  0  0  0  0  0  0
   -4.2780    1.2000    0.0870 C   0  0  0  0  0  0  0  0  0  0  0  0
   -3.8050    2.4360   -0.6230 C   0  0  0  0  0  0  0  0  0  0  0  0
   -4.6360    3.2800   -0.9990 O   0  0  0  0  0  0  0  0  0  0  0  0
   -2.4030    2.6760   -0.8840 C   0  0  0  0  0  0  0  0  0  0  0  0
   -1.5040    1.8100   -0.5020 C   0  0  0  0  0  0  0  0  0  0  0  0
   -1.8600    0.5830    0.1920 C   0  0  0  0  0  0  0  0  0  0  0  0
   -3.2140    0.2970    0.4730 C   0  0  0  0  0  0  0  0  0  0  0  0
   -3.5070   -0.8760    1.1310 C   0  0  0  0  0  0  0  0  0  0  0  0
   -2.4840   -1.7540    1.5060 C   0  0  0  0  0  0  0  0  0  0  0  0
   -1.1720   -1.4460    1.2170 C   0  0  0  0  0  0  0  0  0  0  0  0
    0.0520   -2.0710    1.4380 C   0  0  0  0  0  0  0  0  0  0  0  0
    1.0710   -1.2990    0.9280 C   0  0  0  0  0  0  0  0  0  0  0  0
    2.5070   -1.5520    0.9280 C   0  0  0  0  0  0  0  0  0  0  0  0
    3.0050   -2.5940    1.4420 O   0  0  0  0  0  0  0  0  0  0  0  0
    3.4180   -0.6330    0.3480 N   0  0  0  0  0  0  0  0  0  0  0  0
    4.8650   -0.9030    0.3580 C   0  0  0  0  0  0  0  0  0  0  0  0
    5.6290    0.1940   -0.3040 C   0  0  2  0  0  0  0  0  0  0  0  0
    5.4260    0.5780   -1.7010 C   0  0  0  0  0  0  0  0  0  0  0  0
    6.6100   -0.2610   -1.3990 C   0  0  0  0  0  0  0  0  0  0  0  0
    0.4820   -0.2140    0.4000 N   0  0  0  0  0  0  0  0  0  0  0  0
   -0.8480   -0.2780    0.5590 C   0  0  0  0  0  0  0  0  0  0  0  0
  1  2  1  0
  2  3  2  3
  3  4  1  0
  3  9  1  0
  4  5  2  0
  4  6  1  0
  6  7  2  0
  7  8  1  0
  8  9  2  0
  8 23  1  0
  9 10  1  0
 10 11  2  0
 11 12  1  0
 12 13  1  0
 12 23  2  0
 13 14  2  0
 14 15  1  0
 14 22  1  0
 15 16  2  0
 15 17  1  0
 17 18  1  0
 19 18  1  6
 19 20  1  0
 19 21  1  0
 20 21  1  0
 22 23  1  0
M  END
