
     RDKit          3D

 23 26  0  0  0  0  0  0  0  0999 V2000
   -6.0390   -0.7850   -0.2070 C   0  0  0  0  0  0  0  0  0  0  0  0
   -4.9610   -0.4960   -1.2400 C   0  0  0  0  0  0  0  0  0  0  0  0
   -4.3670    0.8790   -1.0370 C   0  0  0  0  0  0  0  0  0  0  0  0
   -3.7280    1.0750    0.3140 C   0  0  0  0  0  0  0  0  0  0  0  0
   -2.6030    0.1570    0.5970 C   0  0  0  0  0  0  0  0  0  0  0  0
   -1.3240    0.5130    0.6880 C   0  0  0  0  0  0  0  0  0  0  0  0
   -0.9840    1.9070    0.4810 C   0  0  0  0  0  0  0  0  0  0  0  0
   -1.8430    2.7980    0.4480 O   0  0  0  0  0  0  0  0  0  0  0  0
    0.3740    2.3010    0.3050 N   0  0  0  0  0  0  0  0  0  0  0  0
    1.3630    1.2940    0.3540 C   0  0  0  0  0  0  0  0  0  0  0  0
    2.6600    1.7080    0.0180 C   0  0  0  0  0  0  0  0  0  0  0  0
    3.6640    0.8010   -0.0950 C   0  0  0  0  0  0  0  0  0  0  0  0
    3.4110   -0.5310    0.1210 C   0  0  0  0  0  0  0  0  0  0  0  0
    2.1370   -0.9170    0.4510 C   0  0  0  0  0  0  0  0  0  0  0  0
    1.0810   -0.0290    0.5800 C   0  0  0  0  0  0  0  0  0  0  0  0
   -0.2410   -0.4250    1.0560 C   0  0  2  0  0  0  0  0  0  0  0  0
   -0.5550   -1.8650    0.9220 C   0  0  0  0  0  0  0  0  0  0  0  0
   -2.0080   -2.1290    0.8260 C   0  0  0  0  0  0  0  0  0  0  0  0
   -2.8890   -1.2600    0.6840 N   0  0  0  0  0  0  0  0  0  0  0  0
    4.6030   -1.2620   -0.0580 O   0  0  0  0  0  0  0  0  0  0  0  0
    5.4160   -0.4940   -0.9080 C   0  0  2  0  0  0  0  0  0  0  0  0
    6.8870   -0.7850   -0.7150 C   0  0  0  0  0  0  0  0  0  0  0  0
    5.1190    0.9100   -0.4300 C   0  0  0  0  0  0  0  0  0  0  0  0
  1  2  1  0
  2  3  1  0
  3  4  1  0
  4  5  1  0
  5  6  2  0
  5 19  1  0
  6  7  1  0
  6 16  1  0
  7  8  2  0
  7  9  1  0
  9 10  1  0
 10 11  2  0
 10 15  1  0
 11 12  1  0
 12 13  2  0
 12 23  1  0
 13 14  1  0
 13 20  1  0
 14 15  2  0
 15 16  1  0
 16 17  1  6
 17 18  1  0
 18 19  2  0
 20 21  1  0
 21 22  1  1
 21 23  1  0
M  END
