
     RDKit          3D

 22 25  0  0  0  0  0  0  0  0999 V2000
    5.0130    0.1350   -1.3130 C   0  0  0  0  0  0  0  0  0  0  0  0
    4.5150   -0.2710    0.0580 C   0  0  2  0  0  0  0  0  0  0  0  0
    3.1820   -0.8990   -0.1150 C   0  0  0  0  0  0  0  0  0  0  0  0
    2.0420   -0.2690    0.0540 C   0  0  0  0  0  0  0  0  0  0  0  0
    0.7070   -0.8420   -0.1040 C   0  0  0  0  0  0  0  0  0  0  0  0
   -0.3800    0.0250    0.1080 C   0  0  0  0  0  0  0  0  0  0  0  0
   -1.6640   -0.4220   -0.0160 C   0  0  0  0  0  0  0  0  0  0  0  0
   -1.8810   -1.7420   -0.3530 C   0  0  0  0  0  0  0  0  0  0  0  0
   -0.8400   -2.5430   -0.5480 N   0  0  0  0  0  0  0  0  0  0  0  0
    0.4100   -2.1270   -0.4320 C   0  0  0  0  0  0  0  0  0  0  0  0
    1.3630   -2.9480   -0.6330 O   0  0  0  0  0  0  0  0  0  0  0  0
   -3.2250   -2.2090   -0.4820 N   0  0  0  0  0  0  0  0  0  0  0  0
   -4.3920   -1.4050   -0.2870 C   0  0  0  0  0  0  0  0  0  0  0  0
   -4.1080   -0.0020    0.0720 C   0  0  0  0  0  0  0  0  0  0  0  0
   -5.2190    0.8380    0.2760 C   0  0  0  0  0  0  0  0  0  0  0  0
   -4.9920    2.1360    0.6070 C   0  0  0  0  0  0  0  0  0  0  0  0
   -3.7120    2.6180    0.7400 C   0  0  0  0  0  0  0  0  0  0  0  0
   -2.6090    1.7900    0.5380 C   0  0  0  0  0  0  0  0  0  0  0  0
   -2.8170    0.4680    0.2010 C   0  0  0  0  0  0  0  0  0  0  0  0
    2.2020    1.0770    0.4190 O   0  0  0  0  0  0  0  0  0  0  0  0
    3.2400    1.5430    1.2460 C   0  0  0  0  0  0  0  0  0  0  0  0
    4.5510    0.8740    1.0170 C   0  0  0  0  0  0  0  0  0  0  0  0
  2  1  1  6
  2  3  1  0
  2 22  1  0
  3  4  2  0
  4  5  1  0
  4 20  1  0
  5  6  2  0
  5 10  1  0
  6  7  1  0
  7  8  2  0
  7 19  1  0
  8  9  1  0
  8 12  1  0
  9 10  1  0
 10 11  2  0
 12 13  1  0
 13 14  1  0
 14 15  2  0
 14 19  1  0
 15 16  1  0
 16 17  2  0
 17 18  1  0
 18 19  2  0
 20 21  1  0
 21 22  1  0
M  END
