
     RDKit          3D

 23 25  0  0  0  0  0  0  0  0999 V2000
   -5.8880    1.1970   -0.2290 C   0  0  0  0  0  0  0  0  0  0  0  0
   -4.5570    0.8170   -0.7300 C   0  0  0  0  0  0  0  0  0  0  0  0
   -4.2690    1.1220   -1.9170 O   0  0  0  0  0  0  0  0  0  0  0  0
   -3.5930    0.1130    0.1020 C   0  0  0  0  0  0  0  0  0  0  0  0
   -2.4230   -0.1640   -0.4960 C   0  0  0  0  0  0  0  0  0  0  0  0
   -1.2380   -0.8340   -0.0030 C   0  0  0  0  0  0  0  0  0  0  0  0
   -0.0310   -0.4230   -0.1670 C   0  0  0  0  0  0  0  0  0  0  0  0
    0.4700    0.7340   -0.8240 C   0  0  0  0  0  0  0  0  0  0  0  0
   -0.5570    1.7500   -1.3910 C   0  0  0  0  0  0  0  0  0  0  0  0
    1.7110    1.0700   -0.9680 C   0  0  0  0  0  0  0  0  0  0  0  0
    2.9730    0.5320   -0.6000 C   0  0  0  0  0  0  0  0  0  0  0  0
    4.0830    1.2470   -0.9700 C   0  0  0  0  0  0  0  0  0  0  0  0
    5.4180    0.8050   -0.6550 C   0  0  0  0  0  0  0  0  0  0  0  0
    6.6860    1.3510   -0.9150 C   0  0  0  0  0  0  0  0  0  0  0  0
    7.5610    0.5420   -0.4030 O   0  0  0  0  0  0  0  0  0  0  0  0
    6.9900   -0.4700    0.1610 N   0  0  0  0  0  0  0  0  0  0  0  0
    5.6360   -0.3450    0.0250 C   0  0  0  0  0  0  0  0  0  0  0  0
    4.5210   -1.1870    0.4600 C   0  0  0  0  0  0  0  0  0  0  0  0
    3.1600   -0.7130    0.1390 C   0  0  0  0  0  0  0  0  0  0  0  0
   -1.3360   -2.1460    0.8680 C   0  0  0  0  0  0  0  0  0  0  0  0
   -2.5020   -1.9620    1.6570 C   0  0  0  0  0  0  0  0  0  0  0  0
   -3.7050   -1.4400    2.2020 C   0  0  0  0  0  0  0  0  0  0  0  0
   -4.0360   -0.2080    1.4200 N   0  0  0  0  0  0  0  0  0  0  0  0
  1  2  1  0
  2  3  2  0
  2  4  1  0
  4  5  2  0
  4 23  1  0
  5  6  1  0
  6  7  2  3
  6 20  1  0
  7  8  1  0
  8  9  1  0
  8 10  2  3
 10 11  1  0
 11 12  2  0
 11 19  1  0
 12 13  1  0
 13 14  2  0
 13 17  1  0
 14 15  1  0
 15 16  1  0
 16 17  2  0
 17 18  1  0
 18 19  1  0
 20 21  1  0
 21 22  1  0
 22 23  1  0
M  END
