
     RDKit          3D

 39 40  0  0  0  0  0  0  0  0999 V2000
    9.6000   -0.6130   -1.3200 C   0  0  0  0  0  0  0  0  0  0  0  0
    9.9760    0.4700   -0.3290 C   0  0  0  0  0  0  0  0  0  0  0  0
    9.0380    0.4500    0.6730 O   0  0  0  0  0  0  0  0  0  0  0  0
    9.2340    1.3620    1.6670 C   0  0  0  0  0  0  0  0  0  0  0  0
    8.2390    1.3600    2.7810 C   0  0  0  0  0  0  0  0  0  0  0  0
    6.9140    1.6370    2.3190 N   0  0  0  0  0  0  0  0  0  0  0  0
    6.1890    0.8650    1.4260 C   0  0  0  0  0  0  0  0  0  0  0  0
    6.6420   -0.1760    0.9270 O   0  0  0  0  0  0  0  0  0  0  0  0
    4.8140    1.2630    1.0240 C   0  0  0  0  0  0  0  0  0  0  0  0
    4.3150    2.2960    1.5240 O   0  0  0  0  0  0  0  0  0  0  0  0
    4.0750    0.5030    0.1020 N   0  0  0  0  0  0  0  0  0  0  0  0
    2.7540    0.7550   -0.3600 C   0  0  0  0  0  0  0  0  0  0  0  0
    1.9320    1.7550    0.0770 C   0  0  0  0  0  0  0  0  0  0  0  0
    0.6460    1.9430   -0.3710 C   0  0  0  0  0  0  0  0  0  0  0  0
    0.1460    1.0520   -1.3390 C   0  0  0  0  0  0  0  0  0  0  0  0
   -1.0590    1.1570   -1.8090 O   0  0  0  0  0  0  0  0  0  0  0  0
   -2.2750    1.4560   -2.1240 C   0  0  0  0  0  0  0  0  0  0  0  0
   -2.9030    0.4940   -3.1810 C   0  0  0  0  0  0  0  0  0  0  0  0
   -2.8860   -0.7730   -2.6770 O   0  0  0  0  0  0  0  0  0  0  0  0
   -3.5450   -1.3180   -1.6340 C   0  0  0  0  0  0  0  0  0  0  0  0
   -4.4830   -0.6680   -0.8790 C   0  0  0  0  0  0  0  0  0  0  0  0
   -5.1220   -1.2810    0.1970 C   0  0  0  0  0  0  0  0  0  0  0  0
   -6.1290   -0.5790    0.9840 C   0  0  2  0  0  0  0  0  0  0  0  0
   -7.4820   -0.9080    0.3450 C   0  0  0  0  0  0  0  0  0  0  0  0
   -5.9410    0.8880    1.1360 C   0  0  0  0  0  0  0  0  0  0  0  0
   -7.0400    1.4920    1.9740 C   0  0  1  0  0  0  0  0  0  0  0  0
   -6.9770    0.8840    3.2240 O   0  0  0  0  0  0  0  0  0  0  0  0
   -6.9600    2.9880    2.0680 C   0  0  0  0  0  0  0  0  0  0  0  0
   -8.1060    3.3960    2.8960 N   0  0  0  0  0  0  0  0  0  0  0  0
   -4.7810   -2.5830    0.4880 C   0  0  0  0  0  0  0  0  0  0  0  0
   -3.8320   -3.2550   -0.2720 C   0  0  0  0  0  0  0  0  0  0  0  0
   -3.2080   -2.6600   -1.3190 C   0  0  0  0  0  0  0  0  0  0  0  0
   -2.2500   -3.2960   -2.1060 O   0  0  0  0  0  0  0  0  0  0  0  0
   -1.8420   -4.6190   -1.8820 C   0  0  0  0  0  0  0  0  0  0  0  0
    0.9730    0.0170   -1.8050 C   0  0  0  0  0  0  0  0  0  0  0  0
    0.4660   -0.8720   -2.7750 O   0  0  0  0  0  0  0  0  0  0  0  0
    2.2240   -0.1060   -1.3200 C   0  0  0  0  0  0  0  0  0  0  0  0
    3.0400   -1.1420   -1.7930 O   0  0  0  0  0  0  0  0  0  0  0  0
    2.9720   -2.3570   -1.0820 C   0  0  0  0  0  0  0  0  0  0  0  0
  1  2  1  0
  2  3  1  0
  3  4  1  0
  4  5  1  0
  5  6  1  0
  6  7  1  0
  7  8  2  0
  7  9  1  0
  9 10  2  0
  9 11  1  0
 11 12  1  0
 12 13  2  0
 12 37  1  0
 13 14  1  0
 14 15  2  0
 15 16  1  0
 15 35  1  0
 16 17  1  0
 17 18  1  0
 18 19  1  0
 19 20  1  0
 20 21  2  0
 20 32  1  0
 21 22  1  0
 22 23  1  0
 22 30  2  0
 23 24  1  6
 23 25  1  0
 25 26  1  0
 26 27  1  1
 26 28  1  0
 28 29  1  0
 30 31  1  0
 31 32  2  0
 32 33  1  0
 33 34  1  0
 35 36  1  0
 35 37  2  0
 37 38  1  0
 38 39  1  0
M  END
