
     RDKit          3D

 39 39  0  0  0  0  0  0  0  0999 V2000
    6.6330    6.4800   -0.1650 C   0  0  0  0  0  0  0  0  0  0  0  0
    5.8190    5.3800    0.2020 O   0  0  0  0  0  0  0  0  0  0  0  0
    6.3420    4.1510    0.5800 C   0  0  0  0  0  0  0  0  0  0  0  0
    7.5750    3.9740    0.6100 O   0  0  0  0  0  0  0  0  0  0  0  0
    5.4470    3.0710    0.9420 N   0  0  0  0  0  0  0  0  0  0  0  0
    5.9310    1.8180    1.3290 C   0  0  0  0  0  0  0  0  0  0  0  0
    7.2440    1.7860    1.4480 O   0  0  0  0  0  0  0  0  0  0  0  0
    5.2660    0.5930    1.5950 C   0  0  0  0  0  0  0  0  0  0  0  0
    6.1080   -0.3780    2.1750 C   0  0  0  0  0  0  0  0  0  0  0  0
    7.3960   -0.0440    2.4020 O   0  0  0  0  0  0  0  0  0  0  0  0
    3.9290    0.1040    1.4690 C   0  0  0  0  0  0  0  0  0  0  0  0
    2.7720    0.3440    1.0110 C   0  0  0  0  0  0  0  0  0  0  0  0
    2.0480    1.2890    0.2730 C   0  0  0  0  0  0  0  0  0  0  0  0
    2.5980    2.4270   -0.5610 C   0  0  0  0  0  0  0  0  0  0  0  0
    0.7200    1.1760    0.0790 C   0  0  0  0  0  0  0  0  0  0  0  0
   -0.2120    0.2010    0.5070 C   0  0  0  0  0  0  0  0  0  0  0  0
    0.0630   -0.8140    1.2120 O   0  0  0  0  0  0  0  0  0  0  0  0
   -1.6060    0.3510    0.1210 N   0  0  0  0  0  0  0  0  0  0  0  0
   -2.5310   -0.6440    0.5610 C   0  0  0  0  0  0  0  0  0  0  0  0
   -3.9690   -0.3330    0.0390 C   0  0  2  0  0  0  0  0  0  0  0  0
   -3.8210   -0.3650   -1.4290 C   0  0  0  0  0  0  0  0  0  0  0  0
   -4.9480   -0.0880   -2.3250 C   0  0  1  0  0  0  0  0  0  0  0  0
   -4.3520   -0.2030   -3.7610 C   0  0  0  0  0  0  0  0  0  0  0  0
   -6.0960   -1.0380   -2.3540 C   0  0  0  0  0  0  0  0  0  0  0  0
   -4.2610    1.0250    0.6100 C   0  0  0  0  0  0  0  0  0  0  0  0
   -5.2020    0.8760    1.7790 C   0  0  0  0  0  0  0  0  0  0  0  0
   -6.4820    0.2710    1.1790 C   0  0  2  0  0  0  0  0  0  0  0  0
   -7.6590    0.5000    2.0730 C   0  0  0  0  0  0  0  0  0  0  0  0
   -7.9120    1.8510    2.2890 O   0  0  0  0  0  0  0  0  0  0  0  0
   -6.1580   -1.1970    1.0160 C   0  0  0  0  0  0  0  0  0  0  0  0
   -4.7650   -1.4590    0.6080 C   0  0  0  0  0  0  0  0  0  0  0  0
    3.8880   -1.2450    2.1650 O   0  0  0  0  0  0  0  0  0  0  0  0
    3.2980   -2.3150    1.5660 C   0  0  0  0  0  0  0  0  0  0  0  0
    3.8910   -2.5940    0.2260 C   0  0  0  0  0  0  0  0  0  0  0  0
    4.7800   -1.8900   -0.2370 O   0  0  0  0  0  0  0  0  0  0  0  0
    3.3940   -3.7010   -0.4970 N   0  0  0  0  0  0  0  0  0  0  0  0
    3.8970   -4.0580   -1.7940 C   0  0  0  0  0  0  0  0  0  0  0  0
    5.3660   -4.3880   -1.7380 C   0  0  0  0  0  0  0  0  0  0  0  0
    5.8210   -4.7340   -3.0320 O   0  0  0  0  0  0  0  0  0  0  0  0
  1  2  1  0
  2  3  1  0
  3  4  2  0
  3  5  1  0
  5  6  1  0
  6  7  2  0
  6  8  1  0
  8  9  2  3
  8 11  1  0
  9 10  1  0
 11 12  2  3
 11 32  1  0
 12 13  1  0
 13 14  1  0
 13 15  2  3
 15 16  1  0
 16 17  2  0
 16 18  1  0
 18 19  1  0
 20 19  1  1
 20 21  1  0
 20 25  1  0
 20 31  1  0
 21 22  1  0
 22 23  1  6
 22 24  1  0
 25 26  1  0
 26 27  1  0
 27 28  1  1
 27 30  1  0
 28 29  1  0
 30 31  1  0
 32 33  1  0
 33 34  1  0
 34 35  2  0
 34 36  1  0
 36 37  1  0
 37 38  1  0
 38 39  1  0
M  END
