
     RDKit          3D

 39 40  0  0  0  0  0  0  0  0999 V2000
   -1.7810    4.1580   -1.7430 C   0  0  0  0  0  0  0  0  0  0  0  0
   -0.5750    3.3100   -2.0670 C   0  0  0  0  0  0  0  0  0  0  0  0
   -0.2130    2.4570   -1.0040 O   0  0  0  0  0  0  0  0  0  0  0  0
   -1.0680    1.4860   -0.5160 C   0  0  0  0  0  0  0  0  0  0  0  0
   -2.3170    1.2580   -1.0130 C   0  0  0  0  0  0  0  0  0  0  0  0
   -3.1580    0.2500   -0.4770 C   0  0  0  0  0  0  0  0  0  0  0  0
   -4.4710    0.1450   -1.0660 C   0  0  0  0  0  0  0  0  0  0  0  0
   -4.4900    0.2220   -2.3590 O   0  0  0  0  0  0  0  0  0  0  0  0
   -5.6800   -0.0170   -0.3990 N   0  0  0  0  0  0  0  0  0  0  0  0
   -6.9240   -0.1210   -1.1820 C   0  0  1  0  0  0  0  0  0  0  0  0
   -7.4040   -1.5640   -0.9600 C   0  0  0  0  0  0  0  0  0  0  0  0
   -7.8990    0.8600   -0.6110 C   0  0  0  0  0  0  0  0  0  0  0  0
   -8.1920    0.6230    0.7140 O   0  0  0  0  0  0  0  0  0  0  0  0
   -2.7340   -0.5220    0.5580 C   0  0  0  0  0  0  0  0  0  0  0  0
   -3.5010   -1.6270    1.1400 C   0  0  0  0  0  0  0  0  0  0  0  0
   -3.5090   -2.8480    0.2310 C   0  0  0  0  0  0  0  0  0  0  0  0
   -4.0550   -2.6120   -1.0100 O   0  0  0  0  0  0  0  0  0  0  0  0
   -1.4450   -0.2740    1.0610 C   0  0  0  0  0  0  0  0  0  0  0  0
   -0.6330    0.7030    0.5400 C   0  0  0  0  0  0  0  0  0  0  0  0
    0.6330    0.9250    1.0520 O   0  0  0  0  0  0  0  0  0  0  0  0
    1.1450    0.1510    2.1410 C   0  0  0  0  0  0  0  0  0  0  0  0
    2.5290    0.6270    2.4340 C   0  0  0  0  0  0  0  0  0  0  0  0
    3.4940    0.4840    1.3230 C   0  0  2  0  0  0  0  0  0  0  0  0
    3.7480   -0.9130    0.9160 C   0  0  0  0  0  0  0  0  0  0  0  0
    3.3960   -1.9670    1.6010 C   0  0  0  0  0  0  0  0  0  0  0  0
    3.6810   -3.3300    1.1250 C   0  0  0  0  0  0  0  0  0  0  0  0
    3.3080   -4.3760    1.8580 C   0  0  0  0  0  0  0  0  0  0  0  0
    3.5770   -5.7730    1.4140 C   0  0  0  0  0  0  0  0  0  0  0  0
    4.1980   -5.8000    0.1680 O   0  0  0  0  0  0  0  0  0  0  0  0
    3.8060   -4.8480   -0.6160 O   0  0  0  0  0  0  0  0  0  0  0  0
    4.3630   -3.6320   -0.1460 C   0  0  0  0  0  0  0  0  0  0  0  0
    4.7780    1.2120    1.5810 C   0  0  1  0  0  0  0  0  0  0  0  0
    5.3690    0.6890    2.7480 O   0  0  0  0  0  0  0  0  0  0  0  0
    5.7650    0.9510    0.4610 C   0  0  0  0  0  0  0  0  0  0  0  0
    5.2120    1.4570   -0.7620 N   0  0  0  0  0  0  0  0  0  0  0  0
    4.8830    2.8090   -0.9470 C   0  0  0  0  0  0  0  0  0  0  0  0
    5.0520    3.6800   -0.0530 O   0  0  0  0  0  0  0  0  0  0  0  0
    4.3290    3.2890   -2.1760 N   0  0  0  0  0  0  0  0  0  0  0  0
    3.9870    4.6880   -2.3680 C   0  0  0  0  0  0  0  0  0  0  0  0
  1  2  1  0
  2  3  1  0
  3  4  1  0
  4  5  2  0
  4 19  1  0
  5  6  1  0
  6  7  1  0
  6 14  2  0
  7  8  2  0
  7  9  1  0
  9 10  1  0
 10 11  1  1
 10 12  1  0
 12 13  1  0
 14 15  1  0
 14 18  1  0
 15 16  1  0
 16 17  1  0
 18 19  2  0
 19 20  1  0
 20 21  1  0
 21 22  1  0
 23 22  1  1
 23 24  1  0
 23 32  1  0
 24 25  2  3
 25 26  1  0
 26 27  2  0
 26 31  1  0
 27 28  1  0
 28 29  1  0
 29 30  1  0
 30 31  1  0
 32 33  1  1
 32 34  1  0
 34 35  1  0
 35 36  1  0
 36 37  2  0
 36 38  1  0
 38 39  1  0
M  END
