
     RDKit          3D

 35 36  0  0  0  0  0  0  0  0999 V2000
   -6.3570   -1.2230   -2.9770 C   0  0  0  0  0  0  0  0  0  0  0  0
   -5.3770   -1.3730   -1.8650 C   0  0  0  0  0  0  0  0  0  0  0  0
   -4.5860   -2.5550   -1.8810 O   0  0  0  0  0  0  0  0  0  0  0  0
   -3.9620   -2.6940   -0.2550 P   0  0  0  0  0  0  0  0  0  0  0  0
   -2.4140   -2.1510    0.2640 C   0  0  0  0  0  0  0  0  0  0  0  0
   -2.4220   -0.7790    0.7670 O   0  0  0  0  0  0  0  0  0  0  0  0
   -1.1710   -0.2970    0.4170 C   0  0  1  0  0  0  0  0  0  0  0  0
   -1.5110    0.1240   -1.0890 C   0  0  0  0  0  0  0  0  0  0  0  0
   -0.4360    0.7410    1.0650 C   0  0  1  0  0  0  0  0  0  0  0  0
    0.8280    0.9130    0.2010 C   0  0  0  0  0  0  0  0  0  0  0  0
    1.3400   -0.4160   -0.0730 O   0  0  0  0  0  0  0  0  0  0  0  0
    2.3550   -0.7310   -0.8630 C   0  0  0  0  0  0  0  0  0  0  0  0
    3.0100    0.2560   -1.3410 O   0  0  0  0  0  0  0  0  0  0  0  0
    2.7840   -1.9970   -1.2500 N   0  0  0  0  0  0  0  0  0  0  0  0
    3.9600   -2.1430   -2.1560 C   0  0  0  0  0  0  0  0  0  0  0  0
    5.2470   -1.8810   -1.4770 C   0  0  0  0  0  0  0  0  0  0  0  0
    5.4040   -1.3180   -0.2820 C   0  0  0  0  0  0  0  0  0  0  0  0
    6.6060   -1.0460    0.2890 C   0  0  0  0  0  0  0  0  0  0  0  0
    7.7280   -1.3970   -0.4530 C   0  0  0  0  0  0  0  0  0  0  0  0
    9.1020   -1.1710    0.1110 C   0  0  0  0  0  0  0  0  0  0  0  0
    7.6490   -1.9610   -1.6470 C   0  0  0  0  0  0  0  0  0  0  0  0
    6.3870   -2.2230   -2.2070 C   0  0  0  0  0  0  0  0  0  0  0  0
   -1.2480    2.0460    0.9480 C   0  0  0  0  0  0  0  0  0  0  0  0
   -0.9150    3.3110    1.3470 C   0  0  1  0  0  0  0  0  0  0  0  0
   -2.0810    4.2920    0.8920 C   0  0  0  0  0  0  0  0  0  0  0  0
   -1.5220    5.3210   -0.0590 C   0  0  0  0  0  0  0  0  0  0  0  0
   -1.0210    6.4060    0.7980 C   0  0  0  0  0  0  0  0  0  0  0  0
   -1.0230    7.5960    0.3150 O   0  0  0  0  0  0  0  0  0  0  0  0
   -0.5070    6.3360    2.1480 N   0  0  0  0  0  0  0  0  0  0  0  0
   -0.4750    5.2170    3.0000 C   0  0  0  0  0  0  0  0  0  0  0  0
   -0.2650    5.4710    4.2000 O   0  0  0  0  0  0  0  0  0  0  0  0
   -0.6390    3.7950    2.6570 N   0  0  0  0  0  0  0  0  0  0  0  0
   -5.1690   -3.3070    0.7270 O   0  0  0  0  0  0  0  0  0  0  0  0
   -4.5820   -3.8350    1.8960 C   0  0  0  0  0  0  0  0  0  0  0  0
   -5.1240   -5.2820    1.8570 C   0  0  0  0  0  0  0  0  0  0  0  0
  1  2  1  0
  2  3  1  0
  3  4  1  0
  4  5  1  0
  4 33  1  0
  5  6  1  0
  6  7  1  0
  7  8  1  6
  7  9  1  0
  9 10  1  6
  9 23  1  0
 10 11  1  0
 11 12  1  0
 12 13  2  0
 12 14  1  0
 14 15  1  0
 15 16  1  0
 16 17  2  0
 16 22  1  0
 17 18  1  0
 18 19  2  0
 19 20  1  0
 19 21  1  0
 21 22  2  0
 24 23  1  1
 24 25  1  0
 24 32  1  0
 25 26  1  0
 26 27  1  0
 27 28  2  0
 27 29  1  0
 29 30  1  0
 30 31  2  0
 30 32  1  0
 33 34  1  0
 34 35  1  0
M  END
