
     RDKit          3D

 35 37  0  0  0  0  0  0  0  0999 V2000
   -9.4720    0.9680   -1.9170 C   0  0  0  0  0  0  0  0  0  0  0  0
   -8.7660    0.8480   -0.6220 C   0  0  0  0  0  0  0  0  0  0  0  0
   -8.1410    2.0150   -0.1790 O   0  0  0  0  0  0  0  0  0  0  0  0
   -7.0890    1.4030    1.1320 P   0  0  0  0  0  0  0  0  0  0  0  0
   -8.1360    0.4780    2.1520 O   0  0  0  0  0  0  0  0  0  0  0  0
   -7.5060   -0.5400    2.7630 C   0  0  0  0  0  0  0  0  0  0  0  0
   -8.5630   -1.3810    3.4790 C   0  0  0  0  0  0  0  0  0  0  0  0
   -5.9390    0.2230    0.1940 C   0  0  1  0  0  0  0  0  0  0  0  0
   -5.8000    0.6020   -1.1180 O   0  0  0  0  0  0  0  0  0  0  0  0
   -4.5480    0.3190    0.8250 C   0  0  0  0  0  0  0  0  0  0  0  0
   -3.6170   -0.5740    0.2610 N   0  0  0  0  0  0  0  0  0  0  0  0
   -3.1530   -0.4880   -1.0280 C   0  0  2  0  0  0  0  0  0  0  0  0
   -2.2160   -1.7080   -1.2730 C   0  0  0  0  0  0  0  0  0  0  0  0
   -0.8490   -1.1980   -1.0400 C   0  0  0  0  0  0  0  0  0  0  0  0
   -0.8800    0.1930   -1.0890 N   0  0  0  0  0  0  0  0  0  0  0  0
   -0.3000    0.8770    0.1240 C   0  0  0  0  0  0  0  0  0  0  0  0
    1.1780    0.5610    0.0380 C   0  0  0  0  0  0  0  0  0  0  0  0
    1.7210    1.0720    1.3010 O   0  0  0  0  0  0  0  0  0  0  0  0
    1.9720    0.0410   -0.7540 N   0  0  0  0  0  0  0  0  0  0  0  0
    3.3730   -0.2760   -0.7650 C   0  0  0  0  0  0  0  0  0  0  0  0
    3.8950   -1.1010    0.1920 C   0  0  0  0  0  0  0  0  0  0  0  0
    5.3710   -1.2630    0.0860 C   0  0  0  0  0  0  0  0  0  0  0  0
    6.1030   -0.7530   -0.7350 C   0  0  0  0  0  0  0  0  0  0  0  0
    7.5860   -0.5840   -0.7520 C   0  0  0  0  0  0  0  0  0  0  0  0
    8.4070   -0.3550   -1.5940 C   0  0  0  0  0  0  0  0  0  0  0  0
    9.8150    0.0530   -1.4460 C   0  0  0  0  0  0  0  0  0  0  0  0
   10.3560    0.2070   -0.2410 C   0  0  0  0  0  0  0  0  0  0  0  0
   11.3050    0.4970    0.5210 O   0  0  0  0  0  0  0  0  0  0  0  0
   12.3260    0.8090    1.3050 C   0  0  0  0  0  0  0  0  0  0  0  0
    9.2390   -0.1080    0.7610 C   0  0  0  0  0  0  0  0  0  0  0  0
    9.8510    0.0250    2.0930 O   0  0  0  0  0  0  0  0  0  0  0  0
    7.9910   -0.4630    0.7360 C   0  0  0  0  0  0  0  0  0  0  0  0
    5.5510    0.1720   -1.8290 C   0  0  0  0  0  0  0  0  0  0  0  0
    4.1520    0.3340   -1.7270 C   0  0  0  0  0  0  0  0  0  0  0  0
   -2.1970    0.6050   -1.3810 C   0  0  0  0  0  0  0  0  0  0  0  0
  1  2  1  0
  2  3  1  0
  3  4  1  0
  4  5  1  0
  4  8  1  0
  5  6  1  0
  6  7  1  0
  8  9  1  6
  8 10  1  0
 10 11  1  0
 12 11  1  1
 12 13  1  0
 12 35  1  0
 13 14  1  0
 14 15  1  0
 15 16  1  0
 15 35  1  0
 16 17  1  0
 17 18  2  0
 17 19  1  0
 19 20  1  0
 20 21  2  0
 20 34  1  0
 21 22  1  0
 22 23  2  0
 23 24  1  0
 23 33  1  0
 24 25  2  0
 24 32  1  0
 25 26  1  0
 26 27  2  0
 27 28  1  0
 27 30  1  0
 28 29  1  0
 30 31  1  0
 30 32  2  0
 33 34  2  0
M  END
