
     RDKit          3D

 36 38  0  0  0  0  0  0  0  0999 V2000
   -6.9420    0.3420   -0.8460 C   0  0  0  0  0  0  0  0  0  0  0  0
   -7.4100   -0.8610   -0.0800 C   0  0  1  0  0  0  0  0  0  0  0  0
   -7.4840   -1.9980   -1.0900 C   0  0  0  0  0  0  0  0  0  0  0  0
   -6.2190   -2.3090   -1.5400 O   0  0  0  0  0  0  0  0  0  0  0  0
   -6.6520   -1.1240    1.0480 N   0  0  0  0  0  0  0  0  0  0  0  0
   -5.3210   -1.4610    1.0850 C   0  0  0  0  0  0  0  0  0  0  0  0
   -4.3720   -0.3520    0.7420 C   0  0  2  0  0  0  0  0  0  0  0  0
   -2.9550   -0.9250    0.9340 C   0  0  0  0  0  0  0  0  0  0  0  0
   -2.0450    0.0450    0.3260 N   0  0  0  0  0  0  0  0  0  0  0  0
   -0.7740   -0.3150   -0.1790 C   0  0  0  0  0  0  0  0  0  0  0  0
   -0.3470   -0.2120   -1.4850 C   0  0  0  0  0  0  0  0  0  0  0  0
    0.9590   -0.6690   -1.5440 C   0  0  0  0  0  0  0  0  0  0  0  0
    1.7930   -0.7290   -2.7860 C   0  0  0  0  0  0  0  0  0  0  0  0
    3.1490   -0.8750   -2.3230 O   0  0  0  0  0  0  0  0  0  0  0  0
    3.6430    0.1370   -1.5220 C   0  0  0  0  0  0  0  0  0  0  0  0
    2.9570    1.1360   -1.2090 O   0  0  0  0  0  0  0  0  0  0  0  0
    5.0020    0.0390   -1.0260 C   0  0  0  0  0  0  0  0  0  0  0  0
    5.8030   -1.0500   -1.3390 C   0  0  0  0  0  0  0  0  0  0  0  0
    7.1000   -1.1060   -0.8430 C   0  0  0  0  0  0  0  0  0  0  0  0
    7.6080   -0.1110   -0.0510 C   0  0  0  0  0  0  0  0  0  0  0  0
    9.3120   -0.2270    0.5780 P   0  0  0  0  0  0  0  0  0  0  0  0
    9.7860    1.3780    1.3420 C   0  0  0  0  0  0  0  0  0  0  0  0
   10.5040   -0.6280   -0.7780 C   0  0  0  0  0  0  0  0  0  0  0  0
    6.8380    0.9780    0.2740 C   0  0  0  0  0  0  0  0  0  0  0  0
    5.5520    1.0360   -0.2170 C   0  0  0  0  0  0  0  0  0  0  0  0
    1.3310   -1.0470   -0.2950 N   0  0  0  0  0  0  0  0  0  0  0  0
    0.3000   -0.8370    0.5180 C   0  0  0  0  0  0  0  0  0  0  0  0
    0.3090   -1.1250    1.9770 C   0  0  0  0  0  0  0  0  0  0  0  0
    1.5270   -1.6410    2.3800 O   0  0  0  0  0  0  0  0  0  0  0  0
   -2.5680    1.4130    0.3060 C   0  0  0  0  0  0  0  0  0  0  0  0
   -3.4440    1.5990    1.5420 C   0  0  1  0  0  0  0  0  0  0  0  0
   -3.7810    3.0410    1.7660 C   0  0  0  0  0  0  0  0  0  0  0  0
   -4.5080    3.6760    0.6620 C   0  0  0  0  0  0  0  0  0  0  0  0
   -5.7640    3.5980    0.5820 O   0  0  0  0  0  0  0  0  0  0  0  0
   -3.8950    4.4030   -0.3700 O   0  0  0  0  0  0  0  0  0  0  0  0
   -4.4860    0.7260    1.6050 O   0  0  0  0  0  0  0  0  0  0  0  0
  2  1  1  6
  2  3  1  0
  2  5  1  0
  3  4  1  0
  5  6  1  0
  7  6  1  1
  7  8  1  0
  7 36  1  0
  8  9  1  0
  9 10  1  0
  9 30  1  0
 10 11  1  0
 10 27  2  0
 11 12  2  0
 12 13  1  0
 12 26  1  0
 13 14  1  0
 14 15  1  0
 15 16  2  0
 15 17  1  0
 17 18  2  0
 17 25  1  0
 18 19  1  0
 19 20  2  0
 20 21  1  0
 20 24  1  0
 21 22  1  0
 21 23  1  0
 24 25  2  0
 26 27  1  0
 27 28  1  0
 28 29  1  0
 30 31  1  0
 31 32  1  6
 31 36  1  0
 32 33  1  0
 33 34  2  0
 33 35  1  0
M  END
