
     RDKit          3D

 35 36  0  0  0  0  0  0  0  0999 V2000
   -7.9950   -2.4590    0.7770 C   0  0  0  0  0  0  0  0  0  0  0  0
   -6.9830   -1.6890    1.6320 C   0  0  0  0  0  0  0  0  0  0  0  0
   -7.0580   -0.3660    1.1970 O   0  0  0  0  0  0  0  0  0  0  0  0
   -5.9640    0.6490    1.9870 P   0  0  0  0  0  0  0  0  0  0  0  0
   -6.5740    2.0870    2.6610 O   0  0  0  0  0  0  0  0  0  0  0  0
   -4.6560   -0.1950    2.9330 C   0  0  0  0  0  0  0  0  0  0  0  0
   -4.4270    0.3820    4.2320 N   0  0  0  0  0  0  0  0  0  0  0  0
   -5.3720   -0.2150    5.2550 C   0  0  0  0  0  0  0  0  0  0  0  0
   -3.5750    1.3380    4.7010 C   0  0  0  0  0  0  0  0  0  0  0  0
   -3.7630    1.5640    6.0500 O   0  0  0  0  0  0  0  0  0  0  0  0
   -2.5350    2.1680    4.1780 C   0  0  0  0  0  0  0  0  0  0  0  0
   -2.0920    2.2110    2.9690 O   0  0  0  0  0  0  0  0  0  0  0  0
   -2.6730    2.5130    1.8150 C   0  0  1  0  0  0  0  0  0  0  0  0
   -2.2250    3.9830    1.4050 C   0  0  0  0  0  0  0  0  0  0  0  0
   -2.2730    1.6310    0.6970 C   0  0  0  0  0  0  0  0  0  0  0  0
   -3.0770    1.1660   -0.2980 C   0  0  0  0  0  0  0  0  0  0  0  0
   -2.6400    0.3360   -1.3230 C   0  0  0  0  0  0  0  0  0  0  0  0
   -1.2990   -0.0410   -1.3290 C   0  0  0  0  0  0  0  0  0  0  0  0
   -0.4540    0.4090   -0.3380 C   0  0  0  0  0  0  0  0  0  0  0  0
    0.9480    0.0110   -0.3640 C   0  0  0  0  0  0  0  0  0  0  0  0
    1.5650   -0.1180    0.8540 C   0  0  0  0  0  0  0  0  0  0  0  0
    2.8860   -0.4840    0.8870 C   0  0  0  0  0  0  0  0  0  0  0  0
    3.5830   -0.7180   -0.3080 C   0  0  0  0  0  0  0  0  0  0  0  0
    2.9750   -0.5910   -1.5390 C   0  0  0  0  0  0  0  0  0  0  0  0
    3.6650   -0.7930   -2.7630 N   0  0  0  0  0  0  0  0  0  0  0  0
    5.0540   -0.6960   -2.9090 C   0  0  0  0  0  0  0  0  0  0  0  0
    5.7750   -0.3770   -1.9200 O   0  0  0  0  0  0  0  0  0  0  0  0
    5.7840   -0.9330   -4.1170 N   0  0  0  0  0  0  0  0  0  0  0  0
    7.2390   -0.7900   -4.1170 C   0  0  2  0  0  0  0  0  0  0  0  0
    7.8100   -0.2310   -5.3570 C   0  0  0  0  0  0  0  0  0  0  0  0
    7.7570   -2.1880   -3.7630 C   0  0  0  0  0  0  0  0  0  0  0  0
    9.2660   -2.2440   -3.6810 C   0  0  0  0  0  0  0  0  0  0  0  0
    9.8230   -1.8920   -4.8900 O   0  0  0  0  0  0  0  0  0  0  0  0
    1.6430   -0.2230   -1.5530 C   0  0  0  0  0  0  0  0  0  0  0  0
   -0.9330    1.2180    0.6390 C   0  0  0  0  0  0  0  0  0  0  0  0
  1  2  1  0
  2  3  1  0
  3  4  1  0
  4  5  1  0
  4  6  1  0
  6  7  1  0
  7  8  1  0
  7  9  1  0
  9 10  2  0
  9 11  1  0
 11 12  1  0
 12 13  1  0
 13 14  1  6
 13 15  1  0
 15 16  2  0
 15 35  1  0
 16 17  1  0
 17 18  2  0
 18 19  1  0
 19 20  1  0
 19 35  2  0
 20 21  2  0
 20 34  1  0
 21 22  1  0
 22 23  2  0
 23 24  1  0
 24 25  1  0
 24 34  2  0
 25 26  1  0
 26 27  2  0
 26 28  1  0
 28 29  1  0
 29 30  1  6
 29 31  1  0
 31 32  1  0
 32 33  1  0
M  END
