
     RDKit          3D

 36 37  0  0  0  0  0  0  0  0999 V2000
    7.0930   -0.8270    3.8140 C   0  0  0  0  0  0  0  0  0  0  0  0
    6.9780   -1.3060    2.3980 C   0  0  0  0  0  0  0  0  0  0  0  0
    5.7500   -0.9690    1.8640 O   0  0  0  0  0  0  0  0  0  0  0  0
    5.5430   -1.4840    0.2460 P   0  0  0  0  0  0  0  0  0  0  0  0
    3.9370   -0.7840   -0.4070 C   0  0  0  0  0  0  0  0  0  0  0  0
    3.6010    0.4170    0.4370 C   0  0  0  0  0  0  0  0  0  0  0  0
    2.3010    1.1040   -0.0080 C   0  0  0  0  0  0  0  0  0  0  0  0
    1.1660    0.2310    0.0730 N   0  0  0  0  0  0  0  0  0  0  0  0
   -0.0210    0.8570   -0.3440 C   0  0  2  0  0  0  0  0  0  0  0  0
   -0.3950    1.9890    0.5770 C   0  0  0  0  0  0  0  0  0  0  0  0
   -1.3860    2.8580   -0.2050 C   0  0  0  0  0  0  0  0  0  0  0  0
   -2.5530    2.0270   -0.4260 N   0  0  0  0  0  0  0  0  0  0  0  0
   -3.7970    2.5990   -0.1720 N   0  0  0  0  0  0  0  0  0  0  0  0
   -4.5860    2.2030    0.7570 C   0  0  0  0  0  0  0  0  0  0  0  0
   -4.2540    1.1580    1.5940 O   0  0  0  0  0  0  0  0  0  0  0  0
   -5.8660    2.9310    0.8770 C   0  0  0  0  0  0  0  0  0  0  0  0
   -6.8090    2.5060    1.9280 C   0  0  0  0  0  0  0  0  0  0  0  0
   -6.1820    3.9200    0.0890 C   0  0  0  0  0  0  0  0  0  0  0  0
   -7.3710    4.5840    0.2120 O   0  0  0  0  0  0  0  0  0  0  0  0
   -2.4250    0.6760   -0.9140 C   0  0  0  0  0  0  0  0  0  0  0  0
   -1.2220   -0.0770   -0.4470 C   0  0  1  0  0  0  0  0  0  0  0  0
   -0.9030   -1.1120   -1.5040 C   0  0  0  0  0  0  0  0  0  0  0  0
   -1.9420   -2.1130   -1.7320 C   0  0  0  0  0  0  0  0  0  0  0  0
   -2.9180   -1.9350   -2.6740 C   0  0  0  0  0  0  0  0  0  0  0  0
   -3.9010   -2.9130   -2.8710 C   0  0  0  0  0  0  0  0  0  0  0  0
   -3.9080   -4.0640   -2.1290 C   0  0  0  0  0  0  0  0  0  0  0  0
   -4.8930   -5.0500   -2.3230 O   0  0  0  0  0  0  0  0  0  0  0  0
   -2.9070   -4.2050   -1.1910 C   0  0  0  0  0  0  0  0  0  0  0  0
   -1.9260   -3.2660   -0.9710 C   0  0  0  0  0  0  0  0  0  0  0  0
   -1.4650   -0.7600    0.8430 C   0  0  0  0  0  0  0  0  0  0  0  0
   -0.6550   -0.6900    1.8290 O   0  0  0  0  0  0  0  0  0  0  0  0
   -2.6010   -1.5130    1.0290 O   0  0  0  0  0  0  0  0  0  0  0  0
   -2.9240   -2.2010    2.2160 C   0  0  0  0  0  0  0  0  0  0  0  0
    6.8100   -0.9430   -0.7790 O   0  0  0  0  0  0  0  0  0  0  0  0
    6.6720    0.3890   -1.1250 C   0  0  0  0  0  0  0  0  0  0  0  0
    7.7870    0.8520   -2.0230 C   0  0  0  0  0  0  0  0  0  0  0  0
  1  2  1  0
  2  3  1  0
  3  4  1  0
  4  5  1  0
  4 34  1  0
  5  6  1  0
  6  7  1  0
  7  8  1  0
  9  8  1  1
  9 10  1  0
  9 21  1  0
 10 11  1  0
 11 12  1  0
 12 13  1  0
 12 20  1  0
 13 14  2  3
 14 15  1  0
 14 16  1  0
 16 17  1  0
 16 18  2  3
 18 19  1  0
 20 21  1  0
 21 22  1  6
 21 30  1  0
 22 23  1  0
 23 24  2  0
 23 29  1  0
 24 25  1  0
 25 26  2  0
 26 27  1  0
 26 28  1  0
 28 29  2  0
 30 31  2  0
 30 32  1  0
 32 33  1  0
 34 35  1  0
 35 36  1  0
M  END
