
     RDKit          3D

 16 17  0  0  0  0  0  0  0  0999 V2000
   -2.1120    1.3190   -0.4840 C   0  0  0  0  0  0  0  0  0  0  0  0
   -2.1210   -0.1650   -0.1990 C   0  0  2  0  0  0  0  0  0  0  0  0
   -3.4960   -0.5260    0.3240 C   0  0  0  0  0  0  0  0  0  0  0  0
   -1.0900   -0.5580    0.8130 C   0  0  0  0  0  0  0  0  0  0  0  0
    0.2690   -0.2520    0.4230 N   0  0  0  0  0  0  0  0  0  0  0  0
    0.8510    0.9160    0.7370 C   0  0  0  0  0  0  0  0  0  0  0  0
    0.2380    1.7840    1.3830 O   0  0  0  0  0  0  0  0  0  0  0  0
    2.1220    1.2170    0.3730 N   0  0  0  0  0  0  0  0  0  0  0  0
    2.7180    2.5000    0.7340 C   0  0  0  0  0  0  0  0  0  0  0  0
    2.7890    0.2800   -0.3260 C   0  0  0  0  0  0  0  0  0  0  0  0
    3.9630    0.5200   -0.6800 O   0  0  0  0  0  0  0  0  0  0  0  0
    2.2510   -0.9390   -0.6810 C   0  0  0  0  0  0  0  0  0  0  0  0
    2.6730   -2.0250   -1.3540 N   0  0  0  0  0  0  0  0  0  0  0  0
    1.7040   -2.9560   -1.4030 C   0  0  0  0  0  0  0  0  0  0  0  0
    0.6660   -2.4150   -0.7400 N   0  0  0  0  0  0  0  0  0  0  0  0
    0.9530   -1.1840   -0.2810 C   0  0  0  0  0  0  0  0  0  0  0  0
  2  1  1  1
  2  3  1  0
  2  4  1  0
  4  5  1  0
  5  6  1  0
  5 16  1  0
  6  7  2  0
  6  8  1  0
  8  9  1  0
  8 10  1  0
 10 11  2  0
 10 12  1  0
 12 13  1  0
 12 16  2  0
 13 14  2  0
 14 15  1  0
 15 16  1  0
M  END
