
     RDKit          3D

 22 24  0  0  0  0  0  0  0  0999 V2000
    6.5870    1.6960    0.8020 C   0  0  0  0  0  0  0  0  0  0  0  0
    5.4130    0.9150    0.3400 C   0  0  0  0  0  0  0  0  0  0  0  0
    4.5480    1.2340   -0.6620 C   0  0  0  0  0  0  0  0  0  0  0  0
    3.5680    0.2060   -0.7410 C   0  0  0  0  0  0  0  0  0  0  0  0
    3.9280   -0.6540    0.2130 N   0  0  0  0  0  0  0  0  0  0  0  0
    4.9780   -0.2780    0.8550 N   0  0  0  0  0  0  0  0  0  0  0  0
    3.1160   -1.8830    0.1910 C   0  0  0  0  0  0  0  0  0  0  0  0
    1.6690   -1.4340    0.1330 C   0  0  0  0  0  0  0  0  0  0  0  0
    1.3990   -0.5000   -0.9230 C   0  0  0  0  0  0  0  0  0  0  0  0
    0.3300   -0.2550   -1.8530 N   0  0  0  0  0  0  0  0  0  0  0  0
   -0.9580   -0.0290   -1.3760 C   0  0  0  0  0  0  0  0  0  0  0  0
   -0.9070    0.0630   -0.0950 O   0  0  0  0  0  0  0  0  0  0  0  0
   -2.1030    0.0830   -2.2360 C   0  0  0  0  0  0  0  0  0  0  0  0
   -3.2480    0.4670   -1.4980 O   0  0  0  0  0  0  0  0  0  0  0  0
   -3.7670   -0.2820   -0.4500 C   0  0  0  0  0  0  0  0  0  0  0  0
   -3.1670   -1.3470   -0.1670 O   0  0  0  0  0  0  0  0  0  0  0  0
   -4.9410    0.1160    0.3050 C   0  0  0  0  0  0  0  0  0  0  0  0
   -5.4540   -0.5760    1.3040 C   0  0  0  0  0  0  0  0  0  0  0  0
   -6.6480    0.1060    1.8560 C   0  0  0  0  0  0  0  0  0  0  0  0
   -6.7360    1.2930    1.0190 N   0  0  0  0  0  0  0  0  0  0  0  0
   -5.7810    1.2920    0.1550 C   0  0  0  0  0  0  0  0  0  0  0  0
    2.3350    0.3050   -1.3560 N   0  0  0  0  0  0  0  0  0  0  0  0
  1  2  1  0
  2  3  1  0
  2  6  2  0
  3  4  2  0
  4  5  1  0
  4 22  1  0
  5  6  1  0
  5  7  1  0
  7  8  1  0
  8  9  1  0
  9 10  1  0
  9 22  2  0
 10 11  1  0
 11 12  2  0
 11 13  1  0
 13 14  1  0
 14 15  1  0
 15 16  2  0
 15 17  1  0
 17 18  2  0
 17 21  1  0
 18 19  1  0
 19 20  1  0
 20 21  2  0
M  END
