
     RDKit          3D

 22 24  0  0  0  0  0  0  0  0999 V2000
    4.0260    1.4180    0.3040 C   0  0  0  0  0  0  0  0  0  0  0  0
    4.1650   -0.1030    0.3290 C   0  0  0  0  0  0  0  0  0  0  0  0
    4.0260   -0.5740    1.7300 C   0  0  0  0  0  0  0  0  0  0  0  0
    2.7440   -0.4500    2.2530 O   0  0  0  0  0  0  0  0  0  0  0  0
    1.6540   -1.0440    1.7510 C   0  0  0  0  0  0  0  0  0  0  0  0
    0.5210   -0.4710    2.3830 C   0  0  0  0  0  0  0  0  0  0  0  0
   -0.8270   -0.7040    2.2640 O   0  0  0  0  0  0  0  0  0  0  0  0
   -1.3670   -0.6830    0.9110 C   0  0  0  0  0  0  0  0  0  0  0  0
   -2.3440    0.1660    0.7480 N   0  0  0  0  0  0  0  0  0  0  0  0
   -2.8850    0.3270   -0.5440 C   0  0  0  0  0  0  0  0  0  0  0  0
   -3.7500    1.2200   -1.0560 C   0  0  0  0  0  0  0  0  0  0  0  0
   -4.5270    2.1690   -0.4870 C   0  0  0  0  0  0  0  0  0  0  0  0
   -5.9330    2.3790   -0.3260 C   0  0  0  0  0  0  0  0  0  0  0  0
   -7.2780    2.5690   -0.1860 N   0  0  0  0  0  0  0  0  0  0  0  0
   -3.7510    0.9690   -2.5240 N   0  0  0  0  0  0  0  0  0  0  0  0
   -2.9450    0.0180   -2.6670 N   0  0  0  0  0  0  0  0  0  0  0  0
   -2.3530   -0.4630   -1.6140 C   0  0  0  0  0  0  0  0  0  0  0  0
   -1.3570   -1.3470   -1.3930 C   0  0  0  0  0  0  0  0  0  0  0  0
   -0.8540   -1.4360   -0.0490 C   0  0  0  0  0  0  0  0  0  0  0  0
    0.2740   -2.3500   -0.0480 N   0  0  0  0  0  0  0  0  0  0  0  0
    1.4340   -2.0740    0.7980 C   0  0  0  0  0  0  0  0  0  0  0  0
    2.4180   -2.8950    0.6740 O   0  0  0  0  0  0  0  0  0  0  0  0
  1  2  1  0
  2  3  1  0
  3  4  1  0
  4  5  1  0
  5  6  2  0
  5 21  1  0
  6  7  1  0
  7  8  1  0
  8  9  2  0
  8 19  1  0
  9 10  1  0
 10 11  1  0
 10 17  2  0
 11 12  1  0
 11 15  2  0
 12 13  1  0
 13 14  3  0
 15 16  1  0
 16 17  1  0
 17 18  1  0
 18 19  2  0
 19 20  1  0
 20 21  1  0
 21 22  2  0
M  END
