
     RDKit          3D

 22 24  0  0  0  0  0  0  0  0999 V2000
    2.3530    3.2510    0.7210 C   0  0  0  0  0  0  0  0  0  0  0  0
    2.3060    1.8790    0.3010 N   0  0  0  0  0  0  0  0  0  0  0  0
    1.0750    1.2250    0.0610 C   0  0  0  0  0  0  0  0  0  0  0  0
   -0.0540    1.9440    0.2420 N   0  0  0  0  0  0  0  0  0  0  0  0
   -1.2290    1.3370    0.0170 C   0  0  0  0  0  0  0  0  0  0  0  0
   -2.3670    2.0320    0.1910 N   0  0  0  0  0  0  0  0  0  0  0  0
   -3.5430    1.4280   -0.0330 C   0  0  0  0  0  0  0  0  0  0  0  0
   -4.7230    2.1600    0.1510 O   0  0  0  0  0  0  0  0  0  0  0  0
   -3.6760    0.1310   -0.4330 C   0  0  0  0  0  0  0  0  0  0  0  0
   -4.8930   -0.4870   -0.6620 O   0  0  0  0  0  0  0  0  0  0  0  0
   -4.9760   -1.8200   -1.0710 C   0  0  0  0  0  0  0  0  0  0  0  0
   -2.5300   -0.6070   -0.6190 C   0  0  0  0  0  0  0  0  0  0  0  0
   -1.3180    0.0230   -0.3860 C   0  0  0  0  0  0  0  0  0  0  0  0
   -0.1690   -0.7210   -0.5740 C   0  0  0  0  0  0  0  0  0  0  0  0
   -0.2420   -1.9320   -0.9460 O   0  0  0  0  0  0  0  0  0  0  0  0
    1.0310   -0.0950   -0.3430 C   0  0  0  0  0  0  0  0  0  0  0  0
    2.2680   -0.8590   -0.5340 C   0  0  0  0  0  0  0  0  0  0  0  0
    3.0080   -0.9950   -1.6300 N   0  0  0  0  0  0  0  0  0  0  0  0
    4.0770   -1.7800   -1.4170 C   0  0  0  0  0  0  0  0  0  0  0  0
    3.9800   -2.1520   -0.0800 C   0  0  0  0  0  0  0  0  0  0  0  0
    2.8740   -1.5810    0.4350 N   0  0  0  0  0  0  0  0  0  0  0  0
    2.4150   -1.7280    1.8190 C   0  0  0  0  0  0  0  0  0  0  0  0
  1  2  1  0
  2  3  1  0
  3  4  1  0
  3 16  2  0
  4  5  1  0
  5  6  2  0
  5 13  1  0
  6  7  1  0
  7  8  1  0
  7  9  2  0
  9 10  1  0
  9 12  1  0
 10 11  1  0
 12 13  2  0
 13 14  1  0
 14 15  2  0
 14 16  1  0
 16 17  1  0
 17 18  2  0
 17 21  1  0
 18 19  1  0
 19 20  2  0
 20 21  1  0
 21 22  1  0
M  END
