
     RDKit          3D

 22 24  0  0  0  0  0  0  0  0999 V2000
   -5.0990    2.0120    0.6800 C   0  0  0  0  0  0  0  0  0  0  0  0
   -4.0760    0.9530    0.4980 C   0  0  0  0  0  0  0  0  0  0  0  0
   -2.7940    1.2320    0.0760 C   0  0  0  0  0  0  0  0  0  0  0  0
   -1.8300    0.2580   -0.0990 C   0  0  0  0  0  0  0  0  0  0  0  0
   -2.1510   -1.0380    0.1540 C   0  0  0  0  0  0  0  0  0  0  0  0
   -3.4290   -1.3610    0.5790 C   0  0  0  0  0  0  0  0  0  0  0  0
   -4.3820   -0.3670    0.7480 C   0  0  0  0  0  0  0  0  0  0  0  0
   -5.7350   -0.7600    1.2050 C   0  0  0  0  0  0  0  0  0  0  0  0
   -1.1690   -2.0070   -0.0270 O   0  0  0  0  0  0  0  0  0  0  0  0
    0.0940   -1.6720   -0.4490 N   0  0  0  0  0  0  0  0  0  0  0  0
    0.4640   -0.4620   -0.7060 C   0  0  0  0  0  0  0  0  0  0  0  0
    1.8500   -0.1670   -1.1610 C   0  0  0  0  0  0  0  0  0  0  0  0
    2.6080   -1.4490   -1.2370 C   0  0  0  0  0  0  0  0  0  0  0  0
    3.9410   -1.3370   -1.6550 O   0  0  0  0  0  0  0  0  0  0  0  0
    4.8490   -0.5900   -0.9460 C   0  0  0  0  0  0  0  0  0  0  0  0
    4.4510    0.0420    0.1670 N   0  0  0  0  0  0  0  0  0  0  0  0
    5.2460    0.7920    0.9300 C   0  0  0  0  0  0  0  0  0  0  0  0
    6.5330    0.9180    0.5500 N   0  0  0  0  0  0  0  0  0  0  0  0
    6.9530    0.2920   -0.5640 C   0  0  0  0  0  0  0  0  0  0  0  0
    8.1760    0.4360   -0.8880 O   0  0  0  0  0  0  0  0  0  0  0  0
    6.1390   -0.4610   -1.3220 N   0  0  0  0  0  0  0  0  0  0  0  0
   -0.5100    0.5620   -0.5350 N   0  0  0  0  0  0  0  0  0  0  0  0
  1  2  1  0
  2  3  2  0
  2  7  1  0
  3  4  1  0
  4  5  2  0
  4 22  1  0
  5  6  1  0
  5  9  1  0
  6  7  2  0
  7  8  1  0
  9 10  1  0
 10 11  2  0
 11 12  1  0
 11 22  1  0
 12 13  1  0
 13 14  1  0
 14 15  1  0
 15 16  1  0
 15 21  2  0
 16 17  2  0
 17 18  1  0
 18 19  1  0
 19 20  2  0
 19 21  1  0
M  END
