
     RDKit          3D

 29 30  0  0  0  0  0  0  0  0999 V2000
   -1.9520    1.5000   -0.2270 C   0  0  0  0  0  0  0  0  0  0  0  0
   -1.8560    0.1200    0.2990 C   0  0  2  0  0  0  0  0  0  0  0  0
   -0.6050   -0.4940   -0.0840 N   0  0  0  0  0  0  0  0  0  0  0  0
    0.4520    0.2770    0.5210 C   0  0  0  0  0  0  0  0  0  0  0  0
    1.7980   -0.2990    0.1710 C   0  0  0  0  0  0  0  0  0  0  0  0
    2.1060   -1.3280   -0.6760 C   0  0  0  0  0  0  0  0  0  0  0  0
    3.4410   -1.4720   -0.6540 N   0  0  0  0  0  0  0  0  0  0  0  0
    3.9870   -0.5520    0.1940 C   0  0  0  0  0  0  0  0  0  0  0  0
    5.4440   -0.4240    0.4650 C   0  0  0  0  0  0  0  0  0  0  0  0
    6.0110    0.5520   -0.5430 C   0  0  0  0  0  0  0  0  0  0  0  0
    7.4860    0.6820   -0.2720 C   0  0  1  0  0  0  0  0  0  0  0  0
    8.1230   -0.6800   -0.4260 C   0  0  0  0  0  0  0  0  0  0  0  0
    8.2950    1.8650   -1.3400 S   0  0  0  0  0  0  0  0  0  0  0  0
   10.0040    1.8920   -0.8900 N   0  0  0  0  0  0  0  0  0  0  0  0
    7.6900    3.2420   -1.2230 O   0  0  0  0  0  0  0  0  0  0  0  0
    2.9630    0.1420    0.6770 N   0  0  0  0  0  0  0  0  0  0  0  0
   -3.0180   -0.7580    0.0130 C   0  0  0  0  0  0  0  0  0  0  0  0
   -2.7880   -1.8680   -0.4940 O   0  0  0  0  0  0  0  0  0  0  0  0
   -4.3530   -0.3760    0.2960 N   0  0  0  0  0  0  0  0  0  0  0  0
   -5.5180   -1.1370    0.0710 C   0  0  0  0  0  0  0  0  0  0  0  0
   -5.5130   -2.4650   -0.2410 C   0  0  0  0  0  0  0  0  0  0  0  0
   -6.6940   -3.2030   -0.3960 C   0  0  0  0  0  0  0  0  0  0  0  0
   -7.9050   -2.6120   -0.2390 C   0  0  0  0  0  0  0  0  0  0  0  0
   -7.9350   -1.2570    0.0790 C   0  0  0  0  0  0  0  0  0  0  0  0
   -6.7690   -0.5230    0.2330 C   0  0  0  0  0  0  0  0  0  0  0  0
   -6.8010    0.8660    0.4940 N   0  0  0  0  0  0  0  0  0  0  0  0
   -7.9440    1.6140    0.8640 C   0  0  0  0  0  0  0  0  0  0  0  0
   -7.8090    3.0330    1.0900 N   0  0  0  0  0  0  0  0  0  0  0  0
   -9.0600    1.1030    1.0040 O   0  0  0  0  0  0  0  0  0  0  0  0
  2  1  1  6
  2  3  1  0
  2 17  1  0
  3  4  1  0
  4  5  1  0
  5  6  2  0
  5 16  1  0
  6  7  1  0
  7  8  1  0
  8  9  1  0
  8 16  2  0
  9 10  1  0
 10 11  1  0
 11 12  1  6
 11 13  1  0
 13 14  1  1
 13 15  2  0
 17 18  2  0
 17 19  1  0
 19 20  1  0
 20 21  2  0
 20 25  1  0
 21 22  1  0
 22 23  2  0
 23 24  1  0
 24 25  2  0
 25 26  1  0
 26 27  1  0
 27 28  1  0
 27 29  2  0
M  END
