
     RDKit          3D

 31 35  0  0  0  0  0  0  0  0999 V2000
    7.0860    1.6570    1.7520 C   0  0  0  0  0  0  0  0  0  0  0  0
    7.5560    0.3880    1.2300 N   0  0  0  0  0  0  0  0  0  0  0  0
    6.8190   -0.4780    0.5340 C   0  0  0  0  0  0  0  0  0  0  0  0
    5.3990   -0.3000    0.1720 C   0  0  0  0  0  0  0  0  0  0  0  0
    4.8160   -1.2440   -0.5160 C   0  0  0  0  0  0  0  0  0  0  0  0
    3.4230   -1.1940   -0.9370 C   0  0  0  0  0  0  0  0  0  0  0  0
    2.9050   -2.1280   -1.5990 O   0  0  0  0  0  0  0  0  0  0  0  0
    2.5760   -0.0980   -0.6280 N   0  0  0  0  0  0  0  0  0  0  0  0
    1.2150   -0.0750   -1.0530 C   0  0  0  0  0  0  0  0  0  0  0  0
    0.5350   -0.9860   -1.7550 N   0  0  0  0  0  0  0  0  0  0  0  0
   -0.7110   -0.6070   -1.9540 N   0  0  0  0  0  0  0  0  0  0  0  0
   -1.6780   -1.3730   -2.6740 C   0  0  0  0  0  0  0  0  0  0  0  0
   -0.8740    0.5920   -1.3700 C   0  0  0  0  0  0  0  0  0  0  0  0
    0.3260    0.9490   -0.7950 C   0  0  0  0  0  0  0  0  0  0  0  0
    0.1310    2.1790   -0.2070 C   0  0  0  0  0  0  0  0  0  0  0  0
   -1.1270    2.5140   -0.4340 N   0  0  0  0  0  0  0  0  0  0  0  0
   -1.7800    1.5740   -1.1410 N   0  0  0  0  0  0  0  0  0  0  0  0
   -3.1540    1.6530   -1.5340 C   0  0  0  0  0  0  0  0  0  0  0  0
   -4.1090    1.1020   -0.5440 C   0  0  0  0  0  0  0  0  0  0  0  0
   -4.6270    1.8910    0.4900 C   0  0  0  0  0  0  0  0  0  0  0  0
   -5.5180    1.3840    1.4120 C   0  0  0  0  0  0  0  0  0  0  0  0
   -5.9270    0.0690    1.3380 C   0  0  0  0  0  0  0  0  0  0  0  0
   -5.4320   -0.7280    0.3300 C   0  0  0  0  0  0  0  0  0  0  0  0
   -4.5420   -0.2020   -0.5820 C   0  0  0  0  0  0  0  0  0  0  0  0
   -6.0500   -2.0670    0.5150 C   0  0  0  0  0  0  0  0  0  0  0  0
   -7.3240   -1.7150    1.1330 N   0  0  0  0  0  0  0  0  0  0  0  0
   -6.8600   -0.7690    2.1610 C   0  0  0  0  0  0  0  0  0  0  0  0
    7.6320   -1.5450    0.2290 C   0  0  0  0  0  0  0  0  0  0  0  0
    8.8040   -1.2790    0.7470 O   0  0  0  0  0  0  0  0  0  0  0  0
    8.7860   -0.1200    1.3560 C   0  0  0  0  0  0  0  0  0  0  0  0
    9.7800    0.4190    1.9610 O   0  0  0  0  0  0  0  0  0  0  0  0
  1  2  1  0
  2  3  1  0
  2 30  1  0
  3  4  1  0
  3 28  2  0
  4  5  2  3
  5  6  1  0
  6  7  2  0
  6  8  1  0
  8  9  1  0
  9 10  2  0
  9 14  1  0
 10 11  1  0
 11 12  1  0
 11 13  1  0
 13 14  2  0
 13 17  1  0
 14 15  1  0
 15 16  2  0
 16 17  1  0
 17 18  1  0
 18 19  1  0
 19 20  2  0
 19 24  1  0
 20 21  1  0
 21 22  2  0
 22 23  1  0
 22 27  1  0
 23 24  2  0
 23 25  1  0
 25 26  1  0
 26 27  1  0
 28 29  1  0
 29 30  1  0
 30 31  2  0
M  END
