
     RDKit          3D

 28 29  0  0  0  0  0  0  0  0999 V2000
    7.6790   -1.6900   -2.5840 C   0  0  0  0  0  0  0  0  0  0  0  0
    7.7780   -0.3840   -2.5140 C   0  0  0  0  0  0  0  0  0  0  0  0
    7.3820    0.4610   -1.3770 C   0  0  0  0  0  0  0  0  0  0  0  0
    6.7450   -0.2010   -0.2800 N   0  0  0  0  0  0  0  0  0  0  0  0
    5.3880   -0.5830   -0.5890 C   0  0  1  0  0  0  0  0  0  0  0  0
    4.9040   -1.3300    0.5520 N   0  0  0  0  0  0  0  0  0  0  0  0
    3.8630   -2.1460    0.1040 N   0  0  0  0  0  0  0  0  0  0  0  0
    2.5180   -1.7450   -0.0910 C   0  0  0  0  0  0  0  0  0  0  0  0
    1.6390   -2.6250   -0.2590 O   0  0  0  0  0  0  0  0  0  0  0  0
    2.0190   -0.3390   -0.1190 C   0  0  2  0  0  0  0  0  0  0  0  0
    0.5830   -0.2950   -0.1220 N   0  0  0  0  0  0  0  0  0  0  0  0
   -0.0820    0.3260    0.9680 C   0  0  0  0  0  0  0  0  0  0  0  0
    0.5920    0.8350    1.9280 O   0  0  0  0  0  0  0  0  0  0  0  0
   -1.5320    0.4180    1.0540 C   0  0  0  0  0  0  0  0  0  0  0  0
   -2.4240   -0.0680    0.1720 N   0  0  0  0  0  0  0  0  0  0  0  0
   -3.6860    0.2170    0.5970 C   0  0  0  0  0  0  0  0  0  0  0  0
   -4.9240   -0.1440   -0.0760 C   0  0  0  0  0  0  0  0  0  0  0  0
   -6.1110    0.1770    0.3990 C   0  0  0  0  0  0  0  0  0  0  0  0
   -7.3440   -0.1870   -0.2780 C   0  0  0  0  0  0  0  0  0  0  0  0
   -8.5070    0.1540    0.2320 C   0  0  0  0  0  0  0  0  0  0  0  0
   -7.2900   -0.9420   -1.5430 C   0  0  0  0  0  0  0  0  0  0  0  0
   -6.5990   -0.2690   -2.5490 O   0  0  0  0  0  0  0  0  0  0  0  0
   -3.6160    0.9020    1.7800 C   0  0  0  0  0  0  0  0  0  0  0  0
   -2.2740    1.0210    2.0560 C   0  0  0  0  0  0  0  0  0  0  0  0
   -1.7280    1.7070    3.2650 C   0  0  0  0  0  0  0  0  0  0  0  0
   -2.7990    2.2140    4.0850 N   0  0  0  0  0  0  0  0  0  0  0  0
    2.6410    0.4430   -1.2500 C   0  0  0  0  0  0  0  0  0  0  0  0
    4.3610    0.8480   -0.9670 S   0  0  0  0  0  0  0  0  0  0  0  0
  1  2  2  0
  2  3  1  0
  3  4  1  0
  5  4  1  1
  5  6  1  0
  5 28  1  0
  6  7  1  0
  7  8  1  0
  8  9  2  0
  8 10  1  0
 10 11  1  6
 10 27  1  0
 11 12  1  0
 12 13  2  0
 12 14  1  0
 14 15  1  0
 14 24  2  0
 15 16  1  0
 16 17  1  0
 16 23  2  0
 17 18  2  3
 18 19  1  0
 19 20  2  0
 19 21  1  0
 21 22  1  0
 23 24  1  0
 24 25  1  0
 25 26  1  0
 27 28  1  0
M  END
