
     RDKit          3D

 29 31  0  0  0  0  0  0  0  0999 V2000
   -3.6320   -1.6130    0.8930 C   0  0  0  0  0  0  0  0  0  0  0  0
   -4.6060   -0.8830    0.0050 C   0  0  0  0  0  0  0  0  0  0  0  0
   -5.9120   -1.0550    0.0210 C   0  0  0  0  0  0  0  0  0  0  0  0
   -6.6470   -1.9570    0.8760 N   0  0  0  0  0  0  0  0  0  0  0  0
   -8.1160   -1.3920    1.5830 S   0  0  0  0  0  0  0  0  0  0  0  0
   -8.4240   -2.0380    2.9240 O   0  0  0  0  0  0  0  0  0  0  0  0
   -6.4960   -0.1580   -0.9940 C   0  0  1  0  0  0  0  0  0  0  0  0
   -7.4310    0.7190   -0.4390 O   0  0  0  0  0  0  0  0  0  0  0  0
   -5.3520    0.5460   -1.5860 C   0  0  0  0  0  0  0  0  0  0  0  0
   -4.2610    0.1230   -1.0050 C   0  0  0  0  0  0  0  0  0  0  0  0
   -3.1180    0.8350   -1.6190 C   0  0  2  0  0  0  0  0  0  0  0  0
   -1.9450    0.8600   -0.8270 N   0  0  0  0  0  0  0  0  0  0  0  0
   -0.6940    0.2610   -1.1700 C   0  0  0  0  0  0  0  0  0  0  0  0
   -0.6250   -0.3300   -2.2490 O   0  0  0  0  0  0  0  0  0  0  0  0
    0.4870    0.3340   -0.2810 C   0  0  0  0  0  0  0  0  0  0  0  0
    1.6180   -0.4050   -0.9650 C   0  0  0  0  0  0  0  0  0  0  0  0
    2.8790   -0.3820   -0.1240 C   0  0  0  0  0  0  0  0  0  0  0  0
    3.3550    1.0130    0.1360 C   0  0  0  0  0  0  0  0  0  0  0  0
    4.6010    0.9630    0.9730 C   0  0  0  0  0  0  0  0  0  0  0  0
    5.6370    0.2370    0.2690 N   0  0  0  0  0  0  0  0  0  0  0  0
    6.9130    0.0400    0.8760 C   0  0  0  0  0  0  0  0  0  0  0  0
    7.1620    0.5300    2.1120 N   0  0  0  0  0  0  0  0  0  0  0  0
    8.3870    0.3340    2.6830 C   0  0  0  0  0  0  0  0  0  0  0  0
    9.3270   -0.3470    1.9990 N   0  0  0  0  0  0  0  0  0  0  0  0
    9.0880   -0.8370    0.7700 C   0  0  0  0  0  0  0  0  0  0  0  0
   10.0470   -1.5600    0.0120 N   0  0  0  0  0  0  0  0  0  0  0  0
    7.8730   -0.6290    0.2330 N   0  0  0  0  0  0  0  0  0  0  0  0
   -3.6980    2.1260   -2.0290 C   0  0  0  0  0  0  0  0  0  0  0  0
   -5.0200    1.5930   -2.6280 C   0  0  0  0  0  0  0  0  0  0  0  0
  1  2  1  0
  2  3  2  0
  2 10  1  0
  3  4  1  0
  3  7  1  0
  4  5  1  0
  5  6  2  0
  7  8  1  1
  7  9  1  0
  9 10  2  0
  9 29  1  0
 10 11  1  0
 11 12  1  1
 11 28  1  0
 12 13  1  0
 13 14  2  0
 13 15  1  0
 15 16  1  0
 16 17  1  0
 17 18  1  0
 18 19  1  0
 19 20  1  0
 20 21  1  0
 21 22  2  0
 21 27  1  0
 22 23  1  0
 23 24  2  0
 24 25  1  0
 25 26  1  0
 25 27  2  0
 28 29  1  0
M  END
