
     RDKit          3D

 29 31  0  0  0  0  0  0  0  0999 V2000
   -1.9460   -3.9360   -0.8640 C   0  0  0  0  0  0  0  0  0  0  0  0
   -1.3370   -2.8570    0.0480 C   0  0  2  0  0  0  0  0  0  0  0  0
   -1.5670   -3.2530    1.4260 C   0  0  0  0  0  0  0  0  0  0  0  0
   -1.0420   -4.5400    1.8100 N   0  0  0  0  0  0  0  0  0  0  0  0
   -2.1580   -2.6330    2.3290 O   0  0  0  0  0  0  0  0  0  0  0  0
   -1.7890   -1.5150   -0.3890 C   0  0  2  0  0  0  0  0  0  0  0  0
   -1.3020   -1.3200   -1.8250 C   0  0  0  0  0  0  0  0  0  0  0  0
    0.1190   -1.4300   -1.9840 N   0  0  0  0  0  0  0  0  0  0  0  0
    1.0460   -0.5780   -1.3210 C   0  0  0  0  0  0  0  0  0  0  0  0
    0.6520    0.3260   -0.5530 O   0  0  0  0  0  0  0  0  0  0  0  0
    2.4460   -0.7520   -1.5290 N   0  0  0  0  0  0  0  0  0  0  0  0
    3.4500    0.0460   -0.9150 C   0  0  0  0  0  0  0  0  0  0  0  0
    4.7930   -0.1010   -1.0990 N   0  0  0  0  0  0  0  0  0  0  0  0
    5.4600    0.8000   -0.3830 C   0  0  0  0  0  0  0  0  0  0  0  0
    6.8040    1.0720   -0.2200 C   0  0  0  0  0  0  0  0  0  0  0  0
    7.1720    2.0900    0.6040 C   0  0  0  0  0  0  0  0  0  0  0  0
    6.2480    2.8660    1.2870 C   0  0  0  0  0  0  0  0  0  0  0  0
    4.9160    2.5970    1.1270 C   0  0  0  0  0  0  0  0  0  0  0  0
    4.5360    1.5710    0.2960 C   0  0  0  0  0  0  0  0  0  0  0  0
    3.3250    1.0710   -0.0630 N   0  0  0  0  0  0  0  0  0  0  0  0
   -1.6310   -0.4140    0.4600 N   0  0  0  0  0  0  0  0  0  0  0  0
   -2.6160    0.6090    0.1990 C   0  0  1  0  0  0  0  0  0  0  0  0
   -4.0030    0.1770    0.4870 C   0  0  0  0  0  0  0  0  0  0  0  0
   -5.1520    0.9800    0.1880 N   0  0  0  0  0  0  0  0  0  0  0  0
   -4.3030   -0.9470    1.0240 O   0  0  0  0  0  0  0  0  0  0  0  0
   -2.3350    1.8630    0.9920 C   0  0  2  0  0  0  0  0  0  0  0  0
   -3.3900    2.9290    0.6830 C   0  0  0  0  0  0  0  0  0  0  0  0
   -2.4780    4.1800    0.5990 C   0  0  0  0  0  0  0  0  0  0  0  0
   -1.1530    2.9910    0.1480 S   0  0  0  0  0  0  0  0  0  0  0  0
  2  1  1  6
  2  3  1  0
  2  6  1  0
  3  4  1  0
  3  5  2  0
  6  7  1  6
  6 21  1  0
  7  8  1  0
  8  9  1  0
  9 10  2  0
  9 11  1  0
 11 12  1  0
 12 13  2  0
 12 20  1  0
 13 14  1  0
 14 15  2  0
 14 19  1  0
 15 16  1  0
 16 17  2  0
 17 18  1  0
 18 19  2  0
 19 20  1  0
 22 21  1  1
 22 23  1  0
 22 26  1  0
 23 24  1  0
 23 25  2  0
 26 27  1  6
 26 29  1  0
 27 28  1  0
 28 29  1  0
M  END
