
     RDKit          3D

 29 32  0  0  0  0  0  0  0  0999 V2000
   -6.9650    1.6470    2.2440 C   0  0  0  0  0  0  0  0  0  0  0  0
   -5.7600    1.7440    1.6990 C   0  0  0  0  0  0  0  0  0  0  0  0
   -5.6100    1.5040    0.2460 C   0  0  0  0  0  0  0  0  0  0  0  0
   -4.6980    0.3830   -0.0550 C   0  0  0  0  0  0  0  0  0  0  0  0
   -3.4080    0.5780   -0.5070 C   0  0  0  0  0  0  0  0  0  0  0  0
   -2.6220   -0.5490   -0.7630 C   0  0  0  0  0  0  0  0  0  0  0  0
   -1.3070   -0.4010   -1.2220 C   0  0  0  0  0  0  0  0  0  0  0  0
   -0.8790    0.8930   -1.3920 O   0  0  0  0  0  0  0  0  0  0  0  0
    0.4160    1.1930   -1.8370 C   0  0  0  0  0  0  0  0  0  0  0  0
    1.4860    0.7060   -0.9340 C   0  0  0  0  0  0  0  0  0  0  0  0
    1.3920    0.2450    0.3560 C   0  0  0  0  0  0  0  0  0  0  0  0
    2.6720   -0.0960    0.7840 C   0  0  0  0  0  0  0  0  0  0  0  0
    3.4760    0.1860   -0.2970 C   0  0  0  0  0  0  0  0  0  0  0  0
    4.9180    0.0060   -0.3730 C   0  0  0  0  0  0  0  0  0  0  0  0
    5.7060   -0.4870    0.6580 C   0  0  0  0  0  0  0  0  0  0  0  0
    7.0180   -0.5060    0.1950 C   0  0  0  0  0  0  0  0  0  0  0  0
    8.1530   -0.9140    0.8580 O   0  0  0  0  0  0  0  0  0  0  0  0
    9.1550    0.0970    1.8130 S   0  0  0  0  0  0  0  0  0  0  0  0
    8.8690   -0.0440    3.2820 O   0  0  0  0  0  0  0  0  0  0  0  0
    6.9570   -0.0180   -1.1050 C   0  0  0  0  0  0  0  0  0  0  0  0
    5.7090    0.2650   -1.3850 O   0  0  0  0  0  0  0  0  0  0  0  0
    2.7400    0.6490   -1.2680 O   0  0  0  0  0  0  0  0  0  0  0  0
   -0.4920   -1.4800   -1.4900 C   0  0  0  0  0  0  0  0  0  0  0  0
   -1.0100   -2.7160   -1.2910 N   0  0  0  0  0  0  0  0  0  0  0  0
   -2.2660   -2.8960   -0.8510 C   0  0  0  0  0  0  0  0  0  0  0  0
   -3.0870   -1.8230   -0.5820 C   0  0  0  0  0  0  0  0  0  0  0  0
   -4.3580   -1.9790   -0.1380 N   0  0  0  0  0  0  0  0  0  0  0  0
   -5.1560   -0.9060    0.1230 C   0  0  0  0  0  0  0  0  0  0  0  0
   -6.3340   -1.0710    0.5350 O   0  0  0  0  0  0  0  0  0  0  0  0
  1  2  2  0
  2  3  1  0
  3  4  1  0
  4  5  2  0
  4 28  1  0
  5  6  1  0
  6  7  2  0
  6 26  1  0
  7  8  1  0
  7 23  1  0
  8  9  1  0
  9 10  1  0
 10 11  2  0
 10 22  1  0
 11 12  1  0
 12 13  2  0
 13 14  1  0
 13 22  1  0
 14 15  2  0
 14 21  1  0
 15 16  1  0
 16 17  1  0
 16 20  2  0
 17 18  1  0
 18 19  2  0
 20 21  1  0
 23 24  2  0
 24 25  1  0
 25 26  2  0
 26 27  1  0
 27 28  1  0
 28 29  2  0
M  END
