
     RDKit          3D

 29 32  0  0  0  0  0  0  0  0999 V2000
   -5.9840   -0.8770   -0.4810 C   0  0  0  0  0  0  0  0  0  0  0  0
   -4.6380   -0.8340   -0.1100 O   0  0  0  0  0  0  0  0  0  0  0  0
   -3.9430   -1.8660    0.4710 C   0  0  0  0  0  0  0  0  0  0  0  0
   -4.5730   -3.0890    0.7420 C   0  0  0  0  0  0  0  0  0  0  0  0
   -3.6770   -3.9120    1.3030 N   0  0  0  0  0  0  0  0  0  0  0  0
   -2.5250   -3.2350    1.3840 C   0  0  0  0  0  0  0  0  0  0  0  0
   -2.6500   -1.9650    0.8800 C   0  0  0  0  0  0  0  0  0  0  0  0
   -1.6050   -0.9250    0.7960 C   0  0  0  0  0  0  0  0  0  0  0  0
   -0.4450   -1.2090    1.2330 O   0  0  0  0  0  0  0  0  0  0  0  0
   -1.8250    0.3460    0.2650 N   0  0  0  0  0  0  0  0  0  0  0  0
   -0.9540    1.4330    0.0520 C   0  0  0  0  0  0  0  0  0  0  0  0
   -1.6780    3.1390    0.1890 S   0  0  0  0  0  0  0  0  0  0  0  0
   -0.0920    3.9620   -0.2140 C   0  0  0  0  0  0  0  0  0  0  0  0
    0.7130    2.9830   -0.3930 C   0  0  0  0  0  0  0  0  0  0  0  0
    0.3350    1.6600   -0.2770 C   0  0  0  0  0  0  0  0  0  0  0  0
    1.2280    0.5520   -0.7310 C   0  0  0  0  0  0  0  0  0  0  0  0
    0.7980   -0.5840   -0.8790 O   0  0  0  0  0  0  0  0  0  0  0  0
    2.5730    0.7360   -1.0060 O   0  0  0  0  0  0  0  0  0  0  0  0
    3.4290   -0.2990   -1.4310 C   0  0  0  0  0  0  0  0  0  0  0  0
    3.5400   -1.4060   -0.4620 C   0  0  0  0  0  0  0  0  0  0  0  0
    3.0570   -1.3170    0.8260 C   0  0  0  0  0  0  0  0  0  0  0  0
    3.1770   -2.3860    1.7120 C   0  0  0  0  0  0  0  0  0  0  0  0
    3.7570   -3.4880    1.3150 O   0  0  0  0  0  0  0  0  0  0  0  0
    4.2400   -3.6360    0.0960 C   0  0  0  0  0  0  0  0  0  0  0  0
    4.7810   -4.7320   -0.1960 O   0  0  0  0  0  0  0  0  0  0  0  0
    4.1400   -2.5890   -0.8230 C   0  0  0  0  0  0  0  0  0  0  0  0
    2.0660    3.6590   -0.7260 C   0  0  0  0  0  0  0  0  0  0  0  0
    1.9130    5.0860   -0.3310 C   0  0  0  0  0  0  0  0  0  0  0  0
    0.4240    5.3400   -0.3630 C   0  0  0  0  0  0  0  0  0  0  0  0
  1  2  1  0
  2  3  1  0
  3  4  2  0
  3  7  1  0
  4  5  1  0
  5  6  1  0
  6  7  2  0
  7  8  1  0
  8  9  2  0
  8 10  1  0
 10 11  1  0
 11 12  1  0
 11 15  2  0
 12 13  1  0
 13 14  2  0
 13 29  1  0
 14 15  1  0
 14 27  1  0
 15 16  1  0
 16 17  2  0
 16 18  1  0
 18 19  1  0
 19 20  1  0
 20 21  1  0
 20 26  2  0
 21 22  2  0
 22 23  1  0
 23 24  1  0
 24 25  2  0
 24 26  1  0
 27 28  1  0
 28 29  1  0
M  END
