
     RDKit          3D

 29 32  0  0  0  0  0  0  0  0999 V2000
    4.7550   -2.1930    0.2490 O   0  0  0  0  0  0  0  0  0  0  0  0
    5.2590   -1.4620    1.1250 C   0  0  0  0  0  0  0  0  0  0  0  0
    6.4610   -1.8440    1.6930 O   0  0  0  0  0  0  0  0  0  0  0  0
    4.5960   -0.2230    1.5480 C   0  0  0  0  0  0  0  0  0  0  0  0
    5.0560    0.6430    2.4900 C   0  0  0  0  0  0  0  0  0  0  0  0
    4.1400    1.6710    2.5840 C   0  0  0  0  0  0  0  0  0  0  0  0
    3.1460    1.3650    1.6700 C   0  0  0  0  0  0  0  0  0  0  0  0
    1.9470    2.2130    1.4380 C   0  0  0  0  0  0  0  0  0  0  0  0
    1.1670    1.5860    0.4430 O   0  0  0  0  0  0  0  0  0  0  0  0
    1.6830    1.3450   -0.8400 C   0  0  0  0  0  0  0  0  0  0  0  0
    2.9050    1.6830   -1.1910 N   0  0  0  0  0  0  0  0  0  0  0  0
    3.3860    1.4460   -2.4280 C   0  0  0  0  0  0  0  0  0  0  0  0
    2.6020    0.8310   -3.3830 C   0  0  0  0  0  0  0  0  0  0  0  0
    1.3180    0.4750   -3.0160 C   0  0  0  0  0  0  0  0  0  0  0  0
    0.8340    0.7210   -1.7530 C   0  0  0  0  0  0  0  0  0  0  0  0
   -0.4830    0.3660   -1.3470 N   0  0  0  0  0  0  0  0  0  0  0  0
   -1.4860   -0.2630   -2.1020 C   0  0  0  0  0  0  0  0  0  0  0  0
   -1.2470   -0.5740   -3.2880 O   0  0  0  0  0  0  0  0  0  0  0  0
   -2.8390   -0.5660   -1.5020 C   0  0  2  0  0  0  0  0  0  0  0  0
   -3.9330    0.0750   -2.3370 C   0  0  0  0  0  0  0  0  0  0  0  0
   -5.4910   -0.5940   -1.6890 S   0  0  0  0  0  0  0  0  0  0  0  0
   -5.2300   -0.8220    0.0890 C   0  0  0  0  0  0  0  0  0  0  0  0
   -6.2750   -1.2390    0.8840 C   0  0  0  0  0  0  0  0  0  0  0  0
   -6.0550   -1.4000    2.2300 C   0  0  0  0  0  0  0  0  0  0  0  0
   -4.8240   -1.1580    2.7960 C   0  0  0  0  0  0  0  0  0  0  0  0
   -3.7950   -0.7430    1.9820 C   0  0  0  0  0  0  0  0  0  0  0  0
   -3.9860   -0.5700    0.6150 C   0  0  0  0  0  0  0  0  0  0  0  0
   -2.9150   -0.1480   -0.1780 O   0  0  0  0  0  0  0  0  0  0  0  0
    3.4680    0.2400    1.0900 O   0  0  0  0  0  0  0  0  0  0  0  0
  1  2  2  0
  2  3  1  0
  2  4  1  0
  4  5  2  0
  4 29  1  0
  5  6  1  0
  6  7  2  0
  7  8  1  0
  7 29  1  0
  8  9  1  0
  9 10  1  0
 10 11  2  0
 10 15  1  0
 11 12  1  0
 12 13  2  0
 13 14  1  0
 14 15  2  0
 15 16  1  0
 16 17  1  0
 17 18  2  0
 19 17  1  6
 19 20  1  0
 19 28  1  0
 20 21  1  0
 21 22  1  0
 22 23  2  0
 22 27  1  0
 23 24  1  0
 24 25  2  0
 25 26  1  0
 26 27  2  0
 27 28  1  0
M  END
