
     RDKit          3D

 29 32  0  0  0  0  0  0  0  0999 V2000
   -7.4000    1.0920   -0.1230 C   0  0  0  0  0  0  0  0  0  0  0  0
   -6.9730   -0.1960    0.2560 O   0  0  0  0  0  0  0  0  0  0  0  0
   -5.5970   -0.4350    0.3310 C   0  0  0  0  0  0  0  0  0  0  0  0
   -4.7150    0.5750    0.0380 C   0  0  0  0  0  0  0  0  0  0  0  0
   -3.3220    0.3520    0.1080 C   0  0  0  0  0  0  0  0  0  0  0  0
   -2.4900    1.4970   -0.1110 C   0  0  0  0  0  0  0  0  0  0  0  0
   -1.3010    1.6040   -0.5530 C   0  0  0  0  0  0  0  0  0  0  0  0
   -0.3460    0.6660   -1.0120 C   0  0  0  0  0  0  0  0  0  0  0  0
   -0.4720   -0.5890   -1.1370 O   0  0  0  0  0  0  0  0  0  0  0  0
    0.9910    1.1130   -1.4140 N   0  0  0  0  0  0  0  0  0  0  0  0
    1.9620    0.1510   -1.8810 C   0  0  1  0  0  0  0  0  0  0  0  0
    2.4450    0.5540   -3.2650 C   0  0  0  0  0  0  0  0  0  0  0  0
    3.0240    1.8250   -3.1470 O   0  0  0  0  0  0  0  0  0  0  0  0
    3.1140    0.2170   -0.9500 C   0  0  0  0  0  0  0  0  0  0  0  0
    3.7990    1.2640   -0.4020 C   0  0  0  0  0  0  0  0  0  0  0  0
    4.7860    0.9300    0.3970 N   0  0  0  0  0  0  0  0  0  0  0  0
    5.1670   -0.1100    0.7100 C   0  0  0  0  0  0  0  0  0  0  0  0
    6.1920   -0.7450    1.5410 C   0  0  0  0  0  0  0  0  0  0  0  0
    7.1270   -0.0640    2.2930 C   0  0  0  0  0  0  0  0  0  0  0  0
    7.8920   -1.0210    2.9160 C   0  0  0  0  0  0  0  0  0  0  0  0
    7.3890   -2.2440    2.5160 C   0  0  0  0  0  0  0  0  0  0  0  0
    6.3880   -2.0200    1.7060 O   0  0  0  0  0  0  0  0  0  0  0  0
    3.9750   -1.2270   -0.2470 S   0  0  0  0  0  0  0  0  0  0  0  0
   -2.8640   -0.8900    0.4770 C   0  0  0  0  0  0  0  0  0  0  0  0
   -3.7810   -1.9240    0.7750 C   0  0  0  0  0  0  0  0  0  0  0  0
   -5.1310   -1.6900    0.7000 C   0  0  0  0  0  0  0  0  0  0  0  0
   -5.7480   -2.8750    1.0440 O   0  0  0  0  0  0  0  0  0  0  0  0
   -4.8010   -3.8770    1.3470 C   0  0  0  0  0  0  0  0  0  0  0  0
   -3.5720   -3.2370    1.1600 O   0  0  0  0  0  0  0  0  0  0  0  0
  1  2  1  0
  2  3  1  0
  3  4  2  0
  3 26  1  0
  4  5  1  0
  5  6  1  0
  5 24  2  0
  6  7  2  3
  7  8  1  0
  8  9  2  0
  8 10  1  0
 10 11  1  0
 11 12  1  6
 11 14  1  0
 12 13  1  0
 14 15  2  0
 14 23  1  0
 15 16  1  0
 16 17  2  0
 17 18  1  0
 17 23  1  0
 18 19  2  0
 18 22  1  0
 19 20  1  0
 20 21  2  0
 21 22  1  0
 24 25  1  0
 25 26  2  0
 25 29  1  0
 26 27  1  0
 27 28  1  0
 28 29  1  0
M  END
