
     RDKit          3D

 39 44  0  0  0  0  0  0  0  0999 V2000
    7.5440    1.7130    0.5110 C   0  0  0  0  0  0  0  0  0  0  0  0
    6.1980    1.9560    0.9490 N   0  0  2  0  0  0  0  0  0  0  0  0
    6.0810    1.9670    2.4090 C   0  0  0  0  0  0  0  0  0  0  0  0
    5.2620    0.9110    0.4890 C   0  0  0  0  0  0  0  0  0  0  0  0
    5.2600    0.8000   -0.9780 C   0  0  0  0  0  0  0  0  0  0  0  0
    6.2920    1.2240   -1.7390 N   0  0  0  0  0  0  0  0  0  0  0  0
    6.0400    1.0130   -3.0310 C   0  0  0  0  0  0  0  0  0  0  0  0
    4.7930    0.4330   -3.0610 C   0  0  0  0  0  0  0  0  0  0  0  0
    4.3300    0.3120   -1.7730 N   0  0  0  0  0  0  0  0  0  0  0  0
    3.0580   -0.2430   -1.4370 C   0  0  0  0  0  0  0  0  0  0  0  0
    2.7830   -0.9180   -0.2760 C   0  0  0  0  0  0  0  0  0  0  0  0
    1.4970   -1.4230   -0.0580 C   0  0  0  0  0  0  0  0  0  0  0  0
    0.4710   -1.2770   -0.9610 C   0  0  0  0  0  0  0  0  0  0  0  0
   -0.8540   -1.8260   -0.6990 C   0  0  0  0  0  0  0  0  0  0  0  0
   -1.0880   -3.1890   -0.6290 C   0  0  0  0  0  0  0  0  0  0  0  0
   -2.3330   -3.7200   -0.3810 C   0  0  0  0  0  0  0  0  0  0  0  0
   -3.4000   -2.8630   -0.1930 C   0  0  0  0  0  0  0  0  0  0  0  0
   -4.7210   -3.0660    0.0620 C   0  0  0  0  0  0  0  0  0  0  0  0
   -5.4210   -4.3370    0.2260 C   0  0  0  0  0  0  0  0  0  0  0  0
   -4.7310   -5.5680    0.1540 N   0  0  0  0  0  0  0  0  0  0  0  0
   -6.6670   -4.3610    0.4390 O   0  0  0  0  0  0  0  0  0  0  0  0
   -5.3260   -1.8420    0.1530 N   0  0  0  0  0  0  0  0  0  0  0  0
   -4.4140   -0.9190   -0.0380 N   0  0  0  0  0  0  0  0  0  0  0  0
   -4.6490    0.4960   -0.0260 C   0  0  0  0  0  0  0  0  0  0  0  0
   -4.3530    1.3150   -1.1020 C   0  0  0  0  0  0  0  0  0  0  0  0
   -4.6140    2.6630   -1.0120 C   0  0  0  0  0  0  0  0  0  0  0  0
   -5.1650    3.1710    0.1500 C   0  0  0  0  0  0  0  0  0  0  0  0
   -5.5170    4.3930    0.5180 O   0  0  0  0  0  0  0  0  0  0  0  0
   -6.0010    4.4030    1.7190 N   0  0  0  0  0  0  0  0  0  0  0  0
   -5.9970    3.1400    2.2320 C   0  0  0  0  0  0  0  0  0  0  0  0
   -6.4490    2.7380    3.5170 N   0  0  0  0  0  0  0  0  0  0  0  0
   -5.4630    2.3660    1.2250 C   0  0  0  0  0  0  0  0  0  0  0  0
   -5.1990    1.0150    1.1270 C   0  0  0  0  0  0  0  0  0  0  0  0
   -3.2150   -1.4760   -0.2540 C   0  0  0  0  0  0  0  0  0  0  0  0
   -1.9480   -1.0020   -0.5050 C   0  0  0  0  0  0  0  0  0  0  0  0
   -1.7080    0.3250   -0.5730 F   0  0  0  0  0  0  0  0  0  0  0  0
    0.7610   -0.5960   -2.1240 C   0  0  0  0  0  0  0  0  0  0  0  0
   -0.1780   -0.3960   -3.0840 F   0  0  0  0  0  0  0  0  0  0  0  0
    2.0180   -0.0870   -2.3680 C   0  0  0  0  0  0  0  0  0  0  0  0
  2  1  1  1
  2  3  1  0
  2  4  1  0
  4  5  1  0
  5  6  2  0
  5  9  1  0
  6  7  1  0
  7  8  2  0
  8  9  1  0
  9 10  1  0
 10 11  2  0
 10 39  1  0
 11 12  1  0
 12 13  2  0
 13 14  1  0
 13 37  1  0
 14 15  2  0
 14 35  1  0
 15 16  1  0
 16 17  2  0
 17 18  1  0
 17 34  1  0
 18 19  1  0
 18 22  2  0
 19 20  1  0
 19 21  2  0
 22 23  1  0
 23 24  1  0
 23 34  1  0
 24 25  2  0
 24 33  1  0
 25 26  1  0
 26 27  2  0
 27 28  1  0
 27 32  1  0
 28 29  1  0
 29 30  2  0
 30 31  1  0
 30 32  1  0
 32 33  2  0
 34 35  2  0
 35 36  1  0
 37 38  1  0
 37 39  2  0
M  CHG  1   2   1
M  END
