
     RDKit          3D

 39 43  0  0  0  0  0  0  0  0999 V2000
   -7.8570   -0.2350   -1.7840 C   0  0  0  0  0  0  0  0  0  0  0  0
   -6.5580   -0.1930   -1.0930 N   0  0  0  0  0  0  0  0  0  0  0  0
   -6.2440    0.9660   -0.3550 C   0  0  0  0  0  0  0  0  0  0  0  0
   -7.0780    1.9080   -0.3180 O   0  0  0  0  0  0  0  0  0  0  0  0
   -4.9970    1.1490    0.3840 C   0  0  0  0  0  0  0  0  0  0  0  0
   -4.0180    0.1800    0.4230 C   0  0  0  0  0  0  0  0  0  0  0  0
   -2.8440    0.3480    1.1280 C   0  0  0  0  0  0  0  0  0  0  0  0
   -1.9020   -0.6950    1.1110 O   0  0  0  0  0  0  0  0  0  0  0  0
   -2.1930   -1.8480    0.3830 C   0  0  0  0  0  0  0  0  0  0  0  0
   -2.8130   -2.8670    0.9100 C   0  0  0  0  0  0  0  0  0  0  0  0
   -3.1370   -4.1040    0.1670 C   0  0  0  0  0  0  0  0  0  0  0  0
   -2.6920   -4.0270   -1.1540 O   0  0  0  0  0  0  0  0  0  0  0  0
   -2.0390   -2.9530   -1.7110 C   0  0  0  0  0  0  0  0  0  0  0  0
   -1.7710   -1.8710   -1.0140 C   0  0  0  0  0  0  0  0  0  0  0  0
   -0.9360   -0.5210   -1.7510 Cl  0  0  0  0  0  0  0  0  0  0  0  0
   -2.5790    1.5080    1.8410 C   0  0  0  0  0  0  0  0  0  0  0  0
   -1.3560    1.6840    2.6170 C   0  0  0  0  0  0  0  0  0  0  0  0
   -0.1620    1.9280    1.8020 C   0  0  0  0  0  0  0  0  0  0  0  0
    0.7950    0.9270    1.6790 C   0  0  0  0  0  0  0  0  0  0  0  0
    1.9640    1.1430    0.9350 C   0  0  0  0  0  0  0  0  0  0  0  0
    2.9170    0.0880    0.8690 C   0  0  0  0  0  0  0  0  0  0  0  0
    2.6010   -0.9950    1.5260 O   0  0  0  0  0  0  0  0  0  0  0  0
    4.1560   -0.0070    0.2180 N   0  0  0  0  0  0  0  0  0  0  0  0
    4.8460    0.9270   -0.5970 C   0  0  0  0  0  0  0  0  0  0  0  0
    6.0680    0.2220   -1.1330 C   0  0  0  0  0  0  0  0  0  0  0  0
    5.7690   -1.2270   -0.9830 C   0  0  1  0  0  0  0  0  0  0  0  0
    6.9960   -2.0580   -0.8670 C   0  0  0  0  0  0  0  0  0  0  0  0
    7.1700   -3.2660   -1.5120 C   0  0  0  0  0  0  0  0  0  0  0  0
    8.4140   -3.7600   -1.1930 C   0  0  0  0  0  0  0  0  0  0  0  0
    8.9570   -2.8710   -0.3870 O   0  0  0  0  0  0  0  0  0  0  0  0
    8.1560   -1.8600   -0.1720 C   0  0  0  0  0  0  0  0  0  0  0  0
    4.9890   -1.2260    0.3230 C   0  0  0  0  0  0  0  0  0  0  0  0
    2.1170    2.3640    0.3410 C   0  0  0  0  0  0  0  0  0  0  0  0
    1.1400    3.3610    0.4730 C   0  0  0  0  0  0  0  0  0  0  0  0
   -0.0050    3.1550    1.2010 C   0  0  0  0  0  0  0  0  0  0  0  0
   -0.9680    4.1800    1.3200 N   0  0  0  0  0  0  0  0  0  0  0  0
   -3.5750    2.4890    1.7980 C   0  0  0  0  0  0  0  0  0  0  0  0
   -4.7390    2.3010    1.0890 C   0  0  0  0  0  0  0  0  0  0  0  0
   -5.7600    3.3050    1.0500 N   0  0  0  0  0  0  0  0  0  0  0  0
  1  2  1  0
  2  3  1  0
  3  4  2  0
  3  5  1  0
  5  6  2  0
  5 38  1  0
  6  7  1  0
  7  8  1  0
  7 16  2  0
  8  9  1  0
  9 10  2  0
  9 14  1  0
 10 11  1  0
 11 12  1  0
 12 13  1  0
 13 14  2  0
 14 15  1  0
 16 17  1  0
 16 37  1  0
 17 18  1  0
 18 19  2  0
 18 35  1  0
 19 20  1  0
 20 21  1  0
 20 33  2  0
 21 22  2  0
 21 23  1  0
 23 24  1  0
 23 32  1  0
 24 25  1  0
 25 26  1  0
 26 27  1  1
 26 32  1  0
 27 28  1  0
 27 31  2  0
 28 29  2  0
 29 30  1  0
 30 31  1  0
 33 34  1  0
 34 35  2  0
 35 36  1  0
 37 38  2  0
 38 39  1  0
M  END
