
     RDKit          3D

 39 43  0  0  0  0  0  0  0  0999 V2000
   -0.9340    4.7220    4.2380 C   0  0  0  0  0  0  0  0  0  0  0  0
   -0.8890    3.7950    3.0550 C   0  0  0  0  0  0  0  0  0  0  0  0
    0.0830    2.8250    2.9690 C   0  0  0  0  0  0  0  0  0  0  0  0
    0.1180    1.9800    1.8810 C   0  0  0  0  0  0  0  0  0  0  0  0
   -0.8080    2.0700    0.8500 C   0  0  0  0  0  0  0  0  0  0  0  0
   -0.6430    1.0930   -0.2610 C   0  0  1  0  0  0  0  0  0  0  0  0
   -1.4830    1.3680   -1.4550 C   0  0  0  0  0  0  0  0  0  0  0  0
   -2.8350    1.3260   -1.2210 O   0  0  0  0  0  0  0  0  0  0  0  0
   -3.6640    0.3070   -0.8390 C   0  0  0  0  0  0  0  0  0  0  0  0
   -3.3190   -0.9870   -0.6120 C   0  0  0  0  0  0  0  0  0  0  0  0
   -4.3020   -1.8930   -0.2300 C   0  0  0  0  0  0  0  0  0  0  0  0
   -5.6120   -1.5510   -0.0680 C   0  0  0  0  0  0  0  0  0  0  0  0
   -5.9540   -0.2390   -0.3000 C   0  0  0  0  0  0  0  0  0  0  0  0
   -5.0140    0.6790   -0.6770 C   0  0  0  0  0  0  0  0  0  0  0  0
   -5.5050    2.3530   -0.9630 Cl  0  0  0  0  0  0  0  0  0  0  0  0
   -7.3830    0.1270   -0.1230 C   0  0  0  0  0  0  0  0  0  0  0  0
   -8.2550   -0.8810   -0.7940 C   0  0  0  0  0  0  0  0  0  0  0  0
   -7.8440   -2.2990   -0.5890 C   0  0  0  0  0  0  0  0  0  0  0  0
   -6.6870   -2.4860    0.3370 C   0  0  0  0  0  0  0  0  0  0  0  0
    0.7950    1.1350   -0.5960 N   0  0  0  0  0  0  0  0  0  0  0  0
    1.6480    0.0380   -0.3320 C   0  0  0  0  0  0  0  0  0  0  0  0
    1.1520   -0.9850    0.1980 O   0  0  0  0  0  0  0  0  0  0  0  0
    3.1010    0.1060   -0.6800 C   0  0  0  0  0  0  0  0  0  0  0  0
    3.5500    1.1470   -1.2070 O   0  0  0  0  0  0  0  0  0  0  0  0
    3.9130   -0.9840   -0.4110 N   0  0  0  0  0  0  0  0  0  0  0  0
    5.2930   -1.0680   -0.6800 C   0  0  0  0  0  0  0  0  0  0  0  0
    6.0450   -0.0890   -1.2490 C   0  0  0  0  0  0  0  0  0  0  0  0
    7.4230   -0.2130   -1.5010 C   0  0  0  0  0  0  0  0  0  0  0  0
    8.0860   -1.3710   -1.1710 C   0  0  0  0  0  0  0  0  0  0  0  0
    9.3940   -1.5840   -1.3710 N   0  0  0  0  0  0  0  0  0  0  0  0
    9.9700   -2.7520   -1.0170 C   0  0  0  0  0  0  0  0  0  0  0  0
   11.2020   -2.8730   -1.2380 O   0  0  0  0  0  0  0  0  0  0  0  0
    9.2830   -3.7550   -0.4530 N   0  0  0  0  0  0  0  0  0  0  0  0
    7.9670   -3.5950   -0.2280 C   0  0  0  0  0  0  0  0  0  0  0  0
    7.2860   -2.4230   -0.5610 C   0  0  0  0  0  0  0  0  0  0  0  0
    5.9590   -2.2570   -0.3370 C   0  0  0  0  0  0  0  0  0  0  0  0
    5.2970   -3.1940    0.1950 O   0  0  0  0  0  0  0  0  0  0  0  0
   -1.7670    3.0290    0.9380 C   0  0  0  0  0  0  0  0  0  0  0  0
   -1.8100    3.8880    2.0340 C   0  0  0  0  0  0  0  0  0  0  0  0
  1  2  1  0
  2  3  2  0
  2 39  1  0
  3  4  1  0
  4  5  2  0
  5  6  1  0
  5 38  1  0
  6  7  1  6
  6 20  1  0
  7  8  1  0
  8  9  1  0
  9 10  2  0
  9 14  1  0
 10 11  1  0
 11 12  2  0
 12 13  1  0
 12 19  1  0
 13 14  2  0
 13 16  1  0
 14 15  1  0
 16 17  1  0
 17 18  1  0
 18 19  1  0
 20 21  1  0
 21 22  2  0
 21 23  1  0
 23 24  2  0
 23 25  1  0
 25 26  1  0
 26 27  2  0
 26 36  1  0
 27 28  1  0
 28 29  2  0
 29 30  1  0
 29 35  1  0
 30 31  1  0
 31 32  2  0
 31 33  1  0
 33 34  1  0
 34 35  2  0
 35 36  1  0
 36 37  2  0
 38 39  2  0
M  END
