
     RDKit          3D

 39 43  0  0  0  0  0  0  0  0999 V2000
   -3.7630    2.0920   -0.8920 C   0  0  0  0  0  0  0  0  0  0  0  0
   -2.5850    1.2610   -0.5300 C   0  0  0  0  0  0  0  0  0  0  0  0
   -1.3920    1.6090   -1.0000 N   0  0  0  0  0  0  0  0  0  0  0  0
   -0.2580    0.8810   -0.7020 C   0  0  0  0  0  0  0  0  0  0  0  0
    0.9850    1.2990   -1.2030 N   0  0  0  0  0  0  0  0  0  0  0  0
    1.0900    2.4480   -2.0810 C   0  0  0  0  0  0  0  0  0  0  0  0
    0.6400    2.2150   -3.4810 C   0  0  0  0  0  0  0  0  0  0  0  0
    0.8230    3.4520   -4.1500 O   0  0  0  0  0  0  0  0  0  0  0  0
   -0.3690   -0.2040    0.0840 C   0  0  0  0  0  0  0  0  0  0  0  0
    0.7400   -1.0950    0.4840 C   0  0  1  0  0  0  0  0  0  0  0  0
    0.9180   -2.2310   -0.4280 C   0  0  0  0  0  0  0  0  0  0  0  0
    0.5470   -3.5420   -0.0700 C   0  0  0  0  0  0  0  0  0  0  0  0
    0.6870   -4.6100   -0.9280 C   0  0  0  0  0  0  0  0  0  0  0  0
    1.1950   -4.4280   -2.1630 N   0  0  0  0  0  0  0  0  0  0  0  0
    1.5510   -3.2100   -2.5240 C   0  0  0  0  0  0  0  0  0  0  0  0
    1.4200   -2.1270   -1.6830 C   0  0  0  0  0  0  0  0  0  0  0  0
    1.9320   -0.4510    1.0240 C   0  0  0  0  0  0  0  0  0  0  0  0
    3.2000   -0.9130    0.7880 C   0  0  0  0  0  0  0  0  0  0  0  0
    3.2940   -2.5980    0.4540 Cl  0  0  0  0  0  0  0  0  0  0  0  0
    4.4190   -0.2480    0.7800 C   0  0  0  0  0  0  0  0  0  0  0  0
    4.6630    0.9780    1.3960 C   0  0  0  0  0  0  0  0  0  0  0  0
    3.7830    1.7800    2.1280 C   0  0  0  0  0  0  0  0  0  0  0  0
    4.2730    2.8400    2.6500 O   0  0  0  0  0  0  0  0  0  0  0  0
    2.4750    1.5870    2.3610 N   0  0  0  0  0  0  0  0  0  0  0  0
    1.6510    0.6760    1.8160 C   0  0  0  0  0  0  0  0  0  0  0  0
    0.4260    0.8480    2.0430 O   0  0  0  0  0  0  0  0  0  0  0  0
    5.9240    1.3510    1.2110 C   0  0  0  0  0  0  0  0  0  0  0  0
    6.6000    0.3040    0.4060 C   0  0  0  0  0  0  0  0  0  0  0  0
    5.5180   -0.6780    0.1910 C   0  0  0  0  0  0  0  0  0  0  0  0
   -1.6470   -0.5570    0.5750 C   0  0  0  0  0  0  0  0  0  0  0  0
   -1.8100   -1.5700    1.3190 O   0  0  0  0  0  0  0  0  0  0  0  0
   -2.7830    0.1630    0.2820 C   0  0  0  0  0  0  0  0  0  0  0  0
   -4.0830   -0.2080    0.7900 C   0  0  0  0  0  0  0  0  0  0  0  0
   -4.6450    0.4350    1.8670 C   0  0  0  0  0  0  0  0  0  0  0  0
   -5.9020    0.0700    2.3560 C   0  0  0  0  0  0  0  0  0  0  0  0
   -6.5880   -0.9490    1.7520 C   0  0  0  0  0  0  0  0  0  0  0  0
   -7.8530   -1.3420    2.2190 O   0  0  0  0  0  0  0  0  0  0  0  0
   -6.0490   -1.6030    0.6810 C   0  0  0  0  0  0  0  0  0  0  0  0
   -4.7870   -1.2270    0.1990 C   0  0  0  0  0  0  0  0  0  0  0  0
  1  2  1  0
  2  3  1  0
  2 32  2  0
  3  4  1  0
  4  5  1  0
  4  9  2  0
  5  6  1  0
  6  7  1  0
  7  8  1  0
 10  9  1  6
  9 30  1  0
 10 11  1  0
 10 17  1  0
 11 12  2  0
 11 16  1  0
 12 13  1  0
 13 14  2  0
 14 15  1  0
 15 16  2  0
 17 18  2  0
 17 25  1  0
 18 19  1  0
 18 20  1  0
 20 21  1  0
 20 29  2  0
 21 22  1  0
 21 27  2  0
 22 23  2  0
 22 24  1  0
 24 25  1  0
 25 26  2  0
 27 28  1  0
 28 29  1  0
 30 31  2  0
 30 32  1  0
 32 33  1  0
 33 34  2  0
 33 39  1  0
 34 35  1  0
 35 36  2  0
 36 37  1  0
 36 38  1  0
 38 39  2  0
M  END
