
     RDKit          3D

 19 19  0  0  0  0  0  0  0  0999 V2000
   -5.2630    0.0930    0.4970 C   0  0  0  0  0  0  0  0  0  0  0  0
   -4.5730   -0.5650   -0.4690 O   0  0  0  0  0  0  0  0  0  0  0  0
   -3.4190   -0.0390   -0.9510 C   0  0  0  0  0  0  0  0  0  0  0  0
   -2.3320    0.1490    0.0550 C   0  0  2  0  0  0  0  0  0  0  0  0
   -2.7150    1.0420    1.0600 O   0  0  0  0  0  0  0  0  0  0  0  0
   -1.1070    0.7650   -0.6030 C   0  0  2  0  0  0  0  0  0  0  0  0
   -0.5580    0.0290   -1.6030 O   0  0  0  0  0  0  0  0  0  0  0  0
   -0.1210    1.1810    0.4300 C   0  0  0  0  0  0  0  0  0  0  0  0
    0.3970    0.0910    1.3180 C   0  0  2  0  0  0  0  0  0  0  0  0
    1.2810    0.6810    2.2550 O   0  0  0  0  0  0  0  0  0  0  0  0
    1.1970   -0.9570    0.5980 C   0  0  2  0  0  0  0  0  0  0  0  0
    1.6570   -1.9640    1.4130 O   0  0  0  0  0  0  0  0  0  0  0  0
    1.2390   -3.2270    1.1010 C   0  0  0  0  0  0  0  0  0  0  0  0
    2.3270   -0.2790   -0.1200 C   0  0  0  0  0  0  0  0  0  0  0  0
    2.5840   -0.3220   -1.4110 C   0  0  0  0  0  0  0  0  0  0  0  0
    3.7880    0.4720   -1.7620 C   0  0  0  0  0  0  0  0  0  0  0  0
    4.2170    0.9940   -0.4650 C   0  0  0  0  0  0  0  0  0  0  0  0
    5.3350    1.8120   -0.2830 O   0  0  0  0  0  0  0  0  0  0  0  0
    3.3730    0.5570    0.4530 C   0  0  0  0  0  0  0  0  0  0  0  0
  1  2  1  0
  2  3  1  0
  3  4  1  0
  4  5  1  1
  4  6  1  0
  6  7  1  6
  6  8  1  0
  8  9  1  0
  9 10  1  1
  9 11  1  0
 11 12  1  1
 11 14  1  0
 12 13  1  0
 14 15  2  0
 14 19  1  0
 15 16  1  0
 16 17  1  0
 17 18  1  0
 17 19  2  0
M  END
