
     RDKit          3D

 19 19  0  0  0  0  0  0  0  0999 V2000
   -1.5990   -3.2780   -1.0310 C   0  0  0  0  0  0  0  0  0  0  0  0
   -2.3120   -2.1610   -0.3390 C   0  0  1  0  0  0  0  0  0  0  0  0
   -2.7540   -2.5200    0.9330 O   0  0  0  0  0  0  0  0  0  0  0  0
   -1.4910   -0.8950   -0.3170 C   0  0  2  0  0  0  0  0  0  0  0  0
   -0.2910   -1.0050    0.5990 C   0  0  0  0  0  0  0  0  0  0  0  0
    0.6400    0.1270    0.1350 C   0  0  2  0  0  0  0  0  0  0  0  0
    1.3130   -0.4470   -1.0790 C   0  0  0  0  0  0  0  0  0  0  0  0
    1.5130    0.5160    1.0580 O   0  0  0  0  0  0  0  0  0  0  0  0
    2.4580   -0.1780    1.6480 C   0  0  0  0  0  0  0  0  0  0  0  0
    3.6700   -0.6390    0.8870 C   0  0  0  0  0  0  0  0  0  0  0  0
    4.5170    0.5080    0.3680 C   0  0  0  0  0  0  0  0  0  0  0  0
    5.6000    0.0490   -0.3350 O   0  0  0  0  0  0  0  0  0  0  0  0
   -0.1820    1.3450   -0.2600 C   0  0  1  0  0  0  0  0  0  0  0  0
   -0.1890    1.4100   -1.6520 O   0  0  0  0  0  0  0  0  0  0  0  0
   -1.5790    1.3410    0.2380 C   0  0  1  0  0  0  0  0  0  0  0  0
   -2.3950    2.3620   -0.5310 C   0  0  0  0  0  0  0  0  0  0  0  0
   -3.8340    2.3880   -0.0480 C   0  0  0  0  0  0  0  0  0  0  0  0
   -3.8920    2.7190    1.3030 O   0  0  0  0  0  0  0  0  0  0  0  0
   -2.2440    0.1470    0.1780 O   0  0  0  0  0  0  0  0  0  0  0  0
  2  1  1  1
  2  3  1  0
  2  4  1  0
  4  5  1  1
  4 19  1  0
  5  6  1  0
  6  7  1  6
  6  8  1  0
  6 13  1  0
  8  9  1  0
  9 10  1  0
 10 11  1  0
 11 12  1  0
 13 14  1  6
 13 15  1  0
 15 16  1  6
 15 19  1  0
 16 17  1  0
 17 18  1  0
M  END
