
     RDKit          3D

  9  9  0  0  0  0  0  0  0  0999 V2000
    2.7340   -0.0040    0.2720 C   0  0  0  0  0  0  0  0  0  0  0  0
    1.7880   -0.5000   -0.7960 C   0  0  0  0  0  0  0  0  0  0  0  0
    0.3650   -0.2260   -0.4180 C   0  0  0  0  0  0  0  0  0  0  0  0
   -0.2630    0.9500   -0.7720 C   0  0  0  0  0  0  0  0  0  0  0  0
   -1.5740    1.1940   -0.4190 C   0  0  0  0  0  0  0  0  0  0  0  0
   -2.3240    0.2840    0.3000 C   0  0  0  0  0  0  0  0  0  0  0  0
   -3.6430    0.5490    0.6460 O   0  0  0  0  0  0  0  0  0  0  0  0
   -1.6900   -0.8900    0.6520 C   0  0  0  0  0  0  0  0  0  0  0  0
   -0.3780   -1.1390    0.3020 C   0  0  0  0  0  0  0  0  0  0  0  0
  1  2  1  0
  2  3  1  0
  3  4  2  0
  3  9  1  0
  4  5  1  0
  5  6  2  0
  6  7  1  0
  6  8  1  0
  8  9  2  0
M  END
