
     RDKit          3D

 19 19  0  0  0  0  0  0  0  0999 V2000
    3.9880    0.2930   -0.9350 C   0  0  0  0  0  0  0  0  0  0  0  0
    3.9170   -0.3990    0.4190 C   0  0  1  0  0  0  0  0  0  0  0  0
    4.0070   -1.7890    0.1190 O   0  0  0  0  0  0  0  0  0  0  0  0
    5.1080   -0.0490    1.2340 C   0  0  0  0  0  0  0  0  0  0  0  0
    5.1250    1.2820    1.5630 O   0  0  0  0  0  0  0  0  0  0  0  0
    2.6910   -0.2100    0.9460 O   0  0  0  0  0  0  0  0  0  0  0  0
    2.2830    1.0140    1.3400 C   0  0  0  0  0  0  0  0  0  0  0  0
    0.8470    0.8760    1.8700 C   0  0  0  0  0  0  0  0  0  0  0  0
    0.0270    0.3500    0.7160 C   0  0  0  0  0  0  0  0  0  0  0  0
   -1.2940    0.1710    1.0320 O   0  0  0  0  0  0  0  0  0  0  0  0
   -1.9720   -0.3180   -0.0970 C   0  0  1  0  0  0  0  0  0  0  0  0
   -1.2840   -1.6220   -0.4420 C   0  0  0  0  0  0  0  0  0  0  0  0
   -3.3600   -0.6600    0.3690 C   0  0  0  0  0  0  0  0  0  0  0  0
   -4.2040   -0.9600   -0.8400 C   0  0  1  0  0  0  0  0  0  0  0  0
   -5.4420   -1.4940   -0.5040 O   0  0  0  0  0  0  0  0  0  0  0  0
   -4.3660    0.3920   -1.5460 C   0  0  0  0  0  0  0  0  0  0  0  0
   -3.0200    0.6940   -2.1570 C   0  0  0  0  0  0  0  0  0  0  0  0
   -1.8970    0.6890   -1.1740 C   0  0  1  0  0  0  0  0  0  0  0  0
   -1.8100    2.0010   -0.6530 O   0  0  0  0  0  0  0  0  0  0  0  0
  2  1  1  6
  2  3  1  0
  2  4  1  0
  2  6  1  0
  4  5  1  0
  6  7  1  0
  7  8  1  0
  8  9  1  0
  9 10  1  0
 10 11  1  0
 11 12  1  6
 11 13  1  0
 11 18  1  0
 13 14  1  0
 14 15  1  1
 14 16  1  0
 16 17  1  0
 17 18  1  0
 18 19  1  1
M  END
