
     RDKit          3D

 19 19  0  0  0  0  0  0  0  0999 V2000
    4.4300   -0.3610   -1.4440 C   0  0  0  0  0  0  0  0  0  0  0  0
    4.0210   -0.0590   -0.0190 C   0  0  0  0  0  0  0  0  0  0  0  0
    2.6650    0.5300    0.1000 C   0  0  2  0  0  0  0  0  0  0  0  0
    2.3840    0.7680    1.4250 O   0  0  0  0  0  0  0  0  0  0  0  0
    1.6010   -0.2500   -0.6320 C   0  0  1  0  0  0  0  0  0  0  0  0
    1.4430   -1.6540   -0.1690 C   0  0  0  0  0  0  0  0  0  0  0  0
    0.8440   -1.6190    1.1930 C   0  0  0  0  0  0  0  0  0  0  0  0
   -0.2480   -0.8980    1.3930 O   0  0  0  0  0  0  0  0  0  0  0  0
   -0.6710    0.0450    0.4650 C   0  0  1  0  0  0  0  0  0  0  0  0
   -1.8900   -0.6040   -0.1500 C   0  0  0  0  0  0  0  0  0  0  0  0
   -3.0040   -0.9010    0.8300 C   0  0  0  0  0  0  0  0  0  0  0  0
   -4.1390   -1.5810    0.0800 C   0  0  0  0  0  0  0  0  0  0  0  0
   -3.6460   -2.7440   -0.4640 O   0  0  0  0  0  0  0  0  0  0  0  0
   -1.0870    1.1970    1.3380 C   0  0  0  0  0  0  0  0  0  0  0  0
   -1.4970    2.3440    0.8310 O   0  0  0  0  0  0  0  0  0  0  0  0
   -2.5370    2.5190    0.0140 C   0  0  0  0  0  0  0  0  0  0  0  0
   -2.6070    3.9330   -0.2480 O   0  0  0  0  0  0  0  0  0  0  0  0
    0.2750    0.4180   -0.6070 C   0  0  1  0  0  0  0  0  0  0  0  0
    0.5400    1.8120   -0.6380 O   0  0  0  0  0  0  0  0  0  0  0  0
  1  2  1  0
  2  3  1  0
  3  4  1  1
  3  5  1  0
  5  6  1  1
  5 18  1  0
  6  7  1  0
  7  8  1  0
  8  9  1  0
  9 10  1  6
  9 14  1  0
  9 18  1  0
 10 11  1  0
 11 12  1  0
 12 13  1  0
 14 15  1  0
 15 16  1  0
 16 17  1  0
 18 19  1  1
M  END
