
     RDKit          3D

 19 19  0  0  0  0  0  0  0  0999 V2000
    4.2000    1.3920   -0.6010 C   0  0  0  0  0  0  0  0  0  0  0  0
    3.5950    0.7320    0.6060 C   0  0  0  0  0  0  0  0  0  0  0  0
    2.2040    0.1030    0.2500 C   0  0  1  0  0  0  0  0  0  0  0  0
    1.7970   -0.4440    1.4540 O   0  0  0  0  0  0  0  0  0  0  0  0
    1.4150    1.2290   -0.2530 C   0  0  0  0  0  0  0  0  0  0  0  0
    0.0090    1.0410   -0.6740 C   0  0  0  0  0  0  0  0  0  0  0  0
   -0.8390    0.5740    0.4660 C   0  0  0  0  0  0  0  0  0  0  0  0
   -2.2770    0.4040    0.1910 C   0  0  2  0  0  0  0  0  0  0  0  0
   -2.5700   -0.6030   -0.8690 C   0  0  2  0  0  0  0  0  0  0  0  0
   -3.9440   -0.5740   -1.2180 O   0  0  0  0  0  0  0  0  0  0  0  0
   -2.3560   -2.0280   -0.3710 C   0  0  0  0  0  0  0  0  0  0  0  0
   -3.1930   -2.2880    0.7240 O   0  0  0  0  0  0  0  0  0  0  0  0
   -2.9660    1.7140   -0.1850 C   0  0  0  0  0  0  0  0  0  0  0  0
   -4.1960    1.6130    0.4620 O   0  0  0  0  0  0  0  0  0  0  0  0
   -3.7690    1.1270    1.7140 C   0  0  0  0  0  0  0  0  0  0  0  0
   -2.9990    0.0560    1.3270 O   0  0  0  0  0  0  0  0  0  0  0  0
    2.5120   -1.0230   -0.6970 C   0  0  2  0  0  0  0  0  0  0  0  0
    1.4310   -2.0730   -0.7880 C   0  0  0  0  0  0  0  0  0  0  0  0
    3.5990   -1.7360   -0.0990 O   0  0  0  0  0  0  0  0  0  0  0  0
  1  2  1  0
  2  3  1  0
  3  4  1  1
  3  5  1  0
  3 17  1  0
  5  6  1  0
  6  7  1  0
  8  7  1  1
  8  9  1  0
  8 13  1  0
  8 16  1  0
  9 10  1  1
  9 11  1  0
 11 12  1  0
 13 14  1  0
 14 15  1  0
 15 16  1  0
 17 18  1  1
 17 19  1  0
M  END
