
     RDKit          3D

 18 19  0  0  0  0  0  0  0  0999 V2000
   -0.2530   -1.1290   -1.1440 O   0  0  0  0  0  0  0  0  0  0  0  0
   -0.0680   -0.2600   -0.2540 C   0  0  0  0  0  0  0  0  0  0  0  0
    1.2610    0.1030    0.1680 N   0  0  0  0  0  0  0  0  0  0  0  0
    2.3730   -0.5500   -0.4520 C   0  0  0  0  0  0  0  0  0  0  0  0
    3.6490   -0.0750    0.0810 C   0  0  0  0  0  0  0  0  0  0  0  0
    4.6510    0.5050   -0.5220 C   0  0  0  0  0  0  0  0  0  0  0  0
    5.7570    0.8610    0.2320 N   0  0  0  0  0  0  0  0  0  0  0  0
    5.9490    0.0110    1.3870 C   0  0  0  0  0  0  0  0  0  0  0  0
    4.1550   -0.2190    1.7920 S   0  0  0  0  0  0  0  0  0  0  0  0
   -1.1890    0.3310    0.3020 O   0  0  0  0  0  0  0  0  0  0  0  0
   -2.5200    0.0410   -0.0420 C   0  0  2  0  0  0  0  0  0  0  0  0
   -2.8130   -1.3970    0.2260 C   0  0  0  0  0  0  0  0  0  0  0  0
   -2.6080   -1.6300    1.5850 O   0  0  0  0  0  0  0  0  0  0  0  0
   -2.8400    0.4360   -1.4670 C   0  0  0  0  0  0  0  0  0  0  0  0
   -4.0020    1.1580   -1.5930 O   0  0  0  0  0  0  0  0  0  0  0  0
   -5.0410    0.6480   -0.8150 C   0  0  0  0  0  0  0  0  0  0  0  0
   -4.6690    0.5880    0.6360 C   0  0  0  0  0  0  0  0  0  0  0  0
   -3.3210    0.7940    0.8410 O   0  0  0  0  0  0  0  0  0  0  0  0
  1  2  2  0
  2  3  1  0
  2 10  1  0
  3  4  1  0
  4  5  1  0
  5  6  2  0
  5  9  1  0
  6  7  1  0
  7  8  1  0
  8  9  1  0
 10 11  1  0
 11 12  1  6
 11 14  1  0
 11 18  1  0
 12 13  1  0
 14 15  1  0
 15 16  1  0
 16 17  1  0
 17 18  1  0
M  CHG  1   7   1
M  END
