
     RDKit          3D

 18 18  0  0  0  0  0  0  0  0999 V2000
   -5.2000    1.9700    1.2210 C   0  0  0  0  0  0  0  0  0  0  0  0
   -4.3910    0.9150    0.7470 O   0  0  0  0  0  0  0  0  0  0  0  0
   -4.8700   -0.3260    0.3920 C   0  0  0  0  0  0  0  0  0  0  0  0
   -6.0890   -0.5580    0.4850 O   0  0  0  0  0  0  0  0  0  0  0  0
   -3.9700   -1.3360   -0.0780 C   0  0  0  0  0  0  0  0  0  0  0  0
   -2.6550   -1.1500   -0.2000 C   0  0  0  0  0  0  0  0  0  0  0  0
   -1.6340   -2.0440   -0.6480 C   0  0  0  0  0  0  0  0  0  0  0  0
   -0.4320   -1.4320   -0.6110 C   0  0  0  0  0  0  0  0  0  0  0  0
    1.0740   -2.2060   -1.0800 S   0  0  0  0  0  0  0  0  0  0  0  0
    2.5460   -1.5570   -0.4350 C   0  0  0  0  0  0  0  0  0  0  0  0
    3.6450   -1.8170   -1.0700 O   0  0  0  0  0  0  0  0  0  0  0  0
    2.7320   -0.7550    0.7180 N   0  0  0  0  0  0  0  0  0  0  0  0
    4.0430   -0.2470    1.1430 C   0  0  0  0  0  0  0  0  0  0  0  0
    4.6750    0.6480    0.1100 C   0  0  0  0  0  0  0  0  0  0  0  0
    3.7920    1.7840   -0.1260 N   0  0  0  0  0  0  0  0  0  0  0  0
   -0.6450   -0.0850   -0.1220 C   0  0  0  0  0  0  0  0  0  0  0  0
    0.1470    0.8690    0.0870 O   0  0  0  0  0  0  0  0  0  0  0  0
   -2.0350    0.0430    0.1190 O   0  0  0  0  0  0  0  0  0  0  0  0
  1  2  1  0
  2  3  1  0
  3  4  2  0
  3  5  1  0
  5  6  2  3
  6  7  1  0
  6 18  1  0
  7  8  2  0
  8  9  1  0
  8 16  1  0
  9 10  1  0
 10 11  2  0
 10 12  1  0
 12 13  1  0
 13 14  1  0
 14 15  1  0
 16 17  2  0
 16 18  1  0
M  CHG  1  15   1
M  END
