
     RDKit          3D

 18 19  0  0  0  0  0  0  0  0999 V2000
   -3.4880    2.1920   -1.1990 O   0  0  0  0  0  0  0  0  0  0  0  0
   -3.1450    1.3000   -0.3700 C   0  0  0  0  0  0  0  0  0  0  0  0
   -2.9590    1.4770    1.1130 C   0  0  0  0  0  0  0  0  0  0  0  0
   -2.2020    0.4050    1.5110 O   0  0  0  0  0  0  0  0  0  0  0  0
   -1.9280   -0.3890    0.4310 C   0  0  1  0  0  0  0  0  0  0  0  0
   -0.5500   -0.1160   -0.1140 C   0  0  0  0  0  0  0  0  0  0  0  0
    0.3730   -1.3060    0.1360 C   0  0  1  0  0  0  0  0  0  0  0  0
    1.7680   -0.7680   -0.0010 C   0  0  0  0  0  0  0  0  0  0  0  0
    2.5660   -0.7220    0.9360 O   0  0  0  0  0  0  0  0  0  0  0  0
    2.1320   -0.3200   -1.2320 O   0  0  0  0  0  0  0  0  0  0  0  0
    3.3120    0.2270   -1.6790 C   0  0  0  0  0  0  0  0  0  0  0  0
    3.6620    1.4110   -1.0720 O   0  0  0  0  0  0  0  0  0  0  0  0
    3.8380    1.3240    0.2100 O   0  0  0  0  0  0  0  0  0  0  0  0
    0.2150   -1.7010    1.4520 O   0  0  0  0  0  0  0  0  0  0  0  0
   -0.9610   -2.3380    1.5440 O   0  0  0  0  0  0  0  0  0  0  0  0
   -2.0270   -1.8030    0.8310 C   0  0  0  0  0  0  0  0  0  0  0  0
   -3.0360   -2.5000    0.5390 O   0  0  0  0  0  0  0  0  0  0  0  0
   -2.8550   -0.0400   -0.5900 O   0  0  0  0  0  0  0  0  0  0  0  0
  1  2  2  0
  2  3  1  0
  2 18  1  0
  3  4  1  0
  4  5  1  0
  5  6  1  6
  5 16  1  0
  5 18  1  0
  6  7  1  0
  7  8  1  1
  7 14  1  0
  8  9  2  0
  8 10  1  0
 10 11  1  0
 11 12  1  0
 12 13  1  0
 14 15  1  0
 15 16  1  0
 16 17  2  0
M  END
