
     RDKit          3D

 18 18  0  0  0  0  0  0  0  0999 V2000
   -7.0050    0.2650   -0.5900 O   0  0  0  0  0  0  0  0  0  0  0  0
   -5.7420    0.4080   -1.0820 O   0  0  0  0  0  0  0  0  0  0  0  0
   -4.9660   -0.6500   -0.6700 C   0  0  0  0  0  0  0  0  0  0  0  0
   -3.4780   -0.3190   -0.9250 C   0  0  0  0  0  0  0  0  0  0  0  0
   -2.7800   -1.4560   -0.4520 O   0  0  0  0  0  0  0  0  0  0  0  0
   -1.4650   -1.4430   -0.6940 C   0  0  0  0  0  0  0  0  0  0  0  0
   -0.7420   -0.2720   -0.1690 C   0  0  1  0  0  0  0  0  0  0  0  0
    0.6920   -0.2450   -0.6640 C   0  0  0  0  0  0  0  0  0  0  0  0
    1.3230    0.9190    0.2030 C   0  0  2  0  0  0  0  0  0  0  0  0
    1.8660    0.1370    1.2560 O   0  0  0  0  0  0  0  0  0  0  0  0
    3.2310    0.1900    0.9130 C   0  0  0  0  0  0  0  0  0  0  0  0
    4.0910   -0.6780    1.8130 C   0  0  0  0  0  0  0  0  0  0  0  0
    5.3680   -0.4180    1.4060 O   0  0  0  0  0  0  0  0  0  0  0  0
    5.8420   -0.8340    0.3020 O   0  0  0  0  0  0  0  0  0  0  0  0
    6.5290    0.2450   -0.2300 O   0  0  0  0  0  0  0  0  0  0  0  0
    0.3020    1.6410    0.6730 O   0  0  0  0  0  0  0  0  0  0  0  0
   -0.6300    1.9330   -0.1670 O   0  0  0  0  0  0  0  0  0  0  0  0
   -1.3210    0.9180   -0.6190 O   0  0  0  0  0  0  0  0  0  0  0  0
  1  2  1  0
  2  3  1  0
  3  4  1  0
  4  5  1  0
  5  6  1  0
  7  6  1  6
  7  8  1  0
  7 18  1  0
  8  9  1  0
  9 10  1  1
  9 16  1  0
 10 11  1  0
 11 12  1  0
 12 13  1  0
 13 14  1  0
 14 15  1  0
 16 17  1  0
 17 18  1  0
M  END
