
     RDKit          3D

 13 13  0  0  0  0  0  0  0  0999 V2000
   -2.1420   -1.6300   -1.6220 N   0  0  0  0  0  0  0  0  0  0  0  0
   -0.9270   -1.0010   -1.2550 C   0  0  0  0  0  0  0  0  0  0  0  0
    0.0740   -1.1600   -2.0210 N   0  0  0  0  0  0  0  0  0  0  0  0
    1.2630   -0.5950   -1.7390 O   0  0  0  0  0  0  0  0  0  0  0  0
    1.4500    0.3770   -0.7370 C   0  0  2  0  0  0  0  0  0  0  0  0
    3.1950    0.1640   -0.1230 P   0  0  0  0  0  0  0  0  0  0  0  0
    3.3650   -1.2940    0.7710 O   0  0  0  0  0  0  0  0  0  0  0  0
    3.7790    1.5500    0.7010 O   0  0  0  0  0  0  0  0  0  0  0  0
    0.4480    0.3380    0.3650 C   0  0  0  0  0  0  0  0  0  0  0  0
   -0.8200   -0.2130   -0.0630 N   0  0  0  0  0  0  0  0  0  0  0  0
   -2.0370   -0.0050    0.6880 C   0  0  0  0  0  0  0  0  0  0  0  0
   -2.4540    1.4250    0.6250 C   0  0  0  0  0  0  0  0  0  0  0  0
   -3.4600    1.8300    1.1800 O   0  0  0  0  0  0  0  0  0  0  0  0
  1  2  1  0
  2  3  2  0
  2 10  1  0
  3  4  1  0
  4  5  1  0
  5  6  1  1
  5  9  1  0
  6  7  1  0
  6  8  1  0
  9 10  1  0
 10 11  1  0
 11 12  1  0
 12 13  2  0
M  END
