
     RDKit          3D

 18 19  0  0  0  0  0  0  0  0999 V2000
   -0.0030   -2.3180   -2.5770 O   0  0  0  0  0  0  0  0  0  0  0  0
   -0.4950   -1.7150   -1.5860 C   0  0  0  0  0  0  0  0  0  0  0  0
   -1.6850   -0.8230   -1.5840 C   0  0  0  0  0  0  0  0  0  0  0  0
   -1.2150    0.2780   -0.6550 C   0  0  1  0  0  0  0  0  0  0  0  0
   -0.4400    1.1640   -1.3600 O   0  0  0  0  0  0  0  0  0  0  0  0
   -2.4290    0.9230   -0.0480 C   0  0  1  0  0  0  0  0  0  0  0  0
   -3.2430    0.0310    0.6830 O   0  0  0  0  0  0  0  0  0  0  0  0
   -3.0210    0.7260    1.8530 C   0  0  0  0  0  0  0  0  0  0  0  0
   -3.3620    0.6380    3.0530 O   0  0  0  0  0  0  0  0  0  0  0  0
   -2.2230    1.6210    1.1610 O   0  0  0  0  0  0  0  0  0  0  0  0
   -0.3630   -0.4470    0.3310 C   0  0  2  0  0  0  0  0  0  0  0  0
    0.9510    0.2240    0.5410 C   0  0  0  0  0  0  0  0  0  0  0  0
    1.0080    1.3900    1.0590 O   0  0  0  0  0  0  0  0  0  0  0  0
    2.1590   -0.3470    0.2050 O   0  0  0  0  0  0  0  0  0  0  0  0
    3.4030    0.2960    0.4070 C   0  0  0  0  0  0  0  0  0  0  0  0
    4.4600   -0.4890   -0.0150 O   0  0  0  0  0  0  0  0  0  0  0  0
    4.4980   -1.6380    0.6410 O   0  0  0  0  0  0  0  0  0  0  0  0
   -0.0680   -1.7190   -0.2570 O   0  0  0  0  0  0  0  0  0  0  0  0
  1  2  2  0
  2  3  1  0
  2 18  1  0
  3  4  1  0
  4  5  1  6
  4  6  1  0
  4 11  1  0
  6  7  1  1
  6 10  1  0
  7  8  1  0
  8  9  2  0
  8 10  1  0
 11 12  1  6
 11 18  1  0
 12 13  2  0
 12 14  1  0
 14 15  1  0
 15 16  1  0
 16 17  1  0
M  END
