
     RDKit          3D

 28 28  0  0  0  0  0  0  0  0999 V2000
    9.3970   -0.6680    0.3090 C   0  0  0  0  0  0  0  0  0  0  0  0
    8.5190   -0.0770    1.3370 C   0  0  0  0  0  0  0  0  0  0  0  0
    7.2500    0.1160    1.0910 C   0  0  0  0  0  0  0  0  0  0  0  0
    6.6910   -0.2460   -0.1880 C   0  0  0  0  0  0  0  0  0  0  0  0
    5.4470   -0.1000   -0.5390 C   0  0  0  0  0  0  0  0  0  0  0  0
    4.4140    0.4680    0.3360 C   0  0  0  0  0  0  0  0  0  0  0  0
    3.1670    0.6050   -0.0450 C   0  0  0  0  0  0  0  0  0  0  0  0
    2.3860    0.3140   -1.2690 C   0  0  0  0  0  0  0  0  0  0  0  0
    1.4410    1.4270   -0.8270 C   0  0  1  0  0  0  0  0  0  0  0  0
    1.9950    2.8000   -1.2370 C   0  0  0  0  0  0  0  0  0  0  0  0
    0.0270    1.2520   -1.1890 C   0  0  0  0  0  0  0  0  0  0  0  0
   -0.6040    0.0580   -0.6600 N   0  0  0  0  0  0  0  0  0  0  0  0
   -1.9620   -0.2510   -0.9100 C   0  0  0  0  0  0  0  0  0  0  0  0
   -2.5510    0.6210   -1.6380 O   0  0  0  0  0  0  0  0  0  0  0  0
   -2.6860   -1.3760   -0.4520 N   0  0  0  0  0  0  0  0  0  0  0  0
   -4.1020   -1.4560   -0.7630 C   0  0  0  0  0  0  0  0  0  0  0  0
   -5.0580   -1.0220    0.2290 C   0  0  0  0  0  0  0  0  0  0  0  0
   -5.2940    0.3200    0.7380 C   0  0  0  0  0  0  0  0  0  0  0  0
   -5.9410    1.4060   -0.0120 C   0  0  2  0  0  0  0  0  0  0  0  0
   -5.3250    1.8890   -1.2510 C   0  0  0  0  0  0  0  0  0  0  0  0
   -6.0200    2.5980    1.0070 C   0  0  0  0  0  0  0  0  0  0  0  0
   -1.9770   -2.3570    0.3070 C   0  0  1  0  0  0  0  0  0  0  0  0
   -0.7670   -2.8790   -0.4920 C   0  0  0  0  0  0  0  0  0  0  0  0
   -1.4530   -1.6910    1.5800 C   0  0  0  0  0  0  0  0  0  0  0  0
   -2.7130   -3.5930    0.6700 C   0  0  0  0  0  0  0  0  0  0  0  0
   -3.8360   -3.8680    0.2710 O   0  0  0  0  0  0  0  0  0  0  0  0
   -2.0480   -4.5080    1.5450 O   0  0  0  0  0  0  0  0  0  0  0  0
    1.9130    1.1190    0.5580 C   0  0  0  0  0  0  0  0  0  0  0  0
  1  2  1  0
  2  3  2  3
  3  4  1  0
  4  5  2  3
  5  6  1  0
  6  7  2  3
  7  8  1  0
  7 28  1  0
  8  9  1  0
  9 10  1  6
  9 11  1  0
  9 28  1  0
 11 12  1  0
 12 13  1  0
 13 14  2  0
 13 15  1  0
 15 16  1  0
 15 22  1  0
 16 17  1  0
 17 18  1  0
 18 19  1  0
 19 20  1  6
 19 21  1  0
 22 23  1  6
 22 24  1  0
 22 25  1  0
 25 26  2  0
 25 27  1  0
M  CHG  1  27  -1
M  END
