
     RDKit          3D

 28 28  0  0  0  0  0  0  0  0999 V2000
    8.3350    1.1870    0.2860 C   0  0  0  0  0  0  0  0  0  0  0  0
    7.0930    1.4180    0.7770 C   0  0  0  0  0  0  0  0  0  0  0  0
    5.9810    0.8320    0.1010 C   0  0  0  0  0  0  0  0  0  0  0  0
    4.7030    0.9490    0.4370 C   0  0  0  0  0  0  0  0  0  0  0  0
    4.2260    1.7000    1.5570 C   0  0  0  0  0  0  0  0  0  0  0  0
    3.0110    1.7780    1.8290 O   0  0  0  0  0  0  0  0  0  0  0  0
    5.1520    2.3710    2.3770 O   0  0  0  0  0  0  0  0  0  0  0  0
    3.7340    0.2370   -0.4330 C   0  0  0  0  0  0  0  0  0  0  0  0
    4.2850   -0.4070   -1.4110 O   0  0  0  0  0  0  0  0  0  0  0  0
    2.3490    0.2220   -0.2700 N   0  0  0  0  0  0  0  0  0  0  0  0
    1.5460   -0.5300   -1.2180 C   0  0  0  0  0  0  0  0  0  0  0  0
    0.0590   -0.4240   -0.8680 C   0  0  1  0  0  0  0  0  0  0  0  0
   -0.1700   -0.9820    0.5220 C   0  0  0  0  0  0  0  0  0  0  0  0
    0.2360   -2.4260    0.6240 C   0  0  0  0  0  0  0  0  0  0  0  0
   -0.5110   -3.3280   -0.3060 C   0  0  0  0  0  0  0  0  0  0  0  0
    0.0220   -4.7450   -0.0710 C   0  0  0  0  0  0  0  0  0  0  0  0
   -0.3630    0.9130   -1.0360 N   0  0  1  0  0  0  0  0  0  0  0  0
   -0.7980    1.3030   -2.3250 C   0  0  0  0  0  0  0  0  0  0  0  0
   -0.6640    0.3720   -3.4650 C   0  0  0  0  0  0  0  0  0  0  0  0
   -1.2320    1.4450   -0.0250 C   0  0  0  0  0  0  0  0  0  0  0  0
   -2.6200    0.9960   -0.0000 C   0  0  0  0  0  0  0  0  0  0  0  0
   -3.2350    0.0980   -0.8290 C   0  0  0  0  0  0  0  0  0  0  0  0
   -4.5830   -0.2640   -0.7180 C   0  0  0  0  0  0  0  0  0  0  0  0
   -5.3440    0.2960    0.2640 C   0  0  0  0  0  0  0  0  0  0  0  0
   -6.7930   -0.0490    0.4370 C   0  0  0  0  0  0  0  0  0  0  0  0
   -4.7760    1.1920    1.1100 C   0  0  0  0  0  0  0  0  0  0  0  0
   -3.4510    1.5460    0.9980 C   0  0  0  0  0  0  0  0  0  0  0  0
   -2.9090    2.5230    1.9570 C   0  0  0  0  0  0  0  0  0  0  0  0
  1  2  2  0
  2  3  1  0
  3  4  2  3
  4  5  1  0
  4  8  1  0
  5  6  2  0
  5  7  1  0
  8  9  2  0
  8 10  1  0
 10 11  1  0
 12 11  1  1
 12 13  1  0
 12 17  1  0
 13 14  1  0
 14 15  1  0
 15 16  1  0
 17 18  1  6
 17 20  1  0
 18 19  1  0
 20 21  1  0
 21 22  2  0
 21 27  1  0
 22 23  1  0
 23 24  2  0
 24 25  1  0
 24 26  1  0
 26 27  2  0
 27 28  1  0
M  CHG  2   7  -1  17   1
M  END
