
     RDKit          3D

 28 28  0  0  0  0  0  0  0  0999 V2000
   -4.1290   -2.3320   -1.6730 C   0  0  0  0  0  0  0  0  0  0  0  0
   -4.9260   -1.3780   -1.2540 C   0  0  0  0  0  0  0  0  0  0  0  0
   -6.3510   -1.2400   -1.6500 C   0  0  0  0  0  0  0  0  0  0  0  0
   -6.4900    0.0440   -2.2990 N   0  0  0  0  0  0  0  0  0  0  0  0
   -4.3970   -0.3300   -0.2960 C   0  0  0  0  0  0  0  0  0  0  0  0
   -3.0480   -0.5650    0.0370 N   0  0  0  0  0  0  0  0  0  0  0  0
   -2.4110    0.3960    0.8460 C   0  0  2  0  0  0  0  0  0  0  0  0
   -0.9270    0.2500    0.8670 C   0  0  0  0  0  0  0  0  0  0  0  0
   -0.2870   -0.9440    0.9320 C   0  0  0  0  0  0  0  0  0  0  0  0
    1.0890   -0.9840    0.9560 C   0  0  0  0  0  0  0  0  0  0  0  0
    1.8680    0.1470    0.9160 C   0  0  0  0  0  0  0  0  0  0  0  0
    3.2470    0.1210    0.9320 O   0  0  0  0  0  0  0  0  0  0  0  0
    4.1080   -0.9660    0.9320 C   0  0  0  0  0  0  0  0  0  0  0  0
    4.0090   -1.7250   -0.3450 C   0  0  0  0  0  0  0  0  0  0  0  0
    4.9120   -2.9390   -0.3900 C   0  0  2  0  0  0  0  0  0  0  0  0
    6.3600   -2.6100   -0.2370 C   0  0  0  0  0  0  0  0  0  0  0  0
    4.6970   -3.5510   -1.7810 C   0  0  0  0  0  0  0  0  0  0  0  0
    1.2150    1.3890    0.8500 C   0  0  0  0  0  0  0  0  0  0  0  0
    1.9870    2.5180    0.8120 O   0  0  0  0  0  0  0  0  0  0  0  0
    2.4910    3.1810   -0.3000 C   0  0  2  0  0  0  0  0  0  0  0  0
    3.3990    2.3570   -1.1630 C   0  0  0  0  0  0  0  0  0  0  0  0
    3.3160    4.3640    0.2230 C   0  0  0  0  0  0  0  0  0  0  0  0
    1.4190    3.7830   -1.1800 C   0  0  0  0  0  0  0  0  0  0  0  0
    0.5420    2.8350   -1.6760 O   0  0  0  0  0  0  0  0  0  0  0  0
   -0.1570    1.3860    0.8280 C   0  0  0  0  0  0  0  0  0  0  0  0
   -2.9670    0.5560    2.2110 C   0  0  2  0  0  0  0  0  0  0  0  0
   -2.9660   -0.7140    3.0410 C   0  0  0  0  0  0  0  0  0  0  0  0
   -4.2260    1.3460    2.3120 C   0  0  0  0  0  0  0  0  0  0  0  0
  1  2  2  0
  2  3  1  0
  2  5  1  0
  3  4  1  0
  5  6  1  0
  7  6  1  1
  7  8  1  0
  7 26  1  0
  8  9  2  0
  8 25  1  0
  9 10  1  0
 10 11  2  0
 11 12  1  0
 11 18  1  0
 12 13  1  0
 13 14  1  0
 14 15  1  0
 15 16  1  6
 15 17  1  0
 18 19  1  0
 18 25  2  0
 19 20  1  0
 20 21  1  6
 20 22  1  0
 20 23  1  0
 23 24  1  0
 26 27  1  6
 26 28  1  0
M  CHG  2   4   1  24  -1
M  END
