
     RDKit          3D

 27 27  0  0  0  0  0  0  0  0999 V2000
    8.4510   -0.2830   -0.6260 C   0  0  0  0  0  0  0  0  0  0  0  0
    7.5160   -0.9510    0.0270 C   0  0  0  0  0  0  0  0  0  0  0  0
    6.0970   -0.5240   -0.0400 C   0  0  0  0  0  0  0  0  0  0  0  0
    5.2080   -1.5970   -0.5950 C   0  0  0  0  0  0  0  0  0  0  0  0
    3.7480   -1.2020   -0.6800 C   0  0  0  0  0  0  0  0  0  0  0  0
    3.1720   -0.8570    0.6550 C   0  0  0  0  0  0  0  0  0  0  0  0
    1.7390   -0.4520    0.6610 C   0  0  0  0  0  0  0  0  0  0  0  0
    1.4330    0.7900   -0.0990 C   0  0  0  0  0  0  0  0  0  0  0  0
    2.4450    1.6220   -0.5090 C   0  0  0  0  0  0  0  0  0  0  0  0
    2.2130    2.7980   -1.2300 C   0  0  0  0  0  0  0  0  0  0  0  0
    3.3470    3.6670   -1.6610 C   0  0  0  0  0  0  0  0  0  0  0  0
    0.9060    3.0940   -1.5160 C   0  0  0  0  0  0  0  0  0  0  0  0
   -0.1310    2.2450   -1.0950 C   0  0  0  0  0  0  0  0  0  0  0  0
    0.0960    1.0950   -0.3900 C   0  0  0  0  0  0  0  0  0  0  0  0
   -0.9000    0.2240    0.1010 N   0  0  0  0  0  0  0  0  0  0  0  0
   -2.2990    0.3510   -0.0800 C   0  0  0  0  0  0  0  0  0  0  0  0
   -2.7270    1.3270   -0.7510 O   0  0  0  0  0  0  0  0  0  0  0  0
   -3.2180   -0.5960    0.4810 N   0  0  0  0  0  0  0  0  0  0  0  0
   -2.7640   -1.7310    1.2530 C   0  0  2  0  0  0  0  0  0  0  0  0
   -2.0400   -1.3420    2.5200 C   0  0  0  0  0  0  0  0  0  0  0  0
   -1.9480   -2.6970    0.4220 C   0  0  0  0  0  0  0  0  0  0  0  0
   -4.6360   -0.4110    0.2880 C   0  0  1  0  0  0  0  0  0  0  0  0
   -5.1420    0.8830    0.8450 C   0  0  0  0  0  0  0  0  0  0  0  0
   -4.8680    0.9500    2.3390 C   0  0  0  0  0  0  0  0  0  0  0  0
   -4.9470   -0.5240   -1.1820 C   0  0  0  0  0  0  0  0  0  0  0  0
   -6.4440   -0.3330   -1.4400 C   0  0  0  0  0  0  0  0  0  0  0  0
   -7.1360   -1.2990   -0.7500 O   0  0  0  0  0  0  0  0  0  0  0  0
  1  2  2  0
  2  3  1  0
  3  4  1  0
  4  5  1  0
  5  6  1  0
  6  7  1  0
  7  8  1  0
  8  9  2  0
  8 14  1  0
  9 10  1  0
 10 11  1  0
 10 12  2  0
 12 13  1  0
 13 14  2  0
 14 15  1  0
 15 16  1  0
 16 17  2  0
 16 18  1  0
 18 19  1  0
 18 22  1  0
 19 20  1  1
 19 21  1  0
 22 23  1  6
 22 25  1  0
 23 24  1  0
 25 26  1  0
 26 27  1  0
M  END
