
     RDKit          3D

 24 26  0  0  0  0  0  0  0  0999 V2000
    0.3440    0.8240   -1.9880 O   0  0  0  0  0  0  0  0  0  0  0  0
    0.0660    1.3210   -0.8570 C   0  0  0  0  0  0  0  0  0  0  0  0
    0.9530    2.2080   -0.1890 N   0  0  0  0  0  0  0  0  0  0  0  0
    2.2240    2.5930   -0.7610 C   0  0  0  0  0  0  0  0  0  0  0  0
    3.1270    1.4100   -0.9970 C   0  0  0  0  0  0  0  0  0  0  0  0
    3.4160    0.7040    0.2440 N   0  0  1  0  0  0  0  0  0  0  0  0
    3.1610   -0.6990    0.0600 C   0  0  0  0  0  0  0  0  0  0  0  0
    4.0100   -1.3560   -0.9640 C   0  0  0  0  0  0  0  0  0  0  0  0
    5.4580   -1.0040   -0.9090 C   0  0  0  0  0  0  0  0  0  0  0  0
    6.0490   -1.0870    0.4650 C   0  0  0  0  0  0  0  0  0  0  0  0
    5.4130   -0.1280    1.4190 C   0  0  0  0  0  0  0  0  0  0  0  0
    4.7020    1.0140    0.7670 C   0  0  0  0  0  0  0  0  0  0  0  0
   -1.1830    0.9400   -0.2980 N   0  0  0  0  0  0  0  0  0  0  0  0
   -2.0570    0.0410   -0.9990 C   0  0  0  0  0  0  0  0  0  0  0  0
   -1.8120   -0.5130   -2.1960 N   0  0  0  0  0  0  0  0  0  0  0  0
   -2.8600   -1.3080   -2.5470 C   0  0  0  0  0  0  0  0  0  0  0  0
   -3.7470   -1.2190   -1.5280 N   0  0  0  0  0  0  0  0  0  0  0  0
   -3.2560   -0.4080   -0.6050 N   0  0  0  0  0  0  0  0  0  0  0  0
   -3.9210   -0.0660    0.6360 C   0  0  2  0  0  0  0  0  0  0  0  0
   -4.3700   -1.3610    1.2770 C   0  0  0  0  0  0  0  0  0  0  0  0
   -5.6760   -1.8280    0.7170 C   0  0  0  0  0  0  0  0  0  0  0  0
   -6.7580   -0.8600    1.0830 C   0  0  0  0  0  0  0  0  0  0  0  0
   -6.3020    0.5650    1.1340 C   0  0  0  0  0  0  0  0  0  0  0  0
   -5.0840    0.8300    0.2900 C   0  0  0  0  0  0  0  0  0  0  0  0
  1  2  2  0
  2  3  1  0
  2 13  1  0
  3  4  1  0
  4  5  1  0
  6  5  1  6
  6  7  1  0
  6 12  1  0
  7  8  1  0
  8  9  1  0
  9 10  1  0
 10 11  1  0
 11 12  1  0
 13 14  1  0
 14 15  2  0
 14 18  1  0
 15 16  1  0
 16 17  2  0
 17 18  1  0
 19 18  1  6
 19 20  1  0
 19 24  1  0
 20 21  1  0
 21 22  1  0
 22 23  1  0
 23 24  1  0
M  CHG  1   6   1
M  END
