
     RDKit          3D

 18 18  0  0  0  0  0  0  0  0999 V2000
    1.2690   -1.4440    0.2630 O   0  0  0  0  0  0  0  0  0  0  0  0
    1.1520   -0.4560   -0.4850 C   0  0  0  0  0  0  0  0  0  0  0  0
    2.2270   -0.0650   -1.3220 N   0  0  0  0  0  0  0  0  0  0  0  0
    3.4880   -0.7230   -1.3730 C   0  0  0  0  0  0  0  0  0  0  0  0
    4.2220   -0.6080   -0.0720 C   0  0  2  0  0  0  0  0  0  0  0  0
    3.5340   -1.1720    0.9510 F   0  0  0  0  0  0  0  0  0  0  0  0
    4.2960    0.7770    0.1800 F   0  0  0  0  0  0  0  0  0  0  0  0
    5.5140   -1.1160   -0.1810 F   0  0  0  0  0  0  0  0  0  0  0  0
   -0.0770    0.2430   -0.4600 N   0  0  0  0  0  0  0  0  0  0  0  0
   -1.2250   -0.0410    0.3260 C   0  0  0  0  0  0  0  0  0  0  0  0
   -1.3330   -1.0700    1.2180 C   0  0  0  0  0  0  0  0  0  0  0  0
   -2.4600   -1.3080    1.9570 C   0  0  0  0  0  0  0  0  0  0  0  0
   -3.5420   -0.4570    1.7850 C   0  0  0  0  0  0  0  0  0  0  0  0
   -3.4590    0.5900    0.8920 C   0  0  0  0  0  0  0  0  0  0  0  0
   -2.3350    0.8050    0.1730 C   0  0  0  0  0  0  0  0  0  0  0  0
   -2.2300    2.1400   -0.9670 S   0  0  2  0  0  0  0  0  0  0  0  0
   -2.0200    1.5600   -2.3350 O   0  0  0  0  0  0  0  0  0  0  0  0
   -1.1450    3.0670   -0.5540 O   0  0  0  0  0  0  0  0  0  0  0  0
  1  2  2  0
  2  3  1  0
  2  9  1  0
  3  4  1  0
  4  5  1  0
  5  6  1  1
  5  7  1  0
  5  8  1  0
  9 10  1  0
 10 11  2  0
 10 15  1  0
 11 12  1  0
 12 13  2  0
 13 14  1  0
 14 15  2  0
 16 15  1  1
 16 17  2  0
 16 18  2  0
M  END
