
     RDKit          3D

 17 17  0  0  0  0  0  0  0  0999 V2000
    4.3730   -0.6580   -0.8420 O   0  0  0  0  0  0  0  0  0  0  0  0
    3.6850    0.2770   -0.3780 C   0  0  0  0  0  0  0  0  0  0  0  0
    4.2790    1.6020   -0.0180 C   0  0  0  0  0  0  0  0  0  0  0  0
    4.1570    2.4070   -1.1260 F   0  0  0  0  0  0  0  0  0  0  0  0
    2.2560    0.0390   -0.1940 N   0  0  0  0  0  0  0  0  0  0  0  0
    1.6790   -1.1930   -0.5220 C   0  0  0  0  0  0  0  0  0  0  0  0
    2.7440   -2.3490   -1.1180 S   0  0  0  0  0  0  0  0  0  0  0  0
    0.3590   -1.5950   -0.4640 N   0  0  0  0  0  0  0  0  0  0  0  0
   -0.8400   -0.9580   -0.1150 C   0  0  0  0  0  0  0  0  0  0  0  0
   -1.0370    0.4000   -0.0670 C   0  0  0  0  0  0  0  0  0  0  0  0
   -2.2960    0.9350    0.2380 C   0  0  0  0  0  0  0  0  0  0  0  0
   -2.4230    2.3170    0.2700 O   0  0  0  0  0  0  0  0  0  0  0  0
   -3.3870    0.1590    0.5030 C   0  0  0  0  0  0  0  0  0  0  0  0
   -4.6150    0.7360    0.8010 O   0  0  0  0  0  0  0  0  0  0  0  0
   -3.2070   -1.2080    0.4580 C   0  0  0  0  0  0  0  0  0  0  0  0
   -1.9740   -1.7370    0.1590 C   0  0  0  0  0  0  0  0  0  0  0  0
   -1.8180   -3.0890    0.1260 F   0  0  0  0  0  0  0  0  0  0  0  0
  1  2  2  0
  2  3  1  0
  2  5  1  0
  3  4  1  0
  5  6  1  0
  6  7  2  0
  6  8  1  0
  8  9  1  0
  9 10  2  0
  9 16  1  0
 10 11  1  0
 11 12  1  0
 11 13  2  0
 13 14  1  0
 13 15  1  0
 15 16  2  0
 16 17  1  0
M  END
