
     RDKit          3D

 17 17  0  0  0  0  0  0  0  0999 V2000
    5.4470   -0.2400   -0.4900 C   0  0  0  0  0  0  0  0  0  0  0  0
    4.2240    0.4810   -0.4150 O   0  0  0  0  0  0  0  0  0  0  0  0
    3.0240   -0.1980   -0.1560 C   0  0  0  0  0  0  0  0  0  0  0  0
    3.1160   -1.4240   -0.0060 O   0  0  0  0  0  0  0  0  0  0  0  0
    1.7390    0.5200   -0.0730 C   0  0  0  0  0  0  0  0  0  0  0  0
    1.6180    1.8060   -0.2230 C   0  0  0  0  0  0  0  0  0  0  0  0
   -0.1910    2.1390   -0.0350 S   0  0  0  0  0  0  0  0  0  0  0  0
   -0.4690    0.2800    0.2400 C   0  0  0  0  0  0  0  0  0  0  0  0
   -1.8470   -0.1760    0.4610 C   0  0  0  0  0  0  0  0  0  0  0  0
   -2.0670   -1.0340    1.6440 C   0  0  0  0  0  0  0  0  0  0  0  0
   -1.3270   -2.2070    1.5900 O   0  0  0  0  0  0  0  0  0  0  0  0
   -2.8380    0.1430   -0.3170 C   0  0  0  0  0  0  0  0  0  0  0  0
   -4.1560   -0.3550   -0.0050 N   0  0  0  0  0  0  0  0  0  0  0  0
   -2.7840    0.9680   -1.5440 C   0  0  2  0  0  0  0  0  0  0  0  0
   -3.5480    0.3290   -2.5280 F   0  0  0  0  0  0  0  0  0  0  0  0
   -1.4940    0.9700   -2.0580 F   0  0  0  0  0  0  0  0  0  0  0  0
    0.5910   -0.1270    0.1570 N   0  0  0  0  0  0  0  0  0  0  0  0
  1  2  1  0
  2  3  1  0
  3  4  2  0
  3  5  1  0
  5  6  2  0
  5 17  1  0
  6  7  1  0
  7  8  1  0
  8  9  1  0
  8 17  2  0
  9 10  1  0
  9 12  2  3
 10 11  1  0
 12 13  1  0
 12 14  1  0
 14 15  1  6
 14 16  1  0
M  END
