
     RDKit          3D

 18 18  0  0  0  0  0  0  0  0999 V2000
    0.7000   -2.9160    0.8610 N   0  0  0  0  0  0  0  0  0  0  0  0
    1.4340   -1.5500    1.6270 S   0  0  2  0  0  0  0  0  0  0  0  0
    2.6800   -2.1720    2.3290 O   0  0  0  0  0  0  0  0  0  0  0  0
    0.5990   -1.0960    2.7380 O   0  0  0  0  0  0  0  0  0  0  0  0
    2.0550   -0.3880    0.5340 C   0  0  0  0  0  0  0  0  0  0  0  0
    1.7570    0.7880    0.1500 C   0  0  0  0  0  0  0  0  0  0  0  0
    0.7190    1.7170    0.4650 C   0  0  0  0  0  0  0  0  0  0  0  0
   -0.5950    1.4050    1.0440 C   0  0  0  0  0  0  0  0  0  0  0  0
   -1.4810    0.5840    0.2720 N   0  0  0  0  0  0  0  0  0  0  0  0
   -2.3370    1.0700   -0.8440 C   0  0  0  0  0  0  0  0  0  0  0  0
   -2.4470   -0.1000   -1.8020 C   0  0  0  0  0  0  0  0  0  0  0  0
   -1.7640   -1.2880   -1.1440 C   0  0  0  0  0  0  0  0  0  0  0  0
   -1.7590   -0.8030    0.2840 C   0  0  0  0  0  0  0  0  0  0  0  0
   -1.9700   -1.5260    1.2680 O   0  0  0  0  0  0  0  0  0  0  0  0
    2.7520    1.3740   -0.9130 C   0  0  2  0  0  0  0  0  0  0  0  0
    3.7120    0.4680   -1.2100 F   0  0  0  0  0  0  0  0  0  0  0  0
    3.3600    2.4740   -0.3410 F   0  0  0  0  0  0  0  0  0  0  0  0
    2.0190    1.8190   -1.9910 F   0  0  0  0  0  0  0  0  0  0  0  0
  2  1  1  6
  2  3  2  0
  2  4  2  0
  2  5  1  0
  5  6  2  3
  6  7  1  0
  6 15  1  0
  7  8  1  0
  8  9  1  0
  9 10  1  0
  9 13  1  0
 10 11  1  0
 11 12  1  0
 12 13  1  0
 13 14  2  0
 15 16  1  6
 15 17  1  0
 15 18  1  0
M  END
