
     RDKit          3D

 18 18  0  0  0  0  0  0  0  0999 V2000
    5.8950   -0.9180    0.2570 N   0  0  0  0  0  0  0  0  0  0  0  0
    4.5860   -1.4010    0.5250 C   0  0  0  0  0  0  0  0  0  0  0  0
    4.3850   -2.5280    1.0510 O   0  0  0  0  0  0  0  0  0  0  0  0
    3.4000   -0.6090    0.1990 C   0  0  0  0  0  0  0  0  0  0  0  0
    3.1970    0.6250   -0.3630 C   0  0  0  0  0  0  0  0  0  0  0  0
    1.9320    1.0420   -0.5120 C   0  0  0  0  0  0  0  0  0  0  0  0
    0.8950    0.2980   -0.1340 C   0  0  0  0  0  0  0  0  0  0  0  0
   -0.5440    0.5280   -0.1910 C   0  0  0  0  0  0  0  0  0  0  0  0
   -0.9140    1.6210   -0.6820 O   0  0  0  0  0  0  0  0  0  0  0  0
   -1.4670   -0.3730    0.2550 O   0  0  0  0  0  0  0  0  0  0  0  0
   -2.8290   -0.0620    0.1580 C   0  0  0  0  0  0  0  0  0  0  0  0
   -3.4780    0.6110    1.2300 N   0  0  0  0  0  0  0  0  0  0  0  0
   -3.5320   -0.3750   -0.8990 C   0  0  0  0  0  0  0  0  0  0  0  0
   -4.9650   -0.0490   -1.0030 C   0  0  1  0  0  0  0  0  0  0  0  0
   -5.5140    0.0970    0.2620 F   0  0  0  0  0  0  0  0  0  0  0  0
   -5.1920    1.1510   -1.6610 F   0  0  0  0  0  0  0  0  0  0  0  0
   -5.5900   -1.0740   -1.6900 F   0  0  0  0  0  0  0  0  0  0  0  0
    1.6670   -1.1730    0.5180 S   0  0  0  0  0  0  0  0  0  0  0  0
  1  2  1  0
  2  3  2  0
  2  4  1  0
  4  5  2  0
  4 18  1  0
  5  6  1  0
  6  7  2  0
  7  8  1  0
  7 18  1  0
  8  9  2  0
  8 10  1  0
 10 11  1  0
 11 12  1  0
 11 13  2  3
 13 14  1  0
 14 15  1  1
 14 16  1  0
 14 17  1  0
M  END
