
     RDKit          3D

 21 21  0  0  0  0  0  0  0  0999 V2000
    3.8330   -0.9480    1.4510 C   0  0  0  0  0  0  0  0  0  0  0  0
    3.9260   -1.1150    0.1570 C   0  0  0  0  0  0  0  0  0  0  0  0
    5.2290   -1.5970   -0.4140 C   0  0  0  0  0  0  0  0  0  0  0  0
    2.8210   -0.8630   -0.7530 C   0  0  0  0  0  0  0  0  0  0  0  0
    1.6520   -0.4430   -0.0730 N   0  0  0  0  0  0  0  0  0  0  0  0
    0.6090   -0.1430   -0.9780 C   0  0  0  0  0  0  0  0  0  0  0  0
   -0.6860    0.3110   -0.4180 C   0  0  1  0  0  0  0  0  0  0  0  0
   -0.4840    1.5790    0.3940 C   0  0  1  0  0  0  0  0  0  0  0  0
    0.0670    2.6950   -0.4410 C   0  0  0  0  0  0  0  0  0  0  0  0
   -1.6200    2.0100    1.1970 C   0  0  0  0  0  0  0  0  0  0  0  0
   -1.5270    3.2330    2.0440 C   0  0  0  0  0  0  0  0  0  0  0  0
   -1.3200    4.5490    1.4200 C   0  0  0  0  0  0  0  0  0  0  0  0
   -1.6550    0.5060   -1.5560 C   0  0  0  0  0  0  0  0  0  0  0  0
   -2.7780   -0.4640   -1.6280 C   0  0  0  0  0  0  0  0  0  0  0  0
   -2.2230   -1.8650   -1.4660 C   0  0  0  0  0  0  0  0  0  0  0  0
   -1.5970   -1.9590   -0.2140 N   0  0  0  0  0  0  0  0  0  0  0  0
   -0.7920   -3.3400    0.2310 S   0  0  2  0  0  0  0  0  0  0  0  0
   -1.8050   -4.7340    0.3010 N   0  0  0  0  0  0  0  0  0  0  0  0
   -0.2050   -3.1680    1.6060 O   0  0  0  0  0  0  0  0  0  0  0  0
    0.3750   -3.7170   -0.6720 O   0  0  0  0  0  0  0  0  0  0  0  0
   -1.3400   -0.7410    0.4740 C   0  0  0  0  0  0  0  0  0  0  0  0
  1  2  2  0
  2  3  1  0
  2  4  1  0
  4  5  1  0
  5  6  1  0
  7  6  1  6
  7  8  1  0
  7 13  1  0
  7 21  1  0
  8  9  1  6
  8 10  1  0
 10 11  1  0
 11 12  1  0
 13 14  1  0
 14 15  1  0
 15 16  1  0
 16 17  1  0
 16 21  1  0
 17 18  1  1
 17 19  2  0
 17 20  2  0
M  END
