
     RDKit          3D

 21 22  0  0  0  0  0  0  0  0999 V2000
   -3.8060   -0.7230    2.8790 C   0  0  0  0  0  0  0  0  0  0  0  0
   -3.4990    0.5260    2.6470 N   0  0  0  0  0  0  0  0  0  0  0  0
   -2.9980    0.9500    1.3990 C   0  0  0  0  0  0  0  0  0  0  0  0
   -3.2600    2.1380    0.9490 C   0  0  0  0  0  0  0  0  0  0  0  0
   -2.1980    0.0640    0.6360 N   0  0  0  0  0  0  0  0  0  0  0  0
   -1.8230    0.4190   -0.6870 C   0  0  0  0  0  0  0  0  0  0  0  0
   -1.0830   -0.6020   -1.4670 C   0  0  1  0  0  0  0  0  0  0  0  0
    0.1260   -0.9820   -0.7700 N   0  0  0  0  0  0  0  0  0  0  0  0
    1.4520   -0.6550   -1.2430 C   0  0  0  0  0  0  0  0  0  0  0  0
    1.5340   -0.0180   -2.2980 O   0  0  0  0  0  0  0  0  0  0  0  0
    2.6340   -1.0850   -0.4690 C   0  0  0  0  0  0  0  0  0  0  0  0
    3.8290   -0.6970   -1.0170 O   0  0  0  0  0  0  0  0  0  0  0  0
    4.0580    0.6410   -1.1380 C   0  0  0  0  0  0  0  0  0  0  0  0
    4.0120    1.3090    0.1630 C   0  0  0  0  0  0  0  0  0  0  0  0
    3.1970    2.3930    0.5740 C   0  0  0  0  0  0  0  0  0  0  0  0
    3.3420    2.8380    1.8150 C   0  0  0  0  0  0  0  0  0  0  0  0
    4.2470    2.2710    2.6690 C   0  0  0  0  0  0  0  0  0  0  0  0
    4.9530    0.9790    1.5860 S   0  0  0  0  0  0  0  0  0  0  0  0
   -1.9090   -1.7270   -1.9660 C   0  0  2  0  0  0  0  0  0  0  0  0
   -2.6200   -2.6120   -1.0330 C   0  0  0  0  0  0  0  0  0  0  0  0
   -1.5130   -3.1500   -1.8850 C   0  0  0  0  0  0  0  0  0  0  0  0
  1  2  2  0
  2  3  1  0
  3  4  2  0
  3  5  1  0
  5  6  1  0
  7  6  1  1
  7  8  1  0
  7 19  1  0
  8  9  1  0
  9 10  2  0
  9 11  1  0
 11 12  1  0
 12 13  1  0
 13 14  1  0
 14 15  2  0
 14 18  1  0
 15 16  1  0
 16 17  2  0
 17 18  1  0
 19 20  1  1
 19 21  1  0
 20 21  1  0
M  END
