
     RDKit          3D

 21 21  0  0  0  0  0  0  0  0999 V2000
    6.5450   -0.4560    0.1190 C   0  0  0  0  0  0  0  0  0  0  0  0
    5.5180    0.3250    0.4040 N   0  0  0  0  0  0  0  0  0  0  0  0
    4.1740   -0.2150    0.1010 C   0  0  0  0  0  0  0  0  0  0  0  0
    4.0850   -1.4440    0.4840 C   0  0  0  0  0  0  0  0  0  0  0  0
    3.2910    0.6480   -0.5800 C   0  0  0  0  0  0  0  0  0  0  0  0
    3.5450    1.9340   -0.8600 C   0  0  0  0  0  0  0  0  0  0  0  0
    4.5690    2.8350   -0.6550 C   0  0  0  0  0  0  0  0  0  0  0  0
    6.0130    2.8230    0.0500 S   0  0  0  0  0  0  0  0  0  0  0  0
    1.9640    0.2000   -1.0780 C   0  0  0  0  0  0  0  0  0  0  0  0
    1.2640    1.1220   -1.6780 O   0  0  0  0  0  0  0  0  0  0  0  0
    1.3420   -1.0330   -1.0170 N   0  0  0  0  0  0  0  0  0  0  0  0
    0.0050   -1.2820   -1.5690 C   0  0  0  0  0  0  0  0  0  0  0  0
   -1.0620   -0.4280   -0.9630 C   0  0  2  0  0  0  0  0  0  0  0  0
   -1.2190   -0.5390    0.5060 C   0  0  0  0  0  0  0  0  0  0  0  0
   -2.6470   -0.2720    0.9000 N   0  0  0  0  0  0  0  0  0  0  0  0
   -2.9600    1.0620    0.5670 C   0  0  0  0  0  0  0  0  0  0  0  0
   -4.1890    1.6220    1.1500 C   0  0  0  0  0  0  0  0  0  0  0  0
   -5.4610    0.9880    0.7450 C   0  0  0  0  0  0  0  0  0  0  0  0
   -3.4260   -1.3430    0.3950 C   0  0  0  0  0  0  0  0  0  0  0  0
   -2.8230   -1.8880   -0.8920 C   0  0  0  0  0  0  0  0  0  0  0  0
   -2.2720   -0.8080   -1.5790 O   0  0  0  0  0  0  0  0  0  0  0  0
  1  2  2  0
  2  3  1  0
  3  4  2  0
  3  5  1  0
  5  6  2  3
  5  9  1  0
  6  7  1  0
  7  8  2  0
  9 10  2  0
  9 11  1  0
 11 12  1  0
 13 12  1  6
 13 14  1  0
 13 21  1  0
 14 15  1  0
 15 16  1  0
 15 19  1  0
 16 17  1  0
 17 18  1  0
 19 20  1  0
 20 21  1  0
M  END
