
     RDKit          3D

 21 21  0  0  0  0  0  0  0  0999 V2000
   -5.6650    1.5430   -0.8000 C   0  0  0  0  0  0  0  0  0  0  0  0
   -4.4390    1.4750    0.0880 C   0  0  0  0  0  0  0  0  0  0  0  0
   -4.4180    0.2630    0.9210 C   0  0  0  0  0  0  0  0  0  0  0  0
   -5.5140   -0.0080    1.8860 C   0  0  0  0  0  0  0  0  0  0  0  0
   -3.4700   -0.5700    0.8340 N   0  0  0  0  0  0  0  0  0  0  0  0
   -2.3410   -0.5290    0.0080 C   0  0  0  0  0  0  0  0  0  0  0  0
   -1.4040    0.4810    0.0090 C   0  0  0  0  0  0  0  0  0  0  0  0
   -0.3050    0.4550   -0.8400 C   0  0  0  0  0  0  0  0  0  0  0  0
   -0.0980   -0.5790   -1.7210 C   0  0  0  0  0  0  0  0  0  0  0  0
    1.2910   -0.6950   -2.8200 S   0  0  0  0  0  0  0  0  0  0  0  0
    2.5970   -1.6880   -2.1220 C   0  0  0  0  0  0  0  0  0  0  0  0
    3.1980   -0.9690   -0.9470 C   0  0  0  0  0  0  0  0  0  0  0  0
    2.7890    0.1600   -0.6370 O   0  0  0  0  0  0  0  0  0  0  0  0
    4.2220   -1.5440   -0.1790 N   0  0  0  0  0  0  0  0  0  0  0  0
    4.9160   -1.0320    0.9550 C   0  0  0  0  0  0  0  0  0  0  0  0
    5.6890    0.2210    0.7950 C   0  0  0  0  0  0  0  0  0  0  0  0
    5.0000    1.4240    0.5130 N   0  0  0  0  0  0  0  0  0  0  0  0
    4.0800    1.9520    1.4780 C   0  0  0  0  0  0  0  0  0  0  0  0
    3.9270    1.3130    2.5460 O   0  0  0  0  0  0  0  0  0  0  0  0
   -1.0530   -1.6050   -1.7200 C   0  0  0  0  0  0  0  0  0  0  0  0
   -2.1430   -1.5710   -0.8740 C   0  0  0  0  0  0  0  0  0  0  0  0
  1  2  1  0
  2  3  1  0
  3  4  1  0
  3  5  2  3
  5  6  1  0
  6  7  2  0
  6 21  1  0
  7  8  1  0
  8  9  2  0
  9 10  1  0
  9 20  1  0
 10 11  1  0
 11 12  1  0
 12 13  2  0
 12 14  1  0
 14 15  1  0
 15 16  1  0
 16 17  1  0
 17 18  1  0
 18 19  2  0
 20 21  2  0
M  END
