
     RDKit          3D

 21 22  0  0  0  0  0  0  0  0999 V2000
   -3.7490   -0.0190    2.0290 C   0  0  0  0  0  0  0  0  0  0  0  0
   -3.8700   -0.6650    0.6820 C   0  0  0  0  0  0  0  0  0  0  0  0
   -2.9080   -0.1100   -0.3380 C   0  0  1  0  0  0  0  0  0  0  0  0
   -3.0790    1.3470   -0.5890 C   0  0  0  0  0  0  0  0  0  0  0  0
   -4.4950    1.5630   -1.1040 C   0  0  0  0  0  0  0  0  0  0  0  0
   -4.7690    0.8580   -2.3140 N   0  0  0  0  0  0  0  0  0  0  0  0
   -1.5640   -0.5560   -0.1100 N   0  0  0  0  0  0  0  0  0  0  0  0
   -1.3120   -1.8750   -0.3830 C   0  0  0  0  0  0  0  0  0  0  0  0
   -2.2170   -2.6250   -0.8060 O   0  0  0  0  0  0  0  0  0  0  0  0
   -0.0740   -2.3940   -0.2000 N   0  0  0  0  0  0  0  0  0  0  0  0
    0.9480   -1.6520    0.2500 C   0  0  0  0  0  0  0  0  0  0  0  0
    0.7020   -0.3310    0.5250 C   0  0  0  0  0  0  0  0  0  0  0  0
    2.0220    0.7390    1.1350 S   0  0  0  0  0  0  0  0  0  0  0  0
    3.5350   -0.1980    1.2820 C   0  0  0  0  0  0  0  0  0  0  0  0
    4.6620    0.2080    0.7660 C   0  0  0  0  0  0  0  0  0  0  0  0
    4.9110    1.4290    0.0120 C   0  0  0  0  0  0  0  0  0  0  0  0
    6.0220    1.3090   -0.6820 C   0  0  0  0  0  0  0  0  0  0  0  0
    6.6110   -0.0180   -0.4450 C   0  0  0  0  0  0  0  0  0  0  0  0
    5.9670   -0.4950    0.8320 C   0  0  0  0  0  0  0  0  0  0  0  0
   -0.5520    0.1990    0.3410 C   0  0  0  0  0  0  0  0  0  0  0  0
   -0.7850    1.3970    0.5880 O   0  0  0  0  0  0  0  0  0  0  0  0
  1  2  1  0
  3  2  1  1
  3  4  1  0
  3  7  1  0
  4  5  1  0
  5  6  1  0
  7  8  1  0
  7 20  1  0
  8  9  2  0
  8 10  1  0
 10 11  1  0
 11 12  2  0
 12 13  1  0
 12 20  1  0
 13 14  1  0
 14 15  2  3
 15 16  1  0
 15 19  1  0
 16 17  2  0
 17 18  1  0
 18 19  1  0
 20 21  2  0
M  END
