
     RDKit          3D

 21 21  0  0  0  0  0  0  0  0999 V2000
    7.2220    1.5710   -0.1470 C   0  0  0  0  0  0  0  0  0  0  0  0
    6.1120    0.5500    0.0600 C   0  0  0  0  0  0  0  0  0  0  0  0
    5.6170    0.0010   -1.2440 C   0  0  0  0  0  0  0  0  0  0  0  0
    4.5290   -1.0110   -1.0300 C   0  0  0  0  0  0  0  0  0  0  0  0
    3.3380   -0.4060   -0.3140 C   0  0  0  0  0  0  0  0  0  0  0  0
    2.2450   -1.3960   -0.0990 C   0  0  0  0  0  0  0  0  0  0  0  0
    1.0780   -0.7830    0.6150 C   0  0  0  0  0  0  0  0  0  0  0  0
    0.4310    0.3590   -0.1020 C   0  0  0  0  0  0  0  0  0  0  0  0
   -0.7290    0.9350    0.6610 C   0  0  0  0  0  0  0  0  0  0  0  0
   -1.7770   -0.1020    0.8650 C   0  0  0  0  0  0  0  0  0  0  0  0
   -2.9880    0.4750    1.6240 C   0  0  0  0  0  0  0  0  0  0  0  0
   -3.9460   -0.7190    1.7410 C   0  0  0  0  0  0  0  0  0  0  0  0
   -4.3150   -1.2180    0.0370 S   0  0  0  0  0  0  0  0  0  0  0  0
   -5.2530    0.1240   -0.7190 C   0  0  0  0  0  0  0  0  0  0  0  0
   -4.8270    1.1910   -1.3750 N   0  0  0  0  0  0  0  0  0  0  0  0
   -5.8820    1.8760   -1.7390 N   0  0  0  0  0  0  0  0  0  0  0  0
   -6.9880    1.2840   -1.3370 N   0  0  0  0  0  0  0  0  0  0  0  0
   -6.6270    0.1520   -0.6760 C   0  0  0  0  0  0  0  0  0  0  0  0
   -7.5220   -0.8200   -0.0550 C   0  0  0  0  0  0  0  0  0  0  0  0
   -7.0410   -1.8160    0.5230 O   0  0  0  0  0  0  0  0  0  0  0  0
   -8.8910   -0.6740   -0.0870 O   0  0  0  0  0  0  0  0  0  0  0  0
  1  2  1  0
  2  3  1  0
  3  4  1  0
  4  5  1  0
  5  6  1  0
  6  7  1  0
  7  8  1  0
  8  9  1  0
  9 10  1  0
 10 11  1  0
 11 12  1  0
 12 13  1  0
 13 14  1  0
 14 15  1  0
 14 18  2  0
 15 16  1  0
 16 17  2  0
 17 18  1  0
 18 19  1  0
 19 20  2  0
 19 21  1  0
M  END
