
     RDKit          3D

 15 15  0  0  0  0  0  0  0  0999 V2000
   -1.6220    0.4690    1.7980 O   0  0  0  0  0  0  0  0  0  0  0  0
   -1.6020   -0.5470    1.0640 C   0  0  0  0  0  0  0  0  0  0  0  0
   -1.6640   -1.7930    1.6620 O   0  0  0  0  0  0  0  0  0  0  0  0
   -1.5160   -0.4070   -0.3890 C   0  0  2  0  0  0  0  0  0  0  0  0
   -0.2730   -1.0880   -0.8910 C   0  0  0  0  0  0  0  0  0  0  0  0
    0.9690   -0.5570   -0.3440 C   0  0  0  0  0  0  0  0  0  0  0  0
    1.5550   -1.0320    0.8070 C   0  0  0  0  0  0  0  0  0  0  0  0
    2.7310   -0.5130    1.3030 C   0  0  0  0  0  0  0  0  0  0  0  0
    3.3380    0.5300    0.6050 C   0  0  0  0  0  0  0  0  0  0  0  0
    2.7780    1.0210   -0.5400 C   0  0  0  0  0  0  0  0  0  0  0  0
    1.5950    0.4740   -1.0100 C   0  0  0  0  0  0  0  0  0  0  0  0
   -1.6690    0.9950   -0.8830 C   0  0  0  0  0  0  0  0  0  0  0  0
   -2.9420    1.5230   -0.5000 N   0  0  0  0  0  0  0  0  0  0  0  0
   -3.0020    2.5370    0.2170 O   0  0  0  0  0  0  0  0  0  0  0  0
   -4.1090    0.9150   -0.9190 O   0  0  0  0  0  0  0  0  0  0  0  0
  1  2  2  0
  2  3  1  0
  2  4  1  0
  4  5  1  1
  4 12  1  0
  5  6  1  0
  6  7  2  0
  6 11  1  0
  7  8  1  0
  8  9  2  0
  9 10  1  0
 10 11  2  0
 12 13  1  0
 13 14  2  0
 13 15  1  0
M  CHG  2  13   1  15  -1
M  END
