
     RDKit          3D

 25 25  0  0  0  0  0  0  0  0999 V2000
    4.7590   -2.6550   -2.0730 C   0  0  0  0  0  0  0  0  0  0  0  0
    4.5630   -1.5600   -1.2050 O   0  0  0  0  0  0  0  0  0  0  0  0
    3.4960   -1.4540   -0.3430 C   0  0  0  0  0  0  0  0  0  0  0  0
    2.6700   -2.4290   -0.3730 O   0  0  0  0  0  0  0  0  0  0  0  0
    3.2470   -0.3280    0.5840 C   0  0  2  0  0  0  0  0  0  0  0  0
    4.3960   -0.1200    1.5370 C   0  0  0  0  0  0  0  0  0  0  0  0
    5.6520    0.0960    0.8590 N   0  0  0  0  0  0  0  0  0  0  0  0
    6.8020    0.2990    1.6720 C   0  0  0  0  0  0  0  0  0  0  0  0
    6.7040    0.2870    2.9440 O   0  0  0  0  0  0  0  0  0  0  0  0
    8.0620    0.5160    1.1590 O   0  0  0  0  0  0  0  0  0  0  0  0
    2.0720   -0.5170    1.3120 O   0  0  0  0  0  0  0  0  0  0  0  0
    1.1750    0.4720    1.0830 N   0  0  0  0  0  0  0  0  0  0  0  0
    0.1720    0.4260    0.0750 C   0  0  0  0  0  0  0  0  0  0  0  0
    0.1670   -0.6280   -0.6160 O   0  0  0  0  0  0  0  0  0  0  0  0
   -0.7240    1.5500   -0.0640 C   0  0  2  0  0  0  0  0  0  0  0  0
   -0.4080    2.5620    0.9250 N   0  0  0  0  0  0  0  0  0  0  0  0
   -2.1780    1.2880   -0.0860 C   0  0  2  0  0  0  0  0  0  0  0  0
   -2.7810    0.6380    1.0900 C   0  0  0  0  0  0  0  0  0  0  0  0
   -3.3020   -0.7770    0.7960 C   0  0  0  0  0  0  0  0  0  0  0  0
   -4.4470   -0.6130   -0.1830 C   0  0  1  0  0  0  0  0  0  0  0  0
   -4.8130   -1.9100   -0.8650 C   0  0  0  0  0  0  0  0  0  0  0  0
   -5.6190   -0.0530    0.6080 C   0  0  0  0  0  0  0  0  0  0  0  0
   -4.0930    0.3770   -1.2720 C   0  0  0  0  0  0  0  0  0  0  0  0
   -2.5820    0.4870   -1.3260 C   0  0  1  0  0  0  0  0  0  0  0  0
   -2.2850    1.2150   -2.4870 O   0  0  0  0  0  0  0  0  0  0  0  0
  1  2  1  0
  2  3  1  0
  3  4  2  0
  3  5  1  0
  5  6  1  1
  5 11  1  0
  6  7  1  0
  7  8  1  0
  8  9  2  0
  8 10  1  0
 11 12  1  0
 12 13  1  0
 13 14  2  0
 13 15  1  0
 15 16  1  1
 15 17  1  0
 17 18  1  1
 17 24  1  0
 18 19  1  0
 19 20  1  0
 20 21  1  6
 20 22  1  0
 20 23  1  0
 23 24  1  0
 24 25  1  6
M  CHG  1  16   1
M  END
