
     RDKit          3D

 10 10  0  0  0  0  0  0  0  0999 V2000
   -2.1010    2.0460   -0.1020 N   0  0  0  0  0  0  0  0  0  0  0  0
   -1.6310    0.6860   -0.1630 C   0  0  0  0  0  0  0  0  0  0  0  0
   -2.4850   -0.1990   -0.4570 N   0  0  0  0  0  0  0  0  0  0  0  0
   -2.2360   -1.5220   -0.5610 O   0  0  0  0  0  0  0  0  0  0  0  0
   -0.2230    0.4090    0.1130 C   0  0  0  0  0  0  0  0  0  0  0  0
    0.4010   -0.7440    0.1110 C   0  0  0  0  0  0  0  0  0  0  0  0
    1.8090   -0.4580    0.4540 C   0  0  1  0  0  0  0  0  0  0  0  0
    2.6050   -0.7640   -0.7200 N   0  0  0  0  0  0  0  0  0  0  0  0
    1.8470    0.9540    0.6330 N   0  0  0  0  0  0  0  0  0  0  0  0
    0.7270    1.4480    0.4470 N   0  0  0  0  0  0  0  0  0  0  0  0
  1  2  1  0
  2  3  2  3
  2  5  1  0
  3  4  1  0
  5  6  2  0
  5 10  1  0
  6  7  1  0
  7  8  1  6
  7  9  1  0
  9 10  2  0
M  END
