
     RDKit          3D

  9  9  0  0  0  0  0  0  0  0999 V2000
    2.1370   -0.1660    0.9800 C   0  0  0  0  0  0  0  0  0  0  0  0
    1.2350    0.8080    1.2720 O   0  0  0  0  0  0  0  0  0  0  0  0
    0.5550    1.2990    0.2050 C   0  0  0  0  0  0  0  0  0  0  0  0
   -0.2890    0.3680   -0.5800 C   0  0  1  0  0  0  0  0  0  0  0  0
   -0.9820    1.0340   -1.6110 O   0  0  0  0  0  0  0  0  0  0  0  0
    0.4370   -0.7330   -1.0930 O   0  0  0  0  0  0  0  0  0  0  0  0
   -0.7990   -1.4190   -1.0990 C   0  0  0  0  0  0  0  0  0  0  0  0
   -1.1720   -0.5970    0.1170 C   0  0  2  0  0  0  0  0  0  0  0  0
   -2.5080   -0.2030    0.0560 O   0  0  0  0  0  0  0  0  0  0  0  0
  1  2  1  0
  2  3  1  0
  3  4  1  0
  4  5  1  6
  4  6  1  0
  4  8  1  0
  6  7  1  0
  7  8  1  0
  8  9  1  6
M  END
