
     RDKit          3D

  9  9  0  0  0  0  0  0  0  0999 V2000
    2.4890   -0.4860    0.0600 O   0  0  0  0  0  0  0  0  0  0  0  0
    2.1610    0.7960   -0.4110 C   0  0  0  0  0  0  0  0  0  0  0  0
    0.9260    0.7400   -1.0370 O   0  0  0  0  0  0  0  0  0  0  0  0
   -0.0030    0.3090   -0.0970 C   0  0  1  0  0  0  0  0  0  0  0  0
   -1.1400    1.3100    0.0610 C   0  0  0  0  0  0  0  0  0  0  0  0
   -2.2420    0.7190   -0.5970 O   0  0  0  0  0  0  0  0  0  0  0  0
   -2.1480   -0.5900   -0.0940 C   0  0  0  0  0  0  0  0  0  0  0  0
   -0.7330   -0.9400   -0.5450 C   0  0  2  0  0  0  0  0  0  0  0  0
   -0.2810   -2.0740    0.1230 O   0  0  0  0  0  0  0  0  0  0  0  0
  1  2  1  0
  2  3  1  0
  4  3  1  6
  4  5  1  0
  4  8  1  0
  5  6  1  0
  6  7  1  0
  7  8  1  0
  8  9  1  1
M  END
