
     RDKit          3D

  9  8  0  0  0  0  0  0  0  0999 V2000
    2.0520    0.3730    0.0020 C   0  0  0  0  0  0  0  0  0  0  0  0
    0.8270   -0.4590   -0.1730 C   0  0  1  0  0  0  0  0  0  0  0  0
    0.8460   -1.0200   -1.4490 O   0  0  0  0  0  0  0  0  0  0  0  0
    0.8280   -1.5430    0.7290 O   0  0  0  0  0  0  0  0  0  0  0  0
   -0.4490    0.3380   -0.0540 C   0  0  1  0  0  0  0  0  0  0  0  0
   -0.5920    0.9640    1.3230 C   0  0  0  0  0  0  0  0  0  0  0  0
   -0.4160    1.3180   -1.0450 O   0  0  0  0  0  0  0  0  0  0  0  0
   -1.6340   -0.5590   -0.2630 C   0  0  0  0  0  0  0  0  0  0  0  0
   -1.6220   -1.2130   -1.4870 O   0  0  0  0  0  0  0  0  0  0  0  0
  2  1  1  1
  2  3  1  0
  2  4  1  0
  2  5  1  0
  5  6  1  1
  5  7  1  0
  5  8  1  0
  8  9  1  0
M  END
