
     RDKit          3D

  9  9  0  0  0  0  0  0  0  0999 V2000
   -2.3710    1.3780   -0.3940 O   0  0  0  0  0  0  0  0  0  0  0  0
   -2.2490    0.3280    0.4800 C   0  0  0  0  0  0  0  0  0  0  0  0
   -0.9410   -0.4050    0.3470 C   0  0  1  0  0  0  0  0  0  0  0  0
   -0.6630   -0.8070   -1.0900 C   0  0  0  0  0  0  0  0  0  0  0  0
    0.7170   -1.0610   -0.9940 O   0  0  0  0  0  0  0  0  0  0  0  0
    1.1410    0.0810   -0.3110 C   0  0  2  0  0  0  0  0  0  0  0  0
    2.4110   -0.1930    0.4800 C   0  0  0  0  0  0  0  0  0  0  0  0
    2.7540    0.9970    1.1230 O   0  0  0  0  0  0  0  0  0  0  0  0
    0.1560    0.4190    0.5840 O   0  0  0  0  0  0  0  0  0  0  0  0
  1  2  1  0
  3  2  1  6
  3  4  1  0
  3  9  1  0
  4  5  1  0
  5  6  1  0
  6  7  1  1
  6  9  1  0
  7  8  1  0
M  END
