
     RDKit          3D

 20 20  0  0  0  0  0  0  0  0999 V2000
    4.6450    2.5930    1.9860 O   0  0  0  0  0  0  0  0  0  0  0  0
    4.2800    2.3740    0.4880 P   0  0  0  0  0  0  0  0  0  0  0  0
    4.8100    0.7950   -0.3710 C   0  0  0  0  0  0  0  0  0  0  0  0
    3.6620    0.3200   -1.1080 N   0  0  0  0  0  0  0  0  0  0  0  0
    2.4830    0.0130   -0.3890 C   0  0  0  0  0  0  0  0  0  0  0  0
    2.4630    0.1590    0.8520 O   0  0  0  0  0  0  0  0  0  0  0  0
    1.2990   -0.4710   -1.0950 C   0  0  0  0  0  0  0  0  0  0  0  0
    0.1880   -0.7350   -0.2140 N   0  0  0  0  0  0  0  0  0  0  0  0
   -0.7810    0.2290    0.1240 C   0  0  0  0  0  0  0  0  0  0  0  0
   -0.4750    1.4440    0.0110 O   0  0  0  0  0  0  0  0  0  0  0  0
   -2.1450   -0.0840    0.6080 C   0  0  1  0  0  0  0  0  0  0  0  0
   -3.0280    0.1550   -0.4490 O   0  0  0  0  0  0  0  0  0  0  0  0
   -3.9370    1.0620   -0.1320 O   0  0  0  0  0  0  0  0  0  0  0  0
   -3.9190    2.3240   -0.7140 C   0  0  0  0  0  0  0  0  0  0  0  0
   -3.0010    2.5740   -1.5580 O   0  0  0  0  0  0  0  0  0  0  0  0
   -4.8630    3.2880   -0.3950 O   0  0  0  0  0  0  0  0  0  0  0  0
   -2.2860   -1.5200    1.0360 C   0  0  0  0  0  0  0  0  0  0  0  0
   -1.4190   -2.4430    0.2060 C   0  0  0  0  0  0  0  0  0  0  0  0
    0.0360   -2.0740    0.3760 C   0  0  1  0  0  0  0  0  0  0  0  0
    0.7810   -2.9810   -0.3340 F   0  0  0  0  0  0  0  0  0  0  0  0
  1  2  2  0
  2  3  1  0
  3  4  1  0
  4  5  1  0
  5  6  2  0
  5  7  1  0
  7  8  1  0
  8  9  1  0
  8 19  1  0
  9 10  2  0
  9 11  1  0
 11 12  1  6
 11 17  1  0
 12 13  1  0
 13 14  1  0
 14 15  2  0
 14 16  1  0
 17 18  1  0
 18 19  1  0
 19 20  1  6
M  END
