
     RDKit          3D

 21 21  0  0  0  0  0  0  0  0999 V2000
   -6.0320   -0.6200    0.1860 C   0  0  0  0  0  0  0  0  0  0  0  0
   -5.3520   -0.6320   -1.1600 C   0  0  0  0  0  0  0  0  0  0  0  0
   -3.9510   -0.4920   -1.0550 O   0  0  0  0  0  0  0  0  0  0  0  0
   -3.3080    0.5790   -0.4930 C   0  0  0  0  0  0  0  0  0  0  0  0
   -4.0060    1.5180   -0.0310 O   0  0  0  0  0  0  0  0  0  0  0  0
   -1.8390    0.7150   -0.3880 C   0  0  1  0  0  0  0  0  0  0  0  0
   -1.1830    0.5190   -1.7410 C   0  0  0  0  0  0  0  0  0  0  0  0
   -1.4560    1.8890    0.2200 O   0  0  0  0  0  0  0  0  0  0  0  0
   -0.1630    1.7140    0.6690 C   0  0  0  0  0  0  0  0  0  0  0  0
   -0.0250    0.2360    0.8300 C   0  0  0  0  0  0  0  0  0  0  0  0
    1.0260   -0.4100    1.2120 N   0  0  0  0  0  0  0  0  0  0  0  0
    2.2680    0.2020    1.5550 C   0  0  2  0  0  0  0  0  0  0  0  0
    2.0930    1.3990    2.1790 F   0  0  0  0  0  0  0  0  0  0  0  0
    3.0330    0.3960    0.3150 N   0  0  0  0  0  0  0  0  0  0  0  0
    4.2590   -0.2810    0.1360 C   0  0  0  0  0  0  0  0  0  0  0  0
    4.7120   -1.0560    1.0320 O   0  0  0  0  0  0  0  0  0  0  0  0
    5.0350   -0.1410   -1.0180 O   0  0  0  0  0  0  0  0  0  0  0  0
    6.5670   -1.0280   -1.1660 P   0  0  0  0  0  0  0  0  0  0  0  0
    7.5740   -0.5360    0.1680 O   0  0  0  0  0  0  0  0  0  0  0  0
    6.2120   -2.7420   -1.0280 O   0  0  0  0  0  0  0  0  0  0  0  0
   -1.2710   -0.2670    0.4770 O   0  0  0  0  0  0  0  0  0  0  0  0
  1  2  1  0
  2  3  1  0
  3  4  1  0
  4  5  2  0
  4  6  1  0
  6  7  1  6
  6  8  1  0
  6 21  1  0
  8  9  1  0
  9 10  1  0
 10 11  2  3
 10 21  1  0
 11 12  1  0
 12 13  1  6
 12 14  1  0
 14 15  1  0
 15 16  2  0
 15 17  1  0
 17 18  1  0
 18 19  1  0
 18 20  1  0
M  END
