
     RDKit          3D

 20 20  0  0  0  0  0  0  0  0999 V2000
   -5.2090    0.2370   -0.4310 C   0  0  0  0  0  0  0  0  0  0  0  0
   -3.8210    0.0030   -0.5520 O   0  0  0  0  0  0  0  0  0  0  0  0
   -2.9670   -0.0470    0.5370 C   0  0  0  0  0  0  0  0  0  0  0  0
   -3.4850    0.1290    1.6660 O   0  0  0  0  0  0  0  0  0  0  0  0
   -1.5210   -0.2980    0.3190 C   0  0  2  0  0  0  0  0  0  0  0  0
   -1.4260   -1.7120   -0.2700 C   0  0  0  0  0  0  0  0  0  0  0  0
   -2.1400   -1.7290   -1.4600 F   0  0  0  0  0  0  0  0  0  0  0  0
   -0.8050   -0.3160    1.5230 O   0  0  0  0  0  0  0  0  0  0  0  0
    0.5720   -0.3120    1.5300 C   0  0  0  0  0  0  0  0  0  0  0  0
    1.2640   -0.9280    2.3890 O   0  0  0  0  0  0  0  0  0  0  0  0
    1.2300    0.4320    0.5070 N   0  0  0  0  0  0  0  0  0  0  0  0
    2.6560    0.5280    0.3870 C   0  0  0  0  0  0  0  0  0  0  0  0
    3.1230   -0.6110   -0.4960 C   0  0  0  0  0  0  0  0  0  0  0  0
    4.9570   -0.5580   -0.7020 P   0  0  0  0  0  0  0  0  0  0  0  0
    5.7010   -1.9230    0.0860 O   0  0  0  0  0  0  0  0  0  0  0  0
    5.5530    0.9100   -0.0240 O   0  0  0  0  0  0  0  0  0  0  0  0
    0.3950    1.1010   -0.4280 C   0  0  0  0  0  0  0  0  0  0  0  0
    0.8650    2.0560   -1.0930 O   0  0  0  0  0  0  0  0  0  0  0  0
   -1.0110    0.7250   -0.6590 C   0  0  2  0  0  0  0  0  0  0  0  0
   -1.8240    1.9190   -0.5270 N   0  0  0  0  0  0  0  0  0  0  0  0
  1  2  1  0
  2  3  1  0
  3  4  2  0
  3  5  1  0
  5  6  1  6
  5  8  1  0
  5 19  1  0
  6  7  1  0
  8  9  1  0
  9 10  2  0
  9 11  1  0
 11 12  1  0
 11 17  1  0
 12 13  1  0
 13 14  1  0
 14 15  1  0
 14 16  1  0
 17 18  2  0
 17 19  1  0
 19 20  1  1
M  END
