
     RDKit          3D

  7  6  0  0  0  0  0  0  0  0999 V2000
    1.8950    0.9190   -0.7410 O   0  0  0  0  0  0  0  0  0  0  0  0
    1.0750    0.0890   -0.2260 C   0  0  0  0  0  0  0  0  0  0  0  0
    1.7250   -1.0150    0.3280 O   0  0  0  0  0  0  0  0  0  0  0  0
   -0.6270    0.2650   -0.1950 P   0  0  0  0  0  0  0  0  0  0  0  0
   -1.6260   -0.9700   -0.7310 O   0  0  0  0  0  0  0  0  0  0  0  0
   -0.9210   -0.1750    1.2530 O   0  0  0  0  0  0  0  0  0  0  0  0
   -1.3310    1.7230    0.1920 O   0  0  0  0  0  0  0  0  0  0  0  0
  1  2  2  0
  2  3  1  0
  2  4  1  0
  4  5  1  0
  4  6  1  0
  4  7  1  0
M  END
