
     RDKit          3D

 21 21  0  0  0  0  0  0  0  0999 V2000
    1.2410    0.2490    1.7880 C   0  0  0  0  0  0  0  0  0  0  0  0
    1.0740   -0.2120    0.3560 C   0  0  1  0  0  0  0  0  0  0  0  0
    1.0920   -1.5940    0.2810 F   0  0  0  0  0  0  0  0  0  0  0  0
   -0.1820    0.3130   -0.1140 N   0  0  0  0  0  0  0  0  0  0  0  0
   -1.3750   -0.0580    0.5510 C   0  0  0  0  0  0  0  0  0  0  0  0
   -1.2720   -0.8400    1.5340 O   0  0  0  0  0  0  0  0  0  0  0  0
   -2.7120    0.4180    0.1570 C   0  0  1  0  0  0  0  0  0  0  0  0
   -2.7040    1.9400    0.3220 C   0  0  0  0  0  0  0  0  0  0  0  0
   -3.0260    0.1480   -1.2910 C   0  0  0  0  0  0  0  0  0  0  0  0
   -3.2760   -1.2940   -1.5930 C   0  0  0  0  0  0  0  0  0  0  0  0
   -3.6950   -2.0490   -0.4360 N   0  0  0  0  0  0  0  0  0  0  0  0
   -4.1400   -1.4130    0.7530 C   0  0  0  0  0  0  0  0  0  0  0  0
   -4.9440   -2.0080    1.5420 O   0  0  0  0  0  0  0  0  0  0  0  0
   -3.6730   -0.1360    1.0190 O   0  0  0  0  0  0  0  0  0  0  0  0
    2.1390    0.3450   -0.4220 O   0  0  0  0  0  0  0  0  0  0  0  0
    3.4610    0.0730   -0.1390 C   0  0  0  0  0  0  0  0  0  0  0  0
    3.7140   -0.6790    0.8220 O   0  0  0  0  0  0  0  0  0  0  0  0
    4.5320    0.5820   -0.8560 O   0  0  0  0  0  0  0  0  0  0  0  0
    6.2020    0.1980   -0.4470 P   0  0  0  0  0  0  0  0  0  0  0  0
    7.0400   -0.5240   -1.7570 O   0  0  0  0  0  0  0  0  0  0  0  0
    7.0310    1.5600    0.2100 O   0  0  0  0  0  0  0  0  0  0  0  0
  2  1  1  1
  2  3  1  0
  2  4  1  0
  2 15  1  0
  4  5  1  0
  5  6  2  0
  5  7  1  0
  7  8  1  6
  7  9  1  0
  7 14  1  0
  9 10  1  0
 10 11  1  0
 11 12  1  0
 12 13  2  0
 12 14  1  0
 15 16  1  0
 16 17  2  0
 16 18  1  0
 18 19  1  0
 19 20  1  0
 19 21  1  0
M  END
