
     RDKit          3D

 23 25  0  0  0  0  0  0  0  0999 V2000
   -6.9380   -0.4910    0.3020 O   0  0  0  0  0  0  0  0  0  0  0  0
   -5.6960   -0.3040    0.3400 C   0  0  0  0  0  0  0  0  0  0  0  0
   -4.8540   -1.4290    0.5360 N   0  0  0  0  0  0  0  0  0  0  0  0
   -3.4630   -1.6580    0.6680 C   0  0  0  0  0  0  0  0  0  0  0  0
   -2.5880   -0.6370    0.0760 C   0  0  0  0  0  0  0  0  0  0  0  0
   -1.3490   -0.9290   -0.2410 O   0  0  0  0  0  0  0  0  0  0  0  0
   -0.7190    0.0780   -0.7480 C   0  0  0  0  0  0  0  0  0  0  0  0
    0.4750    0.5250   -1.2720 C   0  0  0  0  0  0  0  0  0  0  0  0
    1.6280   -0.2610   -1.4130 O   0  0  0  0  0  0  0  0  0  0  0  0
    2.5780   -0.3430   -0.4040 C   0  0  0  0  0  0  0  0  0  0  0  0
    2.3580    0.3180    0.6410 O   0  0  0  0  0  0  0  0  0  0  0  0
    3.7490   -1.1060   -0.4750 N   0  0  0  0  0  0  0  0  0  0  0  0
    4.7210   -1.1570    0.6240 C   0  0  0  0  0  0  0  0  0  0  0  0
    5.2980    0.5930    0.8750 P   0  0  0  0  0  0  0  0  0  0  0  0
    6.2050    0.6920    2.3270 O   0  0  0  0  0  0  0  0  0  0  0  0
    6.2160    1.0960   -0.5160 O   0  0  0  0  0  0  0  0  0  0  0  0
    0.3380    1.8140   -1.6140 N   0  0  0  0  0  0  0  0  0  0  0  0
   -0.8950    2.1760   -1.3200 N   0  0  0  0  0  0  0  0  0  0  0  0
   -1.5790    1.1530   -0.7900 C   0  0  0  0  0  0  0  0  0  0  0  0
   -2.7620    0.6840   -0.2630 C   0  0  0  0  0  0  0  0  0  0  0  0
   -3.9500    1.4890   -0.1170 C   0  0  0  0  0  0  0  0  0  0  0  0
   -3.7720    2.7070   -0.2710 O   0  0  0  0  0  0  0  0  0  0  0  0
   -5.2660    1.0310    0.1800 N   0  0  0  0  0  0  0  0  0  0  0  0
  1  2  2  0
  2  3  1  0
  2 23  1  0
  3  4  1  0
  4  5  1  0
  5  6  1  0
  5 20  2  0
  6  7  1  0
  7  8  2  0
  7 19  1  0
  8  9  1  0
  8 17  1  0
  9 10  1  0
 10 11  2  0
 10 12  1  0
 12 13  1  0
 13 14  1  0
 14 15  1  0
 14 16  1  0
 17 18  1  0
 18 19  2  0
 19 20  1  0
 20 21  1  0
 21 22  2  0
 21 23  1  0
M  END
