
     RDKit          3D

 14 13  0  0  0  0  0  0  0  0999 V2000
    5.3380    0.1440    0.6720 O   0  0  0  0  0  0  0  0  0  0  0  0
    4.5650   -0.0290    2.0130 P   0  0  0  0  0  0  0  0  0  0  0  0
    2.9500    0.5720    2.0730 O   0  0  0  0  0  0  0  0  0  0  0  0
    1.8140   -0.4600    1.3290 P   0  0  0  0  0  0  0  0  0  0  0  0
    1.7910   -0.3160   -0.5060 C   0  0  0  0  0  0  0  0  0  0  0  0
    1.4160    1.0860   -0.9190 C   0  0  0  0  0  0  0  0  0  0  0  0
    0.1580    1.4350   -0.4380 O   0  0  0  0  0  0  0  0  0  0  0  0
   -1.0270    0.7930   -0.7240 C   0  0  0  0  0  0  0  0  0  0  0  0
   -1.0250   -0.1910   -1.4750 O   0  0  0  0  0  0  0  0  0  0  0  0
   -2.2350    1.2420   -0.1730 N   0  0  0  0  0  0  0  0  0  0  0  0
   -3.4690    0.6830   -0.3880 O   0  0  0  0  0  0  0  0  0  0  0  0
   -3.8270   -0.6010   -0.0390 C   0  0  0  0  0  0  0  0  0  0  0  0
   -2.9930   -1.3290    0.5110 O   0  0  0  0  0  0  0  0  0  0  0  0
   -5.0880   -1.1290   -0.2740 O   0  0  0  0  0  0  0  0  0  0  0  0
  1  2  2  0
  2  3  1  0
  3  4  1  0
  4  5  1  0
  5  6  1  0
  6  7  1  0
  7  8  1  0
  8  9  2  0
  8 10  1  0
 10 11  1  0
 11 12  1  0
 12 13  2  0
 12 14  1  0
M  END
