
     RDKit          3D

 14 13  0  0  0  0  0  0  0  0999 V2000
    5.1790   -0.1670    0.2630 O   0  0  0  0  0  0  0  0  0  0  0  0
    3.7630    0.1410   -0.2490 P   0  0  0  0  0  0  0  0  0  0  0  0
    3.0440    1.7060   -0.0610 O   0  0  0  0  0  0  0  0  0  0  0  0
    1.5670    1.5310    0.8140 P   0  0  0  0  0  0  0  0  0  0  0  0
    0.3340    2.5830    0.2540 O   0  0  0  0  0  0  0  0  0  0  0  0
    1.0370   -0.1980    0.9610 C   0  0  0  0  0  0  0  0  0  0  0  0
    1.1790   -0.7860    2.0100 O   0  0  0  0  0  0  0  0  0  0  0  0
    0.4280   -0.9130   -0.1930 C   0  0  2  0  0  0  0  0  0  0  0  0
    0.3550   -0.0850   -1.2780 O   0  0  0  0  0  0  0  0  0  0  0  0
   -0.8150   -1.6450    0.1790 C   0  0  0  0  0  0  0  0  0  0  0  0
   -1.9520   -0.8590    0.5200 N   0  0  0  0  0  0  0  0  0  0  0  0
   -2.5830    0.0400   -0.3590 C   0  0  0  0  0  0  0  0  0  0  0  0
   -2.1770    0.2010   -1.5120 O   0  0  0  0  0  0  0  0  0  0  0  0
   -3.7070    0.7920    0.0550 O   0  0  0  0  0  0  0  0  0  0  0  0
  1  2  2  0
  2  3  1  0
  3  4  1  0
  4  5  1  0
  4  6  1  0
  6  7  2  0
  6  8  1  0
  8  9  1  6
  8 10  1  0
 10 11  1  0
 11 12  1  0
 12 13  2  0
 12 14  1  0
M  END
