
     RDKit          3D

 14 13  0  0  0  0  0  0  0  0999 V2000
    4.4030    0.3890    1.1580 C   0  0  0  0  0  0  0  0  0  0  0  0
    3.4200    0.4450    0.1550 O   0  0  0  0  0  0  0  0  0  0  0  0
    2.3080   -0.2800    0.5580 C   0  0  0  0  0  0  0  0  0  0  0  0
    1.3500   -0.2210   -0.4270 O   0  0  0  0  0  0  0  0  0  0  0  0
   -0.0810   -1.0370   -0.1380 P   0  0  0  0  0  0  0  0  0  0  0  0
   -0.1230   -2.6970   -0.2650 O   0  0  0  0  0  0  0  0  0  0  0  0
   -1.6250   -0.1210   -0.2160 C   0  0  1  0  0  0  0  0  0  0  0  0
   -1.4130    1.2880   -0.4430 N   0  0  0  0  0  0  0  0  0  0  0  0
   -1.9480    2.2130    0.4890 C   0  0  0  0  0  0  0  0  0  0  0  0
   -2.6050    1.8150    1.5080 O   0  0  0  0  0  0  0  0  0  0  0  0
   -1.7660    3.5630    0.3060 O   0  0  0  0  0  0  0  0  0  0  0  0
   -2.6540   -0.7500   -1.6370 P   0  0  0  0  0  0  0  0  0  0  0  0
   -4.2260   -1.2430   -1.1090 O   0  0  0  0  0  0  0  0  0  0  0  0
   -1.8370   -1.9570   -2.5400 O   0  0  0  0  0  0  0  0  0  0  0  0
  1  2  1  0
  2  3  1  0
  3  4  1  0
  4  5  1  0
  5  6  1  0
  5  7  1  0
  7  8  1  6
  7 12  1  0
  8  9  1  0
  9 10  2  0
  9 11  1  0
 12 13  1  0
 12 14  1  0
M  END
