
     RDKit          3D

 25 26  0  0  0  0  0  0  0  0999 V2000
    5.3710   -0.6020   -1.2730 C   0  0  0  0  0  0  0  0  0  0  0  0
    4.7580   -0.2180    0.0330 C   0  0  2  0  0  0  0  0  0  0  0  0
    5.3530   -1.0720    1.1330 C   0  0  0  0  0  0  0  0  0  0  0  0
    3.3560   -0.2440    0.0400 O   0  0  0  0  0  0  0  0  0  0  0  0
    2.5420    0.8240    0.2880 C   0  0  0  0  0  0  0  0  0  0  0  0
    3.0650    1.9390    0.5350 O   0  0  0  0  0  0  0  0  0  0  0  0
    1.1260    0.7240    0.2790 N   0  0  0  0  0  0  0  0  0  0  0  0
    0.3940   -0.4880    0.0130 C   0  0  0  0  0  0  0  0  0  0  0  0
   -1.0550   -0.1910    0.2280 C   0  0  2  0  0  0  0  0  0  0  0  0
   -1.7850   -0.4370   -1.0770 C   0  0  0  0  0  0  0  0  0  0  0  0
   -2.1560   -1.7640   -1.2660 O   0  0  0  0  0  0  0  0  0  0  0  0
   -3.3690   -2.3280   -0.9900 C   0  0  0  0  0  0  0  0  0  0  0  0
   -3.3710   -3.5350   -0.5700 O   0  0  0  0  0  0  0  0  0  0  0  0
   -4.5960   -1.7260   -1.1200 O   0  0  0  0  0  0  0  0  0  0  0  0
   -4.8320   -0.4300   -1.1320 O   0  0  0  0  0  0  0  0  0  0  0  0
   -5.7270   -0.1570   -0.1690 O   0  0  0  0  0  0  0  0  0  0  0  0
   -5.8670    1.0660    0.4290 C   0  0  0  0  0  0  0  0  0  0  0  0
   -6.9830    1.6450    0.6160 O   0  0  0  0  0  0  0  0  0  0  0  0
   -4.7280    1.7290    0.8660 O   0  0  0  0  0  0  0  0  0  0  0  0
   -3.5610    1.0850    1.2900 C   0  0  0  0  0  0  0  0  0  0  0  0
   -2.3960    1.8440    0.7750 C   0  0  0  0  0  0  0  0  0  0  0  0
   -2.5170    3.0710    0.5520 O   0  0  0  0  0  0  0  0  0  0  0  0
   -1.1390    1.2100    0.5280 N   0  0  0  0  0  0  0  0  0  0  0  0
    0.1820    1.7400    0.5170 C   0  0  0  0  0  0  0  0  0  0  0  0
    0.4860    2.9490    0.6940 O   0  0  0  0  0  0  0  0  0  0  0  0
  2  1  1  6
  2  3  1  0
  2  4  1  0
  4  5  1  0
  5  6  2  0
  5  7  1  0
  7  8  1  0
  7 24  1  0
  9  8  1  6
  9 10  1  0
  9 23  1  0
 10 11  1  0
 11 12  1  0
 12 13  2  0
 12 14  1  0
 14 15  1  0
 15 16  1  0
 16 17  1  0
 17 18  2  0
 17 19  1  0
 19 20  1  0
 20 21  1  0
 21 22  2  0
 21 23  1  0
 23 24  1  0
 24 25  2  0
M  END
