
     RDKit          3D

 14 15  0  0  0  0  0  0  0  0999 V2000
   -2.3150   -1.0320    1.1150 C   0  0  0  0  0  0  0  0  0  0  0  0
   -1.0910   -0.2920    0.6840 C   0  0  2  0  0  0  0  0  0  0  0  0
   -1.3840    0.8520   -0.2550 C   0  0  1  0  0  0  0  0  0  0  0  0
   -2.3920    1.6800    0.2110 O   0  0  0  0  0  0  0  0  0  0  0  0
   -0.1340    1.5580   -0.4560 N   0  0  0  0  0  0  0  0  0  0  0  0
    1.1430    0.9270   -0.3250 C   0  0  0  0  0  0  0  0  0  0  0  0
    1.1720   -0.3880   -0.1190 C   0  0  0  0  0  0  0  0  0  0  0  0
    2.5640   -0.8010   -0.0180 C   0  0  0  0  0  0  0  0  0  0  0  0
    3.0410   -1.9520    0.1740 O   0  0  0  0  0  0  0  0  0  0  0  0
    3.4090    0.3570   -0.1780 N   0  0  0  0  0  0  0  0  0  0  0  0
    2.5080    1.4360   -0.3700 C   0  0  0  0  0  0  0  0  0  0  0  0
    2.8620    2.6240   -0.5470 O   0  0  0  0  0  0  0  0  0  0  0  0
   -0.0810   -1.1780   -0.0270 C   0  0  2  0  0  0  0  0  0  0  0  0
   -0.5290   -1.3480   -1.3570 O   0  0  0  0  0  0  0  0  0  0  0  0
  2  1  1  6
  2  3  1  0
  2 13  1  0
  3  4  1  1
  3  5  1  0
  5  6  1  0
  6  7  2  0
  6 11  1  0
  7  8  1  0
  7 13  1  0
  8  9  2  0
  8 10  1  0
 10 11  1  0
 11 12  2  0
 13 14  1  6
M  END
