
     RDKit          3D

  7  6  0  0  0  0  0  0  0  0999 V2000
   -0.6670   -1.8180   -0.7110 O   0  0  0  0  0  0  0  0  0  0  0  0
   -0.7360   -0.6000   -0.6960 C   0  0  0  0  0  0  0  0  0  0  0  0
    0.1590    0.2380    0.1260 C   0  0  1  0  0  0  0  0  0  0  0  0
   -0.1860    1.5830   -0.0880 O   0  0  0  0  0  0  0  0  0  0  0  0
   -0.1360   -0.0120    1.4710 O   0  0  0  0  0  0  0  0  0  0  0  0
    1.4900    0.1020   -0.1700 O   0  0  0  0  0  0  0  0  0  0  0  0
    2.0940   -1.4500    0.0260 Cl  0  0  0  0  0  0  0  0  0  0  0  0
  1  2  2  0
  2  3  1  0
  3  4  1  6
  3  5  1  0
  3  6  1  0
  6  7  1  0
M  END
