
     RDKit          3D

  7  6  0  0  0  0  0  0  0  0999 V2000
    2.9820   -0.3520   -0.4510 O   0  0  0  0  0  0  0  0  0  0  0  0
    1.7310   -0.7260   -0.3700 O   0  0  0  0  0  0  0  0  0  0  0  0
    1.0980   -0.0100    0.5240 O   0  0  0  0  0  0  0  0  0  0  0  0
   -0.1070    0.5020    0.0760 C   0  0  0  0  0  0  0  0  0  0  0  0
   -1.2230   -0.5060    0.0840 C   0  0  1  0  0  0  0  0  0  0  0  0
   -2.3790    0.0710    0.6070 O   0  0  0  0  0  0  0  0  0  0  0  0
   -1.6020   -1.0800   -1.5570 Cl  0  0  0  0  0  0  0  0  0  0  0  0
  1  2  1  0
  2  3  1  0
  3  4  1  0
  4  5  1  0
  5  6  1  6
  5  7  1  0
M  END
