
     RDKit          3D

 46 51  0  0  0  0  0  0  0  0999 V2000
    9.5500   -0.4130    1.9010 C   0  0  0  0  0  0  0  0  0  0  0  0
    8.2190    0.0560    2.4060 C   0  0  0  0  0  0  0  0  0  0  0  0
    7.6530    1.1380    1.7310 O   0  0  0  0  0  0  0  0  0  0  0  0
    7.3570    1.1010    0.3300 C   0  0  0  0  0  0  0  0  0  0  0  0
    8.2330    1.5640   -0.5490 C   0  0  0  0  0  0  0  0  0  0  0  0
    9.5420    2.2080   -0.4230 C   0  0  0  0  0  0  0  0  0  0  0  0
   10.0420    2.4480    0.6720 O   0  0  0  0  0  0  0  0  0  0  0  0
   10.2330    2.5550   -1.5700 O   0  0  0  0  0  0  0  0  0  0  0  0
   11.5070    3.1830   -1.5350 C   0  0  0  0  0  0  0  0  0  0  0  0
    7.4080    1.2840   -2.1160 S   0  0  0  0  0  0  0  0  0  0  0  0
    5.9670    0.5780   -1.4620 C   0  0  0  0  0  0  0  0  0  0  0  0
    6.1770    0.5860   -0.0970 C   0  0  0  0  0  0  0  0  0  0  0  0
    4.9870   -0.0020    0.6620 C   0  0  0  0  0  0  0  0  0  0  0  0
    4.6600   -1.3580    0.0820 C   0  0  1  0  0  0  0  0  0  0  0  0
    3.3550   -1.7450    0.6600 C   0  0  0  0  0  0  0  0  0  0  0  0
    3.2480   -2.7620    1.3700 O   0  0  0  0  0  0  0  0  0  0  0  0
    2.2290   -0.9460    0.4000 N   0  0  0  0  0  0  0  0  0  0  0  0
    0.8880   -1.2280    0.9220 C   0  0  1  0  0  0  0  0  0  0  0  0
    0.3760   -0.1080    1.7560 C   0  0  0  0  0  0  0  0  0  0  0  0
   -1.1070    0.0820    1.7040 C   0  0  0  0  0  0  0  0  0  0  0  0
   -1.5430    0.4290    0.2710 C   0  0  2  0  0  0  0  0  0  0  0  0
   -2.9400    0.5490    0.1550 O   0  0  0  0  0  0  0  0  0  0  0  0
   -3.4950    1.7190   -0.3520 C   0  0  0  0  0  0  0  0  0  0  0  0
   -2.6740    2.6330   -0.6900 O   0  0  0  0  0  0  0  0  0  0  0  0
   -4.9420    1.9500   -0.5150 C   0  0  0  0  0  0  0  0  0  0  0  0
   -5.7500    0.7930    0.0200 C   0  0  0  0  0  0  0  0  0  0  0  0
   -7.2190    1.0350   -0.1540 C   0  0  0  0  0  0  0  0  0  0  0  0
   -7.5430    2.0870   -0.7050 O   0  0  0  0  0  0  0  0  0  0  0  0
   -8.1700    0.1050    0.2930 N   0  0  0  0  0  0  0  0  0  0  0  0
   -7.7670   -1.1950    0.8560 C   0  0  0  0  0  0  0  0  0  0  0  0
   -8.4530   -2.2400   -0.0200 C   0  0  0  0  0  0  0  0  0  0  0  0
   -9.8260   -2.0450    0.0350 O   0  0  0  0  0  0  0  0  0  0  0  0
  -10.3940   -0.7890    0.0810 C   0  0  0  0  0  0  0  0  0  0  0  0
  -11.7640   -0.5800    0.0020 C   0  0  0  0  0  0  0  0  0  0  0  0
  -12.2950    0.6910    0.0530 C   0  0  0  0  0  0  0  0  0  0  0  0
  -11.4490    1.7710    0.1850 C   0  0  0  0  0  0  0  0  0  0  0  0
  -10.0780    1.5990    0.2670 C   0  0  0  0  0  0  0  0  0  0  0  0
   -9.5790    0.3310    0.2130 C   0  0  0  0  0  0  0  0  0  0  0  0
   -1.1120   -0.7480   -0.5370 C   0  0  0  0  0  0  0  0  0  0  0  0
   -1.8840   -1.0850   -1.6470 C   0  0  0  0  0  0  0  0  0  0  0  0
   -1.5470   -2.1640   -2.4380 C   0  0  0  0  0  0  0  0  0  0  0  0
   -0.4480   -2.8950   -2.1160 C   0  0  0  0  0  0  0  0  0  0  0  0
    0.3200   -2.5700   -1.0240 C   0  0  0  0  0  0  0  0  0  0  0  0
   -0.0060   -1.4890   -0.2210 C   0  0  0  0  0  0  0  0  0  0  0  0
    4.5200   -1.3400   -1.4080 C   0  0  0  0  0  0  0  0  0  0  0  0
    4.6920    0.0290   -2.0290 C   0  0  0  0  0  0  0  0  0  0  0  0
  1  2  1  0
  2  3  1  0
  3  4  1  0
  4  5  2  0
  4 12  1  0
  5  6  1  0
  5 10  1  0
  6  7  2  0
  6  8  1  0
  8  9  1  0
 10 11  1  0
 11 12  2  0
 11 46  1  0
 12 13  1  0
 13 14  1  0
 14 15  1  1
 14 45  1  0
 15 16  2  0
 15 17  1  0
 18 17  1  6
 18 19  1  0
 18 44  1  0
 19 20  1  0
 20 21  1  0
 21 22  1  1
 21 39  1  0
 22 23  1  0
 23 24  2  0
 23 25  1  0
 25 26  1  0
 26 27  1  0
 27 28  2  0
 27 29  1  0
 29 30  1  0
 29 38  1  0
 30 31  1  0
 31 32  1  0
 32 33  1  0
 33 34  2  0
 33 38  1  0
 34 35  1  0
 35 36  2  0
 36 37  1  0
 37 38  2  0
 39 40  2  0
 39 44  1  0
 40 41  1  0
 41 42  2  0
 42 43  1  0
 43 44  2  0
 45 46  1  0
M  END
