
     RDKit          3D

 46 49  0  0  0  0  0  0  0  0999 V2000
   10.8620    0.9960   -1.2790 C   0  0  0  0  0  0  0  0  0  0  0  0
    9.5620    0.9430   -1.0260 C   0  0  0  0  0  0  0  0  0  0  0  0
    8.5780    1.0180   -2.0870 C   0  0  0  0  0  0  0  0  0  0  0  0
    7.2890    0.9720   -1.8770 C   0  0  0  0  0  0  0  0  0  0  0  0
    6.6990    0.8420   -0.5660 C   0  0  0  0  0  0  0  0  0  0  0  0
    5.3410    0.8040   -0.4430 C   0  0  0  0  0  0  0  0  0  0  0  0
    4.5430    0.8970   -1.6610 C   0  0  0  0  0  0  0  0  0  0  0  0
    3.0640    0.6700   -1.4630 C   0  0  0  0  0  0  0  0  0  0  0  0
    2.8630   -0.2250   -0.3350 C   0  0  2  0  0  0  0  0  0  0  0  0
    1.5410   -0.8570   -0.1400 N   0  0  0  0  0  0  0  0  0  0  0  0
    0.4360    0.0320    0.1070 C   0  0  0  0  0  0  0  0  0  0  0  0
   -0.0700    0.8260   -1.0510 C   0  0  0  0  0  0  0  0  0  0  0  0
   -0.6910    2.0790   -0.6090 N   0  0  0  0  0  0  0  0  0  0  0  0
   -1.4560    2.6060   -1.7340 C   0  0  0  0  0  0  0  0  0  0  0  0
   -2.6260    3.4400   -1.2530 C   0  0  2  0  0  0  0  0  0  0  0  0
   -2.2980    4.8080   -1.4000 O   0  0  0  0  0  0  0  0  0  0  0  0
   -2.9680    3.1550    0.1520 C   0  0  0  0  0  0  0  0  0  0  0  0
   -3.9110    2.2920    0.4440 C   0  0  0  0  0  0  0  0  0  0  0  0
   -4.6990    1.5440   -0.5670 C   0  0  0  0  0  0  0  0  0  0  0  0
   -5.1700    0.3220    0.0220 N   0  0  0  0  0  0  0  0  0  0  0  0
   -6.5210    0.3640    0.6150 C   0  0  0  0  0  0  0  0  0  0  0  0
   -4.4980   -0.9020    0.1120 C   0  0  0  0  0  0  0  0  0  0  0  0
   -5.2020   -1.9690    0.0510 O   0  0  0  0  0  0  0  0  0  0  0  0
   -3.0390   -1.1100    0.2780 C   0  0  1  0  0  0  0  0  0  0  0  0
   -2.8890   -1.5260    1.7200 C   0  0  0  0  0  0  0  0  0  0  0  0
   -3.6640   -2.7530    2.0620 C   0  0  0  0  0  0  0  0  0  0  0  0
   -2.5030   -2.0010   -0.7060 N   0  0  0  0  0  0  0  0  0  0  0  0
   -2.8480   -1.5920   -2.0970 C   0  0  0  0  0  0  0  0  0  0  0  0
   -4.0830   -2.2210   -2.6300 C   0  0  0  0  0  0  0  0  0  0  0  0
   -1.7370   -3.1750   -0.5190 C   0  0  0  0  0  0  0  0  0  0  0  0
   -2.1300   -4.0870   -1.4290 O   0  0  0  0  0  0  0  0  0  0  0  0
   -0.6850   -3.6350    0.3680 C   0  0  0  0  0  0  0  0  0  0  0  0
   -1.1500   -4.7290    1.1620 C   0  0  0  0  0  0  0  0  0  0  0  0
   -0.3910   -5.4270    2.0540 C   0  0  0  0  0  0  0  0  0  0  0  0
    0.9210   -5.0780    2.2210 C   0  0  0  0  0  0  0  0  0  0  0  0
    1.3910   -4.0490    1.4820 C   0  0  0  0  0  0  0  0  0  0  0  0
    0.6210   -3.2820    0.5300 C   0  0  0  0  0  0  0  0  0  0  0  0
    1.4490   -2.2820   -0.1260 C   0  0  0  0  0  0  0  0  0  0  0  0
    2.3720   -2.8020   -0.9190 O   0  0  0  0  0  0  0  0  0  0  0  0
   -4.1950    2.0570    1.7850 O   0  0  0  0  0  0  0  0  0  0  0  0
   -3.9220    2.9520    2.8230 C   0  0  0  0  0  0  0  0  0  0  0  0
   -2.9410    4.0360    2.4500 C   0  0  0  0  0  0  0  0  0  0  0  0
   -2.3110    3.7850    1.2130 O   0  0  0  0  0  0  0  0  0  0  0  0
    3.2930    0.5410    0.9230 C   0  0  2  0  0  0  0  0  0  0  0  0
    2.7450    1.8510    0.8950 O   0  0  0  0  0  0  0  0  0  0  0  0
    4.7780    0.6880    0.9210 C   0  0  0  0  0  0  0  0  0  0  0  0
  1  2  2  0
  2  3  1  0
  3  4  2  3
  4  5  1  0
  5  6  2  3
  6  7  1  0
  6 46  1  0
  7  8  1  0
  8  9  1  0
  9 10  1  1
  9 44  1  0
 10 11  1  0
 10 38  1  0
 11 12  1  0
 12 13  1  0
 13 14  1  0
 14 15  1  0
 15 16  1  1
 15 17  1  0
 17 18  2  0
 17 43  1  0
 18 19  1  0
 18 40  1  0
 19 20  1  0
 20 21  1  0
 20 22  1  0
 22 23  2  0
 22 24  1  0
 24 25  1  1
 24 27  1  0
 25 26  1  0
 27 28  1  0
 27 30  1  0
 28 29  1  0
 30 31  2  0
 30 32  1  0
 32 33  2  0
 32 37  1  0
 33 34  1  0
 34 35  2  0
 35 36  1  0
 36 37  2  0
 37 38  1  0
 38 39  2  0
 40 41  1  0
 41 42  1  0
 42 43  1  0
 44 45  1  6
 44 46  1  0
M  CHG  1  13   1
M  END
