
     RDKit          3D

 46 51  0  0  0  0  0  0  0  0999 V2000
    7.9680    0.5660   -1.7830 C   0  0  0  0  0  0  0  0  0  0  0  0
    8.3300   -0.7280   -2.4310 C   0  0  0  0  0  0  0  0  0  0  0  0
    7.7470   -1.7950   -1.7410 O   0  0  0  0  0  0  0  0  0  0  0  0
    6.3370   -1.8250   -1.6430 C   0  0  0  0  0  0  0  0  0  0  0  0
    5.7510   -0.8740   -2.1940 O   0  0  0  0  0  0  0  0  0  0  0  0
    5.6670   -2.9110   -0.9380 C   0  0  0  0  0  0  0  0  0  0  0  0
    4.2300   -2.8060   -0.6730 C   0  0  0  0  0  0  0  0  0  0  0  0
    3.7170   -1.7470    0.2330 C   0  0  2  0  0  0  0  0  0  0  0  0
    2.1930   -1.9580    0.2900 C   0  0  0  0  0  0  0  0  0  0  0  0
    1.5400   -0.9790    1.1530 C   0  0  0  0  0  0  0  0  0  0  0  0
    2.1600   -0.0770    1.7880 O   0  0  0  0  0  0  0  0  0  0  0  0
    0.1280   -1.0190    1.3060 N   0  0  0  0  0  0  0  0  0  0  0  0
   -0.5430   -0.0500    2.1630 C   0  0  0  0  0  0  0  0  0  0  0  0
   -0.9010    1.2020    1.4700 C   0  0  0  0  0  0  0  0  0  0  0  0
   -0.3900    1.5540    0.2370 C   0  0  0  0  0  0  0  0  0  0  0  0
   -0.7350    2.7300   -0.3990 C   0  0  0  0  0  0  0  0  0  0  0  0
   -1.6250    3.6000    0.2080 C   0  0  0  0  0  0  0  0  0  0  0  0
   -1.9860    4.7850   -0.4090 C   0  0  0  0  0  0  0  0  0  0  0  0
   -2.8660    5.6740    0.1630 C   0  0  0  0  0  0  0  0  0  0  0  0
   -3.3920    5.3530    1.3890 C   0  0  0  0  0  0  0  0  0  0  0  0
   -3.0340    4.1730    2.0070 C   0  0  0  0  0  0  0  0  0  0  0  0
   -3.6280    3.8690    3.3290 C   0  0  0  0  0  0  0  0  0  0  0  0
   -2.1560    3.2700    1.4530 C   0  0  0  0  0  0  0  0  0  0  0  0
   -1.7840    2.0790    2.0580 C   0  0  0  0  0  0  0  0  0  0  0  0
   -0.6050   -2.0470    0.5980 C   0  0  1  0  0  0  0  0  0  0  0  0
   -1.1520   -2.9780    1.6320 C   0  0  0  0  0  0  0  0  0  0  0  0
   -2.8810   -2.3830    1.7890 S   0  0  0  0  0  0  0  0  0  0  0  0
   -2.9220   -1.6750    0.1360 C   0  0  0  0  0  0  0  0  0  0  0  0
   -1.6470   -1.5950   -0.2930 C   0  0  0  0  0  0  0  0  0  0  0  0
   -1.4800   -1.0700   -1.5820 C   0  0  0  0  0  0  0  0  0  0  0  0
   -2.5600   -0.6710   -2.3360 C   0  0  0  0  0  0  0  0  0  0  0  0
   -3.8390   -0.7770   -1.8450 C   0  0  0  0  0  0  0  0  0  0  0  0
   -4.0220   -1.2850   -0.5910 C   0  0  0  0  0  0  0  0  0  0  0  0
   -5.2290   -1.4710    0.0830 O   0  0  0  0  0  0  0  0  0  0  0  0
   -6.5450   -1.4220   -0.4310 C   0  0  1  0  0  0  0  0  0  0  0  0
   -7.5410   -1.4380    0.7090 C   0  0  0  0  0  0  0  0  0  0  0  0
   -6.7890   -0.2360   -1.3240 C   0  0  0  0  0  0  0  0  0  0  0  0
   -6.2110   -0.4240   -2.7070 C   0  0  0  0  0  0  0  0  0  0  0  0
   -4.8170   -0.3320   -2.7280 O   0  0  0  0  0  0  0  0  0  0  0  0
    3.8620   -0.4310   -0.3130 N   0  0  0  0  0  0  0  0  0  0  0  0
    4.5710    0.6430    0.2920 C   0  0  0  0  0  0  0  0  0  0  0  0
    4.4870    1.7740   -0.2540 O   0  0  0  0  0  0  0  0  0  0  0  0
    5.3590    0.3810    1.5120 C   0  0  0  0  0  0  0  0  0  0  0  0
    4.7800   -0.6900    2.2280 O   0  0  0  0  0  0  0  0  0  0  0  0
    4.2940   -1.8310    1.6000 C   0  0  0  0  0  0  0  0  0  0  0  0
    4.3720   -2.9080    2.2420 O   0  0  0  0  0  0  0  0  0  0  0  0
  1  2  1  0
  2  3  1  0
  3  4  1  0
  4  5  2  0
  4  6  1  0
  6  7  1  0
  8  7  1  6
  8  9  1  0
  8 40  1  0
  8 45  1  0
  9 10  1  0
 10 11  2  0
 10 12  1  0
 12 13  1  0
 25 12  1  1
 13 14  1  0
 14 15  2  0
 14 24  1  0
 15 16  1  0
 16 17  2  0
 17 18  1  0
 17 23  1  0
 18 19  2  0
 19 20  1  0
 20 21  2  0
 21 22  1  0
 21 23  1  0
 23 24  2  0
 25 26  1  0
 25 29  1  0
 26 27  1  0
 27 28  1  0
 28 29  2  0
 28 33  1  0
 29 30  1  0
 30 31  2  0
 31 32  1  0
 32 33  2  0
 32 39  1  0
 33 34  1  0
 34 35  1  0
 35 36  1  1
 35 37  1  0
 37 38  1  0
 38 39  1  0
 40 41  1  0
 41 42  2  0
 41 43  1  0
 43 44  1  0
 44 45  1  0
 45 46  2  0
M  END
