
     RDKit          3D

 46 51  0  0  0  0  0  0  0  0999 V2000
   14.2720   -1.0170    2.0110 C   0  0  0  0  0  0  0  0  0  0  0  0
   13.4800    0.1040    1.5450 C   0  0  0  0  0  0  0  0  0  0  0  0
   12.3530    0.3050    0.9570 C   0  0  0  0  0  0  0  0  0  0  0  0
   11.9690    2.0810    0.6620 S   0  0  0  0  0  0  0  0  0  0  0  0
   10.3360    2.1180    0.0250 C   0  0  0  0  0  0  0  0  0  0  0  0
    9.6210    1.0530   -0.2430 C   0  0  0  0  0  0  0  0  0  0  0  0
    8.2330    1.2980   -0.7940 C   0  0  0  0  0  0  0  0  0  0  0  0
    7.1990    1.0470    0.2650 C   0  0  0  0  0  0  0  0  0  0  0  0
    5.8200    1.2380   -0.2800 C   0  0  0  0  0  0  0  0  0  0  0  0
    5.7070    1.4700   -1.5010 O   0  0  0  0  0  0  0  0  0  0  0  0
    4.6660    1.1720    0.4770 O   0  0  0  0  0  0  0  0  0  0  0  0
    3.4180    1.3470   -0.1060 C   0  0  0  0  0  0  0  0  0  0  0  0
    2.6160    0.2160   -0.2090 C   0  0  0  0  0  0  0  0  0  0  0  0
    1.3460    0.2850   -0.7820 C   0  0  0  0  0  0  0  0  0  0  0  0
    0.8650    1.4790   -1.2570 C   0  0  0  0  0  0  0  0  0  0  0  0
    1.6470    2.6070   -1.1630 C   0  0  0  0  0  0  0  0  0  0  0  0
    2.9190    2.5240   -0.5850 C   0  0  0  0  0  0  0  0  0  0  0  0
    0.9340    3.6590   -1.7090 O   0  0  0  0  0  0  0  0  0  0  0  0
   -0.1790    3.2230   -2.4500 C   0  0  0  0  0  0  0  0  0  0  0  0
   -0.4260    1.8370   -1.9430 C   0  0  2  0  0  0  0  0  0  0  0  0
   -1.5680    1.7850   -1.0690 N   0  0  0  0  0  0  0  0  0  0  0  0
   -2.4480    0.6780   -1.1190 C   0  0  0  0  0  0  0  0  0  0  0  0
   -2.1770   -0.2690   -1.8880 O   0  0  0  0  0  0  0  0  0  0  0  0
   -3.6260    0.6230   -0.3220 N   0  0  0  0  0  0  0  0  0  0  0  0
   -4.4920   -0.5290   -0.3590 C   0  0  2  0  0  0  0  0  0  0  0  0
   -5.6480   -0.2140   -1.2870 C   0  0  0  0  0  0  0  0  0  0  0  0
   -6.7290    0.3100   -0.4240 C   0  0  1  0  0  0  0  0  0  0  0  0
   -8.0650   -0.3000   -0.6920 C   0  0  0  0  0  0  0  0  0  0  0  0
   -8.4730   -0.3940   -1.8670 O   0  0  0  0  0  0  0  0  0  0  0  0
   -8.8270   -0.7430    0.3380 O   0  0  0  0  0  0  0  0  0  0  0  0
  -10.0960   -1.3360    0.1280 C   0  0  1  0  0  0  0  0  0  0  0  0
  -10.2430   -2.6200    0.8010 C   0  0  0  0  0  0  0  0  0  0  0  0
  -11.0150   -2.6220    2.0940 C   0  0  0  0  0  0  0  0  0  0  0  0
  -12.2370   -1.7340    2.0660 C   0  0  0  0  0  0  0  0  0  0  0  0
  -11.6850   -0.3230    1.8220 C   0  0  0  0  0  0  0  0  0  0  0  0
  -11.1430   -0.2900    0.4500 C   0  0  2  0  0  0  0  0  0  0  0  0
  -12.3250   -0.4200   -0.5250 C   0  0  0  0  0  0  0  0  0  0  0  0
   -6.3380    0.0940    0.9070 O   0  0  0  0  0  0  0  0  0  0  0  0
   -5.2050   -0.7230    0.9180 C   0  0  0  0  0  0  0  0  0  0  0  0
   -4.8750   -1.4760    1.8530 O   0  0  0  0  0  0  0  0  0  0  0  0
   10.1030   -0.2810   -0.0070 C   0  0  0  0  0  0  0  0  0  0  0  0
    9.2460   -1.3130   -0.3940 C   0  0  0  0  0  0  0  0  0  0  0  0
    9.5920   -2.6340   -0.2550 C   0  0  0  0  0  0  0  0  0  0  0  0
   10.8050   -2.9820    0.2720 C   0  0  0  0  0  0  0  0  0  0  0  0
   11.6750   -1.9780    0.6630 C   0  0  0  0  0  0  0  0  0  0  0  0
   11.3450   -0.6230    0.5320 C   0  0  0  0  0  0  0  0  0  0  0  0
  1  2  1  0
  2  3  2  3
  3  4  1  0
  3 46  1  0
  4  5  1  0
  5  6  2  0
  6  7  1  0
  6 41  1  0
  7  8  1  0
  8  9  1  0
  9 10  2  0
  9 11  1  0
 11 12  1  0
 12 13  2  0
 12 17  1  0
 13 14  1  0
 14 15  2  0
 15 16  1  0
 15 20  1  0
 16 17  2  0
 16 18  1  0
 18 19  1  0
 19 20  1  0
 20 21  1  1
 21 22  1  0
 22 23  2  0
 22 24  1  0
 25 24  1  1
 25 26  1  0
 25 39  1  0
 26 27  1  0
 27 28  1  6
 27 38  1  0
 28 29  2  0
 28 30  1  0
 31 30  1  1
 31 32  1  0
 31 36  1  0
 32 33  1  0
 33 34  1  0
 34 35  1  0
 35 36  1  0
 36 37  1  6
 38 39  1  0
 39 40  2  0
 41 42  2  0
 41 46  1  0
 42 43  1  0
 43 44  2  0
 44 45  1  0
 45 46  2  0
M  END
