
     RDKit          3D

 46 49  0  0  0  0  0  0  0  0999 V2000
    5.4250    4.4310    0.8220 C   0  0  0  0  0  0  0  0  0  0  0  0
    6.5600    3.8850    0.0290 C   0  0  0  0  0  0  0  0  0  0  0  0
    7.4870    4.8190   -0.4380 C   0  0  0  0  0  0  0  0  0  0  0  0
    8.5400    4.3230   -1.1670 C   0  0  0  0  0  0  0  0  0  0  0  0
    8.6690    2.9810   -1.4190 C   0  0  0  0  0  0  0  0  0  0  0  0
    7.7250    2.0710   -0.9380 C   0  0  0  0  0  0  0  0  0  0  0  0
    7.8120    0.6170   -1.1790 C   0  0  0  0  0  0  0  0  0  0  0  0
    6.6400    2.5460   -0.1920 C   0  0  0  0  0  0  0  0  0  0  0  0
    5.7080    1.6610    0.2850 O   0  0  0  0  0  0  0  0  0  0  0  0
    4.5610    1.2660   -0.4370 C   0  0  0  0  0  0  0  0  0  0  0  0
    3.7880    0.3150    0.4080 C   0  0  0  0  0  0  0  0  0  0  0  0
    4.2100    0.0360    1.5350 O   0  0  0  0  0  0  0  0  0  0  0  0
    2.5810   -0.2810   -0.0400 N   0  0  0  0  0  0  0  0  0  0  0  0
    1.7690   -1.2160    0.7110 C   0  0  1  0  0  0  0  0  0  0  0  0
    2.5450   -2.3550    1.3470 C   0  0  0  0  0  0  0  0  0  0  0  0
    3.2300   -3.2010    0.3370 C   0  0  0  0  0  0  0  0  0  0  0  0
    4.5280   -2.9880   -0.0390 C   0  0  0  0  0  0  0  0  0  0  0  0
    5.1590   -3.7840   -0.9980 C   0  0  0  0  0  0  0  0  0  0  0  0
    4.4620   -4.8180   -1.5900 C   0  0  0  0  0  0  0  0  0  0  0  0
    3.1620   -5.0460   -1.2250 C   0  0  0  0  0  0  0  0  0  0  0  0
    2.5560   -4.2530   -0.2790 C   0  0  0  0  0  0  0  0  0  0  0  0
    0.8510   -0.5800    1.6620 C   0  0  1  0  0  0  0  0  0  0  0  0
    1.5110    0.2390    2.6010 O   0  0  0  0  0  0  0  0  0  0  0  0
   -0.4280   -0.0000    1.2300 C   0  0  0  0  0  0  0  0  0  0  0  0
   -1.5140   -0.8320    0.6880 C   0  0  2  0  0  0  0  0  0  0  0  0
   -1.3220   -1.6710   -0.4980 C   0  0  0  0  0  0  0  0  0  0  0  0
   -2.5720   -2.4000   -0.9560 C   0  0  0  0  0  0  0  0  0  0  0  0
   -2.9410   -3.5770   -0.3590 C   0  0  0  0  0  0  0  0  0  0  0  0
   -4.0510   -4.2910   -0.7960 C   0  0  0  0  0  0  0  0  0  0  0  0
   -4.8030   -3.8170   -1.8480 C   0  0  0  0  0  0  0  0  0  0  0  0
   -4.4180   -2.6330   -2.4370 C   0  0  0  0  0  0  0  0  0  0  0  0
   -3.3070   -1.9200   -1.9990 C   0  0  0  0  0  0  0  0  0  0  0  0
   -2.7620   -0.0240    0.5780 N   0  0  0  0  0  0  0  0  0  0  0  0
   -3.8660   -0.2180    1.4100 C   0  0  0  0  0  0  0  0  0  0  0  0
   -3.7360   -1.1750    2.2750 O   0  0  0  0  0  0  0  0  0  0  0  0
   -5.1400    0.5280    1.4250 C   0  0  2  0  0  0  0  0  0  0  0  0
   -6.3370   -0.4030    1.4670 C   0  0  1  0  0  0  0  0  0  0  0  0
   -7.6340    0.3700    1.4710 C   0  0  0  0  0  0  0  0  0  0  0  0
   -6.2920   -1.5280    0.4950 C   0  0  0  0  0  0  0  0  0  0  0  0
   -5.2600    1.6350    0.5530 N   0  0  0  0  0  0  0  0  0  0  0  0
   -5.3530    2.9930    1.1160 C   0  0  0  0  0  0  0  0  0  0  0  0
   -4.4880    3.9570    0.3460 C   0  0  0  0  0  0  0  0  0  0  0  0
   -4.9140    4.0700   -1.0990 C   0  0  0  0  0  0  0  0  0  0  0  0
   -5.4730    2.8310   -1.5920 N   0  0  0  0  0  0  0  0  0  0  0  0
   -5.3080    1.5920   -0.8590 C   0  0  0  0  0  0  0  0  0  0  0  0
   -5.2090    0.5050   -1.4600 O   0  0  0  0  0  0  0  0  0  0  0  0
  1  2  1  0
  2  3  2  0
  2  8  1  0
  3  4  1  0
  4  5  2  0
  5  6  1  0
  6  7  1  0
  6  8  2  0
  8  9  1  0
  9 10  1  0
 10 11  1  0
 11 12  2  0
 11 13  1  0
 13 14  1  0
 14 15  1  1
 14 22  1  0
 15 16  1  0
 16 17  2  0
 16 21  1  0
 17 18  1  0
 18 19  2  0
 19 20  1  0
 20 21  2  0
 22 23  1  6
 22 24  1  0
 25 24  1  6
 25 26  1  0
 25 33  1  0
 26 27  1  0
 27 28  2  0
 27 32  1  0
 28 29  1  0
 29 30  2  0
 30 31  1  0
 31 32  2  0
 33 34  1  0
 34 35  2  0
 34 36  1  0
 36 37  1  0
 36 40  1  6
 37 38  1  6
 37 39  1  0
 40 41  1  0
 40 45  1  0
 41 42  1  0
 42 43  1  0
 43 44  1  0
 44 45  1  0
 45 46  2  0
M  END
