
     RDKit          3D

 46 51  0  0  0  0  0  0  0  0999 V2000
   -9.1000   -3.4550    0.7500 C   0  0  0  0  0  0  0  0  0  0  0  0
   -7.7370   -3.1300    1.2670 C   0  0  0  0  0  0  0  0  0  0  0  0
   -7.4550   -1.7950    1.5040 O   0  0  0  0  0  0  0  0  0  0  0  0
   -7.5200   -0.7700    0.5140 C   0  0  0  0  0  0  0  0  0  0  0  0
   -8.6500   -0.0400    0.4050 C   0  0  0  0  0  0  0  0  0  0  0  0
   -9.9100   -0.0490    1.1920 C   0  0  0  0  0  0  0  0  0  0  0  0
  -10.0340   -0.8020    2.1470 O   0  0  0  0  0  0  0  0  0  0  0  0
  -10.9510    0.8030    0.8390 O   0  0  0  0  0  0  0  0  0  0  0  0
  -12.1730    0.8420    1.5500 C   0  0  0  0  0  0  0  0  0  0  0  0
   -8.3240    1.0670   -0.8990 S   0  0  0  0  0  0  0  0  0  0  0  0
   -6.6670    0.5040   -1.2440 C   0  0  0  0  0  0  0  0  0  0  0  0
   -6.5040   -0.4970   -0.3240 C   0  0  0  0  0  0  0  0  0  0  0  0
   -5.1330   -1.1500   -0.4450 C   0  0  0  0  0  0  0  0  0  0  0  0
   -4.0620   -0.1050   -0.4790 C   0  0  1  0  0  0  0  0  0  0  0  0
   -2.7440   -0.7400   -0.7480 C   0  0  0  0  0  0  0  0  0  0  0  0
   -2.7080   -1.9600   -1.0090 O   0  0  0  0  0  0  0  0  0  0  0  0
   -1.5290    0.0110   -0.7180 N   0  0  0  0  0  0  0  0  0  0  0  0
   -0.2340   -0.5750   -0.9790 C   0  0  1  0  0  0  0  0  0  0  0  0
    0.3550    0.1640   -2.1640 C   0  0  0  0  0  0  0  0  0  0  0  0
    0.8210    1.5480   -1.7670 C   0  0  0  0  0  0  0  0  0  0  0  0
    1.9560    1.4600   -0.8060 C   0  0  2  0  0  0  0  0  0  0  0  0
    3.1900    1.2150   -1.4630 O   0  0  0  0  0  0  0  0  0  0  0  0
    4.2480    2.1250   -1.4100 C   0  0  0  0  0  0  0  0  0  0  0  0
    4.0270    3.1760   -0.7130 O   0  0  0  0  0  0  0  0  0  0  0  0
    5.5430    1.9230   -2.0970 C   0  0  0  0  0  0  0  0  0  0  0  0
    6.6740    1.8730   -1.0920 C   0  0  0  0  0  0  0  0  0  0  0  0
    6.4670    0.7430   -0.1680 C   0  0  0  0  0  0  0  0  0  0  0  0
    5.2540    0.2630   -0.1010 O   0  0  0  0  0  0  0  0  0  0  0  0
    7.3850    0.1020    0.6700 N   0  0  0  0  0  0  0  0  0  0  0  0
    6.8820   -0.7300    1.7780 C   0  0  0  0  0  0  0  0  0  0  0  0
    7.7310   -0.5640    3.0090 C   0  0  0  0  0  0  0  0  0  0  0  0
    8.7950    0.3660    2.8710 O   0  0  0  0  0  0  0  0  0  0  0  0
    9.5160    0.4180    1.6630 C   0  0  0  0  0  0  0  0  0  0  0  0
   10.8600    0.5890    1.6090 C   0  0  0  0  0  0  0  0  0  0  0  0
   11.4600    0.6150    0.3400 C   0  0  0  0  0  0  0  0  0  0  0  0
   10.7230    0.4750   -0.8130 C   0  0  0  0  0  0  0  0  0  0  0  0
    9.3620    0.3050   -0.7300 C   0  0  0  0  0  0  0  0  0  0  0  0
    8.7790    0.2790    0.5120 C   0  0  0  0  0  0  0  0  0  0  0  0
    1.6600    0.4860    0.2700 C   0  0  0  0  0  0  0  0  0  0  0  0
    2.4480    0.5290    1.4250 C   0  0  0  0  0  0  0  0  0  0  0  0
    2.2370   -0.3290    2.4510 C   0  0  0  0  0  0  0  0  0  0  0  0
    1.2400   -1.2600    2.3750 C   0  0  0  0  0  0  0  0  0  0  0  0
    0.4570   -1.3120    1.2460 C   0  0  0  0  0  0  0  0  0  0  0  0
    0.6650   -0.4510    0.2070 C   0  0  0  0  0  0  0  0  0  0  0  0
   -4.2570    0.9700   -1.5160 C   0  0  0  0  0  0  0  0  0  0  0  0
   -5.6050    0.9000   -2.2140 C   0  0  0  0  0  0  0  0  0  0  0  0
  1  2  1  0
  2  3  1  0
  3  4  1  0
  4  5  2  0
  4 12  1  0
  5  6  1  0
  5 10  1  0
  6  7  2  0
  6  8  1  0
  8  9  1  0
 10 11  1  0
 11 12  2  0
 11 46  1  0
 12 13  1  0
 13 14  1  0
 14 15  1  6
 14 45  1  0
 15 16  2  0
 15 17  1  0
 18 17  1  1
 18 19  1  0
 18 44  1  0
 19 20  1  0
 20 21  1  0
 21 22  1  6
 21 39  1  0
 22 23  1  0
 23 24  2  0
 23 25  1  0
 25 26  1  0
 26 27  1  0
 27 28  2  0
 27 29  1  0
 29 30  1  0
 29 38  1  0
 30 31  1  0
 31 32  1  0
 32 33  1  0
 33 34  2  0
 33 38  1  0
 34 35  1  0
 35 36  2  0
 36 37  1  0
 37 38  2  0
 39 40  2  0
 39 44  1  0
 40 41  1  0
 41 42  2  0
 42 43  1  0
 43 44  2  0
 45 46  1  0
M  END
