
     RDKit          3D

 46 49  0  0  0  0  0  0  0  0999 V2000
    3.9230    3.1420    0.5440 C   0  0  0  0  0  0  0  0  0  0  0  0
    4.0780    2.9820    1.9280 C   0  0  0  0  0  0  0  0  0  0  0  0
    3.0350    3.6600    2.6440 O   0  0  0  0  0  0  0  0  0  0  0  0
    5.0730    2.2850    2.4350 C   0  0  0  0  0  0  0  0  0  0  0  0
    4.9100    0.9050    1.3010 C   0  0  0  0  0  0  0  0  0  0  0  0
    3.8690    0.7150    0.6730 C   0  0  0  0  0  0  0  0  0  0  0  0
    4.0070   -0.4630   -0.2580 C   0  0  0  0  0  0  0  0  0  0  0  0
    3.3760   -1.5220   -0.5690 C   0  0  0  0  0  0  0  0  0  0  0  0
    4.0000   -2.3990   -1.6150 C   0  0  0  0  0  0  0  0  0  0  0  0
    3.5400   -3.5280   -2.0600 C   0  0  0  0  0  0  0  0  0  0  0  0
    4.3870   -4.2220   -3.1450 C   0  0  0  0  0  0  0  0  0  0  0  0
    2.0520   -2.0050   -0.1260 C   0  0  1  0  0  0  0  0  0  0  0  0
    1.3380   -2.3260   -1.3150 O   0  0  0  0  0  0  0  0  0  0  0  0
    2.0980   -3.1300    0.8080 C   0  0  0  0  0  0  0  0  0  0  0  0
    1.2320   -4.1290    0.9350 C   0  0  0  0  0  0  0  0  0  0  0  0
    0.0240   -4.3330    0.1570 C   0  0  0  0  0  0  0  0  0  0  0  0
   -0.2230   -5.6430    0.0190 O   0  0  0  0  0  0  0  0  0  0  0  0
   -0.8460   -3.4290   -0.4180 N   0  0  0  0  0  0  0  0  0  0  0  0
   -1.6670   -2.3600    0.1060 C   0  0  2  0  0  0  0  0  0  0  0  0
   -2.5680   -3.0010    1.1810 C   0  0  0  0  0  0  0  0  0  0  0  0
   -3.5110   -3.8420    0.3500 C   0  0  0  0  0  0  0  0  0  0  0  0
   -3.4220   -3.3640   -1.0630 C   0  0  1  0  0  0  0  0  0  0  0  0
   -4.5880   -3.2110   -1.7430 O   0  0  0  0  0  0  0  0  0  0  0  0
   -5.5200   -2.4280   -1.0950 C   0  0  0  0  0  0  0  0  0  0  0  0
   -4.8880   -1.3020   -0.3080 C   0  0  0  0  0  0  0  0  0  0  0  0
   -3.5550   -0.9420   -0.8260 N   0  0  0  0  0  0  0  0  0  0  0  0
   -3.3950    0.4150   -1.1530 C   0  0  0  0  0  0  0  0  0  0  0  0
   -4.2210    0.9950   -1.9550 O   0  0  0  0  0  0  0  0  0  0  0  0
   -2.2930    1.3800   -0.6600 C   0  0  2  0  0  0  0  0  0  0  0  0
   -2.9290    2.5260   -0.4200 O   0  0  0  0  0  0  0  0  0  0  0  0
   -3.7330    3.4110    0.0660 C   0  0  0  0  0  0  0  0  0  0  0  0
   -3.6100    4.7640   -0.2820 C   0  0  0  0  0  0  0  0  0  0  0  0
   -4.4320    5.7310    0.2020 C   0  0  0  0  0  0  0  0  0  0  0  0
   -5.4440    5.4120    1.0630 C   0  0  0  0  0  0  0  0  0  0  0  0
   -5.5880    4.0550    1.4230 C   0  0  0  0  0  0  0  0  0  0  0  0
   -4.7820    3.1050    0.9570 C   0  0  0  0  0  0  0  0  0  0  0  0
   -1.3510    1.4320   -1.8350 C   0  0  0  0  0  0  0  0  0  0  0  0
   -0.0730    2.0550   -1.5820 N   0  0  1  0  0  0  0  0  0  0  0  0
   -0.0970    3.3610   -1.0480 C   0  0  0  0  0  0  0  0  0  0  0  0
    0.8340    1.1790   -0.9170 C   0  0  0  0  0  0  0  0  0  0  0  0
    1.4040    1.6100    0.3460 C   0  0  0  0  0  0  0  0  0  0  0  0
    0.7380    2.5280    0.9780 O   0  0  0  0  0  0  0  0  0  0  0  0
    2.5770    1.1750    0.9910 N   0  0  0  0  0  0  0  0  0  0  0  0
   -2.6560   -2.0270   -1.0010 C   0  0  1  0  0  0  0  0  0  0  0  0
    6.0690    1.5970    3.0090 C   0  0  0  0  0  0  0  0  0  0  0  0
    6.0910    1.8230    4.5540 C   0  0  0  0  0  0  0  0  0  0  0  0
  1  2  2  0
  2  3  1  0
  2  4  1  0
  4  5  1  0
  4 45  2  3
  5  6  2  3
  6  7  1  0
  6 43  1  0
  7  8  2  0
  8  9  1  0
  8 12  1  0
  9 10  2  3
 10 11  1  0
 12 13  1  6
 12 14  1  0
 14 15  2  0
 15 16  1  0
 16 17  2  0
 16 18  1  0
 18 19  1  0
 19 20  1  1
 19 44  1  0
 20 21  1  0
 22 21  1  1
 22 23  1  0
 22 44  1  0
 23 24  1  0
 24 25  1  0
 25 26  1  0
 26 27  1  0
 44 26  1  1
 27 28  2  0
 27 29  1  0
 29 30  1  6
 29 37  1  0
 30 31  1  0
 31 32  2  0
 31 36  1  0
 32 33  1  0
 33 34  2  0
 34 35  1  0
 35 36  2  0
 37 38  1  0
 38 39  1  1
 38 40  1  0
 40 41  1  0
 41 42  2  0
 41 43  1  0
 45 46  1  0
M  CHG  1  38   1
M  END
