
     RDKit          3D

 46 49  0  0  0  0  0  0  0  0999 V2000
   10.4860    1.1260    1.2790 C   0  0  0  0  0  0  0  0  0  0  0  0
    9.2260    0.8280    1.0290 C   0  0  0  0  0  0  0  0  0  0  0  0
    8.2390    1.8940    0.8760 C   0  0  0  0  0  0  0  0  0  0  0  0
    6.9590    1.6780    0.6250 C   0  0  0  0  0  0  0  0  0  0  0  0
    6.3710    0.3770    0.4720 C   0  0  0  0  0  0  0  0  0  0  0  0
    5.0790    0.2430    0.2260 C   0  0  0  0  0  0  0  0  0  0  0  0
    4.1740    1.4220    0.0970 C   0  0  0  0  0  0  0  0  0  0  0  0
    2.7590    0.8480    0.2820 C   0  0  0  0  0  0  0  0  0  0  0  0
    2.4240    0.0790   -0.9620 C   0  0  2  0  0  0  0  0  0  0  0  0
    1.0520   -0.5230   -0.8850 N   0  0  0  0  0  0  0  0  0  0  0  0
    0.2430   -0.1030   -2.0090 C   0  0  0  0  0  0  0  0  0  0  0  0
    0.2390    1.4070   -2.1420 C   0  0  0  0  0  0  0  0  0  0  0  0
   -0.9760    1.8930   -1.4550 N   0  0  0  0  0  0  0  0  0  0  0  0
   -0.8840    3.2820   -1.1030 C   0  0  0  0  0  0  0  0  0  0  0  0
   -1.0800    3.6670    0.2810 C   0  0  2  0  0  0  0  0  0  0  0  0
    0.1600    3.4810    0.9570 O   0  0  0  0  0  0  0  0  0  0  0  0
   -2.1840    3.2310    1.0980 C   0  0  0  0  0  0  0  0  0  0  0  0
   -3.3720    2.7600    0.8360 C   0  0  0  0  0  0  0  0  0  0  0  0
   -3.9760    2.5150   -0.4700 C   0  0  0  0  0  0  0  0  0  0  0  0
   -4.3400    1.1870   -0.8790 N   0  0  0  0  0  0  0  0  0  0  0  0
   -5.8120    1.0770   -1.2110 C   0  0  0  0  0  0  0  0  0  0  0  0
   -3.6470    0.0160   -1.1040 C   0  0  0  0  0  0  0  0  0  0  0  0
   -3.4440   -0.2060   -2.4220 O   0  0  0  0  0  0  0  0  0  0  0  0
   -3.0270   -1.1190   -0.3980 C   0  0  1  0  0  0  0  0  0  0  0  0
   -3.7850   -1.7140    0.7640 C   0  0  0  0  0  0  0  0  0  0  0  0
   -3.9760   -0.6930    1.8570 C   0  0  0  0  0  0  0  0  0  0  0  0
   -2.7830   -2.2610   -1.2580 N   0  0  0  0  0  0  0  0  0  0  0  0
   -3.9650   -2.6280   -2.1000 C   0  0  0  0  0  0  0  0  0  0  0  0
   -4.7530   -3.7560   -1.4460 C   0  0  0  0  0  0  0  0  0  0  0  0
   -1.6180   -3.0490   -1.4220 C   0  0  0  0  0  0  0  0  0  0  0  0
   -1.4400   -3.4570   -2.6540 O   0  0  0  0  0  0  0  0  0  0  0  0
   -0.5920   -3.4890   -0.4690 C   0  0  0  0  0  0  0  0  0  0  0  0
   -0.6300   -4.9020   -0.2510 C   0  0  0  0  0  0  0  0  0  0  0  0
    0.1470   -5.5920    0.6270 C   0  0  0  0  0  0  0  0  0  0  0  0
    1.0530   -4.8800    1.3750 C   0  0  0  0  0  0  0  0  0  0  0  0
    1.1140   -3.5310    1.1840 C   0  0  0  0  0  0  0  0  0  0  0  0
    0.3080   -2.7890    0.2630 C   0  0  0  0  0  0  0  0  0  0  0  0
    0.6850   -1.3710    0.1900 C   0  0  0  0  0  0  0  0  0  0  0  0
    0.6930   -0.7500    1.3470 O   0  0  0  0  0  0  0  0  0  0  0  0
   -4.2150    2.4420    1.9120 O   0  0  0  0  0  0  0  0  0  0  0  0
   -3.9010    2.4260    3.2540 C   0  0  0  0  0  0  0  0  0  0  0  0
   -2.8810    3.5430    3.4710 C   0  0  0  0  0  0  0  0  0  0  0  0
   -1.9020    3.3470    2.4890 O   0  0  0  0  0  0  0  0  0  0  0  0
    3.4840   -0.9890   -1.1050 C   0  0  2  0  0  0  0  0  0  0  0  0
    2.9400   -2.2440   -1.3520 O   0  0  0  0  0  0  0  0  0  0  0  0
    4.4350   -1.0860    0.0580 C   0  0  0  0  0  0  0  0  0  0  0  0
  1  2  2  0
  2  3  1  0
  3  4  2  3
  4  5  1  0
  5  6  2  3
  6  7  1  0
  6 46  1  0
  7  8  1  0
  8  9  1  0
  9 10  1  1
  9 44  1  0
 10 11  1  0
 10 38  1  0
 11 12  1  0
 12 13  1  0
 13 14  1  0
 14 15  1  0
 15 16  1  1
 15 17  1  0
 17 18  2  0
 17 43  1  0
 18 19  1  0
 18 40  1  0
 19 20  1  0
 20 21  1  0
 20 22  1  0
 22 23  2  0
 22 24  1  0
 24 25  1  1
 24 27  1  0
 25 26  1  0
 27 28  1  0
 27 30  1  0
 28 29  1  0
 30 31  2  0
 30 32  1  0
 32 33  2  0
 32 37  1  0
 33 34  1  0
 34 35  2  0
 35 36  1  0
 36 37  2  0
 37 38  1  0
 38 39  2  0
 40 41  1  0
 41 42  1  0
 42 43  1  0
 44 45  1  1
 44 46  1  0
M  CHG  1  13   1
M  END
