
     RDKit          3D

 46 51  0  0  0  0  0  0  0  0999 V2000
    8.8050   -0.6770    0.4400 C   0  0  0  0  0  0  0  0  0  0  0  0
    8.0200   -0.0150    1.5280 C   0  0  0  0  0  0  0  0  0  0  0  0
    6.6410   -0.3360    1.4860 O   0  0  0  0  0  0  0  0  0  0  0  0
    5.8460   -0.0480    0.3990 C   0  0  0  0  0  0  0  0  0  0  0  0
    6.3380    0.5140   -0.5950 O   0  0  0  0  0  0  0  0  0  0  0  0
    4.3880   -0.3900    0.3610 C   0  0  0  0  0  0  0  0  0  0  0  0
    3.7990    0.0480   -0.9560 C   0  0  0  0  0  0  0  0  0  0  0  0
    2.3330   -0.2820   -1.0570 C   0  0  2  0  0  0  0  0  0  0  0  0
    1.5410    0.3940    0.0240 C   0  0  0  0  0  0  0  0  0  0  0  0
    0.0890    0.0780   -0.0700 C   0  0  0  0  0  0  0  0  0  0  0  0
   -0.2780   -0.6760   -0.9980 O   0  0  0  0  0  0  0  0  0  0  0  0
   -0.8850    0.5800    0.8260 N   0  0  0  0  0  0  0  0  0  0  0  0
   -0.5470    1.4600    1.9250 C   0  0  0  0  0  0  0  0  0  0  0  0
   -0.5740    2.8960    1.5780 C   0  0  0  0  0  0  0  0  0  0  0  0
   -0.4250    3.7660    2.6450 C   0  0  0  0  0  0  0  0  0  0  0  0
   -0.4330    5.1220    2.4430 C   0  0  0  0  0  0  0  0  0  0  0  0
   -0.5870    5.6480    1.1790 C   0  0  0  0  0  0  0  0  0  0  0  0
   -0.5990    7.0040    0.9380 C   0  0  0  0  0  0  0  0  0  0  0  0
   -0.7530    7.5410   -0.3220 C   0  0  0  0  0  0  0  0  0  0  0  0
   -0.9000    6.6590   -1.3720 C   0  0  0  0  0  0  0  0  0  0  0  0
   -0.8890    5.3000   -1.1400 C   0  0  0  0  0  0  0  0  0  0  0  0
   -1.0450    4.3150   -2.2520 C   0  0  0  0  0  0  0  0  0  0  0  0
   -0.7320    4.7730    0.1380 C   0  0  0  0  0  0  0  0  0  0  0  0
   -0.7260    3.4100    0.3310 C   0  0  0  0  0  0  0  0  0  0  0  0
   -2.2670    0.2070    0.6670 C   0  0  1  0  0  0  0  0  0  0  0  0
   -2.8680    0.6750   -0.6260 C   0  0  0  0  0  0  0  0  0  0  0  0
   -4.4570   -0.2700   -0.4550 S   0  0  0  0  0  0  0  0  0  0  0  0
   -3.6440   -1.7020    0.3070 C   0  0  0  0  0  0  0  0  0  0  0  0
   -2.4790   -1.2460    0.8290 C   0  0  0  0  0  0  0  0  0  0  0  0
   -1.6700   -2.2240    1.4540 C   0  0  0  0  0  0  0  0  0  0  0  0
   -2.0880   -3.5310    1.5000 C   0  0  0  0  0  0  0  0  0  0  0  0
   -3.2930   -3.9450    0.9510 C   0  0  0  0  0  0  0  0  0  0  0  0
   -4.0950   -3.0030    0.3350 C   0  0  0  0  0  0  0  0  0  0  0  0
   -5.3300   -3.1570   -0.2840 O   0  0  0  0  0  0  0  0  0  0  0  0
   -6.0720   -4.3730   -0.3090 C   0  0  1  0  0  0  0  0  0  0  0  0
   -7.2750   -4.2370   -1.2140 C   0  0  0  0  0  0  0  0  0  0  0  0
   -5.1480   -5.4790   -0.7480 C   0  0  0  0  0  0  0  0  0  0  0  0
   -4.4780   -6.1510    0.4360 C   0  0  0  0  0  0  0  0  0  0  0  0
   -3.5670   -5.2820    1.0790 O   0  0  0  0  0  0  0  0  0  0  0  0
    2.2570   -1.7450   -0.8970 N   0  0  0  0  0  0  0  0  0  0  0  0
    2.6830   -2.6310   -1.9040 C   0  0  0  0  0  0  0  0  0  0  0  0
    3.0690   -3.7840   -1.6060 O   0  0  0  0  0  0  0  0  0  0  0  0
    2.6530   -2.1370   -3.3140 C   0  0  0  0  0  0  0  0  0  0  0  0
    1.9650   -0.9270   -3.4020 O   0  0  0  0  0  0  0  0  0  0  0  0
    1.8530    0.0300   -2.4100 C   0  0  0  0  0  0  0  0  0  0  0  0
    1.3350    1.1380   -2.7310 O   0  0  0  0  0  0  0  0  0  0  0  0
  1  2  1  0
  2  3  1  0
  3  4  1  0
  4  5  2  0
  4  6  1  0
  6  7  1  0
  8  7  1  6
  8  9  1  0
  8 40  1  0
  8 45  1  0
  9 10  1  0
 10 11  2  0
 10 12  1  0
 12 13  1  0
 25 12  1  6
 13 14  1  0
 14 15  2  0
 14 24  1  0
 15 16  1  0
 16 17  2  0
 17 18  1  0
 17 23  1  0
 18 19  2  0
 19 20  1  0
 20 21  2  0
 21 22  1  0
 21 23  1  0
 23 24  2  0
 25 26  1  0
 25 29  1  0
 26 27  1  0
 27 28  1  0
 28 29  2  0
 28 33  1  0
 29 30  1  0
 30 31  2  0
 31 32  1  0
 32 33  2  0
 32 39  1  0
 33 34  1  0
 34 35  1  0
 35 36  1  6
 35 37  1  0
 37 38  1  0
 38 39  1  0
 40 41  1  0
 41 42  2  0
 41 43  1  0
 43 44  1  0
 44 45  1  0
 45 46  2  0
M  END
