
     RDKit          3D

 46 51  0  0  0  0  0  0  0  0999 V2000
    2.3770    2.4690    2.3690 C   0  0  0  0  0  0  0  0  0  0  0  0
    2.1090    1.8680    1.1300 O   0  0  0  0  0  0  0  0  0  0  0  0
    1.5890    0.6050    0.9390 C   0  0  0  0  0  0  0  0  0  0  0  0
    2.4530   -0.4580    0.8240 C   0  0  0  0  0  0  0  0  0  0  0  0
    3.8120   -0.2170    0.9000 O   0  0  0  0  0  0  0  0  0  0  0  0
    4.7020   -1.3030    0.7790 C   0  0  0  0  0  0  0  0  0  0  0  0
    6.1370   -0.8460    0.8660 C   0  0  2  0  0  0  0  0  0  0  0  0
    6.5590   -0.3850    2.2270 C   0  0  0  0  0  0  0  0  0  0  0  0
    7.9100    0.7970    1.9940 S   0  0  0  0  0  0  0  0  0  0  0  0
    8.7360    0.2720    0.4590 C   0  0  0  0  0  0  0  0  0  0  0  0
   10.0220    0.2990    0.3870 C   0  0  0  0  0  0  0  0  0  0  0  0
   10.8910   -0.0670   -0.7200 C   0  0  0  0  0  0  0  0  0  0  0  0
   12.2190    0.0010   -0.6770 C   0  0  0  0  0  0  0  0  0  0  0  0
   13.0790    0.4540    0.4790 C   0  0  0  0  0  0  0  0  0  0  0  0
   12.7740   -0.4330   -1.9650 C   0  0  0  0  0  0  0  0  0  0  0  0
   11.6030   -0.7670   -2.7830 C   0  0  0  0  0  0  0  0  0  0  0  0
   10.5240   -0.5470   -2.0380 C   0  0  0  0  0  0  0  0  0  0  0  0
    7.7680   -0.1440   -0.5950 C   0  0  0  0  0  0  0  0  0  0  0  0
    6.4500    0.0690   -0.1320 O   0  0  0  0  0  0  0  0  0  0  0  0
    1.9910   -1.7400    0.6350 C   0  0  0  0  0  0  0  0  0  0  0  0
    0.6340   -1.9650    0.5570 C   0  0  0  0  0  0  0  0  0  0  0  0
   -0.2640   -0.9250    0.6670 C   0  0  0  0  0  0  0  0  0  0  0  0
   -1.6990   -1.1480    0.5700 C   0  0  0  0  0  0  0  0  0  0  0  0
   -2.2120   -2.2810    0.3950 O   0  0  0  0  0  0  0  0  0  0  0  0
   -2.5610   -0.0660    0.6740 O   0  0  0  0  0  0  0  0  0  0  0  0
   -3.9790   -0.2810    0.5710 C   0  0  1  0  0  0  0  0  0  0  0  0
   -4.5920    0.1970    1.8640 C   0  0  0  0  0  0  0  0  0  0  0  0
   -5.8170    1.0520    1.6700 C   0  0  0  0  0  0  0  0  0  0  0  0
   -6.7260    0.4790    0.6090 C   0  0  0  0  0  0  0  0  0  0  0  0
   -5.9460    0.4630   -0.6210 N   0  0  0  0  0  0  0  0  0  0  0  0
   -6.6560    0.3900   -1.8510 C   0  0  0  0  0  0  0  0  0  0  0  0
   -5.9450    0.3690   -2.9150 O   0  0  0  0  0  0  0  0  0  0  0  0
   -8.1010    0.3400   -1.9100 C   0  0  0  0  0  0  0  0  0  0  0  0
   -8.7600   -0.8620   -1.9110 C   0  0  0  0  0  0  0  0  0  0  0  0
  -10.1370   -0.8630   -1.9730 C   0  0  0  0  0  0  0  0  0  0  0  0
  -10.8230    0.3320   -2.0320 C   0  0  0  0  0  0  0  0  0  0  0  0
  -10.1690    1.5250   -2.0310 N   0  0  0  0  0  0  0  0  0  0  0  0
   -8.8290    1.5030   -1.9700 C   0  0  0  0  0  0  0  0  0  0  0  0
   -8.2280    2.6320   -1.9700 O   0  0  0  0  0  0  0  0  0  0  0  0
  -12.2950    0.0810   -2.0900 C   0  0  0  0  0  0  0  0  0  0  0  0
  -12.4540   -1.3820   -1.8050 C   0  0  0  0  0  0  0  0  0  0  0  0
  -11.1010   -1.9880   -1.9930 C   0  0  0  0  0  0  0  0  0  0  0  0
   -4.5300    0.5370   -0.5650 C   0  0  0  0  0  0  0  0  0  0  0  0
    0.2370    0.3480    0.8570 C   0  0  0  0  0  0  0  0  0  0  0  0
   -0.6000    1.4590    0.9780 O   0  0  0  0  0  0  0  0  0  0  0  0
   -1.1190    1.9480    2.1780 C   0  0  0  0  0  0  0  0  0  0  0  0
  1  2  1  0
  2  3  1  0
  3  4  2  0
  3 44  1  0
  4  5  1  0
  4 20  1  0
  5  6  1  0
  7  6  1  1
  7  8  1  0
  7 19  1  0
  8  9  1  0
  9 10  1  0
 10 11  2  3
 10 18  1  0
 11 12  1  0
 12 13  2  0
 12 17  1  0
 13 14  1  0
 13 15  1  0
 15 16  1  0
 16 17  2  0
 18 19  1  0
 20 21  2  0
 21 22  1  0
 22 23  1  0
 22 44  2  0
 23 24  2  0
 23 25  1  0
 26 25  1  1
 26 27  1  0
 26 43  1  0
 27 28  1  0
 28 29  1  0
 29 30  1  0
 30 31  1  0
 30 43  1  0
 31 32  2  0
 31 33  1  0
 33 34  2  0
 33 38  1  0
 34 35  1  0
 35 36  2  0
 35 42  1  0
 36 37  1  0
 36 40  1  0
 37 38  1  0
 38 39  2  0
 40 41  1  0
 41 42  1  0
 44 45  1  0
 45 46  1  0
M  END
