
     RDKit          3D

 19 19  0  0  0  0  0  0  0  0999 V2000
    0.6260   -2.0110    0.7650 O   0  0  0  0  0  0  0  0  0  0  0  0
    0.9420   -1.2130   -0.1440 C   0  0  0  0  0  0  0  0  0  0  0  0
   -0.0880   -0.4980   -0.7390 O   0  0  0  0  0  0  0  0  0  0  0  0
   -1.4390   -0.6360   -0.3650 C   0  0  1  0  0  0  0  0  0  0  0  0
   -1.9440   -2.0470   -0.5540 C   0  0  0  0  0  0  0  0  0  0  0  0
   -1.8590   -2.4720   -1.8640 O   0  0  0  0  0  0  0  0  0  0  0  0
   -1.7000   -0.2400    1.0560 C   0  0  0  0  0  0  0  0  0  0  0  0
   -1.4330    1.2110    1.3340 C   0  0  1  0  0  0  0  0  0  0  0  0
   -0.0410    1.3570    1.5140 O   0  0  0  0  0  0  0  0  0  0  0  0
   -1.9920    2.1540    0.3450 C   0  0  0  0  0  0  0  0  0  0  0  0
   -2.2110    1.6360   -0.9620 N   0  0  0  0  0  0  0  0  0  0  0  0
   -2.2410    0.2500   -1.2350 C   0  0  0  0  0  0  0  0  0  0  0  0
   -2.9180   -0.2010   -2.1740 O   0  0  0  0  0  0  0  0  0  0  0  0
    2.3550   -1.0380   -0.5700 C   0  0  2  0  0  0  0  0  0  0  0  0
    3.1460   -1.8770    0.1990 O   0  0  0  0  0  0  0  0  0  0  0  0
    2.7980    0.3600   -0.4850 C   0  0  0  0  0  0  0  0  0  0  0  0
    2.1040    1.2990   -1.2530 O   0  0  0  0  0  0  0  0  0  0  0  0
    3.8090    0.6970    0.2870 C   0  0  0  0  0  0  0  0  0  0  0  0
    4.2280    2.0110    0.3690 O   0  0  0  0  0  0  0  0  0  0  0  0
  1  2  2  0
  2  3  1  0
  2 14  1  0
  3  4  1  0
  4  5  1  1
  4  7  1  0
  4 12  1  0
  5  6  1  0
  7  8  1  0
  8  9  1  6
  8 10  1  0
 10 11  1  0
 11 12  1  0
 12 13  2  0
 14 15  1  1
 14 16  1  0
 16 17  1  0
 16 18  2  3
 18 19  1  0
M  END
