
     RDKit          3D

 20 20  0  0  0  0  0  0  0  0999 V2000
    4.1090   -0.0700   -2.0190 O   0  0  0  0  0  0  0  0  0  0  0  0
    4.2470    0.7950   -1.1160 C   0  0  0  0  0  0  0  0  0  0  0  0
    3.4050    0.7480    0.0290 N   0  0  0  0  0  0  0  0  0  0  0  0
    2.4190   -0.3180    0.0860 C   0  0  0  0  0  0  0  0  0  0  0  0
    1.5880   -0.2770    1.3280 C   0  0  1  0  0  0  0  0  0  0  0  0
    2.3770   -0.3970    2.4710 O   0  0  0  0  0  0  0  0  0  0  0  0
    0.7580    0.9710    1.4500 C   0  0  0  0  0  0  0  0  0  0  0  0
   -0.1520    1.1820    0.2740 C   0  0  0  0  0  0  0  0  0  0  0  0
   -0.9830   -0.0220   -0.0670 C   0  0  2  0  0  0  0  0  0  0  0  0
   -1.3410    0.1070   -1.3980 O   0  0  0  0  0  0  0  0  0  0  0  0
   -2.2190   -0.1220    0.7830 C   0  0  0  0  0  0  0  0  0  0  0  0
   -3.0760    0.9150    0.7770 O   0  0  0  0  0  0  0  0  0  0  0  0
   -3.6670    1.2300   -0.4080 C   0  0  0  0  0  0  0  0  0  0  0  0
   -4.4860    0.1020   -0.9480 C   0  0  0  0  0  0  0  0  0  0  0  0
   -5.0400    0.5450   -2.1610 O   0  0  0  0  0  0  0  0  0  0  0  0
   -0.2420   -1.3240    0.0710 C   0  0  2  0  0  0  0  0  0  0  0  0
   -1.2360   -2.3280    0.1950 O   0  0  0  0  0  0  0  0  0  0  0  0
    0.6070   -1.4290    1.2900 C   0  0  0  0  0  0  0  0  0  0  0  0
    5.2260    1.7670   -1.2830 O   0  0  0  0  0  0  0  0  0  0  0  0
    5.9740    1.7370   -2.3920 O   0  0  0  0  0  0  0  0  0  0  0  0
  1  2  2  0
  2  3  1  0
  2 19  1  0
  3  4  1  0
  4  5  1  0
  5  6  1  1
  5  7  1  0
  5 18  1  0
  7  8  1  0
  8  9  1  0
  9 10  1  6
  9 11  1  0
  9 16  1  0
 11 12  1  0
 12 13  1  0
 13 14  1  0
 14 15  1  0
 16 17  1  1
 16 18  1  0
 19 20  1  0
M  END
