
     RDKit          3D

 20 20  0  0  0  0  0  0  0  0999 V2000
    3.2600   -1.2260    2.5110 C   0  0  0  0  0  0  0  0  0  0  0  0
    2.1290   -1.4190    1.5590 C   0  0  0  0  0  0  0  0  0  0  0  0
    1.6150   -2.5610    1.4600 O   0  0  0  0  0  0  0  0  0  0  0  0
    1.6140   -0.3670    0.7620 N   0  0  0  0  0  0  0  0  0  0  0  0
    0.5000   -0.5650   -0.1740 C   0  0  2  0  0  0  0  0  0  0  0  0
    1.0910   -0.3100   -1.5580 C   0  0  1  0  0  0  0  0  0  0  0  0
    0.2000   -0.5870   -2.5670 O   0  0  0  0  0  0  0  0  0  0  0  0
    1.5840    1.0880   -1.5730 C   0  0  0  0  0  0  0  0  0  0  0  0
    0.8800    2.0200   -0.9500 C   0  0  0  0  0  0  0  0  0  0  0  0
    1.3720    3.3950   -0.9690 C   0  0  0  0  0  0  0  0  0  0  0  0
    2.4360    3.6960   -1.5600 O   0  0  0  0  0  0  0  0  0  0  0  0
    0.6770    4.3910   -0.3380 O   0  0  0  0  0  0  0  0  0  0  0  0
   -0.2950    1.7180   -0.2910 O   0  0  0  0  0  0  0  0  0  0  0  0
   -0.6260    0.3830    0.1230 C   0  0  1  0  0  0  0  0  0  0  0  0
   -1.9090    0.0500   -0.5460 C   0  0  2  0  0  0  0  0  0  0  0  0
   -2.9030    0.9670   -0.1430 O   0  0  0  0  0  0  0  0  0  0  0  0
   -2.4050   -1.3460   -0.3500 C   0  0  2  0  0  0  0  0  0  0  0  0
   -3.5760   -1.5480   -1.1240 O   0  0  0  0  0  0  0  0  0  0  0  0
   -2.8370   -1.5890    1.0800 C   0  0  0  0  0  0  0  0  0  0  0  0
   -1.8280   -1.4430    2.0010 O   0  0  0  0  0  0  0  0  0  0  0  0
  1  2  1  0
  2  3  2  0
  2  4  1  0
  5  4  1  1
  5  6  1  0
  5 14  1  0
  6  7  1  6
  6  8  1  0
  8  9  2  0
  9 10  1  0
  9 13  1  0
 10 11  2  0
 10 12  1  0
 14 13  1  6
 14 15  1  0
 15 16  1  1
 15 17  1  0
 17 18  1  6
 17 19  1  0
 19 20  1  0
M  END
