
     RDKit          3D

 20 20  0  0  0  0  0  0  0  0999 V2000
   -0.0840    4.5710   -0.0230 C   0  0  0  0  0  0  0  0  0  0  0  0
   -0.0890    3.1860    0.2540 O   0  0  0  0  0  0  0  0  0  0  0  0
   -0.1060    2.2550   -0.7530 C   0  0  0  0  0  0  0  0  0  0  0  0
   -0.1170    2.6260   -1.9560 O   0  0  0  0  0  0  0  0  0  0  0  0
   -0.1110    0.7630   -0.4550 C   0  0  2  0  0  0  0  0  0  0  0  0
    1.2190    0.3090   -0.9960 C   0  0  0  0  0  0  0  0  0  0  0  0
    1.3850    0.3290   -2.2410 O   0  0  0  0  0  0  0  0  0  0  0  0
    2.1990   -0.1120   -0.0690 N   0  0  0  0  0  0  0  0  0  0  0  0
    3.4870   -0.5750   -0.4690 C   0  0  0  0  0  0  0  0  0  0  0  0
    3.4040   -1.8270   -1.2780 C   0  0  0  0  0  0  0  0  0  0  0  0
    2.6970   -1.7590   -2.4540 O   0  0  0  0  0  0  0  0  0  0  0  0
   -1.2510    0.1860   -1.1990 C   0  0  0  0  0  0  0  0  0  0  0  0
   -2.0770   -0.8400   -0.5280 C   0  0  0  0  0  0  0  0  0  0  0  0
   -1.9540   -0.7710    0.9780 C   0  0  1  0  0  0  0  0  0  0  0  0
   -2.5530    0.3930    1.4170 O   0  0  0  0  0  0  0  0  0  0  0  0
   -2.5480   -1.9680    1.6680 C   0  0  0  0  0  0  0  0  0  0  0  0
   -2.3380   -1.8160    3.0350 O   0  0  0  0  0  0  0  0  0  0  0  0
   -0.4390   -0.6970    1.2170 C   0  0  2  0  0  0  0  0  0  0  0  0
   -0.1700   -1.0220    2.5330 O   0  0  0  0  0  0  0  0  0  0  0  0
   -0.0960    0.6140    0.9010 O   0  0  0  0  0  0  0  0  0  0  0  0
  1  2  1  0
  2  3  1  0
  3  4  2  0
  5  3  1  1
  5  6  1  0
  5 12  1  0
  5 20  1  0
  6  7  2  0
  6  8  1  0
  8  9  1  0
  9 10  1  0
 10 11  1  0
 12 13  1  0
 13 14  1  0
 14 15  1  1
 14 16  1  0
 14 18  1  0
 16 17  1  0
 18 19  1  1
 18 20  1  0
M  END
