
     RDKit          3D

 28 27  0  0  0  0  0  0  0  0999 V2000
    7.3980   -2.6970   -0.1320 C   0  0  0  0  0  0  0  0  0  0  0  0
    6.9140   -1.2160   -0.2220 C   0  0  0  0  0  0  0  0  0  0  0  0
    5.5570   -1.2740   -0.1180 O   0  0  0  0  0  0  0  0  0  0  0  0
    4.6420   -0.2240   -0.1770 C   0  0  0  0  0  0  0  0  0  0  0  0
    5.0880    0.9090   -0.3430 O   0  0  0  0  0  0  0  0  0  0  0  0
    3.2470   -0.6500   -0.0230 C   0  0  2  0  0  0  0  0  0  0  0  0
    3.0570   -1.8920   -0.9230 C   0  0  0  0  0  0  0  0  0  0  0  0
    2.1940    0.2600   -0.0590 N   0  0  0  0  0  0  0  0  0  0  0  0
    1.3400    0.6420   -1.1380 C   0  0  0  0  0  0  0  0  0  0  0  0
    1.5370    0.1460   -2.2530 O   0  0  0  0  0  0  0  0  0  0  0  0
    0.1940    1.5970   -0.9360 C   0  0  2  0  0  0  0  0  0  0  0  0
    0.3490    2.9440   -0.5450 C   0  0  0  0  0  0  0  0  0  0  0  0
    0.8810    3.5630    0.6460 C   0  0  1  0  0  0  0  0  0  0  0  0
    2.2570    3.4760    1.1300 C   0  0  0  0  0  0  0  0  0  0  0  0
    0.5630    5.0920    0.5570 C   0  0  0  0  0  0  0  0  0  0  0  0
   -0.7440    0.7390   -0.1760 N   0  0  0  0  0  0  0  0  0  0  0  0
   -1.6430   -0.1560   -0.7580 C   0  0  0  0  0  0  0  0  0  0  0  0
   -1.7450   -0.2430   -1.9940 O   0  0  0  0  0  0  0  0  0  0  0  0
   -2.4760   -1.0370    0.1880 C   0  0  1  0  0  0  0  0  0  0  0  0
   -3.2670   -0.0750    1.0070 C   0  0  0  0  0  0  0  0  0  0  0  0
   -4.1640    0.7950    0.1820 C   0  0  0  0  0  0  0  0  0  0  0  0
   -4.1030    0.7330   -1.0430 O   0  0  0  0  0  0  0  0  0  0  0  0
   -5.0850    1.6860    0.8380 N   0  0  0  0  0  0  0  0  0  0  0  0
   -5.9100    2.4870    0.1330 O   0  0  0  0  0  0  0  0  0  0  0  0
   -3.1920   -2.0420   -0.6030 C   0  0  0  0  0  0  0  0  0  0  0  0
   -3.9800   -3.0400    0.1770 C   0  0  1  0  0  0  0  0  0  0  0  0
   -5.0410   -2.5770    1.0820 C   0  0  0  0  0  0  0  0  0  0  0  0
   -4.5640   -4.0560   -0.8200 C   0  0  0  0  0  0  0  0  0  0  0  0
  1  2  1  0
  2  3  1  0
  3  4  1  0
  4  5  2  0
  4  6  1  0
  6  7  1  6
  6  8  1  0
  8  9  1  0
  9 10  2  0
  9 11  1  0
 11 12  1  1
 11 16  1  0
 12 13  1  0
 13 14  1  6
 13 15  1  0
 16 17  1  0
 17 18  2  0
 17 19  1  0
 19 20  1  6
 19 25  1  0
 20 21  1  0
 21 22  2  0
 21 23  1  0
 23 24  1  0
 25 26  1  0
 26 27  1  6
 26 28  1  0
M  END
