
     RDKit          3D

 12 12  0  0  0  0  0  0  0  0999 V2000
   -2.5680    0.4140    1.3380 N   0  0  0  0  0  0  0  0  0  0  0  0
   -2.2490   -0.1460    0.0370 C   0  0  2  0  0  0  0  0  0  0  0  0
   -1.1050   -1.1380    0.1110 C   0  0  0  0  0  0  0  0  0  0  0  0
    0.0780   -0.2280    0.2930 C   0  0  1  0  0  0  0  0  0  0  0  0
    0.4760   -0.2940    1.6090 O   0  0  0  0  0  0  0  0  0  0  0  0
    1.2520   -0.6040   -0.5780 C   0  0  1  0  0  0  0  0  0  0  0  0
    0.9030   -0.5540   -1.9310 O   0  0  0  0  0  0  0  0  0  0  0  0
    2.3200    0.4600   -0.3530 C   0  0  0  0  0  0  0  0  0  0  0  0
    2.7160    0.4630    0.9900 O   0  0  0  0  0  0  0  0  0  0  0  0
   -0.3320    1.0680   -0.0960 O   0  0  0  0  0  0  0  0  0  0  0  0
   -1.5780    0.9600   -0.7350 C   0  0  0  0  0  0  0  0  0  0  0  0
   -2.0340    1.6030   -1.6950 O   0  0  0  0  0  0  0  0  0  0  0  0
  2  1  1  1
  2  3  1  0
  2 11  1  0
  3  4  1  0
  4  5  1  1
  4  6  1  0
  4 10  1  0
  6  7  1  6
  6  8  1  0
  8  9  1  0
 10 11  1  0
 11 12  2  0
M  END
