
     RDKit          3D

 12 12  0  0  0  0  0  0  0  0999 V2000
    2.3690    0.1800   -1.0830 N   0  0  0  0  0  0  0  0  0  0  0  0
    1.8230   -0.9310   -0.3720 C   0  0  0  0  0  0  0  0  0  0  0  0
    0.8840   -0.5400    0.7000 C   0  0  1  0  0  0  0  0  0  0  0  0
    1.4170    0.2900    1.6590 O   0  0  0  0  0  0  0  0  0  0  0  0
   -0.4230   -0.0190    0.1680 C   0  0  1  0  0  0  0  0  0  0  0  0
   -0.3580    1.3150   -0.4360 C   0  0  0  0  0  0  0  0  0  0  0  0
    0.2760    1.5990   -1.4730 O   0  0  0  0  0  0  0  0  0  0  0  0
   -1.0410    2.3790    0.1580 O   0  0  0  0  0  0  0  0  0  0  0  0
   -1.0900   -1.0330   -0.7110 C   0  0  0  0  0  0  0  0  0  0  0  0
   -2.3910   -1.1860   -0.2270 O   0  0  0  0  0  0  0  0  0  0  0  0
   -2.5510   -0.0750    0.5910 C   0  0  0  0  0  0  0  0  0  0  0  0
   -1.3440    0.0470    1.2620 O   0  0  0  0  0  0  0  0  0  0  0  0
  1  2  1  0
  2  3  1  0
  3  4  1  6
  3  5  1  0
  5  6  1  6
  5  9  1  0
  5 12  1  0
  6  7  2  0
  6  8  1  0
  9 10  1  0
 10 11  1  0
 11 12  1  0
M  END
