
     RDKit          3D

 13 13  0  0  0  0  0  0  0  0999 V2000
   -2.3220    0.4360   -1.2460 N   0  0  0  0  0  0  0  0  0  0  0  0
   -1.6590    0.5050    0.0440 C   0  0  1  0  0  0  0  0  0  0  0  0
   -2.2010   -0.5880    0.9180 C   0  0  0  0  0  0  0  0  0  0  0  0
   -3.0140   -0.4620    1.8490 O   0  0  0  0  0  0  0  0  0  0  0  0
   -1.5840   -1.7350    0.4380 O   0  0  0  0  0  0  0  0  0  0  0  0
   -0.2860   -1.4400   -0.0620 C   0  0  1  0  0  0  0  0  0  0  0  0
   -0.0770   -2.0020   -1.3050 O   0  0  0  0  0  0  0  0  0  0  0  0
   -0.2040    0.0680   -0.0630 C   0  0  2  0  0  0  0  0  0  0  0  0
    0.4400    0.4840    1.0670 O   0  0  0  0  0  0  0  0  0  0  0  0
    1.5000    1.3220    0.9240 C   0  0  0  0  0  0  0  0  0  0  0  0
    2.5580    0.6930    0.1140 C   0  0  0  0  0  0  0  0  0  0  0  0
    3.6060    1.3730   -0.0970 O   0  0  0  0  0  0  0  0  0  0  0  0
    2.5180   -0.5690   -0.4390 O   0  0  0  0  0  0  0  0  0  0  0  0
  2  1  1  6
  2  3  1  0
  2  8  1  0
  3  4  2  0
  3  5  1  0
  5  6  1  0
  6  7  1  6
  6  8  1  0
  8  9  1  1
  9 10  1  0
 10 11  1  0
 11 12  2  0
 11 13  1  0
M  END
