
     RDKit          3D

 13 12  0  0  0  0  0  0  0  0999 V2000
   -1.7820    1.3370    0.4020 C   0  0  0  0  0  0  0  0  0  0  0  0
   -1.9260   -0.1420    0.3720 C   0  0  1  0  0  0  0  0  0  0  0  0
   -3.0720   -0.4470   -0.6050 C   0  0  0  0  0  0  0  0  0  0  0  0
   -0.7510   -0.9200   -0.1020 C   0  0  0  0  0  0  0  0  0  0  0  0
    0.4620   -0.7120    0.7290 C   0  0  2  0  0  0  0  0  0  0  0  0
    1.0120    0.5610    0.8570 N   0  0  0  0  0  0  0  0  0  0  0  0
    1.6680    1.4210   -0.3850 P   0  0  0  0  0  0  0  0  0  0  0  0
    0.7780    0.9120   -1.5450 O   0  0  0  0  0  0  0  0  0  0  0  0
    2.9610    0.7600   -1.2070 O   0  0  0  0  0  0  0  0  0  0  0  0
    2.7210    2.2450    0.4090 O   0  0  0  0  0  0  0  0  0  0  0  0
    1.5110   -1.7090    0.4190 C   0  0  0  0  0  0  0  0  0  0  0  0
    1.1570   -3.0580    0.2420 N   0  0  0  0  0  0  0  0  0  0  0  0
    2.6920   -1.3510    0.3180 O   0  0  0  0  0  0  0  0  0  0  0  0
  2  1  1  6
  2  3  1  0
  2  4  1  0
  5  4  1  6
  5  6  1  0
  5 11  1  0
  6  7  1  0
  7  8  1  0
  7  9  1  0
  7 10  1  0
 11 12  1  0
 11 13  2  0
M  END
