
     RDKit          3D

 16 16  0  0  0  0  0  0  0  0999 V2000
   -2.1170    1.6630    1.1440 C   0  0  0  0  0  0  0  0  0  0  0  0
   -2.0700    0.3320    1.5490 O   0  0  0  0  0  0  0  0  0  0  0  0
   -1.7970   -0.4560    0.4060 C   0  0  2  0  0  0  0  0  0  0  0  0
   -2.8070   -1.4020    0.2370 O   0  0  0  0  0  0  0  0  0  0  0  0
   -3.4240   -1.2800   -1.0070 C   0  0  0  0  0  0  0  0  0  0  0  0
   -0.5820   -1.1190    0.6750 O   0  0  0  0  0  0  0  0  0  0  0  0
    0.5960   -0.9640    0.0010 C   0  0  0  0  0  0  0  0  0  0  0  0
    0.8730   -1.7650   -1.0800 C   0  0  0  0  0  0  0  0  0  0  0  0
   -0.0020   -2.7380   -1.5230 O   0  0  0  0  0  0  0  0  0  0  0  0
    2.0820   -1.5810   -1.7450 C   0  0  0  0  0  0  0  0  0  0  0  0
    3.0070   -0.6410   -1.3730 C   0  0  0  0  0  0  0  0  0  0  0  0
    2.6890    0.1510   -0.2710 C   0  0  0  0  0  0  0  0  0  0  0  0
    1.5020   -0.0020    0.4120 C   0  0  0  0  0  0  0  0  0  0  0  0
    1.1540    0.7690    1.5120 O   0  0  0  0  0  0  0  0  0  0  0  0
    2.0970    1.7590    1.9250 C   0  0  0  0  0  0  0  0  0  0  0  0
    1.6680    2.4720    3.0190 O   0  0  0  0  0  0  0  0  0  0  0  0
  1  2  1  0
  3  2  1  1
  3  4  1  0
  3  6  1  0
  4  5  1  0
  6  7  1  0
  7  8  2  0
  7 13  1  0
  8  9  1  0
  8 10  1  0
 10 11  2  0
 11 12  1  0
 12 13  2  0
 13 14  1  0
 14 15  1  0
 15 16  1  0
M  END
