
     RDKit          3D

 16 16  0  0  0  0  0  0  0  0999 V2000
   -0.8920    3.0960    0.6610 C   0  0  0  0  0  0  0  0  0  0  0  0
   -1.4800    1.9130    0.4850 C   0  0  0  0  0  0  0  0  0  0  0  0
   -1.0580    1.0510   -0.5130 O   0  0  0  0  0  0  0  0  0  0  0  0
   -0.6020   -0.2930   -0.2210 C   0  0  2  0  0  0  0  0  0  0  0  0
   -0.2600   -0.8960   -1.3470 O   0  0  0  0  0  0  0  0  0  0  0  0
   -1.1100   -1.0460   -2.3760 C   0  0  0  0  0  0  0  0  0  0  0  0
   -1.3770   -0.8410    0.8590 C   0  0  0  0  0  0  0  0  0  0  0  0
   -2.4150   -1.8550    0.9000 C   0  0  0  0  0  0  0  0  0  0  0  0
   -2.8560   -2.4770   -0.0790 O   0  0  0  0  0  0  0  0  0  0  0  0
   -3.0310   -2.2260    2.1170 O   0  0  0  0  0  0  0  0  0  0  0  0
   -0.9520   -0.2120    1.9990 C   0  0  0  0  0  0  0  0  0  0  0  0
    0.0650    0.7000    1.6440 O   0  0  0  0  0  0  0  0  0  0  0  0
    0.7410   -0.0370    0.6060 C   0  0  2  0  0  0  0  0  0  0  0  0
    1.6320    0.6720   -0.1110 O   0  0  0  0  0  0  0  0  0  0  0  0
    2.8000   -0.1110   -0.2620 C   0  0  0  0  0  0  0  0  0  0  0  0
    3.8580    0.5850   -1.0460 C   0  0  0  0  0  0  0  0  0  0  0  0
  1  2  2  0
  2  3  1  0
  4  3  1  6
  4  5  1  0
  4  7  1  0
  4 13  1  0
  5  6  1  0
  7  8  1  0
  7 11  2  0
  8  9  2  0
  8 10  1  0
 11 12  1  0
 12 13  1  0
 13 14  1  6
 14 15  1  0
 15 16  1  0
M  END
