
     RDKit          3D

 17 18  0  0  0  0  0  0  0  0999 V2000
    3.4150    1.9070   -3.2180 N   0  0  0  0  0  0  0  0  0  0  0  0
    2.4440    1.7020   -2.2420 C   0  0  0  0  0  0  0  0  0  0  0  0
    1.7410    0.6960   -2.0500 O   0  0  0  0  0  0  0  0  0  0  0  0
    2.1890    2.7380   -1.3340 N   0  0  0  0  0  0  0  0  0  0  0  0
    1.2830    2.8020   -0.3530 C   0  0  0  0  0  0  0  0  0  0  0  0
    1.4480    4.1020    0.1040 O   0  0  0  0  0  0  0  0  0  0  0  0
    0.3450    2.4060    0.4460 N   0  0  0  0  0  0  0  0  0  0  0  0
   -0.4650    1.5750    1.0420 C   0  0  0  0  0  0  0  0  0  0  0  0
   -1.0570    2.2900    2.0000 O   0  0  0  0  0  0  0  0  0  0  0  0
   -0.8100    0.3490    0.9970 N   0  0  0  0  0  0  0  0  0  0  0  0
   -1.1740   -0.9070    0.9720 C   0  0  1  0  0  0  0  0  0  0  0  0
   -2.6590   -1.1150    1.1640 C   0  0  0  0  0  0  0  0  0  0  0  0
   -2.8030   -2.2630    1.6740 N   0  0  0  0  0  0  0  0  0  0  0  0
   -1.5540   -3.0000    1.4820 C   0  0  1  0  0  0  0  0  0  0  0  0
   -1.3220   -3.0220    0.0100 C   0  0  0  0  0  0  0  0  0  0  0  0
   -0.8890   -1.6280   -0.3520 C   0  0  0  0  0  0  0  0  0  0  0  0
   -0.6080   -1.9070    1.9310 C   0  0  0  0  0  0  0  0  0  0  0  0
  1  2  1  0
  2  3  2  0
  2  4  1  0
  4  5  1  0
  5  6  2  0
  5  7  1  0
  7  8  1  0
  8  9  2  0
  8 10  1  0
 11 10  1  6
 11 12  1  0
 11 16  1  0
 11 17  1  0
 12 13  2  0
 13 14  1  0
 14 15  1  6
 14 17  1  0
 15 16  1  0
M  END
