
     RDKit          3D

 17 17  0  0  0  0  0  0  0  0999 V2000
   -3.7250    0.4450   -2.0580 C   0  0  0  0  0  0  0  0  0  0  0  0
   -3.3380    0.2540   -0.6060 C   0  0  2  0  0  0  0  0  0  0  0  0
   -2.9920    1.6230   -0.0570 C   0  0  0  0  0  0  0  0  0  0  0  0
   -1.8090    1.3540    0.6330 O   0  0  0  0  0  0  0  0  0  0  0  0
   -1.1320    0.5880   -0.3410 C   0  0  1  0  0  0  0  0  0  0  0  0
    0.1380    0.1840    0.1510 N   0  0  0  0  0  0  0  0  0  0  0  0
    0.4810   -1.0340    0.0930 C   0  0  0  0  0  0  0  0  0  0  0  0
    1.7610   -1.4760    0.5830 C   0  0  0  0  0  0  0  0  0  0  0  0
    2.0300   -2.7950    0.4760 C   0  0  0  0  0  0  0  0  0  0  0  0
    1.0380   -3.6170   -0.1050 N   0  0  0  0  0  0  0  0  0  0  0  0
    2.8010   -0.6800    1.1800 C   0  0  0  0  0  0  0  0  0  0  0  0
    3.8960   -1.2270    1.5710 O   0  0  0  0  0  0  0  0  0  0  0  0
    2.6880    0.7170    1.3710 N   0  0  0  0  0  0  0  0  0  0  0  0
    3.7750    1.4580    1.9790 C   0  0  0  0  0  0  0  0  0  0  0  0
    3.6400    2.8580    2.1610 N   0  0  0  0  0  0  0  0  0  0  0  0
    4.8090    0.8440    2.3310 O   0  0  0  0  0  0  0  0  0  0  0  0
   -2.0690   -0.4890   -0.5440 N   0  0  0  0  0  0  0  0  0  0  0  0
  2  1  1  6
  2  3  1  0
  2 17  1  0
  3  4  1  0
  4  5  1  0
  5  6  1  1
  5 17  1  0
  6  7  2  3
  7  8  1  0
  8  9  2  3
  8 11  1  0
  9 10  1  0
 11 12  2  0
 11 13  1  0
 13 14  1  0
 14 15  1  0
 14 16  2  0
M  END
