
     RDKit          3D

 17 18  0  0  0  0  0  0  0  0999 V2000
   -4.4610   -0.9860    0.3550 N   0  0  0  0  0  0  0  0  0  0  0  0
   -4.1320    0.3990    0.2050 C   0  0  0  0  0  0  0  0  0  0  0  0
   -2.8630    0.5280   -0.6020 C   0  0  2  0  0  0  0  0  0  0  0  0
   -1.6950   -0.1680    0.0650 C   0  0  0  0  0  0  0  0  0  0  0  0
   -0.5320    0.5120   -0.6580 C   0  0  2  0  0  0  0  0  0  0  0  0
    0.7190    0.2800    0.0210 N   0  0  0  0  0  0  0  0  0  0  0  0
    1.8390   -0.3670   -0.5910 C   0  0  0  0  0  0  0  0  0  0  0  0
    1.6830   -0.7370   -1.7810 O   0  0  0  0  0  0  0  0  0  0  0  0
    3.0900   -0.5870    0.1180 C   0  0  0  0  0  0  0  0  0  0  0  0
    3.4300   -0.2520    1.4060 C   0  0  0  0  0  0  0  0  0  0  0  0
    4.6950   -0.6680    1.5900 N   0  0  0  0  0  0  0  0  0  0  0  0
    5.1470   -1.2440    0.4680 C   0  0  0  0  0  0  0  0  0  0  0  0
    6.2860   -1.7600    0.2380 O   0  0  0  0  0  0  0  0  0  0  0  0
    4.1560   -1.1870   -0.4210 N   0  0  0  0  0  0  0  0  0  0  0  0
   -0.9540    1.9180   -0.6400 C   0  0  0  0  0  0  0  0  0  0  0  0
   -0.2380    2.9310   -0.6250 O   0  0  0  0  0  0  0  0  0  0  0  0
   -2.3890    1.9040   -0.6430 N   0  0  0  0  0  0  0  0  0  0  0  0
  1  2  1  0
  3  2  1  1
  3  4  1  0
  3 17  1  0
  4  5  1  0
  5  6  1  1
  5 15  1  0
  6  7  1  0
  7  8  2  0
  7  9  1  0
  9 10  2  0
  9 14  1  0
 10 11  1  0
 11 12  1  0
 12 13  2  0
 12 14  1  0
 15 16  2  0
 15 17  1  0
M  END
