
     RDKit          3D

 17 18  0  0  0  0  0  0  0  0999 V2000
   -2.3340   -2.6780   -0.1790 N   0  0  0  0  0  0  0  0  0  0  0  0
   -1.4690   -1.5620   -0.6050 C   0  0  0  0  0  0  0  0  0  0  0  0
   -1.3360   -0.6770    0.6050 C   0  0  0  0  0  0  0  0  0  0  0  0
   -0.5180    0.5420    0.4240 C   0  0  1  0  0  0  0  0  0  0  0  0
    0.9130    0.3460    0.0210 C   0  0  2  0  0  0  0  0  0  0  0  0
    1.1190   -0.2540   -1.2420 N   0  0  0  0  0  0  0  0  0  0  0  0
    2.2740   -1.0400   -1.4860 C   0  0  0  0  0  0  0  0  0  0  0  0
    2.5700   -1.3660   -2.6960 O   0  0  0  0  0  0  0  0  0  0  0  0
    3.1320   -1.4910   -0.4500 N   0  0  0  0  0  0  0  0  0  0  0  0
    2.7990   -1.1270    0.8810 C   0  0  0  0  0  0  0  0  0  0  0  0
    3.4990   -1.4790    1.8730 O   0  0  0  0  0  0  0  0  0  0  0  0
    1.6360   -0.3440    1.0680 N   0  0  0  0  0  0  0  0  0  0  0  0
   -1.2540    1.4440   -0.5710 C   0  0  0  0  0  0  0  0  0  0  0  0
   -0.5820    2.7650   -0.3230 C   0  0  0  0  0  0  0  0  0  0  0  0
   -0.2440    2.7390    1.0940 N   0  0  0  0  0  0  0  0  0  0  0  0
   -0.5160    1.4240    1.6230 C   0  0  0  0  0  0  0  0  0  0  0  0
   -0.7000    1.1450    2.8250 O   0  0  0  0  0  0  0  0  0  0  0  0
  1  2  1  0
  2  3  1  0
  4  3  1  1
  4  5  1  0
  4 13  1  0
  4 16  1  0
  5  6  1  6
  5 12  1  0
  6  7  1  0
  7  8  2  0
  7  9  1  0
  9 10  1  0
 10 11  2  0
 10 12  1  0
 13 14  1  0
 14 15  1  0
 15 16  1  0
 16 17  2  0
M  END
