
     RDKit          3D

 17 18  0  0  0  0  0  0  0  0999 V2000
   -3.1010    0.4690    1.1050 C   0  0  0  0  0  0  0  0  0  0  0  0
   -3.3040    0.0990   -0.3270 C   0  0  2  0  0  0  0  0  0  0  0  0
   -4.5330   -0.5460   -0.4590 O   0  0  0  0  0  0  0  0  0  0  0  0
   -2.2520   -0.8510   -0.8500 C   0  0  2  0  0  0  0  0  0  0  0  0
   -2.3160   -1.9980   -0.0770 O   0  0  0  0  0  0  0  0  0  0  0  0
   -0.8780   -0.2670   -0.7120 C   0  0  0  0  0  0  0  0  0  0  0  0
   -0.0460   -0.9180    0.0030 N   0  0  0  0  0  0  0  0  0  0  0  0
    1.2940   -0.5510    0.2640 C   0  0  0  0  0  0  0  0  0  0  0  0
    1.7060    0.6250   -0.3240 C   0  0  0  0  0  0  0  0  0  0  0  0
    2.9830    1.0430   -0.1170 N   0  0  0  0  0  0  0  0  0  0  0  0
    3.8500    0.3460    0.6400 C   0  0  0  0  0  0  0  0  0  0  0  0
    5.1890    0.7750    0.8620 N   0  0  0  0  0  0  0  0  0  0  0  0
    3.4120   -0.7970    1.1970 N   0  0  0  0  0  0  0  0  0  0  0  0
    2.1620   -1.2620    1.0300 C   0  0  0  0  0  0  0  0  0  0  0  0
    1.7610   -2.3460    1.5640 O   0  0  0  0  0  0  0  0  0  0  0  0
    0.8230    1.3800   -1.1230 N   0  0  0  0  0  0  0  0  0  0  0  0
   -0.5130    0.9850   -1.3660 C   0  0  0  0  0  0  0  0  0  0  0  0
  2  1  1  1
  2  3  1  0
  2  4  1  0
  4  5  1  1
  4  6  1  0
  6  7  2  0
  6 17  1  0
  7  8  1  0
  8  9  2  0
  8 14  1  0
  9 10  1  0
  9 16  1  0
 10 11  2  0
 11 12  1  0
 11 13  1  0
 13 14  1  0
 14 15  2  0
 16 17  1  0
M  END
