
     RDKit          3D

 17 18  0  0  0  0  0  0  0  0999 V2000
    0.1550    3.2070    1.1040 O   0  0  0  0  0  0  0  0  0  0  0  0
    0.6460    2.2630    0.3810 C   0  0  0  0  0  0  0  0  0  0  0  0
   -0.0520    2.1150   -0.9250 C   0  0  0  0  0  0  0  0  0  0  0  0
   -1.5050    1.6660   -0.6640 C   0  0  0  0  0  0  0  0  0  0  0  0
   -1.4270    0.2320   -0.4130 C   0  0  2  0  0  0  0  0  0  0  0  0
   -2.6610   -0.5970   -0.3850 C   0  0  0  0  0  0  0  0  0  0  0  0
   -2.1550   -1.8140    0.3700 C   0  0  0  0  0  0  0  0  0  0  0  0
   -0.9080   -1.4650    0.8360 C   0  0  0  0  0  0  0  0  0  0  0  0
   -0.9450   -0.0620    0.9680 N   0  0  0  0  0  0  0  0  0  0  0  0
    0.1750   -2.3980    1.0790 C   0  0  0  0  0  0  0  0  0  0  0  0
   -0.1740   -3.4200    1.8310 O   0  0  0  0  0  0  0  0  0  0  0  0
    1.5110   -2.3150    0.6020 N   0  0  0  0  0  0  0  0  0  0  0  0
    2.0790   -1.7180   -0.4990 N   0  0  0  0  0  0  0  0  0  0  0  0
    2.4750   -0.3790   -0.7810 C   0  0  0  0  0  0  0  0  0  0  0  0
    2.7470   -0.0740   -2.0340 O   0  0  0  0  0  0  0  0  0  0  0  0
    2.6360    0.7190    0.0850 N   0  0  0  0  0  0  0  0  0  0  0  0
    1.7410    1.4600    0.8100 N   0  0  0  0  0  0  0  0  0  0  0  0
  1  2  2  0
  2  3  1  0
  2 17  1  0
  3  4  1  0
  5  4  1  1
  5  6  1  0
  5  9  1  0
  6  7  1  0
  7  8  2  0
  8  9  1  0
  8 10  1  0
 10 11  2  0
 10 12  1  0
 12 13  1  0
 13 14  1  0
 14 15  2  0
 14 16  1  0
 16 17  1  0
M  END
