
     RDKit          3D

 22 24  0  0  0  0  0  0  0  0999 V2000
    6.1770   -0.7300   -0.5250 C   0  0  0  0  0  0  0  0  0  0  0  0
    5.2940    0.2690    0.1150 C   0  0  0  0  0  0  0  0  0  0  0  0
    5.8080    1.3400    0.7980 C   0  0  0  0  0  0  0  0  0  0  0  0
    4.9510    2.2580    1.3860 C   0  0  0  0  0  0  0  0  0  0  0  0
    3.6260    2.0780    1.2740 N   0  0  0  0  0  0  0  0  0  0  0  0
    3.0650    1.0480    0.6170 C   0  0  0  0  0  0  0  0  0  0  0  0
    1.5950    0.9800    0.5770 C   0  0  0  0  0  0  0  0  0  0  0  0
    0.9410    1.8880    1.1590 O   0  0  0  0  0  0  0  0  0  0  0  0
    0.9090   -0.0580   -0.0840 N   0  0  0  0  0  0  0  0  0  0  0  0
   -0.4960   -0.1910   -0.1590 C   0  0  0  0  0  0  0  0  0  0  0  0
   -1.0360   -1.1030   -1.0830 C   0  0  0  0  0  0  0  0  0  0  0  0
   -2.3870   -1.2830   -1.1830 C   0  0  0  0  0  0  0  0  0  0  0  0
   -3.2860   -0.5730   -0.3780 C   0  0  0  0  0  0  0  0  0  0  0  0
   -4.7280   -0.8070   -0.5310 C   0  0  0  0  0  0  0  0  0  0  0  0
   -5.7740   -0.2340    0.1410 C   0  0  0  0  0  0  0  0  0  0  0  0
   -6.9670   -0.7740   -0.3490 C   0  0  0  0  0  0  0  0  0  0  0  0
   -6.5710   -1.6660   -1.3140 C   0  0  0  0  0  0  0  0  0  0  0  0
   -5.2740   -1.6630   -1.3950 O   0  0  0  0  0  0  0  0  0  0  0  0
   -2.7820    0.3170    0.5260 C   0  0  0  0  0  0  0  0  0  0  0  0
   -3.6090    1.0540    1.3550 O   0  0  0  0  0  0  0  0  0  0  0  0
   -1.3940    0.4820    0.6090 C   0  0  0  0  0  0  0  0  0  0  0  0
    3.9090    0.1490    0.0410 C   0  0  0  0  0  0  0  0  0  0  0  0
  1  2  1  0
  2  3  2  0
  2 22  1  0
  3  4  1  0
  4  5  2  0
  5  6  1  0
  6  7  1  0
  6 22  2  0
  7  8  2  0
  7  9  1  0
  9 10  1  0
 10 11  2  0
 10 21  1  0
 11 12  1  0
 12 13  2  0
 13 14  1  0
 13 19  1  0
 14 15  2  0
 14 18  1  0
 15 16  1  0
 16 17  2  0
 17 18  1  0
 19 20  1  0
 19 21  2  0
M  END
