
     RDKit          3D

 22 24  0  0  0  0  0  0  0  0999 V2000
    7.5490    0.3010   -0.0110 C   0  0  0  0  0  0  0  0  0  0  0  0
    6.2640    0.8480   -0.0230 O   0  0  0  0  0  0  0  0  0  0  0  0
    5.1340    0.0070   -0.0010 C   0  0  0  0  0  0  0  0  0  0  0  0
    5.2770   -1.3480    0.0320 C   0  0  0  0  0  0  0  0  0  0  0  0
    4.1460   -2.1190    0.0530 C   0  0  0  0  0  0  0  0  0  0  0  0
    2.8580   -1.5560    0.0400 C   0  0  0  0  0  0  0  0  0  0  0  0
    2.6970   -0.2010    0.0060 C   0  0  0  0  0  0  0  0  0  0  0  0
    1.5050    0.5290   -0.0110 N   0  0  0  0  0  0  0  0  0  0  0  0
    0.1800   -0.0050    0.0060 C   0  0  0  0  0  0  0  0  0  0  0  0
    0.0550   -1.2280    0.0390 O   0  0  0  0  0  0  0  0  0  0  0  0
   -0.9630    0.7990   -0.0130 N   0  0  0  0  0  0  0  0  0  0  0  0
   -2.2950    0.3950    0.0010 C   0  0  0  0  0  0  0  0  0  0  0  0
   -2.7210   -0.9040    0.0370 C   0  0  0  0  0  0  0  0  0  0  0  0
   -4.0840   -1.2600    0.0490 C   0  0  0  0  0  0  0  0  0  0  0  0
   -4.4940   -2.6940    0.0890 C   0  0  0  0  0  0  0  0  0  0  0  0
   -5.0430   -0.2800    0.0250 C   0  0  0  0  0  0  0  0  0  0  0  0
   -4.6520    1.0300   -0.0110 C   0  0  0  0  0  0  0  0  0  0  0  0
   -3.3330    1.3410   -0.0220 C   0  0  0  0  0  0  0  0  0  0  0  0
   -3.2510    2.8200   -0.0640 C   0  0  0  0  0  0  0  0  0  0  0  0
   -4.4840    3.2710    0.3630 O   0  0  0  0  0  0  0  0  0  0  0  0
   -5.4200    2.3220   -0.0430 C   0  0  0  0  0  0  0  0  0  0  0  0
    3.8770    0.5590   -0.0140 C   0  0  0  0  0  0  0  0  0  0  0  0
  1  2  1  0
  2  3  1  0
  3  4  2  0
  3 22  1  0
  4  5  1  0
  5  6  2  0
  6  7  1  0
  7  8  1  0
  7 22  2  0
  8  9  1  0
  9 10  2  0
  9 11  1  0
 11 12  1  0
 12 13  2  0
 12 18  1  0
 13 14  1  0
 14 15  1  0
 14 16  2  0
 16 17  1  0
 17 18  2  0
 17 21  1  0
 18 19  1  0
 19 20  1  0
 20 21  1  0
M  END
