
     RDKit          3D

 22 23  0  0  0  0  0  0  0  0999 V2000
    5.6000    1.5680    1.4040 C   0  0  0  0  0  0  0  0  0  0  0  0
    4.5920    0.9840    0.7640 C   0  0  0  0  0  0  0  0  0  0  0  0
    3.5460    1.7950    0.2000 C   0  0  0  0  0  0  0  0  0  0  0  0
    2.5050    1.3370   -0.4520 C   0  0  0  0  0  0  0  0  0  0  0  0
    2.4270   -0.1230   -0.6040 C   0  0  0  0  0  0  0  0  0  0  0  0
    1.3480   -0.9140   -0.6070 C   0  0  0  0  0  0  0  0  0  0  0  0
    1.5890   -2.2430   -0.7720 O   0  0  0  0  0  0  0  0  0  0  0  0
    2.8960   -2.7380   -0.8830 C   0  0  0  0  0  0  0  0  0  0  0  0
   -0.0380   -0.5180   -0.4570 C   0  0  0  0  0  0  0  0  0  0  0  0
   -0.5120    0.7800   -0.4430 C   0  0  0  0  0  0  0  0  0  0  0  0
   -1.8620    1.0160   -0.3080 C   0  0  0  0  0  0  0  0  0  0  0  0
   -2.7320   -0.0180   -0.1880 C   0  0  0  0  0  0  0  0  0  0  0  0
   -4.1230    0.1450   -0.0470 N   0  0  0  0  0  0  0  0  0  0  0  0
   -4.8110    1.3530   -0.0080 C   0  0  0  0  0  0  0  0  0  0  0  0
   -6.3190    1.4010    0.1490 C   0  0  0  0  0  0  0  0  0  0  0  0
   -4.2280    2.4470   -0.0990 O   0  0  0  0  0  0  0  0  0  0  0  0
   -2.2250   -1.3290   -0.2040 C   0  0  0  0  0  0  0  0  0  0  0  0
   -3.1410   -2.3180   -0.0820 O   0  0  0  0  0  0  0  0  0  0  0  0
   -0.8650   -1.6150   -0.3390 C   0  0  0  0  0  0  0  0  0  0  0  0
   -0.3640   -3.0060   -0.3350 C   0  0  0  0  0  0  0  0  0  0  0  0
    0.1730    2.0480   -0.5370 N   0  0  0  0  0  0  0  0  0  0  0  0
    1.5090    2.3180   -0.9760 C   0  0  0  0  0  0  0  0  0  0  0  0
  1  2  2  0
  2  3  1  0
  3  4  2  3
  4  5  1  0
  4 22  1  0
  5  6  2  0
  6  7  1  0
  6  9  1  0
  7  8  1  0
  9 10  2  0
  9 19  1  0
 10 11  1  0
 10 21  1  0
 11 12  2  0
 12 13  1  0
 12 17  1  0
 13 14  1  0
 14 15  1  0
 14 16  2  0
 17 18  1  0
 17 19  2  0
 19 20  1  0
 21 22  1  0
M  END
