
     RDKit          3D

 22 24  0  0  0  0  0  0  0  0999 V2000
    7.4510    0.9120   -0.2730 C   0  0  0  0  0  0  0  0  0  0  0  0
    6.4690    1.2810    0.6750 O   0  0  0  0  0  0  0  0  0  0  0  0
    5.1480    0.9410    0.4100 C   0  0  0  0  0  0  0  0  0  0  0  0
    4.7940    0.2670   -0.7380 C   0  0  0  0  0  0  0  0  0  0  0  0
    3.4880   -0.0640   -0.9910 C   0  0  0  0  0  0  0  0  0  0  0  0
    2.4330    0.2610   -0.1040 C   0  0  0  0  0  0  0  0  0  0  0  0
    1.1610   -0.1410   -0.4870 N   0  0  0  0  0  0  0  0  0  0  0  0
   -0.0610    0.1500    0.1860 C   0  0  0  0  0  0  0  0  0  0  0  0
    0.0040    0.8260    1.2090 O   0  0  0  0  0  0  0  0  0  0  0  0
   -1.3000   -0.3530   -0.3540 N   0  0  0  0  0  0  0  0  0  0  0  0
   -2.5510   -0.1240    0.2280 C   0  0  0  0  0  0  0  0  0  0  0  0
   -2.7400    0.6050    1.3740 C   0  0  0  0  0  0  0  0  0  0  0  0
   -4.0060    0.8240    1.9430 C   0  0  0  0  0  0  0  0  0  0  0  0
   -5.1030    0.3030    1.3520 C   0  0  0  0  0  0  0  0  0  0  0  0
   -4.9470   -0.4320    0.2030 C   0  0  0  0  0  0  0  0  0  0  0  0
   -3.6920   -0.6560   -0.3710 C   0  0  0  0  0  0  0  0  0  0  0  0
   -3.6090   -1.3690   -1.4730 C   0  0  0  0  0  0  0  0  0  0  0  0
   -4.7990   -1.9580   -2.1500 C   0  0  0  0  0  0  0  0  0  0  0  0
   -5.9750   -1.6650   -1.4860 O   0  0  0  0  0  0  0  0  0  0  0  0
   -6.0560   -0.9210   -0.3370 C   0  0  0  0  0  0  0  0  0  0  0  0
    2.8130    0.9240    1.0170 C   0  0  0  0  0  0  0  0  0  0  0  0
    4.1240    1.2590    1.2750 C   0  0  0  0  0  0  0  0  0  0  0  0
  1  2  1  0
  2  3  1  0
  3  4  2  0
  3 22  1  0
  4  5  1  0
  5  6  2  0
  6  7  1  0
  6 21  1  0
  7  8  1  0
  8  9  2  0
  8 10  1  0
 10 11  1  0
 11 12  2  0
 11 16  1  0
 12 13  1  0
 13 14  2  0
 14 15  1  0
 15 16  1  0
 15 20  2  0
 16 17  2  0
 17 18  1  0
 18 19  1  0
 19 20  1  0
 21 22  2  0
M  END
