
     RDKit          3D

 22 24  0  0  0  0  0  0  0  0999 V2000
   -4.6050   -1.3710    1.6890 C   0  0  0  0  0  0  0  0  0  0  0  0
   -3.3720   -0.9920    0.8220 C   0  0  0  0  0  0  0  0  0  0  0  0
   -3.6740    0.2460    0.1130 C   0  0  0  0  0  0  0  0  0  0  0  0
   -5.0200    0.6150   -0.0310 C   0  0  0  0  0  0  0  0  0  0  0  0
   -5.4000    1.7850   -0.6510 C   0  0  0  0  0  0  0  0  0  0  0  0
   -4.4340    2.5440   -1.1030 O   0  0  0  0  0  0  0  0  0  0  0  0
   -3.1720    2.2470   -0.9940 C   0  0  0  0  0  0  0  0  0  0  0  0
   -2.3440    3.0670   -1.4700 O   0  0  0  0  0  0  0  0  0  0  0  0
   -2.7020    1.0610   -0.3720 C   0  0  0  0  0  0  0  0  0  0  0  0
   -1.2780    0.8120   -0.3650 C   0  0  0  0  0  0  0  0  0  0  0  0
   -0.5580    1.8750   -0.4930 O   0  0  0  0  0  0  0  0  0  0  0  0
   -0.5690   -0.3690   -0.2490 N   0  0  0  0  0  0  0  0  0  0  0  0
    0.8370   -0.5420   -0.2370 C   0  0  0  0  0  0  0  0  0  0  0  0
    1.3540   -1.8380   -0.3880 C   0  0  0  0  0  0  0  0  0  0  0  0
    2.6970   -2.1160   -0.3850 C   0  0  0  0  0  0  0  0  0  0  0  0
    3.6110   -1.0880   -0.2260 C   0  0  0  0  0  0  0  0  0  0  0  0
    4.9640   -0.9990   -0.1770 N   0  0  0  0  0  0  0  0  0  0  0  0
    5.3610    0.2690   -0.0030 C   0  0  0  0  0  0  0  0  0  0  0  0
    6.7490    0.8150    0.0960 C   0  0  0  0  0  0  0  0  0  0  0  0
    4.2010    1.0340    0.0640 C   0  0  0  0  0  0  0  0  0  0  0  0
    3.1310    0.1830   -0.0760 C   0  0  0  0  0  0  0  0  0  0  0  0
    1.7580    0.4420   -0.0820 C   0  0  0  0  0  0  0  0  0  0  0  0
  1  2  1  0
  2  3  1  0
  3  4  1  0
  3  9  2  0
  4  5  2  0
  5  6  1  0
  6  7  1  0
  7  8  2  0
  7  9  1  0
  9 10  1  0
 10 11  2  0
 10 12  1  0
 12 13  1  0
 13 14  2  0
 13 22  1  0
 14 15  1  0
 15 16  2  0
 16 17  1  0
 16 21  1  0
 17 18  1  0
 18 19  1  0
 18 20  2  0
 20 21  1  0
 21 22  2  0
M  END
