
     RDKit          3D

 20 21  0  0  0  0  0  0  0  0999 V2000
    5.0890    0.0850   -0.3700 C   0  0  0  0  0  0  0  0  0  0  0  0
    4.2400    0.2400    0.8470 C   0  0  1  0  0  0  0  0  0  0  0  0
    4.0570    1.5800    1.2230 O   0  0  0  0  0  0  0  0  0  0  0  0
    2.9930    2.0480    0.4780 C   0  0  2  0  0  0  0  0  0  0  0  0
    2.4170    3.1580    1.0860 O   0  0  0  0  0  0  0  0  0  0  0  0
    2.0760    0.8980    0.4230 C   0  0  0  0  0  0  0  0  0  0  0  0
    0.6960    0.8090    0.1970 C   0  0  0  0  0  0  0  0  0  0  0  0
    0.0710   -0.4140    0.1940 C   0  0  0  0  0  0  0  0  0  0  0  0
   -1.3570   -0.5490   -0.0350 C   0  0  0  0  0  0  0  0  0  0  0  0
   -1.9870   -1.6310   -0.0480 O   0  0  0  0  0  0  0  0  0  0  0  0
   -2.1270    0.5950   -0.2630 O   0  0  0  0  0  0  0  0  0  0  0  0
   -3.5250    0.5260   -0.4920 C   0  0  1  0  0  0  0  0  0  0  0  0
   -4.0010    1.9660   -0.6960 C   0  0  0  0  0  0  0  0  0  0  0  0
   -3.8680   -0.2340   -1.7410 C   0  0  0  0  0  0  0  0  0  0  0  0
   -4.2790   -0.0030    0.7030 C   0  0  0  0  0  0  0  0  0  0  0  0
    0.8290   -1.5290    0.4150 C   0  0  0  0  0  0  0  0  0  0  0  0
    0.1650   -2.8440    0.4110 C   0  0  0  0  0  0  0  0  0  0  0  0
    1.1360   -3.8160    0.6570 O   0  0  0  0  0  0  0  0  0  0  0  0
    2.2050   -1.4470    0.6400 C   0  0  0  0  0  0  0  0  0  0  0  0
    2.8370   -0.2270    0.6450 C   0  0  0  0  0  0  0  0  0  0  0  0
  2  1  1  6
  2  3  1  0
  2 20  1  0
  3  4  1  0
  4  5  1  1
  4  6  1  0
  6  7  2  0
  6 20  1  0
  7  8  1  0
  8  9  1  0
  8 16  2  0
  9 10  2  0
  9 11  1  0
 11 12  1  0
 12 13  1  6
 12 14  1  0
 12 15  1  0
 16 17  1  0
 16 19  1  0
 17 18  1  0
 19 20  2  0
M  END
