
     RDKit          3D

 20 20  0  0  0  0  0  0  0  0999 V2000
    6.2290   -1.3500   -0.4250 C   0  0  0  0  0  0  0  0  0  0  0  0
    5.8320   -0.2500    0.1680 C   0  0  0  0  0  0  0  0  0  0  0  0
    6.6120    0.7420    0.7660 O   0  0  0  0  0  0  0  0  0  0  0  0
    5.7820    1.7890    1.1920 C   0  0  0  0  0  0  0  0  0  0  0  0
    4.4640    1.3730    1.0020 O   0  0  0  0  0  0  0  0  0  0  0  0
    4.4390    0.1520    0.3170 C   0  0  0  0  0  0  0  0  0  0  0  0
    3.3660   -0.4890   -0.1010 C   0  0  0  0  0  0  0  0  0  0  0  0
    2.0330    0.1040    0.1580 C   0  0  0  0  0  0  0  0  0  0  0  0
    0.9580   -0.5090   -0.2450 C   0  0  0  0  0  0  0  0  0  0  0  0
   -0.4460   -0.0470   -0.0630 C   0  0  0  0  0  0  0  0  0  0  0  0
   -0.6070    1.2060    0.6550 C   0  0  0  0  0  0  0  0  0  0  0  0
   -1.3440   -0.8470   -0.5650 C   0  0  0  0  0  0  0  0  0  0  0  0
   -2.7500   -0.9520   -0.7050 C   0  0  0  0  0  0  0  0  0  0  0  0
   -3.1680   -2.1320   -1.3810 C   0  0  0  0  0  0  0  0  0  0  0  0
   -2.2260   -3.0220   -1.8170 O   0  0  0  0  0  0  0  0  0  0  0  0
   -3.8220   -0.1220   -0.3180 C   0  0  0  0  0  0  0  0  0  0  0  0
   -5.1100   -0.6960   -0.7070 O   0  0  0  0  0  0  0  0  0  0  0  0
   -3.9610    0.9970    0.2830 C   0  0  0  0  0  0  0  0  0  0  0  0
   -5.3540    1.6090    0.5340 C   0  0  0  0  0  0  0  0  0  0  0  0
   -6.3540    0.8070    0.0390 O   0  0  0  0  0  0  0  0  0  0  0  0
  1  2  2  0
  2  3  1  0
  2  6  1  0
  3  4  1  0
  4  5  1  0
  5  6  1  0
  6  7  2  3
  7  8  1  0
  8  9  2  3
  9 10  1  0
 10 11  1  0
 10 12  2  3
 12 13  1  0
 13 14  2  3
 13 16  1  0
 14 15  1  0
 16 17  1  0
 16 18  2  3
 18 19  1  0
 19 20  1  0
M  END
