
     RDKit          3D

 20 22  0  0  0  0  0  0  0  0999 V2000
    3.0920    2.8690    1.2860 C   0  0  0  0  0  0  0  0  0  0  0  0
    3.2800    1.4870    1.1020 O   0  0  0  0  0  0  0  0  0  0  0  0
    2.2230    0.7200    0.6320 C   0  0  0  0  0  0  0  0  0  0  0  0
    0.9740    1.2360    0.3300 C   0  0  0  0  0  0  0  0  0  0  0  0
   -0.0310    0.4440   -0.1270 C   0  0  0  0  0  0  0  0  0  0  0  0
    0.1580   -0.9260   -0.3110 C   0  0  0  0  0  0  0  0  0  0  0  0
    1.3970   -1.4690   -0.0150 C   0  0  0  0  0  0  0  0  0  0  0  0
    2.3850   -0.6490    0.4410 C   0  0  0  0  0  0  0  0  0  0  0  0
    3.6270   -1.2090    0.7330 O   0  0  0  0  0  0  0  0  0  0  0  0
    1.5990   -2.9400   -0.1990 C   0  0  0  0  0  0  0  0  0  0  0  0
    0.2280   -3.5540    0.0050 C   0  0  0  0  0  0  0  0  0  0  0  0
   -0.7050   -3.0530   -0.8480 O   0  0  0  0  0  0  0  0  0  0  0  0
   -0.9780   -1.7280   -0.8210 C   0  0  1  0  0  0  0  0  0  0  0  0
   -2.2090   -1.3670   -0.0330 C   0  0  0  0  0  0  0  0  0  0  0  0
   -2.3320    0.0680    0.3370 C   0  0  0  0  0  0  0  0  0  0  0  0
   -1.3960    0.9690   -0.4550 C   0  0  2  0  0  0  0  0  0  0  0  0
   -1.5970    0.8540   -1.8020 O   0  0  0  0  0  0  0  0  0  0  0  0
   -1.5700    2.3750    0.0420 C   0  0  0  0  0  0  0  0  0  0  0  0
   -2.9160    2.8750   -0.3130 C   0  0  0  0  0  0  0  0  0  0  0  0
   -3.6850    2.2120   -0.9750 O   0  0  0  0  0  0  0  0  0  0  0  0
  1  2  1  0
  2  3  1  0
  3  4  2  0
  3  8  1  0
  4  5  1  0
  5  6  2  0
  5 16  1  0
  6  7  1  0
  6 13  1  0
  7  8  2  0
  7 10  1  0
  8  9  1  0
 10 11  1  0
 11 12  1  0
 12 13  1  0
 13 14  1  1
 14 15  1  0
 15 16  1  0
 16 17  1  6
 16 18  1  0
 18 19  1  0
 19 20  2  0
M  END
