
     RDKit          3D

 20 22  0  0  0  0  0  0  0  0999 V2000
   -0.5620   -2.3240    0.0350 O   0  0  0  0  0  0  0  0  0  0  0  0
   -0.6490   -0.9590   -0.2050 C   0  0  0  0  0  0  0  0  0  0  0  0
   -1.9560   -0.4740   -0.4800 C   0  0  0  0  0  0  0  0  0  0  0  0
   -3.0000   -1.3140   -0.4930 O   0  0  0  0  0  0  0  0  0  0  0  0
   -4.3170   -1.4010   -0.6450 C   0  0  0  0  0  0  0  0  0  0  0  0
   -5.2520   -0.7420    0.3150 C   0  0  2  0  0  0  0  0  0  0  0  0
   -5.1360    0.6200    0.4070 O   0  0  0  0  0  0  0  0  0  0  0  0
   -5.1290   -1.2500    1.6090 O   0  0  0  0  0  0  0  0  0  0  0  0
   -2.0890    0.8660   -0.7230 C   0  0  0  0  0  0  0  0  0  0  0  0
   -0.9750    1.6880   -0.6920 C   0  0  0  0  0  0  0  0  0  0  0  0
    0.3030    1.1850   -0.4180 C   0  0  0  0  0  0  0  0  0  0  0  0
    0.4600   -0.1580   -0.1730 C   0  0  0  0  0  0  0  0  0  0  0  0
    1.7890   -0.7660    0.1040 C   0  0  0  0  0  0  0  0  0  0  0  0
    2.9080    0.1240   -0.4440 C   0  0  2  0  0  0  0  0  0  0  0  0
    4.2430   -0.4050   -0.1260 C   0  0  0  0  0  0  0  0  0  0  0  0
    5.1900    0.5440    0.4600 C   0  0  0  0  0  0  0  0  0  0  0  0
    4.9330    1.8030    0.7330 C   0  0  0  0  0  0  0  0  0  0  0  0
    3.5980    2.2860    0.4210 C   0  0  0  0  0  0  0  0  0  0  0  0
    2.6950    1.5120   -0.1080 C   0  0  0  0  0  0  0  0  0  0  0  0
    1.3990    2.0230   -0.3900 O   0  0  0  0  0  0  0  0  0  0  0  0
  1  2  1  0
  2  3  2  0
  2 12  1  0
  3  4  1  0
  3  9  1  0
  4  5  1  0
  5  6  1  0
  6  7  1  1
  6  8  1  0
  9 10  2  0
 10 11  1  0
 11 12  2  0
 11 20  1  0
 12 13  1  0
 14 13  1  1
 14 15  1  0
 14 19  1  0
 15 16  1  0
 16 17  2  0
 17 18  1  0
 18 19  2  0
 19 20  1  0
M  END
