
     RDKit          3D

 27 29  0  0  0  0  0  0  0  0999 V2000
   -4.1750   -5.1320    0.6120 C   0  0  0  0  0  0  0  0  0  0  0  0
   -3.7320   -3.7140    0.3330 C   0  0  0  0  0  0  0  0  0  0  0  0
   -2.2980   -3.5600    0.4810 N   0  0  0  0  0  0  0  0  0  0  0  0
   -1.7270   -2.2900    0.2530 C   0  0  0  0  0  0  0  0  0  0  0  0
   -2.4620   -1.3360   -0.0680 O   0  0  0  0  0  0  0  0  0  0  0  0
   -0.3000   -2.0730    0.3840 C   0  0  0  0  0  0  0  0  0  0  0  0
    0.6550   -2.9880    0.7260 N   0  0  0  0  0  0  0  0  0  0  0  0
    1.8240   -2.4260    0.7410 O   0  0  0  0  0  0  0  0  0  0  0  0
    1.7390   -1.1610    0.4280 C   0  0  0  0  0  0  0  0  0  0  0  0
    2.7820   -0.1470    0.3190 C   0  0  0  0  0  0  0  0  0  0  0  0
    2.7810    0.9600    1.1510 C   0  0  0  0  0  0  0  0  0  0  0  0
    3.7810    1.9300    1.0430 C   0  0  0  0  0  0  0  0  0  0  0  0
    3.7880    3.3390    2.0950 Cl  0  0  0  0  0  0  0  0  0  0  0  0
    4.7920    1.8200    0.1160 C   0  0  0  0  0  0  0  0  0  0  0  0
    5.7760    2.7960    0.0260 O   0  0  0  0  0  0  0  0  0  0  0  0
    4.7950    0.7250   -0.7100 C   0  0  0  0  0  0  0  0  0  0  0  0
    3.8070   -0.2280   -0.5990 C   0  0  0  0  0  0  0  0  0  0  0  0
    3.8630   -1.3080   -1.4570 O   0  0  0  0  0  0  0  0  0  0  0  0
    0.4030   -0.9020    0.1950 C   0  0  0  0  0  0  0  0  0  0  0  0
   -0.1560    0.3980   -0.1880 C   0  0  0  0  0  0  0  0  0  0  0  0
    0.1970    1.0150   -1.3790 C   0  0  0  0  0  0  0  0  0  0  0  0
   -0.3470    2.2420   -1.7130 C   0  0  0  0  0  0  0  0  0  0  0  0
   -1.2450    2.8900   -0.8940 C   0  0  0  0  0  0  0  0  0  0  0  0
   -1.7970    4.1160   -1.2140 O   0  0  0  0  0  0  0  0  0  0  0  0
   -2.7110    4.7860   -0.3900 C   0  0  0  0  0  0  0  0  0  0  0  0
   -1.6060    2.2960    0.2870 C   0  0  0  0  0  0  0  0  0  0  0  0
   -1.0560    1.0610    0.6190 C   0  0  0  0  0  0  0  0  0  0  0  0
  1  2  1  0
  2  3  1  0
  3  4  1  0
  4  5  2  0
  4  6  1  0
  6  7  2  0
  6 19  1  0
  7  8  1  0
  8  9  1  0
  9 10  1  0
  9 19  2  0
 10 11  2  0
 10 17  1  0
 11 12  1  0
 12 13  1  0
 12 14  2  0
 14 15  1  0
 14 16  1  0
 16 17  2  0
 17 18  1  0
 19 20  1  0
 20 21  2  0
 20 27  1  0
 21 22  1  0
 22 23  2  0
 23 24  1  0
 23 26  1  0
 24 25  1  0
 26 27  2  0
M  END
