
     RDKit          3D

 24 25  0  0  0  0  0  0  0  0999 V2000
   -5.8990   -2.0230   -1.0730 C   0  0  0  0  0  0  0  0  0  0  0  0
   -5.4100   -1.4360    0.2280 C   0  0  0  0  0  0  0  0  0  0  0  0
   -5.0440    0.0010    0.0690 C   0  0  0  0  0  0  0  0  0  0  0  0
   -3.7410    0.3590   -0.0030 N   0  0  0  0  0  0  0  0  0  0  0  0
   -3.2990    1.6110   -0.1460 C   0  0  0  0  0  0  0  0  0  0  0  0
   -1.9590    2.0230   -0.2220 N   0  0  0  0  0  0  0  0  0  0  0  0
   -0.8010    1.2050   -0.1670 C   0  0  0  0  0  0  0  0  0  0  0  0
   -0.9620   -0.0150   -0.0430 O   0  0  0  0  0  0  0  0  0  0  0  0
    0.5050    1.7740   -0.2510 N   0  0  0  0  0  0  0  0  0  0  0  0
    1.7000    1.0410   -0.2030 C   0  0  0  0  0  0  0  0  0  0  0  0
    2.8840    1.7630   -0.4600 C   0  0  0  0  0  0  0  0  0  0  0  0
    4.1100    1.1240   -0.4220 C   0  0  0  0  0  0  0  0  0  0  0  0
    4.1590   -0.1810   -0.1400 C   0  0  0  0  0  0  0  0  0  0  0  0
    5.7230   -1.0260   -0.0580 S   0  0  0  0  0  0  0  0  0  0  0  0
    5.7010   -2.6260    0.2590 C   0  0  0  0  0  0  0  0  0  0  0  0
    5.7720   -0.5690    1.5420 C   0  0  0  0  0  0  0  0  0  0  0  0
    5.6360   -1.0980   -1.4880 O   0  0  0  0  0  0  0  0  0  0  0  0
    3.0740   -0.9200    0.1120 C   0  0  0  0  0  0  0  0  0  0  0  0
    1.8240   -0.2970    0.0800 C   0  0  0  0  0  0  0  0  0  0  0  0
   -4.2950    2.5990   -0.2230 C   0  0  0  0  0  0  0  0  0  0  0  0
   -5.6210    2.2830   -0.1550 C   0  0  0  0  0  0  0  0  0  0  0  0
   -6.4870    3.1780   -0.2260 O   0  0  0  0  0  0  0  0  0  0  0  0
   -6.0070    0.9690   -0.0070 C   0  0  0  0  0  0  0  0  0  0  0  0
   -7.6930    0.5010    0.0860 Cl  0  0  0  0  0  0  0  0  0  0  0  0
  1  2  1  0
  2  3  1  0
  3  4  1  0
  3 23  2  0
  4  5  1  0
  5  6  1  0
  5 20  2  0
  6  7  1  0
  7  8  2  0
  7  9  1  0
  9 10  1  0
 10 11  2  0
 10 19  1  0
 11 12  1  0
 12 13  2  0
 13 14  1  0
 13 18  1  0
 14 15  1  0
 14 16  1  0
 14 17  2  0
 18 19  2  0
 20 21  1  0
 21 22  2  0
 21 23  1  0
 23 24  1  0
M  END
