
     RDKit          3D

 23 25  0  0  0  0  0  0  0  0999 V2000
   -6.8880    1.2310    0.5340 C   0  0  0  0  0  0  0  0  0  0  0  0
   -6.9480    0.9100   -0.9140 C   0  0  0  0  0  0  0  0  0  0  0  0
   -8.0670    1.0740   -1.5060 O   0  0  0  0  0  0  0  0  0  0  0  0
   -5.8370    0.4360   -1.6580 C   0  0  0  0  0  0  0  0  0  0  0  0
   -4.6310    0.2290   -1.1850 C   0  0  0  0  0  0  0  0  0  0  0  0
   -4.0290    0.3760    0.0830 N   0  0  0  0  0  0  0  0  0  0  0  0
   -3.1090   -0.6300    0.4050 C   0  0  0  0  0  0  0  0  0  0  0  0
   -2.8840   -1.0790    1.5890 O   0  0  0  0  0  0  0  0  0  0  0  0
   -2.3670   -1.1830   -0.7350 C   0  0  2  0  0  0  0  0  0  0  0  0
   -0.9220   -0.8160   -0.7430 C   0  0  0  0  0  0  0  0  0  0  0  0
   -0.4130   -0.1720   -1.6940 O   0  0  0  0  0  0  0  0  0  0  0  0
   -0.1150   -1.2000    0.3380 N   0  0  0  0  0  0  0  0  0  0  0  0
    1.2670   -0.9440    0.5050 C   0  0  0  0  0  0  0  0  0  0  0  0
    1.8580   -1.4320    1.6720 C   0  0  0  0  0  0  0  0  0  0  0  0
    3.2050   -1.2440    1.9450 C   0  0  0  0  0  0  0  0  0  0  0  0
    3.9980   -0.5590    1.0530 C   0  0  0  0  0  0  0  0  0  0  0  0
    3.4440   -0.0730   -0.0920 C   0  0  0  0  0  0  0  0  0  0  0  0
    2.0980   -0.2790   -0.3320 C   0  0  0  0  0  0  0  0  0  0  0  0
    4.2790    0.6650   -1.0660 C   0  0  0  0  0  0  0  0  0  0  0  0
    5.7400    0.3070   -0.8990 C   0  0  0  0  0  0  0  0  0  0  0  0
    6.1840    0.5290    0.5350 C   0  0  0  0  0  0  0  0  0  0  0  0
    5.3740   -0.3820    1.3580 N   0  0  0  0  0  0  0  0  0  0  0  0
   -3.2190   -0.4130   -2.1660 S   0  0  0  0  0  0  0  0  0  0  0  0
  1  2  1  0
  2  3  2  0
  2  4  1  0
  4  5  2  3
  5  6  1  0
  5 23  1  0
  6  7  1  0
  7  8  2  0
  7  9  1  0
  9 10  1  1
  9 23  1  0
 10 11  2  0
 10 12  1  0
 12 13  1  0
 13 14  2  0
 13 18  1  0
 14 15  1  0
 15 16  2  0
 16 17  1  0
 16 22  1  0
 17 18  2  0
 17 19  1  0
 19 20  1  0
 20 21  1  0
 21 22  1  0
M  END
