
     RDKit          3D

 24 26  0  0  0  0  0  0  0  0999 V2000
   -2.2420   -1.3120   -2.4920 O   0  0  0  0  0  0  0  0  0  0  0  0
   -1.2880   -1.0650   -1.7320 C   0  0  0  0  0  0  0  0  0  0  0  0
    0.0760   -1.4590   -2.2020 C   0  0  0  0  0  0  0  0  0  0  0  0
    1.0940   -1.1150   -1.2240 N   0  0  0  0  0  0  0  0  0  0  0  0
    1.4710   -1.9730   -0.2450 C   0  0  0  0  0  0  0  0  0  0  0  0
    0.7210   -3.4350   -0.2100 S   0  0  0  0  0  0  0  0  0  0  0  0
    2.4140   -1.6560    0.6620 N   0  0  0  0  0  0  0  0  0  0  0  0
    3.0440   -0.4650    0.6550 C   0  0  0  0  0  0  0  0  0  0  0  0
    4.0180   -0.1310    1.5880 C   0  0  0  0  0  0  0  0  0  0  0  0
    4.6560    1.0930    1.5700 C   0  0  0  0  0  0  0  0  0  0  0  0
    4.2960    1.9890    0.5870 C   0  0  0  0  0  0  0  0  0  0  0  0
    5.0430    3.5660    0.4760 Cl  0  0  0  0  0  0  0  0  0  0  0  0
    3.3320    1.6580   -0.3350 C   0  0  0  0  0  0  0  0  0  0  0  0
    2.6840    0.4350   -0.3300 C   0  0  0  0  0  0  0  0  0  0  0  0
    1.7190    0.0850   -1.2410 C   0  0  0  0  0  0  0  0  0  0  0  0
    1.3960    0.9110   -2.1360 O   0  0  0  0  0  0  0  0  0  0  0  0
   -1.5060   -0.4390   -0.4860 N   0  0  0  0  0  0  0  0  0  0  0  0
   -2.7270   -0.0290    0.0530 C   0  0  0  0  0  0  0  0  0  0  0  0
   -3.9290   -0.1700   -0.5490 C   0  0  0  0  0  0  0  0  0  0  0  0
   -5.1240    0.2680    0.0550 C   0  0  0  0  0  0  0  0  0  0  0  0
   -5.0920    0.8590    1.2940 C   0  0  0  0  0  0  0  0  0  0  0  0
   -3.8700    1.0020    1.9050 C   0  0  0  0  0  0  0  0  0  0  0  0
   -2.6940    0.5740    1.3170 C   0  0  0  0  0  0  0  0  0  0  0  0
   -1.4810    0.7300    1.9540 O   0  0  0  0  0  0  0  0  0  0  0  0
  1  2  2  0
  2  3  1  0
  2 17  1  0
  3  4  1  0
  4  5  1  0
  4 15  1  0
  5  6  2  0
  5  7  1  0
  7  8  1  0
  8  9  2  0
  8 14  1  0
  9 10  1  0
 10 11  2  0
 11 12  1  0
 11 13  1  0
 13 14  2  0
 14 15  1  0
 15 16  2  0
 17 18  1  0
 18 19  2  0
 18 23  1  0
 19 20  1  0
 20 21  2  0
 21 22  1  0
 22 23  2  0
 23 24  1  0
M  END
