
     RDKit          3D

 15 14  0  0  0  0  0  0  0  0999 V2000
   -4.3740    0.2390   -1.0020 C   0  0  0  0  0  0  0  0  0  0  0  0
   -2.9080   -0.0480   -1.1580 C   0  0  0  0  0  0  0  0  0  0  0  0
   -2.1410   -0.0690    0.1380 C   0  0  2  0  0  0  0  0  0  0  0  0
   -0.7610   -0.3530   -0.1880 N   0  0  0  0  0  0  0  0  0  0  0  0
    0.2350    0.6070    0.0630 C   0  0  0  0  0  0  0  0  0  0  0  0
   -0.0220    1.7400    0.5750 O   0  0  0  0  0  0  0  0  0  0  0  0
    1.6140    0.3140   -0.2670 C   0  0  0  0  0  0  0  0  0  0  0  0
    1.8950   -0.7980   -0.7740 O   0  0  0  0  0  0  0  0  0  0  0  0
    2.6290    1.2700   -0.0210 N   0  0  0  0  0  0  0  0  0  0  0  0
    4.0260    1.0200   -0.3360 C   0  0  0  0  0  0  0  0  0  0  0  0
    4.5740   -0.1770    0.4120 C   0  0  0  0  0  0  0  0  0  0  0  0
    5.9680   -0.3130    0.0090 N   0  0  0  0  0  0  0  0  0  0  0  0
   -2.6220   -1.0140    1.1390 C   0  0  0  0  0  0  0  0  0  0  0  0
   -3.9040   -1.0410    1.7240 N   0  0  0  0  0  0  0  0  0  0  0  0
   -1.8320   -1.8900    1.5270 O   0  0  0  0  0  0  0  0  0  0  0  0
  1  2  1  0
  3  2  1  6
  3  4  1  0
  3 13  1  0
  4  5  1  0
  5  6  2  0
  5  7  1  0
  7  8  2  0
  7  9  1  0
  9 10  1  0
 10 11  1  0
 11 12  1  0
 13 14  1  0
 13 15  2  0
M  CHG  1  14   1
M  END
