
     RDKit          3D

 15 14  0  0  0  0  0  0  0  0999 V2000
   -5.3860    0.6380   -0.2920 N   0  0  0  0  0  0  0  0  0  0  0  0
   -3.9550    0.4770   -0.5990 C   0  0  0  0  0  0  0  0  0  0  0  0
   -3.5210   -0.7670    0.0790 C   0  0  0  0  0  0  0  0  0  0  0  0
   -2.0340   -1.1060   -0.1470 C   0  0  1  0  0  0  0  0  0  0  0  0
   -1.9040   -1.2390   -1.5680 N   0  0  0  0  0  0  0  0  0  0  0  0
   -1.2090   -0.1370    0.5720 C   0  0  0  0  0  0  0  0  0  0  0  0
    0.1890   -0.1980    0.5760 N   0  0  0  0  0  0  0  0  0  0  0  0
    1.0350   -0.0470   -0.5290 C   0  0  0  0  0  0  0  0  0  0  0  0
    0.5470    0.1780   -1.6530 O   0  0  0  0  0  0  0  0  0  0  0  0
    2.4850   -0.1510   -0.3830 N   0  0  0  0  0  0  0  0  0  0  0  0
    3.2370    0.4210   -1.2810 C   0  0  0  0  0  0  0  0  0  0  0  0
    4.6140    0.3450   -1.1760 O   0  0  0  0  0  0  0  0  0  0  0  0
    5.1930    0.1260    0.0970 C   0  0  0  0  0  0  0  0  0  0  0  0
    4.7740    1.2850    1.0060 C   0  0  0  0  0  0  0  0  0  0  0  0
    5.3280    1.1040    2.2790 O   0  0  0  0  0  0  0  0  0  0  0  0
  1  2  1  0
  2  3  1  0
  3  4  1  0
  4  5  1  6
  4  6  1  0
  6  7  1  0
  7  8  1  0
  8  9  2  0
  8 10  1  0
 10 11  2  3
 11 12  1  0
 12 13  1  0
 13 14  1  0
 14 15  1  0
M  CHG  1   5   1
M  END
