
     RDKit          3D

 14 13  0  0  0  0  0  0  0  0999 V2000
   -1.9640   -0.5380    2.2770 C   0  0  0  0  0  0  0  0  0  0  0  0
   -0.9090   -0.8950    1.3930 N   0  0  0  0  0  0  0  0  0  0  0  0
   -0.5690    0.0790    0.4090 C   0  0  2  0  0  0  0  0  0  0  0  0
   -0.3180    1.4130    1.0800 C   0  0  0  0  0  0  0  0  0  0  0  0
   -1.5490    0.1850   -0.6910 C   0  0  0  0  0  0  0  0  0  0  0  0
   -1.4330    0.9820   -1.6530 O   0  0  0  0  0  0  0  0  0  0  0  0
   -2.6960   -0.6520   -0.6830 N   0  0  0  0  0  0  0  0  0  0  0  0
   -3.6640   -0.5920   -1.7100 N   0  0  0  0  0  0  0  0  0  0  0  0
    0.7200   -0.3350   -0.1990 C   0  0  0  0  0  0  0  0  0  0  0  0
    1.2960   -1.3830    0.1810 O   0  0  0  0  0  0  0  0  0  0  0  0
    1.3520    0.4240   -1.2230 N   0  0  0  0  0  0  0  0  0  0  0  0
    2.5930   -0.0060   -1.7840 C   0  0  0  0  0  0  0  0  0  0  0  0
    3.7090   -0.1090   -0.7560 C   0  0  0  0  0  0  0  0  0  0  0  0
    3.9560    1.1180   -0.1440 O   0  0  0  0  0  0  0  0  0  0  0  0
  1  2  1  0
  2  3  1  0
  3  4  1  1
  3  5  1  0
  3  9  1  0
  5  6  2  0
  5  7  1  0
  7  8  1  0
  9 10  2  0
  9 11  1  0
 11 12  1  0
 12 13  1  0
 13 14  1  0
M  CHG  1   2   1
M  END
