
     RDKit          3D

 29 30  0  0  0  0  0  0  0  0999 V2000
   -6.4690    2.0890    0.1980 C   0  0  0  0  0  0  0  0  0  0  0  0
   -5.2030    1.5950    0.5050 O   0  0  0  0  0  0  0  0  0  0  0  0
   -4.9170    0.5160    1.3220 C   0  0  0  0  0  0  0  0  0  0  0  0
   -5.9230   -0.1830    1.9220 C   0  0  0  0  0  0  0  0  0  0  0  0
   -5.6760   -1.2710    2.7490 C   0  0  0  0  0  0  0  0  0  0  0  0
   -4.3440   -1.5910    2.9200 C   0  0  0  0  0  0  0  0  0  0  0  0
   -3.3130   -0.8990    2.3230 C   0  0  0  0  0  0  0  0  0  0  0  0
   -3.6060    0.1700    1.5130 C   0  0  0  0  0  0  0  0  0  0  0  0
   -2.6260    0.8730    0.9120 O   0  0  0  0  0  0  0  0  0  0  0  0
   -1.9840    0.7310   -0.3200 C   0  0  2  0  0  0  0  0  0  0  0  0
   -1.0000    1.8880   -0.3550 C   0  0  0  0  0  0  0  0  0  0  0  0
   -0.1700    2.0460   -1.5490 C   0  0  0  0  0  0  0  0  0  0  0  0
    0.7850    0.9850   -1.9350 C   0  0  0  0  0  0  0  0  0  0  0  0
    1.8500    0.7600   -0.8880 C   0  0  0  0  0  0  0  0  0  0  0  0
    1.8170    1.4400    0.1100 O   0  0  0  0  0  0  0  0  0  0  0  0
    2.8990   -0.2600   -1.0820 C   0  0  0  0  0  0  0  0  0  0  0  0
    3.8790   -0.1540    0.0900 C   0  0  2  0  0  0  0  0  0  0  0  0
    4.4440    1.1450    0.0370 N   0  0  0  0  0  0  0  0  0  0  0  0
    4.7850   -1.3200    0.1500 C   0  0  0  0  0  0  0  0  0  0  0  0
    5.7280   -1.2940    1.2870 C   0  0  2  0  0  0  0  0  0  0  0  0
    6.7030   -0.1690    1.3680 C   0  0  0  0  0  0  0  0  0  0  0  0
    6.4720   -2.5700    1.2840 N   0  0  0  0  0  0  0  0  0  0  0  0
   -2.8460    0.8350   -1.5320 C   0  0  0  0  0  0  0  0  0  0  0  0
   -3.6960   -0.3330   -1.8680 C   0  0  0  0  0  0  0  0  0  0  0  0
   -2.9430   -1.6180   -1.8580 C   0  0  0  0  0  0  0  0  0  0  0  0
   -3.4690   -2.6100   -2.3970 O   0  0  0  0  0  0  0  0  0  0  0  0
   -1.6730   -1.6010   -1.2270 N   0  0  0  0  0  0  0  0  0  0  0  0
   -1.3220   -0.5960   -0.2880 C   0  0  0  0  0  0  0  0  0  0  0  0
   -0.4500   -0.8040    0.5870 O   0  0  0  0  0  0  0  0  0  0  0  0
  1  2  1  0
  2  3  1  0
  3  4  2  0
  3  8  1  0
  4  5  1  0
  5  6  2  0
  6  7  1  0
  7  8  2  0
  8  9  1  0
  9 10  1  0
 10 11  1  6
 10 23  1  0
 10 28  1  0
 11 12  1  0
 12 13  1  0
 13 14  1  0
 14 15  2  0
 14 16  1  0
 16 17  1  0
 17 18  1  6
 17 19  1  0
 19 20  1  0
 20 21  1  6
 20 22  1  0
 23 24  1  0
 24 25  1  0
 25 26  2  0
 25 27  1  0
 27 28  1  0
 28 29  2  0
M  CHG  2  18   1  22   1
M  END
