
     RDKit          3D

 29 30  0  0  0  0  0  0  0  0999 V2000
   -2.8910    4.7240    1.5380 C   0  0  0  0  0  0  0  0  0  0  0  0
   -3.6600    4.5310    0.2640 C   0  0  0  0  0  0  0  0  0  0  0  0
   -3.9110    3.0750   -0.0600 C   0  0  1  0  0  0  0  0  0  0  0  0
   -4.6290    3.0480   -1.2580 O   0  0  0  0  0  0  0  0  0  0  0  0
   -2.6500    2.3020   -0.2640 C   0  0  0  0  0  0  0  0  0  0  0  0
   -2.9740    0.9880   -0.6110 O   0  0  0  0  0  0  0  0  0  0  0  0
   -1.9800    0.0180   -0.8660 C   0  0  0  0  0  0  0  0  0  0  0  0
   -0.6620    0.4060   -0.7630 C   0  0  0  0  0  0  0  0  0  0  0  0
    0.3650   -0.4780   -0.9960 C   0  0  0  0  0  0  0  0  0  0  0  0
    1.8020   -0.1310   -0.8960 C   0  0  0  0  0  0  0  0  0  0  0  0
    2.3410   -0.4280    0.4830 C   0  0  2  0  0  0  0  0  0  0  0  0
    2.1700   -1.9060    0.7920 C   0  0  0  0  0  0  0  0  0  0  0  0
    1.5890    0.2590    1.4120 O   0  0  0  0  0  0  0  0  0  0  0  0
    3.7810   -0.0050    0.6270 C   0  0  1  0  0  0  0  0  0  0  0  0
    3.9330    1.4680    0.3330 C   0  0  0  0  0  0  0  0  0  0  0  0
    3.1840    2.2850    1.1400 O   0  0  0  0  0  0  0  0  0  0  0  0
    3.4080    3.6080    0.7720 C   0  0  0  0  0  0  0  0  0  0  0  0
    4.2470   -0.3270    2.0110 C   0  0  0  0  0  0  0  0  0  0  0  0
    5.3170   -1.3710    1.7860 C   0  0  0  0  0  0  0  0  0  0  0  0
    5.8630   -0.9560    0.4360 C   0  0  0  0  0  0  0  0  0  0  0  0
    4.6470   -0.6910   -0.3130 N   0  0  0  0  0  0  0  0  0  0  0  0
   -0.0460   -1.7730   -1.3380 C   0  0  0  0  0  0  0  0  0  0  0  0
   -1.3430   -2.1240   -1.4310 N   0  0  0  0  0  0  0  0  0  0  0  0
   -2.3330   -1.2710   -1.2060 C   0  0  0  0  0  0  0  0  0  0  0  0
   -3.7120   -1.5990   -1.3100 N   0  0  0  0  0  0  0  0  0  0  0  0
   -4.2720   -2.8660   -1.6210 C   0  0  0  0  0  0  0  0  0  0  0  0
   -4.1190   -3.9270   -0.5700 C   0  0  2  0  0  0  0  0  0  0  0  0
   -4.8040   -5.1830   -1.1270 C   0  0  0  0  0  0  0  0  0  0  0  0
   -4.7290   -3.5490    0.6360 O   0  0  0  0  0  0  0  0  0  0  0  0
  1  2  1  0
  2  3  1  0
  3  4  1  6
  3  5  1  0
  5  6  1  0
  6  7  1  0
  7  8  2  0
  7 24  1  0
  8  9  1  0
  9 10  1  0
  9 22  2  0
 10 11  1  0
 11 12  1  1
 11 13  1  0
 11 14  1  0
 14 15  1  6
 14 18  1  0
 14 21  1  0
 15 16  1  0
 16 17  1  0
 18 19  1  0
 19 20  1  0
 20 21  1  0
 22 23  1  0
 23 24  2  0
 24 25  1  0
 25 26  1  0
 26 27  1  0
 27 28  1  6
 27 29  1  0
M  CHG  2  21   1  23   1
M  END
