
     RDKit          3D

 31 34  0  0  0  0  0  0  0  0999 V2000
   -1.9280    0.8210   -2.8070 C   0  0  0  0  0  0  0  0  0  0  0  0
   -3.1060    0.3410   -2.0380 C   0  0  0  0  0  0  0  0  0  0  0  0
   -2.9160    0.1670   -0.5560 C   0  0  2  0  0  0  0  0  0  0  0  0
   -1.9110   -0.7930   -0.0930 C   0  0  0  0  0  0  0  0  0  0  0  0
   -0.5330   -0.5890   -0.4590 N   0  0  2  0  0  0  0  0  0  0  0  0
    0.0520   -1.7090   -1.1620 C   0  0  0  0  0  0  0  0  0  0  0  0
    1.5100   -1.2930   -1.2250 C   0  0  0  0  0  0  0  0  0  0  0  0
    1.7130   -0.9360    0.2480 C   0  0  1  0  0  0  0  0  0  0  0  0
    2.6880    0.2010    0.4090 C   0  0  0  0  0  0  0  0  0  0  0  0
    3.9880   -0.1130   -0.1300 N   0  0  2  0  0  0  0  0  0  0  0  0
    4.5090   -1.3610    0.3170 C   0  0  0  0  0  0  0  0  0  0  0  0
    6.0070   -1.2440    0.2570 C   0  0  0  0  0  0  0  0  0  0  0  0
    6.2670    0.2670   -0.0540 C   0  0  2  0  0  0  0  0  0  0  0  0
    7.4890    0.6750    0.7020 C   0  0  0  0  0  0  0  0  0  0  0  0
    7.9070    1.9240    0.5240 O   0  0  0  0  0  0  0  0  0  0  0  0
    7.1840    3.0220    0.7700 C   0  0  0  0  0  0  0  0  0  0  0  0
    4.9710    0.8170    0.4790 C   0  0  0  0  0  0  0  0  0  0  0  0
    0.3510   -0.6350    0.7450 C   0  0  0  0  0  0  0  0  0  0  0  0
   -4.2030    0.1310    0.0440 N   0  0  0  0  0  0  0  0  0  0  0  0
   -5.1400   -0.9370   -0.0310 C   0  0  0  0  0  0  0  0  0  0  0  0
   -5.0050   -2.1370   -0.7250 C   0  0  0  0  0  0  0  0  0  0  0  0
   -6.1400   -2.8960   -0.5250 C   0  0  0  0  0  0  0  0  0  0  0  0
   -6.9500   -2.1450    0.2900 C   0  0  0  0  0  0  0  0  0  0  0  0
   -6.3380   -0.9520    0.5890 N   0  0  0  0  0  0  0  0  0  0  0  0
   -6.8270    0.1140    1.3870 C   0  0  0  0  0  0  0  0  0  0  0  0
   -6.2140    1.2300    1.6300 C   0  0  0  0  0  0  0  0  0  0  0  0
   -6.8580    2.2430    2.4830 C   0  0  0  0  0  0  0  0  0  0  0  0
   -7.0380    3.7290    1.4870 Cl  0  0  0  0  0  0  0  0  0  0  0  0
   -4.6640    1.5340    0.9570 S   0  0  1  0  0  0  0  0  0  0  0  0
   -3.6530    1.8000    2.0480 O   0  0  0  0  0  0  0  0  0  0  0  0
   -4.8140    2.7410    0.0700 O   0  0  0  0  0  0  0  0  0  0  0  0
  1  2  1  0
  3  2  1  6
  3  4  1  0
  3 19  1  0
  5  4  1  1
  5  6  1  0
  5 18  1  0
  6  7  1  0
  7  8  1  0
  8  9  1  6
  8 18  1  0
 10  9  1  1
 10 11  1  0
 10 17  1  0
 11 12  1  0
 12 13  1  0
 13 14  1  1
 13 17  1  0
 14 15  1  0
 15 16  1  0
 19 20  1  0
 29 19  1  6
 20 21  2  0
 20 24  1  0
 21 22  1  0
 22 23  2  0
 23 24  1  0
 24 25  1  0
 25 26  2  0
 26 27  1  0
 26 29  1  0
 27 28  1  0
 29 30  2  0
 29 31  2  0
M  CHG  2   5   1  10   1
M  END
