
     RDKit          3D

 29 30  0  0  0  0  0  0  0  0999 V2000
    6.9240   -0.6780    2.5230 C   0  0  0  0  0  0  0  0  0  0  0  0
    7.0500    0.4890    1.5500 C   0  0  0  0  0  0  0  0  0  0  0  0
    5.9480    0.4490    0.5530 C   0  0  0  0  0  0  0  0  0  0  0  0
    5.7890    1.3660   -0.4560 C   0  0  0  0  0  0  0  0  0  0  0  0
    4.6440    0.9620   -1.1510 C   0  0  0  0  0  0  0  0  0  0  0  0
    4.1770   -0.1680   -0.5300 C   0  0  0  0  0  0  0  0  0  0  0  0
    2.9860   -0.9590   -0.9040 C   0  0  1  0  0  0  0  0  0  0  0  0
    3.1600   -2.3960   -0.3470 C   0  0  0  0  0  0  0  0  0  0  0  0
    1.7740   -0.5160   -0.4180 O   0  0  0  0  0  0  0  0  0  0  0  0
    1.1260    0.6680   -0.6090 C   0  0  0  0  0  0  0  0  0  0  0  0
    1.6850    1.5180   -1.3390 O   0  0  0  0  0  0  0  0  0  0  0  0
   -0.1910    1.0020   -0.0080 C   0  0  2  0  0  0  0  0  0  0  0  0
   -0.5870    2.3840   -0.4420 C   0  0  0  0  0  0  0  0  0  0  0  0
   -0.0040    1.0210    1.4870 C   0  0  0  0  0  0  0  0  0  0  0  0
    0.4410   -0.2320    2.0320 N   0  0  0  0  0  0  0  0  0  0  0  0
   -1.2660    0.0460   -0.4300 C   0  0  0  0  0  0  0  0  0  0  0  0
   -2.5690    0.4390    0.2090 C   0  0  0  0  0  0  0  0  0  0  0  0
   -3.7020   -0.4740   -0.1720 C   0  0  2  0  0  0  0  0  0  0  0  0
   -3.9730   -0.5120   -1.6350 C   0  0  0  0  0  0  0  0  0  0  0  0
   -4.3390    0.7910   -2.2590 C   0  0  0  0  0  0  0  0  0  0  0  0
   -5.4700    1.3940   -1.7630 O   0  0  0  0  0  0  0  0  0  0  0  0
   -4.9040   -0.1180    0.5360 N   0  0  2  0  0  0  0  0  0  0  0  0
   -4.9520   -0.5960    1.9140 C   0  0  0  0  0  0  0  0  0  0  0  0
   -6.4450   -0.7780    1.7400 C   0  0  0  0  0  0  0  0  0  0  0  0
   -6.0430   -0.9700    0.2720 C   0  0  0  0  0  0  0  0  0  0  0  0
    2.8920   -1.1300   -2.3910 C   0  0  0  0  0  0  0  0  0  0  0  0
    1.7020   -0.8520   -3.0930 N   0  0  0  0  0  0  0  0  0  0  0  0
    3.8890   -1.5290   -3.0460 O   0  0  0  0  0  0  0  0  0  0  0  0
    4.9930   -0.4190    0.4710 O   0  0  0  0  0  0  0  0  0  0  0  0
  1  2  1  0
  2  3  1  0
  3  4  2  0
  3 29  1  0
  4  5  1  0
  5  6  2  0
  6  7  1  0
  6 29  1  0
  7  8  1  1
  7  9  1  0
  7 26  1  0
  9 10  1  0
 10 11  2  0
 10 12  1  0
 12 13  1  6
 12 14  1  0
 12 16  1  0
 14 15  1  0
 16 17  1  0
 18 17  1  6
 18 19  1  0
 18 22  1  0
 19 20  1  0
 20 21  1  0
 22 23  1  1
 22 25  1  0
 23 24  1  0
 24 25  1  0
 26 27  1  0
 26 28  2  0
M  CHG  2  15   1  22   1
M  END
