
     RDKit          3D

 29 30  0  0  0  0  0  0  0  0999 V2000
    7.9850    1.9270   -0.1790 C   0  0  0  0  0  0  0  0  0  0  0  0
    7.1710    0.9090    0.6030 C   0  0  0  0  0  0  0  0  0  0  0  0
    6.8900   -0.2410   -0.2500 N   0  0  0  0  0  0  0  0  0  0  0  0
    5.9360   -1.0880    0.4120 C   0  0  2  0  0  0  0  0  0  0  0  0
    5.8450   -2.4710   -0.2030 C   0  0  0  0  0  0  0  0  0  0  0  0
    4.5720   -0.5050    0.3720 C   0  0  0  0  0  0  0  0  0  0  0  0
    4.0080    0.0630   -0.7440 C   0  0  0  0  0  0  0  0  0  0  0  0
    2.7180    0.5900   -0.7580 C   0  0  0  0  0  0  0  0  0  0  0  0
    1.9500    0.5550    0.3750 C   0  0  0  0  0  0  0  0  0  0  0  0
    0.5380    1.0900    0.4220 C   0  0  0  0  0  0  0  0  0  0  0  0
   -0.1260    0.9700   -0.8360 N   0  0  0  0  0  0  0  0  0  0  0  0
   -1.3680    0.3010   -0.7910 C   0  0  0  0  0  0  0  0  0  0  0  0
   -1.6280   -0.5750    0.3900 C   0  0  2  0  0  0  0  0  0  0  0  0
   -0.6840   -1.5770    0.5470 O   0  0  0  0  0  0  0  0  0  0  0  0
   -3.0040   -1.2400    0.0610 C   0  0  0  0  0  0  0  0  0  0  0  0
   -3.9280   -0.1860   -0.0860 N   0  0  0  0  0  0  0  0  0  0  0  0
   -4.3010    0.5590    1.0510 C   0  0  0  0  0  0  0  0  0  0  0  0
   -5.4680    1.4560    0.6800 C   0  0  0  0  0  0  0  0  0  0  0  0
   -6.5780    0.5330    0.2270 C   0  0  0  0  0  0  0  0  0  0  0  0
   -7.8770    0.5940    0.8060 C   0  0  0  0  0  0  0  0  0  0  0  0
   -8.8500   -0.1100    0.5130 O   0  0  0  0  0  0  0  0  0  0  0  0
   -8.0860    1.5620    1.8290 O   0  0  0  0  0  0  0  0  0  0  0  0
   -6.2670   -0.3140   -0.7170 C   0  0  0  0  0  0  0  0  0  0  0  0
   -7.0880   -1.2950   -1.3420 C   0  0  0  0  0  0  0  0  0  0  0  0
   -6.5040   -1.9970   -2.2560 O   0  0  0  0  0  0  0  0  0  0  0  0
   -8.3940   -1.6390   -1.1570 O   0  0  0  0  0  0  0  0  0  0  0  0
   -4.8230   -0.2080   -1.1790 C   0  0  0  0  0  0  0  0  0  0  0  0
    2.5030   -0.0170    1.5180 C   0  0  0  0  0  0  0  0  0  0  0  0
    3.7760   -0.5320    1.5200 C   0  0  0  0  0  0  0  0  0  0  0  0
  1  2  1  0
  2  3  1  0
  3  4  1  0
  4  5  1  6
  4  6  1  0
  6  7  2  0
  6 29  1  0
  7  8  1  0
  8  9  2  0
  9 10  1  0
  9 28  1  0
 10 11  1  0
 11 12  1  0
 12 13  1  0
 13 14  1  6
 13 15  1  0
 15 16  1  0
 16 17  1  0
 16 27  1  0
 17 18  1  0
 18 19  1  0
 19 20  1  0
 19 23  2  0
 20 21  2  0
 20 22  1  0
 23 24  1  0
 23 27  1  0
 24 25  2  0
 24 26  1  0
 28 29  2  0
M  CHG  2   3   1  11   1
M  END
