
     RDKit          3D

 29 30  0  0  0  0  0  0  0  0999 V2000
   -4.6050    3.1220    1.4970 C   0  0  0  0  0  0  0  0  0  0  0  0
   -4.2310    2.8820    0.0420 C   0  0  0  0  0  0  0  0  0  0  0  0
   -4.9500    1.7230   -0.5410 C   0  0  0  0  0  0  0  0  0  0  0  0
   -6.0140    1.7350   -1.3620 N   0  0  0  0  0  0  0  0  0  0  0  0
   -6.3770    0.5300   -1.6560 O   0  0  0  0  0  0  0  0  0  0  0  0
   -5.6010   -0.3600   -1.0690 C   0  0  0  0  0  0  0  0  0  0  0  0
   -5.7670   -1.7880   -1.2180 C   0  0  0  0  0  0  0  0  0  0  0  0
   -6.8870   -2.0140   -2.0760 O   0  0  0  0  0  0  0  0  0  0  0  0
   -4.6920    0.3570   -0.3590 C   0  0  0  0  0  0  0  0  0  0  0  0
   -3.5580   -0.1320    0.4740 C   0  0  1  0  0  0  0  0  0  0  0  0
   -3.6450   -1.5660    0.8640 C   0  0  0  0  0  0  0  0  0  0  0  0
   -2.2910    0.2550   -0.0890 N   0  0  0  0  0  0  0  0  0  0  0  0
   -1.3790   -0.7400   -0.4560 C   0  0  0  0  0  0  0  0  0  0  0  0
    0.0930   -0.2840   -0.5310 C   0  0  1  0  0  0  0  0  0  0  0  0
    0.6070    0.2150    0.7480 C   0  0  0  0  0  0  0  0  0  0  0  0
    0.5300   -0.8060    1.8750 C   0  0  0  0  0  0  0  0  0  0  0  0
    1.0860   -0.2300    3.1390 C   0  0  0  0  0  0  0  0  0  0  0  0
    0.9710   -1.2470    4.1170 O   0  0  0  0  0  0  0  0  0  0  0  0
    0.8360   -1.3360   -1.2520 C   0  0  0  0  0  0  0  0  0  0  0  0
    2.2850   -1.1470   -1.5060 C   0  0  2  0  0  0  0  0  0  0  0  0
    2.7010   -2.3650   -2.2680 N   0  0  0  0  0  0  0  0  0  0  0  0
    3.1950   -1.1010   -0.3760 C   0  0  0  0  0  0  0  0  0  0  0  0
    4.2370   -0.2520   -0.2880 C   0  0  0  0  0  0  0  0  0  0  0  0
    4.6610    0.7760   -1.2850 C   0  0  0  0  0  0  0  0  0  0  0  0
    5.1520    1.8950   -0.3970 C   0  0  0  0  0  0  0  0  0  0  0  0
    5.6320    1.1920    0.8500 C   0  0  2  0  0  0  0  0  0  0  0  0
    7.1210    1.2910    0.9230 C   0  0  0  0  0  0  0  0  0  0  0  0
    7.7320    0.7570   -0.2000 O   0  0  0  0  0  0  0  0  0  0  0  0
    5.1560   -0.1360    0.7450 O   0  0  0  0  0  0  0  0  0  0  0  0
  1  2  1  0
  2  3  1  0
  3  4  2  0
  3  9  1  0
  4  5  1  0
  5  6  1  0
  6  7  1  0
  6  9  2  0
  7  8  1  0
  9 10  1  0
 10 11  1  6
 10 12  1  0
 12 13  1  0
 14 13  1  1
 14 15  1  0
 14 19  1  0
 15 16  1  0
 16 17  1  0
 17 18  1  0
 19 20  1  0
 20 21  1  6
 20 22  1  0
 22 23  2  3
 23 24  1  0
 23 29  1  0
 24 25  1  0
 25 26  1  0
 26 27  1  6
 26 29  1  0
 27 28  1  0
M  CHG  2  12   1  21   1
M  END
