
     RDKit          3D

 28 30  0  0  0  0  0  0  0  0999 V2000
   -2.6670   -1.6790    0.0680 C   0  0  0  0  0  0  0  0  0  0  0  0
   -2.3690   -0.2650   -0.3860 C   0  0  1  0  0  0  0  0  0  0  0  0
   -3.1320    0.7290    0.3870 C   0  0  0  0  0  0  0  0  0  0  0  0
   -2.5400    1.6180    1.0660 O   0  0  0  0  0  0  0  0  0  0  0  0
   -4.5430    0.6900    0.3710 N   0  0  0  0  0  0  0  0  0  0  0  0
   -5.3620    1.6360    1.1100 C   0  0  0  0  0  0  0  0  0  0  0  0
   -6.3000    2.3460    0.1450 C   0  0  0  0  0  0  0  0  0  0  0  0
   -6.5420    1.5540   -0.9770 O   0  0  0  0  0  0  0  0  0  0  0  0
   -6.6460    0.2180   -0.6640 C   0  0  0  0  0  0  0  0  0  0  0  0
   -5.2390   -0.3130   -0.3990 C   0  0  0  0  0  0  0  0  0  0  0  0
   -0.9530    0.0050   -0.2160 N   0  0  0  0  0  0  0  0  0  0  0  0
   -0.0280    0.3680   -1.2800 C   0  0  0  0  0  0  0  0  0  0  0  0
    1.1970    0.8790   -0.5110 C   0  0  0  0  0  0  0  0  0  0  0  0
    1.1880   -0.0430    0.6830 C   0  0  2  0  0  0  0  0  0  0  0  0
    1.5340   -1.3900    0.3210 N   0  0  0  0  0  0  0  0  0  0  0  0
    2.7820   -1.9670    1.3320 S   0  0  2  0  0  0  0  0  0  0  0  0
    3.1080   -3.3820    0.8910 O   0  0  0  0  0  0  0  0  0  0  0  0
    2.2950   -1.9470    2.7460 O   0  0  0  0  0  0  0  0  0  0  0  0
    4.2540   -0.9900    1.1630 C   0  0  0  0  0  0  0  0  0  0  0  0
    4.7070   -1.0630   -0.2680 C   0  0  0  0  0  0  0  0  0  0  0  0
    5.9290   -0.2560   -0.4200 C   0  0  0  0  0  0  0  0  0  0  0  0
    7.2470   -0.6030   -0.2850 C   0  0  0  0  0  0  0  0  0  0  0  0
    8.1890    0.3100   -0.4730 C   0  0  0  0  0  0  0  0  0  0  0  0
    7.8270    1.5880   -0.8000 C   0  0  0  0  0  0  0  0  0  0  0  0
    8.7730    3.0520   -1.1230 Cl  0  0  0  0  0  0  0  0  0  0  0  0
    6.0080    1.4720   -0.8410 S   0  0  0  0  0  0  0  0  0  0  0  0
   -0.2700   -0.0510    1.0300 C   0  0  0  0  0  0  0  0  0  0  0  0
   -0.7100   -0.0980    2.2020 O   0  0  0  0  0  0  0  0  0  0  0  0
  2  1  1  1
  2  3  1  0
  2 11  1  0
  3  4  2  0
  3  5  1  0
  5  6  1  0
  5 10  1  0
  6  7  1  0
  7  8  1  0
  8  9  1  0
  9 10  1  0
 11 12  1  0
 11 27  1  0
 12 13  1  0
 13 14  1  0
 14 15  1  6
 14 27  1  0
 15 16  1  0
 16 17  2  0
 16 18  2  0
 16 19  1  1
 19 20  1  0
 20 21  1  0
 21 22  2  0
 21 26  1  0
 22 23  1  0
 23 24  2  0
 24 25  1  0
 24 26  1  0
 27 28  2  0
M  END
