
     RDKit          3D

 22 24  0  0  0  0  0  0  0  0999 V2000
    5.0210    1.9740   -1.1780 C   0  0  0  0  0  0  0  0  0  0  0  0
    4.4440    0.9820   -0.5430 C   0  0  0  0  0  0  0  0  0  0  0  0
    3.0480    0.8930   -0.5750 C   0  0  0  0  0  0  0  0  0  0  0  0
    2.3300   -0.1100    0.0580 C   0  0  0  0  0  0  0  0  0  0  0  0
    0.8700   -0.1320   -0.0260 C   0  0  0  0  0  0  0  0  0  0  0  0
    0.1420    0.8310   -0.7390 C   0  0  0  0  0  0  0  0  0  0  0  0
   -1.1950    0.5220   -0.6150 C   0  0  0  0  0  0  0  0  0  0  0  0
   -2.2600    1.3370   -1.2480 C   0  0  0  0  0  0  0  0  0  0  0  0
   -3.6340    0.8090   -0.9760 C   0  0  1  0  0  0  0  0  0  0  0  0
   -3.8580   -0.5600   -1.4590 C   0  0  0  0  0  0  0  0  0  0  0  0
   -4.9800   -1.1710   -1.0920 C   0  0  0  0  0  0  0  0  0  0  0  0
   -5.9710   -0.4540   -0.2080 C   0  0  0  0  0  0  0  0  0  0  0  0
   -5.1460    0.2640    0.8120 C   0  0  0  0  0  0  0  0  0  0  0  0
   -4.0150    0.8770    0.4510 C   0  0  0  0  0  0  0  0  0  0  0  0
   -1.2420   -0.5590    0.1280 N   0  0  0  0  0  0  0  0  0  0  0  0
   -0.0180   -0.9740    0.4950 N   0  0  0  0  0  0  0  0  0  0  0  0
    0.2250   -2.1490    1.3240 C   0  0  0  0  0  0  0  0  0  0  0  0
    3.0950   -1.0270    0.7310 C   0  0  0  0  0  0  0  0  0  0  0  0
    4.4660   -0.9940    0.8000 C   0  0  0  0  0  0  0  0  0  0  0  0
    5.3810   -2.1970    1.6770 Cl  0  0  0  0  0  0  0  0  0  0  0  0
    5.1610    0.0440    0.1420 C   0  0  0  0  0  0  0  0  0  0  0  0
    6.4690    0.0680    0.2120 C   0  0  0  0  0  0  0  0  0  0  0  0
  1  2  2  0
  2  3  1  0
  2 21  1  0
  3  4  2  0
  4  5  1  0
  4 18  1  0
  5  6  2  0
  5 16  1  0
  6  7  1  0
  7  8  1  0
  7 15  2  0
  9  8  1  1
  9 10  1  0
  9 14  1  0
 10 11  2  0
 11 12  1  0
 12 13  1  0
 13 14  2  0
 15 16  1  0
 16 17  1  0
 18 19  2  0
 19 20  1  0
 19 21  1  0
 21 22  2  0
M  END
