
     RDKit          3D

 22 24  0  0  0  0  0  0  0  0999 V2000
    6.4600    1.6880   -1.1960 C   0  0  0  0  0  0  0  0  0  0  0  0
    5.1690    1.3920   -1.2410 C   0  0  0  0  0  0  0  0  0  0  0  0
    4.4140    1.2770    0.0080 C   0  0  0  0  0  0  0  0  0  0  0  0
    3.8130   -0.0530    0.2070 C   0  0  0  0  0  0  0  0  0  0  0  0
    4.4510   -1.0910    0.8610 C   0  0  0  0  0  0  0  0  0  0  0  0
    3.7950   -2.2950    0.9900 C   0  0  0  0  0  0  0  0  0  0  0  0
    2.5350   -2.4790    0.4860 C   0  0  0  0  0  0  0  0  0  0  0  0
    1.9110   -1.4170   -0.1700 C   0  0  0  0  0  0  0  0  0  0  0  0
    0.5340   -1.6320   -0.7180 C   0  0  0  0  0  0  0  0  0  0  0  0
   -0.4440   -1.3390    0.2800 N   0  0  0  0  0  0  0  0  0  0  0  0
   -0.4280   -0.0120    0.7750 C   0  0  0  0  0  0  0  0  0  0  0  0
   -1.6690    0.7520    0.4670 C   0  0  0  0  0  0  0  0  0  0  0  0
   -2.8560    0.1700    0.4280 C   0  0  0  0  0  0  0  0  0  0  0  0
   -4.0840    0.9010    0.1280 C   0  0  0  0  0  0  0  0  0  0  0  0
   -5.3120    0.4490    0.0590 C   0  0  0  0  0  0  0  0  0  0  0  0
   -6.2630    1.5320   -0.2730 C   0  0  1  0  0  0  0  0  0  0  0  0
   -7.4750    1.7060    1.0230 Cl  0  0  0  0  0  0  0  0  0  0  0  0
   -5.4040    2.7140   -0.3920 C   0  0  0  0  0  0  0  0  0  0  0  0
   -4.1590    2.3340   -0.1590 C   0  0  0  0  0  0  0  0  0  0  0  0
   -2.8830   -1.2780    0.7040 C   0  0  0  0  0  0  0  0  0  0  0  0
   -1.7030   -1.9730    0.1140 C   0  0  0  0  0  0  0  0  0  0  0  0
    2.5770   -0.2750   -0.2720 N   0  0  0  0  0  0  0  0  0  0  0  0
  1  2  2  0
  2  3  1  0
  3  4  1  0
  4  5  2  0
  4 22  1  0
  5  6  1  0
  6  7  2  0
  7  8  1  0
  8  9  1  0
  8 22  2  0
  9 10  1  0
 10 11  1  0
 10 21  1  0
 11 12  1  0
 12 13  2  0
 13 14  1  0
 13 20  1  0
 14 15  2  0
 14 19  1  0
 15 16  1  0
 16 17  1  1
 16 18  1  0
 18 19  2  0
 20 21  1  0
M  END
