
     RDKit          3D

 15 16  0  0  0  0  0  0  0  0999 V2000
   -0.8130   -1.9320    1.4270 N   0  0  0  0  0  0  0  0  0  0  0  0
   -0.7610   -0.8580    0.5010 C   0  0  0  0  0  0  0  0  0  0  0  0
    0.5170   -0.2760    0.1630 C   0  0  0  0  0  0  0  0  0  0  0  0
    1.6140   -0.7440    0.7150 C   0  0  0  0  0  0  0  0  0  0  0  0
    2.9190   -0.1570    0.3760 C   0  0  0  0  0  0  0  0  0  0  0  0
    4.1370   -0.5570    0.8840 C   0  0  0  0  0  0  0  0  0  0  0  0
    5.0650    0.2770    0.2820 C   0  0  0  0  0  0  0  0  0  0  0  0
    4.3870    1.1360   -0.5550 C   0  0  0  0  0  0  0  0  0  0  0  0
    4.9680    2.1410   -1.3530 O   0  0  0  0  0  0  0  0  0  0  0  0
    3.1180    0.8330   -0.4590 O   0  0  0  0  0  0  0  0  0  0  0  0
   -1.8540   -0.3840   -0.0560 C   0  0  0  0  0  0  0  0  0  0  0  0
   -3.2350   -0.8970    0.2080 C   0  0  0  0  0  0  0  0  0  0  0  0
   -4.0510    0.3620    0.1660 C   0  0  0  0  0  0  0  0  0  0  0  0
   -3.3130    1.3350   -0.6990 C   0  0  0  0  0  0  0  0  0  0  0  0
   -1.9720    0.7160   -1.0270 C   0  0  0  0  0  0  0  0  0  0  0  0
  1  2  1  0
  2  3  1  0
  2 11  2  3
  3  4  2  3
  4  5  1  0
  5  6  2  0
  5 10  1  0
  6  7  1  0
  7  8  2  0
  8  9  1  0
  8 10  1  0
 11 12  1  0
 11 15  1  0
 12 13  1  0
 13 14  1  0
 14 15  1  0
M  END
