
     RDKit          3D

 22 24  0  0  0  0  0  0  0  0999 V2000
    7.3490    2.0080    1.5760 N   0  0  0  0  0  0  0  0  0  0  0  0
    6.4040    1.7580    0.9800 C   0  0  0  0  0  0  0  0  0  0  0  0
    5.2100    1.4660    0.2170 C   0  0  0  0  0  0  0  0  0  0  0  0
    5.0830    0.2870   -0.4940 C   0  0  0  0  0  0  0  0  0  0  0  0
    3.9390   -0.0080   -1.2200 C   0  0  0  0  0  0  0  0  0  0  0  0
    2.8850    0.8790   -1.2490 C   0  0  0  0  0  0  0  0  0  0  0  0
    1.6510    0.5470   -2.0370 C   0  0  0  0  0  0  0  0  0  0  0  0
    0.7360   -0.1260   -1.1190 N   0  0  1  0  0  0  0  0  0  0  0  0
   -0.5120    0.6220   -1.0530 C   0  0  0  0  0  0  0  0  0  0  0  0
   -1.6730   -0.2790   -1.4380 C   0  0  0  0  0  0  0  0  0  0  0  0
   -1.7100   -1.4730   -0.5570 C   0  0  2  0  0  0  0  0  0  0  0  0
   -1.9430   -1.2510    0.8920 C   0  0  0  0  0  0  0  0  0  0  0  0
   -3.1990   -0.5790    1.2310 C   0  0  0  0  0  0  0  0  0  0  0  0
   -4.1710   -1.1570    1.9540 C   0  0  0  0  0  0  0  0  0  0  0  0
   -5.2820   -0.2030    2.1100 C   0  0  0  0  0  0  0  0  0  0  0  0
   -4.8170    0.9980    1.4000 C   0  0  0  0  0  0  0  0  0  0  0  0
   -5.6840    2.5340    1.2000 Cl  0  0  0  0  0  0  0  0  0  0  0  0
   -3.6040    0.7790    0.8880 C   0  0  0  0  0  0  0  0  0  0  0  0
   -0.3920   -2.2200   -0.7090 C   0  0  0  0  0  0  0  0  0  0  0  0
    0.5370   -1.4820   -1.5880 C   0  0  0  0  0  0  0  0  0  0  0  0
    2.9890    2.0510   -0.5540 C   0  0  0  0  0  0  0  0  0  0  0  0
    4.1370    2.3370    0.1690 C   0  0  0  0  0  0  0  0  0  0  0  0
  1  2  3  0
  2  3  1  0
  3  4  2  0
  3 22  1  0
  4  5  1  0
  5  6  2  0
  6  7  1  0
  6 21  1  0
  8  7  1  6
  8  9  1  0
  8 20  1  0
  9 10  1  0
 10 11  1  0
 11 12  1  1
 11 19  1  0
 12 13  1  0
 13 14  2  0
 13 18  1  0
 14 15  1  0
 15 16  1  0
 16 17  1  0
 16 18  2  0
 19 20  1  0
 21 22  2  0
M  CHG  1   8   1
M  END
