
     RDKit          3D

 15 15  0  0  0  0  0  0  0  0999 V2000
   -0.7910   -2.8020    0.3210 C   0  0  0  0  0  0  0  0  0  0  0  0
   -1.4430   -1.7850   -0.4950 C   0  0  0  0  0  0  0  0  0  0  0  0
   -1.4090   -0.4940   -0.4160 C   0  0  0  0  0  0  0  0  0  0  0  0
   -2.2450    0.1830   -1.4740 C   0  0  0  0  0  0  0  0  0  0  0  0
   -2.8210    1.3630   -1.3610 C   0  0  0  0  0  0  0  0  0  0  0  0
   -2.8160    2.3130   -0.2250 C   0  0  0  0  0  0  0  0  0  0  0  0
   -1.4210    2.6440    0.2180 C   0  0  0  0  0  0  0  0  0  0  0  0
   -0.6730    1.5400    0.8190 C   0  0  0  0  0  0  0  0  0  0  0  0
   -0.6380    0.2230    0.5840 C   0  0  0  0  0  0  0  0  0  0  0  0
    0.2590   -0.4970    1.3980 N   0  0  0  0  0  0  0  0  0  0  0  0
    1.6790   -0.2440    1.4060 C   0  0  0  0  0  0  0  0  0  0  0  0
    2.4020   -0.5420    0.1800 C   0  0  0  0  0  0  0  0  0  0  0  0
    1.8730   -0.9440   -0.8590 O   0  0  0  0  0  0  0  0  0  0  0  0
    3.7820   -0.3630    0.1780 O   0  0  0  0  0  0  0  0  0  0  0  0
    4.5890   -0.6140   -0.9340 C   0  0  0  0  0  0  0  0  0  0  0  0
  1  2  1  0
  2  3  2  3
  3  4  1  0
  3  9  1  0
  4  5  2  0
  5  6  1  0
  6  7  1  0
  7  8  1  0
  8  9  2  0
  9 10  1  0
 10 11  1  0
 11 12  1  0
 12 13  2  0
 12 14  1  0
 14 15  1  0
M  END
