
     RDKit          3D

 12 12  0  0  0  0  0  0  0  0999 V2000
   -1.3530   -1.1130    1.2940 N   0  0  0  0  0  0  0  0  0  0  0  0
   -0.6440   -0.6040    0.0740 C   0  0  1  0  0  0  0  0  0  0  0  0
   -0.4350   -1.8260   -0.7560 C   0  0  0  0  0  0  0  0  0  0  0  0
   -1.7610   -2.3560   -0.9470 O   0  0  0  0  0  0  0  0  0  0  0  0
   -1.6240    0.2980   -0.6260 C   0  0  0  0  0  0  0  0  0  0  0  0
   -1.3990    1.7490   -0.4350 C   0  0  0  0  0  0  0  0  0  0  0  0
   -0.7730    2.1770    0.8310 C   0  0  0  0  0  0  0  0  0  0  0  0
    0.2660    1.2930    1.4080 C   0  0  0  0  0  0  0  0  0  0  0  0
    0.5620    0.0470    0.5700 C   0  0  2  0  0  0  0  0  0  0  0  0
    1.7570    0.2630   -0.2850 C   0  0  0  0  0  0  0  0  0  0  0  0
    2.4840   -0.9070   -0.8280 C   0  0  0  0  0  0  0  0  0  0  0  0
    3.6010   -0.5100   -1.5990 O   0  0  0  0  0  0  0  0  0  0  0  0
  2  1  1  1
  2  3  1  0
  2  5  1  0
  2  9  1  0
  3  4  1  0
  5  6  1  0
  6  7  1  0
  7  8  1  0
  8  9  1  0
  9 10  1  6
 10 11  1  0
 11 12  1  0
M  CHG  1   1   1
M  END
