
     RDKit          3D

 12 12  0  0  0  0  0  0  0  0999 V2000
    3.6490    1.1690   -0.1090 N   0  0  0  0  0  0  0  0  0  0  0  0
    3.3960   -0.2430   -0.1420 C   0  0  0  0  0  0  0  0  0  0  0  0
    2.3660   -0.5600   -1.1900 C   0  0  0  0  0  0  0  0  0  0  0  0
    1.2300   -1.1390   -0.8630 C   0  0  0  0  0  0  0  0  0  0  0  0
    0.9300   -1.4780    0.4400 O   0  0  0  0  0  0  0  0  0  0  0  0
    0.3240   -0.6340    1.3640 C   0  0  0  0  0  0  0  0  0  0  0  0
   -1.0310   -0.1300    1.0030 C   0  0  1  0  0  0  0  0  0  0  0  0
   -1.0950    0.8100   -0.1470 C   0  0  0  0  0  0  0  0  0  0  0  0
   -2.0720    0.4090   -1.2200 C   0  0  0  0  0  0  0  0  0  0  0  0
   -3.3860   -0.0620   -0.6580 C   0  0  0  0  0  0  0  0  0  0  0  0
   -3.2100   -0.5750    0.7610 C   0  0  0  0  0  0  0  0  0  0  0  0
   -1.9550   -1.1780    0.8150 O   0  0  0  0  0  0  0  0  0  0  0  0
  1  2  1  0
  2  3  1  0
  3  4  2  3
  4  5  1  0
  5  6  1  0
  7  6  1  6
  7  8  1  0
  7 12  1  0
  8  9  1  0
  9 10  1  0
 10 11  1  0
 11 12  1  0
M  CHG  1   1   1
M  END
