
     RDKit          3D

 25 27  0  0  0  0  0  0  0  0999 V2000
    3.5160   -0.9520    3.9620 C   0  0  0  0  0  0  0  0  0  0  0  0
    2.3420   -1.5180    3.4970 O   0  0  0  0  0  0  0  0  0  0  0  0
    1.6830   -0.6530    2.6710 C   0  0  0  0  0  0  0  0  0  0  0  0
    2.2850   -0.6390    1.3140 C   0  0  0  0  0  0  0  0  0  0  0  0
    3.3080   -1.4390    1.0710 C   0  0  0  0  0  0  0  0  0  0  0  0
    3.9340   -1.4580   -0.2410 C   0  0  0  0  0  0  0  0  0  0  0  0
    3.4710   -0.6710   -1.1880 C   0  0  0  0  0  0  0  0  0  0  0  0
    2.3490    0.2280   -0.9870 C   0  0  0  0  0  0  0  0  0  0  0  0
    1.8410    1.0110   -1.8950 C   0  0  0  0  0  0  0  0  0  0  0  0
    2.3460    1.0900   -3.2730 C   0  0  0  0  0  0  0  0  0  0  0  0
    2.7850    2.3870   -3.5780 F   0  0  0  0  0  0  0  0  0  0  0  0
    1.7370    0.2450    0.3060 N   0  0  0  0  0  0  0  0  0  0  0  0
    0.6640    1.0740    0.5910 C   0  0  0  0  0  0  0  0  0  0  0  0
   -0.6870    0.9190    0.1510 C   0  0  0  0  0  0  0  0  0  0  0  0
   -1.2590   -0.0610   -0.4950 C   0  0  0  0  0  0  0  0  0  0  0  0
   -0.5920   -1.2940   -0.9220 C   0  0  0  0  0  0  0  0  0  0  0  0
   -1.5070   -2.4360   -0.4050 C   0  0  0  0  0  0  0  0  0  0  0  0
   -2.7430   -2.3840   -1.2780 C   0  0  0  0  0  0  0  0  0  0  0  0
   -3.5220   -1.1650   -0.8850 C   0  0  0  0  0  0  0  0  0  0  0  0
   -2.6710    0.0070   -0.8560 N   0  0  0  0  0  0  0  0  0  0  0  0
   -3.2620    1.3030   -1.2000 C   0  0  0  0  0  0  0  0  0  0  0  0
   -2.8230    2.3740   -0.2560 C   0  0  1  0  0  0  0  0  0  0  0  0
   -4.0060    2.6890    0.6570 C   0  0  0  0  0  0  0  0  0  0  0  0
   -1.6170    2.0450    0.4910 C   0  0  0  0  0  0  0  0  0  0  0  0
   -1.3250    2.7580    1.5040 O   0  0  0  0  0  0  0  0  0  0  0  0
  1  2  1  0
  2  3  1  0
  3  4  1  0
  4  5  2  0
  4 12  1  0
  5  6  1  0
  6  7  2  0
  7  8  1  0
  8  9  2  3
  8 12  1  0
  9 10  1  0
 10 11  1  0
 12 13  1  0
 13 14  1  0
 14 15  2  0
 14 24  1  0
 15 16  1  0
 15 20  1  0
 16 17  1  0
 17 18  1  0
 18 19  1  0
 19 20  1  0
 20 21  1  0
 21 22  1  0
 22 23  1  1
 22 24  1  0
 24 25  2  0
M  END
