
     RDKit          3D

 28 31  0  0  0  0  0  0  0  0999 V2000
   -5.4090    0.6780   -2.8350 C   0  0  0  0  0  0  0  0  0  0  0  0
   -4.3390    0.5830   -1.8060 C   0  0  0  0  0  0  0  0  0  0  0  0
   -3.2750    1.4800   -1.8930 C   0  0  0  0  0  0  0  0  0  0  0  0
   -2.2460    1.3700   -0.9420 C   0  0  0  0  0  0  0  0  0  0  0  0
   -1.0640    1.9630   -0.6330 C   0  0  0  0  0  0  0  0  0  0  0  0
   -0.4490    3.0370   -1.2290 N   0  0  0  0  0  0  0  0  0  0  0  0
   -0.5530    1.2700    0.5010 C   0  0  0  0  0  0  0  0  0  0  0  0
    0.6930    1.6050    1.1610 C   0  0  0  0  0  0  0  0  0  0  0  0
    1.6580    0.5230    0.7840 N   0  0  0  0  0  0  0  0  0  0  0  0
    2.9710    1.0420    0.5830 C   0  0  2  0  0  0  0  0  0  0  0  0
    3.0110    1.9110   -0.6700 C   0  0  0  0  0  0  0  0  0  0  0  0
    3.9320   -0.0740    0.3580 C   0  0  0  0  0  0  0  0  0  0  0  0
    4.6000   -0.2830   -0.8130 C   0  0  0  0  0  0  0  0  0  0  0  0
    5.5570   -1.2840   -0.9730 C   0  0  0  0  0  0  0  0  0  0  0  0
    6.2480   -1.4420   -2.1930 N   0  0  0  0  0  0  0  0  0  0  0  0
    5.8330   -2.1020    0.0950 C   0  0  0  0  0  0  0  0  0  0  0  0
    5.1800   -1.9270    1.2830 C   0  0  0  0  0  0  0  0  0  0  0  0
    4.2150   -0.9090    1.4440 C   0  0  0  0  0  0  0  0  0  0  0  0
    3.6230   -0.8000    2.6260 O   0  0  0  0  0  0  0  0  0  0  0  0
   -1.4120    0.2990    0.8600 N   0  0  0  0  0  0  0  0  0  0  0  0
   -1.8090   -0.7170    1.6800 C   0  0  0  0  0  0  0  0  0  0  0  0
   -1.0830   -1.1280    2.8020 N   0  0  0  0  0  0  0  0  0  0  0  0
   -3.0550   -1.2180    1.2320 C   0  0  0  0  0  0  0  0  0  0  0  0
   -3.9150   -2.2560    1.8160 C   0  0  0  0  0  0  0  0  0  0  0  0
   -3.4120   -0.4990    0.1260 C   0  0  0  0  0  0  0  0  0  0  0  0
   -4.4360   -0.3900   -0.8320 C   0  0  0  0  0  0  0  0  0  0  0  0
   -5.5310   -1.3510   -0.7100 C   0  0  0  0  0  0  0  0  0  0  0  0
   -2.4210    0.3980   -0.0520 C   0  0  0  0  0  0  0  0  0  0  0  0
  1  2  1  0
  2  3  2  0
  2 26  1  0
  3  4  1  0
  4  5  1  0
  4 28  2  0
  5  6  1  0
  5  7  2  0
  7  8  1  0
  7 20  1  0
  8  9  1  0
  9 10  1  0
 10 11  1  6
 10 12  1  0
 12 13  2  0
 12 18  1  0
 13 14  1  0
 14 15  1  0
 14 16  2  0
 16 17  1  0
 17 18  2  0
 18 19  1  0
 20 21  1  0
 20 28  1  0
 21 22  1  0
 21 23  2  0
 23 24  1  0
 23 25  1  0
 25 26  2  0
 25 28  1  0
 26 27  1  0
M  CHG  1   9   1
M  END
