
     RDKit          3D

 28 31  0  0  0  0  0  0  0  0999 V2000
   -1.7840   -3.2900   -0.0100 C   0  0  0  0  0  0  0  0  0  0  0  0
   -1.7030   -2.3600    1.1840 C   0  0  0  0  0  0  0  0  0  0  0  0
   -2.5270   -1.1580    1.0460 C   0  0  0  0  0  0  0  0  0  0  0  0
   -3.9000   -1.2490    1.2230 C   0  0  0  0  0  0  0  0  0  0  0  0
   -4.4850   -2.5680    1.5560 C   0  0  0  0  0  0  0  0  0  0  0  0
   -4.6350   -0.0940    1.0790 C   0  0  0  0  0  0  0  0  0  0  0  0
   -4.0360    1.1040    0.7710 C   0  0  0  0  0  0  0  0  0  0  0  0
   -2.6390    1.1960    0.5900 C   0  0  0  0  0  0  0  0  0  0  0  0
   -2.0990    2.5190    0.2580 C   0  0  0  0  0  0  0  0  0  0  0  0
   -1.7950    2.7690   -1.1770 C   0  0  0  0  0  0  0  0  0  0  0  0
   -1.2670    4.1320   -1.3800 N   0  0  0  0  0  0  0  0  0  0  0  0
   -1.9160    0.0380    0.7370 C   0  0  0  0  0  0  0  0  0  0  0  0
   -0.4870    0.0510    0.6030 N   0  0  0  0  0  0  0  0  0  0  0  0
    0.1600   -0.2760   -0.5730 C   0  0  0  0  0  0  0  0  0  0  0  0
   -0.5500   -0.6430   -1.6870 N   0  0  0  0  0  0  0  0  0  0  0  0
    0.2830   -0.9060   -2.6660 N   0  0  0  0  0  0  0  0  0  0  0  0
    1.5480   -0.7360   -2.2740 C   0  0  0  0  0  0  0  0  0  0  0  0
    2.7400   -0.8650   -2.8570 N   0  0  0  0  0  0  0  0  0  0  0  0
    3.8930   -0.6190   -2.2030 C   0  0  0  0  0  0  0  0  0  0  0  0
    5.0200   -0.7470   -2.7740 O   0  0  0  0  0  0  0  0  0  0  0  0
    3.8850   -0.2170   -0.8770 C   0  0  0  0  0  0  0  0  0  0  0  0
    5.0640    0.0340   -0.2070 C   0  0  0  0  0  0  0  0  0  0  0  0
    5.0440    0.4330    1.1070 C   0  0  0  0  0  0  0  0  0  0  0  0
    6.3290    0.7060    1.8380 C   0  0  0  0  0  0  0  0  0  0  0  0
    3.8380    0.5700    1.7210 C   0  0  0  0  0  0  0  0  0  0  0  0
    2.6300    0.3160    1.0460 C   0  0  0  0  0  0  0  0  0  0  0  0
    2.6620   -0.0760   -0.2490 C   0  0  0  0  0  0  0  0  0  0  0  0
    1.4700   -0.3340   -0.9400 C   0  0  0  0  0  0  0  0  0  0  0  0
  1  2  1  0
  2  3  1  0
  3  4  2  0
  3 12  1  0
  4  5  1  0
  4  6  1  0
  6  7  2  0
  7  8  1  0
  8  9  1  0
  8 12  2  0
  9 10  1  0
 10 11  1  0
 12 13  1  0
 13 14  1  0
 14 15  2  0
 14 28  1  0
 15 16  1  0
 16 17  1  0
 17 18  1  0
 17 28  2  0
 18 19  1  0
 19 20  2  0
 19 21  1  0
 21 22  2  0
 21 27  1  0
 22 23  1  0
 23 24  1  0
 23 25  2  0
 25 26  1  0
 26 27  2  0
 27 28  1  0
M  CHG  2  11   1  15   1
M  END
