
     RDKit          3D

 14 15  0  0  0  0  0  0  0  0999 V2000
    3.1140   -0.3530   -0.1890 C   0  0  0  0  0  0  0  0  0  0  0  0
    1.6590   -0.3010   -0.0870 N   0  0  0  0  0  0  0  0  0  0  0  0
    0.9190   -1.4160    0.0510 C   0  0  0  0  0  0  0  0  0  0  0  0
    1.5020   -2.5210    0.0920 O   0  0  0  0  0  0  0  0  0  0  0  0
   -0.4580   -1.3680    0.1480 C   0  0  0  0  0  0  0  0  0  0  0  0
   -1.4350   -2.2870    0.2880 N   0  0  0  0  0  0  0  0  0  0  0  0
   -2.6440   -1.6980    0.3320 C   0  0  0  0  0  0  0  0  0  0  0  0
   -4.2070   -2.5150    0.5070 Cl  0  0  0  0  0  0  0  0  0  0  0  0
   -2.4290   -0.3780    0.2160 N   0  0  0  0  0  0  0  0  0  0  0  0
   -1.1020   -0.1460    0.1020 C   0  0  0  0  0  0  0  0  0  0  0  0
   -0.3460    0.9470   -0.0360 N   0  0  0  0  0  0  0  0  0  0  0  0
   -1.0060    2.2370   -0.0860 C   0  0  0  0  0  0  0  0  0  0  0  0
    0.9920    0.8700   -0.1270 C   0  0  0  0  0  0  0  0  0  0  0  0
    1.6720    1.9380   -0.2580 O   0  0  0  0  0  0  0  0  0  0  0  0
  1  2  1  0
  2  3  1  0
  2 13  1  0
  3  4  2  0
  3  5  1  0
  5  6  1  0
  5 10  2  0
  6  7  2  0
  7  8  1  0
  7  9  1  0
  9 10  1  0
 10 11  1  0
 11 12  1  0
 11 13  1  0
 13 14  2  0
M  END
