
     RDKit          3D

 13 13  0  0  0  0  0  0  0  0999 V2000
   -4.0450   -0.9000    0.6940 C   0  0  0  0  0  0  0  0  0  0  0  0
   -3.1440   -0.0270   -0.5610 S   0  0  2  0  0  0  0  0  0  0  0  0
   -4.0300    0.9770   -1.1910 O   0  0  0  0  0  0  0  0  0  0  0  0
   -2.6670   -0.9760   -1.6270 O   0  0  0  0  0  0  0  0  0  0  0  0
   -1.7870    0.7510    0.1830 N   0  0  0  0  0  0  0  0  0  0  0  0
   -0.5060    0.3550   -0.2110 C   0  0  0  0  0  0  0  0  0  0  0  0
   -0.3010   -0.5390   -1.0590 O   0  0  0  0  0  0  0  0  0  0  0  0
    0.6720    0.9070    0.2790 N   0  0  0  0  0  0  0  0  0  0  0  0
    1.9150    0.4320   -0.1070 C   0  0  0  0  0  0  0  0  0  0  0  0
    2.8830    1.1620    0.0210 N   0  0  0  0  0  0  0  0  0  0  0  0
    4.0770    0.6660   -0.3910 N   0  0  0  0  0  0  0  0  0  0  0  0
    4.3290   -0.6630    0.2020 C   0  0  0  0  0  0  0  0  0  0  0  0
    2.6460   -1.2250   -0.3690 S   0  0  0  0  0  0  0  0  0  0  0  0
  2  1  1  1
  2  3  2  0
  2  4  2  0
  2  5  1  0
  5  6  1  0
  6  7  2  0
  6  8  1  0
  8  9  1  0
  9 10  2  0
  9 13  1  0
 10 11  1  0
 11 12  1  0
 12 13  1  0
M  END
