
     RDKit          3D

 13 13  0  0  0  0  0  0  0  0999 V2000
    2.1670   -1.0830   -1.5770 O   0  0  0  0  0  0  0  0  0  0  0  0
    2.3060   -0.8990   -0.3650 C   0  0  0  0  0  0  0  0  0  0  0  0
    3.9430   -1.2940    0.3550 S   0  0  0  0  0  0  0  0  0  0  0  0
    1.3270   -0.4140    0.5170 N   0  0  0  0  0  0  0  0  0  0  0  0
    0.0380   -0.0590    0.1790 N   0  0  0  0  0  0  0  0  0  0  0  0
   -0.4980   -0.1130   -1.0260 C   0  0  0  0  0  0  0  0  0  0  0  0
    0.1300   -0.5080   -2.0390 O   0  0  0  0  0  0  0  0  0  0  0  0
   -1.8000    0.2640   -1.2740 N   0  0  0  0  0  0  0  0  0  0  0  0
   -2.5710    0.7010   -0.2850 C   0  0  0  0  0  0  0  0  0  0  0  0
   -3.7710    1.0560   -0.4710 O   0  0  0  0  0  0  0  0  0  0  0  0
   -2.0380    0.7600    0.9430 N   0  0  0  0  0  0  0  0  0  0  0  0
   -0.7900    0.4000    1.1830 C   0  0  0  0  0  0  0  0  0  0  0  0
   -0.1260    0.4670    2.6790 S   0  0  0  0  0  0  0  0  0  0  0  0
  1  2  2  0
  2  3  1  0
  2  4  1  0
  4  5  1  0
  5  6  1  0
  5 12  1  0
  6  7  2  0
  6  8  1  0
  8  9  1  0
  9 10  2  0
  9 11  1  0
 11 12  1  0
 12 13  2  0
M  END
