
     RDKit          3D

 15 15  0  0  0  0  0  0  0  0999 V2000
    0.1390    0.7810   -2.2990 O   0  0  0  0  0  0  0  0  0  0  0  0
   -0.3570    0.8090   -1.0210 N   0  0  0  0  0  0  0  0  0  0  0  0
    0.3780    0.9880    0.0100 C   0  0  0  0  0  0  0  0  0  0  0  0
    1.8300    1.1770   -0.1350 C   0  0  1  0  0  0  0  0  0  0  0  0
    2.5580    0.8900    1.1480 C   0  0  0  0  0  0  0  0  0  0  0  0
    3.1510   -0.4840    0.9140 C   0  0  0  0  0  0  0  0  0  0  0  0
    3.6150   -0.3520   -0.5390 C   0  0  0  0  0  0  0  0  0  0  0  0
    2.3340    0.2090   -1.1700 C   0  0  0  0  0  0  0  0  0  0  0  0
   -1.7110    0.6340   -0.8680 O   0  0  0  0  0  0  0  0  0  0  0  0
   -2.2400   -0.5070   -0.2920 C   0  0  0  0  0  0  0  0  0  0  0  0
   -3.5190   -0.5510    0.0310 C   0  0  0  0  0  0  0  0  0  0  0  0
   -4.4220    0.6050   -0.2090 C   0  0  0  0  0  0  0  0  0  0  0  0
   -4.9860    1.0720    0.9790 O   0  0  0  0  0  0  0  0  0  0  0  0
   -1.3290   -1.6560   -0.0560 C   0  0  0  0  0  0  0  0  0  0  0  0
   -0.8110   -2.0490   -1.3070 O   0  0  0  0  0  0  0  0  0  0  0  0
  1  2  1  0
  2  3  2  3
  2  9  1  0
  4  3  1  1
  4  5  1  0
  4  8  1  0
  5  6  1  0
  6  7  1  0
  7  8  1  0
  9 10  1  0
 10 11  2  3
 10 14  1  0
 11 12  1  0
 12 13  1  0
 14 15  1  0
M  CHG  2   1  -1   2   1
M  END
