
     RDKit          3D

 20 20  0  0  0  0  0  0  0  0999 V2000
   -5.1870    0.4220   -0.8510 C   0  0  0  0  0  0  0  0  0  0  0  0
   -3.8760    0.2920   -0.9150 C   0  0  0  0  0  0  0  0  0  0  0  0
   -3.1390    1.3730   -1.4220 O   0  0  0  0  0  0  0  0  0  0  0  0
   -1.9780    1.3320   -2.2350 C   0  0  0  0  0  0  0  0  0  0  0  0
   -1.0820    0.1590   -1.9150 C   0  0  1  0  0  0  0  0  0  0  0  0
   -0.6010    0.1980   -0.5540 N   0  0  0  0  0  0  0  0  0  0  0  0
    0.8050    0.3800   -0.2720 C   0  0  0  0  0  0  0  0  0  0  0  0
    1.5540    0.4980   -1.2540 O   0  0  0  0  0  0  0  0  0  0  0  0
    1.3100    0.4230    1.0200 N   0  0  0  0  0  0  0  0  0  0  0  0
    2.6420    0.5810    1.4820 C   0  0  0  0  0  0  0  0  0  0  0  0
    3.6600   -0.4450    1.1200 C   0  0  1  0  0  0  0  0  0  0  0  0
    3.9980   -0.5780   -0.1880 O   0  0  0  0  0  0  0  0  0  0  0  0
    4.8490   -0.3190    2.0200 C   0  0  0  0  0  0  0  0  0  0  0  0
    5.6920    0.7040    1.8880 O   0  0  0  0  0  0  0  0  0  0  0  0
    6.4220    0.8580    0.7690 C   0  0  0  0  0  0  0  0  0  0  0  0
   -1.6790   -1.1600   -2.2610 C   0  0  0  0  0  0  0  0  0  0  0  0
   -2.3590   -1.8750   -1.1410 C   0  0  0  0  0  0  0  0  0  0  0  0
   -3.3540   -0.9790   -0.4450 C   0  0  0  0  0  0  0  0  0  0  0  0
   -3.7850   -1.3670    0.7260 C   0  0  0  0  0  0  0  0  0  0  0  0
   -4.7090   -0.7280    1.6480 C   0  0  0  0  0  0  0  0  0  0  0  0
  1  2  2  0
  2  3  1  0
  2 18  1  0
  3  4  1  0
  4  5  1  0
  5  6  1  1
  5 16  1  0
  6  7  1  0
  7  8  2  0
  7  9  1  0
  9 10  1  0
 10 11  1  0
 11 12  1  6
 11 13  1  0
 13 14  1  0
 14 15  1  0
 16 17  1  0
 17 18  1  0
 18 19  2  3
 19 20  1  0
M  END
