
     RDKit          3D

  7  6  0  0  0  0  0  0  0  0999 V2000
   -2.0480   -0.1430    0.0610 C   0  0  0  0  0  0  0  0  0  0  0  0
   -0.7080    0.5250   -0.0310 C   0  0  0  0  0  0  0  0  0  0  0  0
    0.4070   -0.4500    0.0520 C   0  0  0  0  0  0  0  0  0  0  0  0
    0.2080   -1.6650    0.1820 O   0  0  0  0  0  0  0  0  0  0  0  0
    1.7730    0.0680   -0.0240 C   0  0  0  0  0  0  0  0  0  0  0  0
    2.0180    1.2950   -0.1560 O   0  0  0  0  0  0  0  0  0  0  0  0
    2.8820   -0.7750    0.0450 O   0  0  0  0  0  0  0  0  0  0  0  0
  1  2  1  0
  2  3  1  0
  3  4  2  0
  3  5  1  0
  5  6  2  0
  5  7  1  0
M  END
