
     RDKit          3D

 20 20  0  0  0  0  0  0  0  0999 V2000
   -4.4900   -0.8240   -1.1090 C   0  0  0  0  0  0  0  0  0  0  0  0
   -3.9940    0.6030   -1.0760 C   0  0  1  0  0  0  0  0  0  0  0  0
   -5.1000    1.4290   -0.4680 C   0  0  0  0  0  0  0  0  0  0  0  0
   -5.4000    0.9020    0.9110 C   0  0  0  0  0  0  0  0  0  0  0  0
   -6.4320    1.6430    1.5220 O   0  0  0  0  0  0  0  0  0  0  0  0
   -2.7510    0.8120   -0.3460 C   0  0  0  0  0  0  0  0  0  0  0  0
   -2.6940    1.6770    0.5620 O   0  0  0  0  0  0  0  0  0  0  0  0
   -1.5480    0.0690   -0.6080 N   0  0  0  0  0  0  0  0  0  0  0  0
   -0.3710    0.3410    0.1550 C   0  0  0  0  0  0  0  0  0  0  0  0
    0.8030   -0.5390   -0.2600 C   0  0  1  0  0  0  0  0  0  0  0  0
    1.0300   -0.2570   -1.5980 O   0  0  0  0  0  0  0  0  0  0  0  0
    1.9370   -0.2100    0.6500 C   0  0  0  0  0  0  0  0  0  0  0  0
    3.1990   -0.9680    0.4150 C   0  0  1  0  0  0  0  0  0  0  0  0
    3.0190   -2.4540    0.5630 C   0  0  0  0  0  0  0  0  0  0  0  0
    3.8210   -0.6470   -0.9040 C   0  0  0  0  0  0  0  0  0  0  0  0
    4.0790    0.8220   -1.0930 C   0  0  0  0  0  0  0  0  0  0  0  0
    4.6890    1.4230    0.0710 N   0  0  0  0  0  0  0  0  0  0  0  0
    4.6810    0.8020    1.3240 C   0  0  0  0  0  0  0  0  0  0  0  0
    5.0870    1.4330    2.3260 O   0  0  0  0  0  0  0  0  0  0  0  0
    4.2120   -0.5680    1.4960 C   0  0  0  0  0  0  0  0  0  0  0  0
  2  1  1  1
  2  3  1  0
  2  6  1  0
  3  4  1  0
  4  5  1  0
  6  7  2  0
  6  8  1  0
  8  9  1  0
  9 10  1  0
 10 11  1  6
 10 12  1  0
 12 13  1  0
 13 14  1  6
 13 15  1  0
 13 20  1  0
 15 16  1  0
 16 17  1  0
 17 18  1  0
 18 19  2  0
 18 20  1  0
M  END
