
     RDKit          3D

 17 18  0  0  0  0  0  0  0  0999 V2000
    2.3910    0.1010    1.8290 C   0  0  0  0  0  0  0  0  0  0  0  0
    1.8890    0.0640    0.4140 C   0  0  2  0  0  0  0  0  0  0  0  0
    0.4310   -0.2000    0.3330 C   0  0  0  0  0  0  0  0  0  0  0  0
   -0.3990    0.5880   -0.1920 N   0  0  0  0  0  0  0  0  0  0  0  0
   -1.7490    0.0750   -0.1300 C   0  0  0  0  0  0  0  0  0  0  0  0
   -2.8070    0.6920   -0.5960 C   0  0  0  0  0  0  0  0  0  0  0  0
   -4.1910    0.2840   -0.5940 C   0  0  0  0  0  0  0  0  0  0  0  0
   -5.0250    1.1830    0.1040 O   0  0  0  0  0  0  0  0  0  0  0  0
   -1.6400   -1.2050    0.5390 C   0  0  0  0  0  0  0  0  0  0  0  0
   -2.4610   -2.0860    0.8720 N   0  0  0  0  0  0  0  0  0  0  0  0
   -0.2180   -1.3450    0.8210 N   0  0  0  0  0  0  0  0  0  0  0  0
    2.6600   -0.9000   -0.3260 N   0  0  0  0  0  0  0  0  0  0  0  0
    3.8670   -0.2250   -0.6900 C   0  0  0  0  0  0  0  0  0  0  0  0
    4.9680   -0.7720   -0.9990 O   0  0  0  0  0  0  0  0  0  0  0  0
    3.6200    1.1900   -0.6460 N   0  0  0  0  0  0  0  0  0  0  0  0
    2.2600    1.3370   -0.2540 C   0  0  0  0  0  0  0  0  0  0  0  0
    1.5450    2.3480   -0.4470 O   0  0  0  0  0  0  0  0  0  0  0  0
  2  1  1  1
  2  3  1  0
  2 12  1  0
  2 16  1  0
  3  4  2  0
  3 11  1  0
  4  5  1  0
  5  6  2  3
  5  9  1  0
  6  7  1  0
  7  8  1  0
  9 10  2  0
  9 11  1  0
 12 13  1  0
 13 14  2  0
 13 15  1  0
 15 16  1  0
 16 17  2  0
M  END
