
     RDKit          3D

 17 19  0  0  0  0  0  0  0  0999 V2000
    4.1860   -0.1290    2.2930 O   0  0  0  0  0  0  0  0  0  0  0  0
    3.3950   -0.1210    1.3280 C   0  0  0  0  0  0  0  0  0  0  0  0
    3.8220   -0.5650    0.1380 N   0  0  0  0  0  0  0  0  0  0  0  0
    2.9960   -0.5690   -0.9140 C   0  0  0  0  0  0  0  0  0  0  0  0
    3.3930   -0.9820   -2.0230 O   0  0  0  0  0  0  0  0  0  0  0  0
    1.7010   -0.1190   -0.7880 C   0  0  0  0  0  0  0  0  0  0  0  0
    1.2320    0.3490    0.4450 C   0  0  0  0  0  0  0  0  0  0  0  0
    2.1420    0.3160    1.4560 N   0  0  0  0  0  0  0  0  0  0  0  0
    0.0480    0.7770    0.6230 N   0  0  0  0  0  0  0  0  0  0  0  0
   -0.9220    0.8250   -0.4090 C   0  0  2  0  0  0  0  0  0  0  0  0
   -2.2060    0.1750   -0.0220 C   0  0  0  0  0  0  0  0  0  0  0  0
   -3.4700    0.6560   -0.2260 C   0  0  0  0  0  0  0  0  0  0  0  0
   -4.3610   -0.2730    0.2920 C   0  0  0  0  0  0  0  0  0  0  0  0
   -3.6560   -1.2440    0.7720 O   0  0  0  0  0  0  0  0  0  0  0  0
   -2.3550   -1.0300    0.6120 C   0  0  0  0  0  0  0  0  0  0  0  0
   -0.4210    0.3450   -1.6480 N   0  0  0  0  0  0  0  0  0  0  0  0
    0.8770   -0.1070   -1.7780 N   0  0  0  0  0  0  0  0  0  0  0  0
  1  2  2  0
  2  3  1  0
  2  8  1  0
  3  4  1  0
  4  5  2  0
  4  6  1  0
  6  7  1  0
  6 17  2  0
  7  8  1  0
  7  9  2  0
  9 10  1  0
 10 11  1  1
 10 16  1  0
 11 12  1  0
 11 15  2  0
 12 13  2  0
 13 14  1  0
 14 15  1  0
 16 17  1  0
M  END
