
     RDKit          3D

 17 18  0  0  0  0  0  0  0  0999 V2000
   -1.6580    1.3160    1.8820 C   0  0  0  0  0  0  0  0  0  0  0  0
   -1.8380    0.0780    1.2700 O   0  0  0  0  0  0  0  0  0  0  0  0
   -1.8460    0.2590   -0.0900 C   0  0  2  0  0  0  0  0  0  0  0  0
   -3.2610   -0.0960   -0.5700 C   0  0  0  0  0  0  0  0  0  0  0  0
   -3.4690   -1.4840   -0.1890 N   0  0  0  0  0  0  0  0  0  0  0  0
   -0.9110   -0.6540   -0.8310 C   0  0  0  0  0  0  0  0  0  0  0  0
    0.4610   -0.5140   -0.4590 N   0  0  0  0  0  0  0  0  0  0  0  0
    0.9380   -1.2820    0.5520 C   0  0  0  0  0  0  0  0  0  0  0  0
    0.1670   -2.0930    1.1340 O   0  0  0  0  0  0  0  0  0  0  0  0
    2.2050   -1.2270    0.9750 N   0  0  0  0  0  0  0  0  0  0  0  0
    3.0950   -0.3910    0.4110 C   0  0  0  0  0  0  0  0  0  0  0  0
    4.4160   -0.1330    0.6350 N   0  0  0  0  0  0  0  0  0  0  0  0
    4.7800    0.8010   -0.2340 N   0  0  0  0  0  0  0  0  0  0  0  0
    3.7400    1.1540   -1.0120 C   0  0  0  0  0  0  0  0  0  0  0  0
    2.6360    0.4020   -0.6210 C   0  0  0  0  0  0  0  0  0  0  0  0
    1.3200    0.3370   -1.0510 C   0  0  0  0  0  0  0  0  0  0  0  0
    0.9210    1.0630   -1.9870 O   0  0  0  0  0  0  0  0  0  0  0  0
  1  2  1  0
  2  3  1  0
  3  4  1  6
  3  6  1  0
  4  5  1  0
  6  7  1  0
  7  8  1  0
  7 16  1  0
  8  9  2  0
  8 10  1  0
 10 11  1  0
 11 12  2  0
 11 15  1  0
 12 13  1  0
 13 14  1  0
 14 15  2  0
 15 16  1  0
 16 17  2  0
M  END
