
     RDKit          3D

 17 18  0  0  0  0  0  0  0  0999 V2000
    0.1730    0.8390    0.6950 N   0  0  0  0  0  0  0  0  0  0  0  0
   -0.4720   -0.3860    0.2890 C   0  0  2  0  0  0  0  0  0  0  0  0
    0.1150   -0.9670   -0.9580 C   0  0  0  0  0  0  0  0  0  0  0  0
    1.5210   -1.2890   -0.8320 N   0  0  0  0  0  0  0  0  0  0  0  0
    2.5350   -0.2900   -0.7000 C   0  0  0  0  0  0  0  0  0  0  0  0
    2.3930    0.9640   -0.9930 N   0  0  0  0  0  0  0  0  0  0  0  0
    3.5970    1.6820   -0.7440 C   0  0  0  0  0  0  0  0  0  0  0  0
    3.8600    2.8990   -0.8960 O   0  0  0  0  0  0  0  0  0  0  0  0
    4.5840    0.7200   -0.2340 C   0  0  0  0  0  0  0  0  0  0  0  0
    5.7600    0.8770    0.1170 O   0  0  0  0  0  0  0  0  0  0  0  0
    3.8700   -0.5310   -0.2200 N   0  0  0  0  0  0  0  0  0  0  0  0
   -1.9170   -0.1590    0.2220 C   0  0  0  0  0  0  0  0  0  0  0  0
   -2.6820   -0.4180   -0.8090 C   0  0  0  0  0  0  0  0  0  0  0  0
   -4.1420   -0.1760   -0.8470 C   0  0  0  0  0  0  0  0  0  0  0  0
   -4.6410    0.3590    0.3510 O   0  0  0  0  0  0  0  0  0  0  0  0
   -3.8460    0.6300    1.4240 N   0  0  0  0  0  0  0  0  0  0  0  0
   -2.5760    0.4000    1.3970 C   0  0  0  0  0  0  0  0  0  0  0  0
  2  1  1  6
  2  3  1  0
  2 12  1  0
  3  4  1  0
  4  5  1  0
  5  6  2  0
  5 11  1  0
  6  7  1  0
  7  8  2  0
  7  9  1  0
  9 10  2  0
  9 11  1  0
 12 13  2  0
 12 17  1  0
 13 14  1  0
 14 15  1  0
 15 16  1  0
 16 17  2  0
M  END
