
     RDKit          3D

 17 18  0  0  0  0  0  0  0  0999 V2000
    3.3980    1.8030    0.5920 C   0  0  0  0  0  0  0  0  0  0  0  0
    3.7640    0.4780    0.0760 C   0  0  0  0  0  0  0  0  0  0  0  0
    4.9660   -0.1310    0.2250 N   0  0  0  0  0  0  0  0  0  0  0  0
    4.9760   -1.3060   -0.3500 N   0  0  0  0  0  0  0  0  0  0  0  0
    3.7590   -1.4860   -0.8930 C   0  0  0  0  0  0  0  0  0  0  0  0
    2.9630   -0.3820   -0.6470 C   0  0  0  0  0  0  0  0  0  0  0  0
    1.6540   -0.1330   -1.0120 O   0  0  0  0  0  0  0  0  0  0  0  0
    0.5530   -0.4700   -0.2470 C   0  0  0  0  0  0  0  0  0  0  0  0
    0.7700   -1.0400    0.8500 O   0  0  0  0  0  0  0  0  0  0  0  0
   -0.7840   -0.2220   -0.6070 N   0  0  0  0  0  0  0  0  0  0  0  0
   -1.9410   -0.5550    0.1550 C   0  0  2  0  0  0  0  0  0  0  0  0
   -2.9480   -1.3380   -0.5320 C   0  0  0  0  0  0  0  0  0  0  0  0
   -2.7660   -2.2290   -1.3830 O   0  0  0  0  0  0  0  0  0  0  0  0
   -4.2200   -0.9200   -0.0700 N   0  0  0  0  0  0  0  0  0  0  0  0
   -4.0380    0.1350    0.9430 C   0  0  0  0  0  0  0  0  0  0  0  0
   -2.7160    0.7140    0.5330 C   0  0  2  0  0  0  0  0  0  0  0  0
   -2.8200    1.6210   -0.5800 N   0  0  0  0  0  0  0  0  0  0  0  0
  1  2  1  0
  2  3  2  0
  2  6  1  0
  3  4  1  0
  4  5  1  0
  5  6  2  0
  6  7  1  0
  7  8  1  0
  8  9  2  0
  8 10  1  0
 11 10  1  6
 11 12  1  0
 11 16  1  0
 12 13  2  0
 12 14  1  0
 14 15  1  0
 15 16  1  0
 16 17  1  6
M  END
