
     RDKit          3D

 17 19  0  0  0  0  0  0  0  0999 V2000
    3.5860   -0.8340    0.7600 C   0  0  0  0  0  0  0  0  0  0  0  0
    2.2110   -0.7970    0.6040 O   0  0  0  0  0  0  0  0  0  0  0  0
    1.9490   -0.0840   -0.5810 C   0  0  2  0  0  0  0  0  0  0  0  0
    1.1910    1.1230   -0.1940 N   0  0  0  0  0  0  0  0  0  0  0  0
   -0.2230    1.1810   -0.0140 C   0  0  0  0  0  0  0  0  0  0  0  0
   -1.0500    0.0450    0.0700 C   0  0  0  0  0  0  0  0  0  0  0  0
   -2.3200    0.4980    0.2260 C   0  0  0  0  0  0  0  0  0  0  0  0
   -2.2480    1.8570    0.2370 N   0  0  0  0  0  0  0  0  0  0  0  0
   -0.9850    2.2550    0.0930 N   0  0  0  0  0  0  0  0  0  0  0  0
   -0.4590    3.6110    0.0490 C   0  0  0  0  0  0  0  0  0  0  0  0
   -3.4250   -0.3940    0.3030 N   0  0  0  0  0  0  0  0  0  0  0  0
   -3.1610   -1.7680    0.2060 C   0  0  0  0  0  0  0  0  0  0  0  0
   -4.0670   -2.6470    0.2640 O   0  0  0  0  0  0  0  0  0  0  0  0
   -1.8290   -2.2170    0.0340 N   0  0  0  0  0  0  0  0  0  0  0  0
   -0.6850   -1.3520    0.0470 C   0  0  1  0  0  0  0  0  0  0  0  0
    0.3310   -1.7310   -0.9870 C   0  0  0  0  0  0  0  0  0  0  0  0
    1.1590   -0.7800   -1.4590 O   0  0  0  0  0  0  0  0  0  0  0  0
  1  2  1  0
  3  2  1  1
  3  4  1  0
  3 17  1  0
  4  5  1  0
  5  6  2  0
  5  9  1  0
  6  7  1  0
  6 15  1  0
  7  8  2  0
  7 11  1  0
  8  9  1  0
  9 10  1  0
 11 12  1  0
 12 13  2  0
 12 14  1  0
 14 15  1  0
 15 16  1  6
 16 17  1  0
M  END
