
     RDKit          3D

 17 18  0  0  0  0  0  0  0  0999 V2000
    5.6200    1.3780    0.9530 O   0  0  0  0  0  0  0  0  0  0  0  0
    4.5830    0.8570    0.5020 C   0  0  0  0  0  0  0  0  0  0  0  0
    4.6050   -0.4290   -0.2400 C   0  0  0  0  0  0  0  0  0  0  0  0
    3.4210   -1.2200    0.0370 N   0  0  0  0  0  0  0  0  0  0  0  0
    2.1460   -0.5900    0.2450 C   0  0  0  0  0  0  0  0  0  0  0  0
    1.1290   -1.2920    0.1140 O   0  0  0  0  0  0  0  0  0  0  0  0
    2.1360    0.8130    0.5920 C   0  0  0  0  0  0  0  0  0  0  0  0
    1.0270    1.4160    0.7870 N   0  0  0  0  0  0  0  0  0  0  0  0
   -0.1840    0.6990    0.6600 C   0  0  0  0  0  0  0  0  0  0  0  0
   -1.0600    0.9120   -0.3000 C   0  0  0  0  0  0  0  0  0  0  0  0
   -2.2590    0.1490   -0.3630 N   0  0  0  0  0  0  0  0  0  0  0  0
   -3.4290    0.4370    0.4340 C   0  0  0  0  0  0  0  0  0  0  0  0
   -4.4680   -0.5390   -0.1080 C   0  0  2  0  0  0  0  0  0  0  0  0
   -4.9750   -1.2970    0.9590 O   0  0  0  0  0  0  0  0  0  0  0  0
   -3.7060   -1.3670   -1.0590 C   0  0  0  0  0  0  0  0  0  0  0  0
   -2.4840   -0.9450   -1.1660 N   0  0  0  0  0  0  0  0  0  0  0  0
    3.3440    1.5430    0.7230 N   0  0  0  0  0  0  0  0  0  0  0  0
  1  2  2  0
  2  3  1  0
  2 17  1  0
  3  4  1  0
  4  5  1  0
  5  6  2  0
  5  7  1  0
  7  8  2  3
  7 17  1  0
  8  9  1  0
  9 10  2  3
 10 11  1  0
 11 12  1  0
 11 16  1  0
 12 13  1  0
 13 14  1  1
 13 15  1  0
 15 16  2  0
M  END
