
     RDKit          3D

 17 18  0  0  0  0  0  0  0  0999 V2000
   -2.0370    1.0720   -0.9870 C   0  0  0  0  0  0  0  0  0  0  0  0
   -2.7250    0.6890    0.2790 C   0  0  1  0  0  0  0  0  0  0  0  0
   -3.6290   -0.5170    0.1230 C   0  0  0  0  0  0  0  0  0  0  0  0
   -3.6830   -1.1500    1.3470 O   0  0  0  0  0  0  0  0  0  0  0  0
   -2.8120   -0.5260    2.2050 C   0  0  0  0  0  0  0  0  0  0  0  0
   -1.7750    0.1360    1.3300 C   0  0  1  0  0  0  0  0  0  0  0  0
   -0.9060   -0.7880    0.6670 N   0  0  0  0  0  0  0  0  0  0  0  0
    0.5040   -0.6890    0.6830 C   0  0  0  0  0  0  0  0  0  0  0  0
    1.0100    0.2550    1.3090 O   0  0  0  0  0  0  0  0  0  0  0  0
    1.3570   -1.6090    0.0230 N   0  0  0  0  0  0  0  0  0  0  0  0
    2.7940   -1.4490    0.0780 C   0  0  0  0  0  0  0  0  0  0  0  0
    3.2300   -0.1630   -0.4920 C   0  0  0  0  0  0  0  0  0  0  0  0
    3.3820    1.0160    0.1690 N   0  0  0  0  0  0  0  0  0  0  0  0
    3.7830    1.9390   -0.6630 N   0  0  0  0  0  0  0  0  0  0  0  0
    3.9040    1.4040   -1.8770 C   0  0  0  0  0  0  0  0  0  0  0  0
    4.2760    2.0410   -2.9090 O   0  0  0  0  0  0  0  0  0  0  0  0
    3.5630    0.1100   -1.7680 N   0  0  0  0  0  0  0  0  0  0  0  0
  2  1  1  6
  2  3  1  0
  2  6  1  0
  3  4  1  0
  4  5  1  0
  5  6  1  0
  6  7  1  6
  7  8  1  0
  8  9  2  0
  8 10  1  0
 10 11  1  0
 11 12  1  0
 12 13  2  0
 12 17  1  0
 13 14  1  0
 14 15  1  0
 15 16  2  0
 15 17  1  0
M  END
