
     RDKit          3D

 11 12  0  0  0  0  0  0  0  0999 V2000
   -2.7660   -1.5940    0.2250 O   0  0  0  0  0  0  0  0  0  0  0  0
   -1.8250   -0.7600    0.1310 C   0  0  0  0  0  0  0  0  0  0  0  0
   -2.0290    0.5700    0.0620 N   0  0  0  0  0  0  0  0  0  0  0  0
   -0.9420    1.3580   -0.0370 C   0  0  0  0  0  0  0  0  0  0  0  0
   -1.1200    2.6010   -0.1020 O   0  0  0  0  0  0  0  0  0  0  0  0
    0.3470    0.8780   -0.0690 C   0  0  0  0  0  0  0  0  0  0  0  0
    1.5800    1.4260   -0.1590 N   0  0  0  0  0  0  0  0  0  0  0  0
    2.5010    0.4770   -0.1460 N   0  0  0  0  0  0  0  0  0  0  0  0
    1.8730   -0.7100   -0.0460 C   0  0  0  0  0  0  0  0  0  0  0  0
    0.5050   -0.4930    0.0060 C   0  0  0  0  0  0  0  0  0  0  0  0
   -0.5760   -1.2870    0.1040 N   0  0  0  0  0  0  0  0  0  0  0  0
  1  2  2  0
  2  3  1  0
  2 11  1  0
  3  4  1  0
  4  5  2  0
  4  6  1  0
  6  7  2  0
  6 10  1  0
  7  8  1  0
  8  9  1  0
  9 10  2  0
 10 11  1  0
M  END
