
     RDKit          3D

 11 12  0  0  0  0  0  0  0  0999 V2000
    2.9570   -1.4180    0.1320 O   0  0  0  0  0  0  0  0  0  0  0  0
    1.8790   -0.7550    0.0800 C   0  0  0  0  0  0  0  0  0  0  0  0
    1.7480    0.5740    0.2310 N   0  0  0  0  0  0  0  0  0  0  0  0
    0.4390    0.8530    0.1020 C   0  0  0  0  0  0  0  0  0  0  0  0
   -0.3100    2.0130    0.1540 C   0  0  0  0  0  0  0  0  0  0  0  0
   -1.6520    1.9260   -0.0260 N   0  0  0  0  0  0  0  0  0  0  0  0
   -2.2580    0.7610   -0.2480 N   0  0  0  0  0  0  0  0  0  0  0  0
   -1.5880   -0.4060   -0.3100 C   0  0  0  0  0  0  0  0  0  0  0  0
   -2.2380   -1.6270   -0.5450 O   0  0  0  0  0  0  0  0  0  0  0  0
   -0.2180   -0.3430   -0.1310 C   0  0  0  0  0  0  0  0  0  0  0  0
    0.6810   -1.3320   -0.1420 N   0  0  0  0  0  0  0  0  0  0  0  0
  1  2  2  0
  2  3  1  0
  2 11  1  0
  3  4  1  0
  4  5  2  0
  4 10  1  0
  5  6  1  0
  6  7  2  0
  7  8  1  0
  8  9  1  0
  8 10  2  0
 10 11  1  0
M  END
