
     RDKit          3D

 11 12  0  0  0  0  0  0  0  0999 V2000
   -2.9330   -1.3530   -0.0850 O   0  0  0  0  0  0  0  0  0  0  0  0
   -1.8700   -0.6820   -0.0420 C   0  0  0  0  0  0  0  0  0  0  0  0
   -0.6490   -1.2500   -0.0810 N   0  0  0  0  0  0  0  0  0  0  0  0
    0.4790   -0.5110   -0.0340 C   0  0  0  0  0  0  0  0  0  0  0  0
    1.8300   -0.8050   -0.0550 C   0  0  0  0  0  0  0  0  0  0  0  0
    2.5410    0.3330    0.0180 N   0  0  0  0  0  0  0  0  0  0  0  0
    1.6660    1.3070    0.0840 N   0  0  0  0  0  0  0  0  0  0  0  0
    0.4080    0.8640    0.0560 C   0  0  0  0  0  0  0  0  0  0  0  0
   -0.8220    1.4480    0.0960 N   0  0  0  0  0  0  0  0  0  0  0  0
   -1.9370    0.6950    0.0480 C   0  0  0  0  0  0  0  0  0  0  0  0
   -3.0780    1.2710    0.0880 O   0  0  0  0  0  0  0  0  0  0  0  0
  1  2  2  0
  2  3  1  0
  2 10  1  0
  3  4  1  0
  4  5  2  0
  4  8  1  0
  5  6  1  0
  6  7  1  0
  7  8  2  0
  8  9  1  0
  9 10  1  0
 10 11  2  0
M  END
