
     RDKit          3D

 11 12  0  0  0  0  0  0  0  0999 V2000
    2.6860    1.7240    0.0940 O   0  0  0  0  0  0  0  0  0  0  0  0
    1.6880    0.9580    0.0530 C   0  0  0  0  0  0  0  0  0  0  0  0
    1.8590   -0.3710   -0.0030 N   0  0  0  0  0  0  0  0  0  0  0  0
    0.8460   -1.2510   -0.0480 C   0  0  0  0  0  0  0  0  0  0  0  0
    1.0380   -2.5020   -0.1010 O   0  0  0  0  0  0  0  0  0  0  0  0
   -0.4500   -0.7670   -0.0360 C   0  0  0  0  0  0  0  0  0  0  0  0
   -1.6710   -1.3560   -0.0710 N   0  0  0  0  0  0  0  0  0  0  0  0
   -2.5720   -0.3900   -0.0350 N   0  0  0  0  0  0  0  0  0  0  0  0
   -2.0000    0.8070    0.0210 C   0  0  0  0  0  0  0  0  0  0  0  0
   -0.6290    0.6100    0.0220 C   0  0  0  0  0  0  0  0  0  0  0  0
    0.4330    1.4430    0.0660 N   0  0  0  0  0  0  0  0  0  0  0  0
  1  2  2  0
  2  3  1  0
  2 11  1  0
  3  4  1  0
  4  5  2  0
  4  6  1  0
  6  7  1  0
  6 10  2  0
  7  8  1  0
  8  9  2  0
  9 10  1  0
 10 11  1  0
M  END
