
     RDKit          3D

 11 12  0  0  0  0  0  0  0  0999 V2000
    0.1170    2.5380   -0.2320 O   0  0  0  0  0  0  0  0  0  0  0  0
    0.4440    1.3350   -0.1100 C   0  0  0  0  0  0  0  0  0  0  0  0
    1.7510    1.0200   -0.0380 N   0  0  0  0  0  0  0  0  0  0  0  0
    2.0490   -0.2620    0.0910 N   0  0  0  0  0  0  0  0  0  0  0  0
    1.1200   -1.2360    0.1510 C   0  0  0  0  0  0  0  0  0  0  0  0
    1.4330   -2.4510    0.2740 O   0  0  0  0  0  0  0  0  0  0  0  0
   -0.2200   -0.9110    0.0780 C   0  0  0  0  0  0  0  0  0  0  0  0
   -1.3640   -1.6100    0.1050 N   0  0  0  0  0  0  0  0  0  0  0  0
   -2.4130   -0.8140   -0.0020 N   0  0  0  0  0  0  0  0  0  0  0  0
   -1.9560    0.4500   -0.1050 C   0  0  0  0  0  0  0  0  0  0  0  0
   -0.5680    0.4070   -0.0560 C   0  0  0  0  0  0  0  0  0  0  0  0
  1  2  2  0
  2  3  1  0
  2 11  1  0
  3  4  1  0
  4  5  1  0
  5  6  2  0
  5  7  1  0
  7  8  2  0
  7 11  1  0
  8  9  1  0
  9 10  1  0
 10 11  2  0
M  END
