
     RDKit          3D

 11 12  0  0  0  0  0  0  0  0999 V2000
    3.4060   -0.1990   -0.4150 O   0  0  0  0  0  0  0  0  0  0  0  0
    2.1490   -0.0840   -0.2610 C   0  0  0  0  0  0  0  0  0  0  0  0
    1.4890    1.0780   -0.1380 N   0  0  0  0  0  0  0  0  0  0  0  0
    0.1860    0.7620    0.0060 C   0  0  0  0  0  0  0  0  0  0  0  0
   -0.9550    1.5190    0.1710 C   0  0  0  0  0  0  0  0  0  0  0  0
   -2.1520    0.9160    0.2920 N   0  0  0  0  0  0  0  0  0  0  0  0
   -2.2970   -0.3980    0.2600 N   0  0  0  0  0  0  0  0  0  0  0  0
   -1.1940   -1.1520    0.1000 C   0  0  0  0  0  0  0  0  0  0  0  0
   -1.2780   -2.4060    0.0630 O   0  0  0  0  0  0  0  0  0  0  0  0
    0.0750   -0.6090   -0.0320 C   0  0  0  0  0  0  0  0  0  0  0  0
    1.3090   -1.1230   -0.1990 N   0  0  0  0  0  0  0  0  0  0  0  0
  1  2  2  0
  2  3  1  0
  2 11  1  0
  3  4  1  0
  4  5  1  0
  4 10  2  0
  5  6  2  0
  6  7  1  0
  7  8  1  0
  8  9  2  0
  8 10  1  0
 10 11  1  0
M  END
