
     RDKit          3D

 21 23  0  0  0  0  0  0  0  0999 V2000
    5.0420    1.1010   -0.8420 C   0  0  0  0  0  0  0  0  0  0  0  0
    4.0670    0.3730    0.0130 C   0  0  0  0  0  0  0  0  0  0  0  0
    3.0130   -0.2160   -0.5300 N   0  0  0  0  0  0  0  0  0  0  0  0
    2.0830   -0.8920    0.1940 C   0  0  0  0  0  0  0  0  0  0  0  0
    0.9680   -1.5450   -0.4140 C   0  0  0  0  0  0  0  0  0  0  0  0
   -0.2850   -1.3600   -0.1350 C   0  0  0  0  0  0  0  0  0  0  0  0
   -0.7190   -0.4120    0.8800 C   0  0  0  0  0  0  0  0  0  0  0  0
   -1.8590    0.2460    0.6380 C   0  0  0  0  0  0  0  0  0  0  0  0
   -2.3400    1.2190    1.6370 C   0  0  0  0  0  0  0  0  0  0  0  0
   -1.6830    1.4040    2.6900 O   0  0  0  0  0  0  0  0  0  0  0  0
   -3.5460    1.9200    1.3690 N   0  0  0  0  0  0  0  0  0  0  0  0
   -4.2000    1.6220    0.1380 C   0  0  0  0  0  0  0  0  0  0  0  0
   -5.4200    1.8530    0.0110 O   0  0  0  0  0  0  0  0  0  0  0  0
   -3.4730    1.0380   -1.0180 C   0  0  0  0  0  0  0  0  0  0  0  0
   -2.5540   -0.0100   -0.5680 N   0  0  0  0  0  0  0  0  0  0  0  0
   -2.4300   -1.2060   -1.3680 C   0  0  0  0  0  0  0  0  0  0  0  0
   -1.3610   -2.1180   -0.8510 C   0  0  0  0  0  0  0  0  0  0  0  0
    2.2900   -0.9410    1.5450 C   0  0  0  0  0  0  0  0  0  0  0  0
    3.3670   -0.3410    2.1150 N   0  0  0  0  0  0  0  0  0  0  0  0
    4.2650    0.3190    1.3820 C   0  0  0  0  0  0  0  0  0  0  0  0
    5.6570    1.0950    2.1130 Cl  0  0  0  0  0  0  0  0  0  0  0  0
  1  2  1  0
  2  3  2  0
  2 20  1  0
  3  4  1  0
  4  5  1  0
  4 18  2  0
  5  6  2  3
  6  7  1  0
  6 17  1  0
  7  8  2  0
  8  9  1  0
  8 15  1  0
  9 10  2  0
  9 11  1  0
 11 12  1  0
 12 13  2  0
 12 14  1  0
 14 15  1  0
 15 16  1  0
 16 17  1  0
 18 19  1  0
 19 20  2  0
 20 21  1  0
M  END
