
     RDKit          3D

 21 23  0  0  0  0  0  0  0  0999 V2000
    5.9400    1.8030   -0.4440 C   0  0  0  0  0  0  0  0  0  0  0  0
    4.4760    1.4430   -0.3320 C   0  0  0  0  0  0  0  0  0  0  0  0
    3.4320    2.2840   -0.5790 C   0  0  0  0  0  0  0  0  0  0  0  0
    2.2930    1.5200   -0.3480 C   0  0  0  0  0  0  0  0  0  0  0  0
    2.6600    0.2720    0.0230 C   0  0  0  0  0  0  0  0  0  0  0  0
    1.9000   -0.9160    0.3790 C   0  0  0  0  0  0  0  0  0  0  0  0
    2.4520   -2.1220    0.7460 N   0  0  0  0  0  0  0  0  0  0  0  0
    1.4840   -3.0100    1.0090 C   0  0  0  0  0  0  0  0  0  0  0  0
    0.3190   -2.3740    0.8100 N   0  0  0  0  0  0  0  0  0  0  0  0
    0.5680   -1.0760    0.4200 C   0  0  0  0  0  0  0  0  0  0  0  0
   -0.4650   -0.1400    0.1310 N   0  0  0  0  0  0  0  0  0  0  0  0
   -1.6980   -0.5830    0.2500 C   0  0  0  0  0  0  0  0  0  0  0  0
   -1.9480   -1.9110    0.6430 O   0  0  0  0  0  0  0  0  0  0  0  0
   -3.1650   -2.5850    0.4150 C   0  0  0  0  0  0  0  0  0  0  0  0
   -4.1500   -1.8330   -0.4160 C   0  0  0  0  0  0  0  0  0  0  0  0
   -4.1760   -0.4040    0.0910 C   0  0  0  0  0  0  0  0  0  0  0  0
   -2.8420    0.1980    0.0060 N   0  0  0  0  0  0  0  0  0  0  0  0
   -2.8040    1.5820   -0.3250 C   0  0  0  0  0  0  0  0  0  0  0  0
   -1.4630    2.2050   -0.4410 C   0  0  0  0  0  0  0  0  0  0  0  0
   -1.7020    3.9370   -0.8570 Cl  0  0  0  0  0  0  0  0  0  0  0  0
    3.9930    0.2950    0.0120 O   0  0  0  0  0  0  0  0  0  0  0  0
  1  2  1  0
  2  3  2  0
  2 21  1  0
  3  4  1  0
  4  5  2  0
  5  6  1  0
  5 21  1  0
  6  7  1  0
  6 10  2  0
  7  8  1  0
  8  9  2  0
  9 10  1  0
 10 11  1  0
 11 12  2  3
 12 13  1  0
 12 17  1  0
 13 14  1  0
 14 15  1  0
 15 16  1  0
 16 17  1  0
 17 18  1  0
 18 19  1  0
 19 20  1  0
M  END
