
     RDKit          3D

 16 16  0  0  0  0  0  0  0  0999 V2000
   -2.0410    1.8210   -0.6670 C   0  0  0  0  0  0  0  0  0  0  0  0
   -2.2980    0.6560   -0.1360 C   0  0  0  0  0  0  0  0  0  0  0  0
   -3.7000    0.3280    0.0910 C   0  0  0  0  0  0  0  0  0  0  0  0
   -4.6220    1.4770    0.2210 C   0  0  0  0  0  0  0  0  0  0  0  0
   -4.2010   -0.9090    0.1870 C   0  0  0  0  0  0  0  0  0  0  0  0
   -3.4900   -2.2010    0.0910 C   0  0  0  0  0  0  0  0  0  0  0  0
   -2.2040   -2.4050    0.1290 C   0  0  0  0  0  0  0  0  0  0  0  0
   -1.1630   -1.4640    0.2690 N   0  0  0  0  0  0  0  0  0  0  0  0
   -1.1330   -0.1790    0.1720 C   0  0  0  0  0  0  0  0  0  0  0  0
    0.0980    0.5020    0.3780 N   0  0  0  0  0  0  0  0  0  0  0  0
    1.3190   -0.2390    0.2110 C   0  0  0  0  0  0  0  0  0  0  0  0
    2.5450    0.6060    0.4610 C   0  0  0  0  0  0  0  0  0  0  0  0
    3.7110   -0.2440    0.2640 N   0  0  0  0  0  0  0  0  0  0  0  0
    5.0000    0.3050    0.4370 C   0  0  0  0  0  0  0  0  0  0  0  0
    6.1990   -0.5730    0.2340 C   0  0  0  0  0  0  0  0  0  0  0  0
    5.1000    1.5170    0.7570 O   0  0  0  0  0  0  0  0  0  0  0  0
  1  2  2  0
  2  3  1  0
  2  9  1  0
  3  4  1  0
  3  5  2  0
  5  6  1  0
  6  7  2  0
  7  8  1  0
  8  9  2  0
  9 10  1  0
 10 11  1  0
 11 12  1  0
 12 13  1  0
 13 14  1  0
 14 15  1  0
 14 16  2  0
M  END
