
     RDKit          3D

 21 23  0  0  0  0  0  0  0  0999 V2000
   -6.5350    0.4880    1.0610 O   0  0  0  0  0  0  0  0  0  0  0  0
   -6.0210   -0.5890    0.3400 C   0  0  0  0  0  0  0  0  0  0  0  0
   -4.8450   -0.2160   -0.4670 C   0  0  0  0  0  0  0  0  0  0  0  0
   -4.9860    0.2230   -1.7370 N   0  0  0  0  0  0  0  0  0  0  0  0
   -3.8850    0.5520   -2.4370 C   0  0  0  0  0  0  0  0  0  0  0  0
   -2.6410    0.4670   -1.9370 N   0  0  0  0  0  0  0  0  0  0  0  0
   -2.4970    0.0310   -0.6730 C   0  0  0  0  0  0  0  0  0  0  0  0
   -1.1580   -0.0800   -0.0790 C   0  0  0  0  0  0  0  0  0  0  0  0
   -0.8750   -0.5120    1.1990 C   0  0  0  0  0  0  0  0  0  0  0  0
    0.4760   -0.4740    1.3750 N   0  0  0  0  0  0  0  0  0  0  0  0
    1.0800   -0.0340    0.2590 C   0  0  0  0  0  0  0  0  0  0  0  0
    2.5180    0.1330    0.0890 C   0  0  0  0  0  0  0  0  0  0  0  0
    2.9590    0.5780   -1.0790 C   0  0  0  0  0  0  0  0  0  0  0  0
    4.3690    0.8170   -1.4600 C   0  0  0  0  0  0  0  0  0  0  0  0
    4.5800    1.6590   -2.9770 Cl  0  0  0  0  0  0  0  0  0  0  0  0
    5.4900    0.4920   -0.8280 C   0  0  0  0  0  0  0  0  0  0  0  0
    5.5080   -0.2330    0.4850 C   0  0  0  0  0  0  0  0  0  0  0  0
    4.5730    0.3660    1.2870 O   0  0  0  0  0  0  0  0  0  0  0  0
    3.3260   -0.2230    1.2650 C   0  0  0  0  0  0  0  0  0  0  0  0
    0.0650    0.2080   -0.6390 C   0  0  0  0  0  0  0  0  0  0  0  0
   -3.5960   -0.2980    0.0260 N   0  0  0  0  0  0  0  0  0  0  0  0
  1  2  1  0
  2  3  1  0
  3  4  2  0
  3 21  1  0
  4  5  1  0
  5  6  2  0
  6  7  1  0
  7  8  1  0
  7 21  2  0
  8  9  2  0
  8 20  1  0
  9 10  1  0
 10 11  1  0
 11 12  1  0
 11 20  2  0
 12 13  2  0
 12 19  1  0
 13 14  1  0
 14 15  1  0
 14 16  2  0
 16 17  1  0
 17 18  1  0
 18 19  1  0
M  END
