
     RDKit          3D

 21 23  0  0  0  0  0  0  0  0999 V2000
    4.9560    0.3940   -1.4340 C   0  0  0  0  0  0  0  0  0  0  0  0
    3.8620    0.3000   -0.4720 N   0  0  0  0  0  0  0  0  0  0  0  0
    4.1050    0.1500    0.8460 C   0  0  0  0  0  0  0  0  0  0  0  0
    5.3120    0.0930    1.2220 O   0  0  0  0  0  0  0  0  0  0  0  0
    3.1240    0.0590    1.7680 N   0  0  0  0  0  0  0  0  0  0  0  0
    1.8230    0.1130    1.4200 C   0  0  0  0  0  0  0  0  0  0  0  0
    0.8290    0.0170    2.3920 C   0  0  0  0  0  0  0  0  0  0  0  0
   -0.4750    0.0820    1.9510 C   0  0  0  0  0  0  0  0  0  0  0  0
   -0.8020    0.2340    0.6220 C   0  0  0  0  0  0  0  0  0  0  0  0
   -2.1630    0.3140    0.2660 N   0  0  0  0  0  0  0  0  0  0  0  0
   -2.9940    1.3280    0.7700 N   0  0  0  0  0  0  0  0  0  0  0  0
   -4.2230    1.4070    0.4820 C   0  0  0  0  0  0  0  0  0  0  0  0
   -4.8880    0.4530   -0.3980 C   0  0  0  0  0  0  0  0  0  0  0  0
   -4.0130   -0.6000   -0.9180 C   0  0  0  0  0  0  0  0  0  0  0  0
   -2.7210   -0.6600   -0.5980 C   0  0  0  0  0  0  0  0  0  0  0  0
   -1.8850   -1.7520   -1.1160 C   0  0  0  0  0  0  0  0  0  0  0  0
   -1.1550   -2.7100    0.1960 Cl  0  0  0  0  0  0  0  0  0  0  0  0
    0.2010    0.3260   -0.3030 C   0  0  0  0  0  0  0  0  0  0  0  0
    1.5480    0.2670    0.0790 C   0  0  0  0  0  0  0  0  0  0  0  0
    2.5680    0.3570   -0.8440 C   0  0  0  0  0  0  0  0  0  0  0  0
    2.3240    0.4960   -2.0580 O   0  0  0  0  0  0  0  0  0  0  0  0
  1  2  1  0
  2  3  1  0
  2 20  1  0
  3  4  2  0
  3  5  1  0
  5  6  1  0
  6  7  2  0
  6 19  1  0
  7  8  1  0
  8  9  2  0
  9 10  1  0
  9 18  1  0
 10 11  1  0
 10 15  1  0
 11 12  2  0
 12 13  1  0
 13 14  1  0
 14 15  2  0
 15 16  1  0
 16 17  1  0
 18 19  2  0
 19 20  1  0
 20 21  2  0
M  END
