
     RDKit          3D

 23 25  0  0  0  0  0  0  0  0999 V2000
    4.7600   -2.0080   -0.1160 N   0  0  0  0  0  0  0  0  0  0  0  0
    3.8070   -1.2910    0.1550 C   0  0  0  0  0  0  0  0  0  0  0  0
    2.6330   -1.9860    0.4220 N   0  0  0  0  0  0  0  0  0  0  0  0
    1.3290   -1.6740    0.0980 C   0  0  0  0  0  0  0  0  0  0  0  0
    1.3270   -0.6100   -0.6260 O   0  0  0  0  0  0  0  0  0  0  0  0
    0.1660   -2.2980    0.4150 O   0  0  0  0  0  0  0  0  0  0  0  0
   -1.0060   -1.6970   -0.1200 C   0  0  0  0  0  0  0  0  0  0  0  0
   -1.5520   -2.1560   -1.2950 C   0  0  0  0  0  0  0  0  0  0  0  0
   -2.6750   -1.6080   -1.8550 C   0  0  0  0  0  0  0  0  0  0  0  0
   -3.2570   -0.5600   -1.1960 C   0  0  0  0  0  0  0  0  0  0  0  0
   -2.7360   -0.0770   -0.0180 C   0  0  0  0  0  0  0  0  0  0  0  0
   -1.6050   -0.6450    0.5260 C   0  0  0  0  0  0  0  0  0  0  0  0
   -3.5760    0.9900    0.3820 N   0  0  0  0  0  0  0  0  0  0  0  0
   -3.7390    2.1460    1.2000 C   0  0  0  0  0  0  0  0  0  0  0  0
   -3.0320    2.4010    2.1850 O   0  0  0  0  0  0  0  0  0  0  0  0
   -4.8830    2.8710    0.5840 C   0  0  0  0  0  0  0  0  0  0  0  0
   -5.1730    2.1510   -0.5710 O   0  0  0  0  0  0  0  0  0  0  0  0
   -4.7900    0.8780   -0.3350 N   0  0  0  0  0  0  0  0  0  0  0  0
   -4.3950    0.2150   -1.4940 O   0  0  0  0  0  0  0  0  0  0  0  0
    4.2140    0.0500    0.5540 N   0  0  0  0  0  0  0  0  0  0  0  0
    5.3740    0.8990   -0.4630 P   0  0  0  0  0  0  0  0  0  0  0  0
    4.6380    2.1310   -1.3790 O   0  0  0  0  0  0  0  0  0  0  0  0
    6.8300    1.2840    0.3150 O   0  0  0  0  0  0  0  0  0  0  0  0
  1  2  2  0
  2  3  1  0
  2 20  1  0
  3  4  1  0
  4  5  2  0
  4  6  1  0
  6  7  1  0
  7  8  2  0
  7 12  1  0
  8  9  1  0
  9 10  2  0
 10 11  1  0
 10 19  1  0
 11 12  2  0
 11 13  1  0
 13 14  1  0
 13 18  1  0
 14 15  2  0
 14 16  1  0
 16 17  1  0
 17 18  1  0
 18 19  1  0
 20 21  1  0
 21 22  1  0
 21 23  1  0
M  END
