
     RDKit          3D

 23 25  0  0  0  0  0  0  0  0999 V2000
   -1.6670    1.8750    0.1830 O   0  0  0  0  0  0  0  0  0  0  0  0
   -2.2240    0.7590    0.1390 C   0  0  0  0  0  0  0  0  0  0  0  0
   -3.6310    0.8240    0.2200 O   0  0  0  0  0  0  0  0  0  0  0  0
   -4.4800    2.3550    0.3690 P   0  0  0  0  0  0  0  0  0  0  0  0
   -6.1530    2.0940   -0.0060 O   0  0  0  0  0  0  0  0  0  0  0  0
   -4.3640    2.8540    2.0260 O   0  0  0  0  0  0  0  0  0  0  0  0
   -1.5570   -0.5220    0.0170 C   0  0  0  0  0  0  0  0  0  0  0  0
   -2.1990   -1.7310   -0.0280 N   0  0  0  0  0  0  0  0  0  0  0  0
   -1.3250   -2.7190   -0.1420 C   0  0  0  0  0  0  0  0  0  0  0  0
   -1.6370   -4.0620   -0.2140 O   0  0  0  0  0  0  0  0  0  0  0  0
   -0.1290   -2.1680   -0.1710 N   0  0  0  0  0  0  0  0  0  0  0  0
   -0.2190   -0.8110   -0.0750 C   0  0  0  0  0  0  0  0  0  0  0  0
    0.8810    0.1390   -0.0720 C   0  0  0  0  0  0  0  0  0  0  0  0
    0.8190    1.4850    0.0210 N   0  0  0  0  0  0  0  0  0  0  0  0
    2.0450    2.0000   -0.0120 C   0  0  0  0  0  0  0  0  0  0  0  0
    2.9470    0.9640   -0.1300 C   0  0  0  0  0  0  0  0  0  0  0  0
    4.2880    0.9460   -0.2050 N   0  0  0  0  0  0  0  0  0  0  0  0
    4.9250   -0.2220   -0.3170 C   0  0  0  0  0  0  0  0  0  0  0  0
    6.1930   -0.2400   -0.3880 O   0  0  0  0  0  0  0  0  0  0  0  0
    4.2250   -1.3570   -0.3550 N   0  0  0  0  0  0  0  0  0  0  0  0
    2.8810   -1.3080   -0.2780 C   0  0  0  0  0  0  0  0  0  0  0  0
    2.3070   -2.4220   -0.3210 O   0  0  0  0  0  0  0  0  0  0  0  0
    2.1820   -0.1710   -0.1640 N   0  0  0  0  0  0  0  0  0  0  0  0
  1  2  2  0
  2  3  1  0
  2  7  1  0
  3  4  1  0
  4  5  1  0
  4  6  1  0
  7  8  1  0
  7 12  2  0
  8  9  1  0
  9 10  1  0
  9 11  2  0
 11 12  1  0
 12 13  1  0
 13 14  2  0
 13 23  1  0
 14 15  1  0
 15 16  2  0
 16 17  1  0
 16 23  1  0
 17 18  1  0
 18 19  2  0
 18 20  1  0
 20 21  1  0
 21 22  2  0
 21 23  1  0
M  END
