
     RDKit          3D

 22 23  0  0  0  0  0  0  0  0999 V2000
    0.0970    2.0830    2.5860 N   0  0  0  0  0  0  0  0  0  0  0  0
    0.2450    1.3530    1.5310 C   0  0  0  0  0  0  0  0  0  0  0  0
    1.3780    1.8010    0.9070 N   0  0  0  0  0  0  0  0  0  0  0  0
    2.2110    1.1050    0.0440 C   0  0  0  0  0  0  0  0  0  0  0  0
    1.8840   -0.0760   -0.1370 O   0  0  0  0  0  0  0  0  0  0  0  0
    3.3420    1.7370   -0.5560 C   0  0  0  0  0  0  0  0  0  0  0  0
    4.0870    1.0150   -1.3360 C   0  0  0  0  0  0  0  0  0  0  0  0
    3.8370   -0.3480   -1.6190 N   0  0  0  0  0  0  0  0  0  0  0  0
    4.4210   -1.5910   -0.4750 P   0  0  0  0  0  0  0  0  0  0  0  0
    4.9850   -2.9700   -1.3890 O   0  0  0  0  0  0  0  0  0  0  0  0
    5.7710   -0.9490    0.3830 O   0  0  0  0  0  0  0  0  0  0  0  0
   -0.8790    0.6030    1.1160 N   0  0  0  0  0  0  0  0  0  0  0  0
   -2.0910    1.2670    0.6360 C   0  0  0  0  0  0  0  0  0  0  0  0
   -2.2150    2.4750    0.4120 O   0  0  0  0  0  0  0  0  0  0  0  0
   -3.0670    0.2100    0.4930 C   0  0  1  0  0  0  0  0  0  0  0  0
   -3.7520    0.1940   -0.8580 C   0  0  2  0  0  0  0  0  0  0  0  0
   -4.9360    0.9370   -0.8390 O   0  0  0  0  0  0  0  0  0  0  0  0
   -4.0930   -1.2740   -0.9970 C   0  0  0  0  0  0  0  0  0  0  0  0
   -3.1600   -2.0220   -0.1090 C   0  0  0  0  0  0  0  0  0  0  0  0
   -2.3150   -1.0160    0.4710 N   0  0  0  0  0  0  0  0  0  0  0  0
   -1.0440   -0.7710    1.0150 C   0  0  0  0  0  0  0  0  0  0  0  0
   -0.1760   -1.6640    1.3650 O   0  0  0  0  0  0  0  0  0  0  0  0
  1  2  2  0
  2  3  1  0
  2 12  1  0
  3  4  1  0
  4  5  2  0
  4  6  1  0
  6  7  2  3
  7  8  1  0
  8  9  1  0
  9 10  1  0
  9 11  1  0
 12 13  1  0
 12 21  1  0
 13 14  2  0
 15 13  1  6
 15 16  1  0
 15 20  1  0
 16 17  1  1
 16 18  1  0
 18 19  1  0
 19 20  1  0
 20 21  1  0
 21 22  2  0
M  END
