
     RDKit          3D

 23 25  0  0  0  0  0  0  0  0999 V2000
   -3.8360   -0.1950   -0.5130 O   0  0  0  0  0  0  0  0  0  0  0  0
   -2.5970    0.0320   -0.2730 C   0  0  0  0  0  0  0  0  0  0  0  0
   -2.3630    1.1680    0.4570 O   0  0  0  0  0  0  0  0  0  0  0  0
   -3.6500    2.2040    1.0050 P   0  0  0  0  0  0  0  0  0  0  0  0
   -5.0240    2.1580   -0.0540 O   0  0  0  0  0  0  0  0  0  0  0  0
   -4.2180    1.7420    2.5910 O   0  0  0  0  0  0  0  0  0  0  0  0
   -1.5840   -0.8880   -0.7700 C   0  0  0  0  0  0  0  0  0  0  0  0
   -1.9020   -1.9970   -1.4900 N   0  0  0  0  0  0  0  0  0  0  0  0
   -0.8040   -2.6820   -1.8330 C   0  0  0  0  0  0  0  0  0  0  0  0
   -0.6990   -3.8640   -2.5660 O   0  0  0  0  0  0  0  0  0  0  0  0
    0.2210   -1.9880   -1.3170 N   0  0  0  0  0  0  0  0  0  0  0  0
   -0.2190   -0.8830   -0.6590 C   0  0  0  0  0  0  0  0  0  0  0  0
    0.5960    0.0980    0.0200 C   0  0  0  0  0  0  0  0  0  0  0  0
    0.1430    1.1760    0.6600 N   0  0  0  0  0  0  0  0  0  0  0  0
    1.1090    1.8990    1.1890 C   0  0  0  0  0  0  0  0  0  0  0  0
    2.2810    1.2290    0.8610 C   0  0  0  0  0  0  0  0  0  0  0  0
    3.5590    1.5310    1.1520 N   0  0  0  0  0  0  0  0  0  0  0  0
    4.5430    0.7050    0.7110 C   0  0  0  0  0  0  0  0  0  0  0  0
    5.7310    0.9760    0.9750 O   0  0  0  0  0  0  0  0  0  0  0  0
    4.2440   -0.3960   -0.0030 N   0  0  0  0  0  0  0  0  0  0  0  0
    2.9430   -0.6690   -0.2760 C   0  0  0  0  0  0  0  0  0  0  0  0
    2.6610   -1.6950   -0.9410 O   0  0  0  0  0  0  0  0  0  0  0  0
    1.9260    0.1320    0.1460 N   0  0  0  0  0  0  0  0  0  0  0  0
  1  2  2  0
  2  3  1  0
  2  7  1  0
  3  4  1  0
  4  5  1  0
  4  6  1  0
  7  8  1  0
  7 12  2  0
  8  9  1  0
  9 10  1  0
  9 11  2  0
 11 12  1  0
 12 13  1  0
 13 14  2  0
 13 23  1  0
 14 15  1  0
 15 16  2  0
 16 17  1  0
 16 23  1  0
 17 18  1  0
 18 19  2  0
 18 20  1  0
 20 21  1  0
 21 22  2  0
 21 23  1  0
M  END
