
     RDKit          3D

 23 24  0  0  0  0  0  0  0  0999 V2000
    3.2620   -1.1800   -2.0990 N   0  0  0  0  0  0  0  0  0  0  0  0
    3.1120   -0.0120   -1.5070 C   0  0  0  0  0  0  0  0  0  0  0  0
    4.2060    0.8770   -1.6670 N   0  0  0  0  0  0  0  0  0  0  0  0
    4.2450    2.2850   -0.5400 P   0  0  0  0  0  0  0  0  0  0  0  0
    5.1450    1.8490    0.8730 O   0  0  0  0  0  0  0  0  0  0  0  0
    2.5620    2.5270   -0.1020 O   0  0  0  0  0  0  0  0  0  0  0  0
    1.6400    1.4690   -0.1020 C   0  0  0  0  0  0  0  0  0  0  0  0
    0.5190    1.6630    0.5530 N   0  0  0  0  0  0  0  0  0  0  0  0
   -0.5100    0.8380    0.7110 O   0  0  0  0  0  0  0  0  0  0  0  0
   -1.8390    1.1620    0.9660 C   0  0  1  0  0  0  0  0  0  0  0  0
   -1.9520    2.6200    1.2130 C   0  0  0  0  0  0  0  0  0  0  0  0
   -3.0560    3.1780    1.4700 O   0  0  0  0  0  0  0  0  0  0  0  0
   -0.8250    3.4210    1.1670 O   0  0  0  0  0  0  0  0  0  0  0  0
   -2.7700    0.8520   -0.2060 C   0  0  0  0  0  0  0  0  0  0  0  0
   -3.5740   -0.4050    0.0530 C   0  0  0  0  0  0  0  0  0  0  0  0
   -3.0230   -1.5300   -0.5490 O   0  0  0  0  0  0  0  0  0  0  0  0
   -2.5630   -2.4470    0.4150 C   0  0  0  0  0  0  0  0  0  0  0  0
   -1.1400   -2.8890    0.0980 C   0  0  0  0  0  0  0  0  0  0  0  0
   -0.1870   -2.2790    1.0030 N   0  0  0  0  0  0  0  0  0  0  0  0
    0.9080   -1.4840    0.5700 C   0  0  0  0  0  0  0  0  0  0  0  0
    1.9290   -1.2990    1.3050 O   0  0  0  0  0  0  0  0  0  0  0  0
    0.9340   -0.8170   -0.7610 C   0  0  0  0  0  0  0  0  0  0  0  0
    1.9290    0.2720   -0.7800 N   0  0  0  0  0  0  0  0  0  0  0  0
  1  2  2  0
  2  3  1  0
  2 23  1  0
  3  4  1  0
  4  5  1  0
  4  6  1  0
  6  7  1  0
  7  8  2  0
  7 23  1  0
  8  9  1  0
  9 10  1  0
 10 11  1  6
 10 14  1  0
 11 12  2  0
 11 13  1  0
 14 15  1  0
 15 16  1  0
 16 17  1  0
 17 18  1  0
 18 19  1  0
 19 20  1  0
 20 21  2  0
 20 22  1  0
 22 23  1  0
M  END
