
     RDKit          3D

 31 33  0  0  0  0  0  0  0  0999 V2000
   -1.0700    7.8800   -2.2190 C   0  0  0  0  0  0  0  0  0  0  0  0
   -1.0820    6.5310   -1.8150 O   0  0  0  0  0  0  0  0  0  0  0  0
   -1.3010    6.1420   -0.5140 C   0  0  0  0  0  0  0  0  0  0  0  0
   -1.5000    6.9990    0.3620 O   0  0  0  0  0  0  0  0  0  0  0  0
   -1.2990    4.7380   -0.1730 C   0  0  0  0  0  0  0  0  0  0  0  0
   -1.0850    3.7360   -1.0970 C   0  0  0  0  0  0  0  0  0  0  0  0
   -1.0890    2.4050   -0.7430 C   0  0  0  0  0  0  0  0  0  0  0  0
   -1.3080    2.0360    0.5560 C   0  0  0  0  0  0  0  0  0  0  0  0
   -1.3230    0.6540    1.0590 C   0  0  1  0  0  0  0  0  0  0  0  0
   -2.1230   -0.2760    0.1740 C   0  0  0  0  0  0  0  0  0  0  0  0
   -2.0730   -1.6060    0.7580 N   0  0  0  0  0  0  0  0  0  0  0  0
   -2.7350   -2.7190    0.1560 C   0  0  0  0  0  0  0  0  0  0  0  0
   -3.3560   -2.4970   -0.8910 O   0  0  0  0  0  0  0  0  0  0  0  0
   -2.6980   -4.0180    0.7080 N   0  0  0  0  0  0  0  0  0  0  0  0
   -3.3400   -5.1390    0.1400 C   0  0  0  0  0  0  0  0  0  0  0  0
   -4.0930   -5.2080   -1.0010 C   0  0  0  0  0  0  0  0  0  0  0  0
   -4.5310   -6.5280   -1.1760 C   0  0  0  0  0  0  0  0  0  0  0  0
   -4.0210   -7.2000   -0.1310 N   0  0  0  0  0  0  0  0  0  0  0  0
   -3.3220   -6.3830    0.6420 N   0  0  0  0  0  0  0  0  0  0  0  0
    0.0500    0.1030    1.3060 C   0  0  0  0  0  0  0  0  0  0  0  0
    0.3580   -0.2490    2.4990 O   0  0  0  0  0  0  0  0  0  0  0  0
    1.0240   -0.0500    0.2930 N   0  0  0  0  0  0  0  0  0  0  0  0
    2.3170   -0.5870    0.6210 C   0  0  0  0  0  0  0  0  0  0  0  0
    3.2040   -0.6660   -0.6010 C   0  0  0  0  0  0  0  0  0  0  0  0
    4.5030   -1.2250   -0.1780 C   0  0  0  0  0  0  0  0  0  0  0  0
    5.0570   -2.3310   -0.6210 C   0  0  0  0  0  0  0  0  0  0  0  0
    6.3630   -2.5600    0.0430 C   0  0  0  0  0  0  0  0  0  0  0  0
    6.4570   -1.3880    0.9450 C   0  0  0  0  0  0  0  0  0  0  0  0
    5.3880   -0.6360    0.8070 C   0  0  0  0  0  0  0  0  0  0  0  0
   -1.5210    3.0620    1.4680 C   0  0  0  0  0  0  0  0  0  0  0  0
   -1.5220    4.3780    1.1420 C   0  0  0  0  0  0  0  0  0  0  0  0
  1  2  1  0
  2  3  1  0
  3  4  2  0
  3  5  1  0
  5  6  2  0
  5 31  1  0
  6  7  1  0
  7  8  2  0
  8  9  1  0
  8 30  1  0
  9 10  1  6
  9 20  1  0
 10 11  1  0
 11 12  1  0
 12 13  2  0
 12 14  1  0
 14 15  1  0
 15 16  2  0
 15 19  1  0
 16 17  1  0
 17 18  2  0
 18 19  1  0
 20 21  2  0
 20 22  1  0
 22 23  1  0
 23 24  1  0
 24 25  1  0
 25 26  2  0
 25 29  1  0
 26 27  1  0
 27 28  1  0
 28 29  2  0
 30 31  2  0
M  END
