
     RDKit          3D

 31 33  0  0  0  0  0  0  0  0999 V2000
  -10.3360    2.5360   -0.6620 N   0  0  0  0  0  0  0  0  0  0  0  0
   -9.3390    1.5390   -0.5220 C   0  0  0  0  0  0  0  0  0  0  0  0
   -8.6270    1.2960   -1.5260 O   0  0  0  0  0  0  0  0  0  0  0  0
   -9.1140    0.7920    0.7350 C   0  0  0  0  0  0  0  0  0  0  0  0
   -8.0270   -0.1450    0.5380 N   0  0  0  0  0  0  0  0  0  0  0  0
   -6.7310    0.2650    0.1830 C   0  0  0  0  0  0  0  0  0  0  0  0
   -6.5200    1.5160    0.0330 O   0  0  0  0  0  0  0  0  0  0  0  0
   -5.6460   -0.6330   -0.0180 N   0  0  0  0  0  0  0  0  0  0  0  0
   -4.3570   -0.0750   -0.3830 C   0  0  0  0  0  0  0  0  0  0  0  0
   -3.3320   -1.1350   -0.5560 C   0  0  0  0  0  0  0  0  0  0  0  0
   -3.1040   -1.7550   -1.7790 C   0  0  0  0  0  0  0  0  0  0  0  0
   -2.0980   -2.6720   -1.5630 C   0  0  0  0  0  0  0  0  0  0  0  0
   -1.7520   -2.5730   -0.2110 C   0  0  0  0  0  0  0  0  0  0  0  0
   -0.7020   -3.3860    0.4570 C   0  0  0  0  0  0  0  0  0  0  0  0
    0.5720   -2.6830    0.3600 N   0  0  0  0  0  0  0  0  0  0  0  0
    0.7310   -1.3800    0.9260 C   0  0  0  0  0  0  0  0  0  0  0  0
   -0.2580   -0.8600    1.5100 O   0  0  0  0  0  0  0  0  0  0  0  0
    1.9770   -0.6340    0.8570 C   0  0  0  0  0  0  0  0  0  0  0  0
    3.0670   -1.0880    0.2710 C   0  0  0  0  0  0  0  0  0  0  0  0
    4.3150   -0.3550    0.1960 C   0  0  0  0  0  0  0  0  0  0  0  0
    5.4180   -0.9210   -0.4480 C   0  0  0  0  0  0  0  0  0  0  0  0
    6.6170   -0.2600   -0.5410 C   0  0  0  0  0  0  0  0  0  0  0  0
    6.7940    0.9820   -0.0100 C   0  0  0  0  0  0  0  0  0  0  0  0
    8.0430    1.6600   -0.1120 N   0  0  0  0  0  0  0  0  0  0  0  0
    9.2710    1.1420    0.0620 C   0  0  0  0  0  0  0  0  0  0  0  0
   10.2310    2.1230   -0.1230 C   0  0  0  0  0  0  0  0  0  0  0  0
    9.5520    3.2850   -0.4230 C   0  0  0  0  0  0  0  0  0  0  0  0
    8.2000    2.9650   -0.4080 C   0  0  0  0  0  0  0  0  0  0  0  0
    5.7300    1.5720    0.6320 C   0  0  0  0  0  0  0  0  0  0  0  0
    4.5200    0.9010    0.7240 C   0  0  0  0  0  0  0  0  0  0  0  0
   -2.5150   -1.6500    0.3290 O   0  0  0  0  0  0  0  0  0  0  0  0
  1  2  1  0
  2  3  2  0
  2  4  1  0
  4  5  1  0
  5  6  1  0
  6  7  2  0
  6  8  1  0
  8  9  1  0
  9 10  1  0
 10 11  2  0
 10 31  1  0
 11 12  1  0
 12 13  2  0
 13 14  1  0
 13 31  1  0
 14 15  1  0
 15 16  1  0
 16 17  2  0
 16 18  1  0
 18 19  2  3
 19 20  1  0
 20 21  2  0
 20 30  1  0
 21 22  1  0
 22 23  2  0
 23 24  1  0
 23 29  1  0
 24 25  1  0
 24 28  1  0
 25 26  2  0
 26 27  1  0
 27 28  2  0
 29 30  2  0
M  END
