
     RDKit          3D

 30 33  0  0  0  0  0  0  0  0999 V2000
    7.1640    2.6260   -0.9130 N   0  0  0  0  0  0  0  0  0  0  0  0
    6.2920    1.7430   -0.5610 C   0  0  0  0  0  0  0  0  0  0  0  0
    6.6210    0.6130    0.1480 C   0  0  0  0  0  0  0  0  0  0  0  0
    5.6250   -0.3090    0.5000 C   0  0  0  0  0  0  0  0  0  0  0  0
    4.3460   -0.1060    0.1520 N   0  0  0  0  0  0  0  0  0  0  0  0
    3.3380   -1.0520    0.5150 C   0  0  2  0  0  0  0  0  0  0  0  0
    2.1530   -0.8730   -0.1470 O   0  0  0  0  0  0  0  0  0  0  0  0
    1.0890   -1.1490    0.6580 C   0  0  1  0  0  0  0  0  0  0  0  0
    0.0840   -2.0810    0.0540 C   0  0  0  0  0  0  0  0  0  0  0  0
   -0.5100   -1.6080   -1.1660 N   0  0  0  0  0  0  0  0  0  0  0  0
   -1.2450   -0.4130   -1.1770 C   0  0  0  0  0  0  0  0  0  0  0  0
   -1.3990    0.2570   -0.1340 O   0  0  0  0  0  0  0  0  0  0  0  0
   -1.8470    0.0620   -2.4350 C   0  0  0  0  0  0  0  0  0  0  0  0
   -2.6350    1.3190   -2.2570 C   0  0  0  0  0  0  0  0  0  0  0  0
   -3.7680    1.1650   -1.3220 C   0  0  0  0  0  0  0  0  0  0  0  0
   -4.6010    2.1630   -0.9670 N   0  0  0  0  0  0  0  0  0  0  0  0
   -5.5310    1.7300   -0.1190 C   0  0  0  0  0  0  0  0  0  0  0  0
   -6.6030    2.3060    0.5450 C   0  0  0  0  0  0  0  0  0  0  0  0
   -7.4140    1.5950    1.3820 C   0  0  0  0  0  0  0  0  0  0  0  0
   -7.1710    0.2510    1.5870 C   0  0  0  0  0  0  0  0  0  0  0  0
   -6.1080   -0.3390    0.9340 C   0  0  0  0  0  0  0  0  0  0  0  0
   -5.2990    0.4050    0.0890 C   0  0  0  0  0  0  0  0  0  0  0  0
   -4.2150    0.0850   -0.6580 N   0  0  0  0  0  0  0  0  0  0  0  0
    1.6540   -1.7120    1.9650 C   0  0  1  0  0  0  0  0  0  0  0  0
    1.9010   -3.0720    1.8930 O   0  0  0  0  0  0  0  0  0  0  0  0
    2.9860   -0.9920    1.9890 C   0  0  1  0  0  0  0  0  0  0  0  0
    3.9180   -1.6230    2.7900 O   0  0  0  0  0  0  0  0  0  0  0  0
    4.0450    1.0000   -0.5390 C   0  0  0  0  0  0  0  0  0  0  0  0
    2.8680    1.2290   -0.8830 O   0  0  0  0  0  0  0  0  0  0  0  0
    4.9920    1.9090   -0.8920 N   0  0  0  0  0  0  0  0  0  0  0  0
  1  2  2  0
  2  3  1  0
  2 30  1  0
  3  4  2  0
  4  5  1  0
  6  5  1  6
  5 28  1  0
  6  7  1  0
  6 26  1  0
  7  8  1  0
  8  9  1  6
  8 24  1  0
  9 10  1  0
 10 11  1  0
 11 12  2  0
 11 13  1  0
 13 14  1  0
 14 15  1  0
 15 16  2  0
 15 23  1  0
 16 17  1  0
 17 18  2  0
 17 22  1  0
 18 19  1  0
 19 20  2  0
 20 21  1  0
 21 22  2  0
 22 23  1  0
 24 25  1  6
 24 26  1  0
 26 27  1  1
 28 29  2  0
 28 30  1  0
M  END
