
     RDKit          3D

 29 31  0  0  0  0  0  0  0  0999 V2000
   -6.5230    0.7060   -1.5830 C   0  0  0  0  0  0  0  0  0  0  0  0
   -5.3430    0.3060   -1.1650 C   0  0  0  0  0  0  0  0  0  0  0  0
   -4.2260    0.3240   -2.1470 C   0  0  0  0  0  0  0  0  0  0  0  0
   -3.0010   -0.0540   -1.8520 C   0  0  0  0  0  0  0  0  0  0  0  0
   -2.6890   -0.5140   -0.5200 C   0  0  0  0  0  0  0  0  0  0  0  0
   -1.3550   -0.9640   -0.1100 C   0  0  0  0  0  0  0  0  0  0  0  0
   -1.1010   -2.1380    0.5380 N   0  0  0  0  0  0  0  0  0  0  0  0
    0.2020   -2.1500    0.7840 N   0  0  0  0  0  0  0  0  0  0  0  0
    0.7420   -1.0220    0.3050 C   0  0  0  0  0  0  0  0  0  0  0  0
    2.1200   -0.6850    0.4060 N   0  0  0  0  0  0  0  0  0  0  0  0
    2.5900    0.0870    1.5720 C   0  0  0  0  0  0  0  0  0  0  0  0
    3.9700   -0.3450    2.0060 C   0  0  0  0  0  0  0  0  0  0  0  0
    4.9540   -0.3140    0.8680 C   0  0  2  0  0  0  0  0  0  0  0  0
    5.5360   -1.5920    0.7880 O   0  0  0  0  0  0  0  0  0  0  0  0
    6.0810    0.6640    1.1260 C   0  0  1  0  0  0  0  0  0  0  0  0
    6.9760    0.7090    0.1030 F   0  0  0  0  0  0  0  0  0  0  0  0
    5.5510    1.9080    1.3500 F   0  0  0  0  0  0  0  0  0  0  0  0
    4.2540   -0.0470   -0.4400 C   0  0  0  0  0  0  0  0  0  0  0  0
    3.1160   -1.0460   -0.5720 C   0  0  0  0  0  0  0  0  0  0  0  0
   -0.2320   -0.2740   -0.2580 N   0  0  0  0  0  0  0  0  0  0  0  0
   -0.0180    1.0280   -0.8420 C   0  0  0  0  0  0  0  0  0  0  0  0
    0.3880    0.9500   -2.2870 C   0  0  0  0  0  0  0  0  0  0  0  0
   -3.6290   -0.5600    0.4050 C   0  0  0  0  0  0  0  0  0  0  0  0
   -3.3370   -1.0140    1.7360 N   0  0  0  0  0  0  0  0  0  0  0  0
   -4.9980   -0.1500    0.1210 N   0  0  0  0  0  0  0  0  0  0  0  0
   -5.9580   -0.2120    1.1820 C   0  0  1  0  0  0  0  0  0  0  0  0
   -7.1860    0.2200    0.8670 F   0  0  0  0  0  0  0  0  0  0  0  0
   -5.9650   -1.5010    1.7200 F   0  0  0  0  0  0  0  0  0  0  0  0
   -5.3550    0.8320    2.5130 Cl  0  0  0  0  0  0  0  0  0  0  0  0
  1  2  2  0
  2  3  1  0
  2 25  1  0
  3  4  2  0
  4  5  1  0
  5  6  1  0
  5 23  2  0
  6  7  2  0
  6 20  1  0
  7  8  1  0
  8  9  2  0
  9 10  1  0
  9 20  1  0
 10 11  1  0
 10 19  1  0
 11 12  1  0
 12 13  1  0
 13 14  1  6
 13 15  1  0
 13 18  1  0
 15 16  1  6
 15 17  1  0
 18 19  1  0
 20 21  1  0
 21 22  1  0
 23 24  1  0
 23 25  1  0
 25 26  1  0
 26 27  1  6
 26 28  1  0
 26 29  1  0
M  END
