
     RDKit          3D

 28 30  0  0  0  0  0  0  0  0999 V2000
   -4.8470   -0.6540   -2.1240 C   0  0  0  0  0  0  0  0  0  0  0  0
   -4.4780   -0.6790   -0.6930 C   0  0  0  0  0  0  0  0  0  0  0  0
   -5.4080   -0.8400    0.3490 C   0  0  0  0  0  0  0  0  0  0  0  0
   -4.6740   -0.7640    1.4450 N   0  0  0  0  0  0  0  0  0  0  0  0
   -3.3730   -0.5710    1.1630 N   0  0  0  0  0  0  0  0  0  0  0  0
   -2.3700   -0.4900    2.2020 C   0  0  0  0  0  0  0  0  0  0  0  0
   -3.2150   -0.5130   -0.1730 C   0  0  0  0  0  0  0  0  0  0  0  0
   -1.9330   -0.3950   -0.8630 C   0  0  0  0  0  0  0  0  0  0  0  0
   -0.8490    0.2700   -0.3430 C   0  0  0  0  0  0  0  0  0  0  0  0
    0.3470    0.4430   -1.0380 C   0  0  0  0  0  0  0  0  0  0  0  0
    0.4590   -0.0690   -2.3020 C   0  0  0  0  0  0  0  0  0  0  0  0
    1.6920    0.2400   -2.7230 N   0  0  0  0  0  0  0  0  0  0  0  0
    2.3620    0.9220   -1.7850 C   0  0  0  0  0  0  0  0  0  0  0  0
    3.5910    1.3700   -1.8890 N   0  0  0  0  0  0  0  0  0  0  0  0
    1.5290    1.0500   -0.7380 N   0  0  0  0  0  0  0  0  0  0  0  0
    1.8080    1.7300    0.4610 C   0  0  0  0  0  0  0  0  0  0  0  0
    2.4760    1.0780    1.5970 C   0  0  0  0  0  0  0  0  0  0  0  0
    3.8200    0.5410    1.4030 C   0  0  0  0  0  0  0  0  0  0  0  0
    4.0910   -0.7690    0.8950 C   0  0  0  0  0  0  0  0  0  0  0  0
    3.2930   -1.7230    0.5290 C   0  0  0  0  0  0  0  0  0  0  0  0
    1.9610   -1.6220    0.5790 F   0  0  0  0  0  0  0  0  0  0  0  0
    3.7880   -2.8960    0.0670 F   0  0  0  0  0  0  0  0  0  0  0  0
    4.8570    1.3000    1.7370 C   0  0  0  0  0  0  0  0  0  0  0  0
    6.1350    0.8910    1.5940 F   0  0  0  0  0  0  0  0  0  0  0  0
    4.5680    2.8870    2.3850 Cl  0  0  0  0  0  0  0  0  0  0  0  0
   -0.6350   -0.7300   -2.8040 C   0  0  0  0  0  0  0  0  0  0  0  0
   -0.5540   -1.2070   -3.9610 O   0  0  0  0  0  0  0  0  0  0  0  0
   -1.7890   -0.8960   -2.1300 N   0  0  0  0  0  0  0  0  0  0  0  0
  1  2  1  0
  2  3  1  0
  2  7  2  0
  3  4  2  0
  4  5  1  0
  5  6  1  0
  5  7  1  0
  7  8  1  0
  8  9  2  0
  8 28  1  0
  9 10  1  0
 10 11  2  0
 10 15  1  0
 11 12  1  0
 11 26  1  0
 12 13  1  0
 13 14  2  0
 13 15  1  0
 15 16  1  0
 16 17  1  0
 17 18  1  0
 18 19  1  0
 18 23  2  3
 19 20  2  3
 20 21  1  0
 20 22  1  0
 23 24  1  0
 23 25  1  0
 26 27  2  0
 26 28  1  0
M  END
