
     RDKit          3D

 29 31  0  0  0  0  0  0  0  0999 V2000
   -3.3650   -2.9370    1.8230 N   0  0  0  0  0  0  0  0  0  0  0  0
   -2.8760   -1.8120    1.4370 C   0  0  0  0  0  0  0  0  0  0  0  0
   -3.6820   -0.9240    0.6130 C   0  0  0  0  0  0  0  0  0  0  0  0
   -3.2400    0.2690    0.1480 C   0  0  0  0  0  0  0  0  0  0  0  0
   -4.1990    1.0020   -0.6420 C   0  0  0  0  0  0  0  0  0  0  0  0
   -3.9290    2.1480   -1.2010 C   0  0  0  0  0  0  0  0  0  0  0  0
   -2.7490    2.7610   -1.1110 F   0  0  0  0  0  0  0  0  0  0  0  0
   -5.5880    0.4680   -0.8730 C   0  0  1  0  0  0  0  0  0  0  0  0
   -5.6170   -0.6960   -1.5680 F   0  0  0  0  0  0  0  0  0  0  0  0
   -6.2940    0.3200    0.2990 F   0  0  0  0  0  0  0  0  0  0  0  0
   -6.2700    1.4070   -1.6150 F   0  0  0  0  0  0  0  0  0  0  0  0
   -1.9000    0.6670    0.3530 N   0  0  0  0  0  0  0  0  0  0  0  0
   -1.5150    1.8330    0.8760 N   0  0  0  0  0  0  0  0  0  0  0  0
   -0.1780    1.9670    0.8460 C   0  0  0  0  0  0  0  0  0  0  0  0
    0.5220    2.9310    1.2520 O   0  0  0  0  0  0  0  0  0  0  0  0
    0.3200    0.8200    0.2700 C   0  0  0  0  0  0  0  0  0  0  0  0
    1.6040    0.3830   -0.0480 C   0  0  0  0  0  0  0  0  0  0  0  0
    1.8690   -0.8160   -0.6570 C   0  0  0  0  0  0  0  0  0  0  0  0
    3.1210   -1.2820   -0.9860 N   0  0  0  0  0  0  0  0  0  0  0  0
    4.3720   -0.6540   -0.7770 C   0  0  0  0  0  0  0  0  0  0  0  0
    4.5130    0.5440   -0.2000 N   0  0  0  0  0  0  0  0  0  0  0  0
    5.7140    1.1240   -0.0110 C   0  0  0  0  0  0  0  0  0  0  0  0
    6.8830    0.5010   -0.4100 C   0  0  0  0  0  0  0  0  0  0  0  0
    6.7420   -0.7310   -1.0040 C   0  0  0  0  0  0  0  0  0  0  0  0
    8.2040   -1.5500   -1.5230 Cl  0  0  0  0  0  0  0  0  0  0  0  0
    5.5280   -1.2610   -1.1670 N   0  0  0  0  0  0  0  0  0  0  0  0
    0.7510   -1.6040   -0.9540 C   0  0  0  0  0  0  0  0  0  0  0  0
   -0.5400   -1.2090   -0.6550 C   0  0  0  0  0  0  0  0  0  0  0  0
   -0.7590    0.0070   -0.0390 C   0  0  0  0  0  0  0  0  0  0  0  0
  1  2  2  0
  2  3  1  0
  3  4  2  3
  4  5  1  0
  4 12  1  0
  5  6  2  3
  5  8  1  0
  6  7  1  0
  8  9  1  6
  8 10  1  0
  8 11  1  0
 12 13  1  0
 12 29  1  0
 13 14  1  0
 14 15  2  0
 14 16  1  0
 16 17  2  0
 16 29  1  0
 17 18  1  0
 18 19  1  0
 18 27  2  0
 19 20  1  0
 20 21  2  0
 20 26  1  0
 21 22  1  0
 22 23  2  0
 23 24  1  0
 24 25  1  0
 24 26  2  0
 27 28  1  0
 28 29  2  0
M  END
