
     RDKit          3D

 29 31  0  0  0  0  0  0  0  0999 V2000
   -8.7920   -0.4500    1.3700 C   0  0  0  0  0  0  0  0  0  0  0  0
   -7.4050   -0.3640    0.8020 C   0  0  0  0  0  0  0  0  0  0  0  0
   -7.0340    0.0260   -0.4260 N   0  0  0  0  0  0  0  0  0  0  0  0
   -5.7010   -0.0390   -0.5360 C   0  0  0  0  0  0  0  0  0  0  0  0
   -4.7920    0.2320   -1.5370 C   0  0  0  0  0  0  0  0  0  0  0  0
   -5.4060    0.8040   -3.0810 Cl  0  0  0  0  0  0  0  0  0  0  0  0
   -3.4130    0.0610   -1.3450 C   0  0  0  0  0  0  0  0  0  0  0  0
   -2.9570   -0.3800   -0.1510 C   0  0  0  0  0  0  0  0  0  0  0  0
   -1.6230   -0.5970    0.1850 N   0  0  0  0  0  0  0  0  0  0  0  0
   -0.5300   -0.3840   -0.6930 C   0  0  0  0  0  0  0  0  0  0  0  0
   -0.6660    0.0250   -1.8670 O   0  0  0  0  0  0  0  0  0  0  0  0
    0.8670   -0.6600   -0.1930 C   0  0  0  0  0  0  0  0  0  0  0  0
    1.8200   -0.3800   -1.2350 N   0  0  0  0  0  0  0  0  0  0  0  0
    3.2310   -0.5830   -0.9580 C   0  0  0  0  0  0  0  0  0  0  0  0
    3.9240    0.4650   -0.5690 C   0  0  0  0  0  0  0  0  0  0  0  0
    3.3530    1.7800   -0.4100 N   0  0  0  0  0  0  0  0  0  0  0  0
    4.2090    2.6230   -0.0300 C   0  0  0  0  0  0  0  0  0  0  0  0
    5.5150    1.9950    0.1290 C   0  0  0  0  0  0  0  0  0  0  0  0
    6.6070    2.6190    0.5140 C   0  0  0  0  0  0  0  0  0  0  0  0
    6.5330    3.9730    0.7940 F   0  0  0  0  0  0  0  0  0  0  0  0
    7.8000    2.0510    0.6600 F   0  0  0  0  0  0  0  0  0  0  0  0
    5.3240    0.5790   -0.2250 C   0  0  0  0  0  0  0  0  0  0  0  0
    6.2670   -0.3260   -0.2070 C   0  0  0  0  0  0  0  0  0  0  0  0
    6.1870   -1.7460   -0.5320 C   0  0  2  0  0  0  0  0  0  0  0  0
    7.4090   -2.3600   -0.1590 F   0  0  0  0  0  0  0  0  0  0  0  0
    6.0170   -1.9590   -1.8980 F   0  0  0  0  0  0  0  0  0  0  0  0
   -3.9250   -0.6370    0.8210 C   0  0  0  0  0  0  0  0  0  0  0  0
   -5.2310   -0.4740    0.6350 N   0  0  0  0  0  0  0  0  0  0  0  0
   -6.2610   -0.6650    1.4300 N   0  0  0  0  0  0  0  0  0  0  0  0
  1  2  1  0
  2  3  1  0
  2 29  2  0
  3  4  2  0
  4  5  1  0
  4 28  1  0
  5  6  1  0
  5  7  2  0
  7  8  1  0
  8  9  1  0
  8 27  2  0
  9 10  1  0
 10 11  2  0
 10 12  1  0
 12 13  1  0
 13 14  1  0
 14 15  2  3
 15 16  1  0
 15 22  1  0
 16 17  2  0
 17 18  1  0
 18 19  2  3
 18 22  1  0
 19 20  1  0
 19 21  1  0
 22 23  2  3
 23 24  1  0
 24 25  1  6
 24 26  1  0
 27 28  1  0
 28 29  1  0
M  END
