
     RDKit          3D

 29 31  0  0  0  0  0  0  0  0999 V2000
    4.3100    2.9310    1.7390 N   0  0  0  0  0  0  0  0  0  0  0  0
    4.4140    1.7040    1.0560 C   0  0  0  0  0  0  0  0  0  0  0  0
    3.4060    1.4090    0.0380 C   0  0  0  0  0  0  0  0  0  0  0  0
    2.5240    0.4910    0.1540 C   0  0  0  0  0  0  0  0  0  0  0  0
    1.5410    0.2230   -0.9430 C   0  0  0  0  0  0  0  0  0  0  0  0
    0.3800   -0.3900   -0.7320 N   0  0  0  0  0  0  0  0  0  0  0  0
   -0.4250   -0.8480   -1.6910 C   0  0  0  0  0  0  0  0  0  0  0  0
   -1.7140   -1.4190   -1.3630 C   0  0  0  0  0  0  0  0  0  0  0  0
   -2.4970   -2.1900   -2.1920 N   0  0  0  0  0  0  0  0  0  0  0  0
   -3.6420   -2.4810   -1.6070 C   0  0  0  0  0  0  0  0  0  0  0  0
   -3.5970   -1.8750   -0.3710 C   0  0  0  0  0  0  0  0  0  0  0  0
   -4.6650   -1.9140    0.6900 C   0  0  1  0  0  0  0  0  0  0  0  0
   -5.6470   -2.8040    0.2800 F   0  0  0  0  0  0  0  0  0  0  0  0
   -4.0640   -2.3300    1.8520 F   0  0  0  0  0  0  0  0  0  0  0  0
   -5.3550   -0.2840    0.9200 Cl  0  0  0  0  0  0  0  0  0  0  0  0
   -2.4260   -1.2300   -0.2260 N   0  0  0  0  0  0  0  0  0  0  0  0
   -2.0410   -0.3980    0.8500 C   0  0  0  0  0  0  0  0  0  0  0  0
   -2.4340    0.9600    0.7590 C   0  0  0  0  0  0  0  0  0  0  0  0
   -2.1650    1.9000    1.6930 C   0  0  0  0  0  0  0  0  0  0  0  0
   -1.4620    1.4900    2.7910 N   0  0  0  0  0  0  0  0  0  0  0  0
   -1.0560    0.2450    2.9580 C   0  0  0  0  0  0  0  0  0  0  0  0
   -1.3480   -0.7220    1.9760 C   0  0  0  0  0  0  0  0  0  0  0  0
   -0.0360   -0.6760   -2.9940 C   0  0  0  0  0  0  0  0  0  0  0  0
    1.1680   -0.0320   -3.2270 C   0  0  0  0  0  0  0  0  0  0  0  0
    1.5270    0.1300   -4.4230 O   0  0  0  0  0  0  0  0  0  0  0  0
    1.9440    0.4100   -2.2250 N   0  0  0  0  0  0  0  0  0  0  0  0
    2.3940   -0.4240    1.3290 C   0  0  2  0  0  0  0  0  0  0  0  0
    2.9950    0.0030    2.4660 F   0  0  0  0  0  0  0  0  0  0  0  0
    2.8860   -1.7020    0.9460 F   0  0  0  0  0  0  0  0  0  0  0  0
  1  2  1  0
  2  3  1  0
  3  4  2  3
  4  5  1  0
  4 27  1  0
  5  6  2  0
  5 26  1  0
  6  7  1  0
  7  8  1  0
  7 23  2  0
  8  9  2  0
  8 16  1  0
  9 10  1  0
 10 11  2  0
 11 12  1  0
 11 16  1  0
 12 13  1  6
 12 14  1  0
 12 15  1  0
 16 17  1  0
 17 18  2  0
 17 22  1  0
 18 19  1  0
 19 20  2  0
 20 21  1  0
 21 22  2  0
 23 24  1  0
 24 25  2  0
 24 26  1  0
 27 28  1  1
 27 29  1  0
M  END
