
     RDKit          3D

 22 23  0  0  0  0  0  0  0  0999 V2000
    5.8170    0.9230   -0.3750 C   0  0  0  0  0  0  0  0  0  0  0  0
    4.9550    1.1420    0.8570 C   0  0  2  0  0  0  0  0  0  0  0  0
    5.3530    0.3770    1.9310 O   0  0  0  0  0  0  0  0  0  0  0  0
    3.5280    0.7730    0.5500 C   0  0  0  0  0  0  0  0  0  0  0  0
    2.9660    1.3560   -0.4000 O   0  0  0  0  0  0  0  0  0  0  0  0
    2.8380   -0.1850    1.2890 N   0  0  0  0  0  0  0  0  0  0  0  0
    1.5080   -0.6240    1.1160 C   0  0  0  0  0  0  0  0  0  0  0  0
    1.0810   -1.7220    1.8810 C   0  0  0  0  0  0  0  0  0  0  0  0
   -0.1910   -2.2260    1.7990 C   0  0  0  0  0  0  0  0  0  0  0  0
   -0.5730   -3.2960    2.5580 F   0  0  0  0  0  0  0  0  0  0  0  0
   -1.0700   -1.6170    0.9270 C   0  0  0  0  0  0  0  0  0  0  0  0
   -2.3250   -2.0980    0.8330 F   0  0  0  0  0  0  0  0  0  0  0  0
   -0.7070   -0.5400    0.1540 C   0  0  0  0  0  0  0  0  0  0  0  0
   -1.6690    0.1090   -0.7850 C   0  0  0  0  0  0  0  0  0  0  0  0
   -1.2640    1.1960   -1.5500 C   0  0  0  0  0  0  0  0  0  0  0  0
   -2.7890    1.5790   -2.4870 S   0  0  0  0  0  0  0  0  0  0  0  0
   -3.7250    0.2260   -1.7060 C   0  0  0  0  0  0  0  0  0  0  0  0
   -5.1770   -0.0290   -2.0680 C   0  0  0  0  0  0  0  0  0  0  0  0
   -5.9790    0.8180   -1.0920 C   0  0  0  0  0  0  0  0  0  0  0  0
   -5.6290    0.3430    0.1920 O   0  0  0  0  0  0  0  0  0  0  0  0
   -2.9080   -0.2650   -0.9610 N   0  0  0  0  0  0  0  0  0  0  0  0
    0.5780   -0.0710    0.2700 C   0  0  0  0  0  0  0  0  0  0  0  0
  2  1  1  6
  2  3  1  0
  2  4  1  0
  4  5  2  0
  4  6  1  0
  6  7  1  0
  7  8  2  0
  7 22  1  0
  8  9  1  0
  9 10  1  0
  9 11  2  0
 11 12  1  0
 11 13  1  0
 13 14  1  0
 13 22  2  0
 14 15  2  0
 14 21  1  0
 15 16  1  0
 16 17  1  0
 17 18  1  0
 17 21  2  0
 18 19  1  0
 19 20  1  0
M  END
