
     RDKit          3D

 22 23  0  0  0  0  0  0  0  0999 V2000
    3.1680    0.6630    0.9740 O   0  0  0  0  0  0  0  0  0  0  0  0
    2.7910   -0.5030    0.8630 C   0  0  0  0  0  0  0  0  0  0  0  0
    3.8240   -1.5050    0.9260 N   0  0  0  0  0  0  0  0  0  0  0  0
    5.2000   -1.1780    1.1050 C   0  0  0  0  0  0  0  0  0  0  0  0
    5.7550   -0.2970    0.0070 C   0  0  0  0  0  0  0  0  0  0  0  0
    5.6350   -0.9450   -1.2000 O   0  0  0  0  0  0  0  0  0  0  0  0
    1.4470   -0.8490    0.6870 N   0  0  0  0  0  0  0  0  0  0  0  0
    0.3530    0.0710    0.6240 C   0  0  0  0  0  0  0  0  0  0  0  0
    0.4450    1.3870    1.0060 C   0  0  0  0  0  0  0  0  0  0  0  0
   -0.6610    2.1800    0.8860 C   0  0  0  0  0  0  0  0  0  0  0  0
   -1.9050    1.7230    0.3880 C   0  0  0  0  0  0  0  0  0  0  0  0
   -2.9680    2.7260    0.3450 C   0  0  2  0  0  0  0  0  0  0  0  0
   -3.8360    2.6690    1.4590 F   0  0  0  0  0  0  0  0  0  0  0  0
   -3.6710    2.7740   -0.7910 F   0  0  0  0  0  0  0  0  0  0  0  0
   -1.9840    0.4250    0.0140 C   0  0  0  0  0  0  0  0  0  0  0  0
   -3.1850   -0.2130   -0.4700 C   0  0  0  0  0  0  0  0  0  0  0  0
   -3.0350   -1.2940   -1.2830 C   0  0  0  0  0  0  0  0  0  0  0  0
   -4.1080   -2.0290   -1.8280 N   0  0  0  0  0  0  0  0  0  0  0  0
   -5.3750   -1.6210   -1.5050 O   0  0  0  0  0  0  0  0  0  0  0  0
   -5.6170   -0.5440   -0.6870 C   0  0  0  0  0  0  0  0  0  0  0  0
   -4.5510    0.1270   -0.1910 C   0  0  0  0  0  0  0  0  0  0  0  0
   -0.8420   -0.3890    0.1410 C   0  0  0  0  0  0  0  0  0  0  0  0
  1  2  2  0
  2  3  1  0
  2  7  1  0
  3  4  1  0
  4  5  1  0
  5  6  1  0
  7  8  1  0
  8  9  2  0
  8 22  1  0
  9 10  1  0
 10 11  2  0
 11 12  1  0
 11 15  1  0
 12 13  1  1
 12 14  1  0
 15 16  1  0
 15 22  2  0
 16 17  2  0
 16 21  1  0
 17 18  1  0
 18 19  1  0
 19 20  1  0
 20 21  2  0
M  END
