
     RDKit          3D

 22 23  0  0  0  0  0  0  0  0999 V2000
    4.9040    0.4460    2.1370 C   0  0  0  0  0  0  0  0  0  0  0  0
    3.8410    0.6540    1.0820 C   0  0  0  0  0  0  0  0  0  0  0  0
    2.7330    0.1760    1.3330 O   0  0  0  0  0  0  0  0  0  0  0  0
    4.2210    1.3830   -0.1000 C   0  0  0  0  0  0  0  0  0  0  0  0
    3.4400    1.6410   -1.0900 C   0  0  0  0  0  0  0  0  0  0  0  0
    3.9840    2.3800   -2.1860 O   0  0  0  0  0  0  0  0  0  0  0  0
    2.0120    1.2070   -1.1440 C   0  0  0  0  0  0  0  0  0  0  0  0
    1.1540    0.6480   -0.6550 N   0  0  0  0  0  0  0  0  0  0  0  0
   -0.1080    0.4520   -0.9870 C   0  0  0  0  0  0  0  0  0  0  0  0
   -1.0470   -0.3550   -0.1710 C   0  0  0  0  0  0  0  0  0  0  0  0
   -0.6180   -1.1230    0.8980 C   0  0  0  0  0  0  0  0  0  0  0  0
   -1.4420   -1.8700    1.7060 C   0  0  0  0  0  0  0  0  0  0  0  0
   -2.7880   -1.8690    1.4500 C   0  0  0  0  0  0  0  0  0  0  0  0
   -3.7100   -2.6100    2.2300 N   0  0  0  0  0  0  0  0  0  0  0  0
   -3.2790   -1.1180    0.3900 C   0  0  0  0  0  0  0  0  0  0  0  0
   -2.4070   -0.3760   -0.4010 C   0  0  0  0  0  0  0  0  0  0  0  0
   -2.9490    0.3420   -1.4260 O   0  0  0  0  0  0  0  0  0  0  0  0
   -4.2320    0.5030   -1.8740 C   0  0  1  0  0  0  0  0  0  0  0  0
   -4.6530    1.8450   -1.7730 F   0  0  0  0  0  0  0  0  0  0  0  0
   -4.4040    0.1740   -3.2140 F   0  0  0  0  0  0  0  0  0  0  0  0
   -0.4200    1.0570   -2.1650 C   0  0  0  0  0  0  0  0  0  0  0  0
    1.0660    1.8430   -2.7090 S   0  0  0  0  0  0  0  0  0  0  0  0
  1  2  1  0
  2  3  2  0
  2  4  1  0
  4  5  2  3
  5  6  1  0
  5  7  1  0
  7  8  2  0
  7 22  1  0
  8  9  1  0
  9 10  1  0
  9 21  2  0
 10 11  2  0
 10 16  1  0
 11 12  1  0
 12 13  2  0
 13 14  1  0
 13 15  1  0
 15 16  2  0
 16 17  1  0
 17 18  1  0
 18 19  1  6
 18 20  1  0
 21 22  1  0
M  END
