
     RDKit          3D

 15 15  0  0  0  0  0  0  0  0999 V2000
    4.1300    0.3680    0.4040 C   0  0  0  0  0  0  0  0  0  0  0  0
    3.3170   -0.9060    0.5630 C   0  0  0  0  0  0  0  0  0  0  0  0
    1.8340   -0.6090    0.6350 C   0  0  0  0  0  0  0  0  0  0  0  0
    1.3790    0.0860   -0.6290 C   0  0  0  0  0  0  0  0  0  0  0  0
   -0.0240    0.3920   -0.6130 N   0  0  2  0  0  0  0  0  0  0  0  0
   -0.2590    1.4770    0.2930 C   0  0  0  0  0  0  0  0  0  0  0  0
   -1.7100    1.8760    0.3850 C   0  0  2  0  0  0  0  0  0  0  0  0
   -1.8520    2.7710    1.4370 O   0  0  0  0  0  0  0  0  0  0  0  0
   -2.4660    0.6080    0.7920 C   0  0  1  0  0  0  0  0  0  0  0  0
   -3.7840    0.8570    1.0850 O   0  0  0  0  0  0  0  0  0  0  0  0
   -2.3040   -0.3190   -0.4180 C   0  0  2  0  0  0  0  0  0  0  0  0
   -3.1790   -1.3820   -0.3690 O   0  0  0  0  0  0  0  0  0  0  0  0
   -0.8550   -0.7560   -0.3910 C   0  0  1  0  0  0  0  0  0  0  0  0
   -0.6590   -1.7280   -1.5320 C   0  0  0  0  0  0  0  0  0  0  0  0
   -1.4610   -2.8720   -1.3490 O   0  0  0  0  0  0  0  0  0  0  0  0
  1  2  1  0
  2  3  1  0
  3  4  1  0
  5  4  1  1
  5  6  1  0
  5 13  1  0
  6  7  1  0
  7  8  1  1
  7  9  1  0
  9 10  1  6
  9 11  1  0
 11 12  1  1
 11 13  1  0
 13 14  1  6
 14 15  1  0
M  CHG  1   5   1
M  END
