
     RDKit          3D

 22 23  0  0  0  0  0  0  0  0999 V2000
   -5.1120    0.7740   -0.1110 N   0  0  0  0  0  0  0  0  0  0  0  0
   -4.7210    0.7110    1.2410 C   0  0  0  0  0  0  0  0  0  0  0  0
   -5.5790    1.3150    2.2470 C   0  0  0  0  0  0  0  0  0  0  0  0
   -6.6520    1.8880    1.9400 O   0  0  0  0  0  0  0  0  0  0  0  0
   -3.6220    0.1250    1.5610 N   0  0  0  0  0  0  0  0  0  0  0  0
   -2.7710   -0.4710    0.5910 C   0  0  0  0  0  0  0  0  0  0  0  0
   -3.2980   -1.3210   -0.3670 C   0  0  0  0  0  0  0  0  0  0  0  0
   -2.5120   -1.9270   -1.3330 C   0  0  0  0  0  0  0  0  0  0  0  0
   -1.1550   -1.6850   -1.3550 C   0  0  0  0  0  0  0  0  0  0  0  0
   -0.3150   -2.2650   -2.3000 O   0  0  0  0  0  0  0  0  0  0  0  0
   -0.6330   -0.8390   -0.4010 C   0  0  0  0  0  0  0  0  0  0  0  0
    0.7210   -0.5850   -0.4070 O   0  0  0  0  0  0  0  0  0  0  0  0
    1.3400    0.2570    0.5180 C   0  0  0  0  0  0  0  0  0  0  0  0
    2.7800    0.3040    0.2270 C   0  0  0  0  0  0  0  0  0  0  0  0
    3.8230   -0.4270    0.6400 C   0  0  0  0  0  0  0  0  0  0  0  0
    5.0610   -0.1650    0.2100 C   0  0  0  0  0  0  0  0  0  0  0  0
    5.2110    0.8930   -0.6770 C   0  0  0  0  0  0  0  0  0  0  0  0
    6.4460    1.4250   -1.3260 C   0  0  2  0  0  0  0  0  0  0  0  0
    6.9630    0.4110   -2.1170 F   0  0  0  0  0  0  0  0  0  0  0  0
    7.3340    1.8210   -0.3560 F   0  0  0  0  0  0  0  0  0  0  0  0
    3.5570    1.4890   -0.8730 S   0  0  0  0  0  0  0  0  0  0  0  0
   -1.4050   -0.2330    0.5620 C   0  0  0  0  0  0  0  0  0  0  0  0
  1  2  1  0
  2  3  1  0
  2  5  2  3
  3  4  2  0
  5  6  1  0
  6  7  2  0
  6 22  1  0
  7  8  1  0
  8  9  2  0
  9 10  1  0
  9 11  1  0
 11 12  1  0
 11 22  2  0
 12 13  1  0
 13 14  1  0
 14 15  2  0
 14 21  1  0
 15 16  1  0
 16 17  2  0
 17 18  1  0
 17 21  1  0
 18 19  1  1
 18 20  1  0
M  END
