
     RDKit          3D

 18 18  0  0  0  0  0  0  0  0999 V2000
    7.4620    0.7420    0.3390 C   0  0  0  0  0  0  0  0  0  0  0  0
    6.4730    0.1100   -0.4380 O   0  0  0  0  0  0  0  0  0  0  0  0
    5.1160    0.1480   -0.1330 C   0  0  0  0  0  0  0  0  0  0  0  0
    4.8080    0.7900    0.8950 O   0  0  0  0  0  0  0  0  0  0  0  0
    4.1630   -0.5210   -0.9730 C   0  0  0  0  0  0  0  0  0  0  0  0
    2.8570   -0.5340   -0.7560 C   0  0  0  0  0  0  0  0  0  0  0  0
    2.1050    0.0830    0.3150 C   0  0  0  0  0  0  0  0  0  0  0  0
    0.7810   -0.1660    0.1790 C   0  0  0  0  0  0  0  0  0  0  0  0
   -0.4530    0.4380    1.3190 S   0  0  0  0  0  0  0  0  0  0  0  0
   -2.0830   -0.0440    0.8860 C   0  0  0  0  0  0  0  0  0  0  0  0
   -2.3010   -0.7400   -0.1300 O   0  0  0  0  0  0  0  0  0  0  0  0
   -3.2240    0.3300    1.6590 N   0  0  0  0  0  0  0  0  0  0  0  0
   -4.5180   -0.0980    1.2460 C   0  0  0  0  0  0  0  0  0  0  0  0
   -4.9520    0.3640   -0.1070 C   0  0  0  0  0  0  0  0  0  0  0  0
   -6.3000   -0.1850   -0.3260 N   0  0  0  0  0  0  0  0  0  0  0  0
    0.6500   -0.9710   -1.0160 C   0  0  0  0  0  0  0  0  0  0  0  0
   -0.3760   -1.4370   -1.5340 O   0  0  0  0  0  0  0  0  0  0  0  0
    1.9120   -1.1720   -1.5500 O   0  0  0  0  0  0  0  0  0  0  0  0
  1  2  1  0
  2  3  1  0
  3  4  2  0
  3  5  1  0
  5  6  2  3
  6  7  1  0
  6 18  1  0
  7  8  2  0
  8  9  1  0
  8 16  1  0
  9 10  1  0
 10 11  2  0
 10 12  1  0
 12 13  1  0
 13 14  1  0
 14 15  1  0
 16 17  2  0
 16 18  1  0
M  CHG  1  15   1
M  END
