
     RDKit          3D

 18 18  0  0  0  0  0  0  0  0999 V2000
    6.8980    1.6050   -0.7780 C   0  0  0  0  0  0  0  0  0  0  0  0
    5.8040    1.0450   -1.5100 O   0  0  0  0  0  0  0  0  0  0  0  0
    4.5620    0.8410   -0.9280 C   0  0  0  0  0  0  0  0  0  0  0  0
    4.4370    1.1720    0.2770 O   0  0  0  0  0  0  0  0  0  0  0  0
    3.4540    0.2950   -1.6010 N   0  0  0  0  0  0  0  0  0  0  0  0
    2.2200    0.0900   -1.0320 O   0  0  0  0  0  0  0  0  0  0  0  0
    2.1440   -0.6650    0.1230 C   0  0  0  0  0  0  0  0  0  0  0  0
    3.1960   -1.1290    0.6050 O   0  0  0  0  0  0  0  0  0  0  0  0
    0.8230   -0.8950    0.7480 C   0  0  0  0  0  0  0  0  0  0  0  0
   -0.4530   -0.0680   -0.2350 S   0  0  0  0  0  0  0  0  0  0  0  0
   -2.0660   -0.3210    0.4840 C   0  0  0  0  0  0  0  0  0  0  0  0
   -2.3980   -0.9930    1.5690 C   0  0  0  0  0  0  0  0  0  0  0  0
   -3.8530   -0.9650    1.8290 C   0  0  0  0  0  0  0  0  0  0  0  0
   -4.4360   -0.1490    0.7170 C   0  0  0  0  0  0  0  0  0  0  0  0
   -5.6800    0.0940    0.6090 N   0  0  0  0  0  0  0  0  0  0  0  0
   -3.2980    0.2430   -0.1120 C   0  0  0  0  0  0  0  0  0  0  0  0
   -3.3580    0.9750   -1.2040 C   0  0  0  0  0  0  0  0  0  0  0  0
   -4.5530    1.4480   -1.6700 O   0  0  0  0  0  0  0  0  0  0  0  0
  1  2  1  0
  2  3  1  0
  3  4  2  0
  3  5  1  0
  5  6  1  0
  6  7  1  0
  7  8  2  0
  7  9  1  0
  9 10  1  0
 10 11  1  0
 11 12  2  0
 11 16  1  0
 12 13  1  0
 13 14  1  0
 14 15  2  0
 14 16  1  0
 16 17  2  3
 17 18  1  0
M  CHG  1  15   1
M  END
