
     RDKit          3D

 18 18  0  0  0  0  0  0  0  0999 V2000
   -4.4450   -0.6400    0.3400 N   0  0  0  0  0  0  0  0  0  0  0  0
   -3.4700    0.0310   -0.5340 C   0  0  0  0  0  0  0  0  0  0  0  0
   -2.3050    0.4420    0.2700 C   0  0  0  0  0  0  0  0  0  0  0  0
   -2.6170    1.3290    1.3310 O   0  0  0  0  0  0  0  0  0  0  0  0
   -1.0540    0.0690    0.0900 C   0  0  0  0  0  0  0  0  0  0  0  0
    0.1990    0.7090    1.2140 S   0  0  0  0  0  0  0  0  0  0  0  0
    0.4360    2.4680    0.8480 C   0  0  0  0  0  0  0  0  0  0  0  0
    1.1150    2.6700   -0.4610 C   0  0  0  0  0  0  0  0  0  0  0  0
    0.7560    3.6940   -1.1010 O   0  0  0  0  0  0  0  0  0  0  0  0
    2.0520    1.7650   -0.8740 O   0  0  0  0  0  0  0  0  0  0  0  0
    3.1330    1.2900   -0.1090 C   0  0  0  0  0  0  0  0  0  0  0  0
    3.4660   -0.1440   -0.3540 C   0  0  0  0  0  0  0  0  0  0  0  0
    2.3980   -0.9240   -0.7140 O   0  0  0  0  0  0  0  0  0  0  0  0
    2.2630   -2.0180    0.1690 C   0  0  0  0  0  0  0  0  0  0  0  0
    0.7780   -2.3430    0.3630 C   0  0  0  0  0  0  0  0  0  0  0  0
    0.1180   -1.9750   -0.8630 N   0  0  0  0  0  0  0  0  0  0  0  0
   -0.7070   -0.8230   -1.0040 C   0  0  0  0  0  0  0  0  0  0  0  0
   -1.1460   -0.6000   -2.1860 O   0  0  0  0  0  0  0  0  0  0  0  0
  1  2  1  0
  2  3  1  0
  3  4  1  0
  3  5  2  3
  5  6  1  0
  5 17  1  0
  6  7  1  0
  7  8  1  0
  8  9  2  0
  8 10  1  0
 10 11  1  0
 11 12  1  0
 12 13  1  0
 13 14  1  0
 14 15  1  0
 15 16  1  0
 16 17  1  0
 17 18  2  0
M  CHG  1   1   1
M  END
