
     RDKit          3D

 18 18  0  0  0  0  0  0  0  0999 V2000
   -6.6140    0.8290    0.5700 C   0  0  0  0  0  0  0  0  0  0  0  0
   -5.1990    0.9020    0.5260 O   0  0  0  0  0  0  0  0  0  0  0  0
   -4.4240   -0.1850    0.1770 C   0  0  0  0  0  0  0  0  0  0  0  0
   -4.9870   -1.2690   -0.1100 O   0  0  0  0  0  0  0  0  0  0  0  0
   -2.9740   -0.0690    0.1430 C   0  0  0  0  0  0  0  0  0  0  0  0
   -2.2570   -1.1250   -0.1940 C   0  0  0  0  0  0  0  0  0  0  0  0
   -0.8060   -1.0780   -0.2480 C   0  0  0  0  0  0  0  0  0  0  0  0
   -0.1800   -2.1050   -0.5730 O   0  0  0  0  0  0  0  0  0  0  0  0
   -0.0600    0.0770    0.0510 N   0  0  0  0  0  0  0  0  0  0  0  0
    1.3800    0.0300   -0.0280 C   0  0  0  0  0  0  0  0  0  0  0  0
    1.9380    0.3100    1.1350 C   0  0  0  0  0  0  0  0  0  0  0  0
    3.3880    0.3590    1.4440 C   0  0  0  0  0  0  0  0  0  0  0  0
    4.0420   -0.8250    1.1080 O   0  0  0  0  0  0  0  0  0  0  0  0
    4.5530   -0.6890   -0.5000 S   0  0  0  0  0  0  0  0  0  0  0  0
    5.5200    0.5350   -0.6150 N   0  0  0  0  0  0  0  0  0  0  0  0
    3.1960   -0.6060   -1.6050 C   0  0  0  0  0  0  0  0  0  0  0  0
    3.4600   -0.8860   -2.9220 O   0  0  0  0  0  0  0  0  0  0  0  0
    1.9340   -0.3060   -1.3350 C   0  0  0  0  0  0  0  0  0  0  0  0
  1  2  1  0
  2  3  1  0
  3  4  2  0
  3  5  1  0
  5  6  2  3
  6  7  1  0
  7  8  2  0
  7  9  1  0
  9 10  1  0
 10 11  2  0
 10 18  1  0
 11 12  1  0
 12 13  1  0
 14 13  1  1
 14 15  2  0
 14 16  1  0
 16 17  1  0
 16 18  2  0
M  CHG  1  15   1
M  END
