
     RDKit          3D

 10  9  0  0  0  0  0  0  0  0999 V2000
    2.7010    0.3590   -0.0200 C   0  0  0  0  0  0  0  0  0  0  0  0
    1.7060   -0.2090    0.7830 O   0  0  0  0  0  0  0  0  0  0  0  0
    0.6980   -0.6650   -0.0460 C   0  0  1  0  0  0  0  0  0  0  0  0
    0.5040   -2.0550    0.1200 O   0  0  0  0  0  0  0  0  0  0  0  0
   -0.6290   -0.0230    0.3410 C   0  0  2  0  0  0  0  0  0  0  0  0
   -0.9100   -0.3640    1.6470 O   0  0  0  0  0  0  0  0  0  0  0  0
   -1.6580   -0.6060   -0.6290 C   0  0  0  0  0  0  0  0  0  0  0  0
   -1.2660   -0.1930   -1.9050 O   0  0  0  0  0  0  0  0  0  0  0  0
   -0.5230    1.4580    0.1900 C   0  0  0  0  0  0  0  0  0  0  0  0
   -1.7400    2.0510    0.5630 O   0  0  0  0  0  0  0  0  0  0  0  0
  1  2  1  0
  2  3  1  0
  3  4  1  1
  3  5  1  0
  5  6  1  1
  5  7  1  0
  5  9  1  0
  7  8  1  0
  9 10  1  0
M  END
