
     RDKit          3D

  9  9  0  0  0  0  0  0  0  0999 V2000
    2.4430   -0.7960    0.4470 O   0  0  0  0  0  0  0  0  0  0  0  0
    1.8860   -0.0070   -0.5660 C   0  0  0  0  0  0  0  0  0  0  0  0
    0.4930    0.3540   -0.1270 C   0  0  1  0  0  0  0  0  0  0  0  0
   -0.1720    1.1460   -1.0580 O   0  0  0  0  0  0  0  0  0  0  0  0
   -1.3390    1.6310   -0.4920 C   0  0  0  0  0  0  0  0  0  0  0  0
   -1.6970    1.0490    0.6830 O   0  0  0  0  0  0  0  0  0  0  0  0
   -1.6470   -0.3190    0.7320 C   0  0  0  0  0  0  0  0  0  0  0  0
   -0.3820   -0.8700    0.0560 C   0  0  2  0  0  0  0  0  0  0  0  0
    0.2190   -1.8490    0.8090 O   0  0  0  0  0  0  0  0  0  0  0  0
  1  2  1  0
  3  2  1  6
  3  4  1  0
  3  8  1  0
  4  5  1  0
  5  6  1  0
  6  7  1  0
  7  8  1  0
  8  9  1  1
M  END
