
     RDKit          3D

  9  9  0  0  0  0  0  0  0  0999 V2000
    2.1240    1.4190   -0.0610 O   0  0  0  0  0  0  0  0  0  0  0  0
    2.0510    0.1660    0.5480 C   0  0  0  0  0  0  0  0  0  0  0  0
    1.4020   -0.7850   -0.1740 O   0  0  0  0  0  0  0  0  0  0  0  0
    0.1160   -0.5980   -0.5120 C   0  0  1  0  0  0  0  0  0  0  0  0
   -0.3300   -1.7060   -1.2480 O   0  0  0  0  0  0  0  0  0  0  0  0
   -0.8410   -0.4610    0.6790 C   0  0  0  0  0  0  0  0  0  0  0  0
   -2.0620    0.0860   -0.0540 C   0  0  0  0  0  0  0  0  0  0  0  0
   -1.6710    0.4840   -1.3010 O   0  0  0  0  0  0  0  0  0  0  0  0
   -0.2620    0.6220   -1.2720 C   0  0  0  0  0  0  0  0  0  0  0  0
  1  2  1  0
  2  3  1  0
  3  4  1  0
  4  5  1  6
  4  6  1  0
  4  9  1  0
  6  7  1  0
  7  8  1  0
  8  9  1  0
M  END
