
     RDKit          3D

 12 13  0  0  0  0  0  0  0  0999 V2000
    1.3200    2.5220    0.3020 O   0  0  0  0  0  0  0  0  0  0  0  0
    1.3800    1.2670    0.2360 C   0  0  0  0  0  0  0  0  0  0  0  0
    2.5650    0.6570    0.3790 N   0  0  0  0  0  0  0  0  0  0  0  0
    2.5990   -0.6800    0.3040 C   0  0  0  0  0  0  0  0  0  0  0  0
    1.4790   -1.4530    0.0880 C   0  0  0  0  0  0  0  0  0  0  0  0
    0.2640   -0.8030   -0.0570 C   0  0  0  0  0  0  0  0  0  0  0  0
   -0.8960   -1.5370   -0.2760 C   0  0  0  0  0  0  0  0  0  0  0  0
   -2.0780   -0.8350   -0.4130 C   0  0  0  0  0  0  0  0  0  0  0  0
   -2.1550    0.5390   -0.3430 C   0  0  0  0  0  0  0  0  0  0  0  0
   -3.3850    1.2100   -0.4880 O   0  0  0  0  0  0  0  0  0  0  0  0
   -0.9940    1.2500   -0.1240 C   0  0  0  0  0  0  0  0  0  0  0  0
    0.2040    0.5770    0.0170 C   0  0  0  0  0  0  0  0  0  0  0  0
  1  2  2  0
  2  3  1  0
  2 12  1  0
  3  4  1  0
  4  5  2  0
  5  6  1  0
  6  7  2  0
  6 12  1  0
  7  8  1  0
  8  9  2  0
  9 10  1  0
  9 11  1  0
 11 12  2  0
M  END
