
     RDKit          3D

 27 27  0  0  0  0  0  0  0  0999 V2000
   -2.6250   -2.2070   -0.8670 C   0  0  0  0  0  0  0  0  0  0  0  0
   -2.9430   -0.7210   -0.9200 C   0  0  2  0  0  0  0  0  0  0  0  0
   -3.0780   -0.2990   -2.3510 C   0  0  0  0  0  0  0  0  0  0  0  0
   -2.0060    0.0190   -0.1980 O   0  0  0  0  0  0  0  0  0  0  0  0
   -0.6380    0.0960   -0.3780 C   0  0  0  0  0  0  0  0  0  0  0  0
   -0.1440   -0.5750   -1.2910 O   0  0  0  0  0  0  0  0  0  0  0  0
    0.0950    0.9510    0.5120 C   0  0  0  0  0  0  0  0  0  0  0  0
    1.4730    0.8330    0.7880 N   0  0  0  0  0  0  0  0  0  0  0  0
    2.1840   -0.1510    1.5340 C   0  0  0  0  0  0  0  0  0  0  0  0
    2.4250   -1.4600    0.9210 C   0  0  0  0  0  0  0  0  0  0  0  0
    2.8450   -2.4410    1.6660 O   0  0  0  0  0  0  0  0  0  0  0  0
    2.2690   -1.8100   -0.3960 O   0  0  0  0  0  0  0  0  0  0  0  0
    2.5280   -3.0630   -0.9600 C   0  0  0  0  0  0  0  0  0  0  0  0
    3.9570   -3.4380   -0.8280 C   0  0  0  0  0  0  0  0  0  0  0  0
    4.2700   -4.5680   -1.3600 O   0  0  0  0  0  0  0  0  0  0  0  0
    4.9120   -2.6940   -0.2020 O   0  0  0  0  0  0  0  0  0  0  0  0
    2.3100    1.8700    0.1940 C   0  0  0  0  0  0  0  0  0  0  0  0
    3.1010    1.5250   -0.7320 N   0  0  0  0  0  0  0  0  0  0  0  0
    2.2110    3.1810    0.6550 N   0  0  0  0  0  0  0  0  0  0  0  0
    3.2020    4.5260   -0.0600 P   0  0  0  0  0  0  0  0  0  0  0  0
    3.9200    5.4560    1.2000 O   0  0  0  0  0  0  0  0  0  0  0  0
    2.2280    5.5070   -1.0970 O   0  0  0  0  0  0  0  0  0  0  0  0
   -4.2670   -0.5590   -0.1960 C   0  0  0  0  0  0  0  0  0  0  0  0
   -4.5710    0.3930    0.6870 N   0  0  0  0  0  0  0  0  0  0  0  0
   -5.8180    0.2070    1.1400 C   0  0  0  0  0  0  0  0  0  0  0  0
   -6.3140   -0.8790    0.5360 N   0  0  0  0  0  0  0  0  0  0  0  0
   -5.3480   -1.3320   -0.2790 N   0  0  0  0  0  0  0  0  0  0  0  0
  2  1  1  6
  2  3  1  0
  2  4  1  0
  2 23  1  0
  4  5  1  0
  5  6  2  0
  5  7  1  0
  7  8  1  0
  8  9  1  0
  8 17  1  0
  9 10  1  0
 10 11  2  0
 10 12  1  0
 12 13  1  0
 13 14  1  0
 14 15  2  0
 14 16  1  0
 17 18  2  0
 17 19  1  0
 19 20  1  0
 20 21  1  0
 20 22  1  0
 23 24  1  0
 23 27  2  0
 24 25  2  0
 25 26  1  0
 26 27  1  0
M  END
