
     RDKit          3D

 28 28  0  0  0  0  0  0  0  0999 V2000
   -1.0910   -1.4010    2.0670 O   0  0  0  0  0  0  0  0  0  0  0  0
   -2.0770   -1.0340    1.3970 C   0  0  0  0  0  0  0  0  0  0  0  0
   -3.0880   -1.9840    1.1150 N   0  0  0  0  0  0  0  0  0  0  0  0
   -3.0190   -3.3600    1.5710 C   0  0  0  0  0  0  0  0  0  0  0  0
   -4.1670   -4.0630    1.1540 O   0  0  0  0  0  0  0  0  0  0  0  0
   -2.1670    0.3420    0.9260 C   0  0  0  0  0  0  0  0  0  0  0  0
   -1.2670    1.2230    1.1740 N   0  0  0  0  0  0  0  0  0  0  0  0
   -0.1210    0.9040    1.9280 C   0  0  0  0  0  0  0  0  0  0  0  0
   -0.1610    0.7340    3.2620 N   0  0  0  0  0  0  0  0  0  0  0  0
    0.8950    0.4560    4.0220 C   0  0  0  0  0  0  0  0  0  0  0  0
    2.0900    0.3390    3.3990 N   0  0  0  0  0  0  0  0  0  0  0  0
    2.1920    0.4980    2.0730 C   0  0  0  0  0  0  0  0  0  0  0  0
    3.5530    0.3740    1.4540 C   0  0  0  0  0  0  0  0  0  0  0  0
    4.0680    1.6460    1.0740 N   0  0  0  0  0  0  0  0  0  0  0  0
    5.3510    1.6890    0.4830 C   0  0  0  0  0  0  0  0  0  0  0  0
    5.4570    1.0830   -0.8950 C   0  0  0  0  0  0  0  0  0  0  0  0
    5.1220   -0.2500   -0.9140 O   0  0  0  0  0  0  0  0  0  0  0  0
    5.2390   -0.9280   -2.4930 P   0  0  0  0  0  0  0  0  0  0  0  0
    6.8980   -0.9360   -3.0400 O   0  0  0  0  0  0  0  0  0  0  0  0
    4.6920   -2.5930   -2.3760 O   0  0  0  0  0  0  0  0  0  0  0  0
    1.1070    0.7760    1.3410 N   0  0  0  0  0  0  0  0  0  0  0  0
   -3.3250    0.7620    0.1460 N   0  0  0  0  0  0  0  0  0  0  0  0
   -3.0530    1.6480   -0.9560 C   0  0  0  0  0  0  0  0  0  0  0  0
   -4.3050    2.1310   -1.6400 C   0  0  0  0  0  0  0  0  0  0  0  0
   -5.3850    0.8580   -2.3390 P   0  0  0  0  0  0  0  0  0  0  0  0
   -6.0630   -0.2280   -1.2180 O   0  0  0  0  0  0  0  0  0  0  0  0
   -4.8740    0.1650   -3.8170 O   0  0  0  0  0  0  0  0  0  0  0  0
   -5.6620   -0.8190   -4.1990 O   0  0  0  0  0  0  0  0  0  0  0  0
  1  2  2  0
  2  3  1  0
  2  6  1  0
  3  4  1  0
  4  5  1  0
  6  7  2  3
  6 22  1  0
  7  8  1  0
  8  9  2  0
  8 21  1  0
  9 10  1  0
 10 11  2  0
 11 12  1  0
 12 13  1  0
 12 21  2  0
 13 14  1  0
 14 15  1  0
 15 16  1  0
 16 17  1  0
 17 18  1  0
 18 19  1  0
 18 20  1  0
 22 23  1  0
 23 24  1  0
 24 25  1  0
 25 26  1  0
 25 27  1  0
 27 28  1  0
M  END
