
     RDKit          3D

 28 29  0  0  0  0  0  0  0  0999 V2000
    6.1720   -1.8370   -1.0710 N   0  0  0  0  0  0  0  0  0  0  0  0
    6.2710   -0.4830   -0.7740 N   0  0  0  0  0  0  0  0  0  0  0  0
    5.2330    0.2740   -0.6930 C   0  0  0  0  0  0  0  0  0  0  0  0
    5.3490    1.7100   -0.3770 C   0  0  0  0  0  0  0  0  0  0  0  0
    7.1330    2.1730   -0.1300 P   0  0  0  0  0  0  0  0  0  0  0  0
    8.1050    1.4920   -1.3970 O   0  0  0  0  0  0  0  0  0  0  0  0
    7.2760    3.9070   -0.1460 O   0  0  0  0  0  0  0  0  0  0  0  0
    7.2000    4.3230    1.1120 O   0  0  0  0  0  0  0  0  0  0  0  0
    3.9490   -0.2950   -0.9140 N   0  0  0  0  0  0  0  0  0  0  0  0
    3.3560   -0.7780    0.0850 N   0  0  0  0  0  0  0  0  0  0  0  0
    2.0670   -1.3820    0.0270 C   0  0  0  0  0  0  0  0  0  0  0  0
    0.9760   -0.9850    0.7000 N   0  0  0  0  0  0  0  0  0  0  0  0
   -0.0380   -1.8050    0.3800 C   0  0  0  0  0  0  0  0  0  0  0  0
   -1.4540   -1.7980    0.8490 C   0  0  0  0  0  0  0  0  0  0  0  0
   -2.2670   -0.9510   -0.0550 C   0  0  0  0  0  0  0  0  0  0  0  0
   -1.7100   -0.3770   -1.0220 O   0  0  0  0  0  0  0  0  0  0  0  0
   -3.6620   -0.7620    0.1310 N   0  0  0  0  0  0  0  0  0  0  0  0
   -4.3280   -1.3990    1.2110 C   0  0  0  0  0  0  0  0  0  0  0  0
   -3.7270   -1.6160    2.3190 O   0  0  0  0  0  0  0  0  0  0  0  0
   -5.7380   -1.8070    1.0310 C   0  0  0  0  0  0  0  0  0  0  0  0
   -6.4990   -0.8300    0.2010 C   0  0  0  0  0  0  0  0  0  0  0  0
   -5.7080    0.4440   -0.0020 C   0  0  0  0  0  0  0  0  0  0  0  0
   -4.4310    0.0740   -0.7680 C   0  0  1  0  0  0  0  0  0  0  0  0
   -3.4410    1.6170   -1.0600 P   0  0  0  0  0  0  0  0  0  0  0  0
   -4.4100    2.8830   -1.7400 O   0  0  0  0  0  0  0  0  0  0  0  0
   -2.6250    2.1260    0.3700 O   0  0  0  0  0  0  0  0  0  0  0  0
    0.4700   -2.6890   -0.4900 N   0  0  0  0  0  0  0  0  0  0  0  0
    1.7250   -2.4360   -0.7000 O   0  0  0  0  0  0  0  0  0  0  0  0
  1  2  1  0
  2  3  2  3
  3  4  1  0
  3  9  1  0
  4  5  1  0
  5  6  1  0
  5  7  1  0
  7  8  1  0
  9 10  2  3
 10 11  1  0
 11 12  2  0
 11 28  1  0
 12 13  1  0
 13 14  1  0
 13 27  2  0
 14 15  1  0
 15 16  2  0
 15 17  1  0
 17 18  1  0
 17 23  1  0
 18 19  2  0
 18 20  1  0
 20 21  1  0
 21 22  1  0
 22 23  1  0
 23 24  1  1
 24 25  1  0
 24 26  1  0
 27 28  1  0
M  END
