
     RDKit          3D

 28 29  0  0  0  0  0  0  0  0999 V2000
    8.7430    1.2070   -0.7540 C   0  0  0  0  0  0  0  0  0  0  0  0
    7.6620    0.2600   -0.3640 C   0  0  0  0  0  0  0  0  0  0  0  0
    7.6620   -0.9210    0.2580 C   0  0  0  0  0  0  0  0  0  0  0  0
    6.4870   -1.5570    0.4880 C   0  0  0  0  0  0  0  0  0  0  0  0
    5.3580   -0.9480    0.0670 C   0  0  0  0  0  0  0  0  0  0  0  0
    3.8800   -1.3120    0.1500 C   0  0  2  0  0  0  0  0  0  0  0  0
    3.3960   -1.1890   -1.1600 O   0  0  0  0  0  0  0  0  0  0  0  0
    3.2260   -0.3650    1.1010 C   0  0  0  0  0  0  0  0  0  0  0  0
    1.8220   -0.3900    1.2540 N   0  0  0  0  0  0  0  0  0  0  0  0
    0.8630   -0.1600    0.2630 C   0  0  0  0  0  0  0  0  0  0  0  0
    1.2440    0.0460   -0.9150 O   0  0  0  0  0  0  0  0  0  0  0  0
   -0.5610   -0.1340    0.5010 N   0  0  0  0  0  0  0  0  0  0  0  0
   -1.4190    0.1000   -0.6310 C   0  0  0  0  0  0  0  0  0  0  0  0
   -2.8270    0.2440   -0.2820 C   0  0  0  0  0  0  0  0  0  0  0  0
   -3.1570    0.2880    0.9370 O   0  0  0  0  0  0  0  0  0  0  0  0
   -3.8410    0.3410   -1.2190 O   0  0  0  0  0  0  0  0  0  0  0  0
   -5.2000    0.5140   -0.8190 C   0  0  0  0  0  0  0  0  0  0  0  0
   -5.8690    1.6750   -0.9890 C   0  0  0  0  0  0  0  0  0  0  0  0
   -7.1420    1.7790   -0.5870 C   0  0  0  0  0  0  0  0  0  0  0  0
   -8.1070    2.9050   -0.6470 C   0  0  2  0  0  0  0  0  0  0  0  0
   -9.2550    2.6150    0.0290 F   0  0  0  0  0  0  0  0  0  0  0  0
   -8.3340    3.1560   -2.0070 F   0  0  0  0  0  0  0  0  0  0  0  0
   -7.5150    3.9860   -0.0660 F   0  0  0  0  0  0  0  0  0  0  0  0
   -7.4560    0.1540    0.0800 S   0  0  0  0  0  0  0  0  0  0  0  0
   -5.8750   -0.5200   -0.2340 C   0  0  0  0  0  0  0  0  0  0  0  0
   -5.4820   -1.9190    0.0780 C   0  0  0  0  0  0  0  0  0  0  0  0
   -6.5530   -2.5430    0.7130 O   0  0  0  0  0  0  0  0  0  0  0  0
    5.9210    0.5530   -0.6750 S   0  0  0  0  0  0  0  0  0  0  0  0
  1  2  1  0
  2  3  2  0
  2 28  1  0
  3  4  1  0
  4  5  2  0
  5  6  1  0
  5 28  1  0
  6  7  1  6
  6  8  1  0
  8  9  1  0
  9 10  1  0
 10 11  2  0
 10 12  1  0
 12 13  1  0
 13 14  1  0
 14 15  2  0
 14 16  1  0
 16 17  1  0
 17 18  1  0
 17 25  2  0
 18 19  2  0
 19 20  1  0
 19 24  1  0
 20 21  1  1
 20 22  1  0
 20 23  1  0
 24 25  1  0
 25 26  1  0
 26 27  1  0
M  END
