
     RDKit          3D

 28 29  0  0  0  0  0  0  0  0999 V2000
   -0.8130    1.3160    1.6740 N   0  0  0  0  0  0  0  0  0  0  0  0
   -0.9040    0.3070    0.6240 C   0  0  0  0  0  0  0  0  0  0  0  0
    0.1640   -0.2380    0.1240 C   0  0  0  0  0  0  0  0  0  0  0  0
    1.5720    0.0240    0.4840 C   0  0  0  0  0  0  0  0  0  0  0  0
    1.9530    0.1600    1.7800 N   0  0  0  0  0  0  0  0  0  0  0  0
    3.2220    0.4200    2.1320 C   0  0  0  0  0  0  0  0  0  0  0  0
    3.5470    0.5410    3.3340 O   0  0  0  0  0  0  0  0  0  0  0  0
    4.2420    0.5700    1.1780 C   0  0  0  0  0  0  0  0  0  0  0  0
    5.9120    0.8800    1.6970 S   0  0  0  0  0  0  0  0  0  0  0  0
    7.0690    0.7350    0.3380 C   0  0  0  0  0  0  0  0  0  0  0  0
    7.3030   -0.6800   -0.0980 C   0  0  1  0  0  0  0  0  0  0  0  0
    7.8250   -1.3700    1.0000 F   0  0  0  0  0  0  0  0  0  0  0  0
    6.1920   -1.3650   -0.4940 F   0  0  0  0  0  0  0  0  0  0  0  0
    8.2650   -0.7640   -1.0850 F   0  0  0  0  0  0  0  0  0  0  0  0
    3.8330    0.4290   -0.1250 C   0  0  0  0  0  0  0  0  0  0  0  0
    2.5090    0.1570   -0.4940 C   0  0  0  0  0  0  0  0  0  0  0  0
    2.1690    0.0090   -1.9330 C   0  0  0  0  0  0  0  0  0  0  0  0
    3.3410    0.2210   -2.6970 O   0  0  0  0  0  0  0  0  0  0  0  0
   -0.3540   -1.4000   -1.1210 S   0  0  0  0  0  0  0  0  0  0  0  0
   -2.0990   -0.7990   -1.2200 C   0  0  0  0  0  0  0  0  0  0  0  0
   -2.1800   -0.1420    0.1000 C   0  0  0  0  0  0  0  0  0  0  0  0
   -3.3530    0.0110    0.7470 C   0  0  0  0  0  0  0  0  0  0  0  0
   -4.6140   -0.4330    0.2250 C   0  0  0  0  0  0  0  0  0  0  0  0
   -4.7540   -0.9930   -0.8790 O   0  0  0  0  0  0  0  0  0  0  0  0
   -5.8030   -0.2590    0.9460 O   0  0  0  0  0  0  0  0  0  0  0  0
   -7.0610   -0.6740    0.4840 C   0  0  0  0  0  0  0  0  0  0  0  0
   -7.4870   -0.0150   -0.8050 C   0  0  0  0  0  0  0  0  0  0  0  0
   -8.7500   -0.5170   -1.1450 O   0  0  0  0  0  0  0  0  0  0  0  0
  1  2  1  0
  2  3  2  0
  2 21  1  0
  3  4  1  0
  3 19  1  0
  4  5  1  0
  4 16  2  0
  5  6  1  0
  6  7  2  0
  6  8  1  0
  8  9  1  0
  8 15  2  0
  9 10  1  0
 10 11  1  0
 11 12  1  1
 11 13  1  0
 11 14  1  0
 15 16  1  0
 16 17  1  0
 17 18  1  0
 19 20  1  0
 20 21  1  0
 21 22  2  3
 22 23  1  0
 23 24  2  0
 23 25  1  0
 25 26  1  0
 26 27  1  0
 27 28  1  0
M  END
