
     RDKit          3D

 23 26  0  0  0  0  0  0  0  0999 V2000
    0.3690    4.5860   -0.7870 C   0  0  0  0  0  0  0  0  0  0  0  0
   -0.0930    3.3500   -0.5100 C   0  0  0  0  0  0  0  0  0  0  0  0
    0.8100    2.2300   -0.3970 C   0  0  0  0  0  0  0  0  0  0  0  0
    0.5890    0.9780   -0.1400 C   0  0  0  0  0  0  0  0  0  0  0  0
    1.7410    0.0500   -0.0900 C   0  0  0  0  0  0  0  0  0  0  0  0
    2.9810    0.3650   -0.3420 C   0  0  0  0  0  0  0  0  0  0  0  0
    4.0980   -0.5530   -0.2830 C   0  0  0  0  0  0  0  0  0  0  0  0
    4.4610   -1.4010    0.7240 C   0  0  0  0  0  0  0  0  0  0  0  0
    5.5790   -2.1290    0.3710 C   0  0  0  0  0  0  0  0  0  0  0  0
    5.8900   -1.6870   -0.9040 C   0  0  0  0  0  0  0  0  0  0  0  0
    4.9810   -0.7400   -1.2700 N   0  0  0  0  0  0  0  0  0  0  0  0
    1.4410   -1.3180    0.2200 N   0  0  0  0  0  0  0  0  0  0  0  0
    0.1280   -1.7820    0.4710 C   0  0  0  0  0  0  0  0  0  0  0  0
   -0.0810   -3.0130    0.7440 O   0  0  0  0  0  0  0  0  0  0  0  0
   -0.9960   -0.8730    0.4220 N   0  0  0  0  0  0  0  0  0  0  0  0
   -2.3110   -1.3870    0.6960 C   0  0  0  0  0  0  0  0  0  0  0  0
   -3.3340   -0.3530    0.5940 C   0  0  0  0  0  0  0  0  0  0  0  0
   -4.7500   -0.7900    0.8380 C   0  0  1  0  0  0  0  0  0  0  0  0
   -5.8510    0.1930    0.7310 C   0  0  0  0  0  0  0  0  0  0  0  0
   -5.6140   -0.7260   -0.4290 C   0  0  0  0  0  0  0  0  0  0  0  0
   -3.0420    0.8500    0.3060 N   0  0  0  0  0  0  0  0  0  0  0  0
   -1.7660    1.3250    0.0600 N   0  0  0  0  0  0  0  0  0  0  0  0
   -0.7750    0.4840    0.1220 C   0  0  0  0  0  0  0  0  0  0  0  0
  1  2  2  0
  2  3  1  0
  3  4  2  3
  4  5  1  0
  4 23  1  0
  5  6  2  3
  5 12  1  0
  6  7  1  0
  7  8  2  0
  7 11  1  0
  8  9  1  0
  9 10  2  0
 10 11  1  0
 12 13  1  0
 13 14  2  0
 13 15  1  0
 15 16  1  0
 15 23  1  0
 16 17  1  0
 18 17  1  6
 17 21  2  0
 18 19  1  0
 18 20  1  0
 19 20  1  0
 21 22  1  0
 22 23  2  0
M  END
