
     RDKit          3D

 28 28  0  0  0  0  0  0  0  0999 V2000
    6.4410   -2.2210   -1.4830 C   0  0  0  0  0  0  0  0  0  0  0  0
    5.2570   -2.0930   -0.5950 C   0  0  0  0  0  0  0  0  0  0  0  0
    4.9680   -2.9960    0.1500 O   0  0  0  0  0  0  0  0  0  0  0  0
    4.4310   -0.8710   -0.6120 C   0  0  0  0  0  0  0  0  0  0  0  0
    3.0520   -0.9650    0.5600 S   0  0  0  0  0  0  0  0  0  0  0  0
    2.1250    0.5080    0.4830 C   0  0  0  0  0  0  0  0  0  0  0  0
    0.7620    0.6310    0.3670 C   0  0  0  0  0  0  0  0  0  0  0  0
    0.4430    2.0400    0.3330 C   0  0  0  0  0  0  0  0  0  0  0  0
    1.4840    2.8620    0.0990 O   0  0  0  0  0  0  0  0  0  0  0  0
   -0.7170    2.7740    0.5190 N   0  0  0  0  0  0  0  0  0  0  0  0
   -0.7850    4.2110    0.2950 C   0  0  0  0  0  0  0  0  0  0  0  0
   -2.0260    4.8590    0.5120 N   0  0  0  0  0  0  0  0  0  0  0  0
    0.2270    4.8370   -0.0770 O   0  0  0  0  0  0  0  0  0  0  0  0
   -0.0620   -0.5000    0.6080 C   0  0  0  0  0  0  0  0  0  0  0  0
   -1.3370   -0.6710    0.2690 C   0  0  0  0  0  0  0  0  0  0  0  0
   -1.9900    0.3950   -0.5060 C   0  0  0  0  0  0  0  0  0  0  0  0
   -3.1510    0.6520   -0.9290 C   0  0  0  0  0  0  0  0  0  0  0  0
   -3.2590    1.9750   -1.7310 C   0  0  0  0  0  0  0  0  0  0  0  0
   -4.4140   -0.0370   -0.8110 C   0  0  1  0  0  0  0  0  0  0  0  0
   -4.7660   -0.5350    0.4090 F   0  0  0  0  0  0  0  0  0  0  0  0
   -5.4990    0.8710   -1.0880 F   0  0  0  0  0  0  0  0  0  0  0  0
   -4.6070   -0.9810   -1.8470 F   0  0  0  0  0  0  0  0  0  0  0  0
   -2.2160   -1.8140    0.5740 C   0  0  0  0  0  0  0  0  0  0  0  0
   -1.5640   -3.1430    0.8960 C   0  0  0  0  0  0  0  0  0  0  0  0
   -0.4580   -2.6700    2.2540 S   0  0  2  0  0  0  0  0  0  0  0  0
    0.2280   -3.8290    2.8450 O   0  0  0  0  0  0  0  0  0  0  0  0
   -1.2690   -1.8570    3.2070 O   0  0  0  0  0  0  0  0  0  0  0  0
    0.6530   -1.5760    1.4070 C   0  0  0  0  0  0  0  0  0  0  0  0
  1  2  1  0
  2  3  2  0
  2  4  1  0
  4  5  1  0
  5  6  1  0
  6  7  2  3
  7  8  1  0
  7 14  1  0
  8  9  2  0
  8 10  1  0
 10 11  1  0
 11 12  1  0
 11 13  2  0
 14 15  2  0
 14 28  1  0
 15 16  1  0
 15 23  1  0
 16 17  2  3
 17 18  1  0
 17 19  1  0
 19 20  1  1
 19 21  1  0
 19 22  1  0
 23 24  1  0
 25 24  1  6
 25 26  2  0
 25 27  2  0
 25 28  1  0
M  END
