
     RDKit          3D

 28 29  0  0  0  0  0  0  0  0999 V2000
    1.1250    0.6550    2.2890 O   0  0  0  0  0  0  0  0  0  0  0  0
    1.5870    0.2680    1.1990 C   0  0  0  0  0  0  0  0  0  0  0  0
    2.9200   -0.4370    1.1910 C   0  0  0  0  0  0  0  0  0  0  0  0
    3.3000   -0.8970   -0.4930 S   0  0  0  0  0  0  0  0  0  0  0  0
    4.7560   -1.9130   -0.6100 C   0  0  0  0  0  0  0  0  0  0  0  0
    5.9830   -1.1350   -0.2300 C   0  0  0  0  0  0  0  0  0  0  0  0
    6.9060   -0.9050   -1.1510 C   0  0  0  0  0  0  0  0  0  0  0  0
    8.1530    0.0020   -0.3490 S   0  0  1  0  0  0  0  0  0  0  0  0
    9.4630   -0.7250   -0.3360 O   0  0  0  0  0  0  0  0  0  0  0  0
    8.2790    1.3940   -0.9000 O   0  0  0  0  0  0  0  0  0  0  0  0
    7.3910    0.0240    1.2300 C   0  0  0  0  0  0  0  0  0  0  0  0
    7.8830    0.6000    2.3650 F   0  0  0  0  0  0  0  0  0  0  0  0
    6.2580   -0.6290    1.0650 C   0  0  0  0  0  0  0  0  0  0  0  0
    0.9290    0.4530   -0.0380 N   0  0  0  0  0  0  0  0  0  0  0  0
   -0.3080    1.1000   -0.0200 N   0  0  0  0  0  0  0  0  0  0  0  0
   -1.4700    0.3060   -0.1080 C   0  0  0  0  0  0  0  0  0  0  0  0
   -1.3450   -0.9370   -0.1960 O   0  0  0  0  0  0  0  0  0  0  0  0
   -2.8110    0.8930   -0.1000 C   0  0  0  0  0  0  0  0  0  0  0  0
   -3.0330    2.1870   -0.0130 C   0  0  0  0  0  0  0  0  0  0  0  0
   -4.3630    2.8040   -0.0010 C   0  0  1  0  0  0  0  0  0  0  0  0
   -4.4750    3.6970    1.0810 F   0  0  0  0  0  0  0  0  0  0  0  0
   -4.3950    3.6500   -1.1230 F   0  0  0  0  0  0  0  0  0  0  0  0
   -5.5230    1.8950   -0.0800 C   0  0  0  0  0  0  0  0  0  0  0  0
   -5.2340    0.4600   -0.1760 C   0  0  0  0  0  0  0  0  0  0  0  0
   -6.3920   -0.4530   -0.2480 C   0  0  0  0  0  0  0  0  0  0  0  0
   -6.0180   -1.9110   -0.3020 C   0  0  0  0  0  0  0  0  0  0  0  0
   -5.3350   -2.2190    0.8730 O   0  0  0  0  0  0  0  0  0  0  0  0
   -3.9970    0.0210   -0.1830 C   0  0  0  0  0  0  0  0  0  0  0  0
  1  2  2  0
  2  3  1  0
  2 14  1  0
  3  4  1  0
  4  5  1  0
  5  6  1  0
  6  7  2  0
  6 13  1  0
  8  7  1  6
  8  9  2  0
  8 10  2  0
  8 11  1  0
 11 12  1  0
 11 13  2  0
 14 15  1  0
 15 16  1  0
 16 17  2  0
 16 18  1  0
 18 19  2  0
 18 28  1  0
 19 20  1  0
 20 21  1  1
 20 22  1  0
 20 23  1  0
 23 24  1  0
 24 25  1  0
 24 28  2  0
 25 26  1  0
 26 27  1  0
M  END
