
     RDKit          3D

 20 22  0  0  0  0  0  0  0  0999 V2000
   -3.5250    1.6060    0.3880 C   0  0  0  0  0  0  0  0  0  0  0  0
   -2.6260    0.3920    0.3080 C   0  0  0  0  0  0  0  0  0  0  0  0
   -1.3090    0.5920    0.3970 C   0  0  0  0  0  0  0  0  0  0  0  0
   -0.8450    1.9480    0.5440 N   0  0  0  0  0  0  0  0  0  0  0  0
   -0.4240   -0.5850    0.4430 C   0  0  2  0  0  0  0  0  0  0  0  0
    1.0070   -0.3330    0.3340 C   0  0  0  0  0  0  0  0  0  0  0  0
    1.7350   -0.8660   -0.7340 C   0  0  0  0  0  0  0  0  0  0  0  0
    3.0830   -0.5960   -0.9230 C   0  0  0  0  0  0  0  0  0  0  0  0
    4.0140   -1.3560   -2.4000 Br  0  0  0  0  0  0  0  0  0  0  0  0
    3.7500    0.2130   -0.0570 C   0  0  0  0  0  0  0  0  0  0  0  0
    5.2020    0.4820   -0.2960 C   0  0  0  0  0  0  0  0  0  0  0  0
    3.0640    0.7490    0.9990 C   0  0  0  0  0  0  0  0  0  0  0  0
    1.6990    0.4730    1.1900 C   0  0  0  0  0  0  0  0  0  0  0  0
    0.8350    1.1810    2.7500 Br  0  0  0  0  0  0  0  0  0  0  0  0
   -0.9480   -1.7130   -0.2000 N   0  0  0  0  0  0  0  0  0  0  0  0
   -2.3490   -1.9280   -0.2660 C   0  0  0  0  0  0  0  0  0  0  0  0
   -3.0940   -3.0450   -0.5510 N   0  0  0  0  0  0  0  0  0  0  0  0
   -4.3600   -2.6720   -0.4750 N   0  0  0  0  0  0  0  0  0  0  0  0
   -4.4580   -1.3870   -0.1600 N   0  0  0  0  0  0  0  0  0  0  0  0
   -3.2180   -0.8910   -0.0210 C   0  0  0  0  0  0  0  0  0  0  0  0
  1  2  1  0
  2  3  2  0
  2 20  1  0
  3  4  1  0
  3  5  1  0
  5  6  1  6
  5 15  1  0
  6  7  2  0
  6 13  1  0
  7  8  1  0
  8  9  1  0
  8 10  2  0
 10 11  1  0
 10 12  1  0
 12 13  2  0
 13 14  1  0
 15 16  1  0
 16 17  1  0
 16 20  2  0
 17 18  2  0
 18 19  1  0
 19 20  1  0
M  END
