
     RDKit          3D

 19 21  0  0  0  0  0  0  0  0999 V2000
   -3.7050    2.4400   -0.3440 N   0  0  0  0  0  0  0  0  0  0  0  0
   -3.1730    1.1180   -0.3980 C   0  0  0  0  0  0  0  0  0  0  0  0
   -4.0680    0.1350   -0.6240 N   0  0  0  0  0  0  0  0  0  0  0  0
   -3.6380   -1.1210   -0.6570 C   0  0  0  0  0  0  0  0  0  0  0  0
   -2.3180   -1.4300   -0.4670 C   0  0  0  0  0  0  0  0  0  0  0  0
   -1.6940   -2.6110   -0.4400 N   0  0  0  0  0  0  0  0  0  0  0  0
   -0.4000   -2.3780   -0.1980 C   0  0  0  0  0  0  0  0  0  0  0  0
   -0.1840   -1.0020   -0.0650 C   0  0  0  0  0  0  0  0  0  0  0  0
    1.0940   -0.3670    0.1570 C   0  0  0  0  0  0  0  0  0  0  0  0
    1.7030    0.5270   -0.6980 C   0  0  0  0  0  0  0  0  0  0  0  0
    2.9460    1.0370   -0.4440 C   0  0  0  0  0  0  0  0  0  0  0  0
    3.5480    1.9360   -1.3600 N   0  0  0  0  0  0  0  0  0  0  0  0
    3.6440    0.6660    0.6980 C   0  0  0  0  0  0  0  0  0  0  0  0
    5.3750    1.4050    1.0430 Br  0  0  0  0  0  0  0  0  0  0  0  0
    3.0600   -0.2250    1.5710 C   0  0  0  0  0  0  0  0  0  0  0  0
    1.8060   -0.7290    1.3000 C   0  0  0  0  0  0  0  0  0  0  0  0
    0.9900   -1.9440    2.5310 Br  0  0  0  0  0  0  0  0  0  0  0  0
   -1.4030   -0.3940   -0.2350 C   0  0  0  0  0  0  0  0  0  0  0  0
   -1.8650    0.8730   -0.2070 N   0  0  0  0  0  0  0  0  0  0  0  0
  1  2  1  0
  2  3  2  0
  2 19  1  0
  3  4  1  0
  4  5  2  0
  5  6  1  0
  5 18  1  0
  6  7  1  0
  7  8  2  0
  8  9  1  0
  8 18  1  0
  9 10  2  0
  9 16  1  0
 10 11  1  0
 11 12  1  0
 11 13  2  0
 13 14  1  0
 13 15  1  0
 15 16  2  0
 16 17  1  0
 18 19  2  0
M  END
