
     RDKit          3D

 20 22  0  0  0  0  0  0  0  0999 V2000
    3.4510   -2.2960    0.4000 C   0  0  0  0  0  0  0  0  0  0  0  0
    3.1090   -1.0450    0.1680 C   0  0  0  0  0  0  0  0  0  0  0  0
    1.7740   -0.4580    0.0180 C   0  0  0  0  0  0  0  0  0  0  0  0
    1.8090    0.8380    0.2570 C   0  0  0  0  0  0  0  0  0  0  0  0
    0.5630    1.6540    0.1650 C   0  0  0  0  0  0  0  0  0  0  0  0
   -0.5840    0.8890   -0.1930 N   0  0  0  0  0  0  0  0  0  0  0  0
   -0.6670   -0.3530   -0.4310 C   0  0  0  0  0  0  0  0  0  0  0  0
   -1.8690   -0.9790   -0.7740 N   0  0  0  0  0  0  0  0  0  0  0  0
   -3.0940   -0.5780   -0.1980 C   0  0  0  0  0  0  0  0  0  0  0  0
   -4.2810   -1.1460   -0.6770 C   0  0  0  0  0  0  0  0  0  0  0  0
   -5.5130   -0.8240   -0.1740 C   0  0  0  0  0  0  0  0  0  0  0  0
   -5.5970    0.1030    0.8550 C   0  0  0  0  0  0  0  0  0  0  0  0
   -4.4670    0.6560    1.3260 N   0  0  0  0  0  0  0  0  0  0  0  0
   -3.2480    0.3270    0.8170 C   0  0  0  0  0  0  0  0  0  0  0  0
    0.5590   -1.1060   -0.3300 N   0  0  0  0  0  0  0  0  0  0  0  0
    3.1810    1.2090    0.5960 C   0  0  2  0  0  0  0  0  0  0  0  0
    3.5690    2.5120    0.1150 N   0  0  0  0  0  0  0  0  0  0  0  0
    4.0300    0.1390   -0.0080 C   0  0  2  0  0  0  0  0  0  0  0  0
    4.2490    0.3690   -1.9160 Br  0  0  0  0  0  0  0  0  0  0  0  0
    5.7010   -0.1260    0.8790 Br  0  0  0  0  0  0  0  0  0  0  0  0
  1  2  2  0
  2  3  1  0
  2 18  1  0
  3  4  2  0
  3 15  1  0
  4  5  1  0
  4 16  1  0
  5  6  1  0
  6  7  2  0
  7  8  1  0
  7 15  1  0
  8  9  1  0
  9 10  2  0
  9 14  1  0
 10 11  1  0
 11 12  2  0
 12 13  1  0
 13 14  2  0
 16 17  1  6
 16 18  1  0
 18 19  1  6
 18 20  1  0
M  END
