
     RDKit          3D

 20 22  0  0  0  0  0  0  0  0999 V2000
   -3.7170   -1.5070    1.1930 N   0  0  0  0  0  0  0  0  0  0  0  0
   -3.6150   -0.4850    0.1920 C   0  0  0  0  0  0  0  0  0  0  0  0
   -4.6490    0.0490   -0.4370 C   0  0  0  0  0  0  0  0  0  0  0  0
   -6.4940   -0.4140   -0.1610 Br  0  0  0  0  0  0  0  0  0  0  0  0
   -4.1750    1.0550   -1.3850 C   0  0  0  0  0  0  0  0  0  0  0  0
   -2.6840    1.0000   -1.1850 C   0  0  0  0  0  0  0  0  0  0  0  0
   -2.3720    0.1050   -0.2690 C   0  0  0  0  0  0  0  0  0  0  0  0
   -1.0650   -0.2560    0.2170 N   0  0  0  0  0  0  0  0  0  0  0  0
   -0.8220   -1.1720    1.1460 N   0  0  0  0  0  0  0  0  0  0  0  0
    0.4930   -1.2880    1.3900 C   0  0  0  0  0  0  0  0  0  0  0  0
    1.1380   -0.3950    0.5710 C   0  0  0  0  0  0  0  0  0  0  0  0
    2.5810   -0.1470    0.4670 C   0  0  0  0  0  0  0  0  0  0  0  0
    3.4720   -0.8620    1.2620 C   0  0  0  0  0  0  0  0  0  0  0  0
    4.8280   -0.6560    1.1920 C   0  0  0  0  0  0  0  0  0  0  0  0
    5.3040    0.2840    0.3090 C   0  0  0  0  0  0  0  0  0  0  0  0
    7.1570    0.6570    0.1220 Br  0  0  0  0  0  0  0  0  0  0  0  0
    4.4200    1.0030   -0.4890 C   0  0  0  0  0  0  0  0  0  0  0  0
    3.1000    0.7530   -0.3720 N   0  0  0  0  0  0  0  0  0  0  0  0
    0.1340    0.2260   -0.1420 C   0  0  0  0  0  0  0  0  0  0  0  0
    0.3020    1.2390   -1.1280 N   0  0  0  0  0  0  0  0  0  0  0  0
  1  2  1  0
  2  3  2  0
  2  7  1  0
  3  4  1  0
  3  5  1  0
  5  6  1  0
  6  7  2  0
  7  8  1  0
  8  9  1  0
  8 19  1  0
  9 10  2  0
 10 11  1  0
 11 12  1  0
 11 19  2  0
 12 13  2  0
 12 18  1  0
 13 14  1  0
 14 15  2  0
 15 16  1  0
 15 17  1  0
 17 18  2  0
 19 20  1  0
M  END
