
     RDKit          3D

 26 28  0  0  0  0  0  0  0  0999 V2000
    1.3000    0.3750   -2.5260 N   0  0  0  0  0  0  0  0  0  0  0  0
    2.0170   -0.0110   -1.3820 C   0  0  0  0  0  0  0  0  0  0  0  0
    3.1230   -0.5770   -1.4990 O   0  0  0  0  0  0  0  0  0  0  0  0
    1.4810    0.2410   -0.0610 C   0  0  0  0  0  0  0  0  0  0  0  0
    2.1360   -0.1120    1.0460 C   0  0  0  0  0  0  0  0  0  0  0  0
    3.4030   -0.7610    0.9800 N   0  0  0  0  0  0  0  0  0  0  0  0
    3.4930   -2.0880    0.7870 C   0  0  0  0  0  0  0  0  0  0  0  0
    4.7280   -2.7010    0.7260 C   0  0  0  0  0  0  0  0  0  0  0  0
    5.8780   -1.9530    0.8640 C   0  0  0  0  0  0  0  0  0  0  0  0
    5.7800   -0.6120    1.0590 C   0  0  0  0  0  0  0  0  0  0  0  0
    4.5150   -0.0180    1.1160 C   0  0  0  0  0  0  0  0  0  0  0  0
    4.4760    1.2340    1.3000 O   0  0  0  0  0  0  0  0  0  0  0  0
    0.2210    0.8860    0.0500 N   0  0  0  0  0  0  0  0  0  0  0  0
    0.0550    2.1750   -0.4930 C   0  0  0  0  0  0  0  0  0  0  0  0
    1.0800    2.6880   -1.0560 O   0  0  0  0  0  0  0  0  0  0  0  0
   -1.2200    2.9540   -0.4440 C   0  0  0  0  0  0  0  0  0  0  0  0
   -2.2290    2.1820    0.1920 N   0  0  0  0  0  0  0  0  0  0  0  0
   -2.8040    1.0010   -0.3620 C   0  0  0  0  0  0  0  0  0  0  0  0
   -2.4340    0.5700   -1.6190 C   0  0  0  0  0  0  0  0  0  0  0  0
   -2.9840   -0.5650   -2.1920 C   0  0  0  0  0  0  0  0  0  0  0  0
   -3.9280   -1.2970   -1.5040 C   0  0  0  0  0  0  0  0  0  0  0  0
   -4.3210   -0.8900   -0.2400 C   0  0  0  0  0  0  0  0  0  0  0  0
   -5.2210   -1.4000    0.6730 C   0  0  0  0  0  0  0  0  0  0  0  0
   -5.1800   -0.5570    1.7590 C   0  0  0  0  0  0  0  0  0  0  0  0
   -4.2830    0.4410    1.5220 N   0  0  0  0  0  0  0  0  0  0  0  0
   -3.7480    0.2600    0.3140 C   0  0  0  0  0  0  0  0  0  0  0  0
  1  2  1  0
  2  3  2  0
  2  4  1  0
  4  5  2  3
  4 13  1  0
  5  6  1  0
  6  7  1  0
  6 11  1  0
  7  8  2  0
  8  9  1  0
  9 10  2  0
 10 11  1  0
 11 12  2  0
 13 14  1  0
 14 15  2  0
 14 16  1  0
 16 17  1  0
 17 18  1  0
 18 19  2  0
 18 26  1  0
 19 20  1  0
 20 21  2  0
 21 22  1  0
 22 23  1  0
 22 26  2  0
 23 24  2  0
 24 25  1  0
 25 26  1  0
M  END
