
     RDKit          3D

 18 20  0  0  0  0  0  0  0  0999 V2000
    6.0340   -0.6470    0.6140 C   0  0  0  0  0  0  0  0  0  0  0  0
    4.7800   -0.3930   -0.1710 C   0  0  0  0  0  0  0  0  0  0  0  0
    3.5460   -0.4370    0.7350 C   0  0  0  0  0  0  0  0  0  0  0  0
    2.4380   -0.1910   -0.0840 O   0  0  0  0  0  0  0  0  0  0  0  0
    1.1330   -0.1400    0.3160 C   0  0  0  0  0  0  0  0  0  0  0  0
    0.7180   -0.3310    1.6330 C   0  0  0  0  0  0  0  0  0  0  0  0
   -0.6380   -0.2660    1.9770 C   0  0  0  0  0  0  0  0  0  0  0  0
   -1.5680   -0.0090    0.9980 C   0  0  0  0  0  0  0  0  0  0  0  0
   -2.8330    0.0520    1.3200 O   0  0  0  0  0  0  0  0  0  0  0  0
   -3.7930    0.2980    0.4220 C   0  0  0  0  0  0  0  0  0  0  0  0
   -3.4680    0.4970   -0.8880 C   0  0  0  0  0  0  0  0  0  0  0  0
   -2.1350    0.4430   -1.2880 C   0  0  0  0  0  0  0  0  0  0  0  0
   -1.8030    0.6210   -2.4840 O   0  0  0  0  0  0  0  0  0  0  0  0
   -1.1810    0.1870   -0.3260 C   0  0  0  0  0  0  0  0  0  0  0  0
    0.1630    0.1160   -0.6320 C   0  0  0  0  0  0  0  0  0  0  0  0
   -4.5490    0.7250   -1.6180 C   0  0  0  0  0  0  0  0  0  0  0  0
   -5.7040    0.6740   -0.7160 C   0  0  0  0  0  0  0  0  0  0  0  0
   -5.1000    0.3880    0.6010 C   0  0  0  0  0  0  0  0  0  0  0  0
  1  2  1  0
  2  3  1  0
  3  4  1  0
  4  5  1  0
  5  6  2  0
  5 15  1  0
  6  7  1  0
  7  8  2  0
  8  9  1  0
  8 14  1  0
  9 10  1  0
 10 11  1  0
 10 18  2  0
 11 12  1  0
 11 16  2  0
 12 13  2  0
 12 14  1  0
 14 15  2  0
 16 17  1  0
 17 18  1  0
M  END
