
     RDKit          3D

 26 28  0  0  0  0  0  0  0  0999 V2000
   -3.3380    1.1450   -0.4130 C   0  0  0  0  0  0  0  0  0  0  0  0
   -3.3080   -0.2000    0.2860 C   0  0  1  0  0  0  0  0  0  0  0  0
   -3.3610   -1.2680   -0.7530 C   0  0  0  0  0  0  0  0  0  0  0  0
   -2.0190   -0.2380    1.0870 C   0  0  0  0  0  0  0  0  0  0  0  0
   -0.8610   -0.0970    0.2280 N   0  0  0  0  0  0  0  0  0  0  0  0
    0.4470   -0.1140    0.8490 C   0  0  0  0  0  0  0  0  0  0  0  0
    0.5010   -0.2490    2.0830 O   0  0  0  0  0  0  0  0  0  0  0  0
    1.5810    0.0250    0.0020 N   0  0  0  0  0  0  0  0  0  0  0  0
    2.9040    0.0330    0.4790 C   0  0  0  0  0  0  0  0  0  0  0  0
    3.2270    0.0230    1.8010 C   0  0  0  0  0  0  0  0  0  0  0  0
    4.5360    0.0500    2.2870 C   0  0  0  0  0  0  0  0  0  0  0  0
    5.5360    0.0890    1.3620 C   0  0  0  0  0  0  0  0  0  0  0  0
    5.2810    0.1010    0.0080 C   0  0  0  0  0  0  0  0  0  0  0  0
    6.3430    0.1380   -0.8880 C   0  0  0  0  0  0  0  0  0  0  0  0
    7.6660    0.1660   -0.4090 N   0  0  0  0  0  0  0  0  0  0  0  0
    6.0910    0.1470   -2.2350 C   0  0  0  0  0  0  0  0  0  0  0  0
    4.7980    0.1190   -2.6730 C   0  0  0  0  0  0  0  0  0  0  0  0
    4.5360    0.1260   -3.9100 O   0  0  0  0  0  0  0  0  0  0  0  0
    3.7910    0.0840   -1.7650 N   0  0  0  0  0  0  0  0  0  0  0  0
    3.9640    0.0730   -0.4350 C   0  0  0  0  0  0  0  0  0  0  0  0
   -4.4420   -0.2510    1.2680 C   0  0  0  0  0  0  0  0  0  0  0  0
   -5.7730   -0.0890    0.6340 C   0  0  0  0  0  0  0  0  0  0  0  0
   -6.8970   -0.1130    1.3710 N   0  0  0  0  0  0  0  0  0  0  0  0
   -7.9490    0.0540    0.5570 C   0  0  0  0  0  0  0  0  0  0  0  0
   -7.4180    0.1790   -0.7000 C   0  0  0  0  0  0  0  0  0  0  0  0
   -6.1200    0.0850   -0.5900 O   0  0  0  0  0  0  0  0  0  0  0  0
  2  1  1  6
  2  3  1  0
  2  4  1  0
  2 21  1  0
  4  5  1  0
  5  6  1  0
  6  7  2  0
  6  8  1  0
  8  9  1  0
  9 10  2  0
  9 20  1  0
 10 11  1  0
 11 12  2  0
 12 13  1  0
 13 14  1  0
 13 20  2  0
 14 15  1  0
 14 16  2  0
 16 17  1  0
 17 18  2  0
 17 19  1  0
 19 20  1  0
 21 22  1  0
 22 23  2  0
 22 26  1  0
 23 24  1  0
 24 25  2  0
 25 26  1  0
M  END
