
     RDKit          3D

 26 28  0  0  0  0  0  0  0  0999 V2000
    6.1100    2.1930   -0.5300 C   0  0  0  0  0  0  0  0  0  0  0  0
    7.0250    1.3090   -0.2140 C   0  0  0  0  0  0  0  0  0  0  0  0
    6.8280   -0.1100   -0.1580 C   0  0  0  0  0  0  0  0  0  0  0  0
    7.8600   -0.8860    0.1580 C   0  0  0  0  0  0  0  0  0  0  0  0
    5.5630   -0.7420   -0.4410 C   0  0  0  0  0  0  0  0  0  0  0  0
    4.2680   -0.3880   -0.1700 C   0  0  0  0  0  0  0  0  0  0  0  0
    3.4400   -1.3550   -0.7050 C   0  0  0  0  0  0  0  0  0  0  0  0
    1.9630   -1.3770   -0.6520 C   0  0  0  0  0  0  0  0  0  0  0  0
    1.3900   -2.3560   -1.1290 O   0  0  0  0  0  0  0  0  0  0  0  0
    1.2270   -0.3250   -0.0830 N   0  0  0  0  0  0  0  0  0  0  0  0
   -0.1870   -0.2330    0.0270 C   0  0  0  0  0  0  0  0  0  0  0  0
   -0.7310    0.8750    0.6160 N   0  0  0  0  0  0  0  0  0  0  0  0
   -2.0480    1.0570    0.7680 C   0  0  0  0  0  0  0  0  0  0  0  0
   -2.5790    2.2130    1.3930 N   0  0  0  0  0  0  0  0  0  0  0  0
   -2.9370    0.0990    0.3200 C   0  0  0  0  0  0  0  0  0  0  0  0
   -4.3560    0.2710    0.4640 C   0  0  2  0  0  0  0  0  0  0  0  0
   -5.1720   -0.9720    0.0990 C   0  0  0  0  0  0  0  0  0  0  0  0
   -6.6550   -0.6860    0.4470 C   0  0  0  0  0  0  0  0  0  0  0  0
   -7.0340    0.3280   -0.4660 O   0  0  0  0  0  0  0  0  0  0  0  0
   -6.4620    1.4840   -0.0080 C   0  0  0  0  0  0  0  0  0  0  0  0
   -4.9520    1.4880   -0.2150 C   0  0  0  0  0  0  0  0  0  0  0  0
   -2.3790   -1.0060   -0.2680 C   0  0  0  0  0  0  0  0  0  0  0  0
   -3.1010   -1.9110   -0.6950 O   0  0  0  0  0  0  0  0  0  0  0  0
   -1.0360   -1.1630   -0.4080 N   0  0  0  0  0  0  0  0  0  0  0  0
    4.2470   -2.2920   -1.2970 C   0  0  0  0  0  0  0  0  0  0  0  0
    5.5040   -1.9200   -1.1360 N   0  0  0  0  0  0  0  0  0  0  0  0
  1  2  2  0
  2  3  1  0
  3  4  2  0
  3  5  1  0
  5  6  2  0
  5 26  1  0
  6  7  1  0
  7  8  1  0
  7 25  2  0
  8  9  2  0
  8 10  1  0
 10 11  1  0
 11 12  2  0
 11 24  1  0
 12 13  1  0
 13 14  1  0
 13 15  2  0
 16 15  1  6
 15 22  1  0
 16 17  1  0
 16 21  1  0
 17 18  1  0
 18 19  1  0
 19 20  1  0
 20 21  1  0
 22 23  2  0
 22 24  1  0
 25 26  1  0
M  END
