
     RDKit          3D

 26 28  0  0  0  0  0  0  0  0999 V2000
    1.0570   -0.7420   -0.8120 O   0  0  0  0  0  0  0  0  0  0  0  0
    0.9280   -1.6440   -0.0650 C   0  0  0  0  0  0  0  0  0  0  0  0
   -0.0980   -2.3850    0.5950 C   0  0  0  0  0  0  0  0  0  0  0  0
   -1.4340   -2.0910   -0.0270 C   0  0  0  0  0  0  0  0  0  0  0  0
   -1.8690   -0.7000   -0.0180 C   0  0  0  0  0  0  0  0  0  0  0  0
   -1.1040    0.2420    0.2190 O   0  0  0  0  0  0  0  0  0  0  0  0
   -3.2540   -0.4630   -0.3050 N   0  0  0  0  0  0  0  0  0  0  0  0
   -3.8150    0.8250   -0.3660 C   0  0  0  0  0  0  0  0  0  0  0  0
   -3.2030    2.0790   -0.4290 C   0  0  0  0  0  0  0  0  0  0  0  0
   -4.1130    3.0530   -0.5320 N   0  0  0  0  0  0  0  0  0  0  0  0
   -5.3100    2.4490   -0.5420 C   0  0  0  0  0  0  0  0  0  0  0  0
   -6.6160    2.9600   -0.6220 C   0  0  0  0  0  0  0  0  0  0  0  0
   -7.7100    2.1310   -0.6010 C   0  0  0  0  0  0  0  0  0  0  0  0
   -7.5550    0.7540   -0.4990 C   0  0  0  0  0  0  0  0  0  0  0  0
   -6.2660    0.2640   -0.4210 C   0  0  0  0  0  0  0  0  0  0  0  0
   -5.1740    1.0960   -0.4410 C   0  0  0  0  0  0  0  0  0  0  0  0
    2.4970   -2.2800    0.3740 N   0  0  0  0  0  0  0  0  0  0  0  0
    3.2020   -1.3550   -0.3210 C   0  0  0  0  0  0  0  0  0  0  0  0
    3.5820   -0.4760   -0.9470 O   0  0  0  0  0  0  0  0  0  0  0  0
    4.7270   -2.0430   -0.0520 N   0  0  0  0  0  0  0  0  0  0  0  0
    5.7720   -1.2940   -0.5630 C   0  0  0  0  0  0  0  0  0  0  0  0
    6.2570   -0.1640    0.2780 C   0  0  0  0  0  0  0  0  0  0  0  0
    7.6000    0.1050    0.5580 C   0  0  0  0  0  0  0  0  0  0  0  0
    7.6050    1.2160    1.3430 C   0  0  0  0  0  0  0  0  0  0  0  0
    6.3510    1.6440    1.5650 N   0  0  0  0  0  0  0  0  0  0  0  0
    5.4990    0.7910    0.9070 C   0  0  0  0  0  0  0  0  0  0  0  0
  1  2  2  0
  2  3  1  0
  2 17  1  0
  3  4  1  0
  4  5  1  0
  5  6  2  0
  5  7  1  0
  7  8  1  0
  8  9  2  0
  8 16  1  0
  9 10  1  0
 10 11  1  0
 11 12  2  0
 11 16  1  0
 12 13  1  0
 13 14  2  0
 14 15  1  0
 15 16  2  0
 17 18  1  0
 18 19  2  0
 18 20  1  0
 20 21  1  0
 21 22  1  0
 22 23  1  0
 22 26  2  0
 23 24  2  0
 24 25  1  0
 25 26  1  0
M  END
