
     RDKit          3D

 22 24  0  0  0  0  0  0  0  0999 V2000
   -1.6760    3.5880   -1.1660 C   0  0  0  0  0  0  0  0  0  0  0  0
   -1.0610    2.3700   -0.7980 O   0  0  0  0  0  0  0  0  0  0  0  0
   -1.8460    1.3070   -0.3080 C   0  0  0  0  0  0  0  0  0  0  0  0
   -3.2080    1.4830   -0.1990 C   0  0  0  0  0  0  0  0  0  0  0  0
   -4.0130    0.4660    0.2760 C   0  0  0  0  0  0  0  0  0  0  0  0
   -3.4490   -0.7440    0.6480 C   0  0  0  0  0  0  0  0  0  0  0  0
   -2.0840   -0.9140    0.5360 C   0  0  0  0  0  0  0  0  0  0  0  0
   -1.5620   -2.1420    0.9200 O   0  0  0  0  0  0  0  0  0  0  0  0
   -2.3700   -3.1740    1.4010 C   0  0  0  0  0  0  0  0  0  0  0  0
   -1.2730    0.1080    0.0580 C   0  0  0  0  0  0  0  0  0  0  0  0
    0.1460   -0.0690   -0.0580 C   0  0  0  0  0  0  0  0  0  0  0  0
    0.9720    0.2540    1.0020 C   0  0  0  0  0  0  0  0  0  0  0  0
    2.3240    0.0550    0.8150 C   0  0  0  0  0  0  0  0  0  0  0  0
    3.2180    0.3560    1.8320 C   0  0  0  0  0  0  0  0  0  0  0  0
    4.5320    0.1570    1.6330 N   0  0  0  0  0  0  0  0  0  0  0  0
    5.0410   -0.3250    0.4870 C   0  0  0  0  0  0  0  0  0  0  0  0
    6.4580   -0.5190    0.3250 N   0  0  0  0  0  0  0  0  0  0  0  0
    4.1790   -0.6180   -0.5010 N   0  0  0  0  0  0  0  0  0  0  0  0
    2.8550   -0.4390   -0.3590 C   0  0  0  0  0  0  0  0  0  0  0  0
    1.9800   -0.7330   -1.3530 N   0  0  0  0  0  0  0  0  0  0  0  0
    0.6520   -0.5670   -1.2450 C   0  0  0  0  0  0  0  0  0  0  0  0
   -0.1730   -0.9100   -2.3570 N   0  0  0  0  0  0  0  0  0  0  0  0
  1  2  1  0
  2  3  1  0
  3  4  2  0
  3 10  1  0
  4  5  1  0
  5  6  2  0
  6  7  1  0
  7  8  1  0
  7 10  2  0
  8  9  1  0
 10 11  1  0
 11 12  2  0
 11 21  1  0
 12 13  1  0
 13 14  2  0
 13 19  1  0
 14 15  1  0
 15 16  2  0
 16 17  1  0
 16 18  1  0
 18 19  2  0
 19 20  1  0
 20 21  2  0
 21 22  1  0
M  END
