
     RDKit          3D

 12 12  0  0  0  0  0  0  0  0999 V2000
   -3.2630   -0.4380   -0.0930 O   0  0  0  0  0  0  0  0  0  0  0  0
   -2.3900    0.5920    0.1690 C   0  0  0  0  0  0  0  0  0  0  0  0
   -1.0080    0.3630   -0.4160 C   0  0  1  0  0  0  0  0  0  0  0  0
   -0.2370    1.4510   -0.0890 O   0  0  0  0  0  0  0  0  0  0  0  0
    1.0460    1.3240   -0.5880 C   0  0  1  0  0  0  0  0  0  0  0  0
    1.7530    2.5270   -0.4010 O   0  0  0  0  0  0  0  0  0  0  0  0
    1.7090    0.1960    0.2140 C   0  0  2  0  0  0  0  0  0  0  0  0
    3.0660    0.1620    0.0240 O   0  0  0  0  0  0  0  0  0  0  0  0
    1.0110   -1.0820   -0.2350 C   0  0  1  0  0  0  0  0  0  0  0  0
    1.5720   -2.1520    0.4260 O   0  0  0  0  0  0  0  0  0  0  0  0
   -0.4560   -0.9530    0.0150 C   0  0  1  0  0  0  0  0  0  0  0  0
   -0.7480   -1.2040    1.3480 O   0  0  0  0  0  0  0  0  0  0  0  0
  1  2  1  0
  3  2  1  1
  3  4  1  0
  3 11  1  0
  4  5  1  0
  5  6  1  1
  5  7  1  0
  7  8  1  6
  7  9  1  0
  9 10  1  1
  9 11  1  0
 11 12  1  1
M  END
