
     RDKit          3D

 11 11  0  0  0  0  0  0  0  0999 V2000
    2.9400    0.0320   -0.7110 O   0  0  0  0  0  0  0  0  0  0  0  0
    1.9150   -0.9110   -0.6380 C   0  0  0  0  0  0  0  0  0  0  0  0
    0.7900   -0.4180    0.2820 C   0  0  2  0  0  0  0  0  0  0  0  0
    1.3860   -0.2320    1.5320 O   0  0  0  0  0  0  0  0  0  0  0  0
   -0.2140   -1.5500    0.3530 C   0  0  0  0  0  0  0  0  0  0  0  0
   -1.3050   -1.0960    1.0630 O   0  0  0  0  0  0  0  0  0  0  0  0
   -2.0130   -0.1170    0.3830 C   0  0  2  0  0  0  0  0  0  0  0  0
   -2.6520   -0.6300   -0.7510 O   0  0  0  0  0  0  0  0  0  0  0  0
   -1.2120    1.0740    0.0070 C   0  0  0  0  0  0  0  0  0  0  0  0
    0.2150    0.8310   -0.2940 C   0  0  1  0  0  0  0  0  0  0  0  0
    0.9510    1.9400    0.1690 O   0  0  0  0  0  0  0  0  0  0  0  0
  1  2  1  0
  2  3  1  0
  3  4  1  1
  3  5  1  0
  3 10  1  0
  5  6  1  0
  6  7  1  0
  7  8  1  6
  7  9  1  0
  9 10  1  0
 10 11  1  1
M  END
