
     RDKit          3D

 12 12  0  0  0  0  0  0  0  0999 V2000
   -3.1640    1.2330   -0.8820 O   0  0  0  0  0  0  0  0  0  0  0  0
   -2.6380    0.4530    0.1730 C   0  0  0  0  0  0  0  0  0  0  0  0
   -1.1980    0.8340    0.4480 C   0  0  1  0  0  0  0  0  0  0  0  0
   -0.7380    0.0500    1.4760 O   0  0  0  0  0  0  0  0  0  0  0  0
    0.6230   -0.1630    1.4860 C   0  0  0  0  0  0  0  0  0  0  0  0
    1.1780   -0.6240    0.1790 C   0  0  2  0  0  0  0  0  0  0  0  0
    1.5070   -1.9920    0.1970 O   0  0  0  0  0  0  0  0  0  0  0  0
    2.4850    0.1130   -0.1350 C   0  0  0  0  0  0  0  0  0  0  0  0
    2.2570    1.4800   -0.1730 O   0  0  0  0  0  0  0  0  0  0  0  0
    0.1720   -0.4130   -0.9020 C   0  0  1  0  0  0  0  0  0  0  0  0
   -0.7070   -1.5100   -0.8800 O   0  0  0  0  0  0  0  0  0  0  0  0
   -0.4670    0.7840   -0.7050 O   0  0  0  0  0  0  0  0  0  0  0  0
  1  2  1  0
  3  2  1  6
  3  4  1  0
  3 12  1  0
  4  5  1  0
  5  6  1  0
  6  7  1  1
  6  8  1  0
  6 10  1  0
  8  9  1  0
 10 11  1  1
 10 12  1  0
M  END
