
     RDKit          3D

 11 11  0  0  0  0  0  0  0  0999 V2000
   -2.7540   -0.9870    0.2140 O   0  0  0  0  0  0  0  0  0  0  0  0
   -1.9990    0.1720    0.3210 C   0  0  0  0  0  0  0  0  0  0  0  0
   -0.6760   -0.0130   -0.4030 C   0  0  2  0  0  0  0  0  0  0  0  0
   -0.8700   -0.2880   -1.7510 O   0  0  0  0  0  0  0  0  0  0  0  0
    0.0670   -1.1490    0.2240 C   0  0  0  0  0  0  0  0  0  0  0  0
    1.5210   -1.1470   -0.1890 C   0  0  0  0  0  0  0  0  0  0  0  0
    2.0650    0.2370    0.0720 C   0  0  1  0  0  0  0  0  0  0  0  0
    3.4210    0.3430   -0.2370 O   0  0  0  0  0  0  0  0  0  0  0  0
    1.3930    1.1820   -0.6670 O   0  0  0  0  0  0  0  0  0  0  0  0
    0.0610    1.2990   -0.3110 C   0  0  2  0  0  0  0  0  0  0  0  0
   -0.0920    1.8660    0.9310 O   0  0  0  0  0  0  0  0  0  0  0  0
  1  2  1  0
  2  3  1  0
  3  4  1  6
  3  5  1  0
  3 10  1  0
  5  6  1  0
  6  7  1  0
  7  8  1  6
  7  9  1  0
  9 10  1  0
 10 11  1  1
M  END
