
     RDKit          3D

 19 20  0  0  0  0  0  0  0  0999 V2000
   -4.4540   -1.2660    0.4100 C   0  0  0  0  0  0  0  0  0  0  0  0
   -2.9900   -1.3820    0.1580 C   0  0  0  0  0  0  0  0  0  0  0  0
   -2.2700   -2.4370   -0.1600 N   0  0  0  0  0  0  0  0  0  0  0  0
   -1.0120   -2.1490   -0.3280 N   0  0  0  0  0  0  0  0  0  0  0  0
   -0.8350   -0.7500   -0.1120 C   0  0  0  0  0  0  0  0  0  0  0  0
    0.4390   -0.0830   -0.3730 C   0  0  0  0  0  0  0  0  0  0  0  0
    0.4560    1.2150   -0.8480 C   0  0  0  0  0  0  0  0  0  0  0  0
    1.5880    1.9240   -1.1580 C   0  0  0  0  0  0  0  0  0  0  0  0
    2.8060    1.3220   -0.9910 C   0  0  0  0  0  0  0  0  0  0  0  0
    4.3070    2.1820   -1.4200 Cl  0  0  0  0  0  0  0  0  0  0  0  0
    2.8420    0.0430   -0.5170 C   0  0  0  0  0  0  0  0  0  0  0  0
    4.1020   -0.5840   -0.3640 C   0  0  0  0  0  0  0  0  0  0  0  0
    4.7860   -0.5400    0.7500 C   0  0  0  0  0  0  0  0  0  0  0  0
    4.2210    0.3030    2.1750 Cl  0  0  0  0  0  0  0  0  0  0  0  0
    6.4300   -1.2860    0.8490 Cl  0  0  0  0  0  0  0  0  0  0  0  0
    1.6610   -0.6930   -0.2000 C   0  0  0  0  0  0  0  0  0  0  0  0
   -2.0880   -0.3240    0.1970 C   0  0  0  0  0  0  0  0  0  0  0  0
   -2.5330    1.0620    0.5110 C   0  0  0  0  0  0  0  0  0  0  0  0
   -1.8640    1.4460    1.7290 O   0  0  0  0  0  0  0  0  0  0  0  0
  1  2  1  0
  2  3  2  0
  2 17  1  0
  3  4  1  0
  4  5  1  0
  5  6  1  0
  5 17  2  0
  6  7  2  0
  6 16  1  0
  7  8  1  0
  8  9  2  0
  9 10  1  0
  9 11  1  0
 11 12  1  0
 11 16  2  0
 12 13  2  3
 13 14  1  0
 13 15  1  0
 17 18  1  0
 18 19  1  0
M  END
