
     RDKit          3D

 19 20  0  0  0  0  0  0  0  0999 V2000
    3.7420    1.2390    1.3470 C   0  0  0  0  0  0  0  0  0  0  0  0
    3.9320    0.2560    0.2620 N   0  0  0  0  0  0  0  0  0  0  0  0
    2.7240   -0.3210   -0.2830 C   0  0  0  0  0  0  0  0  0  0  0  0
    1.5280   -0.0160    0.1700 N   0  0  0  0  0  0  0  0  0  0  0  0
    0.4040   -0.5670   -0.3820 C   0  0  0  0  0  0  0  0  0  0  0  0
   -0.9010   -0.2570    0.1590 C   0  0  0  0  0  0  0  0  0  0  0  0
   -1.8230    0.5260   -0.4980 C   0  0  0  0  0  0  0  0  0  0  0  0
   -3.0190    0.8950    0.0650 C   0  0  0  0  0  0  0  0  0  0  0  0
   -4.0070    1.7720   -0.6250 C   0  0  0  0  0  0  0  0  0  0  0  0
   -3.3400    0.4710    1.3540 C   0  0  0  0  0  0  0  0  0  0  0  0
   -2.4390   -0.3160    2.0410 C   0  0  0  0  0  0  0  0  0  0  0  0
   -1.2570   -0.6630    1.4480 C   0  0  0  0  0  0  0  0  0  0  0  0
   -0.3730   -1.4500    2.1490 O   0  0  0  0  0  0  0  0  0  0  0  0
    0.5290   -1.4520   -1.4230 C   0  0  0  0  0  0  0  0  0  0  0  0
   -0.9200   -2.1840   -2.1500 Cl  0  0  0  0  0  0  0  0  0  0  0  0
    1.7860   -1.8080   -1.9350 C   0  0  0  0  0  0  0  0  0  0  0  0
    1.9470   -2.9330   -3.2520 Cl  0  0  0  0  0  0  0  0  0  0  0  0
    2.8880   -1.2110   -1.3320 C   0  0  0  0  0  0  0  0  0  0  0  0
    4.4880   -1.6260   -1.9300 Cl  0  0  0  0  0  0  0  0  0  0  0  0
  1  2  1  0
  2  3  1  0
  3  4  2  0
  3 18  1  0
  4  5  1  0
  5  6  1  0
  5 14  2  0
  6  7  2  0
  6 12  1  0
  7  8  1  0
  8  9  1  0
  8 10  2  0
 10 11  1  0
 11 12  2  0
 12 13  1  0
 14 15  1  0
 14 16  1  0
 16 17  1  0
 16 18  2  0
 18 19  1  0
M  END
