
     RDKit          3D

 19 20  0  0  0  0  0  0  0  0999 V2000
    5.2310   -0.5590    0.4680 C   0  0  0  0  0  0  0  0  0  0  0  0
    3.7690   -0.3020    0.3370 C   0  0  0  0  0  0  0  0  0  0  0  0
    2.9100   -1.3640    0.2740 C   0  0  0  0  0  0  0  0  0  0  0  0
    3.4620   -3.0250    0.3400 Cl  0  0  0  0  0  0  0  0  0  0  0  0
    1.5470   -1.0680    0.1520 C   0  0  0  0  0  0  0  0  0  0  0  0
    1.0820    0.2080    0.0980 C   0  0  0  0  0  0  0  0  0  0  0  0
   -0.3590    0.5190   -0.0310 C   0  0  0  0  0  0  0  0  0  0  0  0
   -0.8200    1.8160   -0.0860 C   0  0  0  0  0  0  0  0  0  0  0  0
   -2.1690    2.1480   -0.2070 C   0  0  0  0  0  0  0  0  0  0  0  0
   -2.6970    3.8130   -0.2710 Cl  0  0  0  0  0  0  0  0  0  0  0  0
   -3.0690    1.1220   -0.2740 C   0  0  0  0  0  0  0  0  0  0  0  0
   -2.6840   -0.1990   -0.2260 C   0  0  0  0  0  0  0  0  0  0  0  0
   -3.6080   -1.2640   -0.2950 N   0  0  0  0  0  0  0  0  0  0  0  0
   -5.0180   -0.9740   -0.4210 C   0  0  0  0  0  0  0  0  0  0  0  0
   -5.9900   -2.4450   -0.4900 Cl  0  0  0  0  0  0  0  0  0  0  0  0
   -1.3160   -0.4730   -0.1040 C   0  0  0  0  0  0  0  0  0  0  0  0
    1.9930    1.1960    0.1660 N   0  0  0  0  0  0  0  0  0  0  0  0
    3.3210    0.9880    0.2840 C   0  0  0  0  0  0  0  0  0  0  0  0
    4.1050    1.9730    0.3420 O   0  0  0  0  0  0  0  0  0  0  0  0
  1  2  1  0
  2  3  2  0
  2 18  1  0
  3  4  1  0
  3  5  1  0
  5  6  2  0
  6  7  1  0
  6 17  1  0
  7  8  2  0
  7 16  1  0
  8  9  1  0
  9 10  1  0
  9 11  2  0
 11 12  1  0
 12 13  1  0
 12 16  2  0
 13 14  1  0
 14 15  1  0
 17 18  1  0
 18 19  2  0
M  END
