
     RDKit          3D

 20 19  0  0  0  0  0  0  0  0999 V2000
    4.4710    0.5430   -1.3120 C   0  0  0  0  0  0  0  0  0  0  0  0
    3.1340    0.7850   -0.5850 C   0  0  1  0  0  0  0  0  0  0  0  0
    2.1310   -0.2420   -0.9570 C   0  0  0  0  0  0  0  0  0  0  0  0
    0.7620   -0.0310   -0.2730 C   0  0  2  0  0  0  0  0  0  0  0  0
   -0.1320   -1.1190   -0.7370 C   0  0  0  0  0  0  0  0  0  0  0  0
   -1.5270   -1.1750   -0.2540 C   0  0  1  0  0  0  0  0  0  0  0  0
   -1.6990   -1.2560    1.2080 C   0  0  0  0  0  0  0  0  0  0  0  0
   -3.0740   -1.2600    1.7770 C   0  0  0  0  0  0  0  0  0  0  0  0
   -3.7750    0.0070    1.5860 C   0  0  0  0  0  0  0  0  0  0  0  0
   -3.2110    1.0530    1.1800 O   0  0  0  0  0  0  0  0  0  0  0  0
   -5.1470    0.1480    1.8460 O   0  0  0  0  0  0  0  0  0  0  0  0
   -2.5130   -0.4770   -1.0710 C   0  0  0  0  0  0  0  0  0  0  0  0
   -2.2140    0.4290   -1.8890 O   0  0  0  0  0  0  0  0  0  0  0  0
   -3.8910   -0.7770   -1.0030 O   0  0  0  0  0  0  0  0  0  0  0  0
    0.2940    1.2820   -0.7140 C   0  0  0  0  0  0  0  0  0  0  0  0
    0.7010    1.7680   -1.8180 O   0  0  0  0  0  0  0  0  0  0  0  0
   -0.5920    2.0930   -0.0190 O   0  0  0  0  0  0  0  0  0  0  0  0
    3.4330    0.8890    0.8620 C   0  0  0  0  0  0  0  0  0  0  0  0
    3.0590    0.0640    1.7020 O   0  0  0  0  0  0  0  0  0  0  0  0
    4.1870    1.9740    1.3600 O   0  0  0  0  0  0  0  0  0  0  0  0
  2  1  1  6
  2  3  1  0
  2 18  1  0
  4  3  1  6
  4  5  1  0
  4 15  1  0
  6  5  1  1
  6  7  1  0
  6 12  1  0
  7  8  1  0
  8  9  1  0
  9 10  2  0
  9 11  1  0
 12 13  2  0
 12 14  1  0
 15 16  2  0
 15 17  1  0
 18 19  2  0
 18 20  1  0
M  END
