
     RDKit          3D

 34 37  0  0  0  0  0  0  0  0999 V2000
   -0.9270    6.1880    0.3900 C   0  0  0  0  0  0  0  0  0  0  0  0
   -1.0820    4.7090    0.3370 C   0  0  0  0  0  0  0  0  0  0  0  0
   -0.7960    4.0700   -0.8310 C   0  0  0  0  0  0  0  0  0  0  0  0
   -0.9410    2.6980   -0.8990 C   0  0  0  0  0  0  0  0  0  0  0  0
   -1.3710    1.9800    0.2040 C   0  0  0  0  0  0  0  0  0  0  0  0
   -1.4690    0.5400    0.0330 C   0  0  0  0  0  0  0  0  0  0  0  0
   -2.6630    0.0840   -0.2270 O   0  0  0  0  0  0  0  0  0  0  0  0
   -0.4720   -0.4220    0.1050 N   0  0  0  0  0  0  0  0  0  0  0  0
   -0.8610   -1.8380    0.0270 C   0  0  0  0  0  0  0  0  0  0  0  0
   -1.1580   -2.3990    1.3420 C   0  0  0  0  0  0  0  0  0  0  0  0
    0.0350   -2.4210    2.6420 Cl  0  0  0  0  0  0  0  0  0  0  0  0
   -2.3360   -2.9170    1.6000 C   0  0  0  0  0  0  0  0  0  0  0  0
   -3.4510   -3.0140    0.6700 C   0  0  0  0  0  0  0  0  0  0  0  0
   -3.3450   -3.6110   -0.5610 C   0  0  0  0  0  0  0  0  0  0  0  0
   -4.4330   -3.6540   -1.4210 C   0  0  0  0  0  0  0  0  0  0  0  0
   -5.6420   -3.1140   -1.0930 C   0  0  0  0  0  0  0  0  0  0  0  0
   -5.7520   -2.5120    0.1490 C   0  0  0  0  0  0  0  0  0  0  0  0
   -7.3210   -1.8180    0.5580 Cl  0  0  0  0  0  0  0  0  0  0  0  0
   -4.6860   -2.4650    1.0010 C   0  0  0  0  0  0  0  0  0  0  0  0
    0.8910   -0.1210    0.2260 C   0  0  0  0  0  0  0  0  0  0  0  0
    1.7100   -0.4590   -0.8680 C   0  0  0  0  0  0  0  0  0  0  0  0
    3.0650   -0.2080   -0.8570 C   0  0  0  0  0  0  0  0  0  0  0  0
    3.5680    0.3870    0.2770 C   0  0  0  0  0  0  0  0  0  0  0  0
    2.8060    0.7040    1.3010 N   0  0  0  0  0  0  0  0  0  0  0  0
    1.4630    0.4670    1.3160 C   0  0  0  0  0  0  0  0  0  0  0  0
    0.8110    0.8020    2.3420 O   0  0  0  0  0  0  0  0  0  0  0  0
    5.3600    0.6690    0.2190 S   0  0  0  0  0  0  0  0  0  0  0  0
    5.9600   -0.7760   -0.6970 C   0  0  0  0  0  0  0  0  0  0  0  0
    7.1710   -1.3550   -0.3260 N   0  0  0  0  0  0  0  0  0  0  0  0
    5.1970   -1.1620   -1.6350 N   0  0  0  0  0  0  0  0  0  0  0  0
    3.9630   -0.5340   -1.9700 C   0  0  0  0  0  0  0  0  0  0  0  0
   -1.6500    2.6530    1.3630 C   0  0  0  0  0  0  0  0  0  0  0  0
   -2.2390    1.7860    2.7410 Cl  0  0  0  0  0  0  0  0  0  0  0  0
   -1.5070    4.0110    1.4350 C   0  0  0  0  0  0  0  0  0  0  0  0
  1  2  1  0
  2  3  2  0
  2 34  1  0
  3  4  1  0
  4  5  2  0
  5  6  1  0
  5 32  1  0
  6  7  2  0
  6  8  1  0
  8  9  1  0
  8 20  1  0
  9 10  1  0
 10 11  1  0
 10 12  2  3
 12 13  1  0
 13 14  2  0
 13 19  1  0
 14 15  1  0
 15 16  2  0
 16 17  1  0
 17 18  1  0
 17 19  2  0
 20 21  2  0
 20 25  1  0
 21 22  1  0
 22 23  2  0
 22 31  1  0
 23 24  1  0
 23 27  1  0
 24 25  1  0
 25 26  2  0
 27 28  1  0
 28 29  1  0
 28 30  2  0
 30 31  1  0
 32 33  1  0
 32 34  2  0
M  CHG  2  29   1  30   1
M  END
