
     RDKit          3D

 34 37  0  0  0  0  0  0  0  0999 V2000
    5.9310   -1.2520   -0.9470 C   0  0  0  0  0  0  0  0  0  0  0  0
    4.8130   -0.9440   -0.1300 O   0  0  0  0  0  0  0  0  0  0  0  0
    4.7570    0.2510    0.5330 C   0  0  0  0  0  0  0  0  0  0  0  0
    5.8870    0.9350    0.7760 C   0  0  0  0  0  0  0  0  0  0  0  0
    5.8290    2.2270    1.4930 C   0  0  0  0  0  0  0  0  0  0  0  0
    4.6880    3.0330    1.2160 N   0  0  0  0  0  0  0  0  0  0  0  0
    3.6030    2.3410    0.5420 C   0  0  0  0  0  0  0  0  0  0  0  0
    3.5340    0.9150    1.0400 C   0  0  1  0  0  0  0  0  0  0  0  0
    2.3030    0.3010    0.5590 N   0  0  0  0  0  0  0  0  0  0  0  0
    2.0270    0.6120   -0.7880 C   0  0  0  0  0  0  0  0  0  0  0  0
    0.7300    0.0290   -1.3320 C   0  0  0  0  0  0  0  0  0  0  0  0
    0.4890    0.3480   -2.6870 C   0  0  0  0  0  0  0  0  0  0  0  0
    1.2190    1.1070   -3.6590 C   0  0  0  0  0  0  0  0  0  0  0  0
    1.0580    2.8570   -3.3850 Cl  0  0  0  0  0  0  0  0  0  0  0  0
   -1.0620   -0.4620   -2.9850 S   0  0  0  0  0  0  0  0  0  0  0  0
   -1.2850   -1.1510   -1.3400 C   0  0  0  0  0  0  0  0  0  0  0  0
   -2.3830   -1.9590   -0.8790 N   0  0  0  0  0  0  0  0  0  0  0  0
   -3.1770   -1.6700    0.0780 C   0  0  0  0  0  0  0  0  0  0  0  0
   -3.0380   -0.4340    0.8300 C   0  0  0  0  0  0  0  0  0  0  0  0
   -2.7550    0.7750    0.2150 C   0  0  0  0  0  0  0  0  0  0  0  0
   -2.6100    1.9670    0.9070 C   0  0  0  0  0  0  0  0  0  0  0  0
   -2.3280    3.1630    0.2820 O   0  0  0  0  0  0  0  0  0  0  0  0
   -2.1590    3.2940   -1.1130 C   0  0  0  0  0  0  0  0  0  0  0  0
   -2.7490    1.9790    2.2780 C   0  0  0  0  0  0  0  0  0  0  0  0
   -3.0310    0.8050    2.9330 C   0  0  0  0  0  0  0  0  0  0  0  0
   -3.1710   -0.3710    2.2210 C   0  0  0  0  0  0  0  0  0  0  0  0
   -3.5180   -1.8680    3.0530 Cl  0  0  0  0  0  0  0  0  0  0  0  0
   -4.2050   -2.6420    0.3320 N   0  0  0  0  0  0  0  0  0  0  0  0
   -3.9730   -4.0720    0.4030 C   0  0  0  0  0  0  0  0  0  0  0  0
   -5.2070   -4.6490   -0.2870 C   0  0  0  0  0  0  0  0  0  0  0  0
   -6.1710   -3.4920   -0.4520 C   0  0  0  0  0  0  0  0  0  0  0  0
   -5.6150   -2.4800    0.5510 C   0  0  0  0  0  0  0  0  0  0  0  0
   -0.1320   -0.7050   -0.6630 C   0  0  0  0  0  0  0  0  0  0  0  0
    0.0020   -1.2110    1.0510 Cl  0  0  0  0  0  0  0  0  0  0  0  0
  1  2  1  0
  2  3  1  0
  3  4  2  0
  3  8  1  0
  4  5  1  0
  5  6  1  0
  6  7  1  0
  7  8  1  0
  8  9  1  6
  9 10  1  0
 10 11  1  0
 11 12  2  0
 11 33  1  0
 12 13  1  0
 12 15  1  0
 13 14  1  0
 15 16  1  0
 16 17  1  0
 16 33  2  0
 17 18  2  3
 18 19  1  0
 18 28  1  0
 19 20  2  0
 19 26  1  0
 20 21  1  0
 21 22  1  0
 21 24  2  0
 22 23  1  0
 24 25  1  0
 25 26  2  0
 26 27  1  0
 28 29  1  0
 28 32  1  0
 29 30  1  0
 30 31  1  0
 31 32  1  0
 33 34  1  0
M  CHG  2   6   1   9   1
M  END
