
     RDKit          3D

 34 37  0  0  0  0  0  0  0  0999 V2000
    3.9400    0.4080    1.4950 O   0  0  0  0  0  0  0  0  0  0  0  0
    4.4050    0.2610    0.2610 C   0  0  0  0  0  0  0  0  0  0  0  0
    3.2920    0.5340   -0.7220 C   0  0  0  0  0  0  0  0  0  0  0  0
    2.2180   -0.2820   -0.1150 C   0  0  0  0  0  0  0  0  0  0  0  0
    0.8570   -0.3610   -0.4040 C   0  0  0  0  0  0  0  0  0  0  0  0
   -0.1510    0.4070    0.0780 C   0  0  0  0  0  0  0  0  0  0  0  0
   -1.4730   -0.0110   -0.3480 C   0  0  0  0  0  0  0  0  0  0  0  0
   -2.5530    0.7360   -0.0750 C   0  0  0  0  0  0  0  0  0  0  0  0
   -4.1750    0.4290   -0.5150 Cl  0  0  0  0  0  0  0  0  0  0  0  0
   -2.3630    1.9050    0.7730 N   0  0  0  0  0  0  0  0  0  0  0  0
   -1.5790    1.8120    2.3120 Cl  0  0  0  0  0  0  0  0  0  0  0  0
   -2.8580    3.1360    0.2610 C   0  0  0  0  0  0  0  0  0  0  0  0
   -2.6630    4.2620    1.0300 C   0  0  0  0  0  0  0  0  0  0  0  0
   -3.1080    5.4680    0.5670 C   0  0  0  0  0  0  0  0  0  0  0  0
   -3.7520    5.6140   -0.6490 C   0  0  0  0  0  0  0  0  0  0  0  0
   -3.9390    4.4820   -1.4100 C   0  0  0  0  0  0  0  0  0  0  0  0
   -3.4860    3.2320   -0.9390 C   0  0  0  0  0  0  0  0  0  0  0  0
   -1.5300   -1.1940   -1.0810 C   0  0  0  0  0  0  0  0  0  0  0  0
   -1.9970   -2.3230   -1.0140 N   0  0  0  0  0  0  0  0  0  0  0  0
   -2.7530   -3.2060   -0.1920 C   0  0  0  0  0  0  0  0  0  0  0  0
   -4.1630   -3.1430   -0.0330 C   0  0  0  0  0  0  0  0  0  0  0  0
   -4.8970   -2.2420    0.6460 C   0  0  0  0  0  0  0  0  0  0  0  0
   -6.2960   -2.3460    0.8480 C   0  0  0  0  0  0  0  0  0  0  0  0
   -6.9730   -3.4140    0.3340 N   0  0  0  0  0  0  0  0  0  0  0  0
   -6.2690   -4.3290   -0.3440 C   0  0  0  0  0  0  0  0  0  0  0  0
   -4.9440   -4.2400   -0.5350 C   0  0  0  0  0  0  0  0  0  0  0  0
   -4.0040   -5.4670   -1.4070 Cl  0  0  0  0  0  0  0  0  0  0  0  0
    0.1090   -1.0510   -1.9690 S   0  0  0  0  0  0  0  0  0  0  0  0
    5.6900   -0.0880    0.0780 N   0  0  0  0  0  0  0  0  0  0  0  0
    6.5450   -0.1070   -1.0670 C   0  0  0  0  0  0  0  0  0  0  0  0
    7.9800   -0.1210   -0.4810 C   0  0  0  0  0  0  0  0  0  0  0  0
    8.0830    0.7580    0.6070 O   0  0  0  0  0  0  0  0  0  0  0  0
    7.4050    0.2410    1.7200 C   0  0  0  0  0  0  0  0  0  0  0  0
    6.3700   -0.7500    1.2900 C   0  0  0  0  0  0  0  0  0  0  0  0
  1  2  2  0
  2  3  1  0
  2 29  1  0
  3  4  1  0
  4  5  1  0
  5  6  2  0
  5 28  1  0
  6  7  1  0
  7  8  2  3
  7 18  1  0
  8  9  1  0
  8 10  1  0
 10 11  1  0
 10 12  1  0
 12 13  2  0
 12 17  1  0
 13 14  1  0
 14 15  2  0
 15 16  1  0
 16 17  2  0
 18 19  2  3
 18 28  1  0
 19 20  1  0
 20 21  1  0
 21 22  2  0
 21 26  1  0
 22 23  1  0
 23 24  2  0
 24 25  1  0
 25 26  2  0
 26 27  1  0
 29 30  1  0
 29 34  1  0
 30 31  1  0
 31 32  1  0
 32 33  1  0
 33 34  1  0
M  CHG  2  19   1  24   1
M  END
