
     RDKit          3D

 34 38  0  0  0  0  0  0  0  0999 V2000
   -6.8180   -4.9410    1.2370 N   0  0  0  0  0  0  0  0  0  0  0  0
   -5.7820   -4.5020    1.0730 C   0  0  0  0  0  0  0  0  0  0  0  0
   -4.4870   -3.9710    0.8510 C   0  0  0  0  0  0  0  0  0  0  0  0
   -3.3790   -4.4070    0.1700 C   0  0  0  0  0  0  0  0  0  0  0  0
   -2.2840   -3.6420    0.1560 C   0  0  0  0  0  0  0  0  0  0  0  0
   -2.2690   -2.4500    0.8050 C   0  0  0  0  0  0  0  0  0  0  0  0
   -1.1430   -1.4770    0.8980 C   0  0  0  0  0  0  0  0  0  0  0  0
   -1.3750   -0.3770   -0.0010 N   0  0  0  0  0  0  0  0  0  0  0  0
    0.0340    0.0630   -0.4130 C   0  0  0  0  0  0  0  0  0  0  0  0
    0.6910   -1.0160   -1.1790 C   0  0  0  0  0  0  0  0  0  0  0  0
    0.2450   -2.1770   -1.5160 O   0  0  0  0  0  0  0  0  0  0  0  0
    1.1180   -2.8710   -2.2010 C   0  0  0  0  0  0  0  0  0  0  0  0
    2.2490   -2.1110   -2.3350 C   0  0  0  0  0  0  0  0  0  0  0  0
    1.9950   -0.9250   -1.6900 C   0  0  0  0  0  0  0  0  0  0  0  0
    2.9000    0.2050   -1.5590 C   0  0  0  0  0  0  0  0  0  0  0  0
    2.8510    1.0880   -2.4530 O   0  0  0  0  0  0  0  0  0  0  0  0
    3.8070    0.3530   -0.5030 N   0  0  0  0  0  0  0  0  0  0  0  0
    3.9330   -0.6230    0.5800 C   0  0  0  0  0  0  0  0  0  0  0  0
    5.4080   -0.8130    0.9140 C   0  0  0  0  0  0  0  0  0  0  0  0
    6.0030    0.4240    1.1900 O   0  0  0  0  0  0  0  0  0  0  0  0
    6.0870    1.1120   -0.0130 C   0  0  0  0  0  0  0  0  0  0  0  0
    4.6860    1.5020   -0.4220 C   0  0  0  0  0  0  0  0  0  0  0  0
   -1.7460    0.8020    0.7670 C   0  0  2  0  0  0  0  0  0  0  0  0
   -2.9030    0.7430    1.6670 C   0  0  0  0  0  0  0  0  0  0  0  0
   -3.1300    2.1060    2.3190 C   0  0  0  0  0  0  0  0  0  0  0  0
   -2.1110    3.1480    1.8670 C   0  0  0  0  0  0  0  0  0  0  0  0
   -2.2290    3.1490    0.3780 C   0  0  0  0  0  0  0  0  0  0  0  0
   -2.5120    4.2440   -0.3910 C   0  0  0  0  0  0  0  0  0  0  0  0
   -2.7090    5.8040    0.3630 Cl  0  0  0  0  0  0  0  0  0  0  0  0
   -2.6270    4.0340   -1.7650 C   0  0  0  0  0  0  0  0  0  0  0  0
   -2.4680    2.8010   -2.3260 N   0  0  0  0  0  0  0  0  0  0  0  0
   -2.1840    1.7050   -1.5550 C   0  0  0  0  0  0  0  0  0  0  0  0
   -2.0720    1.9170   -0.2110 C   0  0  0  0  0  0  0  0  0  0  0  0
   -3.8740   -2.3640    1.4920 S   0  0  0  0  0  0  0  0  0  0  0  0
  1  2  3  0
  2  3  1  0
  3  4  2  0
  3 34  1  0
  4  5  1  0
  5  6  2  0
  6  7  1  0
  6 34  1  0
  7  8  1  0
  8  9  1  0
 23  8  1  6
  9 10  1  0
 10 11  1  0
 10 14  2  0
 11 12  1  0
 12 13  2  0
 13 14  1  0
 14 15  1  0
 15 16  2  0
 15 17  1  0
 17 18  1  0
 17 22  1  0
 18 19  1  0
 19 20  1  0
 20 21  1  0
 21 22  1  0
 23 24  1  0
 23 33  1  0
 24 25  1  0
 25 26  1  0
 26 27  1  0
 27 28  2  0
 27 33  1  0
 28 29  1  0
 28 30  1  0
 30 31  2  0
 31 32  1  0
 32 33  2  0
M  END
