
     RDKit          3D

 34 38  0  0  0  0  0  0  0  0999 V2000
    5.2160    2.8620   -1.9660 C   0  0  0  0  0  0  0  0  0  0  0  0
    4.8350    1.6340   -1.2630 C   0  0  0  0  0  0  0  0  0  0  0  0
    3.5110    1.2320   -1.1230 C   0  0  0  0  0  0  0  0  0  0  0  0
    3.1280    0.0940   -0.4730 C   0  0  0  0  0  0  0  0  0  0  0  0
    1.7910   -0.3330   -0.2890 N   0  0  0  0  0  0  0  0  0  0  0  0
    0.7150    0.5580   -0.3760 C   0  0  0  0  0  0  0  0  0  0  0  0
    0.8430    1.8800   -0.4680 N   0  0  0  0  0  0  0  0  0  0  0  0
   -0.1450    2.7590   -0.4590 C   0  0  0  0  0  0  0  0  0  0  0  0
    0.1890    3.9650   -0.5540 O   0  0  0  0  0  0  0  0  0  0  0  0
   -1.4720    2.3580   -0.3500 N   0  0  0  0  0  0  0  0  0  0  0  0
   -2.5420    3.1380   -0.3990 C   0  0  0  0  0  0  0  0  0  0  0  0
   -3.7760    2.5850   -0.3600 C   0  0  0  0  0  0  0  0  0  0  0  0
   -3.3570    0.8380   -0.2460 S   0  0  0  0  0  0  0  0  0  0  0  0
   -1.6120    1.0480   -0.2590 C   0  0  0  0  0  0  0  0  0  0  0  0
   -0.6090    0.0860   -0.2610 C   0  0  0  0  0  0  0  0  0  0  0  0
   -0.9200   -1.2950   -0.4120 C   0  0  0  0  0  0  0  0  0  0  0  0
   -0.0210   -1.9320   -1.1810 O   0  0  0  0  0  0  0  0  0  0  0  0
   -1.8840   -2.1650    0.0160 N   0  0  0  0  0  0  0  0  0  0  0  0
   -2.0220   -3.5460   -0.5730 C   0  0  0  0  0  0  0  0  0  0  0  0
   -3.5190   -3.5970   -0.7690 C   0  0  0  0  0  0  0  0  0  0  0  0
   -4.0620   -2.6740    0.3190 C   0  0  0  0  0  0  0  0  0  0  0  0
   -2.8110   -2.2810    1.0950 C   0  0  1  0  0  0  0  0  0  0  0  0
   -2.4710   -3.6280    1.8540 C   0  0  0  0  0  0  0  0  0  0  0  0
   -2.9570   -1.2280    2.0960 C   0  0  0  0  0  0  0  0  0  0  0  0
   -4.8690    3.5740   -0.4080 C   0  0  0  0  0  0  0  0  0  0  0  0
   -4.1400    4.7870    0.1490 C   0  0  0  0  0  0  0  0  0  0  0  0
   -2.8150    4.6470   -0.5070 C   0  0  0  0  0  0  0  0  0  0  0  0
    4.1650   -0.6840    0.0680 C   0  0  0  0  0  0  0  0  0  0  0  0
    5.4800   -0.3250   -0.0480 C   0  0  0  0  0  0  0  0  0  0  0  0
    6.4950   -1.1080    0.4940 O   0  0  0  0  0  0  0  0  0  0  0  0
    6.2560   -2.2740    1.1710 C   0  0  0  0  0  0  0  0  0  0  0  0
    7.1880   -3.2430    1.1680 C   0  0  0  0  0  0  0  0  0  0  0  0
    6.8870   -4.7320    2.0300 Cl  0  0  0  0  0  0  0  0  0  0  0  0
    5.8080    0.8340   -0.7140 C   0  0  0  0  0  0  0  0  0  0  0  0
  1  2  1  0
  2  3  2  0
  2 34  1  0
  3  4  1  0
  4  5  1  0
  4 28  2  0
  5  6  1  0
  6  7  2  0
  6 15  1  0
  7  8  1  0
  8  9  2  0
  8 10  1  0
 10 11  1  0
 10 14  1  0
 11 12  2  0
 11 27  1  0
 12 13  1  0
 12 25  1  0
 13 14  1  0
 14 15  2  0
 15 16  1  0
 16 17  2  0
 16 18  1  0
 18 19  1  0
 18 22  1  0
 19 20  1  0
 20 21  1  0
 21 22  1  0
 22 23  1  1
 22 24  1  0
 25 26  1  0
 26 27  1  0
 28 29  1  0
 29 30  1  0
 29 34  2  0
 30 31  1  0
 31 32  2  3
 32 33  1  0
M  END
