
     RDKit          3D

 11 12  0  0  0  0  0  0  0  0999 V2000
    3.6810   -0.2220   -0.1420 O   0  0  0  0  0  0  0  0  0  0  0  0
    2.4260   -0.2040   -0.0950 C   0  0  0  0  0  0  0  0  0  0  0  0
    1.5790   -1.2490   -0.0830 N   0  0  0  0  0  0  0  0  0  0  0  0
    0.3240   -0.7510   -0.0260 C   0  0  0  0  0  0  0  0  0  0  0  0
   -0.9370   -1.3290    0.0100 C   0  0  0  0  0  0  0  0  0  0  0  0
   -2.0690   -0.5460    0.0670 C   0  0  0  0  0  0  0  0  0  0  0  0
   -1.9950    0.8300    0.0900 C   0  0  0  0  0  0  0  0  0  0  0  0
   -3.4840    1.7810    0.1640 Cl  0  0  0  0  0  0  0  0  0  0  0  0
   -0.7640    1.4170    0.0550 C   0  0  0  0  0  0  0  0  0  0  0  0
    0.3740    0.6280   -0.0020 C   0  0  0  0  0  0  0  0  0  0  0  0
    1.7050    0.9300   -0.0460 N   0  0  0  0  0  0  0  0  0  0  0  0
  1  2  2  0
  2  3  1  0
  2 11  1  0
  3  4  1  0
  4  5  2  0
  4 10  1  0
  5  6  1  0
  6  7  2  0
  7  8  1  0
  7  9  1  0
  9 10  2  0
 10 11  1  0
M  END
