
     RDKit          3D

 20 20  0  0  0  0  0  0  0  0999 V2000
    5.5260    0.3160   -0.0090 C   0  0  0  0  0  0  0  0  0  0  0  0
    4.5760    0.3430    1.1530 C   0  0  0  0  0  0  0  0  0  0  0  0
    4.7890   -0.4060    2.1600 O   0  0  0  0  0  0  0  0  0  0  0  0
    3.4620    1.1670    1.1610 O   0  0  0  0  0  0  0  0  0  0  0  0
    2.6530    1.1450    2.2260 O   0  0  0  0  0  0  0  0  0  0  0  0
    1.0470    1.3380    1.6230 S   0  0  0  0  0  0  0  0  0  0  0  0
    0.7460   -0.2600    0.1760 P   0  0  0  0  0  0  0  0  0  0  0  0
   -1.1250   -0.3950   -0.0060 C   0  0  0  0  0  0  0  0  0  0  0  0
   -1.6190   -1.5750    0.1160 C   0  0  0  0  0  0  0  0  0  0  0  0
   -0.7350   -2.7130    0.3830 C   0  0  0  0  0  0  0  0  0  0  0  0
    0.5000   -2.5590    0.4940 O   0  0  0  0  0  0  0  0  0  0  0  0
   -1.2210   -4.0140    0.5240 O   0  0  0  0  0  0  0  0  0  0  0  0
   -3.0650   -1.7850   -0.0170 C   0  0  0  0  0  0  0  0  0  0  0  0
   -3.7790   -0.7250   -0.2600 C   0  0  0  0  0  0  0  0  0  0  0  0
   -3.3230    0.6550   -0.4190 C   0  0  0  0  0  0  0  0  0  0  0  0
   -1.8720    0.8450   -0.2660 C   0  0  1  0  0  0  0  0  0  0  0  0
   -1.6490    1.7540    0.8140 O   0  0  0  0  0  0  0  0  0  0  0  0
   -1.2950    1.5180   -1.4900 C   0  0  0  0  0  0  0  0  0  0  0  0
   -1.3180    0.8160   -2.6690 O   0  0  0  0  0  0  0  0  0  0  0  0
   -0.6620    3.0300   -1.4260 P   0  0  0  0  0  0  0  0  0  0  0  0
  1  2  1  0
  2  3  2  0
  2  4  1  0
  4  5  1  0
  5  6  1  0
  6  7  1  0
  7  8  1  0
  8  9  2  0
  8 16  1  0
  9 10  1  0
  9 13  1  0
 10 11  2  0
 10 12  1  0
 13 14  2  0
 14 15  1  0
 15 16  1  0
 16 17  1  1
 16 18  1  0
 18 19  1  0
 18 20  2  0
M  END
