
     RDKit          3D

 20 20  0  0  0  0  0  0  0  0999 V2000
   -3.8390   -2.2890    0.4460 C   0  0  0  0  0  0  0  0  0  0  0  0
   -2.9000   -2.6020    1.4230 O   0  0  0  0  0  0  0  0  0  0  0  0
   -2.0440   -1.1660    1.9200 P   0  0  0  0  0  0  0  0  0  0  0  0
   -3.3290    0.0060    2.6190 C   0  0  0  0  0  0  0  0  0  0  0  0
   -1.3310   -0.4590    0.4680 O   0  0  0  0  0  0  0  0  0  0  0  0
   -1.2950    0.8990    0.2560 C   0  0  0  0  0  0  0  0  0  0  0  0
   -1.7810    1.6770    1.1120 O   0  0  0  0  0  0  0  0  0  0  0  0
   -0.6870    1.4590   -0.9780 C   0  0  1  0  0  0  0  0  0  0  0  0
   -0.7680    2.8730   -0.9700 O   0  0  0  0  0  0  0  0  0  0  0  0
   -0.3210    3.5360   -2.1060 C   0  0  0  0  0  0  0  0  0  0  0  0
   -0.8040    5.2350   -2.4400 S   0  0  0  0  0  0  0  0  0  0  0  0
    0.6680    2.6280   -3.0830 P   0  0  0  0  0  0  0  0  0  0  0  0
    0.9890    1.0090   -2.5430 O   0  0  0  0  0  0  0  0  0  0  0  0
    0.7440    1.0720   -1.1520 C   0  0  2  0  0  0  0  0  0  0  0  0
    1.0660   -0.1630   -0.5350 O   0  0  0  0  0  0  0  0  0  0  0  0
    2.3770   -0.5930   -0.6520 C   0  0  0  0  0  0  0  0  0  0  0  0
    3.0190   -0.3760   -1.8670 O   0  0  0  0  0  0  0  0  0  0  0  0
    3.0410   -1.1870    0.3070 C   0  0  0  0  0  0  0  0  0  0  0  0
    4.4400   -1.6320    0.1440 C   0  0  0  0  0  0  0  0  0  0  0  0
    2.3530   -1.4160    1.6010 C   0  0  0  0  0  0  0  0  0  0  0  0
  1  2  1  0
  2  3  1  0
  3  4  1  0
  3  5  1  0
  5  6  1  0
  6  7  2  0
  8  6  1  1
  8  9  1  0
  8 14  1  0
  9 10  1  0
 10 11  1  0
 10 12  2  0
 12 13  1  0
 13 14  1  0
 14 15  1  6
 15 16  1  0
 16 17  1  0
 16 18  2  3
 18 19  1  0
 18 20  1  0
M  END
