
     RDKit          3D

 20 20  0  0  0  0  0  0  0  0999 V2000
   -1.4320    3.2590   -1.6240 O   0  0  0  0  0  0  0  0  0  0  0  0
   -0.5490    3.0020   -0.8110 C   0  0  0  0  0  0  0  0  0  0  0  0
   -0.2600    1.8460   -0.0380 C   0  0  0  0  0  0  0  0  0  0  0  0
    0.8480    2.0290    0.6700 O   0  0  0  0  0  0  0  0  0  0  0  0
   -0.9110    0.5830    0.1370 C   0  0  0  0  0  0  0  0  0  0  0  0
   -2.0850    0.2640   -0.3630 C   0  0  0  0  0  0  0  0  0  0  0  0
   -3.0660    1.4060   -1.4260 P   0  0  0  0  0  0  0  0  0  0  0  0
   -2.6850   -0.9840   -0.0650 O   0  0  0  0  0  0  0  0  0  0  0  0
   -2.1530   -1.9370    0.7570 C   0  0  0  0  0  0  0  0  0  0  0  0
   -2.8740   -3.4030    1.0880 P   0  0  0  0  0  0  0  0  0  0  0  0
   -0.8650   -1.5920    1.3620 C   0  0  0  0  0  0  0  0  0  0  0  0
   -0.4860   -2.1500    2.4040 O   0  0  0  0  0  0  0  0  0  0  0  0
   -0.0840   -0.5840    0.6800 C   0  0  1  0  0  0  0  0  0  0  0  0
    0.2460   -1.3680   -0.6870 C   0  0  0  0  0  0  0  0  0  0  0  0
    0.8250   -2.6350   -0.4570 S   0  0  0  0  0  0  0  0  0  0  0  0
    1.1700   -0.3240    1.1450 O   0  0  0  0  0  0  0  0  0  0  0  0
    2.3000   -0.0000    0.3800 C   0  0  0  0  0  0  0  0  0  0  0  0
    2.1830    0.0370   -0.8910 O   0  0  0  0  0  0  0  0  0  0  0  0
    3.5960    0.2940    0.9970 C   0  0  0  0  0  0  0  0  0  0  0  0
    4.5280    0.5790    0.0290 O   0  0  0  0  0  0  0  0  0  0  0  0
  1  2  2  0
  2  3  1  0
  3  4  2  0
  3  5  1  0
  5  6  2  0
  5 13  1  0
  6  7  1  0
  6  8  1  0
  8  9  1  0
  9 10  2  0
  9 11  1  0
 11 12  2  0
 11 13  1  0
 13 14  1  0
 13 16  1  1
 14 15  2  0
 16 17  1  0
 17 18  2  0
 17 19  1  0
 19 20  1  0
M  END
