
     RDKit          3D

 23 25  0  0  0  0  0  0  0  0999 V2000
    6.2610    0.1070   -1.1670 N   0  0  0  0  0  0  0  0  0  0  0  0
    5.0680   -0.5180   -0.7360 C   0  0  0  0  0  0  0  0  0  0  0  0
    5.0400   -1.8440   -0.5620 N   0  0  0  0  0  0  0  0  0  0  0  0
    3.9110   -2.4870   -0.1480 C   0  0  0  0  0  0  0  0  0  0  0  0
    2.8200   -1.7650    0.0840 N   0  0  0  0  0  0  0  0  0  0  0  0
    2.7540   -0.4290   -0.0640 C   0  0  0  0  0  0  0  0  0  0  0  0
    3.9250    0.2000   -0.4880 C   0  0  0  0  0  0  0  0  0  0  0  0
    3.6060    1.5090   -0.5580 N   0  0  0  0  0  0  0  0  0  0  0  0
    2.3110    1.6840   -0.1970 C   0  0  0  0  0  0  0  0  0  0  0  0
    1.7850    0.4860    0.1080 N   0  0  0  0  0  0  0  0  0  0  0  0
    0.4570    0.2000    0.5360 C   0  0  2  0  0  0  0  0  0  0  0  0
   -0.3830   -0.2140   -0.5090 O   0  0  0  0  0  0  0  0  0  0  0  0
   -1.5990   -0.3370    0.1730 C   0  0  2  0  0  0  0  0  0  0  0  0
   -2.7690   -0.3880   -0.7800 C   0  0  0  0  0  0  0  0  0  0  0  0
   -3.9250   -0.5100   -0.0120 O   0  0  0  0  0  0  0  0  0  0  0  0
   -5.3100   -0.5760   -0.9740 P   0  0  1  0  0  0  0  0  0  0  0  0
   -6.5070   -0.3810   -0.0630 O   0  0  0  0  0  0  0  0  0  0  0  0
   -5.3050    0.6410   -2.1480 O   0  0  0  0  0  0  0  0  0  0  0  0
   -5.4260   -2.1020   -1.6610 O   0  0  0  0  0  0  0  0  0  0  0  0
   -1.7160    0.8710    1.0590 C   0  0  1  0  0  0  0  0  0  0  0  0
   -2.0190    0.4300    2.3590 O   0  0  0  0  0  0  0  0  0  0  0  0
   -0.2890    1.4240    1.0270 C   0  0  1  0  0  0  0  0  0  0  0  0
    0.1330    1.8550    2.2610 O   0  0  0  0  0  0  0  0  0  0  0  0
  1  2  1  0
  2  3  2  0
  2  7  1  0
  3  4  1  0
  4  5  2  0
  5  6  1  0
  6  7  2  0
  6 10  1  0
  7  8  1  0
  8  9  2  0
  9 10  1  0
 11 10  1  6
 11 12  1  0
 11 22  1  0
 12 13  1  0
 13 14  1  6
 13 20  1  0
 14 15  1  0
 15 16  1  0
 16 17  2  0
 16 18  1  6
 16 19  1  0
 20 21  1  1
 20 22  1  0
 22 23  1  1
M  END
