
     RDKit          3D

 26 29  0  0  0  0  0  0  0  0999 V2000
    2.0710    2.9290    1.6640 O   0  0  0  0  0  0  0  0  0  0  0  0
    1.0770    1.9580    1.5800 C   0  0  0  0  0  0  0  0  0  0  0  0
    1.6310    0.8940    0.5970 C   0  0  2  0  0  0  0  0  0  0  0  0
    2.8430    0.3970    1.2650 C   0  0  1  0  0  0  0  0  0  0  0  0
    2.4380   -0.1140    2.5460 O   0  0  0  0  0  0  0  0  0  0  0  0
    3.8090   -0.4880    0.6750 C   0  0  1  0  0  0  0  0  0  0  0  0
    3.3970   -1.8320    0.1600 C   0  0  0  0  0  0  0  0  0  0  0  0
    4.7250   -2.4100   -0.2910 C   0  0  0  0  0  0  0  0  0  0  0  0
    5.7110   -1.2780   -0.3990 C   0  0  0  0  0  0  0  0  0  0  0  0
    4.8910    0.0050   -0.2260 C   0  0  1  0  0  0  0  0  0  0  0  0
    4.5600    0.5650   -1.4080 O   0  0  0  0  0  0  0  0  0  0  0  0
    1.8250    1.5690   -0.7010 C   0  0  0  0  0  0  0  0  0  0  0  0
    0.5200    2.2900   -1.0380 C   0  0  0  0  0  0  0  0  0  0  0  0
   -0.6700    1.4280   -0.8640 C   0  0  0  0  0  0  0  0  0  0  0  0
   -0.4970    0.1810   -0.0850 C   0  0  1  0  0  0  0  0  0  0  0  0
   -1.5090    0.0350    1.0620 C   0  0  0  0  0  0  0  0  0  0  0  0
   -2.9050    0.3340    0.6340 C   0  0  0  0  0  0  0  0  0  0  0  0
   -3.2190   -0.1080   -0.7460 C   0  0  2  0  0  0  0  0  0  0  0  0
   -4.6150   -0.7480   -0.7270 C   0  0  2  0  0  0  0  0  0  0  0  0
   -5.6380    0.2380   -0.2530 C   0  0  0  0  0  0  0  0  0  0  0  0
   -6.2610   -0.4910    0.9180 C   0  0  0  0  0  0  0  0  0  0  0  0
   -5.9500   -1.8200    0.7820 O   0  0  0  0  0  0  0  0  0  0  0  0
   -4.7110   -1.9330    0.1640 C   0  0  0  0  0  0  0  0  0  0  0  0
   -2.2890   -1.0790   -1.3530 C   0  0  0  0  0  0  0  0  0  0  0  0
   -0.8620   -0.9930   -1.0140 C   0  0  0  0  0  0  0  0  0  0  0  0
    0.7150   -0.1200    0.4290 O   0  0  0  0  0  0  0  0  0  0  0  0
  1  2  1  0
  3  2  1  1
  3  4  1  0
  3 12  1  0
  3 26  1  0
  4  5  1  1
  4  6  1  0
  6  7  1  6
  6 10  1  0
  7  8  1  0
  8  9  1  0
  9 10  1  0
 10 11  1  6
 12 13  1  0
 13 14  1  0
 15 14  1  6
 15 16  1  0
 15 25  1  0
 15 26  1  0
 16 17  1  0
 18 17  1  1
 18 19  1  0
 18 24  1  0
 19 20  1  1
 19 23  1  0
 20 21  1  0
 21 22  1  0
 22 23  1  0
 24 25  1  0
M  END
