
     RDKit          3D

 26 29  0  0  0  0  0  0  0  0999 V2000
   -1.3570    2.7330   -1.2560 C   0  0  0  0  0  0  0  0  0  0  0  0
   -2.0890    1.4070   -1.2030 C   0  0  0  0  0  0  0  0  0  0  0  0
   -2.1000    0.7550    0.1050 C   0  0  1  0  0  0  0  0  0  0  0  0
   -2.8000    1.6870    1.1070 C   0  0  0  0  0  0  0  0  0  0  0  0
   -4.1080    1.9510    0.7160 O   0  0  0  0  0  0  0  0  0  0  0  0
   -2.8500   -0.5200    0.1510 C   0  0  1  0  0  0  0  0  0  0  0  0
   -4.2180   -0.3960   -0.3860 C   0  0  0  0  0  0  0  0  0  0  0  0
   -5.2510   -0.5290    0.3560 O   0  0  0  0  0  0  0  0  0  0  0  0
   -4.4820   -0.1290   -1.7170 O   0  0  0  0  0  0  0  0  0  0  0  0
   -2.1830   -1.6750   -0.5160 C   0  0  2  0  0  0  0  0  0  0  0  0
   -2.7040   -2.9330    0.1530 C   0  0  0  0  0  0  0  0  0  0  0  0
   -1.5560   -3.3070    1.0670 C   0  0  0  0  0  0  0  0  0  0  0  0
   -0.3720   -3.0630    0.1460 C   0  0  0  0  0  0  0  0  0  0  0  0
   -0.7210   -1.7060   -0.4920 C   0  0  2  0  0  0  0  0  0  0  0  0
    0.0310   -0.6030    0.1090 C   0  0  1  0  0  0  0  0  0  0  0  0
    1.1170   -0.0840   -0.8440 C   0  0  0  0  0  0  0  0  0  0  0  0
    1.9530    0.8980   -0.0670 C   0  0  2  0  0  0  0  0  0  0  0  0
    2.8940    1.5660   -1.0190 C   0  0  0  0  0  0  0  0  0  0  0  0
    4.1040    0.6640   -0.9650 C   0  0  0  0  0  0  0  0  0  0  0  0
    3.9860    0.0570    0.3970 C   0  0  1  0  0  0  0  0  0  0  0  0
    4.5020   -1.3660    0.3250 C   0  0  0  0  0  0  0  0  0  0  0  0
    4.8820    0.7780    1.4130 C   0  0  0  0  0  0  0  0  0  0  0  0
    2.7040    0.1650    0.8360 O   0  0  0  0  0  0  0  0  0  0  0  0
    1.1510    1.9120    0.6630 C   0  0  0  0  0  0  0  0  0  0  0  0
   -0.0850    1.6220    1.0650 O   0  0  0  0  0  0  0  0  0  0  0  0
   -0.7460    0.5010    0.7400 C   0  0  1  0  0  0  0  0  0  0  0  0
  1  2  1  0
  3  2  1  6
  3  4  1  0
  3  6  1  0
  3 26  1  0
  4  5  1  0
  6  7  1  6
  6 10  1  0
  7  8  2  0
  7  9  1  0
 10 11  1  1
 10 14  1  0
 11 12  1  0
 12 13  1  0
 14 13  1  1
 14 15  1  0
 15 16  1  6
 15 26  1  0
 17 16  1  6
 17 18  1  0
 17 23  1  0
 17 24  1  0
 18 19  1  0
 19 20  1  0
 20 21  1  6
 20 22  1  0
 20 23  1  0
 24 25  1  0
 26 25  1  6
M  END
