
     RDKit          3D

 26 29  0  0  0  0  0  0  0  0999 V2000
    1.1580   -1.7190   -0.8990 O   0  0  0  0  0  0  0  0  0  0  0  0
    1.5750   -0.6890   -0.0480 C   0  0  2  0  0  0  0  0  0  0  0  0
    1.3180    0.6210   -0.7080 C   0  0  1  0  0  0  0  0  0  0  0  0
    0.7440    1.5030    0.1580 O   0  0  0  0  0  0  0  0  0  0  0  0
   -0.2490    2.3010   -0.2710 C   0  0  0  0  0  0  0  0  0  0  0  0
   -1.5450    1.7840   -0.7350 C   0  0  0  0  0  0  0  0  0  0  0  0
   -2.4080    1.0680    0.2570 C   0  0  2  0  0  0  0  0  0  0  0  0
   -1.7320   -0.1380    0.7940 C   0  0  0  0  0  0  0  0  0  0  0  0
   -2.7670   -1.0740    1.4270 C   0  0  0  0  0  0  0  0  0  0  0  0
   -3.8620   -0.3260    1.7790 O   0  0  0  0  0  0  0  0  0  0  0  0
   -4.6040   -0.0410    0.6300 C   0  0  1  0  0  0  0  0  0  0  0  0
   -5.0820   -1.3430    0.0440 C   0  0  0  0  0  0  0  0  0  0  0  0
   -6.4630   -1.1060   -0.5180 C   0  0  0  0  0  0  0  0  0  0  0  0
   -6.9410    0.2150    0.0250 C   0  0  0  0  0  0  0  0  0  0  0  0
   -5.8840    0.6590    1.0080 C   0  0  0  0  0  0  0  0  0  0  0  0
   -3.7640    0.7500   -0.3590 C   0  0  0  0  0  0  0  0  0  0  0  0
    2.7460    1.1100   -1.0930 C   0  0  0  0  0  0  0  0  0  0  0  0
    3.5160    0.6260    0.0900 C   0  0  2  0  0  0  0  0  0  0  0  0
    3.0000    1.2910    1.2170 O   0  0  0  0  0  0  0  0  0  0  0  0
    4.9760    0.8610    0.0390 C   0  0  0  0  0  0  0  0  0  0  0  0
    5.7640   -0.2130    0.7590 C   0  0  2  0  0  0  0  0  0  0  0  0
    6.9830    0.3220    1.1740 O   0  0  0  0  0  0  0  0  0  0  0  0
    6.0320   -1.3280   -0.1890 C   0  0  0  0  0  0  0  0  0  0  0  0
    5.0240   -1.4930   -1.2750 C   0  0  0  0  0  0  0  0  0  0  0  0
    3.6330   -1.7350   -0.7930 C   0  0  0  0  0  0  0  0  0  0  0  0
    3.0930   -0.7980    0.1910 C   0  0  2  0  0  0  0  0  0  0  0  0
  2  1  1  6
  2  3  1  0
  2 26  1  0
  3  4  1  1
  3 17  1  0
  4  5  1  0
  5  6  1  0
  7  6  1  6
  7  8  1  0
  7 16  1  0
  8  9  1  0
  9 10  1  0
 10 11  1  0
 11 12  1  6
 11 15  1  0
 11 16  1  0
 12 13  1  0
 13 14  1  0
 14 15  1  0
 17 18  1  0
 18 19  1  1
 18 20  1  0
 18 26  1  0
 20 21  1  0
 21 22  1  6
 21 23  1  0
 23 24  1  0
 24 25  1  0
 26 25  1  6
M  END
