
     RDKit          3D

 23 22  0  0  0  0  0  0  0  0999 V2000
    5.4770    2.4430   -0.1940 C   0  0  0  0  0  0  0  0  0  0  0  0
    4.8300    1.4640    0.7280 C   0  0  0  0  0  0  0  0  0  0  0  0
    3.5000    0.9430    0.1170 C   0  0  1  0  0  0  0  0  0  0  0  0
    3.8850    0.3010   -1.1590 C   0  0  0  0  0  0  0  0  0  0  0  0
    2.9000    0.1180    1.1770 C   0  0  0  0  0  0  0  0  0  0  0  0
    1.5590   -0.5300    0.8970 C   0  0  1  0  0  0  0  0  0  0  0  0
    1.3360   -1.2290    2.2770 C   0  0  0  0  0  0  0  0  0  0  0  0
    2.4170   -2.0890    2.4560 O   0  0  0  0  0  0  0  0  0  0  0  0
    0.5930    0.6600    0.8140 C   0  0  0  0  0  0  0  0  0  0  0  0
   -0.8310    0.1910    0.5350 C   0  0  0  0  0  0  0  0  0  0  0  0
   -1.7160    1.3450    0.4610 C   0  0  0  0  0  0  0  0  0  0  0  0
   -3.1740    1.1820    0.1650 C   0  0  2  0  0  0  0  0  0  0  0  0
   -3.9130    0.3570    1.1490 C   0  0  2  0  0  0  0  0  0  0  0  0
   -3.5430   -1.0680    1.3240 C   0  0  0  0  0  0  0  0  0  0  0  0
   -5.3940    0.5230    1.2100 C   0  0  0  0  0  0  0  0  0  0  0  0
   -3.3980    0.8510   -1.2930 C   0  0  1  0  0  0  0  0  0  0  0  0
   -4.8430    0.6930   -1.6650 C   0  0  0  0  0  0  0  0  0  0  0  0
   -2.8960    2.0240   -2.1200 C   0  0  0  0  0  0  0  0  0  0  0  0
   -2.7350   -0.3020   -1.6860 O   0  0  0  0  0  0  0  0  0  0  0  0
    1.6150   -1.3170   -0.0800 O   0  0  0  0  0  0  0  0  0  0  0  0
    1.6700   -2.0840   -1.0350 C   0  0  1  0  0  0  0  0  0  0  0  0
    2.7450   -3.2130   -1.0090 C   0  0  0  0  0  0  0  0  0  0  0  0
    0.4130   -2.8370   -1.5140 C   0  0  0  0  0  0  0  0  0  0  0  0
  1  2  1  0
  2  3  1  0
  3  4  1  6
  3  5  1  0
  6  5  1  1
  6  7  1  0
  6  9  1  0
  6 20  1  0
  7  8  1  0
  9 10  1  0
 10 11  1  0
 12 11  1  1
 12 13  1  0
 12 16  1  0
 13 14  1  6
 13 15  1  0
 16 17  1  1
 16 18  1  0
 16 19  1  0
 20 21  1  0
 21 22  1  1
 21 23  1  0
M  END
