
     RDKit          3D

 20 21  0  0  0  0  0  0  0  0999 V2000
   -2.4340    1.0900   -1.5030 C   0  0  0  0  0  0  0  0  0  0  0  0
   -2.5290    0.3520   -0.2490 C   0  0  1  0  0  0  0  0  0  0  0  0
   -1.5020   -0.6480    0.1330 C   0  0  1  0  0  0  0  0  0  0  0  0
   -1.7860   -1.6810   -0.9340 O   0  0  0  0  0  0  0  0  0  0  0  0
   -0.0930   -0.3820   -0.1550 C   0  0  0  0  0  0  0  0  0  0  0  0
    0.3960   -0.3240   -1.4340 C   0  0  0  0  0  0  0  0  0  0  0  0
    1.7490   -0.2850   -1.7520 C   0  0  0  0  0  0  0  0  0  0  0  0
    2.2130   -0.2390   -3.0450 O   0  0  0  0  0  0  0  0  0  0  0  0
    2.7140   -0.3030   -0.7070 C   0  0  0  0  0  0  0  0  0  0  0  0
    4.0320   -0.2570   -1.0760 O   0  0  0  0  0  0  0  0  0  0  0  0
    5.1280   -0.1870   -0.2410 C   0  0  0  0  0  0  0  0  0  0  0  0
    5.2320    1.1160    0.5240 C   0  0  0  0  0  0  0  0  0  0  0  0
    6.3610    1.1640    1.3520 O   0  0  0  0  0  0  0  0  0  0  0  0
    2.2170   -0.3590    0.5800 C   0  0  0  0  0  0  0  0  0  0  0  0
    0.8620   -0.3990    0.8300 C   0  0  0  0  0  0  0  0  0  0  0  0
    0.5130   -0.4600    2.1920 O   0  0  0  0  0  0  0  0  0  0  0  0
   -2.8040    1.2110    0.9960 C   0  0  0  0  0  0  0  0  0  0  0  0
   -3.6780    0.2690    1.8330 C   0  0  0  0  0  0  0  0  0  0  0  0
   -4.7090   -0.1110    0.8170 C   0  0  0  0  0  0  0  0  0  0  0  0
   -3.9100   -0.4100   -0.3880 C   0  0  0  0  0  0  0  0  0  0  0  0
  2  1  1  6
  2  3  1  0
  2 17  1  0
  2 20  1  0
  3  4  1  6
  3  5  1  0
  5  6  2  0
  5 15  1  0
  6  7  1  0
  7  8  1  0
  7  9  2  0
  9 10  1  0
  9 14  1  0
 10 11  1  0
 11 12  1  0
 12 13  1  0
 14 15  2  0
 15 16  1  0
 17 18  1  0
 18 19  1  0
 19 20  1  0
M  END
