
     RDKit          3D

 22 21  0  0  0  0  0  0  0  0999 V2000
    6.1560   -2.9400    0.9130 C   0  0  0  0  0  0  0  0  0  0  0  0
    5.7530   -1.8240    1.6870 O   0  0  0  0  0  0  0  0  0  0  0  0
    6.4830   -0.6520    1.7400 C   0  0  0  0  0  0  0  0  0  0  0  0
    7.7760   -0.6300    2.4640 C   0  0  0  0  0  0  0  0  0  0  0  0
    6.0760    0.4700    1.1660 C   0  0  0  0  0  0  0  0  0  0  0  0
    4.8190    0.4640    0.4570 C   0  0  0  0  0  0  0  0  0  0  0  0
    4.1430   -0.5790    0.3950 O   0  0  0  0  0  0  0  0  0  0  0  0
    4.3730    1.6130   -0.1480 O   0  0  0  0  0  0  0  0  0  0  0  0
    3.1510    1.7030   -0.8660 C   0  0  0  0  0  0  0  0  0  0  0  0
    1.9680    1.3840   -0.0200 C   0  0  0  0  0  0  0  0  0  0  0  0
    0.7040    1.4980   -0.9020 C   0  0  1  0  0  0  0  0  0  0  0  0
    0.8740    0.4320   -1.9620 C   0  0  0  0  0  0  0  0  0  0  0  0
   -0.4500    1.3220   -0.0010 C   0  0  0  0  0  0  0  0  0  0  0  0
   -1.8090    1.4940   -0.5910 C   0  0  0  0  0  0  0  0  0  0  0  0
   -2.0700    0.6170   -1.7180 C   0  0  0  0  0  0  0  0  0  0  0  0
   -2.8780   -0.3400   -1.9530 C   0  0  0  0  0  0  0  0  0  0  0  0
   -3.9400   -1.0400   -1.2290 C   0  0  2  0  0  0  0  0  0  0  0  0
   -5.1370   -1.0870   -2.1610 C   0  0  0  0  0  0  0  0  0  0  0  0
   -4.1730   -0.5350    0.1290 C   0  0  0  0  0  0  0  0  0  0  0  0
   -5.2230   -1.2340    0.9480 C   0  0  1  0  0  0  0  0  0  0  0  0
   -5.2060   -0.5560    2.3560 C   0  0  0  0  0  0  0  0  0  0  0  0
   -6.5890   -1.0110    0.3800 C   0  0  0  0  0  0  0  0  0  0  0  0
  1  2  1  0
  2  3  1  0
  3  4  1  0
  3  5  2  3
  5  6  1  0
  6  7  2  0
  6  8  1  0
  8  9  1  0
  9 10  1  0
 10 11  1  0
 11 12  1  6
 11 13  1  0
 13 14  1  0
 14 15  1  0
 15 16  2  3
 16 17  1  0
 17 18  1  6
 17 19  1  0
 19 20  1  0
 20 21  1  1
 20 22  1  0
M  END
