
     RDKit          3D

 19 20  0  0  0  0  0  0  0  0999 V2000
   -5.5180    0.1510   -0.3340 C   0  0  0  0  0  0  0  0  0  0  0  0
   -4.0220    0.1190   -0.1790 C   0  0  0  0  0  0  0  0  0  0  0  0
   -3.4590    0.2520    1.0710 C   0  0  0  0  0  0  0  0  0  0  0  0
   -2.1000    0.2300    1.2630 C   0  0  0  0  0  0  0  0  0  0  0  0
   -1.5820    0.3800    2.6430 C   0  0  0  0  0  0  0  0  0  0  0  0
   -1.2890    0.0680    0.1580 C   0  0  0  0  0  0  0  0  0  0  0  0
    0.1740    0.0470    0.3960 C   0  0  0  0  0  0  0  0  0  0  0  0
    0.9060   -0.1230   -0.7990 O   0  0  0  0  0  0  0  0  0  0  0  0
    2.2890   -0.1570   -0.6960 C   0  0  0  0  0  0  0  0  0  0  0  0
    2.9550   -0.0320    0.5150 C   0  0  0  0  0  0  0  0  0  0  0  0
    4.3110   -0.0640    0.6350 C   0  0  0  0  0  0  0  0  0  0  0  0
    5.0860   -0.2270   -0.4940 C   0  0  0  0  0  0  0  0  0  0  0  0
    6.4720   -0.2630   -0.4020 O   0  0  0  0  0  0  0  0  0  0  0  0
    4.4720   -0.3580   -1.7440 C   0  0  0  0  0  0  0  0  0  0  0  0
    5.2730   -0.5210   -2.8620 O   0  0  0  0  0  0  0  0  0  0  0  0
    3.0970   -0.3220   -1.8260 C   0  0  0  0  0  0  0  0  0  0  0  0
   -1.8320   -0.0670   -1.1030 C   0  0  0  0  0  0  0  0  0  0  0  0
   -3.2210   -0.0400   -1.2680 C   0  0  0  0  0  0  0  0  0  0  0  0
   -3.7970   -0.1730   -2.5200 O   0  0  0  0  0  0  0  0  0  0  0  0
  1  2  1  0
  2  3  2  0
  2 18  1  0
  3  4  1  0
  4  5  1  0
  4  6  2  0
  6  7  1  0
  6 17  1  0
  7  8  1  0
  8  9  1  0
  9 10  2  0
  9 16  1  0
 10 11  1  0
 11 12  2  0
 12 13  1  0
 12 14  1  0
 14 15  1  0
 14 16  2  0
 17 18  2  0
 18 19  1  0
M  END
