
     RDKit          3D

 20 21  0  0  0  0  0  0  0  0999 V2000
   -3.7190    0.1310    2.5790 C   0  0  0  0  0  0  0  0  0  0  0  0
   -2.6650    0.1490    1.4950 C   0  0  0  0  0  0  0  0  0  0  0  0
   -1.3390    0.1830    1.8180 C   0  0  0  0  0  0  0  0  0  0  0  0
   -0.3710    0.2010    0.8230 C   0  0  0  0  0  0  0  0  0  0  0  0
    0.9670    0.2350    1.1350 C   0  0  0  0  0  0  0  0  0  0  0  0
    1.9620    0.2530    0.1400 C   0  0  0  0  0  0  0  0  0  0  0  0
    3.2350    0.2860    0.5510 O   0  0  0  0  0  0  0  0  0  0  0  0
    4.4230    0.3100   -0.1380 C   0  0  1  0  0  0  0  0  0  0  0  0
    5.1370    1.4930    0.2250 O   0  0  0  0  0  0  0  0  0  0  0  0
    5.2900   -0.8670    0.2570 C   0  0  0  0  0  0  0  0  0  0  0  0
    4.9020   -2.0330    0.0510 O   0  0  0  0  0  0  0  0  0  0  0  0
    6.4990   -0.6330    0.8420 O   0  0  0  0  0  0  0  0  0  0  0  0
    1.5360    0.2340   -1.1490 C   0  0  0  0  0  0  0  0  0  0  0  0
    2.4170    0.2490   -2.2180 O   0  0  0  0  0  0  0  0  0  0  0  0
    0.1820    0.2000   -1.4460 C   0  0  0  0  0  0  0  0  0  0  0  0
   -0.8060    0.1820   -0.4890 C   0  0  0  0  0  0  0  0  0  0  0  0
   -2.1500    0.1470   -0.8360 C   0  0  0  0  0  0  0  0  0  0  0  0
   -2.5770    0.1280   -2.2470 C   0  0  0  0  0  0  0  0  0  0  0  0
   -3.0760    0.1310    0.1780 C   0  0  0  0  0  0  0  0  0  0  0  0
   -4.5200    0.0940   -0.1390 C   0  0  0  0  0  0  0  0  0  0  0  0
  1  2  1  0
  2  3  2  0
  2 19  1  0
  3  4  1  0
  4  5  2  0
  4 16  1  0
  5  6  1  0
  6  7  1  0
  6 13  2  0
  7  8  1  0
  8  9  1  1
  8 10  1  0
 10 11  2  0
 10 12  1  0
 13 14  1  0
 13 15  1  0
 15 16  2  0
 16 17  1  0
 17 18  1  0
 17 19  2  0
 19 20  1  0
M  END
