
     RDKit          3D

 19 20  0  0  0  0  0  0  0  0999 V2000
    3.9930   -1.1510    2.0190 C   0  0  0  0  0  0  0  0  0  0  0  0
    3.1410   -2.2420    1.4910 C   0  0  0  0  0  0  0  0  0  0  0  0
    1.9840   -1.9740    0.9230 C   0  0  0  0  0  0  0  0  0  0  0  0
    1.4730   -0.6120    0.7780 C   0  0  0  0  0  0  0  0  0  0  0  0
    0.3240   -0.3650    0.2130 C   0  0  0  0  0  0  0  0  0  0  0  0
   -0.3010    0.9220    0.0020 C   0  0  0  0  0  0  0  0  0  0  0  0
   -1.5550    1.1580   -0.5340 C   0  0  0  0  0  0  0  0  0  0  0  0
   -2.5600    0.1850   -0.9270 C   0  0  0  0  0  0  0  0  0  0  0  0
   -3.5590    0.6240   -1.6040 O   0  0  0  0  0  0  0  0  0  0  0  0
   -2.5030   -1.1940   -0.6060 N   0  0  0  0  0  0  0  0  0  0  0  0
   -2.5710   -2.1410   -1.4700 C   0  0  0  0  0  0  0  0  0  0  0  0
   -2.7120   -1.8020   -2.8370 N   0  0  0  0  0  0  0  0  0  0  0  0
   -2.5040   -3.4760   -1.0340 N   0  0  0  0  0  0  0  0  0  0  0  0
   -1.7620    2.5040   -0.6120 N   0  0  0  0  0  0  0  0  0  0  0  0
   -0.6640    3.0890   -0.1340 C   0  0  0  0  0  0  0  0  0  0  0  0
   -0.1610    4.3590    0.0920 C   0  0  0  0  0  0  0  0  0  0  0  0
    1.0760    4.1810    0.6210 C   0  0  0  0  0  0  0  0  0  0  0  0
    1.3160    2.8070    0.7130 C   0  0  0  0  0  0  0  0  0  0  0  0
    0.2360    2.1510    0.2450 N   0  0  0  0  0  0  0  0  0  0  0  0
  1  2  1  0
  2  3  2  3
  3  4  1  0
  4  5  2  3
  5  6  1  0
  6  7  2  0
  6 19  1  0
  7  8  1  0
  7 14  1  0
  8  9  2  0
  8 10  1  0
 10 11  2  3
 11 12  1  0
 11 13  1  0
 14 15  1  0
 15 16  2  0
 15 19  1  0
 16 17  1  0
 17 18  2  0
 18 19  1  0
M  CHG  1  10   1
M  END
