
     RDKit          3D

 16 17  0  0  0  0  0  0  0  0999 V2000
    5.8280    0.4980   -0.4300 N   0  0  0  0  0  0  0  0  0  0  0  0
    4.4940    0.5410    0.0420 C   0  0  0  0  0  0  0  0  0  0  0  0
    3.7350   -0.7280   -0.2330 C   0  0  0  0  0  0  0  0  0  0  0  0
    2.3210   -0.6080    0.2780 C   0  0  0  0  0  0  0  0  0  0  0  0
    2.0450   -0.2570    1.4300 O   0  0  0  0  0  0  0  0  0  0  0  0
    1.2600   -0.9010   -0.5740 O   0  0  0  0  0  0  0  0  0  0  0  0
   -0.0980   -0.8370   -0.2350 C   0  0  2  0  0  0  0  0  0  0  0  0
   -0.8380   -2.1170   -0.4750 C   0  0  0  0  0  0  0  0  0  0  0  0
   -2.1970   -1.9850    0.1710 C   0  0  0  0  0  0  0  0  0  0  0  0
   -2.9140   -0.7340   -0.1650 C   0  0  0  0  0  0  0  0  0  0  0  0
   -2.1190    0.4990   -0.3600 C   0  0  2  0  0  0  0  0  0  0  0  0
   -0.8120    0.2290   -1.0650 C   0  0  0  0  0  0  0  0  0  0  0  0
   -1.8370    1.1190    0.8330 O   0  0  0  0  0  0  0  0  0  0  0  0
   -2.8320    2.0260    1.0890 C   0  0  0  0  0  0  0  0  0  0  0  0
   -3.4170    2.3220   -0.2660 C   0  0  0  0  0  0  0  0  0  0  0  0
   -2.8630    1.4040   -1.1310 O   0  0  0  0  0  0  0  0  0  0  0  0
  1  2  1  0
  2  3  1  0
  3  4  1  0
  4  5  2  0
  4  6  1  0
  7  6  1  6
  7  8  1  0
  7 12  1  0
  8  9  1  0
  9 10  1  0
 11 10  1  1
 11 12  1  0
 11 13  1  0
 11 16  1  0
 13 14  1  0
 14 15  1  0
 15 16  1  0
M  END
