
     RDKit          3D

 14 14  0  0  0  0  0  0  0  0999 V2000
    4.4530    0.4570   -0.2990 C   0  0  0  0  0  0  0  0  0  0  0  0
    3.1840    0.0870    0.4010 C   0  0  0  0  0  0  0  0  0  0  0  0
    3.2390   -0.2920    1.6000 O   0  0  0  0  0  0  0  0  0  0  0  0
    1.9190    0.1400   -0.2170 N   0  0  0  0  0  0  0  0  0  0  0  0
    0.6750   -0.2160    0.4460 C   0  0  1  0  0  0  0  0  0  0  0  0
   -0.1340    1.0410    0.5910 C   0  0  0  0  0  0  0  0  0  0  0  0
   -1.0240    1.1540   -0.5140 N   0  0  0  0  0  0  0  0  0  0  0  0
   -2.0400    0.1310   -0.4140 C   0  0  2  0  0  0  0  0  0  0  0  0
   -2.9450    0.3730    0.7950 C   0  0  0  0  0  0  0  0  0  0  0  0
   -3.5730    1.5950    0.6880 O   0  0  0  0  0  0  0  0  0  0  0  0
   -1.4720   -1.2370   -0.4140 C   0  0  1  0  0  0  0  0  0  0  0  0
   -1.7900   -1.8670   -1.6370 O   0  0  0  0  0  0  0  0  0  0  0  0
   -0.0200   -1.3550   -0.1850 C   0  0  2  0  0  0  0  0  0  0  0  0
    0.2010   -2.5450    0.5530 O   0  0  0  0  0  0  0  0  0  0  0  0
  1  2  1  0
  2  3  2  0
  2  4  1  0
  5  4  1  6
  5  6  1  0
  5 13  1  0
  6  7  1  0
  7  8  1  0
  8  9  1  1
  8 11  1  0
  9 10  1  0
 11 12  1  6
 11 13  1  0
 13 14  1  1
M  CHG  1   7   1
M  END
