
     RDKit          3D

 20 22  0  0  0  0  0  0  0  0999 V2000
   -3.3870   -1.6090    0.8190 C   0  0  0  0  0  0  0  0  0  0  0  0
   -2.8940   -1.0330   -0.3820 O   0  0  0  0  0  0  0  0  0  0  0  0
   -1.9280   -0.0010   -0.2540 C   0  0  0  0  0  0  0  0  0  0  0  0
   -2.3340    1.2940   -0.1610 C   0  0  0  0  0  0  0  0  0  0  0  0
   -3.6640    1.6830   -0.1860 O   0  0  0  0  0  0  0  0  0  0  0  0
   -1.3430    2.2340   -0.0370 C   0  0  0  0  0  0  0  0  0  0  0  0
   -1.4250    3.5520    0.0790 O   0  0  0  0  0  0  0  0  0  0  0  0
   -0.2550    4.0680    0.1820 C   0  0  0  0  0  0  0  0  0  0  0  0
    0.7000    3.0790    0.1360 N   0  0  0  0  0  0  0  0  0  0  0  0
    1.9910    3.4020    0.2710 O   0  0  0  0  0  0  0  0  0  0  0  0
    0.0310    1.9410   -0.0040 C   0  0  0  0  0  0  0  0  0  0  0  0
    0.4160    0.6140   -0.1030 C   0  0  0  0  0  0  0  0  0  0  0  0
    1.7340    0.2600   -0.0800 C   0  0  0  0  0  0  0  0  0  0  0  0
    2.8410    1.1890   -0.0480 C   0  0  0  0  0  0  0  0  0  0  0  0
    2.0360   -1.1130   -0.1750 C   0  0  0  0  0  0  0  0  0  0  0  0
    3.3170   -1.5280   -0.1510 O   0  0  0  0  0  0  0  0  0  0  0  0
    1.0350   -2.0530   -0.2930 C   0  0  0  0  0  0  0  0  0  0  0  0
    1.4060   -3.4750   -0.3880 C   0  0  0  0  0  0  0  0  0  0  0  0
   -0.2630   -1.6790   -0.3190 C   0  0  0  0  0  0  0  0  0  0  0  0
   -0.5970   -0.3370   -0.2260 C   0  0  0  0  0  0  0  0  0  0  0  0
  1  2  1  0
  2  3  1  0
  3  4  2  0
  3 20  1  0
  4  5  1  0
  4  6  1  0
  6  7  1  0
  6 11  2  0
  7  8  1  0
  8  9  2  0
  9 10  1  0
  9 11  1  0
 11 12  1  0
 12 13  2  0
 12 20  1  0
 13 14  1  0
 13 15  1  0
 15 16  1  0
 15 17  2  0
 17 18  1  0
 17 19  1  0
 19 20  2  0
M  CHG  2   9   1  10  -1
M  END
