
     RDKit          3D

 20 22  0  0  0  0  0  0  0  0999 V2000
   -5.4140   -1.0800    0.2660 C   0  0  0  0  0  0  0  0  0  0  0  0
   -3.9810   -0.7950    0.6360 C   0  0  0  0  0  0  0  0  0  0  0  0
   -3.3620    0.2150    0.0570 C   0  0  0  0  0  0  0  0  0  0  0  0
   -3.8900    1.1620   -0.9550 C   0  0  0  0  0  0  0  0  0  0  0  0
   -2.7490    2.0690   -1.2270 C   0  0  0  0  0  0  0  0  0  0  0  0
   -1.7060    1.7310   -0.5030 C   0  0  0  0  0  0  0  0  0  0  0  0
   -2.0190    0.5960    0.3100 N   0  0  0  0  0  0  0  0  0  0  0  0
   -1.0560   -0.0050    1.2190 C   0  0  0  0  0  0  0  0  0  0  0  0
    0.0600   -0.4410    0.4470 N   0  0  0  0  0  0  0  0  0  0  0  0
   -0.2020   -1.3920   -0.5560 C   0  0  0  0  0  0  0  0  0  0  0  0
    0.8190   -2.5210   -0.4010 C   0  0  0  0  0  0  0  0  0  0  0  0
    2.1480   -1.9170   -0.8580 C   0  0  0  0  0  0  0  0  0  0  0  0
    2.8780   -1.3310    0.2140 N   0  0  0  0  0  0  0  0  0  0  0  0
    2.4900   -0.0630    0.6610 C   0  0  1  0  0  0  0  0  0  0  0  0
    3.4600    0.9890    0.2060 C   0  0  0  0  0  0  0  0  0  0  0  0
    4.0140    2.0200    0.8960 C   0  0  0  0  0  0  0  0  0  0  0  0
    4.8360    2.6830    0.0090 C   0  0  0  0  0  0  0  0  0  0  0  0
    4.7660    2.0710   -1.1400 O   0  0  0  0  0  0  0  0  0  0  0  0
    3.9520    1.0410   -1.0860 C   0  0  0  0  0  0  0  0  0  0  0  0
    1.1340    0.4280    0.3010 C   0  0  0  0  0  0  0  0  0  0  0  0
  1  2  1  0
  2  3  2  3
  3  4  1  0
  3  7  1  0
  4  5  1  0
  5  6  2  0
  6  7  1  0
  7  8  1  0
  8  9  1  0
  9 10  1  0
  9 20  1  0
 10 11  1  0
 11 12  1  0
 12 13  1  0
 13 14  1  0
 14 15  1  6
 14 20  1  0
 15 16  1  0
 15 19  2  0
 16 17  2  0
 17 18  1  0
 18 19  1  0
M  CHG  1  13   1
M  END
