
     RDKit          3D

 20 22  0  0  0  0  0  0  0  0999 V2000
   -4.0480   -2.4510    0.1960 C   0  0  0  0  0  0  0  0  0  0  0  0
   -2.6270   -2.4370    0.4040 N   0  0  0  0  0  0  0  0  0  0  0  0
   -2.1020   -1.1250    0.6360 C   0  0  2  0  0  0  0  0  0  0  0  0
   -2.1380   -0.2430   -0.5840 C   0  0  0  0  0  0  0  0  0  0  0  0
   -1.6080    1.1120   -0.2810 C   0  0  1  0  0  0  0  0  0  0  0  0
   -1.2310    1.7520   -1.6270 C   0  0  0  0  0  0  0  0  0  0  0  0
   -2.7340    2.0030    0.2620 C   0  0  0  0  0  0  0  0  0  0  0  0
   -0.4280    1.1730    0.6200 C   0  0  0  0  0  0  0  0  0  0  0  0
    0.1420   -0.1440    0.9800 C   0  0  0  0  0  0  0  0  0  0  0  0
   -0.6500   -1.2660    0.9950 C   0  0  0  0  0  0  0  0  0  0  0  0
    0.1660   -2.3120    1.3660 C   0  0  0  0  0  0  0  0  0  0  0  0
    1.3820   -1.8010    1.5550 N   0  0  0  0  0  0  0  0  0  0  0  0
    1.3890   -0.4980    1.3290 N   0  0  0  0  0  0  0  0  0  0  0  0
    2.5280    0.3530    1.4410 C   0  0  0  0  0  0  0  0  0  0  0  0
    3.3170    0.5090    0.2370 C   0  0  0  0  0  0  0  0  0  0  0  0
    2.9930   -0.1000   -0.8790 C   0  0  0  0  0  0  0  0  0  0  0  0
    3.7370    0.0020   -2.1500 C   0  0  0  0  0  0  0  0  0  0  0  0
    4.8350    0.8350   -2.0100 O   0  0  0  0  0  0  0  0  0  0  0  0
    5.1920    1.4790   -0.8590 C   0  0  0  0  0  0  0  0  0  0  0  0
    4.4970    1.3610    0.2610 C   0  0  0  0  0  0  0  0  0  0  0  0
  1  2  1  0
  3  2  1  6
  3  4  1  0
  3 10  1  0
  4  5  1  0
  5  6  1  6
  5  7  1  0
  5  8  1  0
  8  9  1  0
  9 10  2  0
  9 13  1  0
 10 11  1  0
 11 12  2  0
 12 13  1  0
 13 14  1  0
 14 15  1  0
 15 16  2  0
 15 20  1  0
 16 17  1  0
 17 18  1  0
 18 19  1  0
 19 20  2  0
M  CHG  1   2   1
M  END
