
     RDKit          3D

 20 22  0  0  0  0  0  0  0  0999 V2000
    2.2320    2.4200   -0.3920 C   0  0  0  0  0  0  0  0  0  0  0  0
    2.1830    1.8120    0.9950 C   0  0  1  0  0  0  0  0  0  0  0  0
    2.5610    2.9600    1.9480 C   0  0  0  0  0  0  0  0  0  0  0  0
    0.8600    1.2550    1.3470 C   0  0  0  0  0  0  0  0  0  0  0  0
    0.7400   -0.1370    1.5250 N   0  0  0  0  0  0  0  0  0  0  0  0
   -0.4970   -0.7610    1.2820 C   0  0  0  0  0  0  0  0  0  0  0  0
   -1.0280   -0.7870   -0.0680 C   0  0  0  0  0  0  0  0  0  0  0  0
   -0.3850   -0.2850   -1.1700 C   0  0  0  0  0  0  0  0  0  0  0  0
   -0.9370   -0.3550   -2.4480 C   0  0  0  0  0  0  0  0  0  0  0  0
   -0.2640    0.1710   -3.6000 C   0  0  0  0  0  0  0  0  0  0  0  0
    0.2760    0.6170   -4.5290 N   0  0  0  0  0  0  0  0  0  0  0  0
   -2.1530   -0.9410   -2.6070 C   0  0  0  0  0  0  0  0  0  0  0  0
   -2.8430   -1.4670   -1.5080 C   0  0  0  0  0  0  0  0  0  0  0  0
   -2.2730   -1.3810   -0.2650 C   0  0  0  0  0  0  0  0  0  0  0  0
   -3.1430   -1.9520    0.5520 C   0  0  0  0  0  0  0  0  0  0  0  0
   -4.2910   -2.4170   -0.1420 N   0  0  0  0  0  0  0  0  0  0  0  0
   -4.0210   -2.0650   -1.4720 C   0  0  0  0  0  0  0  0  0  0  0  0
    1.8090   -0.9530    1.0780 C   0  0  0  0  0  0  0  0  0  0  0  0
    2.9810   -0.2890    0.4740 C   0  0  0  0  0  0  0  0  0  0  0  0
    3.2310    0.9070    1.0880 O   0  0  0  0  0  0  0  0  0  0  0  0
  2  1  1  6
  2  3  1  0
  2  4  1  0
  2 20  1  0
  4  5  1  0
  5  6  1  0
  5 18  1  0
  6  7  1  0
  7  8  2  0
  7 14  1  0
  8  9  1  0
  9 10  1  0
  9 12  2  0
 10 11  3  0
 12 13  1  0
 13 14  1  0
 13 17  2  0
 14 15  2  0
 15 16  1  0
 16 17  1  0
 18 19  1  0
 19 20  1  0
M  CHG  1  16   1
M  END
