
     RDKit          3D

 20 22  0  0  0  0  0  0  0  0999 V2000
   -2.0660   -3.3920   -0.8040 C   0  0  0  0  0  0  0  0  0  0  0  0
   -2.7540   -2.1510   -0.3100 C   0  0  1  0  0  0  0  0  0  0  0  0
   -3.4970   -2.3650    0.9680 C   0  0  0  0  0  0  0  0  0  0  0  0
   -1.8610   -1.0180   -0.1960 N   0  0  0  0  0  0  0  0  0  0  0  0
   -0.5070   -1.0070   -0.3240 C   0  0  0  0  0  0  0  0  0  0  0  0
   -0.0480    0.2780   -0.1280 C   0  0  0  0  0  0  0  0  0  0  0  0
    1.3910    0.6660   -0.0560 C   0  0  2  0  0  0  0  0  0  0  0  0
    2.0410    0.2530   -1.3900 C   0  0  0  0  0  0  0  0  0  0  0  0
    3.3970    0.5250   -1.2740 O   0  0  0  0  0  0  0  0  0  0  0  0
    4.1150   -0.6520   -1.1230 C   0  0  0  0  0  0  0  0  0  0  0  0
    3.2540   -1.7020   -0.4560 C   0  0  0  0  0  0  0  0  0  0  0  0
    2.6150   -1.2910    0.8080 C   0  0  0  0  0  0  0  0  0  0  0  0
    2.1200    0.0150    1.0110 N   0  0  0  0  0  0  0  0  0  0  0  0
   -1.1650    1.0330    0.1200 C   0  0  0  0  0  0  0  0  0  0  0  0
   -1.2520    2.4770    0.3740 C   0  0  0  0  0  0  0  0  0  0  0  0
   -2.3260    3.2010    0.0070 C   0  0  0  0  0  0  0  0  0  0  0  0
   -2.1450    4.6070    0.3790 C   0  0  0  0  0  0  0  0  0  0  0  0
   -0.8310    4.6300    1.0570 C   0  0  0  0  0  0  0  0  0  0  0  0
   -0.3700    3.3950    1.0200 C   0  0  0  0  0  0  0  0  0  0  0  0
   -2.2320    0.1930    0.0690 N   0  0  0  0  0  0  0  0  0  0  0  0
  2  1  1  1
  2  3  1  0
  2  4  1  0
  4  5  1  0
  4 20  1  0
  5  6  2  0
  7  6  1  6
  6 14  1  0
  7  8  1  0
  7 13  1  0
  8  9  1  0
  9 10  1  0
 10 11  1  0
 11 12  1  0
 12 13  1  0
 14 15  1  0
 14 20  2  0
 15 16  2  0
 15 19  1  0
 16 17  1  0
 17 18  1  0
 18 19  2  0
M  CHG  1  13   1
M  END
