
     RDKit          3D

 18 19  0  0  0  0  0  0  0  0999 V2000
    3.5560    1.4150   -0.8810 C   0  0  0  0  0  0  0  0  0  0  0  0
    2.7940    0.1410   -0.6560 C   0  0  1  0  0  0  0  0  0  0  0  0
    3.3240   -0.5850    0.5810 C   0  0  0  0  0  0  0  0  0  0  0  0
    2.6940   -1.9330    0.7220 C   0  0  0  0  0  0  0  0  0  0  0  0
    1.4940   -2.0850   -0.1780 C   0  0  0  0  0  0  0  0  0  0  0  0
    0.6980   -0.8910   -0.1780 N   0  0  0  0  0  0  0  0  0  0  0  0
   -0.7520   -0.9380    0.0970 C   0  0  0  0  0  0  0  0  0  0  0  0
   -1.1580   -2.0740    0.3120 O   0  0  0  0  0  0  0  0  0  0  0  0
   -1.4490    0.2890    0.0750 C   0  0  0  0  0  0  0  0  0  0  0  0
   -2.6700    0.6570    0.2560 C   0  0  0  0  0  0  0  0  0  0  0  0
   -2.9840    2.1090    0.1340 N   0  0  0  0  0  0  0  0  0  0  0  0
   -4.3910    2.1760   -0.1970 C   0  0  0  0  0  0  0  0  0  0  0  0
   -4.9030    1.1190    0.6170 O   0  0  0  0  0  0  0  0  0  0  0  0
   -3.9300    0.0540    0.5680 C   0  0  0  0  0  0  0  0  0  0  0  0
   -4.2670   -1.1750    0.7860 C   0  0  0  0  0  0  0  0  0  0  0  0
   -5.6240   -1.3720    1.0660 F   0  0  0  0  0  0  0  0  0  0  0  0
   -3.5730   -2.2750    0.7940 F   0  0  0  0  0  0  0  0  0  0  0  0
    1.3140    0.3840   -0.4490 C   0  0  0  0  0  0  0  0  0  0  0  0
  2  1  1  1
  2  3  1  0
  2 18  1  0
  3  4  1  0
  4  5  1  0
  5  6  1  0
  6  7  1  0
  6 18  1  0
  7  8  2  0
  7  9  1  0
  9 10  2  3
 10 11  1  0
 10 14  1  0
 11 12  1  0
 12 13  1  0
 13 14  1  0
 14 15  2  3
 15 16  1  0
 15 17  1  0
M  END
