
     RDKit          3D

 21 22  0  0  0  0  0  0  0  0999 V2000
    1.1230    1.8170    0.3540 O   0  0  0  0  0  0  0  0  0  0  0  0
    1.4670    0.6140    0.4050 C   0  0  0  0  0  0  0  0  0  0  0  0
    0.5870   -0.4900    0.8830 C   0  0  0  0  0  0  0  0  0  0  0  0
   -0.3460   -0.8970   -0.1970 C   0  0  0  0  0  0  0  0  0  0  0  0
    0.0190   -1.9010   -1.0700 N   0  0  0  0  0  0  0  0  0  0  0  0
   -0.9750   -2.0750   -1.9400 C   0  0  0  0  0  0  0  0  0  0  0  0
   -1.9570   -1.1840   -1.6130 C   0  0  0  0  0  0  0  0  0  0  0  0
   -1.5560   -0.4530   -0.5230 N   0  0  0  0  0  0  0  0  0  0  0  0
   -2.2980    0.5910    0.1460 C   0  0  2  0  0  0  0  0  0  0  0  0
   -3.0230    0.0540    1.3670 C   0  0  0  0  0  0  0  0  0  0  0  0
   -4.0330   -1.0060    0.9870 C   0  0  0  0  0  0  0  0  0  0  0  0
   -4.9620   -0.5690   -0.1010 C   0  0  0  0  0  0  0  0  0  0  0  0
   -4.7190    0.8810   -0.4250 C   0  0  0  0  0  0  0  0  0  0  0  0
   -3.3040    1.2220   -0.7680 C   0  0  0  0  0  0  0  0  0  0  0  0
    2.7820    0.2870   -0.0250 N   0  0  0  0  0  0  0  0  0  0  0  0
    3.6600    1.3780   -0.4820 C   0  0  0  0  0  0  0  0  0  0  0  0
    4.9400    0.8540   -0.9880 C   0  0  0  0  0  0  0  0  0  0  0  0
    5.1830    0.9440   -2.6180 S   0  0  0  0  0  0  0  0  0  0  0  0
    5.9380    0.2930   -0.1880 N   0  0  0  0  0  0  0  0  0  0  0  0
    5.8130    0.1900    1.2350 C   0  0  0  0  0  0  0  0  0  0  0  0
    6.8670   -0.5720    1.7810 O   0  0  0  0  0  0  0  0  0  0  0  0
  1  2  2  0
  2  3  1  0
  2 15  1  0
  3  4  1  0
  4  5  2  0
  4  8  1  0
  5  6  1  0
  6  7  2  0
  7  8  1  0
  9  8  1  6
  9 10  1  0
  9 14  1  0
 10 11  1  0
 11 12  1  0
 12 13  1  0
 13 14  1  0
 15 16  1  0
 16 17  1  0
 17 18  2  0
 17 19  1  0
 19 20  1  0
 20 21  1  0
M  END
