
     RDKit          3D

 18 19  0  0  0  0  0  0  0  0999 V2000
    3.4770   -1.6880   -0.7840 C   0  0  0  0  0  0  0  0  0  0  0  0
    3.2440   -0.4380   -0.5300 C   0  0  0  0  0  0  0  0  0  0  0  0
    4.4260    0.3350   -0.4360 F   0  0  0  0  0  0  0  0  0  0  0  0
    2.0570    0.3110   -0.2790 C   0  0  0  0  0  0  0  0  0  0  0  0
    2.2410    1.6440   -0.0970 C   0  0  0  0  0  0  0  0  0  0  0  0
    3.5450    2.0500   -0.1830 F   0  0  0  0  0  0  0  0  0  0  0  0
    1.2620    2.7350    0.1510 C   0  0  0  0  0  0  0  0  0  0  0  0
    0.1960    2.7500   -0.8090 O   0  0  0  0  0  0  0  0  0  0  0  0
   -0.6450    1.6810   -1.0820 C   0  0  0  0  0  0  0  0  0  0  0  0
   -1.6060    1.7740   -1.8560 O   0  0  0  0  0  0  0  0  0  0  0  0
   -0.4940    0.3470   -0.4990 C   0  0  0  0  0  0  0  0  0  0  0  0
   -1.6750   -0.2080   -0.2900 C   0  0  0  0  0  0  0  0  0  0  0  0
   -2.9580    0.4070   -0.5920 C   0  0  0  0  0  0  0  0  0  0  0  0
   -3.7370    0.2500    0.7700 C   0  0  0  0  0  0  0  0  0  0  0  0
   -1.5620   -1.5180    0.3240 N   0  0  0  0  0  0  0  0  0  0  0  0
   -0.4210   -1.8470    1.1330 C   0  0  0  0  0  0  0  0  0  0  0  0
    0.8610   -1.6220    0.3030 C   0  0  0  0  0  0  0  0  0  0  0  0
    0.7700   -0.2880   -0.1820 N   0  0  0  0  0  0  0  0  0  0  0  0
  1  2  2  0
  2  3  1  0
  2  4  1  0
  4  5  2  0
  4 18  1  0
  5  6  1  0
  5  7  1  0
  7  8  1  0
  8  9  1  0
  9 10  2  0
  9 11  1  0
 11 12  2  0
 11 18  1  0
 12 13  1  0
 12 15  1  0
 13 14  1  0
 15 16  1  0
 16 17  1  0
 17 18  1  0
M  END
