
     RDKit          3D

 30 33  0  0  0  0  0  0  0  0999 V2000
    6.3230   -0.2410    1.4860 C   0  0  0  0  0  0  0  0  0  0  0  0
    7.6550   -0.3440    0.8490 C   0  0  0  0  0  0  0  0  0  0  0  0
    8.7810   -0.5400    1.5560 N   0  0  0  0  0  0  0  0  0  0  0  0
    9.8110   -0.5440    0.7360 N   0  0  0  0  0  0  0  0  0  0  0  0
    9.3890   -0.3600   -0.4900 C   0  0  0  0  0  0  0  0  0  0  0  0
    7.9670   -0.2240   -0.4680 C   0  0  0  0  0  0  0  0  0  0  0  0
    7.2190   -0.1010   -1.6930 C   0  0  0  0  0  0  0  0  0  0  0  0
    6.0390    1.1720   -1.9870 S   0  0  0  0  0  0  0  0  0  0  0  0
    4.4050    0.7420   -1.4560 C   0  0  0  0  0  0  0  0  0  0  0  0
    3.8070    1.1080   -0.2770 C   0  0  0  0  0  0  0  0  0  0  0  0
    2.5020    0.7130    0.0330 C   0  0  0  0  0  0  0  0  0  0  0  0
    1.7510   -0.0490   -0.8210 C   0  0  0  0  0  0  0  0  0  0  0  0
    0.4240   -0.4390   -0.5580 C   0  0  0  0  0  0  0  0  0  0  0  0
   -0.1430   -1.4490   -0.4290 O   0  0  0  0  0  0  0  0  0  0  0  0
   -0.6080    0.9640   -0.3900 N   0  0  0  0  0  0  0  0  0  0  0  0
   -1.7890    0.2970   -0.2580 C   0  0  0  0  0  0  0  0  0  0  0  0
   -2.1580   -0.8310   -0.1670 O   0  0  0  0  0  0  0  0  0  0  0  0
   -2.8350    1.4040   -0.2540 N   0  0  0  0  0  0  0  0  0  0  0  0
   -4.1620    1.0400   -0.2200 C   0  0  0  0  0  0  0  0  0  0  0  0
   -5.0300    1.6990   -1.1280 C   0  0  0  0  0  0  0  0  0  0  0  0
   -6.3510    1.3480   -1.1530 C   0  0  0  0  0  0  0  0  0  0  0  0
   -6.8690    0.3770   -0.3160 C   0  0  0  0  0  0  0  0  0  0  0  0
   -6.0340   -0.2630    0.5700 C   0  0  0  0  0  0  0  0  0  0  0  0
   -4.6860    0.0820    0.5980 C   0  0  0  0  0  0  0  0  0  0  0  0
   -6.7820   -1.2010    1.3300 N   0  0  1  0  0  0  0  0  0  0  0  0
   -6.2810   -1.3540    2.6870 C   0  0  0  0  0  0  0  0  0  0  0  0
   -8.1150   -0.5720    1.3620 C   0  0  0  0  0  0  0  0  0  0  0  0
   -8.2360   -0.1850   -0.1220 C   0  0  0  0  0  0  0  0  0  0  0  0
    2.3260   -0.4350   -2.0200 C   0  0  0  0  0  0  0  0  0  0  0  0
    3.6020   -0.0540   -2.3200 C   0  0  0  0  0  0  0  0  0  0  0  0
  1  2  1  0
  2  3  2  0
  2  6  1  0
  3  4  1  0
  4  5  1  0
  5  6  2  0
  6  7  1  0
  7  8  1  0
  8  9  1  0
  9 10  2  0
  9 30  1  0
 10 11  1  0
 11 12  2  0
 12 13  1  0
 12 29  1  0
 13 14  2  0
 13 15  1  0
 15 16  1  0
 16 17  2  0
 16 18  1  0
 18 19  1  0
 19 20  2  0
 19 24  1  0
 20 21  1  0
 21 22  2  0
 22 23  1  0
 22 28  1  0
 23 24  2  0
 23 25  1  0
 25 26  1  1
 25 27  1  0
 27 28  1  0
 29 30  2  0
M  CHG  1  25   1
M  END
