
     RDKit          3D

 30 31  0  0  0  0  0  0  0  0999 V2000
   -4.6260   -0.1840   -2.5730 C   0  0  0  0  0  0  0  0  0  0  0  0
   -5.1960    0.0310   -1.4040 C   0  0  0  0  0  0  0  0  0  0  0  0
   -6.2400    0.9350   -1.3370 O   0  0  0  0  0  0  0  0  0  0  0  0
   -4.6890   -0.7010   -0.2500 C   0  0  0  0  0  0  0  0  0  0  0  0
   -5.2420   -0.5040    0.9260 C   0  0  0  0  0  0  0  0  0  0  0  0
   -6.3620    0.4250    1.1670 C   0  0  0  0  0  0  0  0  0  0  0  0
   -3.6390   -1.6000   -0.3600 O   0  0  0  0  0  0  0  0  0  0  0  0
   -2.2760   -1.2140   -0.2600 C   0  0  0  0  0  0  0  0  0  0  0  0
   -2.0820   -0.6010    1.1040 C   0  0  0  0  0  0  0  0  0  0  0  0
   -0.7920   -0.1680    1.3610 O   0  0  0  0  0  0  0  0  0  0  0  0
   -0.0640    0.7840    0.6640 C   0  0  0  0  0  0  0  0  0  0  0  0
    1.2380    0.6480    0.6320 C   0  0  0  0  0  0  0  0  0  0  0  0
    1.8520   -0.4710    1.3060 C   0  0  0  0  0  0  0  0  0  0  0  0
    3.0930   -0.8960    0.9250 C   0  0  0  0  0  0  0  0  0  0  0  0
    3.6640   -2.0220    1.6340 C   0  0  0  0  0  0  0  0  0  0  0  0
    2.7140   -2.4840    2.6730 O   0  0  0  0  0  0  0  0  0  0  0  0
    4.7010   -2.7440    1.6650 C   0  0  0  0  0  0  0  0  0  0  0  0
    5.8980   -2.8920    1.0490 O   0  0  0  0  0  0  0  0  0  0  0  0
    3.7610   -0.2080   -0.1560 C   0  0  0  0  0  0  0  0  0  0  0  0
    4.9500   -0.5070   -0.6240 C   0  0  0  0  0  0  0  0  0  0  0  0
    5.5430    0.2940   -1.7650 C   0  0  0  0  0  0  0  0  0  0  0  0
    6.7510    0.8820   -1.3410 O   0  0  0  0  0  0  0  0  0  0  0  0
    3.0910    0.8850   -0.7740 O   0  0  0  0  0  0  0  0  0  0  0  0
    2.1310    1.6210   -0.0440 C   0  0  2  0  0  0  0  0  0  0  0  0
    2.8810    2.2480    0.9920 O   0  0  0  0  0  0  0  0  0  0  0  0
    1.4090    2.6400   -0.7400 C   0  0  0  0  0  0  0  0  0  0  0  0
    1.9700    3.5310   -1.4800 O   0  0  0  0  0  0  0  0  0  0  0  0
   -0.0360    2.7480   -0.6630 C   0  0  0  0  0  0  0  0  0  0  0  0
   -0.7670    1.8720    0.0020 C   0  0  0  0  0  0  0  0  0  0  0  0
   -2.1660    1.9860    0.0650 O   0  0  0  0  0  0  0  0  0  0  0  0
  1  2  2  0
  2  3  1  0
  2  4  1  0
  4  5  2  3
  4  7  1  0
  5  6  1  0
  7  8  1  0
  8  9  1  0
  9 10  1  0
 10 11  1  0
 11 12  2  0
 11 29  1  0
 12 13  1  0
 12 24  1  0
 13 14  2  0
 14 15  1  0
 14 19  1  0
 15 16  1  0
 15 17  2  3
 17 18  1  0
 19 20  2  3
 19 23  1  0
 20 21  1  0
 21 22  1  0
 23 24  1  0
 24 25  1  1
 24 26  1  0
 26 27  2  0
 26 28  1  0
 28 29  2  0
 29 30  1  0
M  END
