
     RDKit          3D

 30 32  0  0  0  0  0  0  0  0999 V2000
    5.3880    2.3090   -2.2150 O   0  0  0  0  0  0  0  0  0  0  0  0
    4.2630    1.4760   -1.8050 C   0  0  0  0  0  0  0  0  0  0  0  0
    3.9140    1.5260   -0.5680 C   0  0  0  0  0  0  0  0  0  0  0  0
    2.9220    0.9110    0.2230 C   0  0  0  0  0  0  0  0  0  0  0  0
    2.9640    1.3190    1.5560 C   0  0  0  0  0  0  0  0  0  0  0  0
    3.9380    2.2810    2.0490 C   0  0  2  0  0  0  0  0  0  0  0  0
    5.1890    1.6680    2.1070 O   0  0  0  0  0  0  0  0  0  0  0  0
    3.5980    2.6310    3.3840 O   0  0  0  0  0  0  0  0  0  0  0  0
    1.8630   -0.0390   -0.0560 C   0  0  0  0  0  0  0  0  0  0  0  0
    1.5840   -0.5970   -1.1710 C   0  0  0  0  0  0  0  0  0  0  0  0
    2.1910   -0.4490   -2.3670 O   0  0  0  0  0  0  0  0  0  0  0  0
    0.9380   -0.4040    1.1340 C   0  0  0  0  0  0  0  0  0  0  0  0
   -0.1410   -1.2710    0.6300 C   0  0  0  0  0  0  0  0  0  0  0  0
   -0.1750   -2.5730    0.7550 O   0  0  0  0  0  0  0  0  0  0  0  0
   -1.2480   -3.0710    0.2140 C   0  0  0  0  0  0  0  0  0  0  0  0
   -1.9810   -2.0090   -0.3100 C   0  0  0  0  0  0  0  0  0  0  0  0
   -1.2900   -0.8450   -0.0550 C   0  0  0  0  0  0  0  0  0  0  0  0
   -1.6570    0.4280   -0.3990 O   0  0  0  0  0  0  0  0  0  0  0  0
   -2.4280    1.2890    0.4040 C   0  0  0  0  0  0  0  0  0  0  0  0
   -2.5970    2.5760   -0.3420 C   0  0  0  0  0  0  0  0  0  0  0  0
   -1.7130    3.6450   -0.2620 C   0  0  0  0  0  0  0  0  0  0  0  0
   -2.1960    4.6450   -1.0810 C   0  0  0  0  0  0  0  0  0  0  0  0
   -3.3560    4.1370   -1.6240 C   0  0  0  0  0  0  0  0  0  0  0  0
   -3.5570    2.9200   -1.1650 O   0  0  0  0  0  0  0  0  0  0  0  0
   -3.1710   -2.3130   -0.9370 O   0  0  0  0  0  0  0  0  0  0  0  0
   -4.0340   -3.3060   -0.4130 C   0  0  0  0  0  0  0  0  0  0  0  0
   -3.3240   -4.4250    0.2670 C   0  0  1  0  0  0  0  0  0  0  0  0
   -3.6230   -4.3490    1.6410 O   0  0  0  0  0  0  0  0  0  0  0  0
   -3.8100   -5.6630   -0.1670 O   0  0  0  0  0  0  0  0  0  0  0  0
   -1.8350   -4.4250    0.0370 C   0  0  0  0  0  0  0  0  0  0  0  0
  1  2  1  0
  2  3  2  3
  3  4  1  0
  4  5  2  3
  4  9  1  0
  5  6  1  0
  6  7  1  1
  6  8  1  0
  9 10  2  3
  9 12  1  0
 10 11  1  0
 12 13  1  0
 13 14  1  0
 13 17  2  0
 14 15  1  0
 15 16  2  0
 15 30  1  0
 16 17  1  0
 16 25  1  0
 17 18  1  0
 18 19  1  0
 19 20  1  0
 20 21  2  0
 20 24  1  0
 21 22  1  0
 22 23  2  0
 23 24  1  0
 25 26  1  0
 26 27  1  0
 27 28  1  1
 27 29  1  0
 27 30  1  0
M  END
