
     RDKit          3D

 16 15  0  0  0  0  0  0  0  0999 V2000
    3.3480   -1.3040   -0.3230 C   0  0  0  0  0  0  0  0  0  0  0  0
    1.8020   -1.2460   -0.2910 C   0  0  0  0  0  0  0  0  0  0  0  0
    1.3170   -0.3970   -1.1960 O   0  0  0  0  0  0  0  0  0  0  0  0
    0.1470   -0.1500   -1.3680 O   0  0  0  0  0  0  0  0  0  0  0  0
   -0.7870    0.2540   -0.4970 C   0  0  1  0  0  0  0  0  0  0  0  0
   -2.0310    0.5570   -1.4190 C   0  0  0  0  0  0  0  0  0  0  0  0
   -3.4540    1.1350   -0.4310 P   0  0  0  0  0  0  0  0  0  0  0  0
   -4.8310    0.4160   -0.5350 O   0  0  0  0  0  0  0  0  0  0  0  0
   -1.2490   -0.6890    0.5180 C   0  0  0  0  0  0  0  0  0  0  0  0
   -1.0280   -2.1200    0.6460 C   0  0  0  0  0  0  0  0  0  0  0  0
   -1.9580   -0.1660    1.4150 O   0  0  0  0  0  0  0  0  0  0  0  0
   -0.5000    1.5590    0.1550 C   0  0  0  0  0  0  0  0  0  0  0  0
   -1.3460    1.9860    0.9840 O   0  0  0  0  0  0  0  0  0  0  0  0
    0.6140    2.3140   -0.0880 O   0  0  0  0  0  0  0  0  0  0  0  0
    0.8740    3.5240    0.5200 C   0  0  0  0  0  0  0  0  0  0  0  0
    0.0620    3.9930    1.3540 O   0  0  0  0  0  0  0  0  0  0  0  0
  1  2  1  0
  2  3  1  0
  3  4  1  0
  4  5  1  0
  5  6  1  6
  5  9  1  0
  5 12  1  0
  6  7  1  0
  7  8  2  0
  9 10  1  0
  9 11  2  0
 12 13  2  0
 12 14  1  0
 14 15  1  0
 15 16  2  0
M  END
