
     RDKit          3D

 16 15  0  0  0  0  0  0  0  0999 V2000
   -2.4630   -2.8400   -0.4010 C   0  0  0  0  0  0  0  0  0  0  0  0
   -1.9240   -1.5910   -0.6260 O   0  0  0  0  0  0  0  0  0  0  0  0
   -0.7310   -1.1460    0.5210 P   0  0  0  0  0  0  0  0  0  0  0  0
   -1.3150   -1.1770    2.1380 O   0  0  0  0  0  0  0  0  0  0  0  0
   -0.1070    0.5630    0.0780 C   0  0  2  0  0  0  0  0  0  0  0  0
   -1.2630    1.2430   -0.3890 O   0  0  0  0  0  0  0  0  0  0  0  0
   -1.4950    2.2110    0.4340 O   0  0  0  0  0  0  0  0  0  0  0  0
   -2.6710    2.1100    1.1330 C   0  0  0  0  0  0  0  0  0  0  0  0
   -2.7600    3.2400    1.9750 O   0  0  0  0  0  0  0  0  0  0  0  0
    0.9430    0.5030   -0.9740 C   0  0  2  0  0  0  0  0  0  0  0  0
    1.1600    1.9090   -1.5870 C   0  0  0  0  0  0  0  0  0  0  0  0
    0.4350   -0.2370   -2.0470 O   0  0  0  0  0  0  0  0  0  0  0  0
    2.2760    0.0790   -0.4910 C   0  0  0  0  0  0  0  0  0  0  0  0
    2.3860   -1.2630    0.1410 C   0  0  0  0  0  0  0  0  0  0  0  0
    3.8060   -1.4870    0.5180 C   0  0  0  0  0  0  0  0  0  0  0  0
    4.6340   -0.6440    0.2950 O   0  0  0  0  0  0  0  0  0  0  0  0
  1  2  1  0
  2  3  1  0
  3  4  1  0
  3  5  1  0
  5  6  1  6
  5 10  1  0
  6  7  1  0
  7  8  1  0
  8  9  1  0
 10 11  1  6
 10 12  1  0
 10 13  1  0
 13 14  1  0
 14 15  1  0
 15 16  2  0
M  END
