
     RDKit          3D

 15 14  0  0  0  0  0  0  0  0999 V2000
   -3.9160   -0.4690    0.0140 C   0  0  0  0  0  0  0  0  0  0  0  0
   -2.4450   -0.7750    0.1950 C   0  0  0  0  0  0  0  0  0  0  0  0
   -1.8170    0.1890    1.1350 C   0  0  0  0  0  0  0  0  0  0  0  0
   -2.5150    1.0580    1.6200 O   0  0  0  0  0  0  0  0  0  0  0  0
   -0.0650    0.1410    1.5990 P   0  0  0  0  0  0  0  0  0  0  0  0
    1.0170    0.4290    0.1150 C   0  0  1  0  0  0  0  0  0  0  0  0
    2.2210    1.2850    0.4940 C   0  0  0  0  0  0  0  0  0  0  0  0
    1.5550   -0.9190   -0.3160 C   0  0  0  0  0  0  0  0  0  0  0  0
    2.2780   -1.4280    0.7570 O   0  0  0  0  0  0  0  0  0  0  0  0
    2.8250   -2.6770    0.4740 C   0  0  0  0  0  0  0  0  0  0  0  0
    0.2460    1.0670   -1.0010 C   0  0  0  0  0  0  0  0  0  0  0  0
    0.1230    0.5060   -2.1300 O   0  0  0  0  0  0  0  0  0  0  0  0
   -0.3670    2.2990   -0.8480 O   0  0  0  0  0  0  0  0  0  0  0  0
   -1.0600    2.8560   -1.8740 O   0  0  0  0  0  0  0  0  0  0  0  0
   -0.4410    3.9840   -2.1790 O   0  0  0  0  0  0  0  0  0  0  0  0
  1  2  1  0
  2  3  1  0
  3  4  2  0
  3  5  1  0
  5  6  1  0
  6  7  1  1
  6  8  1  0
  6 11  1  0
  8  9  1  0
  9 10  1  0
 11 12  2  0
 11 13  1  0
 13 14  1  0
 14 15  1  0
M  END
