
     RDKit          3D

 16 15  0  0  0  0  0  0  0  0999 V2000
   -1.7930   -0.6680   -2.1840 C   0  0  0  0  0  0  0  0  0  0  0  0
   -2.5390   -0.9470   -0.9100 C   0  0  0  0  0  0  0  0  0  0  0  0
   -1.7750   -1.2760    0.1670 O   0  0  0  0  0  0  0  0  0  0  0  0
   -0.8630   -0.3310    0.6010 C   0  0  1  0  0  0  0  0  0  0  0  0
   -1.6040    0.8770    1.1890 C   0  0  0  0  0  0  0  0  0  0  0  0
   -0.2290   -0.9400    1.7200 O   0  0  0  0  0  0  0  0  0  0  0  0
   -1.1580   -1.2360    2.7020 C   0  0  0  0  0  0  0  0  0  0  0  0
    0.4300    0.1210   -0.5600 P   0  0  0  0  0  0  0  0  0  0  0  0
    1.8080   -0.8720   -0.6450 O   0  0  0  0  0  0  0  0  0  0  0  0
    3.1310   -0.4670   -0.5870 C   0  0  0  0  0  0  0  0  0  0  0  0
    4.1820   -1.5060   -0.6810 C   0  0  0  0  0  0  0  0  0  0  0  0
    3.3450    0.7630   -0.4580 O   0  0  0  0  0  0  0  0  0  0  0  0
    0.5430    1.7250   -1.0760 O   0  0  0  0  0  0  0  0  0  0  0  0
    0.9310    2.8250   -0.3290 C   0  0  0  0  0  0  0  0  0  0  0  0
    1.2360    2.6100    0.8780 O   0  0  0  0  0  0  0  0  0  0  0  0
    0.9750    4.0860   -0.8960 O   0  0  0  0  0  0  0  0  0  0  0  0
  1  2  1  0
  2  3  1  0
  3  4  1  0
  4  5  1  1
  4  6  1  0
  4  8  1  0
  6  7  1  0
  8  9  1  0
  8 13  1  0
  9 10  1  0
 10 11  1  0
 10 12  2  0
 13 14  1  0
 14 15  2  0
 14 16  1  0
M  END
