
     RDKit          3D

 16 16  0  0  0  0  0  0  0  0999 V2000
    4.1870   -0.2640   -0.5460 C   0  0  0  0  0  0  0  0  0  0  0  0
    3.1160    0.5930   -0.6910 O   0  0  0  0  0  0  0  0  0  0  0  0
    2.4510    0.4050   -1.8070 O   0  0  0  0  0  0  0  0  0  0  0  0
    1.2450   -0.0020   -1.4640 O   0  0  0  0  0  0  0  0  0  0  0  0
    0.9230    0.6440   -0.2740 C   0  0  0  0  0  0  0  0  0  0  0  0
   -0.4400    0.2380    0.1930 C   0  0  0  0  0  0  0  0  0  0  0  0
   -1.1940   -0.6220   -0.4710 C   0  0  0  0  0  0  0  0  0  0  0  0
   -0.6540   -1.1410   -1.6450 O   0  0  0  0  0  0  0  0  0  0  0  0
   -1.5520   -1.1410   -3.1600 P   0  0  0  0  0  0  0  0  0  0  0  0
   -2.8880   -0.3950   -3.3250 O   0  0  0  0  0  0  0  0  0  0  0  0
   -2.5180   -1.0000    0.0080 C   0  0  0  0  0  0  0  0  0  0  0  0
   -3.3800   -1.3060   -0.8480 O   0  0  0  0  0  0  0  0  0  0  0  0
   -2.7830   -1.0030    1.4770 C   0  0  0  0  0  0  0  0  0  0  0  0
   -1.8560   -0.0930    2.1930 C   0  0  0  0  0  0  0  0  0  0  0  0
   -1.8430   -0.1100    3.4090 O   0  0  0  0  0  0  0  0  0  0  0  0
   -0.9600    0.8230    1.4480 C   0  0  0  0  0  0  0  0  0  0  0  0
  1  2  1  0
  2  3  1  0
  3  4  1  0
  4  5  1  0
  5  6  1  0
  6  7  2  0
  6 16  1  0
  7  8  1  0
  7 11  1  0
  8  9  1  0
  9 10  2  0
 11 12  2  0
 11 13  1  0
 13 14  1  0
 14 15  2  0
 14 16  1  0
M  END
