
     RDKit          3D

 16 15  0  0  0  0  0  0  0  0999 V2000
    4.9160    0.0590    0.1600 C   0  0  0  0  0  0  0  0  0  0  0  0
    3.4530   -0.0480    0.3570 C   0  0  0  0  0  0  0  0  0  0  0  0
    2.6210    0.9510   -0.4380 C   0  0  0  0  0  0  0  0  0  0  0  0
    1.4160    0.9530    0.2930 O   0  0  0  0  0  0  0  0  0  0  0  0
    0.6580   -0.5660    0.0050 P   0  0  0  0  0  0  0  0  0  0  0  0
    1.2540   -1.7200    1.1950 O   0  0  0  0  0  0  0  0  0  0  0  0
   -1.1810   -0.2750    0.2230 C   0  0  1  0  0  0  0  0  0  0  0  0
   -1.4880    0.0080    1.5560 O   0  0  0  0  0  0  0  0  0  0  0  0
   -1.4850    0.8690   -0.6760 C   0  0  0  0  0  0  0  0  0  0  0  0
   -2.0350    2.1120   -0.1200 C   0  0  0  0  0  0  0  0  0  0  0  0
   -1.2270    0.7880   -1.7800 O   0  0  0  0  0  0  0  0  0  0  0  0
   -1.8810   -1.5320   -0.2230 C   0  0  0  0  0  0  0  0  0  0  0  0
   -1.3460   -2.5970   -0.2790 O   0  0  0  0  0  0  0  0  0  0  0  0
   -3.3370   -1.2930   -0.5860 C   0  0  0  0  0  0  0  0  0  0  0  0
   -3.9000   -1.2140    0.7360 O   0  0  0  0  0  0  0  0  0  0  0  0
   -4.2870   -0.0530    0.9380 O   0  0  0  0  0  0  0  0  0  0  0  0
  1  2  1  0
  2  3  1  0
  3  4  1  0
  4  5  1  0
  5  6  1  0
  5  7  1  0
  7  8  1  1
  7  9  1  0
  7 12  1  0
  9 10  1  0
  9 11  2  0
 12 13  2  0
 12 14  1  0
 14 15  1  0
 15 16  1  0
M  END
