
     RDKit          3D

 16 15  0  0  0  0  0  0  0  0999 V2000
    4.8820    0.3710    0.5800 C   0  0  0  0  0  0  0  0  0  0  0  0
    4.1560   -0.3070   -0.5760 C   0  0  0  0  0  0  0  0  0  0  0  0
    2.7440    0.1510   -0.6470 C   0  0  0  0  0  0  0  0  0  0  0  0
    2.2910    0.8340   -1.5780 O   0  0  0  0  0  0  0  0  0  0  0  0
    1.9180   -0.2180    0.3900 O   0  0  0  0  0  0  0  0  0  0  0  0
    0.5160    0.2030    0.3480 C   0  0  0  0  0  0  0  0  0  0  0  0
    0.0050   -0.3590   -0.7490 O   0  0  0  0  0  0  0  0  0  0  0  0
   -1.1630   -0.2680   -1.1730 O   0  0  0  0  0  0  0  0  0  0  0  0
   -2.1910   -0.2590   -0.3000 C   0  0  1  0  0  0  0  0  0  0  0  0
   -2.1950   -1.4840    0.5690 C   0  0  0  0  0  0  0  0  0  0  0  0
   -2.3520    1.0410    0.3960 C   0  0  0  0  0  0  0  0  0  0  0  0
   -2.5820    2.0180   -0.6050 O   0  0  0  0  0  0  0  0  0  0  0  0
   -3.5280   -0.3930   -1.0770 C   0  0  0  0  0  0  0  0  0  0  0  0
   -3.5610   -0.4930   -2.2580 O   0  0  0  0  0  0  0  0  0  0  0  0
   -5.0200   -0.3830   -0.0330 P   0  0  0  0  0  0  0  0  0  0  0  0
   -4.9660   -0.4820    1.5130 O   0  0  0  0  0  0  0  0  0  0  0  0
  1  2  1  0
  2  3  1  0
  3  4  2  0
  3  5  1  0
  5  6  1  0
  6  7  1  0
  7  8  1  0
  8  9  1  0
  9 10  1  1
  9 11  1  0
  9 13  1  0
 11 12  1  0
 13 14  2  0
 13 15  1  0
 15 16  2  0
M  END
