
     RDKit          3D

 35 39  0  0  0  0  0  0  0  0999 V2000
   -3.3820    2.4360    3.8350 O   0  0  0  0  0  0  0  0  0  0  0  0
   -2.9330    1.3100    3.3470 C   0  0  0  0  0  0  0  0  0  0  0  0
   -3.8870    0.2830    3.3730 N   0  0  0  0  0  0  0  0  0  0  0  0
   -4.5630   -0.4110    2.3260 C   0  0  0  0  0  0  0  0  0  0  0  0
   -4.3480   -1.8300    2.3830 O   0  0  0  0  0  0  0  0  0  0  0  0
   -5.2850   -0.0140    1.4010 N   0  0  0  0  0  0  0  0  0  0  0  0
   -5.8250    1.1300    0.8570 C   0  0  0  0  0  0  0  0  0  0  0  0
   -5.5670    1.4420   -0.4250 C   0  0  0  0  0  0  0  0  0  0  0  0
   -6.2740    2.9260   -1.1280 Cl  0  0  0  0  0  0  0  0  0  0  0  0
   -4.7490    0.6490   -1.2770 N   0  0  0  0  0  0  0  0  0  0  0  0
   -5.2200    0.4330   -2.6420 C   0  0  0  0  0  0  0  0  0  0  0  0
   -6.0790   -0.7930   -2.7630 C   0  0  0  0  0  0  0  0  0  0  0  0
   -7.5240   -0.7480   -1.7660 Cl  0  0  0  0  0  0  0  0  0  0  0  0
   -3.5120    0.0800   -0.8340 C   0  0  0  0  0  0  0  0  0  0  0  0
   -3.2630   -1.1010   -1.1840 O   0  0  0  0  0  0  0  0  0  0  0  0
   -2.5140    0.7900    0.0030 C   0  0  0  0  0  0  0  0  0  0  0  0
   -1.6200   -0.0940    0.7960 C   0  0  0  0  0  0  0  0  0  0  0  0
   -0.9650    0.7820    1.8210 C   0  0  0  0  0  0  0  0  0  0  0  0
    0.3900    1.1270    1.8070 C   0  0  0  0  0  0  0  0  0  0  0  0
    1.4480    0.7320    0.8640 C   0  0  0  0  0  0  0  0  0  0  0  0
    1.3150    0.8200   -0.4990 C   0  0  0  0  0  0  0  0  0  0  0  0
    2.3510    0.4170   -1.3520 C   0  0  0  0  0  0  0  0  0  0  0  0
    3.5390   -0.0800   -0.8660 C   0  0  0  0  0  0  0  0  0  0  0  0
    3.6730   -0.1680    0.5000 C   0  0  0  0  0  0  0  0  0  0  0  0
    2.6540    0.2270    1.3340 C   0  0  0  0  0  0  0  0  0  0  0  0
    5.0160   -0.7260    0.7900 C   0  0  0  0  0  0  0  0  0  0  0  0
    5.7990   -0.2410   -0.4130 C   0  0  1  0  0  0  0  0  0  0  0  0
    7.0980   -0.9500   -0.5980 C   0  0  0  0  0  0  0  0  0  0  0  0
    7.1140   -1.4910   -2.0340 C   0  0  0  0  0  0  0  0  0  0  0  0
    5.9210   -2.3750   -2.2700 C   0  0  0  0  0  0  0  0  0  0  0  0
    4.7800   -1.9600   -1.6290 O   0  0  0  0  0  0  0  0  0  0  0  0
    4.7950   -0.5750   -1.5270 C   0  0  1  0  0  0  0  0  0  0  0  0
    0.5900    1.9140    2.8730 N   0  0  0  0  0  0  0  0  0  0  0  0
   -0.5120    2.0530    3.4940 N   0  0  0  0  0  0  0  0  0  0  0  0
   -1.5590    1.3610    2.8890 C   0  0  0  0  0  0  0  0  0  0  0  0
  1  2  2  0
  2  3  1  0
  2 35  1  0
  3  4  1  0
  4  5  1  0
  4  6  2  0
  6  7  1  0
  7  8  2  0
  8  9  1  0
  8 10  1  0
 10 11  1  0
 10 14  1  0
 11 12  1  0
 12 13  1  0
 14 15  2  0
 14 16  1  0
 16 17  1  0
 17 18  1  0
 18 19  1  0
 18 35  2  0
 19 20  1  0
 19 33  2  0
 20 21  2  0
 20 25  1  0
 21 22  1  0
 22 23  2  0
 23 24  1  0
 23 32  1  0
 24 25  2  0
 24 26  1  0
 27 26  1  1
 27 28  1  0
 27 32  1  0
 28 29  1  0
 29 30  1  0
 30 31  1  0
 32 31  1  1
 33 34  1  0
 34 35  1  0
M  END
