
     RDKit          3D

 35 39  0  0  0  0  0  0  0  0999 V2000
    7.3790   -0.5550   -4.0730 C   0  0  0  0  0  0  0  0  0  0  0  0
    6.0700   -0.2750   -3.6130 O   0  0  0  0  0  0  0  0  0  0  0  0
    5.8860   -0.0610   -2.2540 C   0  0  0  0  0  0  0  0  0  0  0  0
    6.9280   -0.1150   -1.3600 C   0  0  0  0  0  0  0  0  0  0  0  0
    6.7600    0.0950   -0.0140 C   0  0  0  0  0  0  0  0  0  0  0  0
    5.4570    0.3690    0.4070 C   0  0  0  0  0  0  0  0  0  0  0  0
    5.1970    0.5870    1.7040 N   0  0  0  0  0  0  0  0  0  0  0  0
    3.9510    0.8530    2.1300 C   0  0  0  0  0  0  0  0  0  0  0  0
    3.7680    1.0480    3.3550 O   0  0  0  0  0  0  0  0  0  0  0  0
    2.8960    0.9150    1.2870 N   0  0  0  0  0  0  0  0  0  0  0  0
    1.6050    1.2120    1.8060 C   0  0  0  0  0  0  0  0  0  0  0  0
    0.7890    0.0590    2.2710 C   0  0  2  0  0  0  0  0  0  0  0  0
    0.4620   -0.9820    1.2650 C   0  0  0  0  0  0  0  0  0  0  0  0
   -0.7250   -0.3860    0.5210 C   0  0  0  0  0  0  0  0  0  0  0  0
   -1.4690    0.2230    1.5950 N   0  0  0  0  0  0  0  0  0  0  0  0
   -2.8920    0.4160    1.6060 C   0  0  0  0  0  0  0  0  0  0  0  0
   -3.3970    0.9570    2.6110 O   0  0  0  0  0  0  0  0  0  0  0  0
   -3.7000    0.0070    0.5120 N   0  0  0  0  0  0  0  0  0  0  0  0
   -5.1010    0.1520    0.4270 C   0  0  0  0  0  0  0  0  0  0  0  0
   -5.9050    0.7130    1.3900 C   0  0  0  0  0  0  0  0  0  0  0  0
   -7.2820    0.8470    1.2890 C   0  0  0  0  0  0  0  0  0  0  0  0
   -8.2000    1.5790    2.5840 Cl  0  0  0  0  0  0  0  0  0  0  0  0
   -7.9060    0.4040    0.1760 C   0  0  0  0  0  0  0  0  0  0  0  0
   -7.1580   -0.1720   -0.8350 C   0  0  0  0  0  0  0  0  0  0  0  0
   -7.7880   -0.6310   -1.9830 C   0  0  0  0  0  0  0  0  0  0  0  0
   -7.0810   -1.1880   -2.9660 N   0  0  0  0  0  0  0  0  0  0  0  0
   -5.7550   -1.3270   -2.8880 C   0  0  0  0  0  0  0  0  0  0  0  0
   -5.0670   -0.8770   -1.7430 C   0  0  0  0  0  0  0  0  0  0  0  0
   -5.7670   -0.3030   -0.7220 C   0  0  0  0  0  0  0  0  0  0  0  0
   -0.5900    0.6130    2.6580 C   0  0  0  0  0  0  0  0  0  0  0  0
    3.1050    0.7050   -0.0210 C   0  0  0  0  0  0  0  0  0  0  0  0
    2.1900    0.7430   -0.8810 O   0  0  0  0  0  0  0  0  0  0  0  0
    4.3980    0.4270   -0.4750 C   0  0  0  0  0  0  0  0  0  0  0  0
    4.6010    0.2130   -1.8150 C   0  0  0  0  0  0  0  0  0  0  0  0
    3.2530    0.2880   -2.9290 Cl  0  0  0  0  0  0  0  0  0  0  0  0
  1  2  1  0
  2  3  1  0
  3  4  2  0
  3 34  1  0
  4  5  1  0
  5  6  2  0
  6  7  1  0
  6 33  1  0
  7  8  1  0
  8  9  2  0
  8 10  1  0
 10 11  1  0
 10 31  1  0
 12 11  1  6
 12 13  1  0
 12 30  1  0
 13 14  1  0
 14 15  1  0
 15 16  1  0
 15 30  1  0
 16 17  2  0
 16 18  1  0
 18 19  1  0
 19 20  2  0
 19 29  1  0
 20 21  1  0
 21 22  1  0
 21 23  2  0
 23 24  1  0
 24 25  2  0
 24 29  1  0
 25 26  1  0
 26 27  2  0
 27 28  1  0
 28 29  2  0
 31 32  2  0
 31 33  1  0
 33 34  2  0
 34 35  1  0
M  END
