
     RDKit          3D

 35 39  0  0  0  0  0  0  0  0999 V2000
   -5.8070   -2.3060   -1.8090 C   0  0  0  0  0  0  0  0  0  0  0  0
   -5.7890   -1.0160   -1.0130 C   0  0  1  0  0  0  0  0  0  0  0  0
   -4.3860   -0.7890   -0.4180 C   0  0  0  0  0  0  0  0  0  0  0  0
   -4.4540    0.3730    0.4120 N   0  0  0  0  0  0  0  0  0  0  0  0
   -3.4000    0.6580    1.3110 C   0  0  0  0  0  0  0  0  0  0  0  0
   -3.5400    1.6880    2.0870 O   0  0  0  0  0  0  0  0  0  0  0  0
   -2.1570   -0.0660    1.4790 C   0  0  0  0  0  0  0  0  0  0  0  0
   -1.6120   -1.1440    0.8310 C   0  0  0  0  0  0  0  0  0  0  0  0
   -0.3780   -1.4290    1.4170 C   0  0  0  0  0  0  0  0  0  0  0  0
   -0.2270   -0.4730    2.4290 C   0  0  0  0  0  0  0  0  0  0  0  0
    0.8660   -0.3100    3.3420 C   0  0  0  0  0  0  0  0  0  0  0  0
    2.1120   -0.1780    3.0470 C   0  0  0  0  0  0  0  0  0  0  0  0
    3.2750   -0.0060    4.4100 Cl  0  0  0  0  0  0  0  0  0  0  0  0
    2.6590   -0.0240    1.7120 C   0  0  0  0  0  0  0  0  0  0  0  0
    2.0940    0.2410    0.5350 N   0  0  0  0  0  0  0  0  0  0  0  0
    3.0100    0.2310   -0.4540 N   0  0  0  0  0  0  0  0  0  0  0  0
    4.2090   -0.0430    0.0680 C   0  0  0  0  0  0  0  0  0  0  0  0
    5.4760   -0.1510   -0.6460 C   0  0  0  0  0  0  0  0  0  0  0  0
    5.5220   -0.8580   -1.8210 C   0  0  0  0  0  0  0  0  0  0  0  0
    6.7130   -0.9780   -2.5210 C   0  0  0  0  0  0  0  0  0  0  0  0
    7.8640   -0.3850   -2.0410 C   0  0  0  0  0  0  0  0  0  0  0  0
    9.1420   -0.3240   -2.4830 N   0  0  0  0  0  0  0  0  0  0  0  0
    9.8870    0.3910   -1.6290 C   0  0  0  0  0  0  0  0  0  0  0  0
   11.1180    0.6320   -1.7580 O   0  0  0  0  0  0  0  0  0  0  0  0
    9.0500    0.7730   -0.6510 N   0  0  0  0  0  0  0  0  0  0  0  0
    7.7960    0.3180   -0.8630 C   0  0  0  0  0  0  0  0  0  0  0  0
    6.6100    0.4370   -0.1660 C   0  0  0  0  0  0  0  0  0  0  0  0
    4.0170   -0.2050    1.4100 C   0  0  0  0  0  0  0  0  0  0  0  0
    5.2570   -0.5840    2.5850 Cl  0  0  0  0  0  0  0  0  0  0  0  0
   -1.2820    0.2770    2.4110 O   0  0  0  0  0  0  0  0  0  0  0  0
   -5.5870    1.2510    0.2990 C   0  0  2  0  0  0  0  0  0  0  0  0
   -5.1520    2.6940    0.5660 C   0  0  0  0  0  0  0  0  0  0  0  0
   -6.7020    0.9410    1.2720 C   0  0  0  0  0  0  0  0  0  0  0  0
   -6.0950    1.2630   -1.1210 C   0  0  0  0  0  0  0  0  0  0  0  0
   -6.2080    0.0600   -1.7340 O   0  0  0  0  0  0  0  0  0  0  0  0
  2  1  1  6
  2  3  1  0
  2 35  1  0
  3  4  1  0
  4  5  1  0
  4 31  1  0
  5  6  2  0
  5  7  1  0
  7  8  2  0
  7 30  1  0
  8  9  1  0
  9 10  2  0
 10 11  1  0
 10 30  1  0
 11 12  2  3
 12 13  1  0
 12 14  1  0
 14 15  1  0
 14 28  2  0
 15 16  1  0
 16 17  2  0
 17 18  1  0
 17 28  1  0
 18 19  2  0
 18 27  1  0
 19 20  1  0
 20 21  2  0
 21 22  1  0
 21 26  1  0
 22 23  1  0
 23 24  2  0
 23 25  1  0
 25 26  1  0
 26 27  2  0
 28 29  1  0
 31 32  1  1
 31 33  1  0
 31 34  1  0
 34 35  1  0
M  END
