
     RDKit          3D

 35 38  0  0  0  0  0  0  0  0999 V2000
   -0.8180   -3.8240   -0.3040 C   0  0  0  0  0  0  0  0  0  0  0  0
    0.0820   -2.8300    0.3710 C   0  0  0  0  0  0  0  0  0  0  0  0
    1.2250   -3.1140    1.0250 N   0  0  0  0  0  0  0  0  0  0  0  0
    1.7920   -1.9840    1.4450 C   0  0  0  0  0  0  0  0  0  0  0  0
    0.9680   -0.9300    1.0390 C   0  0  0  0  0  0  0  0  0  0  0  0
    1.2420    0.4960    1.2580 C   0  0  0  0  0  0  0  0  0  0  0  0
    0.7340    1.0430    2.2440 O   0  0  0  0  0  0  0  0  0  0  0  0
    2.0760    1.1900    0.3420 N   0  0  0  0  0  0  0  0  0  0  0  0
    2.4020    2.5910    0.4990 C   0  0  0  0  0  0  0  0  0  0  0  0
    3.7160    2.9430   -0.1040 C   0  0  0  0  0  0  0  0  0  0  0  0
    4.6260    1.8370   -0.2100 N   0  0  0  0  0  0  0  0  0  0  0  0
    4.1610    0.6310   -0.5660 C   0  0  0  0  0  0  0  0  0  0  0  0
    4.9450   -0.4540   -0.6970 N   0  0  0  0  0  0  0  0  0  0  0  0
    6.2470   -0.3700   -0.4720 N   0  0  0  0  0  0  0  0  0  0  0  0
    6.7350    0.8430   -0.1100 C   0  0  0  0  0  0  0  0  0  0  0  0
    7.9640    0.9530    0.1110 O   0  0  0  0  0  0  0  0  0  0  0  0
    5.9530    1.9620    0.0290 C   0  0  0  0  0  0  0  0  0  0  0  0
    6.3900    3.0950    0.3640 O   0  0  0  0  0  0  0  0  0  0  0  0
    2.6730    0.5370   -0.8130 C   0  0  0  0  0  0  0  0  0  0  0  0
   -0.1040   -1.4670    0.3680 C   0  0  0  0  0  0  0  0  0  0  0  0
   -1.2610   -0.7280   -0.1800 C   0  0  0  0  0  0  0  0  0  0  0  0
   -2.4590   -1.0280    0.2710 C   0  0  0  0  0  0  0  0  0  0  0  0
   -2.5910   -2.1010    1.3090 C   0  0  0  0  0  0  0  0  0  0  0  0
   -3.5530   -3.0320    1.2980 C   0  0  0  0  0  0  0  0  0  0  0  0
   -3.5480   -3.9430    2.3150 O   0  0  0  0  0  0  0  0  0  0  0  0
   -4.6230   -3.1940    0.3070 C   0  0  0  0  0  0  0  0  0  0  0  0
   -5.1480   -2.2980   -0.5560 C   0  0  0  0  0  0  0  0  0  0  0  0
   -4.7210   -0.8930   -0.6730 C   0  0  0  0  0  0  0  0  0  0  0  0
   -3.5500   -0.3020   -0.3160 C   0  0  0  0  0  0  0  0  0  0  0  0
   -3.4440    1.0870   -0.5490 C   0  0  0  0  0  0  0  0  0  0  0  0
   -4.7840    1.8930   -1.4310 Cl  0  0  0  0  0  0  0  0  0  0  0  0
   -2.4420    1.8600   -0.2080 C   0  0  0  0  0  0  0  0  0  0  0  0
   -2.4710    3.3380   -0.5330 C   0  0  1  0  0  0  0  0  0  0  0  0
   -3.7830    3.9600   -0.0320 C   0  0  0  0  0  0  0  0  0  0  0  0
   -1.1540    4.1160    0.3600 Cl  0  0  0  0  0  0  0  0  0  0  0  0
  1  2  1  0
  2  3  1  0
  2 20  2  0
  3  4  1  0
  4  5  2  0
  5  6  1  0
  5 20  1  0
  6  7  2  0
  6  8  1  0
  8  9  1  0
  8 19  1  0
  9 10  1  0
 10 11  1  0
 11 12  1  0
 11 17  1  0
 12 13  2  0
 12 19  1  0
 13 14  1  0
 14 15  1  0
 15 16  2  0
 15 17  1  0
 17 18  2  0
 20 21  1  0
 21 22  2  3
 22 23  1  0
 22 29  1  0
 23 24  2  0
 24 25  1  0
 24 26  1  0
 26 27  2  0
 27 28  1  0
 28 29  2  0
 29 30  1  0
 30 31  1  0
 30 32  2  3
 32 33  1  0
 33 34  1  1
 33 35  1  0
M  END
