
     RDKit          3D

 34 38  0  0  0  0  0  0  0  0999 V2000
    8.6490   -0.0830    1.8110 C   0  0  0  0  0  0  0  0  0  0  0  0
    7.3910   -0.0140    0.9970 C   0  0  0  0  0  0  0  0  0  0  0  0
    6.3240   -0.8500    1.2650 C   0  0  0  0  0  0  0  0  0  0  0  0
    5.1660   -0.8080    0.5360 C   0  0  0  0  0  0  0  0  0  0  0  0
    5.0020    0.0630   -0.4960 C   0  0  0  0  0  0  0  0  0  0  0  0
    3.7290    0.1380   -1.2960 C   0  0  2  0  0  0  0  0  0  0  0  0
    2.8130    1.0160   -0.5470 C   0  0  0  0  0  0  0  0  0  0  0  0
    1.4450    0.5370   -0.4190 C   0  0  0  0  0  0  0  0  0  0  0  0
    0.5100    1.3540   -0.3590 O   0  0  0  0  0  0  0  0  0  0  0  0
    1.1850   -0.9260   -0.3580 C   0  0  0  0  0  0  0  0  0  0  0  0
    2.0430   -1.7180   -0.9900 C   0  0  0  0  0  0  0  0  0  0  0  0
    1.8100   -3.1120   -0.8710 C   0  0  0  0  0  0  0  0  0  0  0  0
    0.4020   -3.2100    0.1230 S   0  0  0  0  0  0  0  0  0  0  0  0
    0.1460   -1.4730    0.3580 C   0  0  0  0  0  0  0  0  0  0  0  0
   -0.9730   -0.8800    1.1140 C   0  0  0  0  0  0  0  0  0  0  0  0
   -2.1940   -0.7040    0.3080 C   0  0  0  0  0  0  0  0  0  0  0  0
   -2.4790    0.1430   -0.7070 C   0  0  0  0  0  0  0  0  0  0  0  0
   -3.8030   -0.1180   -1.0960 C   0  0  0  0  0  0  0  0  0  0  0  0
   -4.2200   -1.1240   -0.2670 C   0  0  0  0  0  0  0  0  0  0  0  0
   -5.5450   -1.7470   -0.2690 C   0  0  0  0  0  0  0  0  0  0  0  0
   -6.5820   -0.8980   -0.2300 C   0  0  0  0  0  0  0  0  0  0  0  0
   -6.3770    0.4610   -0.1890 O   0  0  0  0  0  0  0  0  0  0  0  0
   -7.4520    1.3570   -0.1790 C   0  0  2  0  0  0  0  0  0  0  0  0
   -7.0070    2.5780    0.6110 C   0  0  0  0  0  0  0  0  0  0  0  0
   -6.6750    2.1430    1.9020 O   0  0  0  0  0  0  0  0  0  0  0  0
   -8.6630    0.7620    0.4790 C   0  0  0  0  0  0  0  0  0  0  0  0
   -9.0050   -0.4800   -0.1710 N   0  0  0  0  0  0  0  0  0  0  0  0
   -7.9430   -1.4520   -0.2250 C   0  0  0  0  0  0  0  0  0  0  0  0
   -8.1390   -2.6810   -0.2660 O   0  0  0  0  0  0  0  0  0  0  0  0
   -3.2790   -1.4660    0.5510 O   0  0  0  0  0  0  0  0  0  0  0  0
    3.2100   -1.1300   -1.7920 C   0  0  0  0  0  0  0  0  0  0  0  0
    6.0750    0.9170   -0.7800 C   0  0  0  0  0  0  0  0  0  0  0  0
    7.2310    0.8630   -0.0410 C   0  0  0  0  0  0  0  0  0  0  0  0
    8.3410    1.8060   -0.3840 C   0  0  0  0  0  0  0  0  0  0  0  0
  1  2  1  0
  2  3  2  0
  2 33  1  0
  3  4  1  0
  4  5  2  0
  6  5  1  1
  5 32  1  0
  6  7  1  0
  6 31  1  0
  7  8  1  0
  8  9  2  0
  8 10  1  0
 10 11  1  0
 10 14  2  0
 11 12  2  0
 11 31  1  0
 12 13  1  0
 13 14  1  0
 14 15  1  0
 15 16  1  0
 16 17  2  0
 16 30  1  0
 17 18  1  0
 18 19  2  0
 19 20  1  0
 19 30  1  0
 20 21  2  3
 21 22  1  0
 21 28  1  0
 22 23  1  0
 23 24  1  1
 23 26  1  0
 24 25  1  0
 26 27  1  0
 27 28  1  0
 28 29  2  0
 32 33  2  0
 33 34  1  0
M  END
