
     RDKit          3D

 34 37  0  0  0  0  0  0  0  0999 V2000
   -6.1520    0.4340   -2.2660 C   0  0  0  0  0  0  0  0  0  0  0  0
   -6.3690    0.2560   -0.7750 C   0  0  1  0  0  0  0  0  0  0  0  0
   -5.0400    0.3100   -0.1010 C   0  0  1  0  0  0  0  0  0  0  0  0
   -5.0560    0.1540    1.3790 C   0  0  0  0  0  0  0  0  0  0  0  0
   -5.3650   -1.2890    1.6990 C   0  0  0  0  0  0  0  0  0  0  0  0
   -4.0850   -2.0760    1.4340 C   0  0  0  0  0  0  0  0  0  0  0  0
   -3.2960   -1.4820    0.2780 C   0  0  2  0  0  0  0  0  0  0  0  0
   -2.2010   -0.7510    0.6730 O   0  0  0  0  0  0  0  0  0  0  0  0
   -0.9760   -1.2860    0.3080 C   0  0  2  0  0  0  0  0  0  0  0  0
   -0.7480   -1.4580   -1.1760 C   0  0  0  0  0  0  0  0  0  0  0  0
   -0.5680   -2.4780    1.1430 C   0  0  0  0  0  0  0  0  0  0  0  0
   -0.0250   -1.4890    2.1480 C   0  0  0  0  0  0  0  0  0  0  0  0
    0.1290   -0.5220    0.9980 C   0  0  1  0  0  0  0  0  0  0  0  0
    1.5110   -0.7080    0.3660 C   0  0  0  0  0  0  0  0  0  0  0  0
    2.5580    0.0650    1.0800 C   0  0  0  0  0  0  0  0  0  0  0  0
    3.8320   -0.0180    0.6130 O   0  0  0  0  0  0  0  0  0  0  0  0
    4.0590    0.4140   -0.6770 C   0  0  1  0  0  0  0  0  0  0  0  0
    4.9180    1.6270   -0.7730 C   0  0  0  0  0  0  0  0  0  0  0  0
    6.2040    1.6380   -0.0500 C   0  0  1  0  0  0  0  0  0  0  0  0
    6.1060    1.4930    1.4460 C   0  0  0  0  0  0  0  0  0  0  0  0
    7.5490    1.6070    1.9650 C   0  0  0  0  0  0  0  0  0  0  0  0
    8.3300    0.5780    1.4180 O   0  0  0  0  0  0  0  0  0  0  0  0
    8.5560    0.8920    0.0850 C   0  0  0  0  0  0  0  0  0  0  0  0
    7.2570    0.7360   -0.6590 C   0  0  2  0  0  0  0  0  0  0  0  0
    7.4860    1.2340   -1.9600 O   0  0  0  0  0  0  0  0  0  0  0  0
    6.7870   -0.6960   -0.7410 C   0  0  0  0  0  0  0  0  0  0  0  0
    5.8910   -0.7560   -1.9680 C   0  0  0  0  0  0  0  0  0  0  0  0
    4.4500   -0.7140   -1.5880 C   0  0  1  0  0  0  0  0  0  0  0  0
    4.1270   -1.9790   -1.0490 O   0  0  0  0  0  0  0  0  0  0  0  0
   -4.1950   -0.7890   -0.7020 C   0  0  0  0  0  0  0  0  0  0  0  0
   -7.3720    1.2760   -0.2850 C   0  0  2  0  0  0  0  0  0  0  0  0
   -8.6520    0.9920   -1.0910 C   0  0  0  0  0  0  0  0  0  0  0  0
   -6.9760    2.6880   -0.5650 C   0  0  0  0  0  0  0  0  0  0  0  0
   -7.7430    1.0590    1.0410 O   0  0  0  0  0  0  0  0  0  0  0  0
  2  1  1  6
  2  3  1  0
  2 31  1  0
  3  4  1  1
  3 30  1  0
  4  5  1  0
  5  6  1  0
  6  7  1  0
  7  8  1  1
  7 30  1  0
  8  9  1  0
  9 10  1  6
  9 11  1  0
  9 13  1  0
 11 12  1  0
 12 13  1  0
 13 14  1  6
 14 15  1  0
 15 16  1  0
 17 16  1  1
 17 18  1  0
 17 28  1  0
 19 18  1  6
 19 20  1  0
 19 24  1  0
 20 21  1  0
 21 22  1  0
 22 23  1  0
 23 24  1  0
 24 25  1  6
 24 26  1  0
 26 27  1  0
 27 28  1  0
 28 29  1  1
 31 32  1  6
 31 33  1  0
 31 34  1  0
M  END
