
     RDKit          3D

 34 36  0  0  0  0  0  0  0  0999 V2000
    7.0880    0.5170    1.2640 C   0  0  0  0  0  0  0  0  0  0  0  0
    6.2270    0.0400    0.0930 C   0  0  1  0  0  0  0  0  0  0  0  0
    6.5030   -1.4400   -0.0690 C   0  0  0  0  0  0  0  0  0  0  0  0
    4.8850    0.2970    0.3270 O   0  0  0  0  0  0  0  0  0  0  0  0
    4.3950    1.0750   -0.6860 C   0  0  0  0  0  0  0  0  0  0  0  0
    2.9560    1.4510   -0.5950 C   0  0  2  0  0  0  0  0  0  0  0  0
    2.6210    2.1600    0.5290 O   0  0  0  0  0  0  0  0  0  0  0  0
    2.0430    0.2860   -0.9060 C   0  0  2  0  0  0  0  0  0  0  0  0
    0.6130    0.6790   -0.8220 C   0  0  2  0  0  0  0  0  0  0  0  0
    0.3700    1.3350    0.3480 O   0  0  0  0  0  0  0  0  0  0  0  0
   -0.9710    1.7560    0.4810 C   0  0  1  0  0  0  0  0  0  0  0  0
   -1.0620    2.2850    1.9000 C   0  0  0  0  0  0  0  0  0  0  0  0
   -0.7050    3.7570    1.8470 C   0  0  0  0  0  0  0  0  0  0  0  0
   -1.9230    4.4660    1.2680 C   0  0  1  0  0  0  0  0  0  0  0  0
   -1.7220    5.8440    1.2250 O   0  0  0  0  0  0  0  0  0  0  0  0
   -2.2420    3.8740   -0.0800 C   0  0  2  0  0  0  0  0  0  0  0  0
   -3.6890    3.4910   -0.0900 C   0  0  0  0  0  0  0  0  0  0  0  0
   -1.2990    2.8230   -0.5310 C   0  0  0  0  0  0  0  0  0  0  0  0
   -1.9330    0.6040    0.3720 C   0  0  0  0  0  0  0  0  0  0  0  0
   -1.5120   -0.3570   -0.7160 C   0  0  2  0  0  0  0  0  0  0  0  0
   -2.5460   -1.3410   -1.0830 C   0  0  0  0  0  0  0  0  0  0  0  0
   -3.0670   -2.2540   -0.0930 C   0  0  0  0  0  0  0  0  0  0  0  0
   -2.7430   -2.2490    1.0540 O   0  0  0  0  0  0  0  0  0  0  0  0
   -4.0840   -3.2620   -0.5770 C   0  0  2  0  0  0  0  0  0  0  0  0
   -5.2790   -2.5370   -1.1440 C   0  0  0  0  0  0  0  0  0  0  0  0
   -4.5510   -4.1100    0.5840 C   0  0  0  0  0  0  0  0  0  0  0  0
   -3.5140   -4.1820   -1.6180 C   0  0  0  0  0  0  0  0  0  0  0  0
   -0.0860   -0.7000   -0.7740 C   0  0  1  0  0  0  0  0  0  0  0  0
    0.1240   -1.3970   -2.1340 C   0  0  0  0  0  0  0  0  0  0  0  0
    0.6760   -1.4180    0.1980 C   0  0  2  0  0  0  0  0  0  0  0  0
    0.8580   -2.9210   -0.1230 C   0  0  0  0  0  0  0  0  0  0  0  0
    0.3460   -1.4090    1.6440 C   0  0  0  0  0  0  0  0  0  0  0  0
    2.1030   -0.8410    0.0680 C   0  0  2  0  0  0  0  0  0  0  0  0
    2.5990   -0.4640    1.3130 O   0  0  0  0  0  0  0  0  0  0  0  0
  2  1  1  1
  2  3  1  0
  2  4  1  0
  4  5  1  0
  5  6  1  0
  6  7  1  1
  8  6  1  1
  8  9  1  0
  8 33  1  0
  9 10  1  1
  9 28  1  0
 10 11  1  0
 11 12  1  1
 11 18  1  0
 11 19  1  0
 12 13  1  0
 13 14  1  0
 14 15  1  6
 14 16  1  0
 16 17  1  1
 16 18  1  0
 19 20  1  0
 20 21  1  1
 20 28  1  0
 21 22  1  0
 22 23  2  0
 22 24  1  0
 24 25  1  6
 24 26  1  0
 24 27  1  0
 28 29  1  6
 28 30  1  0
 30 31  1  6
 30 32  1  0
 30 33  1  0
 33 34  1  1
M  END
