
     RDKit          3D

 35 37  0  0  0  0  0  0  0  0999 V2000
    1.1160   -0.3920   -3.6930 C   0  0  0  0  0  0  0  0  0  0  0  0
    0.3430    0.5300   -2.7840 C   0  0  0  0  0  0  0  0  0  0  0  0
    0.4950    0.2300   -1.3320 C   0  0  1  0  0  0  0  0  0  0  0  0
   -0.3680    1.2860   -0.6090 C   0  0  0  0  0  0  0  0  0  0  0  0
   -1.8010    1.1140   -0.9000 C   0  0  0  0  0  0  0  0  0  0  0  0
   -2.3390   -0.2970   -0.6750 C   0  0  1  0  0  0  0  0  0  0  0  0
   -3.5940   -0.3300   -1.4670 C   0  0  0  0  0  0  0  0  0  0  0  0
   -3.7710    0.5360   -2.4120 O   0  0  0  0  0  0  0  0  0  0  0  0
   -4.6690   -1.2230   -1.2990 O   0  0  0  0  0  0  0  0  0  0  0  0
   -5.8050   -0.9700   -2.1660 C   0  0  0  0  0  0  0  0  0  0  0  0
   -6.4350    0.3430   -1.8200 C   0  0  0  0  0  0  0  0  0  0  0  0
   -7.2290    0.5790   -0.6590 C   0  0  0  0  0  0  0  0  0  0  0  0
   -6.9320    0.2680    0.7300 C   0  0  0  0  0  0  0  0  0  0  0  0
   -5.9960   -0.3560    1.3950 C   0  0  0  0  0  0  0  0  0  0  0  0
   -6.2560   -0.3480    2.8700 C   0  0  0  0  0  0  0  0  0  0  0  0
   -7.4980    0.4140    2.9470 C   0  0  0  0  0  0  0  0  0  0  0  0
   -7.9250    0.7820    1.7580 C   0  0  0  0  0  0  0  0  0  0  0  0
   -9.0740    1.5010    1.4970 O   0  0  0  0  0  0  0  0  0  0  0  0
   -1.3890   -1.3260   -1.1900 C   0  0  0  0  0  0  0  0  0  0  0  0
   -0.0190   -1.0200   -0.8910 N   0  0  0  0  0  0  0  0  0  0  0  0
    0.7560   -1.9210   -0.1500 C   0  0  0  0  0  0  0  0  0  0  0  0
    0.2410   -2.9710    0.2970 O   0  0  0  0  0  0  0  0  0  0  0  0
    2.1920   -1.6670    0.1300 C   0  0  0  0  0  0  0  0  0  0  0  0
    2.3520   -1.0020    1.8250 S   0  0  0  0  0  0  0  0  0  0  0  0
    4.0660   -0.6860    2.1100 C   0  0  0  0  0  0  0  0  0  0  0  0
    4.5260   -1.0590    3.2240 O   0  0  0  0  0  0  0  0  0  0  0  0
    4.8760   -0.0700    1.1620 N   0  0  0  0  0  0  0  0  0  0  0  0
    6.3030    0.1350    1.4330 C   0  0  1  0  0  0  0  0  0  0  0  0
    6.3970    0.6650    2.7840 C   0  0  0  0  0  0  0  0  0  0  0  0
    6.1860    2.0830    2.9550 N   0  0  0  0  0  0  0  0  0  0  0  0
    6.6400   -0.0110    3.8000 O   0  0  0  0  0  0  0  0  0  0  0  0
    6.8270   -1.3370    1.3560 C   0  0  0  0  0  0  0  0  0  0  0  0
    8.2950   -1.1200    1.1950 C   0  0  0  0  0  0  0  0  0  0  0  0
    8.3430   -0.0800    0.1180 C   0  0  0  0  0  0  0  0  0  0  0  0
    7.1110    0.8020    0.3960 C   0  0  0  0  0  0  0  0  0  0  0  0
  1  2  1  0
  3  2  1  6
  3  4  1  0
  3 20  1  0
  4  5  1  0
  5  6  1  0
  6  7  1  6
  6 19  1  0
  7  8  2  0
  7  9  1  0
  9 10  1  0
 10 11  1  0
 11 12  1  0
 12 13  1  0
 13 14  2  0
 13 17  1  0
 14 15  1  0
 15 16  1  0
 16 17  2  0
 17 18  1  0
 19 20  1  0
 20 21  1  0
 21 22  2  0
 21 23  1  0
 23 24  1  0
 24 25  1  0
 25 26  2  0
 25 27  1  0
 28 27  1  6
 28 29  1  0
 28 32  1  0
 28 35  1  0
 29 30  1  0
 29 31  2  0
 32 33  1  0
 33 34  1  0
 34 35  1  0
M  END
