
     RDKit          3D

 35 37  0  0  0  0  0  0  0  0999 V2000
    6.6690   -4.0050   -0.7500 C   0  0  0  0  0  0  0  0  0  0  0  0
    5.4840   -4.3860   -1.6160 C   0  0  0  0  0  0  0  0  0  0  0  0
    4.3590   -4.9010   -0.7440 C   0  0  0  0  0  0  0  0  0  0  0  0
    3.9170   -3.9610    0.1860 O   0  0  0  0  0  0  0  0  0  0  0  0
    3.3910   -2.7260   -0.1710 C   0  0  0  0  0  0  0  0  0  0  0  0
    3.3190   -2.4690   -1.3900 O   0  0  0  0  0  0  0  0  0  0  0  0
    2.9570   -1.8130    0.9070 C   0  0  0  0  0  0  0  0  0  0  0  0
    2.4050   -0.5210    0.4080 C   0  0  2  0  0  0  0  0  0  0  0  0
    3.2530    0.2460   -0.3410 O   0  0  0  0  0  0  0  0  0  0  0  0
    1.8030    0.2220    1.5800 C   0  0  0  0  0  0  0  0  0  0  0  0
    1.0320    1.3640    1.2100 N   0  0  0  0  0  0  0  0  0  0  0  0
    1.5960    2.6670    1.0800 C   0  0  0  0  0  0  0  0  0  0  0  0
    2.8420    2.8620    1.3010 O   0  0  0  0  0  0  0  0  0  0  0  0
    0.7760    3.7850    0.6990 C   0  0  0  0  0  0  0  0  0  0  0  0
    1.3020    5.0050    0.5330 C   0  0  0  0  0  0  0  0  0  0  0  0
    0.4000    6.1330    0.1330 C   0  0  0  0  0  0  0  0  0  0  0  0
   -0.4480    5.6590   -1.0090 C   0  0  0  0  0  0  0  0  0  0  0  0
   -0.9450    4.2430   -0.9000 C   0  0  2  0  0  0  0  0  0  0  0  0
   -2.4440    4.1860   -1.1290 C   0  0  0  0  0  0  0  0  0  0  0  0
   -2.8810    4.6740   -2.4650 C   0  0  0  0  0  0  0  0  0  0  0  0
   -4.4080    4.5330   -2.4990 C   0  0  0  0  0  0  0  0  0  0  0  0
   -4.7070    3.2060   -2.3170 O   0  0  0  0  0  0  0  0  0  0  0  0
   -0.6990    3.6200    0.4560 C   0  0  1  0  0  0  0  0  0  0  0  0
   -1.0810    2.2870    0.6160 N   0  0  0  0  0  0  0  0  0  0  0  0
   -0.3800    1.2960    0.9360 C   0  0  0  0  0  0  0  0  0  0  0  0
   -1.1020   -0.3400    1.0890 S   0  0  0  0  0  0  0  0  0  0  0  0
   -2.8760   -0.2750    0.7150 C   0  0  0  0  0  0  0  0  0  0  0  0
   -3.4350   -1.6650    0.8600 C   0  0  0  0  0  0  0  0  0  0  0  0
   -4.6490   -1.8870    0.6560 O   0  0  0  0  0  0  0  0  0  0  0  0
   -2.5970   -2.7440    1.2310 N   0  0  0  0  0  0  0  0  0  0  0  0
   -2.9940   -4.0880    1.4010 C   0  0  0  0  0  0  0  0  0  0  0  0
   -4.1950   -4.5890    1.2550 C   0  0  0  0  0  0  0  0  0  0  0  0
   -4.1880   -6.0630    1.5290 C   0  0  0  0  0  0  0  0  0  0  0  0
   -2.7820   -6.2920    1.8520 C   0  0  0  0  0  0  0  0  0  0  0  0
   -2.1020   -5.1670    1.7780 C   0  0  0  0  0  0  0  0  0  0  0  0
  1  2  1  0
  2  3  1  0
  3  4  1  0
  4  5  1  0
  5  6  2  0
  5  7  1  0
  7  8  1  0
  8  9  1  1
  8 10  1  0
 10 11  1  0
 11 12  1  0
 11 25  1  0
 12 13  2  0
 12 14  1  0
 14 15  2  0
 14 23  1  0
 15 16  1  0
 16 17  1  0
 17 18  1  0
 18 19  1  1
 18 23  1  0
 19 20  1  0
 20 21  1  0
 21 22  1  0
 23 24  1  6
 24 25  2  0
 25 26  1  0
 26 27  1  0
 27 28  1  0
 28 29  2  0
 28 30  1  0
 30 31  1  0
 31 32  2  0
 31 35  1  0
 32 33  1  0
 33 34  1  0
 34 35  2  0
M  END
