
     RDKit          3D

 35 37  0  0  0  0  0  0  0  0999 V2000
   -6.7730   -0.2880    2.5780 C   0  0  0  0  0  0  0  0  0  0  0  0
   -6.7140   -1.6390    1.9030 C   0  0  1  0  0  0  0  0  0  0  0  0
   -7.3780   -1.5750    0.5770 C   0  0  0  0  0  0  0  0  0  0  0  0
   -7.1600   -0.9930   -0.5900 C   0  0  0  0  0  0  0  0  0  0  0  0
   -6.0950   -0.1250   -1.0460 C   0  0  0  0  0  0  0  0  0  0  0  0
   -4.9000    0.2870   -0.7250 C   0  0  0  0  0  0  0  0  0  0  0  0
   -4.2360    1.2770   -1.6690 C   0  0  0  0  0  0  0  0  0  0  0  0
   -3.5360    2.1200   -0.6310 C   0  0  0  0  0  0  0  0  0  0  0  0
   -2.9070    1.0250    0.2930 C   0  0  2  0  0  0  0  0  0  0  0  0
   -1.7070    0.5640   -0.3500 N   0  0  0  0  0  0  0  0  0  0  0  0
   -0.4170    1.0770   -0.1320 C   0  0  0  0  0  0  0  0  0  0  0  0
   -0.2720    2.0240    0.6910 O   0  0  0  0  0  0  0  0  0  0  0  0
    0.7720    0.5140   -0.8600 C   0  0  0  0  0  0  0  0  0  0  0  0
    2.0080    1.2300   -0.4570 C   0  0  0  0  0  0  0  0  0  0  0  0
    2.7340    1.8740   -1.3270 C   0  0  0  0  0  0  0  0  0  0  0  0
    2.5350    2.0390   -2.7670 C   0  0  0  0  0  0  0  0  0  0  0  0
    3.6180    1.4730   -3.6050 C   0  0  0  0  0  0  0  0  0  0  0  0
    4.7040    0.7940   -3.0080 N   0  0  0  0  0  0  0  0  0  0  0  0
    3.5300    1.6200   -4.8410 O   0  0  0  0  0  0  0  0  0  0  0  0
    2.4030    1.2180    0.8790 O   0  0  0  0  0  0  0  0  0  0  0  0
    3.7060    1.5010    1.2540 C   0  0  0  0  0  0  0  0  0  0  0  0
    4.6520    0.5250    0.6800 C   0  0  0  0  0  0  0  0  0  0  0  0
    5.8970    0.6920    0.8620 O   0  0  0  0  0  0  0  0  0  0  0  0
    4.2410   -0.5960   -0.0660 N   0  0  0  0  0  0  0  0  0  0  0  0
    5.2520   -1.4990   -0.5830 C   0  0  0  0  0  0  0  0  0  0  0  0
    6.0110   -2.0520    0.5820 C   0  0  0  0  0  0  0  0  0  0  0  0
    7.3030   -1.7430    0.9330 C   0  0  0  0  0  0  0  0  0  0  0  0
    7.6230   -2.4640    2.0630 C   0  0  0  0  0  0  0  0  0  0  0  0
    6.4940   -3.1930    2.3580 C   0  0  0  0  0  0  0  0  0  0  0  0
    5.5680   -2.9200    1.4590 O   0  0  0  0  0  0  0  0  0  0  0  0
   -3.9830    0.0290    0.3880 C   0  0  0  0  0  0  0  0  0  0  0  0
   -3.9340   -0.8500    1.3400 C   0  0  0  0  0  0  0  0  0  0  0  0
   -2.8490   -0.7850    2.2800 C   0  0  0  0  0  0  0  0  0  0  0  0
   -1.9010   -0.0000    2.3540 O   0  0  0  0  0  0  0  0  0  0  0  0
   -5.0150   -2.2460    1.7360 S   0  0  0  0  0  0  0  0  0  0  0  0
  2  1  1  6
  2  3  1  0
  2 35  1  0
  3  4  2  0
  4  5  1  0
  5  6  2  0
  6  7  1  0
  6 31  1  0
  7  8  1  0
  8  9  1  0
  9 10  1  6
  9 31  1  0
 10 11  1  0
 11 12  2  0
 11 13  1  0
 13 14  1  0
 14 15  2  3
 14 20  1  0
 15 16  1  0
 16 17  1  0
 17 18  1  0
 17 19  2  0
 20 21  1  0
 21 22  1  0
 22 23  2  0
 22 24  1  0
 24 25  1  0
 25 26  1  0
 26 27  2  0
 26 30  1  0
 27 28  1  0
 28 29  2  0
 29 30  1  0
 31 32  2  0
 32 33  1  0
 32 35  1  0
 33 34  2  0
M  END
