
     RDKit          3D

 20 21  0  0  0  0  0  0  0  0999 V2000
   -2.4120   -2.0170    1.1460 O   0  0  0  0  0  0  0  0  0  0  0  0
   -2.7780   -1.0280    0.4850 C   0  0  0  0  0  0  0  0  0  0  0  0
   -3.8920   -1.0560   -0.4430 N   0  0  0  0  0  0  0  0  0  0  0  0
   -4.2770    0.2980   -0.8690 C   0  0  0  0  0  0  0  0  0  0  0  0
   -4.3420    1.1450    0.3770 C   0  0  2  0  0  0  0  0  0  0  0  0
   -4.9440    2.3750    0.1230 O   0  0  0  0  0  0  0  0  0  0  0  0
   -2.9680    1.3780    0.9120 C   0  0  0  0  0  0  0  0  0  0  0  0
   -2.0830    0.1990    0.6410 N   0  0  0  0  0  0  0  0  0  0  0  0
   -0.7100    0.3850    0.6210 C   0  0  0  0  0  0  0  0  0  0  0  0
   -0.3000    1.5760    0.9650 O   0  0  0  0  0  0  0  0  0  0  0  0
    0.3610   -0.5260    0.2770 C   0  0  0  0  0  0  0  0  0  0  0  0
    0.3900   -1.7650   -0.1560 C   0  0  0  0  0  0  0  0  0  0  0  0
    1.7340   -2.1960   -0.3350 O   0  0  0  0  0  0  0  0  0  0  0  0
    2.5300   -1.3140    0.4120 C   0  0  1  0  0  0  0  0  0  0  0  0
    3.8380   -0.9960   -0.2490 C   0  0  0  0  0  0  0  0  0  0  0  0
    4.5280   -0.1140    0.5960 O   0  0  0  0  0  0  0  0  0  0  0  0
    6.0580    0.3460   -0.0310 P   0  0  0  0  0  0  0  0  0  0  0  0
    6.0980    2.0200   -0.5030 O   0  0  0  0  0  0  0  0  0  0  0  0
    6.4300   -0.6540   -1.4020 O   0  0  0  0  0  0  0  0  0  0  0  0
    1.7110   -0.1400    0.3800 O   0  0  0  0  0  0  0  0  0  0  0  0
  1  2  2  0
  2  3  1  0
  2  8  1  0
  3  4  1  0
  4  5  1  0
  5  6  1  6
  5  7  1  0
  7  8  1  0
  8  9  1  0
  9 10  2  0
  9 11  1  0
 11 12  2  0
 11 20  1  0
 12 13  1  0
 13 14  1  0
 14 15  1  6
 14 20  1  0
 15 16  1  0
 16 17  1  0
 17 18  1  0
 17 19  1  0
M  END
