
     RDKit          3D

 21 22  0  0  0  0  0  0  0  0999 V2000
    5.9050    1.9010    0.7360 O   0  0  0  0  0  0  0  0  0  0  0  0
    5.8660    0.5660    1.5160 P   0  0  0  0  0  0  0  0  0  0  0  0
    4.5940   -0.5500    1.2300 O   0  0  0  0  0  0  0  0  0  0  0  0
    3.5830    0.0580    0.4650 C   0  0  0  0  0  0  0  0  0  0  0  0
    2.5130   -0.9790    0.2590 C   0  0  0  0  0  0  0  0  0  0  0  0
    1.3990   -0.5260   -0.5070 N   0  0  0  0  0  0  0  0  0  0  0  0
    1.3070   -0.6270   -1.9230 C   0  0  0  0  0  0  0  0  0  0  0  0
    2.2560   -1.1470   -2.5310 O   0  0  0  0  0  0  0  0  0  0  0  0
    0.1750   -0.1500   -2.5830 O   0  0  0  0  0  0  0  0  0  0  0  0
   -0.8840    0.4300   -1.9010 C   0  0  0  0  0  0  0  0  0  0  0  0
   -1.6860    1.1650   -2.5270 O   0  0  0  0  0  0  0  0  0  0  0  0
   -1.0260    0.1600   -0.4680 C   0  0  2  0  0  0  0  0  0  0  0  0
   -1.7510   -1.1320   -0.1730 C   0  0  0  0  0  0  0  0  0  0  0  0
   -2.3310   -0.8440    1.0690 O   0  0  0  0  0  0  0  0  0  0  0  0
   -2.7520    0.4830    1.0080 C   0  0  2  0  0  0  0  0  0  0  0  0
   -4.1530    0.5740    0.4840 C   0  0  0  0  0  0  0  0  0  0  0  0
   -4.3780    1.2230   -0.5700 O   0  0  0  0  0  0  0  0  0  0  0  0
   -5.1790   -0.0570    1.1670 O   0  0  0  0  0  0  0  0  0  0  0  0
   -1.8340    1.1950    0.1720 N   0  0  0  0  0  0  0  0  0  0  0  0
    0.3070    0.0700    0.1790 C   0  0  0  0  0  0  0  0  0  0  0  0
    0.4330    0.5360    1.3450 O   0  0  0  0  0  0  0  0  0  0  0  0
  1  2  2  0
  2  3  1  0
  3  4  1  0
  4  5  1  0
  5  6  1  0
  6  7  1  0
  6 20  1  0
  7  8  2  0
  7  9  1  0
  9 10  1  0
 10 11  2  0
 10 12  1  0
 12 13  1  6
 12 19  1  0
 12 20  1  0
 13 14  1  0
 14 15  1  0
 15 16  1  6
 15 19  1  0
 16 17  2  0
 16 18  1  0
 20 21  2  0
M  END
