
     RDKit          3D

 43 45  0  0  0  0  0  0  0  0999 V2000
    5.7140    2.7020    1.9800 C   0  0  0  0  0  0  0  0  0  0  0  0
    4.2380    2.9610    1.8540 C   0  0  1  0  0  0  0  0  0  0  0  0
    4.1320    4.3920    2.1330 O   0  0  0  0  0  0  0  0  0  0  0  0
    3.6170    2.7120    0.5450 C   0  0  0  0  0  0  0  0  0  0  0  0
    3.4560    1.4440   -0.0330 N   0  0  0  0  0  0  0  0  0  0  0  0
    4.3820    0.5420   -0.5780 C   0  0  0  0  0  0  0  0  0  0  0  0
    5.3280   -0.2250    0.2460 C   0  0  0  0  0  0  0  0  0  0  0  0
    6.0630   -1.0330   -0.7070 O   0  0  0  0  0  0  0  0  0  0  0  0
    2.0520    0.9610   -0.0950 C   0  0  0  0  0  0  0  0  0  0  0  0
    1.4000    1.1560   -1.1360 N   0  0  0  0  0  0  0  0  0  0  0  0
    0.0330    0.7970   -1.4440 C   0  0  0  0  0  0  0  0  0  0  0  0
   -0.7360    0.9940   -0.4110 N   0  0  0  0  0  0  0  0  0  0  0  0
   -2.0220    0.8020   -0.2830 N   0  0  0  0  0  0  0  0  0  0  0  0
   -2.9570    0.2070    0.2430 C   0  0  0  0  0  0  0  0  0  0  0  0
   -4.3000    0.5780   -0.1630 N   0  0  0  0  0  0  0  0  0  0  0  0
   -4.6110    1.9220   -0.6740 C   0  0  0  0  0  0  0  0  0  0  0  0
   -4.4430    2.8700    0.4940 C   0  0  0  0  0  0  0  0  0  0  0  0
   -5.3040    2.5400    1.5420 O   0  0  0  0  0  0  0  0  0  0  0  0
   -5.0980    3.4100    2.5230 O   0  0  0  0  0  0  0  0  0  0  0  0
   -2.8870   -0.8870    1.2620 C   0  0  0  0  0  0  0  0  0  0  0  0
   -3.6770   -0.8440    2.3230 C   0  0  0  0  0  0  0  0  0  0  0  0
   -3.6700   -1.8610    3.3510 C   0  0  0  0  0  0  0  0  0  0  0  0
   -4.4550   -1.7600    4.3580 O   0  0  0  0  0  0  0  0  0  0  0  0
   -2.8690   -2.9890    3.3690 O   0  0  0  0  0  0  0  0  0  0  0  0
   -1.9630   -1.9770    1.1090 N   0  0  0  0  0  0  0  0  0  0  0  0
   -1.8560   -2.8050   -0.0810 C   0  0  2  0  0  0  0  0  0  0  0  0
   -0.4740   -3.0030   -0.5930 C   0  0  0  0  0  0  0  0  0  0  0  0
    0.5250   -3.2550    0.4910 C   0  0  0  0  0  0  0  0  0  0  0  0
    1.5520   -2.1410    0.5150 C   0  0  0  0  0  0  0  0  0  0  0  0
    0.9960   -0.9850    1.1170 O   0  0  0  0  0  0  0  0  0  0  0  0
    1.5710    0.2840    1.0640 C   0  0  0  0  0  0  0  0  0  0  0  0
    1.6610    0.8780    2.2040 O   0  0  0  0  0  0  0  0  0  0  0  0
   -2.8050   -2.3630   -1.1360 C   0  0  0  0  0  0  0  0  0  0  0  0
   -4.0270   -2.6600   -0.8670 O   0  0  0  0  0  0  0  0  0  0  0  0
   -2.4540   -1.7210   -2.2540 O   0  0  0  0  0  0  0  0  0  0  0  0
   -1.8120   -2.0530   -3.4260 C   0  0  0  0  0  0  0  0  0  0  0  0
   -1.5520   -0.8560   -4.2650 C   0  0  2  0  0  0  0  0  0  0  0  0
   -0.1700   -0.8730   -4.7070 O   0  0  0  0  0  0  0  0  0  0  0  0
    0.5010   -0.5440   -3.5380 C   0  0  0  0  0  0  0  0  0  0  0  0
    1.6640   -0.9470   -3.2950 O   0  0  0  0  0  0  0  0  0  0  0  0
   -0.3720    0.3090   -2.7170 N   0  0  0  0  0  0  0  0  0  0  0  0
   -1.5350    0.4460   -3.4600 C   0  0  0  0  0  0  0  0  0  0  0  0
   -2.5090    1.2160   -3.6860 O   0  0  0  0  0  0  0  0  0  0  0  0
  2  1  1  6
  2  3  1  0
  2  4  1  0
  4  5  1  0
  5  6  1  0
  5  9  1  0
  6  7  1  0
  7  8  1  0
  9 10  2  0
  9 31  1  0
 10 11  1  0
 11 12  2  0
 11 41  1  0
 12 13  1  0
 13 14  2  0
 14 15  1  0
 14 20  1  0
 15 16  1  0
 16 17  1  0
 17 18  1  0
 18 19  1  0
 20 21  2  3
 20 25  1  0
 21 22  1  0
 22 23  2  0
 22 24  1  0
 25 26  1  0
 26 27  1  6
 26 33  1  0
 27 28  1  0
 28 29  1  0
 29 30  1  0
 30 31  1  0
 31 32  2  0
 33 34  2  0
 33 35  1  0
 35 36  1  0
 37 36  1  1
 37 38  1  0
 37 42  1  0
 38 39  1  0
 39 40  2  0
 39 41  1  0
 41 42  1  0
 42 43  2  0
M  END
