
     RDKit          3D

 43 45  0  0  0  0  0  0  0  0999 V2000
   -4.3010    6.6550    0.1830 C   0  0  0  0  0  0  0  0  0  0  0  0
   -4.6760    5.4220    0.8850 N   0  0  0  0  0  0  0  0  0  0  0  0
   -3.5250    4.7020    1.0600 N   0  0  0  0  0  0  0  0  0  0  0  0
   -3.3350    3.4500    0.2730 C   0  0  0  0  0  0  0  0  0  0  0  0
   -4.2320    3.1560   -0.4590 O   0  0  0  0  0  0  0  0  0  0  0  0
   -2.1020    2.9030    0.5950 N   0  0  0  0  0  0  0  0  0  0  0  0
   -2.2410    1.4610   -0.2840 C   0  0  0  0  0  0  0  0  0  0  0  0
   -3.2510    1.3340   -0.8780 O   0  0  0  0  0  0  0  0  0  0  0  0
   -1.1120    0.5250   -0.2210 C   0  0  2  0  0  0  0  0  0  0  0  0
   -1.0330   -0.0530   -1.6350 C   0  0  0  0  0  0  0  0  0  0  0  0
   -0.0250    0.6880   -2.4050 O   0  0  0  0  0  0  0  0  0  0  0  0
    1.2920    0.5050   -1.8790 C   0  0  0  0  0  0  0  0  0  0  0  0
    2.3150    0.4800   -2.5730 O   0  0  0  0  0  0  0  0  0  0  0  0
    1.2910    0.3470   -0.4500 N   0  0  0  0  0  0  0  0  0  0  0  0
    2.3260   -0.4270    0.0820 C   0  0  0  0  0  0  0  0  0  0  0  0
    3.7180   -0.0180   -0.2410 C   0  0  0  0  0  0  0  0  0  0  0  0
    3.9870    0.9960   -0.9020 O   0  0  0  0  0  0  0  0  0  0  0  0
    4.9030   -0.8130    0.2210 C   0  0  0  0  0  0  0  0  0  0  0  0
    6.0700   -0.0560    0.0130 O   0  0  0  0  0  0  0  0  0  0  0  0
    7.3240   -0.5710    0.3080 C   0  0  0  0  0  0  0  0  0  0  0  0
    7.3420   -1.7550    0.7450 O   0  0  0  0  0  0  0  0  0  0  0  0
    8.5860    0.1770    0.1420 C   0  0  0  0  0  0  0  0  0  0  0  0
    8.4310    1.4980   -0.2430 O   0  0  0  0  0  0  0  0  0  0  0  0
    9.5910    2.0990   -0.3610 O   0  0  0  0  0  0  0  0  0  0  0  0
   10.1330    1.8040   -1.5180 O   0  0  0  0  0  0  0  0  0  0  0  0
    2.2120   -1.4340    0.8520 N   0  0  0  0  0  0  0  0  0  0  0  0
    1.3740   -2.1930    1.4740 N   0  0  0  0  0  0  0  0  0  0  0  0
    0.6200   -3.2030    1.2780 C   0  0  0  0  0  0  0  0  0  0  0  0
    0.3890   -3.9870    0.1010 C   0  0  0  0  0  0  0  0  0  0  0  0
   -0.6160   -4.1070   -0.7320 C   0  0  0  0  0  0  0  0  0  0  0  0
   -1.9110   -3.5830   -0.8980 C   0  0  0  0  0  0  0  0  0  0  0  0
   -2.6320   -2.5780   -0.4050 C   0  0  0  0  0  0  0  0  0  0  0  0
   -4.0240   -2.4910   -0.9580 C   0  0  0  0  0  0  0  0  0  0  0  0
   -4.8550   -1.5720   -0.5940 C   0  0  0  0  0  0  0  0  0  0  0  0
   -6.1440   -1.4760   -1.0830 O   0  0  0  0  0  0  0  0  0  0  0  0
   -4.4870   -3.4080   -1.8990 O   0  0  0  0  0  0  0  0  0  0  0  0
   -5.0530   -4.6420   -1.4840 C   0  0  0  0  0  0  0  0  0  0  0  0
   -2.3320   -1.5960    0.5790 C   0  0  0  0  0  0  0  0  0  0  0  0
   -3.0340   -1.8100    1.6910 O   0  0  0  0  0  0  0  0  0  0  0  0
   -1.5170   -0.4540    0.7440 N   0  0  0  0  0  0  0  0  0  0  0  0
   -1.0020    0.0390    2.0320 C   0  0  0  0  0  0  0  0  0  0  0  0
    0.2210    0.7950    1.6900 C   0  0  0  0  0  0  0  0  0  0  0  0
    0.1910    1.0400    0.2410 C   0  0  2  0  0  0  0  0  0  0  0  0
  1  2  1  0
  2  3  1  0
  3  4  1  0
  4  5  2  0
  4  6  1  0
  6  7  1  0
  7  8  2  0
  9  7  1  6
  9 10  1  0
  9 40  1  0
  9 43  1  0
 10 11  1  0
 11 12  1  0
 12 13  2  0
 12 14  1  0
 14 15  1  0
 14 43  1  0
 15 16  1  0
 15 26  2  0
 16 17  2  0
 16 18  1  0
 18 19  1  0
 19 20  1  0
 20 21  2  0
 20 22  1  0
 22 23  1  0
 23 24  1  0
 24 25  1  0
 26 27  1  0
 27 28  2  0
 28 29  1  0
 29 30  2  0
 30 31  1  0
 31 32  2  0
 32 33  1  0
 32 38  1  0
 33 34  2  3
 33 36  1  0
 34 35  1  0
 36 37  1  0
 38 39  2  0
 38 40  1  0
 40 41  1  0
 41 42  1  0
 43 42  1  1
M  END
