
     RDKit          3D

 44 46  0  0  0  0  0  0  0  0999 V2000
    8.2120   -1.4120   -0.0590 C   0  0  0  0  0  0  0  0  0  0  0  0
    6.8110   -1.3140   -0.1740 O   0  0  0  0  0  0  0  0  0  0  0  0
    6.1850   -0.1100    0.0190 C   0  0  0  0  0  0  0  0  0  0  0  0
    7.0030    0.8500    0.3010 O   0  0  0  0  0  0  0  0  0  0  0  0
    4.7980    0.1980   -0.0510 N   0  0  0  0  0  0  0  0  0  0  0  0
    4.5570    1.6400    0.1860 C   0  0  0  0  0  0  0  0  0  0  0  0
    3.1580    1.8600    0.5770 C   0  0  0  0  0  0  0  0  0  0  0  0
    2.3040    2.4160   -0.4510 N   0  0  0  0  0  0  0  0  0  0  0  0
    1.9820    3.7880   -0.5880 C   0  0  0  0  0  0  0  0  0  0  0  0
    2.3990    4.3390   -1.7030 O   0  0  0  0  0  0  0  0  0  0  0  0
    1.2580    4.6400    0.3390 C   0  0  0  0  0  0  0  0  0  0  0  0
   -0.0190    4.6430    0.6670 C   0  0  0  0  0  0  0  0  0  0  0  0
   -1.0760    3.7380    0.1480 C   0  0  0  0  0  0  0  0  0  0  0  0
   -1.9750    3.8980   -0.8700 N   0  0  0  0  0  0  0  0  0  0  0  0
   -2.6980    2.8600   -0.9450 O   0  0  0  0  0  0  0  0  0  0  0  0
   -2.3360    1.9850   -0.0170 C   0  0  0  0  0  0  0  0  0  0  0  0
   -1.3470    2.5500    0.6310 N   0  0  0  0  0  0  0  0  0  0  0  0
   -2.8760    0.6480    0.2850 C   0  0  0  0  0  0  0  0  0  0  0  0
   -4.1690    0.5100    0.3730 C   0  0  0  0  0  0  0  0  0  0  0  0
   -5.1790    1.5770    0.1990 C   0  0  0  0  0  0  0  0  0  0  0  0
   -5.9390    1.7080    1.3890 O   0  0  0  0  0  0  0  0  0  0  0  0
   -6.8150    2.6560    1.1940 O   0  0  0  0  0  0  0  0  0  0  0  0
   -2.0290   -0.5920    0.4790 C   0  0  1  0  0  0  0  0  0  0  0  0
   -0.8450   -0.1790    1.2750 C   0  0  0  0  0  0  0  0  0  0  0  0
    0.0890    0.5390    0.5590 O   0  0  0  0  0  0  0  0  0  0  0  0
   -2.8270   -1.4200    1.2980 O   0  0  0  0  0  0  0  0  0  0  0  0
   -3.2620   -1.0320    2.5160 C   0  0  0  0  0  0  0  0  0  0  0  0
   -3.0570    0.0470    3.0830 O   0  0  0  0  0  0  0  0  0  0  0  0
   -4.0440   -1.9590    3.2380 O   0  0  0  0  0  0  0  0  0  0  0  0
   -1.7430   -1.1520   -0.8440 C   0  0  0  0  0  0  0  0  0  0  0  0
   -2.0330   -0.3170   -1.8250 O   0  0  0  0  0  0  0  0  0  0  0  0
   -1.2380   -2.3590   -1.3420 N   0  0  0  0  0  0  0  0  0  0  0  0
   -2.1310   -3.1440   -2.2650 C   0  0  0  0  0  0  0  0  0  0  0  0
   -2.9860   -4.1110   -1.5270 C   0  0  0  0  0  0  0  0  0  0  0  0
   -3.8480   -3.5790   -0.6020 O   0  0  0  0  0  0  0  0  0  0  0  0
   -4.5170   -4.5580   -0.0520 O   0  0  0  0  0  0  0  0  0  0  0  0
    0.0760   -2.9620   -1.1250 C   0  0  0  0  0  0  0  0  0  0  0  0
   -0.0540   -4.2800   -1.2240 O   0  0  0  0  0  0  0  0  0  0  0  0
    1.3200   -2.1820   -0.8490 C   0  0  0  0  0  0  0  0  0  0  0  0
    2.0390   -1.5050   -1.8350 C   0  0  0  0  0  0  0  0  0  0  0  0
    3.1190   -0.7940   -1.5130 N   0  0  0  0  0  0  0  0  0  0  0  0
    3.6630   -0.6100   -0.3180 C   0  0  0  0  0  0  0  0  0  0  0  0
    2.9720   -1.2610    0.6290 N   0  0  0  0  0  0  0  0  0  0  0  0
    1.8570   -2.0150    0.4130 C   0  0  0  0  0  0  0  0  0  0  0  0
  1  2  1  0
  2  3  1  0
  3  4  2  0
  3  5  1  0
  5  6  1  0
  5 42  1  0
  6  7  1  0
  7  8  1  0
  8  9  1  0
  9 10  2  0
  9 11  1  0
 11 12  2  0
 12 13  1  0
 13 14  2  0
 13 17  1  0
 14 15  1  0
 15 16  1  0
 16 17  2  0
 16 18  1  0
 18 19  2  3
 18 23  1  0
 19 20  1  0
 20 21  1  0
 21 22  1  0
 23 24  1  1
 23 26  1  0
 23 30  1  0
 24 25  1  0
 26 27  1  0
 27 28  2  0
 27 29  1  0
 30 31  2  0
 30 32  1  0
 32 33  1  0
 32 37  1  0
 33 34  1  0
 34 35  1  0
 35 36  1  0
 37 38  2  0
 37 39  1  0
 39 40  2  0
 39 44  1  0
 40 41  1  0
 41 42  2  0
 42 43  1  0
 43 44  2  0
M  END
