
     RDKit          3D

 31 35  0  0  0  0  0  0  0  0999 V2000
    0.4580    0.4340    0.0890 O   0  0  0  0  0  0  0  0  0  0  0  0
    0.1390    1.3150   -0.7390 C   0  0  0  0  0  0  0  0  0  0  0  0
    1.0720    1.7150   -1.7010 N   0  0  0  0  0  0  0  0  0  0  0  0
    2.4250    1.1540   -1.7980 C   0  0  0  0  0  0  0  0  0  0  0  0
    3.4130    1.2050   -2.3940 N   0  0  0  0  0  0  0  0  0  0  0  0
    4.4830    0.5080   -2.1830 N   0  0  0  0  0  0  0  0  0  0  0  0
    4.5740   -0.3200   -1.2910 C   0  0  0  0  0  0  0  0  0  0  0  0
    5.5570   -1.2550   -0.7620 C   0  0  0  0  0  0  0  0  0  0  0  0
    5.2650   -2.0590    0.3110 C   0  0  0  0  0  0  0  0  0  0  0  0
    6.2030   -2.9380    0.8000 C   0  0  0  0  0  0  0  0  0  0  0  0
    7.4560   -3.0410    0.2360 C   0  0  0  0  0  0  0  0  0  0  0  0
    7.7130   -2.2180   -0.8390 C   0  0  0  0  0  0  0  0  0  0  0  0
    6.8020   -1.3280   -1.3560 C   0  0  0  0  0  0  0  0  0  0  0  0
    2.8790   -0.1800   -0.5290 S   0  0  0  0  0  0  0  0  0  0  0  0
   -1.2080    1.8930   -0.6640 C   0  0  0  0  0  0  0  0  0  0  0  0
   -1.6350    2.8830   -1.4980 N   0  0  0  0  0  0  0  0  0  0  0  0
   -2.8950    3.1980   -1.1510 C   0  0  0  0  0  0  0  0  0  0  0  0
   -3.7930    4.1370   -1.6730 C   0  0  0  0  0  0  0  0  0  0  0  0
   -5.0630    4.2930   -1.1500 C   0  0  0  0  0  0  0  0  0  0  0  0
   -5.4020    3.4790   -0.0890 C   0  0  0  0  0  0  0  0  0  0  0  0
   -4.5390    2.5460    0.4460 C   0  0  0  0  0  0  0  0  0  0  0  0
   -3.2680    2.4000   -0.0900 C   0  0  0  0  0  0  0  0  0  0  0  0
   -2.1870    1.5660    0.2190 C   0  0  0  0  0  0  0  0  0  0  0  0
   -2.2490    0.6100    1.2490 N   0  0  0  0  0  0  0  0  0  0  0  0
   -2.7990   -0.7060    1.1020 C   0  0  1  0  0  0  0  0  0  0  0  0
   -2.1040   -1.5380    0.0680 C   0  0  0  0  0  0  0  0  0  0  0  0
   -2.9460   -2.8300    0.0940 C   0  0  0  0  0  0  0  0  0  0  0  0
   -2.9180   -3.1380    1.8680 S   0  0  1  0  0  0  0  0  0  0  0  0
   -4.2280   -3.6380    2.3520 O   0  0  0  0  0  0  0  0  0  0  0  0
   -1.7670   -4.0230    2.2380 O   0  0  0  0  0  0  0  0  0  0  0  0
   -2.6210   -1.4510    2.4250 C   0  0  0  0  0  0  0  0  0  0  0  0
  1  2  2  0
  2  3  1  0
  2 15  1  0
  3  4  1  0
  4  5  2  0
  4 14  1  0
  5  6  1  0
  6  7  2  0
  7  8  1  0
  7 14  1  0
  8  9  2  0
  8 13  1  0
  9 10  1  0
 10 11  2  0
 11 12  1  0
 12 13  2  0
 15 16  1  0
 15 23  2  0
 16 17  1  0
 17 18  2  0
 17 22  1  0
 18 19  1  0
 19 20  2  0
 20 21  1  0
 21 22  2  0
 22 23  1  0
 23 24  1  0
 25 24  1  1
 25 26  1  0
 25 31  1  0
 26 27  1  0
 28 27  1  6
 28 29  2  0
 28 30  2  0
 28 31  1  0
M  END
