
     RDKit          3D

 31 35  0  0  0  0  0  0  0  0999 V2000
    8.6760    0.2400    1.7590 C   0  0  0  0  0  0  0  0  0  0  0  0
    7.6760   -0.4620    0.8650 C   0  0  1  0  0  0  0  0  0  0  0  0
    6.2560   -0.2080    1.3340 C   0  0  0  0  0  0  0  0  0  0  0  0
    5.3400   -0.9970    0.4060 C   0  0  0  0  0  0  0  0  0  0  0  0
    5.3090   -0.1580   -0.8800 C   0  0  0  0  0  0  0  0  0  0  0  0
    4.2680    0.2230   -1.6250 C   0  0  0  0  0  0  0  0  0  0  0  0
    2.8990   -0.1380   -1.2930 N   0  0  0  0  0  0  0  0  0  0  0  0
    1.8480    0.3060   -2.1370 C   0  0  0  0  0  0  0  0  0  0  0  0
    0.5020   -0.1670   -1.6290 C   0  0  0  0  0  0  0  0  0  0  0  0
   -0.3970    0.6760   -1.3130 N   0  0  0  0  0  0  0  0  0  0  0  0
   -1.7100    0.3710   -0.8200 C   0  0  0  0  0  0  0  0  0  0  0  0
   -2.5610    1.4330   -0.5250 C   0  0  0  0  0  0  0  0  0  0  0  0
   -3.8200    1.1750   -0.0520 C   0  0  0  0  0  0  0  0  0  0  0  0
   -4.2880   -0.1050    0.1470 C   0  0  0  0  0  0  0  0  0  0  0  0
   -5.5690   -0.4570    0.6160 N   0  0  0  0  0  0  0  0  0  0  0  0
   -6.6740    0.3960    0.8100 C   0  0  0  0  0  0  0  0  0  0  0  0
   -6.5870    1.6150    0.5540 O   0  0  0  0  0  0  0  0  0  0  0  0
   -7.9330   -0.1190    1.3100 N   0  0  0  0  0  0  0  0  0  0  0  0
   -9.0320    0.8080    1.4890 C   0  0  1  0  0  0  0  0  0  0  0  0
  -10.4380    0.2770    1.1600 C   0  0  0  0  0  0  0  0  0  0  0  0
  -10.0080    0.4610    2.5620 C   0  0  0  0  0  0  0  0  0  0  0  0
   -3.4230   -1.1660   -0.1530 C   0  0  0  0  0  0  0  0  0  0  0  0
   -2.1740   -0.8910   -0.6220 C   0  0  0  0  0  0  0  0  0  0  0  0
   -1.1120   -2.2470   -0.9900 S   0  0  2  0  0  0  0  0  0  0  0  0
   -1.7750   -3.1050   -2.0510 O   0  0  0  0  0  0  0  0  0  0  0  0
   -0.9240   -3.1190    0.2160 O   0  0  0  0  0  0  0  0  0  0  0  0
    0.3540   -1.5700   -1.5440 N   0  0  0  0  0  0  0  0  0  0  0  0
    4.4940    0.9880   -2.7570 C   0  0  0  0  0  0  0  0  0  0  0  0
    6.2980    1.1460   -2.7110 S   0  0  0  0  0  0  0  0  0  0  0  0
    6.5830    0.2190   -1.2520 C   0  0  0  0  0  0  0  0  0  0  0  0
    7.8070   -0.0980   -0.5740 C   0  0  0  0  0  0  0  0  0  0  0  0
  2  1  1  1
  2  3  1  0
  2 31  1  0
  3  4  1  0
  4  5  1  0
  5  6  1  0
  5 30  2  0
  6  7  1  0
  6 28  2  0
  7  8  1  0
  8  9  1  0
  9 10  2  0
  9 27  1  0
 10 11  1  0
 11 12  2  0
 11 23  1  0
 12 13  1  0
 13 14  2  0
 14 15  1  0
 14 22  1  0
 15 16  1  0
 16 17  2  0
 16 18  1  0
 19 18  1  1
 19 20  1  0
 19 21  1  0
 20 21  1  0
 22 23  2  0
 23 24  1  0
 24 25  2  0
 24 26  2  0
 24 27  1  6
 28 29  1  0
 29 30  1  0
 30 31  1  0
M  END
