
     RDKit          3D

 29 30  0  0  0  0  0  0  0  0999 V2000
   -1.5080    2.7440    0.8080 N   0  0  0  0  0  0  0  0  0  0  0  0
   -1.6390    2.7270   -0.6300 C   0  0  1  0  0  0  0  0  0  0  0  0
   -0.3560    3.0080   -1.2870 C   0  0  0  0  0  0  0  0  0  0  0  0
    0.7910    2.1320   -1.0430 C   0  0  0  0  0  0  0  0  0  0  0  0
    1.6270    2.2720    0.0550 C   0  0  0  0  0  0  0  0  0  0  0  0
    2.7260    1.4740    0.2750 C   0  0  0  0  0  0  0  0  0  0  0  0
    3.0660    0.4700   -0.6020 C   0  0  0  0  0  0  0  0  0  0  0  0
    4.1600   -0.3640   -0.4380 O   0  0  0  0  0  0  0  0  0  0  0  0
    5.0170   -0.2260    0.6880 C   0  0  0  0  0  0  0  0  0  0  0  0
    6.1300   -1.2110    0.6320 C   0  0  0  0  0  0  0  0  0  0  0  0
    7.1920   -0.9670   -0.2290 C   0  0  0  0  0  0  0  0  0  0  0  0
    8.2460   -1.8540   -0.3180 C   0  0  0  0  0  0  0  0  0  0  0  0
    8.2800   -3.0000    0.4360 C   0  0  0  0  0  0  0  0  0  0  0  0
    7.2350   -3.2610    1.2980 C   0  0  0  0  0  0  0  0  0  0  0  0
    6.1860   -2.3650    1.3780 C   0  0  0  0  0  0  0  0  0  0  0  0
    2.2380    0.3080   -1.7180 C   0  0  0  0  0  0  0  0  0  0  0  0
    1.1430    1.1190   -1.9150 C   0  0  0  0  0  0  0  0  0  0  0  0
   -2.5640    1.7200   -1.1860 C   0  0  0  0  0  0  0  0  0  0  0  0
   -2.3210    0.3370   -0.9270 N   0  0  0  0  0  0  0  0  0  0  0  0
   -1.5900   -0.3960   -1.7940 O   0  0  0  0  0  0  0  0  0  0  0  0
   -2.8560   -0.3470    0.2030 C   0  0  0  0  0  0  0  0  0  0  0  0
   -2.5740   -1.5770    0.3530 O   0  0  0  0  0  0  0  0  0  0  0  0
   -3.7250    0.2710    1.2260 C   0  0  0  0  0  0  0  0  0  0  0  0
   -4.3960   -0.8300    2.0310 C   0  0  0  0  0  0  0  0  0  0  0  0
   -5.2450   -1.7460    1.2240 C   0  0  0  0  0  0  0  0  0  0  0  0
   -6.3390   -0.9620    0.5050 C   0  0  0  0  0  0  0  0  0  0  0  0
   -7.1800   -1.9200   -0.2760 C   0  0  0  0  0  0  0  0  0  0  0  0
   -7.5770   -3.0040    0.2700 O   0  0  0  0  0  0  0  0  0  0  0  0
   -7.5520   -1.6810   -1.5960 O   0  0  0  0  0  0  0  0  0  0  0  0
  2  1  1  1
  2  3  1  0
  2 18  1  0
  3  4  1  0
  4  5  2  0
  4 17  1  0
  5  6  1  0
  6  7  2  0
  7  8  1  0
  7 16  1  0
  8  9  1  0
  9 10  1  0
 10 11  2  0
 10 15  1  0
 11 12  1  0
 12 13  2  0
 13 14  1  0
 14 15  2  0
 16 17  2  0
 18 19  1  0
 19 20  1  0
 19 21  1  0
 21 22  2  0
 21 23  1  0
 23 24  1  0
 24 25  1  0
 25 26  1  0
 26 27  1  0
 27 28  2  0
 27 29  1  0
M  CHG  1   1   1
M  END
