
     RDKit          3D

 29 31  0  0  0  0  0  0  0  0999 V2000
   -3.6690    0.1170    4.3680 N   0  0  0  0  0  0  0  0  0  0  0  0
   -4.8460   -0.1770    3.6380 C   0  0  0  0  0  0  0  0  0  0  0  0
   -4.8200   -0.3010    2.3280 C   0  0  0  0  0  0  0  0  0  0  0  0
   -3.5510   -0.1310    1.6280 C   0  0  0  0  0  0  0  0  0  0  0  0
   -3.3770   -0.2260    0.3320 C   0  0  0  0  0  0  0  0  0  0  0  0
   -4.5750   -0.5310   -0.4740 C   0  0  0  0  0  0  0  0  0  0  0  0
   -4.4360   -0.6220   -1.7960 C   0  0  0  0  0  0  0  0  0  0  0  0
   -3.1690   -0.4390   -2.4890 C   0  0  0  0  0  0  0  0  0  0  0  0
   -3.1190   -0.5590   -3.9350 C   0  0  0  0  0  0  0  0  0  0  0  0
   -4.2870   -0.8490   -4.6590 N   0  0  0  0  0  0  0  0  0  0  0  0
   -2.0370   -0.4030   -4.5290 O   0  0  0  0  0  0  0  0  0  0  0  0
   -2.0790   -0.1660   -1.7890 C   0  0  0  0  0  0  0  0  0  0  0  0
   -2.1440   -0.0500   -0.3510 N   0  0  0  0  0  0  0  0  0  0  0  0
   -0.9740    0.2670    0.4120 C   0  0  2  0  0  0  0  0  0  0  0  0
   -0.7120    1.7490    0.3280 C   0  0  0  0  0  0  0  0  0  0  0  0
   -0.4850    2.2840   -1.0460 C   0  0  0  0  0  0  0  0  0  0  0  0
   -0.2120    3.7220   -1.0200 N   0  0  0  0  0  0  0  0  0  0  0  0
    0.2620   -0.4670   -0.0990 C   0  0  0  0  0  0  0  0  0  0  0  0
    1.3700   -0.1000    0.7310 N   0  0  0  0  0  0  0  0  0  0  0  0
    2.7010   -0.5990    0.5030 C   0  0  0  0  0  0  0  0  0  0  0  0
    3.0140   -1.4630   -0.5240 C   0  0  0  0  0  0  0  0  0  0  0  0
    4.2650   -1.9630   -0.7780 C   0  0  0  0  0  0  0  0  0  0  0  0
    5.3060   -1.5640    0.0740 C   0  0  0  0  0  0  0  0  0  0  0  0
    5.0330   -0.7010    1.1120 C   0  0  0  0  0  0  0  0  0  0  0  0
    3.7500   -0.2290    1.3200 C   0  0  0  0  0  0  0  0  0  0  0  0
    6.2920   -0.4740    1.8030 C   0  0  0  0  0  0  0  0  0  0  0  0
    6.4550    0.0020    2.9420 O   0  0  0  0  0  0  0  0  0  0  0  0
    7.4190   -0.9110    0.9140 C   0  0  0  0  0  0  0  0  0  0  0  0
    6.7380   -1.9340    0.0540 C   0  0  0  0  0  0  0  0  0  0  0  0
  1  2  1  0
  2  3  2  3
  3  4  1  0
  4  5  2  3
  5  6  1  0
  5 13  1  0
  6  7  2  0
  7  8  1  0
  8  9  1  0
  8 12  2  0
  9 10  1  0
  9 11  2  0
 12 13  1  0
 13 14  1  0
 14 15  1  6
 14 18  1  0
 15 16  1  0
 16 17  1  0
 18 19  1  0
 19 20  1  0
 20 21  2  0
 20 25  1  0
 21 22  1  0
 22 23  2  0
 23 24  1  0
 23 29  1  0
 24 25  2  0
 24 26  1  0
 26 27  2  0
 26 28  1  0
 28 29  1  0
M  CHG  1  17   1
M  END
