
     RDKit          3D

 19 21  0  0  0  0  0  0  0  0999 V2000
    3.0700    1.6460    1.3030 C   0  0  0  0  0  0  0  0  0  0  0  0
    3.7080    0.3010    1.1680 C   0  0  2  0  0  0  0  0  0  0  0  0
    4.8340    0.3550    0.1670 C   0  0  0  0  0  0  0  0  0  0  0  0
    4.4590   -0.0420   -1.2250 C   0  0  0  0  0  0  0  0  0  0  0  0
    2.9960    0.1160   -1.5680 C   0  0  0  0  0  0  0  0  0  0  0  0
    2.0670   -0.4080   -0.6030 C   0  0  2  0  0  0  0  0  0  0  0  0
    1.0660    0.5550   -0.2420 O   0  0  0  0  0  0  0  0  0  0  0  0
    0.1100    0.0090    0.4730 C   0  0  0  0  0  0  0  0  0  0  0  0
   -1.2780    0.3930    0.3250 C   0  0  0  0  0  0  0  0  0  0  0  0
   -1.9890    1.4450    0.7240 O   0  0  0  0  0  0  0  0  0  0  0  0
   -3.2550    1.2550    0.3420 C   0  0  0  0  0  0  0  0  0  0  0  0
   -3.3240    0.1470   -0.3270 C   0  0  0  0  0  0  0  0  0  0  0  0
   -2.1960   -0.4890   -0.3490 C   0  0  0  0  0  0  0  0  0  0  0  0
   -1.7050   -1.8500   -0.7830 C   0  0  0  0  0  0  0  0  0  0  0  0
   -2.4460   -2.8230    0.1140 N   0  0  0  0  0  0  0  0  0  0  0  0
   -4.6680    0.0950   -1.0960 C   0  0  0  0  0  0  0  0  0  0  0  0
   -5.1850    1.5060   -0.8960 C   0  0  0  0  0  0  0  0  0  0  0  0
   -4.6550    1.8380    0.4390 C   0  0  0  0  0  0  0  0  0  0  0  0
    2.8010   -0.7780    0.7320 C   0  0  0  0  0  0  0  0  0  0  0  0
  2  1  1  6
  2  3  1  0
  2 19  1  0
  3  4  1  0
  4  5  1  0
  5  6  1  0
  6  7  1  1
  6 19  1  0
  7  8  1  0
  8  9  1  0
  9 10  1  0
  9 13  2  0
 10 11  1  0
 11 12  2  0
 11 18  1  0
 12 13  1  0
 12 16  1  0
 13 14  1  0
 14 15  1  0
 16 17  1  0
 17 18  1  0
M  CHG  1  15   1
M  END
