
     RDKit          3D

 19 20  0  0  0  0  0  0  0  0999 V2000
    5.0940   -1.0670    0.4640 C   0  0  0  0  0  0  0  0  0  0  0  0
    3.8010   -0.5920    0.1730 O   0  0  0  0  0  0  0  0  0  0  0  0
    2.6400   -1.3290    0.4140 C   0  0  0  0  0  0  0  0  0  0  0  0
    2.8010   -2.4500    0.9090 O   0  0  0  0  0  0  0  0  0  0  0  0
    1.3110   -0.7780    0.0900 C   0  0  0  0  0  0  0  0  0  0  0  0
    1.1300    0.4350   -0.4480 C   0  0  0  0  0  0  0  0  0  0  0  0
    2.2830    1.3370   -0.7840 C   0  0  0  0  0  0  0  0  0  0  0  0
   -0.2890    0.6460   -0.6400 C   0  0  2  0  0  0  0  0  0  0  0  0
   -0.9430    1.6660    0.2640 C   0  0  0  0  0  0  0  0  0  0  0  0
   -0.4640    3.0440    0.2260 C   0  0  0  0  0  0  0  0  0  0  0  0
    0.7990    3.4090    0.7520 N   0  0  0  0  0  0  0  0  0  0  0  0
   -0.9160   -0.6810   -0.2700 C   0  0  0  0  0  0  0  0  0  0  0  0
   -2.3540   -0.9900   -0.4010 C   0  0  0  0  0  0  0  0  0  0  0  0
   -3.2720   -0.1920   -0.9160 C   0  0  0  0  0  0  0  0  0  0  0  0
   -4.6320   -0.7930   -0.8970 C   0  0  0  0  0  0  0  0  0  0  0  0
   -4.3760   -2.1010   -0.2740 C   0  0  0  0  0  0  0  0  0  0  0  0
   -3.0620   -2.1880    0.0000 C   0  0  0  0  0  0  0  0  0  0  0  0
    0.0260   -1.4590    0.1730 C   0  0  0  0  0  0  0  0  0  0  0  0
   -0.1340   -2.8770    0.7020 C   0  0  0  0  0  0  0  0  0  0  0  0
  1  2  1  0
  2  3  1  0
  3  4  2  0
  3  5  1  0
  5  6  2  0
  5 18  1  0
  6  7  1  0
  6  8  1  0
  8  9  1  1
  8 12  1  0
  9 10  1  0
 10 11  1  0
 12 13  1  0
 12 18  2  0
 13 14  2  0
 13 17  1  0
 14 15  1  0
 15 16  1  0
 16 17  2  0
 18 19  1  0
M  CHG  1  11   1
M  END
