
     RDKit          3D

 11 11  0  0  0  0  0  0  0  0999 V2000
   -3.0250   -0.6920   -1.2770 O   0  0  0  0  0  0  0  0  0  0  0  0
   -1.8730   -0.4310   -0.8800 C   0  0  0  0  0  0  0  0  0  0  0  0
   -0.7160   -1.0660   -1.4110 N   0  0  0  0  0  0  0  0  0  0  0  0
    0.6280   -0.5770   -1.2140 C   0  0  0  0  0  0  0  0  0  0  0  0
    0.7720    0.3070   -0.0200 C   0  0  2  0  0  0  0  0  0  0  0  0
    2.0940    0.0090    0.6470 C   0  0  0  0  0  0  0  0  0  0  0  0
    3.1300    0.2510   -0.2440 O   0  0  0  0  0  0  0  0  0  0  0  0
   -0.3890    0.1310    0.9350 C   0  0  1  0  0  0  0  0  0  0  0  0
   -0.1880    0.8400    2.0930 O   0  0  0  0  0  0  0  0  0  0  0  0
   -1.6340    0.5840    0.1980 C   0  0  2  0  0  0  0  0  0  0  0  0
   -2.7450    0.6580    1.0010 O   0  0  0  0  0  0  0  0  0  0  0  0
  1  2  2  0
  2  3  1  0
  2 10  1  0
  3  4  1  0
  4  5  1  0
  5  6  1  1
  5  8  1  0
  6  7  1  0
  8  9  1  1
  8 10  1  0
 10 11  1  1
M  END
