
     RDKit          3D

 19 20  0  0  0  0  0  0  0  0999 V2000
    2.9630   -2.0480    0.4760 C   0  0  0  0  0  0  0  0  0  0  0  0
    2.5720   -0.8000   -0.3030 C   0  0  1  0  0  0  0  0  0  0  0  0
    1.8220    0.0640    0.5730 N   0  0  0  0  0  0  0  0  0  0  0  0
    0.4320   -0.4030    0.6870 C   0  0  0  0  0  0  0  0  0  0  0  0
   -0.0990    0.2120    1.9550 C   0  0  0  0  0  0  0  0  0  0  0  0
   -1.3810   -0.1520    2.1600 O   0  0  0  0  0  0  0  0  0  0  0  0
   -2.3400    0.1920    1.2640 C   0  0  2  0  0  0  0  0  0  0  0  0
   -3.4640    1.0170    1.8700 C   0  0  0  0  0  0  0  0  0  0  0  0
   -4.5560    1.1260    0.8400 C   0  0  0  0  0  0  0  0  0  0  0  0
   -3.9660    1.4540   -0.4800 C   0  0  0  0  0  0  0  0  0  0  0  0
   -3.6460    0.3300   -1.3820 C   0  0  0  0  0  0  0  0  0  0  0  0
   -3.1760   -0.9310   -0.8190 C   0  0  0  0  0  0  0  0  0  0  0  0
   -2.9890   -1.0130    0.6600 C   0  0  1  0  0  0  0  0  0  0  0  0
   -2.2150   -2.1450    0.9260 O   0  0  0  0  0  0  0  0  0  0  0  0
    3.8080   -0.1100   -0.7930 C   0  0  0  0  0  0  0  0  0  0  0  0
    4.1390    1.1230   -0.4640 C   0  0  0  0  0  0  0  0  0  0  0  0
    5.4070    1.4280   -1.1430 C   0  0  0  0  0  0  0  0  0  0  0  0
    5.7310    0.1920   -1.8910 C   0  0  0  0  0  0  0  0  0  0  0  0
    4.7890   -0.7040   -1.6810 C   0  0  0  0  0  0  0  0  0  0  0  0
  2  1  1  1
  2  3  1  0
  2 15  1  0
  3  4  1  0
  4  5  1  0
  5  6  1  0
  7  6  1  1
  7  8  1  0
  7 13  1  0
  8  9  1  0
  9 10  1  0
 10 11  1  0
 11 12  1  0
 12 13  1  0
 13 14  1  6
 15 16  2  0
 15 19  1  0
 16 17  1  0
 17 18  1  0
 18 19  2  0
M  CHG  1   3   1
M  END
