
     RDKit          3D

 19 19  0  0  0  0  0  0  0  0999 V2000
    1.8840    1.4750    1.7730 C   0  0  0  0  0  0  0  0  0  0  0  0
    2.5650    0.4040    1.6360 C   0  0  0  0  0  0  0  0  0  0  0  0
    3.8490    0.4840    2.4230 O   0  0  0  0  0  0  0  0  0  0  0  0
    3.6040    0.1510    3.7850 C   0  0  0  0  0  0  0  0  0  0  0  0
    2.4940   -0.8450    0.9730 C   0  0  0  0  0  0  0  0  0  0  0  0
    1.5670   -1.4610    0.1250 C   0  0  0  0  0  0  0  0  0  0  0  0
    0.4210   -1.2990   -0.4600 C   0  0  0  0  0  0  0  0  0  0  0  0
   -0.0760   -2.4250   -1.3120 C   0  0  0  0  0  0  0  0  0  0  0  0
   -1.2240   -2.3850   -1.9600 C   0  0  0  0  0  0  0  0  0  0  0  0
   -2.0610   -1.1930   -1.8500 C   0  0  0  0  0  0  0  0  0  0  0  0
   -3.1360   -1.1550   -2.4570 O   0  0  0  0  0  0  0  0  0  0  0  0
   -1.6510   -0.0680   -1.0500 C   0  0  0  0  0  0  0  0  0  0  0  0
   -2.4750    1.1170   -0.9360 C   0  0  0  0  0  0  0  0  0  0  0  0
   -2.7470    1.7980   -2.1740 N   0  0  0  0  0  0  0  0  0  0  0  0
   -3.4840    3.0210   -1.8230 C   0  0  0  0  0  0  0  0  0  0  0  0
   -4.7600    2.6640   -1.0940 C   0  0  0  0  0  0  0  0  0  0  0  0
   -0.4770   -0.1640   -0.4150 C   0  0  0  0  0  0  0  0  0  0  0  0
    3.6160   -1.6560    1.2210 C   0  0  0  0  0  0  0  0  0  0  0  0
    3.7890   -2.9830    0.6610 C   0  0  0  0  0  0  0  0  0  0  0  0
  1  2  2  0
  2  3  1  0
  2  5  1  0
  3  4  1  0
  5  6  1  0
  5 18  2  3
  6  7  2  3
  7  8  1  0
  7 17  1  0
  8  9  2  0
  9 10  1  0
 10 11  2  0
 10 12  1  0
 12 13  1  0
 12 17  2  0
 13 14  1  0
 14 15  1  0
 15 16  1  0
 18 19  1  0
M  CHG  1  14   1
M  END
