
     RDKit          3D

 11 11  0  0  0  0  0  0  0  0999 V2000
    3.4840   -0.0460   -0.4150 O   0  0  0  0  0  0  0  0  0  0  0  0
    2.7340    1.1060   -0.3940 C   0  0  0  0  0  0  0  0  0  0  0  0
    1.3730    0.9110   -0.4880 O   0  0  0  0  0  0  0  0  0  0  0  0
    0.8640    0.1340    0.5550 C   0  0  2  0  0  0  0  0  0  0  0  0
    0.3120   -1.1450    0.0400 C   0  0  0  0  0  0  0  0  0  0  0  0
   -1.1820   -1.2470    0.0320 C   0  0  2  0  0  0  0  0  0  0  0  0
   -1.6410   -1.8680   -1.1380 O   0  0  0  0  0  0  0  0  0  0  0  0
   -1.8720    0.0870    0.1090 C   0  0  2  0  0  0  0  0  0  0  0  0
   -1.9120    0.6750   -1.1580 O   0  0  0  0  0  0  0  0  0  0  0  0
   -1.2370    1.0310    1.0760 C   0  0  0  0  0  0  0  0  0  0  0  0
    0.0620    0.9210    1.3010 O   0  0  0  0  0  0  0  0  0  0  0  0
  1  2  1  0
  2  3  1  0
  4  3  1  6
  4  5  1  0
  4 11  1  0
  5  6  1  0
  6  7  1  6
  6  8  1  0
  8  9  1  6
  8 10  1  0
 10 11  1  0
M  END
