
     RDKit          3D

 12 12  0  0  0  0  0  0  0  0999 V2000
    3.6690   -0.1760   -0.4270 O   0  0  0  0  0  0  0  0  0  0  0  0
    2.4130   -0.5770    0.0100 C   0  0  0  0  0  0  0  0  0  0  0  0
    1.5400    0.3060    0.4680 C   0  0  0  0  0  0  0  0  0  0  0  0
    1.9300    1.6360    0.4940 O   0  0  0  0  0  0  0  0  0  0  0  0
    0.2050   -0.0620    0.9400 C   0  0  2  0  0  0  0  0  0  0  0  0
   -0.0700   -1.4060    0.8680 O   0  0  0  0  0  0  0  0  0  0  0  0
   -1.4580   -1.4760    0.7530 C   0  0  1  0  0  0  0  0  0  0  0  0
   -2.0610   -1.3910    1.9990 O   0  0  0  0  0  0  0  0  0  0  0  0
   -1.7940   -0.3070   -0.0930 C   0  0  0  0  0  0  0  0  0  0  0  0
   -2.9180   -0.0820   -0.8770 O   0  0  0  0  0  0  0  0  0  0  0  0
   -0.7980    0.5320    0.0230 C   0  0  0  0  0  0  0  0  0  0  0  0
   -0.6990    1.7560   -0.6000 O   0  0  0  0  0  0  0  0  0  0  0  0
  1  2  1  0
  2  3  2  3
  3  4  1  0
  5  3  1  6
  5  6  1  0
  5 11  1  0
  6  7  1  0
  7  8  1  1
  7  9  1  0
  9 10  1  0
  9 11  2  0
 11 12  1  0
M  END
