
     RDKit          3D

 11 11  0  0  0  0  0  0  0  0999 V2000
    3.2900   -0.3970    0.5110 C   0  0  0  0  0  0  0  0  0  0  0  0
    2.0470   -0.7730   -0.0190 O   0  0  0  0  0  0  0  0  0  0  0  0
    1.1730    0.2930   -0.0390 C   0  0  2  0  0  0  0  0  0  0  0  0
   -0.0470    0.0730    0.8220 C   0  0  0  0  0  0  0  0  0  0  0  0
   -1.1400    0.6220   -0.1000 C   0  0  2  0  0  0  0  0  0  0  0  0
   -1.1680    1.9920   -0.0650 O   0  0  0  0  0  0  0  0  0  0  0  0
   -2.4700   -0.0130    0.1990 C   0  0  0  0  0  0  0  0  0  0  0  0
   -2.3350   -1.3980    0.1380 O   0  0  0  0  0  0  0  0  0  0  0  0
   -0.5750    0.1850   -1.4330 C   0  0  2  0  0  0  0  0  0  0  0  0
   -0.6540   -1.1910   -1.6120 O   0  0  0  0  0  0  0  0  0  0  0  0
    0.7500    0.5940   -1.3090 O   0  0  0  0  0  0  0  0  0  0  0  0
  1  2  1  0
  3  2  1  6
  3  4  1  0
  3 11  1  0
  4  5  1  0
  5  6  1  6
  5  7  1  0
  5  9  1  0
  7  8  1  0
  9 10  1  1
  9 11  1  0
M  END
