
     RDKit          3D

 20 20  0  0  0  0  0  0  0  0999 V2000
    2.0670   -0.5940   -1.4040 O   0  0  0  0  0  0  0  0  0  0  0  0
    2.1790    0.1140   -0.4040 C   0  0  0  0  0  0  0  0  0  0  0  0
    1.1140    0.9210    0.0460 N   0  0  0  0  0  0  0  0  0  0  0  0
   -0.1870    1.0360   -0.5380 C   0  0  0  0  0  0  0  0  0  0  0  0
   -0.9750   -0.2300   -0.5230 C   0  0  1  0  0  0  0  0  0  0  0  0
   -0.3300   -1.2150   -1.2440 O   0  0  0  0  0  0  0  0  0  0  0  0
   -1.1360   -0.6360    0.9280 C   0  0  0  0  0  0  0  0  0  0  0  0
   -2.4160   -0.2080    1.5330 C   0  0  1  0  0  0  0  0  0  0  0  0
   -2.1700    0.0610    2.9020 O   0  0  0  0  0  0  0  0  0  0  0  0
   -3.0530    1.0070    0.9600 C   0  0  0  0  0  0  0  0  0  0  0  0
   -2.9990    1.1270   -0.5230 C   0  0  0  0  0  0  0  0  0  0  0  0
   -2.3460   -0.0650   -1.1530 C   0  0  2  0  0  0  0  0  0  0  0  0
   -3.1080   -1.1790   -0.7910 O   0  0  0  0  0  0  0  0  0  0  0  0
   -2.2680    0.0250   -2.6040 C   0  0  0  0  0  0  0  0  0  0  0  0
   -1.6460    0.9520   -3.1650 O   0  0  0  0  0  0  0  0  0  0  0  0
   -2.8880   -0.9240   -3.3980 O   0  0  0  0  0  0  0  0  0  0  0  0
    3.3970    0.0980    0.2810 O   0  0  0  0  0  0  0  0  0  0  0  0
    4.4800   -0.7130   -0.1630 C   0  0  0  0  0  0  0  0  0  0  0  0
    5.6480   -0.5120    0.7780 C   0  0  0  0  0  0  0  0  0  0  0  0
    6.0480    0.8190    0.7950 O   0  0  0  0  0  0  0  0  0  0  0  0
  1  2  2  0
  2  3  1  0
  2 17  1  0
  3  4  1  0
  4  5  1  0
  5  6  1  6
  5  7  1  0
  5 12  1  0
  7  8  1  0
  8  9  1  1
  8 10  1  0
 10 11  1  0
 11 12  1  0
 12 13  1  6
 12 14  1  0
 14 15  2  0
 14 16  1  0
 17 18  1  0
 18 19  1  0
 19 20  1  0
M  END
