
     RDKit          3D

 20 20  0  0  0  0  0  0  0  0999 V2000
    5.6440    0.6090   -0.6010 O   0  0  0  0  0  0  0  0  0  0  0  0
    5.2800   -0.3930    0.0930 C   0  0  0  0  0  0  0  0  0  0  0  0
    3.9070   -0.4530    0.4360 N   0  0  0  0  0  0  0  0  0  0  0  0
    2.9620    0.5390    0.0400 C   0  0  0  0  0  0  0  0  0  0  0  0
    1.5590    0.2750    0.5150 C   0  0  1  0  0  0  0  0  0  0  0  0
    1.6250    0.2390    1.9290 O   0  0  0  0  0  0  0  0  0  0  0  0
    0.7810    1.5430    0.1890 C   0  0  0  0  0  0  0  0  0  0  0  0
   -0.6820    1.1870    0.4720 C   0  0  0  0  0  0  0  0  0  0  0  0
   -1.0560    0.3650   -0.7700 C   0  0  2  0  0  0  0  0  0  0  0  0
   -0.9320    1.2390   -1.8490 O   0  0  0  0  0  0  0  0  0  0  0  0
   -2.5300    0.0420   -0.6310 C   0  0  0  0  0  0  0  0  0  0  0  0
   -2.7890   -0.8180    0.4040 O   0  0  0  0  0  0  0  0  0  0  0  0
   -4.1440   -1.0870    0.4680 C   0  0  0  0  0  0  0  0  0  0  0  0
   -5.0140    0.1170    0.6900 C   0  0  0  0  0  0  0  0  0  0  0  0
   -6.3700   -0.2870    0.7400 O   0  0  0  0  0  0  0  0  0  0  0  0
   -0.1920   -0.8160   -0.9520 C   0  0  2  0  0  0  0  0  0  0  0  0
   -1.0180   -1.9640   -0.8840 O   0  0  0  0  0  0  0  0  0  0  0  0
    0.9590   -0.9570   -0.0200 C   0  0  0  0  0  0  0  0  0  0  0  0
    6.2220   -1.3190    0.4490 O   0  0  0  0  0  0  0  0  0  0  0  0
    7.5270   -1.2150    0.0940 O   0  0  0  0  0  0  0  0  0  0  0  0
  1  2  2  0
  2  3  1  0
  2 19  1  0
  3  4  1  0
  4  5  1  0
  5  6  1  1
  5  7  1  0
  5 18  1  0
  7  8  1  0
  8  9  1  0
  9 10  1  6
  9 11  1  0
  9 16  1  0
 11 12  1  0
 12 13  1  0
 13 14  1  0
 14 15  1  0
 16 17  1  1
 16 18  1  0
 19 20  1  0
M  END
