
     RDKit          3D

 19 19  0  0  0  0  0  0  0  0999 V2000
    0.6330    0.2730   -2.6180 C   0  0  0  0  0  0  0  0  0  0  0  0
    0.1530    0.1120   -1.0920 C   0  0  1  0  0  0  0  0  0  0  0  0
   -0.0820   -1.2570   -1.0610 O   0  0  0  0  0  0  0  0  0  0  0  0
    1.3520    0.5650   -0.3120 C   0  0  2  0  0  0  0  0  0  0  0  0
    2.6680    0.1420   -0.9920 C   0  0  0  0  0  0  0  0  0  0  0  0
    3.7300    0.4620   -0.1430 O   0  0  0  0  0  0  0  0  0  0  0  0
    3.6670   -0.2760    1.0110 C   0  0  2  0  0  0  0  0  0  0  0  0
    3.8990   -1.6840    0.7500 N   0  0  0  0  0  0  0  0  0  0  0  0
    2.3930    0.0250    1.7160 C   0  0  0  0  0  0  0  0  0  0  0  0
    1.2720    0.1610    0.9690 O   0  0  0  0  0  0  0  0  0  0  0  0
   -1.0770    0.8770   -1.0420 C   0  0  1  0  0  0  0  0  0  0  0  0
   -1.7880    0.5180   -2.2530 O   0  0  0  0  0  0  0  0  0  0  0  0
   -2.1150    0.7370    0.0000 C   0  0  2  0  0  0  0  0  0  0  0  0
   -1.7610    0.9920    1.4080 C   0  0  0  0  0  0  0  0  0  0  0  0
   -2.9360    0.8530    2.1940 O   0  0  0  0  0  0  0  0  0  0  0  0
   -2.8640   -0.5880   -0.1130 C   0  0  0  0  0  0  0  0  0  0  0  0
   -3.9080   -0.6920    0.9270 C   0  0  0  0  0  0  0  0  0  0  0  0
   -4.9570    0.0420    0.8540 O   0  0  0  0  0  0  0  0  0  0  0  0
   -3.8490   -1.5510    2.0140 O   0  0  0  0  0  0  0  0  0  0  0  0
  2  1  1  6
  2  3  1  0
  2  4  1  0
  2 11  1  0
  4  5  1  6
  4 10  1  0
  5  6  1  0
  6  7  1  0
  7  8  1  6
  7  9  1  0
  9 10  1  0
 11 12  1  6
 11 13  1  0
 13 14  1  1
 13 16  1  0
 14 15  1  0
 16 17  1  0
 17 18  2  0
 17 19  1  0
M  END
