
     RDKit          3D

 20 20  0  0  0  0  0  0  0  0999 V2000
    1.1450    4.4450   -0.7420 C   0  0  0  0  0  0  0  0  0  0  0  0
    0.8710    3.0730   -0.8970 O   0  0  0  0  0  0  0  0  0  0  0  0
    0.4610    2.2490    0.1280 C   0  0  0  0  0  0  0  0  0  0  0  0
    0.3160    2.7230    1.2730 O   0  0  0  0  0  0  0  0  0  0  0  0
    0.2020    0.8240   -0.1500 C   0  0  2  0  0  0  0  0  0  0  0  0
    1.4510    0.2320   -0.6360 C   0  0  0  0  0  0  0  0  0  0  0  0
    2.0540    0.6510   -1.6600 O   0  0  0  0  0  0  0  0  0  0  0  0
    2.0260   -0.8610    0.0590 N   0  0  0  0  0  0  0  0  0  0  0  0
    3.2430   -1.4960   -0.3510 C   0  0  0  0  0  0  0  0  0  0  0  0
    3.6060   -2.6260    0.5810 C   0  0  0  0  0  0  0  0  0  0  0  0
    3.7730   -2.1020    1.8820 O   0  0  0  0  0  0  0  0  0  0  0  0
   -0.9080    0.7750   -1.1820 C   0  0  0  0  0  0  0  0  0  0  0  0
   -2.2130    0.9170   -0.4280 C   0  0  0  0  0  0  0  0  0  0  0  0
   -2.4210   -0.3370    0.4200 C   0  0  1  0  0  0  0  0  0  0  0  0
   -2.9040   -0.0510    1.6750 O   0  0  0  0  0  0  0  0  0  0  0  0
   -3.2950   -1.2680   -0.3750 C   0  0  0  0  0  0  0  0  0  0  0  0
   -3.4690   -2.4960    0.2330 O   0  0  0  0  0  0  0  0  0  0  0  0
   -1.0180   -0.9300    0.6090 C   0  0  2  0  0  0  0  0  0  0  0  0
   -1.0380   -1.9010    1.6140 O   0  0  0  0  0  0  0  0  0  0  0  0
   -0.2040    0.1340    0.9940 O   0  0  0  0  0  0  0  0  0  0  0  0
  1  2  1  0
  2  3  1  0
  3  4  2  0
  5  3  1  1
  5  6  1  0
  5 12  1  0
  5 20  1  0
  6  7  2  0
  6  8  1  0
  8  9  1  0
  9 10  1  0
 10 11  1  0
 12 13  1  0
 13 14  1  0
 14 15  1  1
 14 16  1  0
 14 18  1  0
 16 17  1  0
 18 19  1  1
 18 20  1  0
M  END
