
     RDKit          3D

 41 41  0  0  0  0  0  0  0  0999 V2000
    8.1850    0.9490   -2.4940 C   0  0  0  0  0  0  0  0  0  0  0  0
    8.3600    1.9680   -1.7100 C   0  0  0  0  0  0  0  0  0  0  0  0
    7.6950    2.0380   -0.4300 C   0  0  0  0  0  0  0  0  0  0  0  0
    7.9160    3.1310    0.3080 C   0  0  0  0  0  0  0  0  0  0  0  0
    7.2630    3.2610    1.6270 C   0  0  0  0  0  0  0  0  0  0  0  0
    6.8900    1.0890    0.0570 O   0  0  0  0  0  0  0  0  0  0  0  0
    5.7410    0.5980   -0.4840 C   0  0  0  0  0  0  0  0  0  0  0  0
    5.5470   -0.6880   -0.6370 C   0  0  0  0  0  0  0  0  0  0  0  0
    6.4410   -1.7660   -0.2860 C   0  0  0  0  0  0  0  0  0  0  0  0
    7.7460   -1.5620    0.3420 C   0  0  0  0  0  0  0  0  0  0  0  0
    6.0830   -3.0410   -0.5250 C   0  0  0  0  0  0  0  0  0  0  0  0
    6.9110   -4.1390   -0.2060 N   0  0  0  0  0  0  0  0  0  0  0  0
    4.7130    1.5980   -0.8800 C   0  0  0  0  0  0  0  0  0  0  0  0
    3.5290    0.8990   -1.3090 N   0  0  0  0  0  0  0  0  0  0  0  0
    2.7590    0.0980   -0.4170 C   0  0  0  0  0  0  0  0  0  0  0  0
    3.1070    0.0590    0.7850 O   0  0  0  0  0  0  0  0  0  0  0  0
    1.6470   -0.6490   -0.8100 N   0  0  0  0  0  0  0  0  0  0  0  0
    0.8400   -1.4940    0.0840 C   0  0  0  0  0  0  0  0  0  0  0  0
   -0.2340   -2.1940   -0.6860 C   0  0  0  0  0  0  0  0  0  0  0  0
   -1.1490   -1.4560   -1.3070 O   0  0  0  0  0  0  0  0  0  0  0  0
   -2.1210   -0.8210   -0.3630 C   0  0  2  0  0  0  0  0  0  0  0  0
   -3.1970   -1.9280   -0.5890 C   0  0  0  0  0  0  0  0  0  0  0  0
   -4.4200   -1.8660    0.1660 C   0  0  0  0  0  0  0  0  0  0  0  0
   -4.5510   -1.1820    1.1780 O   0  0  0  0  0  0  0  0  0  0  0  0
   -5.5400   -2.6020   -0.2330 O   0  0  0  0  0  0  0  0  0  0  0  0
   -6.7830   -2.6630    0.3510 C   0  0  1  0  0  0  0  0  0  0  0  0
   -7.5170   -1.3260    0.4120 C   0  0  0  0  0  0  0  0  0  0  0  0
   -7.6380   -3.5610   -0.5700 C   0  0  0  0  0  0  0  0  0  0  0  0
   -6.7770   -3.3290    1.7110 C   0  0  0  0  0  0  0  0  0  0  0  0
   -2.4540    0.4590   -0.9590 C   0  0  2  0  0  0  0  0  0  0  0  0
   -0.9920    1.1280   -1.1430 C   0  0  0  0  0  0  0  0  0  0  0  0
   -3.1770    1.5940   -0.4480 C   0  0  2  0  0  0  0  0  0  0  0  0
   -2.6380    2.2930    0.7250 N   0  0  0  0  0  0  0  0  0  0  0  0
   -2.8950    3.7240    0.7160 C   0  0  0  0  0  0  0  0  0  0  0  0
   -2.1820    4.5210    1.4160 O   0  0  0  0  0  0  0  0  0  0  0  0
   -3.9710    4.1620   -0.1060 N   0  0  0  0  0  0  0  0  0  0  0  0
   -4.7780    3.2560   -0.8890 C   0  0  0  0  0  0  0  0  0  0  0  0
   -5.4890    3.5840   -1.8170 O   0  0  0  0  0  0  0  0  0  0  0  0
   -4.6350    1.7800   -0.4030 C   0  0  2  0  0  0  0  0  0  0  0  0
   -5.2600    1.9560    0.9910 C   0  0  0  0  0  0  0  0  0  0  0  0
   -6.7790    2.1160    0.8300 C   0  0  0  0  0  0  0  0  0  0  0  0
  1  2  2  0
  2  3  1  0
  3  4  2  3
  3  6  1  0
  4  5  1  0
  6  7  1  0
  7  8  2  3
  7 13  1  0
  8  9  1  0
  9 10  1  0
  9 11  2  3
 11 12  1  0
 13 14  1  0
 14 15  1  0
 15 16  2  0
 15 17  1  0
 17 18  1  0
 18 19  1  0
 19 20  1  0
 20 21  1  0
 21 22  1  6
 21 30  1  0
 22 23  1  0
 23 24  2  0
 23 25  1  0
 25 26  1  0
 26 27  1  1
 26 28  1  0
 26 29  1  0
 30 31  1  1
 30 32  1  0
 32 33  1  1
 32 39  1  0
 33 34  1  0
 34 35  2  0
 34 36  1  0
 36 37  1  0
 37 38  2  0
 37 39  1  0
 39 40  1  1
 40 41  1  0
M  END
