
     RDKit          3D

 41 42  0  0  0  0  0  0  0  0999 V2000
    1.2160   -3.7660    2.7460 C   0  0  0  0  0  0  0  0  0  0  0  0
    0.6480   -2.7220    1.8420 C   0  0  0  0  0  0  0  0  0  0  0  0
    1.0510   -2.9380    0.3790 C   0  0  1  0  0  0  0  0  0  0  0  0
    2.5940   -2.8640    0.4320 C   0  0  0  0  0  0  0  0  0  0  0  0
    0.7260   -4.3320   -0.0180 C   0  0  0  0  0  0  0  0  0  0  0  0
    0.4880   -1.8300   -0.4340 C   0  0  2  0  0  0  0  0  0  0  0  0
    0.8250   -1.9740   -1.9150 C   0  0  0  0  0  0  0  0  0  0  0  0
    0.2320   -0.8510   -2.6200 N   0  0  0  0  0  0  0  0  0  0  0  0
    1.1020   -0.4710   -0.0560 C   0  0  0  0  0  0  0  0  0  0  0  0
    2.4570   -0.5340   -0.1720 O   0  0  0  0  0  0  0  0  0  0  0  0
    3.1190    0.6220    0.1380 C   0  0  0  0  0  0  0  0  0  0  0  0
    4.6170    0.4040   -0.0390 C   0  0  1  0  0  0  0  0  0  0  0  0
    4.8660    0.0560   -1.3560 O   0  0  0  0  0  0  0  0  0  0  0  0
    5.2940    1.6860    0.3690 C   0  0  0  0  0  0  0  0  0  0  0  0
    6.7240    1.6440    0.2480 N   0  0  0  0  0  0  0  0  0  0  0  0
    7.3960    2.0350   -0.9690 C   0  0  0  0  0  0  0  0  0  0  0  0
    8.5630    2.9000   -0.6200 C   0  0  0  0  0  0  0  0  0  0  0  0
    9.5340    2.2520    0.3170 C   0  0  0  0  0  0  0  0  0  0  0  0
    8.9130    1.6770    1.5470 C   0  0  1  0  0  0  0  0  0  0  0  0
    8.9100    2.7740    2.6180 C   0  0  0  0  0  0  0  0  0  0  0  0
    8.1490    3.8310    2.0860 O   0  0  0  0  0  0  0  0  0  0  0  0
    7.5140    1.2120    1.3410 C   0  0  0  0  0  0  0  0  0  0  0  0
    7.0550    0.4060    2.1920 O   0  0  0  0  0  0  0  0  0  0  0  0
   -0.9330   -1.6410   -0.3090 N   0  0  0  0  0  0  0  0  0  0  0  0
   -1.9450   -2.5200   -0.7570 C   0  0  0  0  0  0  0  0  0  0  0  0
   -1.6460   -3.5770   -1.3370 O   0  0  0  0  0  0  0  0  0  0  0  0
   -3.3290   -2.2450   -0.5710 N   0  0  0  0  0  0  0  0  0  0  0  0
   -4.3680   -3.1420   -1.0230 C   0  0  0  0  0  0  0  0  0  0  0  0
   -5.2490   -2.4550   -2.0480 C   0  0  0  0  0  0  0  0  0  0  0  0
   -5.3480   -0.9620   -1.7430 C   0  0  0  0  0  0  0  0  0  0  0  0
   -5.1930   -0.7980   -0.2660 C   0  0  2  0  0  0  0  0  0  0  0  0
   -5.6800    0.5320    0.2050 C   0  0  0  0  0  0  0  0  0  0  0  0
   -4.9030    1.3120    0.7890 O   0  0  0  0  0  0  0  0  0  0  0  0
   -7.0250    0.9450    0.0070 N   0  0  0  0  0  0  0  0  0  0  0  0
   -7.5580    2.2020    0.4310 C   0  0  1  0  0  0  0  0  0  0  0  0
   -7.4690    2.4150    1.9270 C   0  0  0  0  0  0  0  0  0  0  0  0
   -6.8730    3.3820   -0.2210 C   0  0  0  0  0  0  0  0  0  0  0  0
   -7.0010    3.3530   -1.7290 C   0  0  0  0  0  0  0  0  0  0  0  0
   -9.0250    2.2490    0.0580 C   0  0  0  0  0  0  0  0  0  0  0  0
   -9.6270    3.4460    0.4370 O   0  0  0  0  0  0  0  0  0  0  0  0
   -3.7480   -1.0260    0.0930 C   0  0  0  0  0  0  0  0  0  0  0  0
  1  2  1  0
  2  3  1  0
  3  4  1  1
  3  5  1  0
  3  6  1  0
  6  7  1  6
  6  9  1  0
  6 24  1  0
  7  8  1  0
  9 10  1  0
 10 11  1  0
 11 12  1  0
 12 13  1  6
 12 14  1  0
 14 15  1  0
 15 16  1  0
 15 22  1  0
 16 17  1  0
 17 18  1  0
 18 19  1  0
 19 20  1  1
 19 22  1  0
 20 21  1  0
 22 23  2  0
 24 25  1  0
 25 26  2  0
 25 27  1  0
 27 28  1  0
 27 41  1  0
 28 29  1  0
 29 30  1  0
 30 31  1  0
 31 32  1  6
 31 41  1  0
 32 33  2  0
 32 34  1  0
 34 35  1  0
 35 36  1  1
 35 37  1  0
 35 39  1  0
 37 38  1  0
 39 40  1  0
M  CHG  1   8   1
M  END
