
     RDKit          3D

 41 42  0  0  0  0  0  0  0  0999 V2000
    0.0230   -1.1440    2.8150 C   0  0  0  0  0  0  0  0  0  0  0  0
   -0.4800   -0.3610    1.6970 C   0  0  1  0  0  0  0  0  0  0  0  0
   -0.3830    1.1500    2.0010 C   0  0  0  0  0  0  0  0  0  0  0  0
    0.0380   -0.5300    0.3280 C   0  0  2  0  0  0  0  0  0  0  0  0
   -0.0520   -1.7290   -0.3620 N   0  0  0  0  0  0  0  0  0  0  0  0
   -1.1830   -2.5540   -0.4220 C   0  0  2  0  0  0  0  0  0  0  0  0
   -2.5380   -2.1500   -0.4660 C   0  0  0  0  0  0  0  0  0  0  0  0
   -3.3340   -2.9360    0.2370 O   0  0  0  0  0  0  0  0  0  0  0  0
   -3.3010   -1.1290   -1.0630 N   0  0  0  0  0  0  0  0  0  0  0  0
   -4.7520   -1.0620   -0.8140 C   0  0  0  0  0  0  0  0  0  0  0  0
   -5.2750   -0.4450    0.3750 C   0  0  0  0  0  0  0  0  0  0  0  0
   -5.2400    0.7540    0.8880 O   0  0  0  0  0  0  0  0  0  0  0  0
   -5.7110    1.8870    0.3900 C   0  0  1  0  0  0  0  0  0  0  0  0
   -7.2390    2.0110    0.9110 C   0  0  0  0  0  0  0  0  0  0  0  0
   -7.2040    2.0230    2.2830 O   0  0  0  0  0  0  0  0  0  0  0  0
   -5.1520    3.1260    0.9380 C   0  0  0  0  0  0  0  0  0  0  0  0
   -3.6900    3.3730    0.8070 C   0  0  0  0  0  0  0  0  0  0  0  0
   -3.3900    4.6000    1.4410 O   0  0  0  0  0  0  0  0  0  0  0  0
   -2.7810   -0.2180   -2.0500 C   0  0  1  0  0  0  0  0  0  0  0  0
   -3.4320   -0.4740   -3.4170 C   0  0  0  0  0  0  0  0  0  0  0  0
   -2.8660    1.2340   -1.6980 C   0  0  0  0  0  0  0  0  0  0  0  0
   -0.9310   -3.6840    0.6060 C   0  0  0  0  0  0  0  0  0  0  0  0
   -1.5620   -4.9260    0.0970 C   0  0  0  0  0  0  0  0  0  0  0  0
   -1.7200   -4.7120   -1.3660 C   0  0  0  0  0  0  0  0  0  0  0  0
   -1.0130   -3.4570   -1.7240 C   0  0  0  0  0  0  0  0  0  0  0  0
    1.4300    0.0290    0.1870 C   0  0  0  0  0  0  0  0  0  0  0  0
    1.4250    1.2460   -0.2810 O   0  0  0  0  0  0  0  0  0  0  0  0
    2.6590   -0.5020    0.4580 N   0  0  0  0  0  0  0  0  0  0  0  0
    3.0140   -1.7460    1.0490 C   0  0  0  0  0  0  0  0  0  0  0  0
    3.8930   -2.5650    0.0900 C   0  0  0  0  0  0  0  0  0  0  0  0
    5.1250   -1.7530   -0.1250 C   0  0  0  0  0  0  0  0  0  0  0  0
    5.0780   -0.3570    0.4050 C   0  0  1  0  0  0  0  0  0  0  0  0
    6.2150    0.4330   -0.1940 C   0  0  0  0  0  0  0  0  0  0  0  0
    7.0160   -0.1440   -0.9590 O   0  0  0  0  0  0  0  0  0  0  0  0
    6.3610    1.8100    0.1150 N   0  0  0  0  0  0  0  0  0  0  0  0
    7.4760    2.5280   -0.4880 C   0  0  1  0  0  0  0  0  0  0  0  0
    6.9410    3.6710   -1.3370 C   0  0  0  0  0  0  0  0  0  0  0  0
    8.3340    3.0740    0.5830 C   0  0  0  0  0  0  0  0  0  0  0  0
    9.4850    3.8140    0.2460 N   0  0  0  0  0  0  0  0  0  0  0  0
    8.0480    2.8850    1.7810 O   0  0  0  0  0  0  0  0  0  0  0  0
    3.8180    0.3210    0.0560 C   0  0  0  0  0  0  0  0  0  0  0  0
  2  1  1  1
  2  3  1  0
  2  4  1  0
  4  5  1  1
  4 26  1  0
  6  5  1  6
  6  7  1  0
  6 22  1  0
  6 25  1  0
  7  8  2  0
  7  9  1  0
  9 10  1  0
  9 19  1  0
 10 11  1  0
 11 12  1  0
 12 13  1  0
 13 14  1  1
 13 16  1  0
 14 15  1  0
 16 17  1  0
 17 18  1  0
 19 20  1  6
 19 21  1  0
 22 23  1  0
 23 24  1  0
 24 25  1  0
 26 27  2  0
 26 28  1  0
 28 29  1  0
 28 41  1  0
 29 30  1  0
 30 31  1  0
 31 32  1  0
 32 33  1  6
 32 41  1  0
 33 34  2  0
 33 35  1  0
 35 36  1  0
 36 37  1  1
 36 38  1  0
 38 39  1  0
 38 40  2  0
M  CHG  1   5   1
M  END
