
     RDKit          3D

 46 48  0  0  0  0  0  0  0  0999 V2000
   -6.4040    4.4130   -0.9590 C   0  0  0  0  0  0  0  0  0  0  0  0
   -5.4270    3.5670   -0.1400 C   0  0  0  0  0  0  0  0  0  0  0  0
   -4.6720    2.6740   -1.0250 O   0  0  0  0  0  0  0  0  0  0  0  0
   -5.6160    1.6910   -1.5310 C   0  0  0  0  0  0  0  0  0  0  0  0
   -6.6640    1.4980   -1.4360 O   0  0  0  0  0  0  0  0  0  0  0  0
   -4.7180    0.7120   -2.4550 C   0  0  0  0  0  0  0  0  0  0  0  0
   -4.4030   -0.3370   -1.5000 N   0  0  0  0  0  0  0  0  0  0  0  0
   -5.0640   -1.5400   -1.4550 C   0  0  0  0  0  0  0  0  0  0  0  0
   -6.1370   -1.9050   -0.5460 C   0  0  0  0  0  0  0  0  0  0  0  0
   -7.2570   -1.6210   -0.1810 O   0  0  0  0  0  0  0  0  0  0  0  0
   -8.0880   -0.7180    0.5740 C   0  0  0  0  0  0  0  0  0  0  0  0
   -7.9350    0.3190    1.1180 C   0  0  0  0  0  0  0  0  0  0  0  0
   -9.0850    1.0320    1.9020 C   0  0  0  0  0  0  0  0  0  0  0  0
  -10.2120    0.3780    1.8940 C   0  0  0  0  0  0  0  0  0  0  0  0
  -10.2630   -0.8480    1.2170 C   0  0  0  0  0  0  0  0  0  0  0  0
   -9.5860   -1.5570    0.6060 C   0  0  0  0  0  0  0  0  0  0  0  0
   -9.1330   -2.6210   -0.1070 O   0  0  0  0  0  0  0  0  0  0  0  0
   -9.5010   -3.8180   -0.5670 C   0  0  0  0  0  0  0  0  0  0  0  0
   -9.9390   -4.6730    0.6540 C   0  0  0  0  0  0  0  0  0  0  0  0
   -3.2540   -0.2740   -0.6230 C   0  0  0  0  0  0  0  0  0  0  0  0
   -2.9280   -0.9140    0.2840 O   0  0  0  0  0  0  0  0  0  0  0  0
   -2.2990    0.8600   -0.9940 N   0  0  0  0  0  0  0  0  0  0  0  0
   -1.1270    0.9260   -0.1090 C   0  0  0  0  0  0  0  0  0  0  0  0
   -1.3920    1.5050    1.1020 C   0  0  0  0  0  0  0  0  0  0  0  0
   -0.2490    1.5020    2.0780 C   0  0  0  0  0  0  0  0  0  0  0  0
    0.7490    0.9280    1.5330 C   0  0  0  0  0  0  0  0  0  0  0  0
    1.1890    0.3080    0.4170 C   0  0  0  0  0  0  0  0  0  0  0  0
    2.4260   -0.1960   -0.0140 C   0  0  0  0  0  0  0  0  0  0  0  0
    2.8570   -1.2750   -0.2790 O   0  0  0  0  0  0  0  0  0  0  0  0
    3.4090    0.8830   -0.1330 N   0  0  0  0  0  0  0  0  0  0  0  0
    4.7610    0.8810   -0.4300 C   0  0  0  0  0  0  0  0  0  0  0  0
    5.5720    2.5780   -0.1650 S   0  0  0  0  0  0  0  0  0  0  0  0
    7.3560    1.8200   -0.5970 C   0  0  0  0  0  0  0  0  0  0  0  0
    8.3940    2.8360   -0.4870 C   0  0  0  0  0  0  0  0  0  0  0  0
    6.9690    0.6040   -0.8120 C   0  0  0  0  0  0  0  0  0  0  0  0
    8.1380   -0.4410   -0.6320 C   0  0  0  0  0  0  0  0  0  0  0  0
    9.2170   -0.2540   -1.5780 C   0  0  0  0  0  0  0  0  0  0  0  0
   10.3900   -1.2590   -1.1990 C   0  0  0  0  0  0  0  0  0  0  0  0
   10.7960   -1.0090    0.2010 C   0  0  1  0  0  0  0  0  0  0  0  0
   11.1980    0.3960    0.5550 C   0  0  0  0  0  0  0  0  0  0  0  0
   10.2370   -1.8390    1.3140 C   0  0  0  0  0  0  0  0  0  0  0  0
   10.6520   -1.3860    2.6320 N   0  0  0  0  0  0  0  0  0  0  0  0
    5.7580    0.1950   -0.7380 C   0  0  0  0  0  0  0  0  0  0  0  0
    5.5260   -1.1790   -1.3810 C   0  0  0  0  0  0  0  0  0  0  0  0
    5.3160   -2.3210   -1.9000 N   0  0  0  0  0  0  0  0  0  0  0  0
    0.0150    0.3560   -0.5120 C   0  0  0  0  0  0  0  0  0  0  0  0
  1  2  1  0
  2  3  1  0
  3  4  1  0
  4  5  2  0
  4  6  1  0
  6  7  1  0
  7  8  1  0
  7 20  1  0
  8  9  1  0
  9 10  1  0
 10 11  1  0
 11 12  2  0
 11 16  1  0
 12 13  1  0
 13 14  2  0
 14 15  1  0
 15 16  2  0
 16 17  1  0
 17 18  1  0
 18 19  1  0
 20 21  2  0
 20 22  1  0
 22 23  1  0
 23 24  2  0
 23 46  1  0
 24 25  1  0
 25 26  2  0
 26 27  1  0
 27 28  1  0
 27 46  2  0
 28 29  2  0
 28 30  1  0
 30 31  1  0
 31 32  1  0
 31 43  2  0
 32 33  1  0
 33 34  1  0
 33 35  2  0
 35 36  1  0
 35 43  1  0
 36 37  1  0
 37 38  1  0
 38 39  1  0
 39 40  1  1
 39 41  1  0
 41 42  1  0
 43 44  1  0
 44 45  3  0
M  END
