
     RDKit          3D

 47 50  0  0  0  0  0  0  0  0999 V2000
    7.8100    5.4220    1.5060 C   0  0  0  0  0  0  0  0  0  0  0  0
    7.1260    4.7140    0.5180 O   0  0  0  0  0  0  0  0  0  0  0  0
    6.9380    3.3530    0.6020 C   0  0  0  0  0  0  0  0  0  0  0  0
    7.4310    2.6610    1.6880 C   0  0  0  0  0  0  0  0  0  0  0  0
    7.2250    1.3000    1.7390 C   0  0  0  0  0  0  0  0  0  0  0  0
    6.5500    0.6210    0.7480 C   0  0  0  0  0  0  0  0  0  0  0  0
    6.0670    1.3180   -0.3250 C   0  0  0  0  0  0  0  0  0  0  0  0
    5.3380    0.6220   -1.4230 C   0  0  0  0  0  0  0  0  0  0  0  0
    3.9160    0.6780   -1.3120 N   0  0  0  0  0  0  0  0  0  0  0  0
    3.2850   -0.2330   -0.4250 C   0  0  0  0  0  0  0  0  0  0  0  0
    3.3390   -1.6780   -0.7860 C   0  0  1  0  0  0  0  0  0  0  0  0
    4.6110   -2.1850   -0.8390 O   0  0  0  0  0  0  0  0  0  0  0  0
    2.3980   -2.4560    0.0640 C   0  0  2  0  0  0  0  0  0  0  0  0
    2.2700   -3.9030   -0.3700 C   0  0  0  0  0  0  0  0  0  0  0  0
    1.7930   -4.0990   -1.7330 C   0  0  0  0  0  0  0  0  0  0  0  0
    2.6900   -4.1830   -2.7660 C   0  0  0  0  0  0  0  0  0  0  0  0
    2.3020   -4.3750   -4.0840 C   0  0  0  0  0  0  0  0  0  0  0  0
    0.9750   -4.4850   -4.3690 C   0  0  0  0  0  0  0  0  0  0  0  0
    0.0330   -4.4050   -3.3480 C   0  0  0  0  0  0  0  0  0  0  0  0
    0.4560   -4.2120   -2.0400 C   0  0  0  0  0  0  0  0  0  0  0  0
    1.0580   -1.9150    0.1130 N   0  0  0  0  0  0  0  0  0  0  0  0
    0.3210   -1.8380    1.3240 C   0  0  0  0  0  0  0  0  0  0  0  0
    0.8180   -2.2510    2.3950 O   0  0  0  0  0  0  0  0  0  0  0  0
   -1.0240   -1.2820    1.3490 C   0  0  0  0  0  0  0  0  0  0  0  0
   -1.3580   -0.1550    0.6410 C   0  0  0  0  0  0  0  0  0  0  0  0
   -2.6320    0.3410    0.6600 C   0  0  0  0  0  0  0  0  0  0  0  0
   -2.9230    1.5490   -0.1060 C   0  0  0  0  0  0  0  0  0  0  0  0
   -2.0640    2.0110   -0.8780 O   0  0  0  0  0  0  0  0  0  0  0  0
   -4.1620    2.2180    0.0020 N   0  0  0  0  0  0  0  0  0  0  0  0
   -4.4900    3.4230   -0.7400 C   0  0  2  0  0  0  0  0  0  0  0  0
   -4.7260    4.5990    0.1760 C   0  0  0  0  0  0  0  0  0  0  0  0
   -5.5810    3.1750   -1.6920 C   0  0  0  0  0  0  0  0  0  0  0  0
   -5.5100    3.6860   -2.9830 C   0  0  0  0  0  0  0  0  0  0  0  0
   -6.5200    3.4640   -3.8990 C   0  0  0  0  0  0  0  0  0  0  0  0
   -7.6110    2.7350   -3.5430 C   0  0  0  0  0  0  0  0  0  0  0  0
   -7.7010    2.2220   -2.2730 C   0  0  0  0  0  0  0  0  0  0  0  0
   -6.7010    2.4410   -1.3670 C   0  0  0  0  0  0  0  0  0  0  0  0
   -3.5660   -0.3250    1.4070 C   0  0  0  0  0  0  0  0  0  0  0  0
   -3.2730   -1.4760    2.1430 C   0  0  0  0  0  0  0  0  0  0  0  0
   -4.3110   -2.1010    2.8780 N   0  0  0  0  0  0  0  0  0  0  0  0
   -5.1160   -3.1270    2.2530 C   0  0  0  0  0  0  0  0  0  0  0  0
   -4.6120   -1.6440    4.5020 S   0  0  2  0  0  0  0  0  0  0  0  0
   -3.2070   -1.9720    5.5210 C   0  0  0  0  0  0  0  0  0  0  0  0
   -5.7940   -2.4450    5.0050 O   0  0  0  0  0  0  0  0  0  0  0  0
   -4.9450   -0.1630    4.5850 O   0  0  0  0  0  0  0  0  0  0  0  0
   -1.9860   -1.9430    2.1010 C   0  0  0  0  0  0  0  0  0  0  0  0
    6.2620    2.6800   -0.3930 C   0  0  0  0  0  0  0  0  0  0  0  0
  1  2  1  0
  2  3  1  0
  3  4  2  0
  3 47  1  0
  4  5  1  0
  5  6  2  0
  6  7  1  0
  7  8  1  0
  7 47  2  0
  8  9  1  0
  9 10  1  0
 10 11  1  0
 11 12  1  1
 11 13  1  0
 13 14  1  6
 13 21  1  0
 14 15  1  0
 15 16  2  0
 15 20  1  0
 16 17  1  0
 17 18  2  0
 18 19  1  0
 19 20  2  0
 21 22  1  0
 22 23  2  0
 22 24  1  0
 24 25  2  0
 24 46  1  0
 25 26  1  0
 26 27  1  0
 26 38  2  0
 27 28  2  0
 27 29  1  0
 29 30  1  0
 30 31  1  1
 30 32  1  0
 32 33  2  0
 32 37  1  0
 33 34  1  0
 34 35  2  0
 35 36  1  0
 36 37  2  0
 38 39  1  0
 39 40  1  0
 39 46  2  0
 40 41  1  0
 40 42  1  0
 42 43  1  1
 42 44  2  0
 42 45  2  0
M  CHG  1   9   1
M  END
