
     RDKit          3D

 41 41  0  0  0  0  0  0  0  0999 V2000
    0.1480    3.7740    0.9440 C   0  0  0  0  0  0  0  0  0  0  0  0
   -0.7920    2.6810    1.0940 N   0  0  0  0  0  0  0  0  0  0  0  0
   -1.8730    2.4870    0.1910 C   0  0  0  0  0  0  0  0  0  0  0  0
   -1.9410    3.3490   -0.7580 O   0  0  0  0  0  0  0  0  0  0  0  0
   -2.8540    1.3710    0.3340 C   0  0  2  0  0  0  0  0  0  0  0  0
   -3.7170    1.5570    1.5150 C   0  0  1  0  0  0  0  0  0  0  0  0
   -3.1210    1.6470    2.8540 C   0  0  0  0  0  0  0  0  0  0  0  0
   -4.4820    2.8660    1.2650 C   0  0  0  0  0  0  0  0  0  0  0  0
   -5.4310    3.2190    2.3540 C   0  0  2  0  0  0  0  0  0  0  0  0
   -6.4650    2.1240    2.4890 C   0  0  0  0  0  0  0  0  0  0  0  0
   -6.1670    4.4020    1.8760 N   0  0  0  0  0  0  0  0  0  0  0  0
   -2.2610    0.0550    0.0410 C   0  0  1  0  0  0  0  0  0  0  0  0
   -1.1690   -0.4060    0.8150 N   0  0  0  0  0  0  0  0  0  0  0  0
    0.1510   -0.5090    0.3050 C   0  0  0  0  0  0  0  0  0  0  0  0
    0.4230   -0.1810   -0.9020 O   0  0  0  0  0  0  0  0  0  0  0  0
    1.2350   -1.0040    1.1810 C   0  0  0  0  0  0  0  0  0  0  0  0
    0.9550   -1.3460    2.3400 O   0  0  0  0  0  0  0  0  0  0  0  0
    2.5690   -1.0930    0.7240 N   0  0  0  0  0  0  0  0  0  0  0  0
    3.6890   -1.5540    1.4450 C   0  0  0  0  0  0  0  0  0  0  0  0
    3.5570   -2.2670    2.6150 C   0  0  0  0  0  0  0  0  0  0  0  0
    4.6560   -2.7890    3.3070 C   0  0  0  0  0  0  0  0  0  0  0  0
    5.9020   -2.5710    2.7820 C   0  0  0  0  0  0  0  0  0  0  0  0
    6.0370   -1.8470    1.5930 C   0  0  0  0  0  0  0  0  0  0  0  0
    4.9630   -1.3310    0.9090 C   0  0  0  0  0  0  0  0  0  0  0  0
    5.0770   -0.5500   -0.2570 N   0  0  0  0  0  0  0  0  0  0  0  0
    6.2990   -0.3570   -0.9750 C   0  0  0  0  0  0  0  0  0  0  0  0
    7.3730   -0.8660   -0.6390 O   0  0  0  0  0  0  0  0  0  0  0  0
    6.3450    0.4350   -2.1220 O   0  0  0  0  0  0  0  0  0  0  0  0
    7.4960    0.6730   -2.8750 C   0  0  2  0  0  0  0  0  0  0  0  0
    8.6190    1.3330   -2.1480 C   0  0  0  0  0  0  0  0  0  0  0  0
    7.2120    1.4530   -4.1370 C   0  0  0  0  0  0  0  0  0  0  0  0
    8.0260   -0.6910   -3.3430 C   0  0  0  0  0  0  0  0  0  0  0  0
   -3.3280   -1.0710   -0.0690 C   0  0  2  0  0  0  0  0  0  0  0  0
   -2.6170   -2.3520   -0.3570 C   0  0  0  0  0  0  0  0  0  0  0  0
   -3.4270   -3.5690   -0.4730 C   0  0  1  0  0  0  0  0  0  0  0  0
   -4.4250   -3.5670   -1.5750 C   0  0  0  0  0  0  0  0  0  0  0  0
   -2.4580   -4.7510   -0.7080 C   0  0  0  0  0  0  0  0  0  0  0  0
   -3.2180   -5.9390   -0.8230 O   0  0  0  0  0  0  0  0  0  0  0  0
   -4.3730   -0.6790   -1.0030 C   0  0  0  0  0  0  0  0  0  0  0  0
   -4.1840   -0.3840   -2.4570 C   0  0  0  0  0  0  0  0  0  0  0  0
   -5.5500   -0.5570   -0.6160 O   0  0  0  0  0  0  0  0  0  0  0  0
  1  2  1  0
  2  3  1  0
  3  4  2  0
  5  3  1  1
  5  6  1  0
  5 12  1  0
  6  7  1  1
  6  8  1  0
  8  9  1  0
  9 10  1  6
  9 11  1  0
 12 13  1  1
 12 33  1  0
 13 14  1  0
 14 15  2  0
 14 16  1  0
 16 17  2  0
 16 18  1  0
 18 19  1  0
 19 20  2  0
 19 24  1  0
 20 21  1  0
 21 22  2  0
 22 23  1  0
 23 24  2  0
 24 25  1  0
 25 26  1  0
 26 27  2  0
 26 28  1  0
 28 29  1  0
 29 30  1  1
 29 31  1  0
 29 32  1  0
 33 34  1  6
 33 39  1  0
 34 35  1  0
 35 36  1  6
 35 37  1  0
 37 38  1  0
 39 40  1  0
 39 41  2  0
M  CHG  1  11   1
M  END
