
     RDKit          3D

 18 19  0  0  0  0  0  0  0  0999 V2000
   -0.2170   -2.1590    0.5740 O   0  0  0  0  0  0  0  0  0  0  0  0
    0.5080   -1.3460   -0.2580 C   0  0  1  0  0  0  0  0  0  0  0  0
   -0.1460   -0.9420   -1.5270 C   0  0  0  0  0  0  0  0  0  0  0  0
   -1.2820   -0.2150   -1.4640 O   0  0  0  0  0  0  0  0  0  0  0  0
   -2.3120   -0.8360   -0.8280 C   0  0  0  0  0  0  0  0  0  0  0  0
   -3.5770    0.0380   -0.8530 C   0  0  2  0  0  0  0  0  0  0  0  0
   -3.4010    1.2900   -0.0450 C   0  0  0  0  0  0  0  0  0  0  0  0
   -4.0080    0.9930    1.1860 O   0  0  0  0  0  0  0  0  0  0  0  0
   -4.3520   -0.3460    1.1300 C   0  0  0  0  0  0  0  0  0  0  0  0
   -4.5700   -0.6600   -0.1910 O   0  0  0  0  0  0  0  0  0  0  0  0
    1.0000   -0.1310    0.4980 C   0  0  2  0  0  0  0  0  0  0  0  0
    0.0170    0.6560    1.0310 O   0  0  0  0  0  0  0  0  0  0  0  0
    1.9880    0.5980   -0.3800 C   0  0  1  0  0  0  0  0  0  0  0  0
    2.6890    1.6400    0.3610 N   0  0  0  0  0  0  0  0  0  0  0  0
    3.8460    0.8990    0.8280 C   0  0  2  0  0  0  0  0  0  0  0  0
    4.8990    1.7280    1.1720 O   0  0  0  0  0  0  0  0  0  0  0  0
    4.1670    0.0990   -0.4420 C   0  0  0  0  0  0  0  0  0  0  0  0
    2.9140   -0.3010   -0.8350 O   0  0  0  0  0  0  0  0  0  0  0  0
  2  1  1  1
  2  3  1  0
  2 11  1  0
  3  4  1  0
  4  5  1  0
  6  5  1  1
  6  7  1  0
  6 10  1  0
  7  8  1  0
  8  9  1  0
  9 10  1  0
 11 12  1  6
 11 13  1  0
 13 14  1  1
 13 18  1  0
 14 15  1  0
 15 16  1  6
 15 17  1  0
 17 18  1  0
M  END
