
     RDKit          3D

 18 18  0  0  0  0  0  0  0  0999 V2000
   -0.8150    2.4420    0.2460 N   0  0  0  0  0  0  0  0  0  0  0  0
   -0.7210    1.1110    0.8320 C   0  0  2  0  0  0  0  0  0  0  0  0
    0.6530    0.5550    0.7470 C   0  0  2  0  0  0  0  0  0  0  0  0
    1.5350    1.4020    1.4810 O   0  0  0  0  0  0  0  0  0  0  0  0
    1.2400    0.6080   -0.6720 C   0  0  0  0  0  0  0  0  0  0  0  0
    2.5330    0.1610   -0.7270 O   0  0  0  0  0  0  0  0  0  0  0  0
    2.7600   -1.1300   -0.3350 C   0  0  0  0  0  0  0  0  0  0  0  0
    4.2690   -1.3700   -0.5000 C   0  0  1  0  0  0  0  0  0  0  0  0
    4.6100   -2.6590   -0.1280 O   0  0  0  0  0  0  0  0  0  0  0  0
    4.6040   -1.1040   -1.8290 O   0  0  0  0  0  0  0  0  0  0  0  0
    5.4450   -0.0770   -1.8860 O   0  0  0  0  0  0  0  0  0  0  0  0
   -1.8580    0.3000    0.4020 C   0  0  1  0  0  0  0  0  0  0  0  0
   -3.0210    0.9830    0.8640 O   0  0  0  0  0  0  0  0  0  0  0  0
   -2.0650    0.1270   -1.0780 C   0  0  0  0  0  0  0  0  0  0  0  0
   -3.5470   -0.1950   -1.2220 C   0  0  0  0  0  0  0  0  0  0  0  0
   -4.0310   -1.0900   -0.1210 C   0  0  0  0  0  0  0  0  0  0  0  0
   -3.0900   -1.7190    0.6070 O   0  0  0  0  0  0  0  0  0  0  0  0
   -1.9620   -1.0790    0.9920 C   0  0  0  0  0  0  0  0  0  0  0  0
  2  1  1  6
  2  3  1  0
  2 12  1  0
  3  4  1  1
  3  5  1  0
  5  6  1  0
  6  7  1  0
  7  8  1  0
  8  9  1  6
  8 10  1  0
 10 11  1  0
 12 13  1  1
 12 14  1  0
 12 18  1  0
 14 15  1  0
 15 16  1  0
 16 17  1  0
 17 18  1  0
M  CHG  1   1   1
M  END
