
     RDKit          3D

 17 17  0  0  0  0  0  0  0  0999 V2000
    1.0380    0.7120   -1.7120 C   0  0  0  0  0  0  0  0  0  0  0  0
    0.5770    0.3430   -0.3150 C   0  0  2  0  0  0  0  0  0  0  0  0
    0.1900    1.4850    0.5300 C   0  0  0  0  0  0  0  0  0  0  0  0
    1.1230    2.5620    0.6290 N   0  0  0  0  0  0  0  0  0  0  0  0
    1.5490   -0.6310    0.2590 C   0  0  2  0  0  0  0  0  0  0  0  0
    1.0340   -1.9070    0.4200 O   0  0  0  0  0  0  0  0  0  0  0  0
    2.3630   -0.2210    1.4420 C   0  0  0  0  0  0  0  0  0  0  0  0
    3.2630   -1.2810    1.5500 O   0  0  0  0  0  0  0  0  0  0  0  0
    4.1840   -1.3510    0.6770 O   0  0  0  0  0  0  0  0  0  0  0  0
   -0.7260   -0.4590   -0.5830 C   0  0  2  0  0  0  0  0  0  0  0  0
   -0.5410   -1.6850   -1.1450 O   0  0  0  0  0  0  0  0  0  0  0  0
   -1.4680    0.2800   -1.7510 C   0  0  0  0  0  0  0  0  0  0  0  0
   -2.1920    1.2420   -1.1520 O   0  0  0  0  0  0  0  0  0  0  0  0
   -2.8490    0.5100   -0.1260 C   0  0  0  0  0  0  0  0  0  0  0  0
   -1.7530   -0.3890    0.4270 C   0  0  1  0  0  0  0  0  0  0  0  0
   -2.4600   -1.7330    0.6940 C   0  0  0  0  0  0  0  0  0  0  0  0
   -3.4890   -1.4970    1.6040 O   0  0  0  0  0  0  0  0  0  0  0  0
  2  1  1  6
  2  3  1  0
  2  5  1  0
  2 10  1  0
  3  4  1  0
  5  6  1  1
  5  7  1  0
  7  8  1  0
  8  9  1  0
 10 11  1  6
 10 12  1  0
 10 15  1  0
 12 13  1  0
 13 14  1  0
 14 15  1  0
 15 16  1  6
 16 17  1  0
M  CHG  1   4   1
M  END
