
     RDKit          3D

 18 18  0  0  0  0  0  0  0  0999 V2000
   -3.8650   -1.1310   -0.0080 C   0  0  0  0  0  0  0  0  0  0  0  0
   -3.6880    0.0750   -0.9070 C   0  0  2  0  0  0  0  0  0  0  0  0
   -3.3290   -0.4330   -2.1510 O   0  0  0  0  0  0  0  0  0  0  0  0
   -2.7320    1.0700   -0.3580 C   0  0  2  0  0  0  0  0  0  0  0  0
   -3.2010    1.5330    0.9290 N   0  0  0  0  0  0  0  0  0  0  0  0
   -2.7980    2.2050   -1.2070 O   0  0  0  0  0  0  0  0  0  0  0  0
   -1.3050    0.6650   -0.3030 C   0  0  2  0  0  0  0  0  0  0  0  0
   -0.8670    0.2240   -1.5360 O   0  0  0  0  0  0  0  0  0  0  0  0
   -0.8970   -0.2420    0.7770 C   0  0  0  0  0  0  0  0  0  0  0  0
    0.4860   -0.3480    0.8820 O   0  0  0  0  0  0  0  0  0  0  0  0
    1.3910   -0.8560    0.0070 C   0  0  0  0  0  0  0  0  0  0  0  0
    1.0160   -1.3320   -1.0810 O   0  0  0  0  0  0  0  0  0  0  0  0
    2.8620   -0.8930    0.2530 C   0  0  1  0  0  0  0  0  0  0  0  0
    3.6330   -0.1690   -0.8300 C   0  0  0  0  0  0  0  0  0  0  0  0
    4.4870    0.7910   -0.2990 O   0  0  0  0  0  0  0  0  0  0  0  0
    5.3140    0.2710    0.6820 C   0  0  0  0  0  0  0  0  0  0  0  0
    4.5670   -0.5960    1.6700 C   0  0  0  0  0  0  0  0  0  0  0  0
    3.2070   -0.3500    1.4760 O   0  0  0  0  0  0  0  0  0  0  0  0
  2  1  1  1
  2  3  1  0
  2  4  1  0
  4  5  1  1
  4  6  1  0
  4  7  1  0
  7  8  1  6
  7  9  1  0
  9 10  1  0
 10 11  1  0
 11 12  2  0
 13 11  1  6
 13 14  1  0
 13 18  1  0
 14 15  1  0
 15 16  1  0
 16 17  1  0
 17 18  1  0
M  CHG  1   5   1
M  END
