
     RDKit          3D

 15 15  0  0  0  0  0  0  0  0999 V2000
   -4.4180    1.5670    0.5730 N   0  0  0  0  0  0  0  0  0  0  0  0
   -3.7730    1.0370   -0.5100 O   0  0  0  0  0  0  0  0  0  0  0  0
   -2.3870    1.0160   -0.2760 C   0  0  0  0  0  0  0  0  0  0  0  0
   -2.0530   -0.4640   -0.1560 C   0  0  2  0  0  0  0  0  0  0  0  0
   -2.6140   -1.0370    0.9160 O   0  0  0  0  0  0  0  0  0  0  0  0
   -0.6480   -0.7740   -0.4270 C   0  0  2  0  0  0  0  0  0  0  0  0
   -0.4830   -2.1100   -0.8870 O   0  0  0  0  0  0  0  0  0  0  0  0
    0.2410   -0.5870    0.7950 C   0  0  1  0  0  0  0  0  0  0  0  0
    0.0990   -1.6770    1.6070 O   0  0  0  0  0  0  0  0  0  0  0  0
    1.5940   -0.1330    0.5340 C   0  0  2  0  0  0  0  0  0  0  0  0
    1.6110    1.1190   -0.3290 C   0  0  0  0  0  0  0  0  0  0  0  0
    2.8080    1.7560   -0.1360 O   0  0  0  0  0  0  0  0  0  0  0  0
    3.8700    0.8570    0.0940 C   0  0  0  0  0  0  0  0  0  0  0  0
    3.5520   -0.4490   -0.6160 C   0  0  0  0  0  0  0  0  0  0  0  0
    2.4830   -1.0300   -0.0070 O   0  0  0  0  0  0  0  0  0  0  0  0
  1  2  1  0
  2  3  1  0
  3  4  1  0
  4  5  1  1
  4  6  1  0
  6  7  1  1
  6  8  1  0
  8  9  1  6
  8 10  1  0
 10 11  1  6
 10 15  1  0
 11 12  1  0
 12 13  1  0
 13 14  1  0
 14 15  1  0
M  END
