
     RDKit          3D

 14 14  0  0  0  0  0  0  0  0999 V2000
   -1.1170    1.6500    0.8380 C   0  0  0  0  0  0  0  0  0  0  0  0
   -0.9240    0.2480    0.2430 C   0  0  2  0  0  0  0  0  0  0  0  0
    0.3750    0.2160   -0.5750 C   0  0  1  0  0  0  0  0  0  0  0  0
    0.2050    1.0860   -1.6940 N   0  0  0  0  0  0  0  0  0  0  0  0
    1.4080    0.5580    0.2630 O   0  0  0  0  0  0  0  0  0  0  0  0
    2.3210   -0.4830    0.4410 C   0  0  2  0  0  0  0  0  0  0  0  0
    2.4670   -0.8350    1.7620 O   0  0  0  0  0  0  0  0  0  0  0  0
    3.6580    0.0130   -0.1230 C   0  0  0  0  0  0  0  0  0  0  0  0
    3.5250    0.3250   -1.4750 O   0  0  0  0  0  0  0  0  0  0  0  0
   -2.0390   -0.0630   -0.6740 C   0  0  0  0  0  0  0  0  0  0  0  0
   -3.1350   -0.8990   -0.0620 C   0  0  0  0  0  0  0  0  0  0  0  0
   -2.5750   -1.8850    0.7420 O   0  0  0  0  0  0  0  0  0  0  0  0
   -1.8770   -1.2400    1.7470 C   0  0  0  0  0  0  0  0  0  0  0  0
   -0.7520   -0.5840    1.3060 O   0  0  0  0  0  0  0  0  0  0  0  0
  2  1  1  1
  2  3  1  0
  2 10  1  0
  2 14  1  0
  3  4  1  6
  3  5  1  0
  5  6  1  0
  6  7  1  1
  6  8  1  0
  8  9  1  0
 10 11  1  0
 11 12  1  0
 12 13  1  0
 13 14  1  0
M  END
