
     RDKit          3D

 26 30  0  0  0  0  0  0  0  0999 V2000
    5.5660   -1.5220    0.9710 C   0  0  0  0  0  0  0  0  0  0  0  0
    4.4940   -0.6890    0.4810 N   0  0  0  0  0  0  0  0  0  0  0  0
    3.1980   -0.9450    0.7510 C   0  0  0  0  0  0  0  0  0  0  0  0
    2.9230   -1.9480    1.4540 O   0  0  0  0  0  0  0  0  0  0  0  0
    2.1800   -0.1310    0.2710 C   0  0  0  0  0  0  0  0  0  0  0  0
    0.8660   -0.4240    0.5660 C   0  0  0  0  0  0  0  0  0  0  0  0
   -0.1270    0.3800    0.0910 C   0  0  0  0  0  0  0  0  0  0  0  0
   -1.4470    0.1460    0.3470 O   0  0  0  0  0  0  0  0  0  0  0  0
   -2.0220   -0.8880    1.0940 C   0  0  1  0  0  0  0  0  0  0  0  0
   -2.8210   -0.3040    2.2370 C   0  0  0  0  0  0  0  0  0  0  0  0
   -4.2110   -0.2540    1.9850 O   0  0  0  0  0  0  0  0  0  0  0  0
   -4.6780   -0.0730    0.6980 C   0  0  0  0  0  0  0  0  0  0  0  0
   -5.7230    0.7570    0.3530 C   0  0  0  0  0  0  0  0  0  0  0  0
   -6.1220    0.8740   -0.9680 C   0  0  0  0  0  0  0  0  0  0  0  0
   -5.4480    0.1400   -1.9360 C   0  0  0  0  0  0  0  0  0  0  0  0
   -4.4030   -0.6950   -1.6220 C   0  0  0  0  0  0  0  0  0  0  0  0
   -4.0310   -0.7910   -0.3080 C   0  0  0  0  0  0  0  0  0  0  0  0
   -2.9080   -1.6720    0.1420 C   0  0  0  0  0  0  0  0  0  0  0  0
    0.2010    1.4880   -0.6880 C   0  0  0  0  0  0  0  0  0  0  0  0
    1.5020    1.7640   -0.9710 C   0  0  0  0  0  0  0  0  0  0  0  0
    2.5060    0.9530   -0.4920 C   0  0  0  0  0  0  0  0  0  0  0  0
    3.8350    1.2050   -0.7610 C   0  0  0  0  0  0  0  0  0  0  0  0
    4.4760    2.1920   -1.4810 C   0  0  0  0  0  0  0  0  0  0  0  0
    5.7540    1.9790   -1.4290 O   0  0  0  0  0  0  0  0  0  0  0  0
    6.0350    0.9040   -0.7170 C   0  0  0  0  0  0  0  0  0  0  0  0
    4.8220    0.3860   -0.2750 C   0  0  0  0  0  0  0  0  0  0  0  0
  1  2  1  0
  2  3  1  0
  2 26  1  0
  3  4  2  0
  3  5  1  0
  5  6  2  0
  5 21  1  0
  6  7  1  0
  7  8  1  0
  7 19  2  0
  9  8  1  6
  9 10  1  0
  9 18  1  0
 10 11  1  0
 11 12  1  0
 12 13  2  0
 12 17  1  0
 13 14  1  0
 14 15  2  0
 15 16  1  0
 16 17  2  0
 17 18  1  0
 19 20  1  0
 20 21  2  0
 21 22  1  0
 22 23  2  0
 22 26  1  0
 23 24  1  0
 24 25  1  0
 25 26  2  0
M  END
