
     RDKit          3D

 26 30  0  0  0  0  0  0  0  0999 V2000
    5.4550   -0.5370    1.5020 C   0  0  0  0  0  0  0  0  0  0  0  0
    4.1950   -0.5290    0.7740 C   0  0  0  0  0  0  0  0  0  0  0  0
    3.7810    0.5980    0.1920 C   0  0  0  0  0  0  0  0  0  0  0  0
    4.5580    1.8340    0.2520 C   0  0  0  0  0  0  0  0  0  0  0  0
    3.8600    2.7340   -0.4030 C   0  0  0  0  0  0  0  0  0  0  0  0
    2.6350    2.1650   -0.9090 C   0  0  0  0  0  0  0  0  0  0  0  0
    2.5810    0.8600   -0.5470 C   0  0  0  0  0  0  0  0  0  0  0  0
    1.4030    0.0330   -0.8820 C   0  0  0  0  0  0  0  0  0  0  0  0
    1.5190   -1.3460   -0.6780 N   0  0  0  0  0  0  0  0  0  0  0  0
    0.2790   -2.0720   -0.7370 C   0  0  0  0  0  0  0  0  0  0  0  0
    0.3390   -3.3370   -0.4890 O   0  0  0  0  0  0  0  0  0  0  0  0
   -1.0080   -1.5390   -1.0430 C   0  0  1  0  0  0  0  0  0  0  0  0
   -1.9320   -1.6520    0.1820 C   0  0  0  0  0  0  0  0  0  0  0  0
   -2.7790   -0.4290   -0.0050 C   0  0  0  0  0  0  0  0  0  0  0  0
   -2.2160    0.3980   -0.9630 C   0  0  0  0  0  0  0  0  0  0  0  0
   -2.8420    1.5780   -1.2850 C   0  0  0  0  0  0  0  0  0  0  0  0
   -4.0180    1.9010   -0.6370 C   0  0  0  0  0  0  0  0  0  0  0  0
   -4.5680    1.0750    0.3110 C   0  0  0  0  0  0  0  0  0  0  0  0
   -3.9600   -0.1140    0.6520 C   0  0  0  0  0  0  0  0  0  0  0  0
   -4.7250   -0.7590    1.6390 O   0  0  0  0  0  0  0  0  0  0  0  0
   -5.4770    0.2590    2.2940 C   0  0  0  0  0  0  0  0  0  0  0  0
   -5.7950    1.1820    1.1380 C   0  0  0  0  0  0  0  0  0  0  0  0
   -1.0480   -0.2090   -1.4180 O   0  0  0  0  0  0  0  0  0  0  0  0
    2.6590   -2.2310   -0.4530 C   0  0  0  0  0  0  0  0  0  0  0  0
    3.4710   -1.8210    0.6900 C   0  0  0  0  0  0  0  0  0  0  0  0
    3.6000   -2.5720    1.6940 O   0  0  0  0  0  0  0  0  0  0  0  0
  1  2  1  0
  2  3  2  0
  2 25  1  0
  3  4  1  0
  3  7  1  0
  4  5  2  0
  5  6  1  0
  6  7  2  0
  7  8  1  0
  8  9  1  0
  9 10  1  0
  9 24  1  0
 10 11  2  0
 12 10  1  1
 12 13  1  0
 12 23  1  0
 13 14  1  0
 14 15  2  0
 14 19  1  0
 15 16  1  0
 15 23  1  0
 16 17  2  0
 17 18  1  0
 18 19  2  0
 18 22  1  0
 19 20  1  0
 20 21  1  0
 21 22  1  0
 24 25  1  0
 25 26  2  0
M  END
