
     RDKit          3D

 26 29  0  0  0  0  0  0  0  0999 V2000
   -3.8280   -3.5660   -1.0310 C   0  0  0  0  0  0  0  0  0  0  0  0
   -3.6400   -2.3500   -0.5840 C   0  0  0  0  0  0  0  0  0  0  0  0
   -4.7680   -1.4440   -0.2170 C   0  0  0  0  0  0  0  0  0  0  0  0
   -4.4140   -0.8870    1.1450 C   0  0  0  0  0  0  0  0  0  0  0  0
   -3.2200    0.0350    1.0520 C   0  0  0  0  0  0  0  0  0  0  0  0
   -2.1000   -0.6590    0.3730 C   0  0  0  0  0  0  0  0  0  0  0  0
   -2.3040   -1.8000   -0.4120 C   0  0  0  0  0  0  0  0  0  0  0  0
   -1.2250   -2.3920   -1.0170 C   0  0  0  0  0  0  0  0  0  0  0  0
    0.0320   -1.8580   -0.8420 C   0  0  0  0  0  0  0  0  0  0  0  0
    0.2760   -0.7380   -0.0780 C   0  0  0  0  0  0  0  0  0  0  0  0
    1.5900   -0.1570    0.1210 C   0  0  0  0  0  0  0  0  0  0  0  0
    1.7080    0.8670    0.8370 O   0  0  0  0  0  0  0  0  0  0  0  0
    2.7460   -0.6690   -0.4390 O   0  0  0  0  0  0  0  0  0  0  0  0
    4.0250   -0.1580   -0.2840 C   0  0  1  0  0  0  0  0  0  0  0  0
    5.0040   -1.1110    0.3540 C   0  0  0  0  0  0  0  0  0  0  0  0
    6.3120   -0.5550   -0.1880 C   0  0  0  0  0  0  0  0  0  0  0  0
    6.0420   -0.1040   -1.4530 O   0  0  0  0  0  0  0  0  0  0  0  0
    4.7150    0.2160   -1.5510 C   0  0  0  0  0  0  0  0  0  0  0  0
   -0.8150   -0.1560    0.5210 C   0  0  0  0  0  0  0  0  0  0  0  0
   -0.6340    1.0250    1.3390 C   0  0  0  0  0  0  0  0  0  0  0  0
   -0.4110    0.9490    2.5650 O   0  0  0  0  0  0  0  0  0  0  0  0
   -0.7140    2.3360    0.7240 C   0  0  0  0  0  0  0  0  0  0  0  0
   -0.5730    3.4870    1.3350 C   0  0  0  0  0  0  0  0  0  0  0  0
   -0.7240    4.5710    0.3630 C   0  0  0  0  0  0  0  0  0  0  0  0
   -0.9760    3.8460   -0.9040 C   0  0  0  0  0  0  0  0  0  0  0  0
   -0.9650    2.5950   -0.6730 N   0  0  0  0  0  0  0  0  0  0  0  0
  1  2  2  0
  2  3  1  0
  2  7  1  0
  3  4  1  0
  4  5  1  0
  5  6  1  0
  6  7  2  0
  6 19  1  0
  7  8  1  0
  8  9  2  0
  9 10  1  0
 10 11  1  0
 10 19  2  0
 11 12  2  0
 11 13  1  0
 14 13  1  6
 14 15  1  0
 14 18  1  0
 15 16  1  0
 16 17  1  0
 17 18  1  0
 19 20  1  0
 20 21  2  0
 20 22  1  0
 22 23  2  0
 22 26  1  0
 23 24  1  0
 24 25  1  0
 25 26  2  0
M  END
