
     RDKit          3D

 14 15  0  0  0  0  0  0  0  0999 V2000
   -1.4690   -2.8690    0.1340 O   0  0  0  0  0  0  0  0  0  0  0  0
   -1.6070   -1.5330    0.4090 C   0  0  0  0  0  0  0  0  0  0  0  0
   -0.6030   -0.6660   -0.3060 C   0  0  2  0  0  0  0  0  0  0  0  0
    0.8110   -0.9820    0.0260 C   0  0  1  0  0  0  0  0  0  0  0  0
    1.1680   -2.1520   -0.6660 O   0  0  0  0  0  0  0  0  0  0  0  0
    1.6990    0.1210   -0.5190 C   0  0  2  0  0  0  0  0  0  0  0  0
    3.0290   -0.2600   -0.4630 O   0  0  0  0  0  0  0  0  0  0  0  0
    1.4360    1.3490    0.3370 C   0  0  2  0  0  0  0  0  0  0  0  0
    1.7340    1.1220    1.6770 O   0  0  0  0  0  0  0  0  0  0  0  0
   -0.0070    1.6720    0.1810 C   0  0  0  0  0  0  0  0  0  0  0  0
   -0.6540    2.8500    0.2870 N   0  0  0  0  0  0  0  0  0  0  0  0
   -1.9780    2.6660    0.0600 C   0  0  0  0  0  0  0  0  0  0  0  0
   -2.1380    1.3250   -0.1920 C   0  0  0  0  0  0  0  0  0  0  0  0
   -0.9230    0.7350   -0.1140 N   0  0  0  0  0  0  0  0  0  0  0  0
  1  2  1  0
  3  2  1  1
  3  4  1  0
  3 14  1  0
  4  5  1  6
  4  6  1  0
  6  7  1  1
  6  8  1  0
  8  9  1  1
  8 10  1  0
 10 11  2  0
 10 14  1  0
 11 12  1  0
 12 13  2  0
 13 14  1  0
M  END
