
     RDKit          3D

 14 14  0  0  0  0  0  0  0  0999 V2000
    3.5250    1.7740    0.1490 N   0  0  0  0  0  0  0  0  0  0  0  0
    2.6920    0.7180    0.6110 C   0  0  0  0  0  0  0  0  0  0  0  0
    2.8310    0.3180    1.7770 O   0  0  0  0  0  0  0  0  0  0  0  0
    1.7280    0.1110   -0.1760 O   0  0  0  0  0  0  0  0  0  0  0  0
    0.9010   -0.9300    0.2680 C   0  0  2  0  0  0  0  0  0  0  0  0
    1.0200   -2.1760   -0.5610 C   0  0  0  0  0  0  0  0  0  0  0  0
    2.3190   -2.6900   -0.5600 O   0  0  0  0  0  0  0  0  0  0  0  0
   -0.5420   -0.4660    0.2170 C   0  0  2  0  0  0  0  0  0  0  0  0
   -0.9080   -0.2030   -1.2000 C   0  0  0  0  0  0  0  0  0  0  0  0
   -2.0850    0.5830   -1.4030 N   0  0  0  0  0  0  0  0  0  0  0  0
   -2.8680    1.3530   -0.5020 C   0  0  0  0  0  0  0  0  0  0  0  0
   -2.8160    1.4180    0.8210 C   0  0  0  0  0  0  0  0  0  0  0  0
   -1.8880    0.6700    1.7100 C   0  0  0  0  0  0  0  0  0  0  0  0
   -0.6540    0.6430    1.0500 O   0  0  0  0  0  0  0  0  0  0  0  0
  1  2  1  0
  2  3  2  0
  2  4  1  0
  4  5  1  0
  5  6  1  6
  5  8  1  0
  6  7  1  0
  8  9  1  6
  8 14  1  0
  9 10  1  0
 10 11  1  0
 11 12  2  0
 12 13  1  0
 13 14  1  0
M  END
