
     RDKit          3D

 13 13  0  0  0  0  0  0  0  0999 V2000
    1.7300   -1.6260    2.4980 C   0  0  0  0  0  0  0  0  0  0  0  0
    0.6530   -1.9500    1.6250 O   0  0  0  0  0  0  0  0  0  0  0  0
    0.9520   -2.1170    0.2940 C   0  0  0  0  0  0  0  0  0  0  0  0
    1.7140   -3.2230   -0.1240 N   0  0  0  0  0  0  0  0  0  0  0  0
    0.5200   -1.2340   -0.5730 C   0  0  0  0  0  0  0  0  0  0  0  0
   -0.2810   -0.0660   -0.1450 C   0  0  0  0  0  0  0  0  0  0  0  0
   -0.6900    0.7920   -1.0630 C   0  0  0  0  0  0  0  0  0  0  0  0
   -0.4380    0.7120   -2.4490 O   0  0  0  0  0  0  0  0  0  0  0  0
   -0.7520    1.9920   -3.0250 C   0  0  0  0  0  0  0  0  0  0  0  0
   -1.6650    2.5750   -2.1160 O   0  0  0  0  0  0  0  0  0  0  0  0
   -1.4780    1.9870   -0.8430 C   0  0  0  0  0  0  0  0  0  0  0  0
   -1.9530    2.4780    0.2860 C   0  0  0  0  0  0  0  0  0  0  0  0
   -1.7510    1.8690    1.5440 N   0  0  0  0  0  0  0  0  0  0  0  0
  1  2  1  0
  2  3  1  0
  3  4  1  0
  3  5  2  3
  5  6  1  0
  6  7  2  3
  7  8  1  0
  7 11  1  0
  8  9  1  0
  9 10  1  0
 10 11  1  0
 11 12  2  3
 12 13  1  0
M  END
