
     RDKit          3D

 14 14  0  0  0  0  0  0  0  0999 V2000
   -2.8130   -2.1990    1.3420 N   0  0  0  0  0  0  0  0  0  0  0  0
   -2.0310   -1.1710    1.5240 C   0  0  0  0  0  0  0  0  0  0  0  0
   -2.2720    0.0210    0.7470 C   0  0  0  0  0  0  0  0  0  0  0  0
   -3.2480    0.0990   -0.1310 C   0  0  0  0  0  0  0  0  0  0  0  0
   -3.4490    1.2550   -0.8560 O   0  0  0  0  0  0  0  0  0  0  0  0
   -1.4300    1.1220    0.9460 O   0  0  0  0  0  0  0  0  0  0  0  0
   -0.4390    1.4230   -0.0030 C   0  0  0  0  0  0  0  0  0  0  0  0
    0.4990    0.2570   -0.1260 C   0  0  2  0  0  0  0  0  0  0  0  0
    1.1360   -0.0620    1.0510 O   0  0  0  0  0  0  0  0  0  0  0  0
    2.3500   -0.6890    0.8280 C   0  0  0  0  0  0  0  0  0  0  0  0
    2.2960   -1.4680   -0.4640 C   0  0  0  0  0  0  0  0  0  0  0  0
    2.1880   -0.5950   -1.5210 O   0  0  0  0  0  0  0  0  0  0  0  0
    1.4970    0.5510   -1.2020 C   0  0  2  0  0  0  0  0  0  0  0  0
    2.3350    1.6410   -0.7990 N   0  0  0  0  0  0  0  0  0  0  0  0
  1  2  2  0
  2  3  1  0
  3  4  2  3
  3  6  1  0
  4  5  1  0
  6  7  1  0
  8  7  1  1
  8  9  1  0
  8 13  1  0
  9 10  1  0
 10 11  1  0
 11 12  1  0
 12 13  1  0
 13 14  1  1
M  END
