
     RDKit          3D

 14 15  0  0  0  0  0  0  0  0999 V2000
    3.6420   -0.0710    0.5690 N   0  0  0  0  0  0  0  0  0  0  0  0
    2.3980   -0.5870    0.2050 N   0  0  0  0  0  0  0  0  0  0  0  0
    1.5080    0.0970   -0.4240 C   0  0  0  0  0  0  0  0  0  0  0  0
    1.7790    1.4120   -0.7670 O   0  0  0  0  0  0  0  0  0  0  0  0
    0.2190   -0.4730   -0.7890 C   0  0  1  0  0  0  0  0  0  0  0  0
   -0.0160   -0.4650   -2.1610 O   0  0  0  0  0  0  0  0  0  0  0  0
    0.0870   -1.9410   -0.3580 C   0  0  0  0  0  0  0  0  0  0  0  0
   -1.4140   -2.0690   -0.2420 C   0  0  0  0  0  0  0  0  0  0  0  0
   -1.9600   -0.8300   -0.4360 O   0  0  0  0  0  0  0  0  0  0  0  0
   -0.9670    0.0920   -0.0890 C   0  0  2  0  0  0  0  0  0  0  0  0
   -1.3250    1.4930   -0.4560 C   0  0  0  0  0  0  0  0  0  0  0  0
   -2.0210    1.9560    0.8320 C   0  0  0  0  0  0  0  0  0  0  0  0
   -1.2960    1.3510    1.8470 O   0  0  0  0  0  0  0  0  0  0  0  0
   -0.8560    0.1280    1.3950 C   0  0  0  0  0  0  0  0  0  0  0  0
  1  2  1  0
  2  3  2  3
  3  4  1  0
  3  5  1  0
  5  6  1  6
  5  7  1  0
  5 10  1  0
  7  8  1  0
  8  9  1  0
  9 10  1  0
 10 11  1  6
 10 14  1  0
 11 12  1  0
 12 13  1  0
 13 14  1  0
M  END
