
     RDKit          3D

 14 14  0  0  0  0  0  0  0  0999 V2000
    3.6670   -0.3580    1.0670 C   0  0  0  0  0  0  0  0  0  0  0  0
    2.3410    0.1010    0.8290 O   0  0  0  0  0  0  0  0  0  0  0  0
    1.8290    0.2320   -0.4560 C   0  0  0  0  0  0  0  0  0  0  0  0
    2.5950   -0.0770   -1.4270 O   0  0  0  0  0  0  0  0  0  0  0  0
    0.4570    0.7060   -0.7210 C   0  0  1  0  0  0  0  0  0  0  0  0
    0.2310    0.7210   -2.1600 N   0  0  0  0  0  0  0  0  0  0  0  0
   -0.5030   -0.1620    0.0040 C   0  0  2  0  0  0  0  0  0  0  0  0
   -0.2390   -0.1510    1.3580 O   0  0  0  0  0  0  0  0  0  0  0  0
   -0.3380    1.0760    1.9620 C   0  0  0  0  0  0  0  0  0  0  0  0
   -0.5150   -1.5880   -0.5060 C   0  0  0  0  0  0  0  0  0  0  0  0
   -1.7580   -1.8400   -1.0310 O   0  0  0  0  0  0  0  0  0  0  0  0
   -2.3070   -0.6390   -1.4130 C   0  0  0  0  0  0  0  0  0  0  0  0
   -1.9480    0.2390   -0.2050 C   0  0  1  0  0  0  0  0  0  0  0  0
   -2.7590   -0.2230    0.8760 N   0  0  0  0  0  0  0  0  0  0  0  0
  1  2  1  0
  2  3  1  0
  3  4  2  0
  3  5  1  0
  5  6  1  6
  5  7  1  0
  7  8  1  1
  7 10  1  0
  7 13  1  0
  8  9  1  0
 10 11  1  0
 11 12  1  0
 12 13  1  0
 13 14  1  1
M  END
