
     RDKit          3D

 26 30  0  0  0  0  0  0  0  0999 V2000
    5.2130   -1.3470   -2.0860 C   0  0  0  0  0  0  0  0  0  0  0  0
    4.4650   -0.6190   -1.0590 N   0  0  0  0  0  0  0  0  0  0  0  0
    3.1300   -0.6880   -0.9690 C   0  0  0  0  0  0  0  0  0  0  0  0
    2.5200   -1.4020   -1.7960 O   0  0  0  0  0  0  0  0  0  0  0  0
    2.3920   -0.0100   -0.0080 C   0  0  0  0  0  0  0  0  0  0  0  0
    1.0080   -0.1110    0.0490 C   0  0  0  0  0  0  0  0  0  0  0  0
    0.2340    0.5420    0.9840 C   0  0  0  0  0  0  0  0  0  0  0  0
   -1.1400    0.4670    1.0720 O   0  0  0  0  0  0  0  0  0  0  0  0
   -2.0130   -0.2560    0.2680 C   0  0  1  0  0  0  0  0  0  0  0  0
   -2.7170   -1.2810    1.1260 C   0  0  0  0  0  0  0  0  0  0  0  0
   -3.7880   -1.8980    0.4400 O   0  0  0  0  0  0  0  0  0  0  0  0
   -4.7410   -1.0660   -0.1240 C   0  0  0  0  0  0  0  0  0  0  0  0
   -6.0510   -1.4700   -0.2960 C   0  0  0  0  0  0  0  0  0  0  0  0
   -6.9940   -0.6370   -0.8570 C   0  0  0  0  0  0  0  0  0  0  0  0
   -6.6050    0.6240   -1.2510 C   0  0  0  0  0  0  0  0  0  0  0  0
   -5.2880    1.0080   -1.0690 C   0  0  0  0  0  0  0  0  0  0  0  0
   -4.3370    0.1890   -0.5110 C   0  0  0  0  0  0  0  0  0  0  0  0
   -2.9680    0.7140   -0.3730 C   0  0  0  0  0  0  0  0  0  0  0  0
    0.9440    1.3320    1.8950 C   0  0  0  0  0  0  0  0  0  0  0  0
    2.3120    1.4420    1.8520 C   0  0  0  0  0  0  0  0  0  0  0  0
    3.0610    0.7720    0.8990 C   0  0  0  0  0  0  0  0  0  0  0  0
    4.4260    0.8490    0.8140 C   0  0  0  0  0  0  0  0  0  0  0  0
    5.3530    1.5300    1.5580 C   0  0  0  0  0  0  0  0  0  0  0  0
    6.5340    1.2580    1.0540 O   0  0  0  0  0  0  0  0  0  0  0  0
    6.4550    0.4540    0.0400 C   0  0  0  0  0  0  0  0  0  0  0  0
    5.1170    0.1470   -0.1710 C   0  0  0  0  0  0  0  0  0  0  0  0
  1  2  1  0
  2  3  1  0
  2 26  1  0
  3  4  2  0
  3  5  1  0
  5  6  2  0
  5 21  1  0
  6  7  1  0
  7  8  1  0
  7 19  2  0
  9  8  1  1
  9 10  1  0
  9 18  1  0
 10 11  1  0
 11 12  1  0
 12 13  2  0
 12 17  1  0
 13 14  1  0
 14 15  2  0
 15 16  1  0
 16 17  2  0
 17 18  1  0
 19 20  1  0
 20 21  2  0
 21 22  1  0
 22 23  2  0
 22 26  1  0
 23 24  1  0
 24 25  1  0
 25 26  2  0
M  END
