
     RDKit          3D

 16 17  0  0  0  0  0  0  0  0999 V2000
   -4.8100    0.2380    0.7250 C   0  0  0  0  0  0  0  0  0  0  0  0
   -3.8870   -0.7150    0.1380 N   0  0  0  0  0  0  0  0  0  0  0  0
   -2.4830   -0.4360    0.0740 C   0  0  0  0  0  0  0  0  0  0  0  0
   -1.6260   -1.3500   -0.4840 C   0  0  0  0  0  0  0  0  0  0  0  0
   -0.2630   -1.1370   -0.5730 C   0  0  0  0  0  0  0  0  0  0  0  0
    0.2130    0.0550   -0.0680 C   0  0  0  0  0  0  0  0  0  0  0  0
    1.6370    0.3700   -0.1170 C   0  0  0  0  0  0  0  0  0  0  0  0
    2.0400    1.5880   -0.5080 N   0  0  0  0  0  0  0  0  0  0  0  0
    3.3120    1.9820   -0.5900 C   0  0  0  0  0  0  0  0  0  0  0  0
    3.8010    3.5740   -1.1030 Cl  0  0  0  0  0  0  0  0  0  0  0  0
    4.2950    1.0780   -0.2490 C   0  0  0  0  0  0  0  0  0  0  0  0
    3.9130   -0.1820    0.1570 C   0  0  0  0  0  0  0  0  0  0  0  0
    2.5870   -0.5570    0.2300 C   0  0  0  0  0  0  0  0  0  0  0  0
    2.2250   -1.8540    0.6490 O   0  0  0  0  0  0  0  0  0  0  0  0
   -0.6680    0.9600    0.4900 C   0  0  0  0  0  0  0  0  0  0  0  0
   -2.0060    0.7180    0.5610 N   0  0  0  0  0  0  0  0  0  0  0  0
  1  2  1  0
  2  3  1  0
  3  4  2  0
  3 16  1  0
  4  5  1  0
  5  6  2  0
  6  7  1  0
  6 15  1  0
  7  8  2  0
  7 13  1  0
  8  9  1  0
  9 10  1  0
  9 11  2  0
 11 12  1  0
 12 13  2  0
 13 14  1  0
 15 16  2  0
M  END
