
     RDKit          3D

 27 29  0  0  0  0  0  0  0  0999 V2000
    5.9240   -0.9230   -1.5040 N   0  0  0  0  0  0  0  0  0  0  0  0
    4.9720   -0.6700   -0.4780 C   0  0  0  0  0  0  0  0  0  0  0  0
    5.3170   -0.5440    0.8160 N   0  0  0  0  0  0  0  0  0  0  0  0
    4.4160   -0.3060    1.7830 C   0  0  0  0  0  0  0  0  0  0  0  0
    3.1100   -0.1820    1.4900 N   0  0  0  0  0  0  0  0  0  0  0  0
    2.6990   -0.2990    0.2110 C   0  0  0  0  0  0  0  0  0  0  0  0
    3.6330   -0.5460   -0.7970 C   0  0  0  0  0  0  0  0  0  0  0  0
    2.9470   -0.6120   -1.9480 N   0  0  0  0  0  0  0  0  0  0  0  0
    1.6490   -0.4130   -1.6560 C   0  0  0  0  0  0  0  0  0  0  0  0
    1.4780   -0.2210   -0.3560 N   0  0  0  0  0  0  0  0  0  0  0  0
    0.2430    0.0250    0.3540 C   0  0  2  0  0  0  0  0  0  0  0  0
   -0.7140   -0.9780    0.0960 O   0  0  0  0  0  0  0  0  0  0  0  0
   -1.8350   -0.4080    0.7400 C   0  0  2  0  0  0  0  0  0  0  0  0
   -3.0890   -1.1820    0.4090 C   0  0  0  0  0  0  0  0  0  0  0  0
   -3.0210   -2.4990    0.8020 O   0  0  0  0  0  0  0  0  0  0  0  0
   -4.4900   -3.2340    0.3680 P   0  0  1  0  0  0  0  0  0  0  0  0
   -5.6480   -2.3480    0.7660 O   0  0  0  0  0  0  0  0  0  0  0  0
   -4.5120   -3.3600   -1.3200 O   0  0  0  0  0  0  0  0  0  0  0  0
   -4.6930   -4.7280    1.1000 O   0  0  0  0  0  0  0  0  0  0  0  0
   -1.8940    0.9530    0.0800 C   0  0  1  0  0  0  0  0  0  0  0  0
   -2.5300    1.8710    0.9070 O   0  0  0  0  0  0  0  0  0  0  0  0
   -0.4120    1.3150   -0.0880 C   0  0  1  0  0  0  0  0  0  0  0  0
   -0.1220    2.2860    0.8330 O   0  0  0  0  0  0  0  0  0  0  0  0
    0.5280    3.6840    0.1730 P   0  0  2  0  0  0  0  0  0  0  0  0
    1.9930    3.4900   -0.1400 O   0  0  0  0  0  0  0  0  0  0  0  0
    0.4360    4.8960    1.3660 O   0  0  0  0  0  0  0  0  0  0  0  0
   -0.3350    4.2300   -1.1660 O   0  0  0  0  0  0  0  0  0  0  0  0
  1  2  1  0
  2  3  2  0
  2  7  1  0
  3  4  1  0
  4  5  2  0
  5  6  1  0
  6  7  2  0
  6 10  1  0
  7  8  1  0
  8  9  2  0
  9 10  1  0
 11 10  1  6
 11 12  1  0
 11 22  1  0
 12 13  1  0
 13 14  1  6
 13 20  1  0
 14 15  1  0
 15 16  1  0
 16 17  2  0
 16 18  1  6
 16 19  1  0
 20 21  1  1
 20 22  1  0
 22 23  1  1
 23 24  1  0
 24 25  2  0
 24 26  1  1
 24 27  1  0
M  END
