
     RDKit          3D

 44 47  0  0  0  0  0  0  0  0999 V2000
   10.5800   -1.8940    0.2070 C   0  0  0  0  0  0  0  0  0  0  0  0
   10.2860   -0.7250    1.0880 C   0  0  0  0  0  0  0  0  0  0  0  0
    9.3020    0.1480    0.6270 O   0  0  0  0  0  0  0  0  0  0  0  0
    7.9950   -0.2250    0.3810 C   0  0  0  0  0  0  0  0  0  0  0  0
    7.5130   -1.4850    0.5550 C   0  0  0  0  0  0  0  0  0  0  0  0
    6.2000   -1.7570    0.2840 C   0  0  0  0  0  0  0  0  0  0  0  0
    5.3470   -0.7600   -0.1680 C   0  0  0  0  0  0  0  0  0  0  0  0
    3.9750   -1.1110   -0.4310 C   0  0  0  0  0  0  0  0  0  0  0  0
    3.6380   -2.3330   -0.5290 O   0  0  0  0  0  0  0  0  0  0  0  0
    2.9520   -0.1380   -0.5870 N   0  0  0  0  0  0  0  0  0  0  0  0
    1.5990   -0.5150   -0.8220 C   0  0  0  0  0  0  0  0  0  0  0  0
    1.3980   -1.7770   -0.9300 O   0  0  0  0  0  0  0  0  0  0  0  0
    0.4710    0.4380   -0.9430 C   0  0  1  0  0  0  0  0  0  0  0  0
   -0.6260   -0.1550   -1.7390 C   0  0  0  0  0  0  0  0  0  0  0  0
   -1.9840    0.0630   -1.1190 N   0  0  0  0  0  0  0  0  0  0  0  0
   -2.0130   -0.8830   -0.0780 C   0  0  0  0  0  0  0  0  0  0  0  0
   -3.2240   -1.1490    0.7150 C   0  0  1  0  0  0  0  0  0  0  0  0
   -3.8120   -0.1320    1.3950 O   0  0  0  0  0  0  0  0  0  0  0  0
   -4.3960   -2.2730   -0.2000 P   0  0  0  0  0  0  0  0  0  0  0  0
   -3.4950   -3.7020   -0.5910 O   0  0  0  0  0  0  0  0  0  0  0  0
   -4.2490   -4.6280   -1.2790 C   0  0  0  0  0  0  0  0  0  0  0  0
   -3.4650   -5.8770   -1.6150 C   0  0  0  0  0  0  0  0  0  0  0  0
   -5.7950   -2.6560    0.6920 O   0  0  0  0  0  0  0  0  0  0  0  0
   -5.5530   -3.1990    1.9340 C   0  0  0  0  0  0  0  0  0  0  0  0
   -6.8130   -3.5230    2.6910 C   0  0  0  0  0  0  0  0  0  0  0  0
   -1.9640    1.4640   -0.8310 C   0  0  1  0  0  0  0  0  0  0  0  0
   -3.1550    2.2450   -1.0110 C   0  0  0  0  0  0  0  0  0  0  0  0
   -4.3680    1.6880   -1.1580 C   0  0  0  0  0  0  0  0  0  0  0  0
   -5.5440    2.4110   -1.3450 C   0  0  0  0  0  0  0  0  0  0  0  0
   -5.4600    3.7660   -1.3820 C   0  0  0  0  0  0  0  0  0  0  0  0
   -4.2310    4.3770   -1.2360 C   0  0  0  0  0  0  0  0  0  0  0  0
   -3.0810    3.6380   -1.0530 C   0  0  0  0  0  0  0  0  0  0  0  0
   -1.8500    4.3050   -0.9230 N   0  0  0  0  0  0  0  0  0  0  0  0
   -1.5870    5.6800   -0.9150 C   0  0  0  0  0  0  0  0  0  0  0  0
   -0.1650    6.1820   -0.7650 C   0  0  0  0  0  0  0  0  0  0  0  0
   -2.4870    6.5300   -1.0270 O   0  0  0  0  0  0  0  0  0  0  0  0
   -1.2070    1.6280    0.4210 C   0  0  0  0  0  0  0  0  0  0  0  0
   -1.6350    2.2260    1.5690 C   0  0  0  0  0  0  0  0  0  0  0  0
   -0.7980    2.2880    2.6480 C   0  0  0  0  0  0  0  0  0  0  0  0
    0.4630    1.7500    2.5710 C   0  0  0  0  0  0  0  0  0  0  0  0
    0.9410    1.1260    1.4100 C   0  0  0  0  0  0  0  0  0  0  0  0
    0.0830    1.0770    0.3410 C   0  0  0  0  0  0  0  0  0  0  0  0
    5.8260    0.5170   -0.3470 C   0  0  0  0  0  0  0  0  0  0  0  0
    7.1560    0.7910   -0.0730 C   0  0  0  0  0  0  0  0  0  0  0  0
  1  2  1  0
  2  3  1  0
  3  4  1  0
  4  5  2  0
  4 44  1  0
  5  6  1  0
  6  7  2  0
  7  8  1  0
  7 43  1  0
  8  9  2  0
  8 10  1  0
 10 11  1  0
 11 12  2  0
 13 11  1  1
 13 14  1  0
 13 42  1  0
 14 15  1  0
 15 16  1  0
 15 26  1  0
 16 17  1  0
 17 18  1  6
 17 19  1  0
 19 20  1  0
 19 23  1  0
 20 21  1  0
 21 22  1  0
 23 24  1  0
 24 25  1  0
 26 27  1  1
 26 37  1  0
 27 28  2  0
 27 32  1  0
 28 29  1  0
 29 30  2  0
 30 31  1  0
 31 32  2  0
 32 33  1  0
 33 34  1  0
 34 35  1  0
 34 36  2  0
 37 38  2  0
 37 42  1  0
 38 39  1  0
 39 40  2  0
 40 41  1  0
 41 42  2  0
 43 44  2  0
M  END
