
     RDKit          3D

 44 48  0  0  0  0  0  0  0  0999 V2000
    0.9230    4.3500    1.0770 C   0  0  0  0  0  0  0  0  0  0  0  0
    0.3060    3.4300    0.0760 C   0  0  0  0  0  0  0  0  0  0  0  0
    1.1980    2.4060   -0.3120 O   0  0  0  0  0  0  0  0  0  0  0  0
    0.4050    1.3870   -1.4700 P   0  0  0  0  0  0  0  0  0  0  0  0
    1.2680   -0.1090   -1.6050 O   0  0  0  0  0  0  0  0  0  0  0  0
    1.8250   -0.4840   -0.4030 C   0  0  1  0  0  0  0  0  0  0  0  0
    1.2760   -1.8030    0.0750 C   0  0  0  0  0  0  0  0  0  0  0  0
    3.2900   -0.5190   -0.4690 N   0  0  0  0  0  0  0  0  0  0  0  0
    3.8340   -0.2730   -1.6120 C   0  0  0  0  0  0  0  0  0  0  0  0
    3.1330    0.0180   -2.7600 O   0  0  0  0  0  0  0  0  0  0  0  0
    3.6550    0.2100   -4.0280 C   0  0  0  0  0  0  0  0  0  0  0  0
    5.1280    0.2700   -4.1420 C   0  0  0  0  0  0  0  0  0  0  0  0
    5.8630   -0.0440   -2.8990 C   0  0  0  0  0  0  0  0  0  0  0  0
    7.2330   -0.0750   -2.9700 C   0  0  0  0  0  0  0  0  0  0  0  0
    8.0200   -0.3630   -1.8420 C   0  0  0  0  0  0  0  0  0  0  0  0
    7.4490   -0.6270   -0.6200 C   0  0  0  0  0  0  0  0  0  0  0  0
    8.2600   -0.9320    0.5760 C   0  0  0  0  0  0  0  0  0  0  0  0
    9.5730   -0.9690    0.5440 C   0  0  0  0  0  0  0  0  0  0  0  0
   10.3920   -1.2740    1.7360 C   0  0  2  0  0  0  0  0  0  0  0  0
   11.3460   -0.1150    2.0420 C   0  0  0  0  0  0  0  0  0  0  0  0
   11.1810   -2.3950    1.4070 O   0  0  0  0  0  0  0  0  0  0  0  0
    9.6820   -1.5230    2.9000 O   0  0  0  0  0  0  0  0  0  0  0  0
    8.3190   -1.4930    2.9720 C   0  0  0  0  0  0  0  0  0  0  0  0
    7.6340   -1.2130    1.8700 C   0  0  0  0  0  0  0  0  0  0  0  0
    6.0720   -0.5900   -0.5740 C   0  0  0  0  0  0  0  0  0  0  0  0
    5.2870   -0.3020   -1.7000 C   0  0  0  0  0  0  0  0  0  0  0  0
   -1.3140    1.0470   -0.9220 C   0  0  0  0  0  0  0  0  0  0  0  0
   -1.5820    0.5620    0.3400 C   0  0  0  0  0  0  0  0  0  0  0  0
   -2.8810    0.3100    0.7390 C   0  0  0  0  0  0  0  0  0  0  0  0
   -3.9640    0.5330   -0.1090 C   0  0  0  0  0  0  0  0  0  0  0  0
   -5.2900    0.2750    0.3030 N   0  0  0  0  0  0  0  0  0  0  0  0
   -6.3700    0.5300   -0.6300 C   0  0  0  0  0  0  0  0  0  0  0  0
   -7.7190    0.1970   -0.0270 C   0  0  1  0  0  0  0  0  0  0  0  0
   -7.7390   -1.2810    0.2640 C   0  0  0  0  0  0  0  0  0  0  0  0
   -9.0320   -1.5950    0.8400 N   0  0  0  0  0  0  0  0  0  0  0  0
   -8.9960   -2.5990    1.8340 C   0  0  0  0  0  0  0  0  0  0  0  0
  -10.2550   -3.0110    2.4990 C   0  0  0  0  0  0  0  0  0  0  0  0
   -7.9240   -3.1600    2.1750 O   0  0  0  0  0  0  0  0  0  0  0  0
  -10.2860   -0.9890    0.4900 C   0  0  0  0  0  0  0  0  0  0  0  0
  -10.2320    0.4950    0.7870 C   0  0  0  0  0  0  0  0  0  0  0  0
   -9.1000    0.8500    1.7120 C   0  0  0  0  0  0  0  0  0  0  0  0
   -7.8870    0.9850    1.0890 O   0  0  0  0  0  0  0  0  0  0  0  0
   -3.6870    1.0180   -1.3690 C   0  0  0  0  0  0  0  0  0  0  0  0
   -2.3930    1.2720   -1.7730 C   0  0  0  0  0  0  0  0  0  0  0  0
  1  2  1  0
  2  3  1  0
  3  4  1  0
  4  5  1  0
  4 27  1  0
  5  6  1  0
  6  7  1  6
  6  8  1  0
  8  9  2  3
  9 10  1  0
  9 26  1  0
 10 11  1  0
 11 12  1  0
 12 13  1  0
 13 14  2  0
 13 26  1  0
 14 15  1  0
 15 16  2  0
 16 17  1  0
 16 25  1  0
 17 18  2  0
 17 24  1  0
 18 19  1  0
 19 20  1  1
 19 21  1  0
 19 22  1  0
 22 23  1  0
 23 24  2  0
 25 26  2  0
 27 28  2  0
 27 44  1  0
 28 29  1  0
 29 30  2  0
 30 31  1  0
 30 43  1  0
 31 32  1  0
 33 32  1  1
 33 34  1  0
 33 42  1  0
 34 35  1  0
 35 36  1  0
 35 39  1  0
 36 37  1  0
 36 38  2  0
 39 40  1  0
 40 41  1  0
 41 42  1  0
 43 44  2  0
M  END
