
     RDKit          3D

 13 12  0  0  0  0  0  0  0  0999 V2000
   -3.6030    1.7520    0.1370 N   0  0  0  0  0  0  0  0  0  0  0  0
   -2.6620    1.0910    1.0180 C   0  0  0  0  0  0  0  0  0  0  0  0
   -1.6040    0.4800    0.1820 C   0  0  1  0  0  0  0  0  0  0  0  0
   -0.5120   -0.1040    0.9230 N   0  0  0  0  0  0  0  0  0  0  0  0
    0.2620   -0.9360    0.0080 C   0  0  0  0  0  0  0  0  0  0  0  0
    1.6040   -1.2740    0.5740 C   0  0  0  0  0  0  0  0  0  0  0  0
    2.5340   -0.0900    0.6920 C   0  0  0  0  0  0  0  0  0  0  0  0
    3.3520    0.2050   -0.9430 P   0  0  0  0  0  0  0  0  0  0  0  0
    3.8330    1.8420   -1.1870 O   0  0  0  0  0  0  0  0  0  0  0  0
    4.7840   -0.8190   -1.0100 O   0  0  0  0  0  0  0  0  0  0  0  0
   -2.1980   -0.4760   -0.7980 C   0  0  0  0  0  0  0  0  0  0  0  0
   -2.1010   -0.3610   -2.0170 O   0  0  0  0  0  0  0  0  0  0  0  0
   -2.9560   -1.5280   -0.2660 O   0  0  0  0  0  0  0  0  0  0  0  0
  1  2  1  0
  3  2  1  1
  3  4  1  0
  3 11  1  0
  4  5  1  0
  5  6  1  0
  6  7  1  0
  7  8  1  0
  8  9  1  0
  8 10  1  0
 11 12  2  0
 11 13  1  0
M  END
