
     RDKit          3D

 15 16  0  0  0  0  0  0  0  0999 V2000
    3.9750    2.1560   -0.7900 C   0  0  0  0  0  0  0  0  0  0  0  0
    3.2530    1.4600    0.2340 N   0  0  0  0  0  0  0  0  0  0  0  0
    2.2730    0.4760   -0.0860 C   0  0  0  0  0  0  0  0  0  0  0  0
    1.8880    0.0650   -1.3460 C   0  0  0  0  0  0  0  0  0  0  0  0
    0.9400   -0.8760   -1.1850 N   0  0  0  0  0  0  0  0  0  0  0  0
    0.6880   -1.0990    0.0930 N   0  0  0  0  0  0  0  0  0  0  0  0
   -0.2690   -2.0410    0.6240 C   0  0  0  0  0  0  0  0  0  0  0  0
   -1.5260   -1.7270    0.7690 C   0  0  0  0  0  0  0  0  0  0  0  0
   -2.4660   -2.7190    1.3130 C   0  0  0  0  0  0  0  0  0  0  0  0
   -2.0030   -0.4100    0.3980 C   0  0  0  0  0  0  0  0  0  0  0  0
   -1.2730    0.6210   -0.1180 N   0  0  0  0  0  0  0  0  0  0  0  0
   -2.0570    1.6900   -0.3380 C   0  0  0  0  0  0  0  0  0  0  0  0
   -3.3190    1.3460    0.0420 C   0  0  0  0  0  0  0  0  0  0  0  0
   -3.2690    0.0790    0.4820 N   0  0  0  0  0  0  0  0  0  0  0  0
    1.5010   -0.2740    0.7760 C   0  0  0  0  0  0  0  0  0  0  0  0
  1  2  1  0
  2  3  1  0
  3  4  1  0
  3 15  2  0
  4  5  2  0
  5  6  1  0
  6  7  1  0
  6 15  1  0
  7  8  2  3
  8  9  1  0
  8 10  1  0
 10 11  2  0
 10 14  1  0
 11 12  1  0
 12 13  2  0
 13 14  1  0
M  END
