
     RDKit          3D

 26 28  0  0  0  0  0  0  0  0999 V2000
    4.6180   -2.3340    1.7180 N   0  0  0  0  0  0  0  0  0  0  0  0
    3.9560   -2.2550    0.4400 C   0  0  0  0  0  0  0  0  0  0  0  0
    4.3380   -3.0500   -0.4800 N   0  0  0  0  0  0  0  0  0  0  0  0
    2.9020   -1.3070    0.2410 N   0  0  0  0  0  0  0  0  0  0  0  0
    2.8420   -0.6020   -0.9730 C   0  0  0  0  0  0  0  0  0  0  0  0
    3.7710   -0.7960   -1.9330 N   0  0  0  0  0  0  0  0  0  0  0  0
    3.7700   -0.1490   -3.1040 C   0  0  0  0  0  0  0  0  0  0  0  0
    2.7970    0.7760   -3.4040 C   0  0  0  0  0  0  0  0  0  0  0  0
    2.7420    1.6540   -4.9150 Cl  0  0  0  0  0  0  0  0  0  0  0  0
    1.8250    0.9910   -2.4190 C   0  0  0  0  0  0  0  0  0  0  0  0
    0.8170    1.9100   -2.6590 C   0  0  0  0  0  0  0  0  0  0  0  0
   -0.1590    2.1490   -1.7140 C   0  0  0  0  0  0  0  0  0  0  0  0
   -0.1720    1.5000   -0.5210 C   0  0  0  0  0  0  0  0  0  0  0  0
   -1.3510    1.7210    0.7390 S   0  0  1  0  0  0  0  0  0  0  0  0
   -0.6500    1.5680    2.0590 O   0  0  0  0  0  0  0  0  0  0  0  0
   -1.8160    3.1630    0.6520 O   0  0  0  0  0  0  0  0  0  0  0  0
   -2.6910    0.6560    0.5870 N   0  0  0  0  0  0  0  0  0  0  0  0
   -2.2390   -0.7130    0.6840 C   0  0  0  0  0  0  0  0  0  0  0  0
   -3.4790   -1.4370    1.2150 C   0  0  0  0  0  0  0  0  0  0  0  0
   -3.9420   -0.4580    2.2750 C   0  0  0  0  0  0  0  0  0  0  0  0
   -3.5740    0.8850    1.7010 C   0  0  2  0  0  0  0  0  0  0  0  0
   -4.7580    1.6840    1.3030 C   0  0  0  0  0  0  0  0  0  0  0  0
   -5.6570    2.0000    2.1190 O   0  0  0  0  0  0  0  0  0  0  0  0
   -4.9030    2.1100   -0.0090 O   0  0  0  0  0  0  0  0  0  0  0  0
    0.8430    0.5730   -0.2760 C   0  0  0  0  0  0  0  0  0  0  0  0
    1.8300    0.3160   -1.2040 C   0  0  0  0  0  0  0  0  0  0  0  0
  1  2  1  0
  2  3  2  0
  2  4  1  0
  4  5  1  0
  5  6  2  0
  5 26  1  0
  6  7  1  0
  7  8  2  0
  8  9  1  0
  8 10  1  0
 10 11  2  0
 10 26  1  0
 11 12  1  0
 12 13  2  0
 13 14  1  0
 13 25  1  0
 14 15  2  0
 14 16  2  0
 14 17  1  6
 17 18  1  0
 17 21  1  0
 18 19  1  0
 19 20  1  0
 20 21  1  0
 21 22  1  6
 22 23  2  0
 22 24  1  0
 25 26  2  0
M  CHG  1   3   1
M  END
