
     RDKit          3D

 21 22  0  0  0  0  0  0  0  0999 V2000
   -0.1300    1.8930   -1.5950 C   0  0  0  0  0  0  0  0  0  0  0  0
    0.6410    1.1250   -0.5780 C   0  0  0  0  0  0  0  0  0  0  0  0
    1.9580    1.0250   -0.6590 C   0  0  0  0  0  0  0  0  0  0  0  0
    2.7180    0.3080    0.2830 N   0  0  0  0  0  0  0  0  0  0  0  0
    4.1400    0.2880    0.0670 C   0  0  0  0  0  0  0  0  0  0  0  0
    4.6770   -0.6040   -0.7200 C   0  0  0  0  0  0  0  0  0  0  0  0
    6.1280   -0.6400   -0.9520 C   0  0  0  0  0  0  0  0  0  0  0  0
    6.7700    0.4110   -0.2030 N   0  0  0  0  0  0  0  0  0  0  0  0
    2.1520   -0.3790    1.4100 C   0  0  0  0  0  0  0  0  0  0  0  0
    0.6870   -0.2150    1.4220 C   0  0  0  0  0  0  0  0  0  0  0  0
   -0.0190    0.4590    0.5360 C   0  0  0  0  0  0  0  0  0  0  0  0
   -1.4080    0.5670    0.6180 O   0  0  0  0  0  0  0  0  0  0  0  0
   -2.1650   -0.5600    0.3450 C   0  0  0  0  0  0  0  0  0  0  0  0
   -1.5770   -1.7580    0.0030 C   0  0  0  0  0  0  0  0  0  0  0  0
   -2.3090   -2.9050   -0.2760 C   0  0  0  0  0  0  0  0  0  0  0  0
   -3.6770   -2.8510   -0.2090 C   0  0  0  0  0  0  0  0  0  0  0  0
   -4.2970   -1.6730    0.1290 C   0  0  0  0  0  0  0  0  0  0  0  0
   -3.5530   -0.5380    0.4040 C   0  0  0  0  0  0  0  0  0  0  0  0
   -4.1980    0.7250    0.7660 C   0  0  2  0  0  0  0  0  0  0  0  0
   -5.7110    0.5200    0.7820 C   0  0  0  0  0  0  0  0  0  0  0  0
   -3.9150    1.8460   -0.1880 C   0  0  0  0  0  0  0  0  0  0  0  0
  1  2  1  0
  2  3  2  0
  2 11  1  0
  3  4  1  0
  4  5  1  0
  4  9  1  0
  5  6  2  3
  6  7  1  0
  7  8  1  0
  9 10  1  0
 10 11  2  0
 11 12  1  0
 12 13  1  0
 13 14  2  0
 13 18  1  0
 14 15  1  0
 15 16  2  0
 16 17  1  0
 17 18  2  0
 18 19  1  0
 19 20  1  6
 19 21  1  0
M  CHG  1   8   1
M  END
