
     RDKit          3D

 21 22  0  0  0  0  0  0  0  0999 V2000
    3.4190   -1.5420   -1.3250 C   0  0  0  0  0  0  0  0  0  0  0  0
    3.9210   -0.3600   -1.1790 C   0  0  0  0  0  0  0  0  0  0  0  0
    3.2400    0.8240   -0.7100 C   0  0  0  0  0  0  0  0  0  0  0  0
    3.9640    1.9640   -0.6740 C   0  0  0  0  0  0  0  0  0  0  0  0
    5.3830    1.9670   -1.1000 C   0  0  0  0  0  0  0  0  0  0  0  0
    1.8330    0.8830   -0.3030 C   0  0  0  0  0  0  0  0  0  0  0  0
    1.5780    0.0910    0.9230 C   0  0  1  0  0  0  0  0  0  0  0  0
    2.3720    0.5860    2.0570 N   0  0  0  0  0  0  0  0  0  0  0  0
    0.1260    0.1590    1.3390 C   0  0  0  0  0  0  0  0  0  0  0  0
   -0.1420    0.5820    2.4690 O   0  0  0  0  0  0  0  0  0  0  0  0
   -0.9000   -0.2460    0.4740 N   0  0  0  0  0  0  0  0  0  0  0  0
   -2.3000   -0.2510    0.6960 C   0  0  0  0  0  0  0  0  0  0  0  0
   -2.8260    0.1820    1.8930 C   0  0  0  0  0  0  0  0  0  0  0  0
   -4.1890    0.1950    2.1540 C   0  0  0  0  0  0  0  0  0  0  0  0
   -5.0340   -0.2390    1.1830 C   0  0  0  0  0  0  0  0  0  0  0  0
   -4.5380   -0.6770   -0.0210 C   0  0  0  0  0  0  0  0  0  0  0  0
   -5.4190   -1.1180   -1.0030 C   0  0  0  0  0  0  0  0  0  0  0  0
   -4.9600   -1.5570   -2.2050 C   0  0  0  0  0  0  0  0  0  0  0  0
   -3.6180   -1.5640   -2.4490 C   0  0  0  0  0  0  0  0  0  0  0  0
   -2.7000   -1.1240   -1.4760 C   0  0  0  0  0  0  0  0  0  0  0  0
   -3.1870   -0.6920   -0.2850 C   0  0  0  0  0  0  0  0  0  0  0  0
  1  2  2  0
  2  3  1  0
  3  4  2  3
  3  6  1  0
  4  5  1  0
  6  7  1  0
  7  8  1  1
  7  9  1  0
  9 10  2  0
  9 11  1  0
 11 12  1  0
 12 13  2  0
 12 21  1  0
 13 14  1  0
 14 15  2  0
 15 16  1  0
 16 17  2  0
 16 21  1  0
 17 18  1  0
 18 19  2  0
 19 20  1  0
 20 21  2  0
M  CHG  1   8   1
M  END
