
     RDKit          3D

 21 21  0  0  0  0  0  0  0  0999 V2000
   -4.3550    1.1090   -2.1710 C   0  0  0  0  0  0  0  0  0  0  0  0
   -3.5300    2.2260   -1.6020 C   0  0  0  0  0  0  0  0  0  0  0  0
   -2.0560    2.1310   -1.9130 C   0  0  1  0  0  0  0  0  0  0  0  0
   -1.8920    2.1480   -3.4080 C   0  0  0  0  0  0  0  0  0  0  0  0
   -1.4510    3.4240   -1.3300 C   0  0  0  0  0  0  0  0  0  0  0  0
   -1.4140    1.0390   -1.2740 N   0  0  0  0  0  0  0  0  0  0  0  0
   -1.3140    0.8000    0.1020 C   0  0  0  0  0  0  0  0  0  0  0  0
   -2.2040   -0.0520    0.6760 C   0  0  0  0  0  0  0  0  0  0  0  0
   -2.0340   -0.2410    2.0970 C   0  0  0  0  0  0  0  0  0  0  0  0
   -3.1970   -1.2900    2.2270 O   0  0  0  0  0  0  0  0  0  0  0  0
   -0.2860    1.3700    0.9820 C   0  0  0  0  0  0  0  0  0  0  0  0
    1.0140    0.9790    0.4530 N   0  0  0  0  0  0  0  0  0  0  0  0
    1.4040   -0.3880    0.2800 C   0  0  0  0  0  0  0  0  0  0  0  0
    0.5710   -1.2710    0.5840 O   0  0  0  0  0  0  0  0  0  0  0  0
    2.7030   -0.6860   -0.2200 N   0  0  0  0  0  0  0  0  0  0  0  0
    3.1650   -2.0200   -0.4080 C   0  0  0  0  0  0  0  0  0  0  0  0
    3.2500   -2.8630    0.8120 C   0  0  1  0  0  0  0  0  0  0  0  0
    4.2230   -2.2820    1.8220 C   0  0  0  0  0  0  0  0  0  0  0  0
    3.5260   -2.6060    3.1290 C   0  0  0  0  0  0  0  0  0  0  0  0
    2.4880   -3.6090    2.7070 C   0  0  0  0  0  0  0  0  0  0  0  0
    2.0680   -3.0720    1.4880 O   0  0  0  0  0  0  0  0  0  0  0  0
  1  2  1  0
  2  3  1  0
  3  4  1  6
  3  5  1  0
  3  6  1  0
  6  7  1  0
  7  8  2  3
  7 11  1  0
  8  9  1  0
  9 10  2  0
 11 12  1  0
 12 13  1  0
 13 14  2  0
 13 15  1  0
 15 16  1  0
 17 16  1  6
 17 18  1  0
 17 21  1  0
 18 19  1  0
 19 20  1  0
 20 21  1  0
M  END
