
     RDKit          3D

 10 10  0  0  0  0  0  0  0  0999 V2000
   -1.5470    1.3450   -0.4600 N   0  0  0  0  0  0  0  0  0  0  0  0
   -1.2170    0.3280    0.5060 C   0  0  1  0  0  0  0  0  0  0  0  0
   -2.1240   -0.8780    0.2680 C   0  0  0  0  0  0  0  0  0  0  0  0
   -1.8370   -1.8950    1.1880 O   0  0  0  0  0  0  0  0  0  0  0  0
    0.2300   -0.0630    0.4760 C   0  0  1  0  0  0  0  0  0  0  0  0
    0.6280   -0.7260   -0.8020 C   0  0  0  0  0  0  0  0  0  0  0  0
    1.9510   -1.0780   -0.7880 O   0  0  0  0  0  0  0  0  0  0  0  0
    2.7510   -0.2350   -0.0330 C   0  0  0  0  0  0  0  0  0  0  0  0
    2.1440    1.1520    0.0090 C   0  0  0  0  0  0  0  0  0  0  0  0
    0.9800    1.0760    0.7540 O   0  0  0  0  0  0  0  0  0  0  0  0
  2  1  1  6
  2  3  1  0
  2  5  1  0
  3  4  1  0
  5  6  1  6
  5 10  1  0
  6  7  1  0
  7  8  1  0
  8  9  1  0
  9 10  1  0
M  CHG  1   1   1
M  END
