
     RDKit          3D

 10 10  0  0  0  0  0  0  0  0999 V2000
   -1.6400    0.3590   -1.1170 N   0  0  0  0  0  0  0  0  0  0  0  0
   -0.9020    0.3240    0.1110 C   0  0  1  0  0  0  0  0  0  0  0  0
   -1.7580   -0.3550    1.1870 C   0  0  0  0  0  0  0  0  0  0  0  0
   -2.9230    0.3730    1.3530 O   0  0  0  0  0  0  0  0  0  0  0  0
    0.3790   -0.5090   -0.0370 C   0  0  1  0  0  0  0  0  0  0  0  0
    0.0370   -1.7990   -0.3920 O   0  0  0  0  0  0  0  0  0  0  0  0
    1.2830    0.1330   -1.0690 C   0  0  0  0  0  0  0  0  0  0  0  0
    2.1530    0.9640   -0.1460 C   0  0  0  0  0  0  0  0  0  0  0  0
    2.3350   -0.0830    0.9620 C   0  0  0  0  0  0  0  0  0  0  0  0
    1.0440   -0.4940    1.1670 O   0  0  0  0  0  0  0  0  0  0  0  0
  2  1  1  6
  2  3  1  0
  2  5  1  0
  3  4  1  0
  5  6  1  6
  5  7  1  0
  5 10  1  0
  7  8  1  0
  8  9  1  0
  9 10  1  0
M  CHG  1   1   1
M  END
