
     RDKit          3D

 10 10  0  0  0  0  0  0  0  0999 V2000
    2.6130    0.6340    0.5800 C   0  0  0  0  0  0  0  0  0  0  0  0
    1.9050    1.1890   -0.4270 O   0  0  0  0  0  0  0  0  0  0  0  0
    1.2350    0.4200   -1.3080 C   0  0  0  0  0  0  0  0  0  0  0  0
    0.1760   -0.4100   -0.6850 C   0  0  1  0  0  0  0  0  0  0  0  0
    0.5820   -1.3230    0.2500 O   0  0  0  0  0  0  0  0  0  0  0  0
   -0.4740   -1.6290    1.0670 C   0  0  0  0  0  0  0  0  0  0  0  0
   -1.5050   -0.5350    0.9130 C   0  0  2  0  0  0  0  0  0  0  0  0
   -2.5340   -1.0260    0.1220 O   0  0  0  0  0  0  0  0  0  0  0  0
   -0.7200    0.5110    0.1580 C   0  0  2  0  0  0  0  0  0  0  0  0
   -1.5580    1.3270   -0.6860 N   0  0  0  0  0  0  0  0  0  0  0  0
  1  2  1  0
  2  3  1  0
  4  3  1  1
  4  5  1  0
  4  9  1  0
  5  6  1  0
  6  7  1  0
  7  8  1  6
  7  9  1  0
  9 10  1  6
M  CHG  1  10   1
M  END
