
     RDKit          3D

 10 10  0  0  0  0  0  0  0  0999 V2000
   -1.8390    1.9220   -0.1250 C   0  0  0  0  0  0  0  0  0  0  0  0
   -1.4170    0.8830    0.6810 O   0  0  0  0  0  0  0  0  0  0  0  0
   -0.6190   -0.0380    0.1040 C   0  0  1  0  0  0  0  0  0  0  0  0
    0.7020   -0.2630    0.7580 C   0  0  2  0  0  0  0  0  0  0  0  0
    1.8830    0.1290   -0.0700 C   0  0  0  0  0  0  0  0  0  0  0  0
    1.9270    1.5240   -0.4180 N   0  0  0  0  0  0  0  0  0  0  0  0
    0.8200   -1.6400    1.0020 O   0  0  0  0  0  0  0  0  0  0  0  0
    0.1230   -2.2130   -0.0730 C   0  0  0  0  0  0  0  0  0  0  0  0
   -1.1840   -1.4390    0.0350 C   0  0  1  0  0  0  0  0  0  0  0  0
   -1.7720   -1.8500    1.2070 O   0  0  0  0  0  0  0  0  0  0  0  0
  1  2  1  0
  3  2  1  1
  3  4  1  0
  3  9  1  0
  4  5  1  6
  4  7  1  0
  5  6  1  0
  7  8  1  0
  8  9  1  0
  9 10  1  1
M  CHG  1   6   1
M  END
