
     RDKit          3D

 11 11  0  0  0  0  0  0  0  0999 V2000
    2.9320    1.0590    0.3920 N   0  0  0  0  0  0  0  0  0  0  0  0
    2.1560    0.7160   -0.6610 O   0  0  0  0  0  0  0  0  0  0  0  0
    1.3840   -0.3580   -0.2960 C   0  0  2  0  0  0  0  0  0  0  0  0
    1.7470   -1.4320   -1.1260 O   0  0  0  0  0  0  0  0  0  0  0  0
   -0.0970   -0.1160   -0.4850 C   0  0  2  0  0  0  0  0  0  0  0  0
   -0.3560    0.1540   -1.8300 O   0  0  0  0  0  0  0  0  0  0  0  0
   -0.5750    1.0660    0.3100 C   0  0  0  0  0  0  0  0  0  0  0  0
   -2.0640    1.0220    0.5000 C   0  0  0  0  0  0  0  0  0  0  0  0
   -2.6080    0.1120   -0.4030 O   0  0  0  0  0  0  0  0  0  0  0  0
   -2.2940   -1.1730    0.0910 C   0  0  0  0  0  0  0  0  0  0  0  0
   -0.8140   -1.3870   -0.1300 C   0  0  0  0  0  0  0  0  0  0  0  0
  1  2  1  0
  2  3  1  0
  3  4  1  6
  3  5  1  0
  5  6  1  6
  5  7  1  0
  5 11  1  0
  7  8  1  0
  8  9  1  0
  9 10  1  0
 10 11  1  0
M  CHG  1   1   1
M  END
