
     RDKit          3D

 12 12  0  0  0  0  0  0  0  0999 V2000
    4.8840    0.2300    0.1160 C   0  0  0  0  0  0  0  0  0  0  0  0
    3.0840    0.2100    0.2850 S   0  0  0  0  0  0  0  0  0  0  0  0
    2.3160   -1.0440   -0.7020 C   0  0  0  0  0  0  0  0  0  0  0  0
    3.0140   -1.8150   -1.4300 N   0  0  0  0  0  0  0  0  0  0  0  0
    0.5580   -1.2230   -0.6730 S   0  0  0  0  0  0  0  0  0  0  0  0
   -0.1250    0.0180    0.4540 C   0  0  0  0  0  0  0  0  0  0  0  0
   -1.6030   -0.0550    0.5440 C   0  0  0  0  0  0  0  0  0  0  0  0
   -2.4140    0.6500   -0.2850 N   0  0  0  0  0  0  0  0  0  0  0  0
   -3.6710    0.3560    0.0640 C   0  0  0  0  0  0  0  0  0  0  0  0
   -4.8580    0.9400   -0.6200 C   0  0  0  0  0  0  0  0  0  0  0  0
   -3.6120   -0.5070    1.0790 N   0  0  0  0  0  0  0  0  0  0  0  0
   -2.3600   -0.7290    1.3380 O   0  0  0  0  0  0  0  0  0  0  0  0
  1  2  1  0
  2  3  1  0
  3  4  2  0
  3  5  1  0
  5  6  1  0
  6  7  1  0
  7  8  2  0
  7 12  1  0
  8  9  1  0
  9 10  1  0
  9 11  2  0
 11 12  1  0
M  END
