
     RDKit          3D

 13 13  0  0  0  0  0  0  0  0999 V2000
    4.7530    0.9520    0.5270 C   0  0  0  0  0  0  0  0  0  0  0  0
    3.8290   -0.1060    0.3290 O   0  0  0  0  0  0  0  0  0  0  0  0
    2.4700    0.1240    0.6160 C   0  0  0  0  0  0  0  0  0  0  0  0
    2.0660    1.2330    1.0360 O   0  0  0  0  0  0  0  0  0  0  0  0
    1.4940   -0.8960    0.4390 N   0  0  0  0  0  0  0  0  0  0  0  0
    0.1090   -0.7200    0.7120 C   0  0  0  0  0  0  0  0  0  0  0  0
   -0.6130    0.0600   -0.3110 C   0  0  0  0  0  0  0  0  0  0  0  0
    0.2020    0.7230   -1.3210 N   0  0  0  0  0  0  0  0  0  0  0  0
   -1.1190    1.5410   -2.3450 S   0  0  0  0  0  0  0  0  0  0  0  0
   -2.4160    0.9300   -1.3640 C   0  0  0  0  0  0  0  0  0  0  0  0
   -4.2110    1.2170   -1.5970 S   0  0  0  0  0  0  0  0  0  0  0  0
   -5.1230    0.3580   -0.3160 C   0  0  0  0  0  0  0  0  0  0  0  0
   -1.8470    0.2530   -0.4650 N   0  0  0  0  0  0  0  0  0  0  0  0
  1  2  1  0
  2  3  1  0
  3  4  2  0
  3  5  1  0
  5  6  1  0
  6  7  1  0
  7  8  2  0
  7 13  1  0
  8  9  1  0
  9 10  1  0
 10 11  1  0
 10 13  2  0
 11 12  1  0
M  END
