
     RDKit          3D

 13 13  0  0  0  0  0  0  0  0999 V2000
    3.9990   -1.6740    0.1980 C   0  0  0  0  0  0  0  0  0  0  0  0
    3.8250   -0.0410   -0.5280 S   0  0  0  0  0  0  0  0  0  0  0  0
    2.1180    0.5000   -0.5340 C   0  0  0  0  0  0  0  0  0  0  0  0
    1.1210   -0.2620   -0.0410 N   0  0  0  0  0  0  0  0  0  0  0  0
   -0.1520    0.1680   -0.0570 C   0  0  0  0  0  0  0  0  0  0  0  0
   -1.5070   -0.8190    0.5900 S   0  0  0  0  0  0  0  0  0  0  0  0
   -3.0790    0.0120    0.4320 C   0  0  0  0  0  0  0  0  0  0  0  0
   -4.1450   -0.8460    0.9780 C   0  0  0  0  0  0  0  0  0  0  0  0
   -3.8990   -1.9440    1.4480 O   0  0  0  0  0  0  0  0  0  0  0  0
   -0.3800    1.3850   -0.5840 N   0  0  0  0  0  0  0  0  0  0  0  0
    0.6080    2.1530   -1.0780 C   0  0  0  0  0  0  0  0  0  0  0  0
    0.3830    3.3040   -1.5750 O   0  0  0  0  0  0  0  0  0  0  0  0
    1.8760    1.7190   -1.0590 N   0  0  0  0  0  0  0  0  0  0  0  0
  1  2  1  0
  2  3  1  0
  3  4  1  0
  3 13  2  0
  4  5  2  0
  5  6  1  0
  5 10  1  0
  6  7  1  0
  7  8  1  0
  8  9  2  0
 10 11  1  0
 11 12  2  0
 11 13  1  0
M  END
