
     RDKit          3D

 13 13  0  0  0  0  0  0  0  0999 V2000
   -2.8800   -1.1980    0.6850 C   0  0  0  0  0  0  0  0  0  0  0  0
   -2.4210   -0.7320   -0.6980 C   0  0  0  0  0  0  0  0  0  0  0  0
   -1.7020    0.4990   -0.5190 N   0  0  0  0  0  0  0  0  0  0  0  0
   -2.4060    2.1100   -0.5490 S   0  0  0  0  0  0  0  0  0  0  0  0
   -0.7510    2.9610   -0.2390 C   0  0  0  0  0  0  0  0  0  0  0  0
   -0.6570    4.5910   -0.1400 S   0  0  0  0  0  0  0  0  0  0  0  0
   -0.0670    2.0030   -0.1790 N   0  0  0  0  0  0  0  0  0  0  0  0
   -0.4210    0.7520   -0.3010 C   0  0  0  0  0  0  0  0  0  0  0  0
    0.5090   -0.3560   -0.2090 N   0  0  0  0  0  0  0  0  0  0  0  0
    1.8920   -0.1460    0.0230 C   0  0  0  0  0  0  0  0  0  0  0  0
    2.2580    1.0710    0.1450 O   0  0  0  0  0  0  0  0  0  0  0  0
    2.8230   -1.1620    0.1200 O   0  0  0  0  0  0  0  0  0  0  0  0
    4.1790   -0.8350    0.3540 C   0  0  0  0  0  0  0  0  0  0  0  0
  1  2  1  0
  2  3  1  0
  3  4  1  0
  3  8  1  0
  4  5  1  0
  5  6  2  0
  5  7  1  0
  7  8  2  0
  8  9  1  0
  9 10  1  0
 10 11  2  0
 10 12  1  0
 12 13  1  0
M  END
