
     RDKit          3D

 22 23  0  0  0  0  0  0  0  0999 V2000
    4.1580    1.3160    1.8890 C   0  0  0  0  0  0  0  0  0  0  0  0
    4.2970    1.2760    0.5950 C   0  0  0  0  0  0  0  0  0  0  0  0
    5.4770    1.6130   -0.0070 O   0  0  0  0  0  0  0  0  0  0  0  0
    3.1640    0.8580   -0.2640 C   0  0  0  0  0  0  0  0  0  0  0  0
    3.3410    0.8310   -1.5640 C   0  0  0  0  0  0  0  0  0  0  0  0
    4.6240    1.2050   -2.0980 N   0  0  0  0  0  0  0  0  0  0  0  0
    2.3420    0.4670   -2.4940 N   0  0  0  0  0  0  0  0  0  0  0  0
    1.0580    0.1090   -1.9690 C   0  0  0  0  0  0  0  0  0  0  0  0
    0.1790   -0.2140   -2.8110 O   0  0  0  0  0  0  0  0  0  0  0  0
    0.7980    0.1210   -0.5590 C   0  0  0  0  0  0  0  0  0  0  0  0
   -0.3410   -0.1600    0.0000 C   0  0  0  0  0  0  0  0  0  0  0  0
   -1.5560   -0.5350   -0.6840 C   0  0  0  0  0  0  0  0  0  0  0  0
   -2.6800   -0.8050   -0.0010 C   0  0  0  0  0  0  0  0  0  0  0  0
   -3.8710   -1.1680   -0.5890 O   0  0  0  0  0  0  0  0  0  0  0  0
   -4.7700   -1.6390    0.3370 C   0  0  0  0  0  0  0  0  0  0  0  0
   -5.9860   -2.0570    0.0690 C   0  0  0  0  0  0  0  0  0  0  0  0
   -4.1120   -1.5780    1.6450 C   0  0  0  0  0  0  0  0  0  0  0  0
   -4.5860   -2.1510    2.6910 N   0  0  0  0  0  0  0  0  0  0  0  0
   -2.8900   -0.7760    1.4710 C   0  0  2  0  0  0  0  0  0  0  0  0
   -3.1140    0.6120    1.9990 C   0  0  0  0  0  0  0  0  0  0  0  0
    1.9080    0.4850    0.3680 C   0  0  1  0  0  0  0  0  0  0  0  0
    2.1810   -0.6080    1.2220 O   0  0  0  0  0  0  0  0  0  0  0  0
  1  2  2  0
  2  3  1  0
  2  4  1  0
  4  5  2  0
  4 21  1  0
  5  6  1  0
  5  7  1  0
  7  8  1  0
  8  9  2  0
  8 10  1  0
 10 11  2  3
 10 21  1  0
 11 12  1  0
 12 13  2  3
 13 14  1  0
 13 19  1  0
 14 15  1  0
 15 16  2  0
 15 17  1  0
 17 18  2  0
 17 19  1  0
 19 20  1  6
 21 22  1  1
M  END
