
     RDKit          3D

  8  7  0  0  0  0  0  0  0  0999 V2000
   -1.3420    0.7810    0.9330 C   0  0  0  0  0  0  0  0  0  0  0  0
   -1.2840    0.0220   -0.1280 C   0  0  0  0  0  0  0  0  0  0  0  0
   -2.4880   -0.2090   -0.9650 C   0  0  0  0  0  0  0  0  0  0  0  0
   -2.7290   -1.5980   -0.9540 O   0  0  0  0  0  0  0  0  0  0  0  0
   -0.1060   -0.5960   -0.5170 O   0  0  0  0  0  0  0  0  0  0  0  0
    1.1120   -0.2050    0.0540 C   0  0  0  0  0  0  0  0  0  0  0  0
    2.1600   -0.9650   -0.4900 O   0  0  0  0  0  0  0  0  0  0  0  0
    3.3320   -0.4960    0.1470 C   0  0  0  0  0  0  0  0  0  0  0  0
  1  2  2  0
  2  3  1  0
  2  5  1  0
  3  4  1  0
  5  6  1  0
  6  7  1  0
  7  8  1  0
M  END
