
     RDKit          3D

 22 24  0  0  0  0  0  0  0  0999 V2000
   -0.9430    1.5210    2.5420 N   0  0  0  0  0  0  0  0  0  0  0  0
   -0.7030    0.2500    1.8490 C   0  0  1  0  0  0  0  0  0  0  0  0
   -1.9630   -0.2820    1.3030 C   0  0  0  0  0  0  0  0  0  0  0  0
   -2.6220    0.0250    0.1850 C   0  0  0  0  0  0  0  0  0  0  0  0
   -3.8380   -0.7260   -0.0020 C   0  0  0  0  0  0  0  0  0  0  0  0
   -4.6200   -0.5970   -1.0270 C   0  0  0  0  0  0  0  0  0  0  0  0
   -5.8700   -1.4260   -1.1320 C   0  0  0  0  0  0  0  0  0  0  0  0
   -5.8760   -2.2210   -2.2560 O   0  0  0  0  0  0  0  0  0  0  0  0
   -2.2240    1.0260   -0.7960 C   0  0  0  0  0  0  0  0  0  0  0  0
   -3.1160    1.6730   -1.3380 O   0  0  0  0  0  0  0  0  0  0  0  0
   -0.8550    1.2820   -1.1460 N   0  0  0  0  0  0  0  0  0  0  0  0
    0.3280    0.8410   -0.4540 C   0  0  0  0  0  0  0  0  0  0  0  0
    1.5750    0.7880   -0.9650 N   0  0  0  0  0  0  0  0  0  0  0  0
    2.3790    0.3130    0.0050 C   0  0  0  0  0  0  0  0  0  0  0  0
    3.8320    0.0800   -0.0860 C   0  0  0  0  0  0  0  0  0  0  0  0
    4.4850    0.3410   -1.2040 C   0  0  0  0  0  0  0  0  0  0  0  0
    5.9390    0.1190   -1.3300 C   0  0  0  0  0  0  0  0  0  0  0  0
    6.5280   -0.3850   -0.1570 O   0  0  0  0  0  0  0  0  0  0  0  0
    5.8520   -0.6540    0.9990 C   0  0  0  0  0  0  0  0  0  0  0  0
    4.5590   -0.4410    1.0630 C   0  0  0  0  0  0  0  0  0  0  0  0
    1.6510    0.0860    1.0640 O   0  0  0  0  0  0  0  0  0  0  0  0
    0.3690    0.3950    0.8410 C   0  0  0  0  0  0  0  0  0  0  0  0
  2  1  1  6
  2  3  1  0
  2 22  1  0
  3  4  2  0
  4  5  1  0
  4  9  1  0
  5  6  2  3
  6  7  1  0
  7  8  1  0
  9 10  2  0
  9 11  1  0
 11 12  1  0
 12 13  1  0
 12 22  2  0
 13 14  2  0
 14 15  1  0
 14 21  1  0
 15 16  2  0
 15 20  1  0
 16 17  1  0
 17 18  1  0
 18 19  1  0
 19 20  2  0
 21 22  1  0
M  END
