
     RDKit          3D

 22 24  0  0  0  0  0  0  0  0999 V2000
   -5.9340    1.9590   -0.8320 C   0  0  0  0  0  0  0  0  0  0  0  0
   -5.8830    0.8730    0.0470 O   0  0  0  0  0  0  0  0  0  0  0  0
   -4.7380    0.2140    0.4260 C   0  0  0  0  0  0  0  0  0  0  0  0
   -4.8280   -0.8410    1.2990 C   0  0  0  0  0  0  0  0  0  0  0  0
   -3.6750   -1.5240    1.6960 C   0  0  0  0  0  0  0  0  0  0  0  0
   -2.4280   -1.1630    1.2300 C   0  0  0  0  0  0  0  0  0  0  0  0
   -2.3550   -0.0980    0.3510 C   0  0  0  0  0  0  0  0  0  0  0  0
   -3.5060    0.5700   -0.0340 C   0  0  0  0  0  0  0  0  0  0  0  0
   -1.0690    0.3330   -0.1780 C   0  0  0  0  0  0  0  0  0  0  0  0
   -0.9980    1.3080   -0.9830 O   0  0  0  0  0  0  0  0  0  0  0  0
    0.1490   -0.3830    0.2380 C   0  0  0  0  0  0  0  0  0  0  0  0
    1.3060    0.0050   -0.2390 C   0  0  0  0  0  0  0  0  0  0  0  0
    1.4040    1.0980   -1.1430 N   0  0  0  0  0  0  0  0  0  0  0  0
    2.5130   -0.6500    0.1280 N   0  0  0  0  0  0  0  0  0  0  0  0
    3.5010    0.0930    0.8650 C   0  0  1  0  0  0  0  0  0  0  0  0
    4.7820   -0.5390    1.2880 C   0  0  0  0  0  0  0  0  0  0  0  0
    4.7350    0.5410    0.2180 C   0  0  1  0  0  0  0  0  0  0  0  0
    5.1730    0.0830   -1.1390 C   0  0  0  0  0  0  0  0  0  0  0  0
    4.2940    0.3760   -2.1550 O   0  0  0  0  0  0  0  0  0  0  0  0
    0.0310   -1.4870    1.1540 C   0  0  0  0  0  0  0  0  0  0  0  0
    1.0770   -2.1150    1.5220 O   0  0  0  0  0  0  0  0  0  0  0  0
   -1.2590   -1.8550    1.6330 N   0  0  0  0  0  0  0  0  0  0  0  0
  1  2  1  0
  2  3  1  0
  3  4  2  0
  3  8  1  0
  4  5  1  0
  5  6  2  0
  6  7  1  0
  6 22  1  0
  7  8  2  0
  7  9  1  0
  9 10  2  0
  9 11  1  0
 11 12  2  3
 11 20  1  0
 12 13  1  0
 12 14  1  0
 15 14  1  6
 15 16  1  0
 15 17  1  0
 16 17  1  0
 17 18  1  6
 18 19  1  0
 20 21  2  0
 20 22  1  0
M  END
