
     RDKit          3D

 14 14  0  0  0  0  0  0  0  0999 V2000
   -1.3840    2.1650   -0.1520 N   0  0  0  0  0  0  0  0  0  0  0  0
   -1.8170    0.7950    0.0420 C   0  0  2  0  0  0  0  0  0  0  0  0
   -2.2030    0.6960    1.3870 O   0  0  0  0  0  0  0  0  0  0  0  0
   -0.7180   -0.2030   -0.2360 C   0  0  1  0  0  0  0  0  0  0  0  0
    0.3330    0.0490    0.6240 O   0  0  0  0  0  0  0  0  0  0  0  0
    1.5310    0.2860    0.0620 C   0  0  2  0  0  0  0  0  0  0  0  0
    2.6160   -0.7110    0.3960 C   0  0  0  0  0  0  0  0  0  0  0  0
    3.8510    0.1770    0.1750 C   0  0  0  0  0  0  0  0  0  0  0  0
    3.4620    1.3240    0.8610 O   0  0  0  0  0  0  0  0  0  0  0  0
    2.1810    1.5900    0.3530 C   0  0  0  0  0  0  0  0  0  0  0  0
   -1.2720   -1.5700    0.1260 C   0  0  1  0  0  0  0  0  0  0  0  0
   -1.7090   -1.5500    1.4500 O   0  0  0  0  0  0  0  0  0  0  0  0
   -2.4360   -1.9680   -0.7390 C   0  0  0  0  0  0  0  0  0  0  0  0
   -2.0970   -2.0170   -2.0880 O   0  0  0  0  0  0  0  0  0  0  0  0
  2  1  1  1
  2  3  1  0
  2  4  1  0
  4  5  1  1
  4 11  1  0
  6  5  1  1
  6  7  1  0
  6 10  1  0
  7  8  1  0
  8  9  1  0
  9 10  1  0
 11 12  1  1
 11 13  1  0
 13 14  1  0
M  CHG  1   1   1
M  END
