
     RDKit          3D

 14 14  0  0  0  0  0  0  0  0999 V2000
   -0.3590   -1.9260    0.7350 N   0  0  0  0  0  0  0  0  0  0  0  0
   -0.5320   -1.2460   -0.5160 C   0  0  1  0  0  0  0  0  0  0  0  0
   -1.9010   -0.7460   -0.7780 C   0  0  0  0  0  0  0  0  0  0  0  0
   -2.5310    0.2050    0.1420 C   0  0  1  0  0  0  0  0  0  0  0  0
   -2.6870   -0.2170    1.4610 O   0  0  0  0  0  0  0  0  0  0  0  0
   -2.1130    1.6290    0.1110 C   0  0  0  0  0  0  0  0  0  0  0  0
   -3.1810    2.3570    0.7210 O   0  0  0  0  0  0  0  0  0  0  0  0
    0.6030   -0.3660   -0.9330 C   0  0  2  0  0  0  0  0  0  0  0  0
    1.7900   -1.0850   -1.1030 O   0  0  0  0  0  0  0  0  0  0  0  0
    2.5130   -0.9590    0.0710 C   0  0  0  0  0  0  0  0  0  0  0  0
    2.0480    0.3600    0.6160 C   0  0  1  0  0  0  0  0  0  0  0  0
    3.1500    1.3840    0.4610 C   0  0  0  0  0  0  0  0  0  0  0  0
    3.5650    1.5310   -0.8430 O   0  0  0  0  0  0  0  0  0  0  0  0
    0.9190    0.6650   -0.0960 O   0  0  0  0  0  0  0  0  0  0  0  0
  2  1  1  1
  2  3  1  0
  2  8  1  0
  3  4  1  0
  4  5  1  1
  4  6  1  0
  6  7  1  0
  8  9  1  1
  8 14  1  0
  9 10  1  0
 10 11  1  0
 11 12  1  6
 11 14  1  0
 12 13  1  0
M  CHG  1   1   1
M  END
