
     RDKit          3D

 14 14  0  0  0  0  0  0  0  0999 V2000
   -0.3140    0.3380   -1.7150 N   0  0  0  0  0  0  0  0  0  0  0  0
   -0.6290    0.4130   -0.2910 C   0  0  1  0  0  0  0  0  0  0  0  0
   -1.7140   -0.6020   -0.0210 C   0  0  2  0  0  0  0  0  0  0  0  0
   -3.0680    0.0760   -0.0820 C   0  0  1  0  0  0  0  0  0  0  0  0
   -3.1970    1.0630    0.8870 O   0  0  0  0  0  0  0  0  0  0  0  0
   -3.3060    0.5770   -1.3600 O   0  0  0  0  0  0  0  0  0  0  0  0
   -1.4820   -1.2090    1.1900 O   0  0  0  0  0  0  0  0  0  0  0  0
   -0.4140   -2.1010    1.0260 C   0  0  0  0  0  0  0  0  0  0  0  0
    0.8520   -1.3420    0.7030 C   0  0  0  0  0  0  0  0  0  0  0  0
    0.5840    0.1480    0.5570 C   0  0  2  0  0  0  0  0  0  0  0  0
    0.4660    0.6960    1.8240 O   0  0  0  0  0  0  0  0  0  0  0  0
    1.8140    0.7430   -0.1030 C   0  0  0  0  0  0  0  0  0  0  0  0
    3.0570    0.5080    0.7010 C   0  0  0  0  0  0  0  0  0  0  0  0
    4.1200    1.0900    0.0120 O   0  0  0  0  0  0  0  0  0  0  0  0
  2  1  1  6
  2  3  1  0
  2 10  1  0
  3  4  1  0
  3  7  1  1
  4  5  1  1
  4  6  1  0
  7  8  1  0
  8  9  1  0
  9 10  1  0
 10 11  1  1
 10 12  1  0
 12 13  1  0
 13 14  1  0
M  CHG  1   1   1
M  END
