
     RDKit          3D

 14 14  0  0  0  0  0  0  0  0999 V2000
   -3.1260    1.1390   -1.2450 N   0  0  0  0  0  0  0  0  0  0  0  0
   -2.0300    0.2260   -1.1620 C   0  0  0  0  0  0  0  0  0  0  0  0
   -1.4400    0.1660    0.2480 C   0  0  1  0  0  0  0  0  0  0  0  0
   -0.9730    1.3870    0.6600 O   0  0  0  0  0  0  0  0  0  0  0  0
   -2.4550   -0.4170    1.2080 C   0  0  0  0  0  0  0  0  0  0  0  0
   -2.2600   -1.7760    1.0830 O   0  0  0  0  0  0  0  0  0  0  0  0
   -0.8640   -1.8690    1.2840 C   0  0  0  0  0  0  0  0  0  0  0  0
   -0.3740   -0.9020    0.2220 C   0  0  2  0  0  0  0  0  0  0  0  0
    0.8740   -0.4240    0.5780 O   0  0  0  0  0  0  0  0  0  0  0  0
    1.7610   -0.7640   -0.4360 C   0  0  0  0  0  0  0  0  0  0  0  0
    3.1640   -0.2920   -0.1590 C   0  0  2  0  0  0  0  0  0  0  0  0
    3.7090   -0.8070    0.9900 O   0  0  0  0  0  0  0  0  0  0  0  0
    3.2310    1.2170   -0.2320 C   0  0  0  0  0  0  0  0  0  0  0  0
    2.5610    1.8380    0.8050 O   0  0  0  0  0  0  0  0  0  0  0  0
  1  2  1  0
  2  3  1  0
  3  4  1  1
  3  5  1  0
  3  8  1  0
  5  6  1  0
  6  7  1  0
  7  8  1  0
  8  9  1  1
  9 10  1  0
 10 11  1  0
 11 12  1  1
 11 13  1  0
 13 14  1  0
M  CHG  1   1   1
M  END
