
     RDKit          3D

 11 11  0  0  0  0  0  0  0  0999 V2000
    2.8500    0.3310   -0.6820 C   0  0  0  0  0  0  0  0  0  0  0  0
    1.3740    0.0500   -0.5710 C   0  0  0  0  0  0  0  0  0  0  0  0
    0.5290    0.9620   -0.2510 N   0  0  0  0  0  0  0  0  0  0  0  0
   -0.8830    0.6500   -0.1560 C   0  0  2  0  0  0  0  0  0  0  0  0
   -1.6520    1.6890    0.5360 C   0  0  0  0  0  0  0  0  0  0  0  0
   -2.8900    1.5170    0.6730 O   0  0  0  0  0  0  0  0  0  0  0  0
   -1.0670    2.8220    1.0280 O   0  0  0  0  0  0  0  0  0  0  0  0
   -0.9770   -0.7010    0.5430 C   0  0  1  0  0  0  0  0  0  0  0  0
   -2.2310   -0.9870    1.0000 O   0  0  0  0  0  0  0  0  0  0  0  0
   -0.4370   -1.7110   -0.4470 C   0  0  0  0  0  0  0  0  0  0  0  0
    0.8890   -1.2620   -0.8280 N   0  0  0  0  0  0  0  0  0  0  0  0
  1  2  1  0
  2  3  2  0
  2 11  1  0
  3  4  1  0
  4  5  1  1
  4  8  1  0
  5  6  2  0
  5  7  1  0
  8  9  1  6
  8 10  1  0
 10 11  1  0
M  END
