
     RDKit          3D

 12 12  0  0  0  0  0  0  0  0999 V2000
    3.5690    0.5510   -0.4510 C   0  0  0  0  0  0  0  0  0  0  0  0
    2.6100    1.0280    0.6030 C   0  0  0  0  0  0  0  0  0  0  0  0
    1.2940    0.6380    0.4070 O   0  0  0  0  0  0  0  0  0  0  0  0
    0.8370   -0.6560    0.3380 C   0  0  0  0  0  0  0  0  0  0  0  0
    1.6960   -1.5650    0.4640 O   0  0  0  0  0  0  0  0  0  0  0  0
   -0.5850   -0.9820    0.1260 C   0  0  0  0  0  0  0  0  0  0  0  0
   -1.1280   -2.1780    0.0440 C   0  0  0  0  0  0  0  0  0  0  0  0
   -2.5800   -2.0610   -0.1710 C   0  0  0  0  0  0  0  0  0  0  0  0
   -2.8190   -0.6100   -0.2050 C   0  0  0  0  0  0  0  0  0  0  0  0
   -1.6610   -0.0190   -0.0330 C   0  0  0  0  0  0  0  0  0  0  0  0
   -1.4390    1.4550    0.0020 C   0  0  0  0  0  0  0  0  0  0  0  0
   -2.6100    2.1660   -0.1720 O   0  0  0  0  0  0  0  0  0  0  0  0
  1  2  1  0
  2  3  1  0
  3  4  1  0
  4  5  2  0
  4  6  1  0
  6  7  2  0
  6 10  1  0
  7  8  1  0
  8  9  1  0
  9 10  2  0
 10 11  1  0
 11 12  1  0
M  END
