
     RDKit          3D

 12 12  0  0  0  0  0  0  0  0999 V2000
    1.3430   -1.4460    0.0580 O   0  0  0  0  0  0  0  0  0  0  0  0
    0.8700   -0.3900   -0.4400 C   0  0  0  0  0  0  0  0  0  0  0  0
    1.6570    0.5270   -1.0660 O   0  0  0  0  0  0  0  0  0  0  0  0
    3.0320    0.3920   -1.2040 C   0  0  0  0  0  0  0  0  0  0  0  0
    3.8460    0.3830    0.0380 C   0  0  0  0  0  0  0  0  0  0  0  0
    3.5610   -0.6260    0.9290 O   0  0  0  0  0  0  0  0  0  0  0  0
   -0.5870   -0.2040   -0.3070 C   0  0  0  0  0  0  0  0  0  0  0  0
   -1.2200    0.8500   -0.7790 C   0  0  0  0  0  0  0  0  0  0  0  0
   -2.6610    1.1060   -0.6860 C   0  0  0  0  0  0  0  0  0  0  0  0
   -3.3990    0.0390    0.0490 C   0  0  0  0  0  0  0  0  0  0  0  0
   -2.5060   -0.5630    1.1150 C   0  0  0  0  0  0  0  0  0  0  0  0
   -1.3670   -1.2480    0.3860 C   0  0  0  0  0  0  0  0  0  0  0  0
  1  2  2  0
  2  3  1  0
  2  7  1  0
  3  4  1  0
  4  5  1  0
  5  6  1  0
  7  8  2  0
  7 12  1  0
  8  9  1  0
  9 10  1  0
 10 11  1  0
 11 12  1  0
M  END
