
     RDKit          3D

 12 12  0  0  0  0  0  0  0  0999 V2000
   -3.0680    1.2210   -0.2560 C   0  0  0  0  0  0  0  0  0  0  0  0
   -1.7520    0.4570   -0.2250 C   0  0  1  0  0  0  0  0  0  0  0  0
   -2.0070   -0.9750    0.2700 C   0  0  0  0  0  0  0  0  0  0  0  0
   -1.1040    0.4540   -1.4060 O   0  0  0  0  0  0  0  0  0  0  0  0
    0.1530    0.9080   -1.5370 C   0  0  0  0  0  0  0  0  0  0  0  0
    1.2270    0.1530   -0.8470 C   0  0  0  0  0  0  0  0  0  0  0  0
    2.2560   -0.4130   -1.5280 C   0  0  0  0  0  0  0  0  0  0  0  0
    3.0870   -1.0490   -0.5380 C   0  0  0  0  0  0  0  0  0  0  0  0
    4.1520   -1.6950   -0.7370 O   0  0  0  0  0  0  0  0  0  0  0  0
    2.5110   -0.8390    0.7750 C   0  0  0  0  0  0  0  0  0  0  0  0
    2.9780   -1.2750    2.0140 O   0  0  0  0  0  0  0  0  0  0  0  0
    1.3930   -0.1130    0.5620 C   0  0  0  0  0  0  0  0  0  0  0  0
  2  1  1  6
  2  3  1  0
  2  4  1  0
  4  5  1  0
  5  6  1  0
  6  7  2  0
  6 12  1  0
  7  8  1  0
  8  9  2  0
  8 10  1  0
 10 11  1  0
 10 12  2  0
M  END
