
     RDKit          3D

 12 12  0  0  0  0  0  0  0  0999 V2000
    2.6660    1.0700   -0.1140 C   0  0  0  0  0  0  0  0  0  0  0  0
    2.2110   -0.3770   -0.2750 C   0  0  2  0  0  0  0  0  0  0  0  0
    3.4400   -1.1540   -0.7030 C   0  0  0  0  0  0  0  0  0  0  0  0
    1.1390   -0.5220   -1.0600 O   0  0  0  0  0  0  0  0  0  0  0  0
   -0.0430   -0.9780   -0.6400 C   0  0  0  0  0  0  0  0  0  0  0  0
   -0.7790   -0.1450    0.3800 C   0  0  1  0  0  0  0  0  0  0  0  0
    0.0160   -0.0420    1.5100 O   0  0  0  0  0  0  0  0  0  0  0  0
   -0.9400    1.2470   -0.1770 C   0  0  0  0  0  0  0  0  0  0  0  0
   -2.1880    1.4400   -0.9920 C   0  0  0  0  0  0  0  0  0  0  0  0
   -3.2600    1.0640   -0.2360 O   0  0  0  0  0  0  0  0  0  0  0  0
   -3.2870   -0.2760    0.0900 C   0  0  0  0  0  0  0  0  0  0  0  0
   -2.0760   -0.8020    0.7390 C   0  0  0  0  0  0  0  0  0  0  0  0
  2  1  1  6
  2  3  1  0
  2  4  1  0
  4  5  1  0
  5  6  1  0
  6  7  1  1
  6  8  1  0
  6 12  1  0
  8  9  1  0
  9 10  1  0
 10 11  1  0
 11 12  1  0
M  END
