
     RDKit          3D

 12 12  0  0  0  0  0  0  0  0999 V2000
    1.5380   -2.6420   -0.6240 O   0  0  0  0  0  0  0  0  0  0  0  0
    1.6360   -1.5150   -0.0810 C   0  0  0  0  0  0  0  0  0  0  0  0
    2.9160   -1.0060    0.4590 C   0  0  0  0  0  0  0  0  0  0  0  0
    3.4910    0.1160   -0.3890 C   0  0  0  0  0  0  0  0  0  0  0  0
    2.6010    1.1910   -0.4200 O   0  0  0  0  0  0  0  0  0  0  0  0
    0.4870   -0.7370   -0.0000 O   0  0  0  0  0  0  0  0  0  0  0  0
   -0.7470   -1.2160   -0.5090 C   0  0  0  0  0  0  0  0  0  0  0  0
   -1.7560   -0.1230   -0.2890 C   0  0  0  0  0  0  0  0  0  0  0  0
   -2.8400   -0.2560    0.4370 C   0  0  0  0  0  0  0  0  0  0  0  0
   -3.5610    1.0230    0.4100 C   0  0  0  0  0  0  0  0  0  0  0  0
   -2.7420    1.9040   -0.4400 C   0  0  0  0  0  0  0  0  0  0  0  0
   -1.6850    1.2250   -0.8430 C   0  0  0  0  0  0  0  0  0  0  0  0
  1  2  2  0
  2  3  1  0
  2  6  1  0
  3  4  1  0
  4  5  1  0
  6  7  1  0
  7  8  1  0
  8  9  2  0
  8 12  1  0
  9 10  1  0
 10 11  1  0
 11 12  2  0
M  END
