
     RDKit          3D

 12 12  0  0  0  0  0  0  0  0999 V2000
   -3.4650   -0.7100   -0.4550 C   0  0  0  0  0  0  0  0  0  0  0  0
   -2.1090   -0.0980   -0.0580 C   0  0  2  0  0  0  0  0  0  0  0  0
   -2.2510    0.2060    1.4250 C   0  0  0  0  0  0  0  0  0  0  0  0
   -1.8520    1.0410   -0.7770 O   0  0  0  0  0  0  0  0  0  0  0  0
   -1.0990   -1.1880   -0.3070 C   0  0  0  0  0  0  0  0  0  0  0  0
    0.1210   -0.8440    0.0160 O   0  0  0  0  0  0  0  0  0  0  0  0
    0.8760    0.1170   -0.4670 C   0  0  2  0  0  0  0  0  0  0  0  0
    2.2260   -0.2380   -1.0270 C   0  0  0  0  0  0  0  0  0  0  0  0
    3.2090   -0.5270    0.0960 C   0  0  0  0  0  0  0  0  0  0  0  0
    3.3480    0.7730    0.8800 C   0  0  0  0  0  0  0  0  0  0  0  0
    2.3950    1.7050    0.4780 O   0  0  0  0  0  0  0  0  0  0  0  0
    1.1350    1.1380    0.6410 C   0  0  0  0  0  0  0  0  0  0  0  0
  2  1  1  6
  2  3  1  0
  2  4  1  0
  2  5  1  0
  5  6  1  0
  7  6  1  1
  7  8  1  0
  7 12  1  0
  8  9  1  0
  9 10  1  0
 10 11  1  0
 11 12  1  0
M  END
