
     RDKit          3D

 15 15  0  0  0  0  0  0  0  0999 V2000
    4.8980    0.0210   -0.6060 N   0  0  0  0  0  0  0  0  0  0  0  0
    3.6380   -0.4380   -1.1740 C   0  0  0  0  0  0  0  0  0  0  0  0
    2.5230   -0.2130   -0.1480 C   0  0  0  0  0  0  0  0  0  0  0  0
    1.3020   -0.6800   -0.7530 N   0  0  0  0  0  0  0  0  0  0  0  0
    0.1390   -0.5130   -0.1800 C   0  0  0  0  0  0  0  0  0  0  0  0
   -1.0220   -0.9990   -0.8330 N   0  0  0  0  0  0  0  0  0  0  0  0
   -2.3330   -0.8120   -0.2550 C   0  0  2  0  0  0  0  0  0  0  0  0
   -3.4090   -0.6800   -1.3060 C   0  0  0  0  0  0  0  0  0  0  0  0
   -3.1760    0.4100   -2.1440 O   0  0  0  0  0  0  0  0  0  0  0  0
   -2.2510    0.4200    0.6240 C   0  0  1  0  0  0  0  0  0  0  0  0
   -3.4820    0.7790    1.1350 O   0  0  0  0  0  0  0  0  0  0  0  0
   -1.2680    0.0500    1.7440 C   0  0  2  0  0  0  0  0  0  0  0  0
   -1.4380    0.8360    2.8530 O   0  0  0  0  0  0  0  0  0  0  0  0
    0.1120    0.1840    1.1290 C   0  0  2  0  0  0  0  0  0  0  0  0
    0.3840    1.5430    0.8550 O   0  0  0  0  0  0  0  0  0  0  0  0
  1  2  1  0
  2  3  1  0
  3  4  1  0
  4  5  2  3
  5  6  1  0
  5 14  1  0
  6  7  1  0
  7  8  1  6
  7 10  1  0
  8  9  1  0
 10 11  1  1
 10 12  1  0
 12 13  1  1
 12 14  1  0
 14 15  1  6
M  CHG  1   1   1
M  END
