
     RDKit          3D

 22 24  0  0  0  0  0  0  0  0999 V2000
   -4.3610   -2.3920    0.5640 C   0  0  0  0  0  0  0  0  0  0  0  0
   -4.9920   -1.1260    0.5140 O   0  0  0  0  0  0  0  0  0  0  0  0
   -4.2590    0.0220    0.2500 C   0  0  0  0  0  0  0  0  0  0  0  0
   -4.8550    1.2530    0.1980 C   0  0  0  0  0  0  0  0  0  0  0  0
   -4.1370    2.4170   -0.0650 C   0  0  0  0  0  0  0  0  0  0  0  0
   -4.7560    3.6610   -0.1140 O   0  0  0  0  0  0  0  0  0  0  0  0
   -2.7780    2.2870   -0.2760 C   0  0  0  0  0  0  0  0  0  0  0  0
   -2.1690    1.0550   -0.2260 C   0  0  0  0  0  0  0  0  0  0  0  0
   -0.7340    0.9540   -0.4540 C   0  0  0  0  0  0  0  0  0  0  0  0
   -0.0160    1.9430   -0.6960 O   0  0  0  0  0  0  0  0  0  0  0  0
   -0.1190   -0.2870   -0.4040 O   0  0  0  0  0  0  0  0  0  0  0  0
    1.2470   -0.4380   -0.6140 C   0  0  0  0  0  0  0  0  0  0  0  0
    1.7740   -0.6570   -1.8640 C   0  0  0  0  0  0  0  0  0  0  0  0
    3.1180   -0.8070   -2.0800 C   0  0  0  0  0  0  0  0  0  0  0  0
    3.9550   -0.7280   -0.9710 C   0  0  0  0  0  0  0  0  0  0  0  0
    3.4670   -0.5110    0.2890 C   0  0  0  0  0  0  0  0  0  0  0  0
    2.1030   -0.3660    0.4600 C   0  0  0  0  0  0  0  0  0  0  0  0
    4.5880   -0.4750    1.2840 C   0  0  2  0  0  0  0  0  0  0  0  0
    4.8990    0.8180    1.6700 O   0  0  0  0  0  0  0  0  0  0  0  0
    5.7290   -1.0760    0.4570 C   0  0  0  0  0  0  0  0  0  0  0  0
    5.3270   -0.8380   -0.8770 O   0  0  0  0  0  0  0  0  0  0  0  0
   -2.9150   -0.0730    0.0370 C   0  0  0  0  0  0  0  0  0  0  0  0
  1  2  1  0
  2  3  1  0
  3  4  2  0
  3 22  1  0
  4  5  1  0
  5  6  1  0
  5  7  2  0
  7  8  1  0
  8  9  1  0
  8 22  2  0
  9 10  2  0
  9 11  1  0
 11 12  1  0
 12 13  2  0
 12 17  1  0
 13 14  1  0
 14 15  2  0
 15 16  1  0
 15 21  1  0
 16 17  2  0
 16 18  1  0
 18 19  1  6
 18 20  1  0
 20 21  1  0
M  END
