
     RDKit          3D

 21 23  0  0  0  0  0  0  0  0999 V2000
   -0.8730    1.8410   -0.1560 O   0  0  0  0  0  0  0  0  0  0  0  0
    0.0780    1.0430   -0.3440 C   0  0  0  0  0  0  0  0  0  0  0  0
   -0.2070   -0.2810   -0.6350 O   0  0  0  0  0  0  0  0  0  0  0  0
   -1.4880   -0.8260   -0.7430 C   0  0  0  0  0  0  0  0  0  0  0  0
   -2.2750   -0.6940    0.5400 C   0  0  0  0  0  0  0  0  0  0  0  0
   -3.6290   -1.3160    0.2950 C   0  0  1  0  0  0  0  0  0  0  0  0
   -4.5560   -1.2630    1.5120 C   0  0  0  0  0  0  0  0  0  0  0  0
   -5.6830   -1.0220    0.5260 C   0  0  0  0  0  0  0  0  0  0  0  0
   -4.6320   -0.3980   -0.3840 C   0  0  2  0  0  0  0  0  0  0  0  0
   -4.8160   -0.6010   -1.7270 O   0  0  0  0  0  0  0  0  0  0  0  0
    1.4650    1.5210   -0.2510 C   0  0  0  0  0  0  0  0  0  0  0  0
    1.8350    2.7540    0.0190 C   0  0  0  0  0  0  0  0  0  0  0  0
    0.9950    3.8570    0.2730 O   0  0  0  0  0  0  0  0  0  0  0  0
    3.2890    2.7680    0.0080 C   0  0  0  0  0  0  0  0  0  0  0  0
    4.0520    3.7320    0.2140 O   0  0  0  0  0  0  0  0  0  0  0  0
    3.7300    1.4100   -0.2990 C   0  0  0  0  0  0  0  0  0  0  0  0
    2.6370    0.6770   -0.4510 C   0  0  0  0  0  0  0  0  0  0  0  0
    2.8430   -0.7650   -0.7730 C   0  0  0  0  0  0  0  0  0  0  0  0
    3.7660   -1.2960    0.3200 C   0  0  0  0  0  0  0  0  0  0  0  0
    5.1000   -0.5920    0.2630 C   0  0  0  0  0  0  0  0  0  0  0  0
    5.0300    0.7220   -0.4660 C   0  0  0  0  0  0  0  0  0  0  0  0
  1  2  2  0
  2  3  1  0
  2 11  1  0
  3  4  1  0
  4  5  1  0
  6  5  1  1
  6  7  1  0
  6  9  1  0
  7  8  1  0
  8  9  1  0
  9 10  1  6
 11 12  2  0
 11 17  1  0
 12 13  1  0
 12 14  1  0
 14 15  2  0
 14 16  1  0
 16 17  2  0
 16 21  1  0
 17 18  1  0
 18 19  1  0
 19 20  1  0
 20 21  1  0
M  END
