
     RDKit          3D

 22 24  0  0  0  0  0  0  0  0999 V2000
    1.8220   -0.0640    2.8290 O   0  0  0  0  0  0  0  0  0  0  0  0
    1.3520   -0.1580    1.6780 C   0  0  0  0  0  0  0  0  0  0  0  0
   -0.0490   -0.2790    1.4430 C   0  0  0  0  0  0  0  0  0  0  0  0
   -0.8280   -0.2250    2.6870 C   0  0  0  0  0  0  0  0  0  0  0  0
   -0.4380    1.0390    3.2750 O   0  0  0  0  0  0  0  0  0  0  0  0
   -0.5410   -0.3780    0.1960 C   0  0  0  0  0  0  0  0  0  0  0  0
   -1.9500   -0.5040   -0.1190 C   0  0  0  0  0  0  0  0  0  0  0  0
   -2.9010   -1.1100    0.6560 C   0  0  0  0  0  0  0  0  0  0  0  0
   -4.2230   -1.0530    0.2750 C   0  0  0  0  0  0  0  0  0  0  0  0
   -4.6500   -0.4090   -0.8700 C   0  0  0  0  0  0  0  0  0  0  0  0
   -3.7100    0.2070   -1.6690 C   0  0  0  0  0  0  0  0  0  0  0  0
   -4.0770    0.8850   -2.8470 O   0  0  0  0  0  0  0  0  0  0  0  0
   -2.4020    0.1410   -1.2790 C   0  0  0  0  0  0  0  0  0  0  0  0
    0.3390   -0.3560   -0.8220 O   0  0  0  0  0  0  0  0  0  0  0  0
    1.6350   -0.2430   -0.6320 C   0  0  0  0  0  0  0  0  0  0  0  0
    2.4370   -0.2300   -1.7600 C   0  0  0  0  0  0  0  0  0  0  0  0
    3.8160   -0.1080   -1.6300 C   0  0  0  0  0  0  0  0  0  0  0  0
    4.6280   -0.1010   -2.7370 O   0  0  0  0  0  0  0  0  0  0  0  0
    4.3630   -0.0000   -0.3690 C   0  0  0  0  0  0  0  0  0  0  0  0
    5.7590    0.1230   -0.3020 O   0  0  0  0  0  0  0  0  0  0  0  0
    3.5740   -0.0150    0.7570 C   0  0  0  0  0  0  0  0  0  0  0  0
    2.2050   -0.1360    0.6220 C   0  0  0  0  0  0  0  0  0  0  0  0
  1  2  2  0
  2  3  1  0
  2 22  1  0
  3  4  1  0
  3  6  2  0
  4  5  1  0
  6  7  1  0
  6 14  1  0
  7  8  2  0
  7 13  1  0
  8  9  1  0
  9 10  2  0
 10 11  1  0
 11 12  1  0
 11 13  2  0
 14 15  1  0
 15 16  2  0
 15 22  1  0
 16 17  1  0
 17 18  1  0
 17 19  2  0
 19 20  1  0
 19 21  1  0
 21 22  2  0
M  END
