
     RDKit          3D

 37 39  0  0  0  0  0  0  0  0999 V2000
    1.2330   -4.9930    2.1440 C   0  0  0  0  0  0  0  0  0  0  0  0
   -0.0290   -4.4040    1.5670 C   0  0  0  0  0  0  0  0  0  0  0  0
   -0.0250   -2.9100    1.8200 C   0  0  1  0  0  0  0  0  0  0  0  0
    1.0940   -2.3570    1.2010 O   0  0  0  0  0  0  0  0  0  0  0  0
    2.1230   -1.7130    1.8640 C   0  0  0  0  0  0  0  0  0  0  0  0
    2.0280   -1.6290    3.1150 O   0  0  0  0  0  0  0  0  0  0  0  0
    3.2780   -1.1480    1.1760 C   0  0  0  0  0  0  0  0  0  0  0  0
    3.4140   -1.2220   -0.1930 C   0  0  0  0  0  0  0  0  0  0  0  0
    4.5430   -0.6610   -0.7940 C   0  0  0  0  0  0  0  0  0  0  0  0
    5.5280   -0.0340   -0.0610 C   0  0  0  0  0  0  0  0  0  0  0  0
    7.0170    0.7090   -0.8210 P   0  0  0  0  0  0  0  0  0  0  0  0
    8.4330   -0.4660   -0.5900 C   0  0  0  0  0  0  0  0  0  0  0  0
    7.3360    2.3260    0.0360 C   0  0  0  0  0  0  0  0  0  0  0  0
    8.7460    2.7830   -0.1510 C   0  0  0  0  0  0  0  0  0  0  0  0
    9.1020    2.9880   -1.6080 C   0  0  2  0  0  0  0  0  0  0  0  0
    8.2200    4.0220   -2.2480 C   0  0  0  0  0  0  0  0  0  0  0  0
    8.9460    1.7380   -2.3070 N   0  0  0  0  0  0  0  0  0  0  0  0
    5.3850    0.0360    1.3030 C   0  0  0  0  0  0  0  0  0  0  0  0
    4.2620   -0.5220    1.9040 C   0  0  0  0  0  0  0  0  0  0  0  0
   -1.3050   -2.3840    1.2440 C   0  0  0  0  0  0  0  0  0  0  0  0
   -1.2140   -1.5560    0.3190 O   0  0  0  0  0  0  0  0  0  0  0  0
   -2.5710   -2.7890    1.7070 N   0  0  0  0  0  0  0  0  0  0  0  0
   -3.8290   -2.3590    1.2350 C   0  0  0  0  0  0  0  0  0  0  0  0
   -4.9580   -2.8400    1.8930 C   0  0  0  0  0  0  0  0  0  0  0  0
   -6.2440   -2.5000    1.5320 C   0  0  0  0  0  0  0  0  0  0  0  0
   -6.4490   -1.6360    0.4620 C   0  0  0  0  0  0  0  0  0  0  0  0
   -5.3650   -1.1430   -0.2090 C   0  0  0  0  0  0  0  0  0  0  0  0
   -5.5190   -0.2920   -1.2610 O   0  0  0  0  0  0  0  0  0  0  0  0
   -6.5980    0.2650   -1.8740 C   0  0  0  0  0  0  0  0  0  0  0  0
   -7.4740    1.1780   -1.0900 C   0  0  1  0  0  0  0  0  0  0  0  0
   -6.6740    2.4580   -0.8210 C   0  0  0  0  0  0  0  0  0  0  0  0
   -7.3460    3.1650    0.1610 O   0  0  0  0  0  0  0  0  0  0  0  0
   -8.4720    3.7290   -0.4360 C   0  0  0  0  0  0  0  0  0  0  0  0
   -9.6860    2.8380   -0.2820 C   0  0  0  0  0  0  0  0  0  0  0  0
   -9.7020    1.7340   -1.3150 C   0  0  0  0  0  0  0  0  0  0  0  0
   -8.4990    1.5970   -1.9730 O   0  0  0  0  0  0  0  0  0  0  0  0
   -4.0630   -1.5160    0.1930 C   0  0  0  0  0  0  0  0  0  0  0  0
  1  2  1  0
  3  2  1  6
  3  4  1  0
  3 20  1  0
  4  5  1  0
  5  6  2  0
  5  7  1  0
  7  8  2  0
  7 19  1  0
  8  9  1  0
  9 10  2  0
 10 11  1  0
 10 18  1  0
 11 12  1  0
 11 13  1  0
 13 14  1  0
 14 15  1  0
 15 16  1  6
 15 17  1  0
 18 19  2  0
 20 21  2  0
 20 22  1  0
 22 23  1  0
 23 24  2  0
 23 37  1  0
 24 25  1  0
 25 26  2  0
 26 27  1  0
 27 28  1  0
 27 37  2  0
 28 29  1  0
 30 29  1  6
 30 31  1  0
 30 36  1  0
 31 32  1  0
 32 33  1  0
 33 34  1  0
 34 35  1  0
 35 36  1  0
M  END
