
     RDKit          3D

 38 40  0  0  0  0  0  0  0  0999 V2000
    7.2320    0.2820   -4.4190 C   0  0  0  0  0  0  0  0  0  0  0  0
    6.6440    0.9880   -3.2280 C   0  0  0  0  0  0  0  0  0  0  0  0
    6.2030    0.1220   -2.2280 O   0  0  0  0  0  0  0  0  0  0  0  0
    5.5230    0.9070   -0.8950 P   0  0  0  0  0  0  0  0  0  0  0  0
    6.6550    1.4960    0.3960 C   0  0  0  0  0  0  0  0  0  0  0  0
    3.9020    0.3640   -0.3610 C   0  0  0  0  0  0  0  0  0  0  0  0
    2.9610    1.2110    0.1540 C   0  0  0  0  0  0  0  0  0  0  0  0
    1.7070    0.7330    0.5510 C   0  0  0  0  0  0  0  0  0  0  0  0
    1.3490   -0.5900    0.4520 C   0  0  0  0  0  0  0  0  0  0  0  0
    0.0600   -1.1450    0.8130 C   0  0  0  0  0  0  0  0  0  0  0  0
    0.0010   -2.4380    0.7660 O   0  0  0  0  0  0  0  0  0  0  0  0
   -1.1150   -0.5190    1.2000 N   0  0  0  0  0  0  0  0  0  0  0  0
   -1.3470    0.8860    1.1360 C   0  0  0  0  0  0  0  0  0  0  0  0
   -1.4270    1.6800    2.2550 C   0  0  0  0  0  0  0  0  0  0  0  0
   -1.6740    3.0550    2.1760 C   0  0  0  0  0  0  0  0  0  0  0  0
   -1.8480    3.6800    0.9800 C   0  0  0  0  0  0  0  0  0  0  0  0
   -2.1040    5.0570    0.7950 N   0  0  0  0  0  0  0  0  0  0  0  0
   -2.1470    6.0390    1.8060 C   0  0  0  0  0  0  0  0  0  0  0  0
   -2.4320    7.4800    1.4690 C   0  0  0  0  0  0  0  0  0  0  0  0
   -1.9460    5.7230    2.9980 O   0  0  0  0  0  0  0  0  0  0  0  0
   -1.7700    2.8820   -0.1570 C   0  0  0  0  0  0  0  0  0  0  0  0
   -1.9270    3.3810   -1.4300 O   0  0  0  0  0  0  0  0  0  0  0  0
   -1.5250    1.5120   -0.0950 C   0  0  0  0  0  0  0  0  0  0  0  0
   -2.2210   -1.3540    1.7520 C   0  0  2  0  0  0  0  0  0  0  0  0
   -1.7890   -1.9710    3.0180 C   0  0  0  0  0  0  0  0  0  0  0  0
   -0.5970   -1.8590    3.4310 O   0  0  0  0  0  0  0  0  0  0  0  0
   -2.6660   -2.6950    3.8070 O   0  0  0  0  0  0  0  0  0  0  0  0
   -2.7070   -2.2960    0.7350 C   0  0  0  0  0  0  0  0  0  0  0  0
   -3.1000   -1.9140   -0.5260 C   0  0  0  0  0  0  0  0  0  0  0  0
   -3.5480   -2.8020   -1.4870 C   0  0  0  0  0  0  0  0  0  0  0  0
   -3.6180   -4.1430   -1.2060 C   0  0  0  0  0  0  0  0  0  0  0  0
   -4.0620   -5.0960   -2.1340 O   0  0  0  0  0  0  0  0  0  0  0  0
   -4.4760   -4.7930   -3.4300 C   0  0  0  0  0  0  0  0  0  0  0  0
   -3.2320   -4.5640    0.0510 C   0  0  0  0  0  0  0  0  0  0  0  0
   -3.3000   -6.0190    0.3690 C   0  0  0  0  0  0  0  0  0  0  0  0
   -2.7810   -3.6480    1.0100 C   0  0  0  0  0  0  0  0  0  0  0  0
    2.3340   -1.4330   -0.0790 C   0  0  0  0  0  0  0  0  0  0  0  0
    3.5500   -0.9650   -0.4630 C   0  0  0  0  0  0  0  0  0  0  0  0
  1  2  1  0
  2  3  1  0
  3  4  1  0
  4  5  1  0
  4  6  1  0
  6  7  2  0
  6 38  1  0
  7  8  1  0
  8  9  2  0
  9 10  1  0
  9 37  1  0
 10 11  2  0
 10 12  1  0
 12 13  1  0
 24 12  1  6
 13 14  2  0
 13 23  1  0
 14 15  1  0
 15 16  2  0
 16 17  1  0
 16 21  1  0
 17 18  1  0
 18 19  1  0
 18 20  2  0
 21 22  1  0
 21 23  2  0
 24 25  1  0
 24 28  1  0
 25 26  2  0
 25 27  1  0
 28 29  2  0
 28 36  1  0
 29 30  1  0
 30 31  2  0
 31 32  1  0
 31 34  1  0
 32 33  1  0
 34 35  1  0
 34 36  2  0
 37 38  2  0
M  END
