
     RDKit          3D

 38 40  0  0  0  0  0  0  0  0999 V2000
  -10.0210    0.0850    2.5790 C   0  0  0  0  0  0  0  0  0  0  0  0
   -8.7720   -0.7030    2.3380 C   0  0  0  0  0  0  0  0  0  0  0  0
   -7.6900    0.0730    1.7150 C   0  0  0  0  0  0  0  0  0  0  0  0
   -7.8950    0.6450    0.3540 C   0  0  1  0  0  0  0  0  0  0  0  0
   -8.9990    1.6240    0.2110 C   0  0  0  0  0  0  0  0  0  0  0  0
   -6.6860    1.3140   -0.0620 O   0  0  0  0  0  0  0  0  0  0  0  0
   -5.3950    0.8240   -0.1370 C   0  0  0  0  0  0  0  0  0  0  0  0
   -4.4150    1.7740    0.0280 C   0  0  0  0  0  0  0  0  0  0  0  0
   -3.0840    1.4490   -0.0190 C   0  0  0  0  0  0  0  0  0  0  0  0
   -2.6590    0.1490   -0.2350 C   0  0  0  0  0  0  0  0  0  0  0  0
   -1.2270   -0.1270   -0.2770 C   0  0  0  0  0  0  0  0  0  0  0  0
   -0.7460   -1.3270   -0.4800 C   0  0  0  0  0  0  0  0  0  0  0  0
    0.6620   -1.6720   -0.5360 C   0  0  0  0  0  0  0  0  0  0  0  0
    0.9650   -2.8960   -0.7140 O   0  0  0  0  0  0  0  0  0  0  0  0
    1.7390   -0.6620   -0.3920 C   0  0  2  0  0  0  0  0  0  0  0  0
    1.8090    0.2350   -1.6020 C   0  0  0  0  0  0  0  0  0  0  0  0
    1.4330   -0.4290   -2.8760 C   0  0  0  0  0  0  0  0  0  0  0  0
    1.9250   -1.7240   -2.8300 O   0  0  0  0  0  0  0  0  0  0  0  0
    3.2350   -1.8440   -2.5150 C   0  0  0  0  0  0  0  0  0  0  0  0
    3.5620   -2.1220   -1.0660 C   0  0  0  0  0  0  0  0  0  0  0  0
    3.0170   -1.2740   -0.1200 N   0  0  0  0  0  0  0  0  0  0  0  0
    3.8270   -0.4090    0.6430 C   0  0  0  0  0  0  0  0  0  0  0  0
    4.7530   -1.0300    1.6320 C   0  0  0  0  0  0  0  0  0  0  0  0
    5.5490    0.0390    2.3600 C   0  0  0  0  0  0  0  0  0  0  0  0
    6.5820    1.0760    1.2610 P   0  0  0  0  0  0  0  0  0  0  0  0
    8.1420    1.2910    1.9390 O   0  0  0  0  0  0  0  0  0  0  0  0
    9.0490    0.4960    1.2210 C   0  0  0  0  0  0  0  0  0  0  0  0
   10.4530    0.6020    1.7280 C   0  0  0  0  0  0  0  0  0  0  0  0
    6.7230    0.5050   -0.3480 O   0  0  0  0  0  0  0  0  0  0  0  0
    6.6950    1.5350   -1.2880 C   0  0  0  0  0  0  0  0  0  0  0  0
    6.8210    0.9810   -2.6880 C   0  0  0  0  0  0  0  0  0  0  0  0
   -3.6190   -0.8160   -0.4030 C   0  0  0  0  0  0  0  0  0  0  0  0
   -4.9490   -0.4630   -0.3510 C   0  0  0  0  0  0  0  0  0  0  0  0
   -5.8460   -1.6230   -0.5560 C   0  0  0  0  0  0  0  0  0  0  0  0
   -5.2640   -2.7540   -0.5000 O   0  0  0  0  0  0  0  0  0  0  0  0
   -7.2520   -1.6070   -0.8020 N   0  0  0  0  0  0  0  0  0  0  0  0
   -8.1370   -0.5220   -0.5750 C   0  0  0  0  0  0  0  0  0  0  0  0
   -9.2180   -0.5510   -1.2150 O   0  0  0  0  0  0  0  0  0  0  0  0
  1  2  1  0
  2  3  1  0
  3  4  1  0
  4  5  1  1
  4  6  1  0
  4 37  1  0
  6  7  1  0
  7  8  2  0
  7 33  1  0
  8  9  1  0
  9 10  2  0
 10 11  1  0
 10 32  1  0
 11 12  2  3
 12 13  1  0
 13 14  2  0
 15 13  1  6
 15 16  1  0
 15 21  1  0
 16 17  1  0
 17 18  1  0
 18 19  1  0
 19 20  1  0
 20 21  1  0
 21 22  1  0
 22 23  1  0
 23 24  1  0
 24 25  1  0
 25 26  1  0
 25 29  1  0
 26 27  1  0
 27 28  1  0
 29 30  1  0
 30 31  1  0
 32 33  2  0
 33 34  1  0
 34 35  2  0
 34 36  1  0
 36 37  1  0
 37 38  2  0
M  END
