
     RDKit          3D

 38 40  0  0  0  0  0  0  0  0999 V2000
   -6.2950    4.7170    1.1460 C   0  0  0  0  0  0  0  0  0  0  0  0
   -6.4360    3.3500    1.7310 C   0  0  0  0  0  0  0  0  0  0  0  0
   -5.3590    2.3870    1.2720 C   0  0  0  0  0  0  0  0  0  0  0  0
   -5.3570    2.2010   -0.2140 C   0  0  0  0  0  0  0  0  0  0  0  0
   -4.2850    1.2610   -0.5300 N   0  0  0  0  0  0  0  0  0  0  0  0
   -2.9530    1.5890   -0.8180 C   0  0  0  0  0  0  0  0  0  0  0  0
   -2.4690    2.7380   -0.8480 O   0  0  0  0  0  0  0  0  0  0  0  0
   -2.1900    0.2910   -1.0870 C   0  0  0  0  0  0  0  0  0  0  0  0
   -0.7710    0.3770   -1.0950 C   0  0  0  0  0  0  0  0  0  0  0  0
   -0.1130    1.5340   -1.4630 C   0  0  0  0  0  0  0  0  0  0  0  0
    1.3090    1.6500   -1.4980 C   0  0  0  0  0  0  0  0  0  0  0  0
    2.1030    0.6650   -1.2000 C   0  0  0  0  0  0  0  0  0  0  0  0
    3.4690    0.7910   -1.2280 O   0  0  0  0  0  0  0  0  0  0  0  0
    4.2190    1.1900   -0.1240 C   0  0  0  0  0  0  0  0  0  0  0  0
    3.5840    1.4370    0.9250 O   0  0  0  0  0  0  0  0  0  0  0  0
    5.6810    1.3200   -0.1630 C   0  0  2  0  0  0  0  0  0  0  0  0
    6.0980    2.3340   -1.1920 C   0  0  0  0  0  0  0  0  0  0  0  0
    5.7070    2.0750   -2.5920 C   0  0  0  0  0  0  0  0  0  0  0  0
    6.7260    3.3010   -0.8210 O   0  0  0  0  0  0  0  0  0  0  0  0
    6.5280   -0.2720   -0.6220 P   0  0  0  0  0  0  0  0  0  0  0  0
    8.1780   -0.1430   -0.0670 O   0  0  0  0  0  0  0  0  0  0  0  0
    8.9620    0.5720   -0.9620 C   0  0  0  0  0  0  0  0  0  0  0  0
    5.7950   -1.6360    0.1480 O   0  0  0  0  0  0  0  0  0  0  0  0
    5.5810   -1.3930    1.4970 C   0  0  0  0  0  0  0  0  0  0  0  0
    1.5170   -0.6310   -0.8320 C   0  0  0  0  0  0  0  0  0  0  0  0
    0.1250   -0.4660   -0.3880 N   0  0  0  0  0  0  0  0  0  0  0  0
   -0.1460   -1.0170    0.9070 C   0  0  0  0  0  0  0  0  0  0  0  0
    0.1430   -2.4680    0.9820 C   0  0  0  0  0  0  0  0  0  0  0  0
   -0.0460   -3.0480    2.3670 C   0  0  2  0  0  0  0  0  0  0  0  0
   -1.2810   -3.0210    3.1310 C   0  0  0  0  0  0  0  0  0  0  0  0
   -0.1060   -2.2290    3.5830 C   0  0  0  0  0  0  0  0  0  0  0  0
   -3.0460   -0.6630   -0.9600 C   0  0  0  0  0  0  0  0  0  0  0  0
   -2.8950   -2.1090   -1.1190 C   0  0  2  0  0  0  0  0  0  0  0  0
   -4.1150   -2.4820   -2.1110 C   0  0  0  0  0  0  0  0  0  0  0  0
   -3.2510   -2.9270    0.0860 C   0  0  0  0  0  0  0  0  0  0  0  0
   -1.7780   -2.6450   -1.9030 C   0  0  0  0  0  0  0  0  0  0  0  0
   -4.3880   -0.1160   -0.6050 C   0  0  0  0  0  0  0  0  0  0  0  0
   -5.4530   -0.7520   -0.3990 O   0  0  0  0  0  0  0  0  0  0  0  0
  1  2  1  0
  2  3  1  0
  3  4  1  0
  4  5  1  0
  5  6  1  0
  5 37  1  0
  6  7  2  0
  6  8  1  0
  8  9  1  0
  8 32  2  0
  9 10  2  0
  9 26  1  0
 10 11  1  0
 11 12  2  0
 12 13  1  0
 12 25  1  0
 13 14  1  0
 14 15  2  0
 14 16  1  0
 16 17  1  0
 16 20  1  6
 17 18  1  0
 17 19  2  0
 20 21  1  0
 20 23  1  0
 21 22  1  0
 23 24  1  0
 25 26  1  0
 26 27  1  0
 27 28  1  0
 29 28  1  6
 29 30  1  0
 29 31  1  0
 30 31  1  0
 32 33  1  0
 32 37  1  0
 33 34  1  6
 33 35  1  0
 33 36  1  0
 37 38  2  0
M  END
