
     RDKit          3D

 33 35  0  0  0  0  0  0  0  0999 V2000
   -5.8850    0.6270    2.8620 C   0  0  0  0  0  0  0  0  0  0  0  0
   -4.8430    0.4530    1.8690 N   0  0  0  0  0  0  0  0  0  0  0  0
   -3.4650    0.0760    2.1100 C   0  0  0  0  0  0  0  0  0  0  0  0
   -2.7560    0.4090    0.8830 N   0  0  0  0  0  0  0  0  0  0  0  0
   -1.3300    0.3810    0.8390 C   0  0  2  0  0  0  0  0  0  0  0  0
   -0.8940    0.4900   -0.4990 O   0  0  0  0  0  0  0  0  0  0  0  0
    0.1550   -0.3290   -0.5360 C   0  0  2  0  0  0  0  0  0  0  0  0
    1.0910   -0.4350   -1.6750 C   0  0  0  0  0  0  0  0  0  0  0  0
    1.9850   -1.4530   -1.1500 O   0  0  0  0  0  0  0  0  0  0  0  0
    3.5320   -0.8750   -1.1390 P   0  0  2  0  0  0  0  0  0  0  0  0
    3.7220   -0.3660    0.4190 O   0  0  0  0  0  0  0  0  0  0  0  0
    3.7800    0.5200   -1.9670 O   0  0  0  0  0  0  0  0  0  0  0  0
    4.6850   -2.0690   -1.1910 O   0  0  0  0  0  0  0  0  0  0  0  0
    6.0970   -1.5780   -0.3130 P   0  0  2  0  0  0  0  0  0  0  0  0
    7.1200   -1.3040   -1.3880 O   0  0  0  0  0  0  0  0  0  0  0  0
    6.5640   -2.7550    0.7890 O   0  0  0  0  0  0  0  0  0  0  0  0
    5.7680   -0.1190    0.5050 O   0  0  0  0  0  0  0  0  0  0  0  0
    6.9750    1.0130    0.1330 P   0  0  2  0  0  0  0  0  0  0  0  0
    6.7040    2.2760    0.9050 O   0  0  0  0  0  0  0  0  0  0  0  0
    6.8590    1.3300   -1.5230 O   0  0  0  0  0  0  0  0  0  0  0  0
    8.5060    0.3990    0.5320 O   0  0  0  0  0  0  0  0  0  0  0  0
   -0.2890   -1.6330    0.0710 C   0  0  1  0  0  0  0  0  0  0  0  0
    0.8190   -2.4010    0.4940 O   0  0  0  0  0  0  0  0  0  0  0  0
   -0.9460   -1.0350    1.3310 C   0  0  1  0  0  0  0  0  0  0  0  0
   -0.0320   -0.9100    2.3420 O   0  0  0  0  0  0  0  0  0  0  0  0
   -3.7560    0.7090   -0.0950 C   0  0  0  0  0  0  0  0  0  0  0  0
   -3.5630    1.0260   -1.4190 N   0  0  0  0  0  0  0  0  0  0  0  0
   -4.6510    1.3640   -2.1830 C   0  0  0  0  0  0  0  0  0  0  0  0
   -4.4650    1.8250   -3.5420 N   0  0  0  0  0  0  0  0  0  0  0  0
   -5.8370    1.3590   -1.5760 N   0  0  0  0  0  0  0  0  0  0  0  0
   -6.0590    1.0600   -0.2630 C   0  0  0  0  0  0  0  0  0  0  0  0
   -7.1830    1.0880    0.2830 O   0  0  0  0  0  0  0  0  0  0  0  0
   -4.9840    0.7320    0.4890 C   0  0  0  0  0  0  0  0  0  0  0  0
  1  2  1  0
  2  3  1  0
  2 33  1  0
  3  4  1  0
  5  4  1  6
  4 26  1  0
  5  6  1  0
  5 24  1  0
  6  7  1  0
  7  8  1  6
  7 22  1  0
  8  9  1  0
  9 10  1  0
 10 11  2  0
 10 12  1  6
 10 13  1  0
 13 14  1  0
 14 15  2  0
 14 16  1  1
 14 17  1  0
 17 18  1  0
 18 19  2  0
 18 20  1  6
 18 21  1  0
 22 23  1  1
 22 24  1  0
 24 25  1  1
 26 27  1  0
 26 33  2  0
 27 28  2  0
 28 29  1  0
 28 30  1  0
 30 31  1  0
 31 32  2  0
 31 33  1  0
M  END
