
     RDKit          3D

 22 23  0  0  0  0  0  0  0  0999 V2000
   -4.5740   -1.8560    1.4920 C   0  0  0  0  0  0  0  0  0  0  0  0
   -4.8960   -0.6160    0.8900 O   0  0  0  0  0  0  0  0  0  0  0  0
   -3.8880    0.1420    0.3200 C   0  0  0  0  0  0  0  0  0  0  0  0
   -2.5770   -0.2690    0.3170 C   0  0  0  0  0  0  0  0  0  0  0  0
   -1.5790    0.5080   -0.2610 C   0  0  0  0  0  0  0  0  0  0  0  0
   -0.2480    0.0320   -0.2480 N   0  0  0  0  0  0  0  0  0  0  0  0
    0.9170    0.7420   -0.5530 C   0  0  0  0  0  0  0  0  0  0  0  0
    0.8790    1.9370   -0.8810 O   0  0  0  0  0  0  0  0  0  0  0  0
    2.1930    0.0620   -0.4840 C   0  0  0  0  0  0  0  0  0  0  0  0
    2.5160   -1.2080   -0.1630 C   0  0  0  0  0  0  0  0  0  0  0  0
    3.8040   -1.5810   -0.1800 C   0  0  0  0  0  0  0  0  0  0  0  0
    4.7410   -0.6500   -0.5250 C   0  0  0  0  0  0  0  0  0  0  0  0
    6.4880   -0.7620   -0.6570 S   0  0  2  0  0  0  0  0  0  0  0  0
    7.2600    0.3550    0.4280 N   0  0  0  0  0  0  0  0  0  0  0  0
    6.9210   -0.4670   -2.0740 O   0  0  0  0  0  0  0  0  0  0  0  0
    6.8570   -2.1490   -0.2790 O   0  0  0  0  0  0  0  0  0  0  0  0
    3.7420    0.7890   -0.8300 S   0  0  0  0  0  0  0  0  0  0  0  0
   -1.9330    1.6980   -0.8310 C   0  0  0  0  0  0  0  0  0  0  0  0
   -3.2650    2.1560   -0.8490 C   0  0  0  0  0  0  0  0  0  0  0  0
   -4.2180    1.3520   -0.2640 C   0  0  0  0  0  0  0  0  0  0  0  0
   -5.9020    1.8890   -0.2650 S   0  0  0  0  0  0  0  0  0  0  0  0
   -5.9390    3.3990   -0.4170 O   0  0  0  0  0  0  0  0  0  0  0  0
  1  2  1  0
  2  3  1  0
  3  4  2  0
  3 20  1  0
  4  5  1  0
  5  6  1  0
  5 18  2  0
  6  7  1  0
  7  8  2  0
  7  9  1  0
  9 10  2  0
  9 17  1  0
 10 11  1  0
 11 12  2  0
 12 13  1  0
 12 17  1  0
 13 14  1  1
 13 15  2  0
 13 16  2  0
 18 19  1  0
 19 20  2  0
 20 21  1  0
 21 22  2  0
M  END
