
     RDKit          3D

 22 23  0  0  0  0  0  0  0  0999 V2000
    5.9880    1.3580   -1.7250 C   0  0  0  0  0  0  0  0  0  0  0  0
    5.2630    0.9370   -0.4520 C   0  0  0  0  0  0  0  0  0  0  0  0
    4.8130   -0.4950   -0.5720 C   0  0  0  0  0  0  0  0  0  0  0  0
    4.1190   -0.9400    0.6650 C   0  0  0  0  0  0  0  0  0  0  0  0
    2.8890   -0.0680    0.9090 C   0  0  0  0  0  0  0  0  0  0  0  0
    2.2290   -0.5600    2.2000 C   0  0  0  0  0  0  0  0  0  0  0  0
    1.0440    0.2790    2.5080 C   0  0  0  0  0  0  0  0  0  0  0  0
   -0.0200    0.2030    1.4330 C   0  0  0  0  0  0  0  0  0  0  0  0
   -0.4930   -1.1340    1.2960 N   0  0  0  0  0  0  0  0  0  0  0  0
   -1.5450   -1.5420    0.5140 C   0  0  0  0  0  0  0  0  0  0  0  0
   -1.8630   -3.1970    0.5450 S   0  0  0  0  0  0  0  0  0  0  0  0
   -2.3690   -0.7880   -0.2890 N   0  0  0  0  0  0  0  0  0  0  0  0
   -2.4100    0.6030   -0.5860 C   0  0  1  0  0  0  0  0  0  0  0  0
   -2.9070    0.5850   -2.0420 C   0  0  0  0  0  0  0  0  0  0  0  0
   -3.5410   -0.6090   -2.2290 O   0  0  0  0  0  0  0  0  0  0  0  0
   -3.5410   -1.3070   -1.0660 C   0  0  2  0  0  0  0  0  0  0  0  0
   -4.7220   -0.9380   -0.1690 C   0  0  2  0  0  0  0  0  0  0  0  0
   -5.8840   -1.4550   -0.7010 O   0  0  0  0  0  0  0  0  0  0  0  0
   -4.8160    0.5290    0.0810 C   0  0  1  0  0  0  0  0  0  0  0  0
   -5.5450    0.7170    1.2670 O   0  0  0  0  0  0  0  0  0  0  0  0
   -3.4910    1.2070    0.2980 C   0  0  2  0  0  0  0  0  0  0  0  0
   -3.6000    2.5480    0.0150 O   0  0  0  0  0  0  0  0  0  0  0  0
  1  2  1  0
  2  3  1  0
  3  4  1  0
  4  5  1  0
  5  6  1  0
  6  7  1  0
  7  8  1  0
  8  9  1  0
  9 10  1  0
 10 11  2  0
 10 12  1  0
 12 13  1  0
 12 16  1  0
 13 14  1  6
 13 21  1  0
 14 15  1  0
 16 15  1  6
 16 17  1  0
 17 18  1  6
 17 19  1  0
 19 20  1  1
 19 21  1  0
 21 22  1  6
M  END
