
     RDKit          3D

 22 23  0  0  0  0  0  0  0  0999 V2000
    6.8450   -1.1080    0.9900 N   0  0  0  0  0  0  0  0  0  0  0  0
    5.4120   -0.9570    0.8970 C   0  0  0  0  0  0  0  0  0  0  0  0
    4.7180   -1.7810    1.5330 O   0  0  0  0  0  0  0  0  0  0  0  0
    4.7950    0.0810    0.1190 C   0  0  0  0  0  0  0  0  0  0  0  0
    5.7960    1.2150   -0.7560 S   0  0  0  0  0  0  0  0  0  0  0  0
    5.0360    2.2920   -1.5620 C   0  0  0  0  0  0  0  0  0  0  0  0
    5.4060    3.5130   -2.4940 S   0  0  0  0  0  0  0  0  0  0  0  0
    3.3050    1.7790   -1.1460 S   0  0  0  0  0  0  0  0  0  0  0  0
    3.5000    0.3890   -0.0940 C   0  0  0  0  0  0  0  0  0  0  0  0
    2.3250   -0.3290    0.4680 C   0  0  0  0  0  0  0  0  0  0  0  0
    2.3810   -1.3110    1.2110 O   0  0  0  0  0  0  0  0  0  0  0  0
    1.0410    0.1220    0.1460 O   0  0  0  0  0  0  0  0  0  0  0  0
   -0.0730   -0.5690    0.6870 C   0  0  0  0  0  0  0  0  0  0  0  0
   -1.3490    0.0510    0.2370 C   0  0  0  0  0  0  0  0  0  0  0  0
   -1.3700    1.0510   -0.5210 O   0  0  0  0  0  0  0  0  0  0  0  0
   -2.5560   -0.5220    0.6900 N   0  0  0  0  0  0  0  0  0  0  0  0
   -3.8500   -0.0310    0.3370 C   0  0  0  0  0  0  0  0  0  0  0  0
   -4.1970    0.9830   -0.4260 C   0  0  0  0  0  0  0  0  0  0  0  0
   -5.6750    1.1220   -0.5080 C   0  0  0  0  0  0  0  0  0  0  0  0
   -6.1440    0.0190    0.3350 C   0  0  0  0  0  0  0  0  0  0  0  0
   -5.1070   -0.6420    0.8200 C   0  0  0  0  0  0  0  0  0  0  0  0
   -5.1870   -1.7430    1.6560 O   0  0  0  0  0  0  0  0  0  0  0  0
  1  2  1  0
  2  3  2  0
  2  4  1  0
  4  5  1  0
  4  9  2  0
  5  6  1  0
  6  7  2  0
  6  8  1  0
  8  9  1  0
  9 10  1  0
 10 11  2  0
 10 12  1  0
 12 13  1  0
 13 14  1  0
 14 15  2  0
 14 16  1  0
 16 17  1  0
 17 18  2  0
 17 21  1  0
 18 19  1  0
 19 20  1  0
 20 21  2  0
 21 22  1  0
M  END
