
     RDKit          3D

 22 22  0  0  0  0  0  0  0  0999 V2000
   -6.0100   -0.7680   -2.0610 C   0  0  0  0  0  0  0  0  0  0  0  0
   -5.3040   -0.3940   -0.7720 C   0  0  0  0  0  0  0  0  0  0  0  0
   -4.0480   -0.7680   -0.6710 C   0  0  0  0  0  0  0  0  0  0  0  0
   -3.4210   -1.5180   -1.8040 C   0  0  0  0  0  0  0  0  0  0  0  0
   -3.3390   -0.4350    0.5490 C   0  0  0  0  0  0  0  0  0  0  0  0
   -1.9410   -0.8130    0.7430 C   0  0  0  0  0  0  0  0  0  0  0  0
   -0.9810   -0.1500   -0.2290 C   0  0  0  0  0  0  0  0  0  0  0  0
    0.3840   -0.6280    0.1010 C   0  0  0  0  0  0  0  0  0  0  0  0
    1.4930   -0.0810   -0.7830 C   0  0  1  0  0  0  0  0  0  0  0  0
    1.6250    1.3870   -0.7470 C   0  0  0  0  0  0  0  0  0  0  0  0
    2.7350   -0.7920   -0.3470 C   0  0  0  0  0  0  0  0  0  0  0  0
    4.0050   -0.4970   -1.0170 C   0  0  0  0  0  0  0  0  0  0  0  0
    4.6290    0.8340   -0.9110 C   0  0  0  0  0  0  0  0  0  0  0  0
    5.0270    1.2120    0.5090 C   0  0  0  0  0  0  0  0  0  0  0  0
    6.0290    0.2390    1.0500 C   0  0  0  0  0  0  0  0  0  0  0  0
    5.6190   -0.7950    1.5420 O   0  0  0  0  0  0  0  0  0  0  0  0
    7.4750    0.5680    0.9640 C   0  0  0  0  0  0  0  0  0  0  0  0
    8.2260   -0.4550    1.5080 O   0  0  0  0  0  0  0  0  0  0  0  0
   -3.9900    0.2210    1.4880 C   0  0  0  0  0  0  0  0  0  0  0  0
   -3.1930    0.5430    2.7510 C   0  0  0  0  0  0  0  0  0  0  0  0
   -5.3890    0.6790    1.4400 C   0  0  0  0  0  0  0  0  0  0  0  0
   -6.0990    0.3370    0.2150 C   0  0  0  0  0  0  0  0  0  0  0  0
  1  2  1  0
  2  3  2  0
  2 22  1  0
  3  4  1  0
  3  5  1  0
  5  6  1  0
  5 19  2  0
  6  7  1  0
  7  8  1  0
  8  9  1  0
  9 10  1  1
  9 11  1  0
 11 12  1  0
 12 13  1  0
 13 14  1  0
 14 15  1  0
 15 16  2  0
 15 17  1  0
 17 18  1  0
 19 20  1  0
 19 21  1  0
 21 22  1  0
M  END
