
     RDKit          3D

 22 21  0  0  0  0  0  0  0  0999 V2000
    5.4710    1.1570    1.0050 C   0  0  0  0  0  0  0  0  0  0  0  0
    5.1210    0.0510    0.3840 C   0  0  0  0  0  0  0  0  0  0  0  0
    3.7980   -0.1130   -0.3240 C   0  0  0  0  0  0  0  0  0  0  0  0
    3.0090   -1.2250    0.2530 C   0  0  0  0  0  0  0  0  0  0  0  0
    1.6260   -1.4330   -0.4790 C   0  0  2  0  0  0  0  0  0  0  0  0
    2.0160   -1.6990   -1.8900 C   0  0  0  0  0  0  0  0  0  0  0  0
    0.8400   -0.3210   -0.0640 C   0  0  0  0  0  0  0  0  0  0  0  0
   -0.6040    0.0060   -0.4180 C   0  0  2  0  0  0  0  0  0  0  0  0
   -0.4890   -0.0400   -1.8700 O   0  0  0  0  0  0  0  0  0  0  0  0
   -0.7370    1.5130   -0.3160 C   0  0  1  0  0  0  0  0  0  0  0  0
   -0.3340    2.0300    1.0550 C   0  0  0  0  0  0  0  0  0  0  0  0
    0.3170    2.1680   -1.2240 C   0  0  0  0  0  0  0  0  0  0  0  0
    0.2420    3.6710   -1.1530 C   0  0  0  0  0  0  0  0  0  0  0  0
   -1.9470    2.2490   -0.7200 C   0  0  0  0  0  0  0  0  0  0  0  0
   -3.2630    2.1710   -0.1150 C   0  0  0  0  0  0  0  0  0  0  0  0
   -1.5450   -0.9740   -0.0160 C   0  0  2  0  0  0  0  0  0  0  0  0
   -1.1790   -2.3290   -0.6800 C   0  0  0  0  0  0  0  0  0  0  0  0
   -2.9740   -0.7870   -0.5960 C   0  0  0  0  0  0  0  0  0  0  0  0
   -1.8510   -1.3670    1.3910 C   0  0  1  0  0  0  0  0  0  0  0  0
   -2.9290   -2.4910    1.4100 C   0  0  0  0  0  0  0  0  0  0  0  0
   -0.7680   -1.9430    2.2490 C   0  0  0  0  0  0  0  0  0  0  0  0
   -2.4370   -0.3850    2.1890 O   0  0  0  0  0  0  0  0  0  0  0  0
  1  2  2  0
  2  3  1  0
  3  4  1  0
  4  5  1  0
  5  6  1  6
  5  7  1  0
  7  8  1  0
  8  9  1  6
  8 10  1  0
  8 16  1  0
 10 11  1  1
 10 12  1  0
 10 14  1  0
 12 13  1  0
 14 15  1  0
 16 17  1  6
 16 18  1  0
 16 19  1  0
 19 20  1  6
 19 21  1  0
 19 22  1  0
M  END
