
     RDKit          3D

 22 22  0  0  0  0  0  0  0  0999 V2000
    6.4820   -0.0400    1.9610 C   0  0  0  0  0  0  0  0  0  0  0  0
    6.2330    1.2030    1.1480 C   0  0  0  0  0  0  0  0  0  0  0  0
    5.0530    0.9790    0.1920 C   0  0  0  0  0  0  0  0  0  0  0  0
    3.8140    0.6530    0.9540 C   0  0  0  0  0  0  0  0  0  0  0  0
    2.5980    0.4340    0.0530 C   0  0  1  0  0  0  0  0  0  0  0  0
    2.4020    1.7720   -0.7240 C   0  0  0  0  0  0  0  0  0  0  0  0
    2.8810   -0.5960   -0.9690 C   0  0  0  0  0  0  0  0  0  0  0  0
    1.7890   -0.9140   -1.8740 C   0  0  0  0  0  0  0  0  0  0  0  0
    0.6370   -1.7160   -1.5270 C   0  0  0  0  0  0  0  0  0  0  0  0
   -0.2780   -1.5340   -0.4120 C   0  0  2  0  0  0  0  0  0  0  0  0
    0.3280   -1.7510    0.9880 C   0  0  0  0  0  0  0  0  0  0  0  0
   -1.5660   -2.2850   -0.4980 C   0  0  0  0  0  0  0  0  0  0  0  0
   -2.4320   -1.9380   -1.6360 C   0  0  2  0  0  0  0  0  0  0  0  0
   -1.9400   -2.1500   -2.8770 O   0  0  0  0  0  0  0  0  0  0  0  0
   -2.9240   -0.4790   -1.4660 C   0  0  0  0  0  0  0  0  0  0  0  0
   -3.3880   -0.3680   -0.1890 O   0  0  0  0  0  0  0  0  0  0  0  0
   -3.8720    0.8660    0.1580 C   0  0  1  0  0  0  0  0  0  0  0  0
   -2.8390    1.9710    0.0430 C   0  0  0  0  0  0  0  0  0  0  0  0
   -5.0700    1.3010   -0.6580 C   0  0  0  0  0  0  0  0  0  0  0  0
   -4.2560    0.7920    1.6350 C   0  0  2  0  0  0  0  0  0  0  0  0
   -5.2740   -0.1730    2.0870 C   0  0  0  0  0  0  0  0  0  0  0  0
   -5.5340    1.3220    2.1140 C   0  0  0  0  0  0  0  0  0  0  0  0
  1  2  1  0
  2  3  1  0
  3  4  1  0
  4  5  1  0
  5  6  1  6
  5  7  1  0
  7  8  1  0
  8  9  1  0
  9 10  1  0
 10 11  1  1
 10 12  1  0
 12 13  1  0
 13 14  1  6
 13 15  1  0
 15 16  1  0
 16 17  1  0
 17 18  1  1
 17 19  1  0
 17 20  1  0
 20 21  1  6
 20 22  1  0
 21 22  1  0
M  END
