
     RDKit          3D

 22 22  0  0  0  0  0  0  0  0999 V2000
    5.6660    0.1970    1.9890 C   0  0  0  0  0  0  0  0  0  0  0  0
    4.3340   -0.0300    1.2500 C   0  0  0  0  0  0  0  0  0  0  0  0
    3.3110    0.9580    1.6840 C   0  0  0  0  0  0  0  0  0  0  0  0
    1.9500    0.7830    1.0080 C   0  0  0  0  0  0  0  0  0  0  0  0
    2.0280    0.9260   -0.4580 C   0  0  0  0  0  0  0  0  0  0  0  0
    0.8950    0.8640   -1.3570 C   0  0  0  0  0  0  0  0  0  0  0  0
   -0.0240   -0.2680   -1.5630 C   0  0  2  0  0  0  0  0  0  0  0  0
    0.6750   -1.5690   -1.9410 C   0  0  0  0  0  0  0  0  0  0  0  0
   -0.5640    0.0890   -3.0170 C   0  0  0  0  0  0  0  0  0  0  0  0
   -1.4610   -0.7950   -3.6900 C   0  0  0  0  0  0  0  0  0  0  0  0
   -1.1960   -0.5060   -0.7200 C   0  0  2  0  0  0  0  0  0  0  0  0
   -1.7790   -1.7110   -1.2850 O   0  0  0  0  0  0  0  0  0  0  0  0
   -2.3530    0.4290   -0.9180 C   0  0  0  0  0  0  0  0  0  0  0  0
   -2.3040    1.8610   -0.7300 C   0  0  0  0  0  0  0  0  0  0  0  0
   -1.9270    2.4500    0.5880 C   0  0  0  0  0  0  0  0  0  0  0  0
   -1.9910    4.0050    0.5020 C   0  0  0  0  0  0  0  0  0  0  0  0
   -1.0990   -0.8580    0.7110 C   0  0  2  0  0  0  0  0  0  0  0  0
   -0.3830   -2.0650    1.1660 C   0  0  0  0  0  0  0  0  0  0  0  0
   -1.1130   -3.3160    1.4670 C   0  0  0  0  0  0  0  0  0  0  0  0
   -2.3130   -3.1770    2.1430 O   0  0  0  0  0  0  0  0  0  0  0  0
   -2.4290   -1.8600    2.5770 C   0  0  0  0  0  0  0  0  0  0  0  0
   -2.5190   -1.0320    1.2750 C   0  0  0  0  0  0  0  0  0  0  0  0
  1  2  1  0
  2  3  1  0
  3  4  1  0
  4  5  1  0
  5  6  1  0
  6  7  1  0
  7  8  1  6
  7  9  1  0
  7 11  1  0
  9 10  1  0
 11 12  1  6
 11 13  1  0
 11 17  1  0
 13 14  1  0
 14 15  1  0
 15 16  1  0
 17 18  1  6
 17 22  1  0
 18 19  1  0
 19 20  1  0
 20 21  1  0
 21 22  1  0
M  END
