
     RDKit          3D

 34 37  0  0  0  0  0  0  0  0999 V2000
   -1.8840   -0.3820    2.0850 C   0  0  0  0  0  0  0  0  0  0  0  0
   -2.2540    0.8630    1.4590 C   0  0  0  0  0  0  0  0  0  0  0  0
   -2.8850    1.0860    0.2800 C   0  0  0  0  0  0  0  0  0  0  0  0
   -3.1060    2.4090    0.0650 C   0  0  0  0  0  0  0  0  0  0  0  0
   -4.2130    2.4660   -1.3720 S   0  0  0  0  0  0  0  0  0  0  0  0
   -4.2590    0.7200   -1.5720 C   0  0  0  0  0  0  0  0  0  0  0  0
   -4.9360    0.0020   -2.5350 C   0  0  0  0  0  0  0  0  0  0  0  0
   -5.6500    0.6520   -3.3590 O   0  0  0  0  0  0  0  0  0  0  0  0
   -4.8300   -1.3070   -2.5750 N   0  0  0  0  0  0  0  0  0  0  0  0
   -4.0250   -1.8580   -1.6470 C   0  0  0  0  0  0  0  0  0  0  0  0
   -3.9580   -3.1100   -1.7260 O   0  0  0  0  0  0  0  0  0  0  0  0
   -3.3430   -1.1760   -0.6950 N   0  0  0  0  0  0  0  0  0  0  0  0
   -2.1240   -1.8760   -0.3040 C   0  0  2  0  0  0  0  0  0  0  0  0
   -1.8110   -2.7570   -1.6780 C   0  0  0  0  0  0  0  0  0  0  0  0
   -2.1810   -2.9980    0.6100 C   0  0  0  0  0  0  0  0  0  0  0  0
   -0.9500   -1.0500   -0.5770 C   0  0  0  0  0  0  0  0  0  0  0  0
   -0.9470    0.0030   -1.1520 O   0  0  0  0  0  0  0  0  0  0  0  0
    0.2810   -1.4490   -0.1800 N   0  0  0  0  0  0  0  0  0  0  0  0
    1.4920   -0.8580   -0.3470 C   0  0  0  0  0  0  0  0  0  0  0  0
    2.3020   -1.6160    0.3990 N   0  0  0  0  0  0  0  0  0  0  0  0
    2.3220    0.3730   -1.2530 S   0  0  0  0  0  0  0  0  0  0  0  0
    3.9370    0.7170   -0.6630 C   0  0  0  0  0  0  0  0  0  0  0  0
    4.9380    0.7970   -1.5330 C   0  0  0  0  0  0  0  0  0  0  0  0
    6.2770    1.0930   -0.9680 C   0  0  0  0  0  0  0  0  0  0  0  0
    6.2540    2.1400    0.1180 C   0  0  0  0  0  0  0  0  0  0  0  0
    5.0210    2.1630    0.9490 C   0  0  0  0  0  0  0  0  0  0  0  0
    4.2650    0.8430    0.7630 C   0  0  0  0  0  0  0  0  0  0  0  0
   -3.4390    0.1890   -0.5590 C   0  0  0  0  0  0  0  0  0  0  0  0
   -2.8220    3.4630    0.7330 N   0  0  0  0  0  0  0  0  0  0  0  0
   -2.1470    3.3170    1.9450 C   0  0  0  0  0  0  0  0  0  0  0  0
   -1.9120    4.2610    2.6910 O   0  0  0  0  0  0  0  0  0  0  0  0
   -1.7270    2.0000    2.2970 C   0  0  2  0  0  0  0  0  0  0  0  0
   -0.3210    1.9430    2.2740 F   0  0  0  0  0  0  0  0  0  0  0  0
   -2.0540    1.7320    3.6360 F   0  0  0  0  0  0  0  0  0  0  0  0
  1  2  1  0
  2  3  2  0
  2 32  1  0
  3  4  1  0
  3 28  1  0
  4  5  1  0
  4 29  2  0
  5  6  1  0
  6  7  1  0
  6 28  2  0
  7  8  2  0
  7  9  1  0
  9 10  1  0
 10 11  2  0
 10 12  1  0
 12 13  1  0
 12 28  1  0
 13 14  1  6
 13 15  1  0
 13 16  1  0
 16 17  2  0
 16 18  1  0
 18 19  1  0
 19 20  2  0
 19 21  1  0
 21 22  1  0
 22 23  2  0
 22 27  1  0
 23 24  1  0
 24 25  1  0
 25 26  1  0
 26 27  1  0
 29 30  1  0
 30 31  2  0
 30 32  1  0
 32 33  1  1
 32 34  1  0
M  END
