
     RDKit          3D

 34 37  0  0  0  0  0  0  0  0999 V2000
   -4.9560   -1.9220   -1.3130 C   0  0  0  0  0  0  0  0  0  0  0  0
   -5.9450   -0.8450   -1.4620 C   0  0  0  0  0  0  0  0  0  0  0  0
   -6.5780   -0.8320   -2.5740 O   0  0  0  0  0  0  0  0  0  0  0  0
   -6.2810    0.1550   -0.5380 N   0  0  0  0  0  0  0  0  0  0  0  0
   -7.3870    1.0920   -0.7740 C   0  0  0  0  0  0  0  0  0  0  0  0
   -8.2590    1.1440    0.4510 C   0  0  0  0  0  0  0  0  0  0  0  0
   -7.8070    0.2180    1.5620 C   0  0  0  0  0  0  0  0  0  0  0  0
   -6.3280    0.3110    1.7660 C   0  0  0  0  0  0  0  0  0  0  0  0
   -5.5340    0.2800    0.6780 C   0  0  0  0  0  0  0  0  0  0  0  0
   -4.0830    0.3170    0.7380 C   0  0  0  0  0  0  0  0  0  0  0  0
   -3.5280    0.2830    1.8960 O   0  0  0  0  0  0  0  0  0  0  0  0
   -3.2670    0.3970   -0.4010 N   0  0  0  0  0  0  0  0  0  0  0  0
   -1.8470    0.4100   -0.3840 C   0  0  0  0  0  0  0  0  0  0  0  0
   -1.1770    0.8310   -1.5480 C   0  0  0  0  0  0  0  0  0  0  0  0
    0.1900    0.8680   -1.6560 C   0  0  0  0  0  0  0  0  0  0  0  0
    0.9780    0.4830   -0.5960 C   0  0  0  0  0  0  0  0  0  0  0  0
    2.2990    0.3980   -0.3690 N   0  0  0  0  0  0  0  0  0  0  0  0
    2.5000   -0.0510    0.8690 C   0  0  0  0  0  0  0  0  0  0  0  0
    3.7090   -0.3040    1.5630 N   0  0  0  0  0  0  0  0  0  0  0  0
    4.9720   -0.0690    0.9090 C   0  0  0  0  0  0  0  0  0  0  0  0
    4.8660    0.3580   -0.2680 O   0  0  0  0  0  0  0  0  0  0  0  0
    6.2450   -0.3180    1.5900 C   0  0  0  0  0  0  0  0  0  0  0  0
    7.4540   -0.2420    0.6930 C   0  0  0  0  0  0  0  0  0  0  0  0
    8.3080    0.7010    0.9650 C   0  0  0  0  0  0  0  0  0  0  0  0
    9.5430    1.0280    0.3060 C   0  0  0  0  0  0  0  0  0  0  0  0
   10.2860    1.9880    0.6770 O   0  0  0  0  0  0  0  0  0  0  0  0
    9.9950    0.2490   -0.8350 C   0  0  0  0  0  0  0  0  0  0  0  0
    9.0570   -0.9860   -1.3090 S   0  0  0  0  0  0  0  0  0  0  0  0
    7.5430   -1.2720   -0.3640 C   0  0  1  0  0  0  0  0  0  0  0  0
    7.6830   -2.4930    0.3130 F   0  0  0  0  0  0  0  0  0  0  0  0
    6.3940   -1.3280   -1.1260 F   0  0  0  0  0  0  0  0  0  0  0  0
    1.2850   -0.2460    1.4130 N   0  0  0  0  0  0  0  0  0  0  0  0
    0.3320    0.0690    0.5490 C   0  0  0  0  0  0  0  0  0  0  0  0
   -1.0580    0.0310    0.6580 C   0  0  0  0  0  0  0  0  0  0  0  0
  1  2  1  0
  2  3  2  0
  2  4  1  0
  4  5  1  0
  4  9  1  0
  5  6  1  0
  6  7  1  0
  7  8  1  0
  8  9  2  0
  9 10  1  0
 10 11  2  0
 10 12  1  0
 12 13  1  0
 13 14  2  0
 13 34  1  0
 14 15  1  0
 15 16  2  0
 16 17  1  0
 16 33  1  0
 17 18  2  0
 18 19  1  0
 18 32  1  0
 19 20  1  0
 20 21  2  0
 20 22  1  0
 22 23  1  0
 23 24  2  0
 23 29  1  0
 24 25  1  0
 25 26  2  0
 25 27  1  0
 27 28  2  0
 28 29  1  0
 29 30  1  1
 29 31  1  0
 32 33  1  0
 33 34  2  0
M  END
