
     RDKit          3D

 34 37  0  0  0  0  0  0  0  0999 V2000
    3.2620    3.1460    0.4050 C   0  0  0  0  0  0  0  0  0  0  0  0
    2.7020    2.1550   -0.4020 O   0  0  0  0  0  0  0  0  0  0  0  0
    2.7770    0.9040    0.2080 C   0  0  1  0  0  0  0  0  0  0  0  0
    1.3950    0.3170    0.2930 C   0  0  0  0  0  0  0  0  0  0  0  0
    1.3890   -0.9750   -0.3160 N   0  0  1  0  0  0  0  0  0  0  0  0
    0.7940   -0.9180   -1.6260 C   0  0  0  0  0  0  0  0  0  0  0  0
   -0.6880   -0.7610   -1.6000 C   0  0  0  0  0  0  0  0  0  0  0  0
   -1.2880   -0.7030   -2.6980 O   0  0  0  0  0  0  0  0  0  0  0  0
   -1.4370   -0.6770   -0.4130 N   0  0  0  0  0  0  0  0  0  0  0  0
   -2.8130   -0.5310   -0.2450 C   0  0  0  0  0  0  0  0  0  0  0  0
   -3.6950   -0.4430   -1.2820 C   0  0  0  0  0  0  0  0  0  0  0  0
   -5.0850   -0.2950   -1.0910 C   0  0  0  0  0  0  0  0  0  0  0  0
   -5.5440   -0.2400    0.1980 C   0  0  0  0  0  0  0  0  0  0  0  0
   -6.9540   -0.0890    0.4270 N   0  0  0  0  0  0  0  0  0  0  0  0
   -7.8710   -0.8160   -0.2430 C   0  0  0  0  0  0  0  0  0  0  0  0
   -9.2230   -0.6740   -0.0250 C   0  0  0  0  0  0  0  0  0  0  0  0
   -9.6930    0.2270    0.8950 C   0  0  0  0  0  0  0  0  0  0  0  0
   -8.7540    0.9810    1.5910 C   0  0  0  0  0  0  0  0  0  0  0  0
   -7.3970    0.7940    1.3280 C   0  0  0  0  0  0  0  0  0  0  0  0
   -6.5790    1.4920    1.9740 O   0  0  0  0  0  0  0  0  0  0  0  0
   -4.6930   -0.3240    1.2700 C   0  0  0  0  0  0  0  0  0  0  0  0
   -3.3490   -0.4670    1.0390 C   0  0  0  0  0  0  0  0  0  0  0  0
   -2.5090   -0.5510    2.0810 F   0  0  0  0  0  0  0  0  0  0  0  0
    2.7860   -1.3430   -0.5210 C   0  0  0  0  0  0  0  0  0  0  0  0
    3.5140   -0.0280   -0.7020 C   0  0  2  0  0  0  0  0  0  0  0  0
    4.8730   -0.1880   -0.1670 N   0  0  0  0  0  0  0  0  0  0  0  0
    6.0170    0.0840   -0.9400 C   0  0  0  0  0  0  0  0  0  0  0  0
    5.8920    0.4710   -2.1110 O   0  0  0  0  0  0  0  0  0  0  0  0
    7.3750   -0.0690   -0.4240 C   0  0  0  0  0  0  0  0  0  0  0  0
    7.7810   -0.4880    0.8560 C   0  0  0  0  0  0  0  0  0  0  0  0
    9.1050   -0.5390    1.0650 C   0  0  0  0  0  0  0  0  0  0  0  0
    9.9740   -0.2100    0.1100 C   0  0  0  0  0  0  0  0  0  0  0  0
   11.7060   -0.1670    0.0520 Cl  0  0  0  0  0  0  0  0  0  0  0  0
    8.8730    0.2280   -1.2530 S   0  0  0  0  0  0  0  0  0  0  0  0
  1  2  1  0
  3  2  1  6
  3  4  1  0
  3 25  1  0
  4  5  1  0
  5  6  1  6
  5 24  1  0
  6  7  1  0
  7  8  2  0
  7  9  1  0
  9 10  1  0
 10 11  2  0
 10 22  1  0
 11 12  1  0
 12 13  2  0
 13 14  1  0
 13 21  1  0
 14 15  1  0
 14 19  1  0
 15 16  2  0
 16 17  1  0
 17 18  2  0
 18 19  1  0
 19 20  2  0
 21 22  2  0
 22 23  1  0
 24 25  1  0
 25 26  1  1
 26 27  1  0
 27 28  2  0
 27 29  1  0
 29 30  2  0
 29 34  1  0
 30 31  1  0
 31 32  2  0
 32 33  1  0
 32 34  1  0
M  CHG  1   5   1
M  END
