
     RDKit          3D

 34 37  0  0  0  0  0  0  0  0999 V2000
   -7.6510    1.8830    0.9500 C   0  0  0  0  0  0  0  0  0  0  0  0
   -7.0560    0.5760    1.0130 N   0  0  0  0  0  0  0  0  0  0  0  0
   -5.6600    0.3560    0.8350 C   0  0  0  0  0  0  0  0  0  0  0  0
   -5.2300   -0.5760    0.0130 C   0  0  0  0  0  0  0  0  0  0  0  0
   -6.2580   -1.3660   -0.7100 C   0  0  0  0  0  0  0  0  0  0  0  0
   -6.0070   -1.7230   -1.9900 C   0  0  0  0  0  0  0  0  0  0  0  0
   -4.7130   -1.2590   -2.4790 C   0  0  0  0  0  0  0  0  0  0  0  0
   -4.6340   -0.7840   -3.6340 O   0  0  0  0  0  0  0  0  0  0  0  0
   -3.5440   -1.3730   -1.5830 C   0  0  0  0  0  0  0  0  0  0  0  0
   -3.7970   -0.8630   -0.1740 C   0  0  1  0  0  0  0  0  0  0  0  0
   -2.9810    0.2680    0.1310 N   0  0  0  0  0  0  0  0  0  0  0  0
   -1.5680    0.2350    0.1630 C   0  0  0  0  0  0  0  0  0  0  0  0
   -0.8990    1.2870    0.3520 O   0  0  0  0  0  0  0  0  0  0  0  0
   -0.7740   -1.0220   -0.0150 C   0  0  0  0  0  0  0  0  0  0  0  0
   -0.1390   -1.4860    1.6500 S   0  0  0  0  0  0  0  0  0  0  0  0
    1.0150   -0.2170    2.1690 C   0  0  0  0  0  0  0  0  0  0  0  0
    2.2780   -0.2110    1.4510 C   0  0  0  0  0  0  0  0  0  0  0  0
    3.2990   -0.6830    2.0680 O   0  0  0  0  0  0  0  0  0  0  0  0
    2.5370    0.2510    0.1390 N   0  0  0  0  0  0  0  0  0  0  0  0
    3.8450    0.2440   -0.4390 C   0  0  0  0  0  0  0  0  0  0  0  0
    4.4120    0.4580   -1.4690 N   0  0  0  0  0  0  0  0  0  0  0  0
    5.6870    0.4170   -1.6560 N   0  0  0  0  0  0  0  0  0  0  0  0
    6.4850    0.1410   -0.7530 C   0  0  0  0  0  0  0  0  0  0  0  0
    7.9500    0.0160   -0.5750 C   0  0  0  0  0  0  0  0  0  0  0  0
    8.6470   -0.5150   -1.5250 C   0  0  0  0  0  0  0  0  0  0  0  0
    7.9790   -0.9360   -2.6550 F   0  0  0  0  0  0  0  0  0  0  0  0
   10.1310   -0.6950   -1.4660 C   0  0  0  0  0  0  0  0  0  0  0  0
   10.6410   -0.1850   -0.2760 O   0  0  0  0  0  0  0  0  0  0  0  0
    9.9130    0.3800    0.7500 C   0  0  0  0  0  0  0  0  0  0  0  0
    8.6050    0.4920    0.6340 C   0  0  0  0  0  0  0  0  0  0  0  0
    7.9090    1.0480    1.6450 F   0  0  0  0  0  0  0  0  0  0  0  0
    5.3480   -0.1260    0.6470 S   0  0  0  0  0  0  0  0  0  0  0  0
   -3.6160    1.5380    0.4840 C   0  0  0  0  0  0  0  0  0  0  0  0
   -4.6710    1.2390    1.5710 C   0  0  0  0  0  0  0  0  0  0  0  0
  1  2  1  0
  2  3  1  0
  3  4  2  0
  3 34  1  0
  4  5  1  0
  4 10  1  0
  5  6  2  0
  6  7  1  0
  7  8  2  0
  7  9  1  0
 10  9  1  6
 10 11  1  0
 11 12  1  0
 11 33  1  0
 12 13  2  0
 12 14  1  0
 14 15  1  0
 15 16  1  0
 16 17  1  0
 17 18  2  0
 17 19  1  0
 19 20  1  0
 20 21  2  0
 20 32  1  0
 21 22  1  0
 22 23  2  0
 23 24  1  0
 23 32  1  0
 24 25  2  0
 24 30  1  0
 25 26  1  0
 25 27  1  0
 27 28  1  0
 28 29  1  0
 29 30  2  0
 30 31  1  0
 33 34  1  0
M  END
