
     RDKit          3D

 35 36  0  0  0  0  0  0  0  0999 V2000
   -5.0460    0.6990    2.5920 C   0  0  0  0  0  0  0  0  0  0  0  0
   -4.4350    1.1430    1.5350 O   0  0  0  0  0  0  0  0  0  0  0  0
   -4.7010    1.6740    0.4090 C   0  0  0  0  0  0  0  0  0  0  0  0
   -5.4770    1.1590   -0.7340 C   0  0  0  0  0  0  0  0  0  0  0  0
   -5.0450   -0.1390   -1.3530 C   0  0  2  0  0  0  0  0  0  0  0  0
   -6.0520   -0.2490   -2.5530 C   0  0  0  0  0  0  0  0  0  0  0  0
   -5.1640   -1.3700   -0.5530 C   0  0  0  0  0  0  0  0  0  0  0  0
   -6.3920   -1.9840   -0.1130 C   0  0  1  0  0  0  0  0  0  0  0  0
   -5.9170   -3.2260    0.7180 C   0  0  0  0  0  0  0  0  0  0  0  0
   -7.4660   -1.4010    0.6190 C   0  0  0  0  0  0  0  0  0  0  0  0
   -8.4780   -2.3350    1.1260 N   0  0  0  0  0  0  0  0  0  0  0  0
   -7.7620   -0.2370    0.9420 O   0  0  0  0  0  0  0  0  0  0  0  0
   -3.7190   -0.0630   -1.9700 C   0  0  0  0  0  0  0  0  0  0  0  0
   -3.6400   -0.0790   -3.2520 O   0  0  0  0  0  0  0  0  0  0  0  0
   -2.5330    0.0300   -1.1920 N   0  0  0  0  0  0  0  0  0  0  0  0
   -1.2710    0.1190   -1.7920 N   0  0  0  0  0  0  0  0  0  0  0  0
   -0.3810    1.1310   -1.3570 C   0  0  0  0  0  0  0  0  0  0  0  0
   -0.7720    1.9070   -0.4450 O   0  0  0  0  0  0  0  0  0  0  0  0
    0.9540    1.3310   -1.8950 C   0  0  0  0  0  0  0  0  0  0  0  0
    1.3730    0.5780   -2.8360 O   0  0  0  0  0  0  0  0  0  0  0  0
    1.8050    2.3490   -1.3930 N   0  0  0  0  0  0  0  0  0  0  0  0
    3.1270    2.6180   -1.8490 C   0  0  0  0  0  0  0  0  0  0  0  0
    4.1340    1.6610   -1.3280 C   0  0  0  0  0  0  0  0  0  0  0  0
    5.5040    1.9100   -1.4830 C   0  0  0  0  0  0  0  0  0  0  0  0
    6.4520    1.0340   -1.0120 C   0  0  0  0  0  0  0  0  0  0  0  0
    6.0850   -0.1260   -0.3670 C   0  0  0  0  0  0  0  0  0  0  0  0
    7.1590   -1.0340    0.1270 C   0  0  1  0  0  0  0  0  0  0  0  0
    8.2280   -1.0570   -0.8290 N   0  0  0  0  0  0  0  0  0  0  0  0
    7.6050   -0.5550    1.4530 C   0  0  0  0  0  0  0  0  0  0  0  0
    7.1210    0.5080    2.1110 C   0  0  0  0  0  0  0  0  0  0  0  0
    7.7650    0.6880    3.3490 N   0  0  0  0  0  0  0  0  0  0  0  0
    8.7000   -0.3640    3.4130 C   0  0  0  0  0  0  0  0  0  0  0  0
    8.6320   -1.1010    2.3310 C   0  0  0  0  0  0  0  0  0  0  0  0
    4.7530   -0.3840   -0.2080 C   0  0  0  0  0  0  0  0  0  0  0  0
    3.7810    0.5060   -0.6860 C   0  0  0  0  0  0  0  0  0  0  0  0
  1  2  1  0
  2  3  1  0
  3  4  1  0
  4  5  1  0
  5  6  1  6
  5  7  1  0
  5 13  1  0
  7  8  1  0
  8  9  1  1
  8 10  1  0
 10 11  1  0
 10 12  2  0
 13 14  2  0
 13 15  1  0
 15 16  1  0
 16 17  1  0
 17 18  2  0
 17 19  1  0
 19 20  2  0
 19 21  1  0
 21 22  1  0
 22 23  1  0
 23 24  2  0
 23 35  1  0
 24 25  1  0
 25 26  2  0
 26 27  1  0
 26 34  1  0
 27 28  1  6
 27 29  1  0
 29 30  2  0
 29 33  1  0
 30 31  1  0
 31 32  1  0
 32 33  2  0
 34 35  2  0
M  CHG  2  28   1  31   1
M  END
