
     RDKit          3D

 16 17  0  0  0  0  0  0  0  0999 V2000
    6.3930   -0.3800   -0.2230 C   0  0  0  0  0  0  0  0  0  0  0  0
    5.1370   -0.9590    0.1480 O   0  0  0  0  0  0  0  0  0  0  0  0
    3.9450   -0.2530    0.0210 C   0  0  0  0  0  0  0  0  0  0  0  0
    4.0050    0.9120   -0.4270 O   0  0  0  0  0  0  0  0  0  0  0  0
    2.6870   -0.7850    0.3720 N   0  0  0  0  0  0  0  0  0  0  0  0
    1.5160   -0.0450    0.2330 N   0  0  0  0  0  0  0  0  0  0  0  0
    0.2240   -0.6340    0.2920 C   0  0  0  0  0  0  0  0  0  0  0  0
    0.1910   -1.8840    0.4810 O   0  0  0  0  0  0  0  0  0  0  0  0
   -0.9740    0.1930    0.1390 C   0  0  2  0  0  0  0  0  0  0  0  0
   -2.1280   -0.1630    1.0440 C   0  0  1  0  0  0  0  0  0  0  0  0
   -2.8780    0.9730    1.6440 C   0  0  0  0  0  0  0  0  0  0  0  0
   -4.5800    0.9440    1.0410 S   0  0  0  0  0  0  0  0  0  0  0  0
   -4.5270    0.6490   -0.7390 C   0  0  0  0  0  0  0  0  0  0  0  0
   -3.1040    0.5430   -1.1690 C   0  0  0  0  0  0  0  0  0  0  0  0
   -2.2630   -0.3980   -0.3840 C   0  0  1  0  0  0  0  0  0  0  0  0
   -2.2670   -1.7160   -0.8260 O   0  0  0  0  0  0  0  0  0  0  0  0
  1  2  1  0
  2  3  1  0
  3  4  2  0
  3  5  1  0
  5  6  1  0
  6  7  1  0
  7  8  2  0
  9  7  1  1
  9 10  1  0
  9 15  1  0
 10 11  1  6
 10 15  1  0
 11 12  1  0
 12 13  1  0
 13 14  1  0
 14 15  1  0
 15 16  1  1
M  END
