
     RDKit          3D

 16 17  0  0  0  0  0  0  0  0999 V2000
   -0.4090   -2.1290    1.3880 O   0  0  0  0  0  0  0  0  0  0  0  0
   -0.9920   -1.7400    0.2100 C   0  0  0  0  0  0  0  0  0  0  0  0
   -0.7500   -0.3130   -0.1930 C   0  0  2  0  0  0  0  0  0  0  0  0
    0.7180   -0.1800   -0.5730 C   0  0  2  0  0  0  0  0  0  0  0  0
    1.0150   -1.1680   -1.4970 O   0  0  0  0  0  0  0  0  0  0  0  0
    1.6440   -0.1450    0.5990 C   0  0  0  0  0  0  0  0  0  0  0  0
    3.0450   -0.0100    0.1520 C   0  0  0  0  0  0  0  0  0  0  0  0
    3.8800    0.9200    0.4310 N   0  0  0  0  0  0  0  0  0  0  0  0
    5.1200    0.8170   -0.1080 N   0  0  0  0  0  0  0  0  0  0  0  0
    5.5520   -0.4220   -0.4140 O   0  0  0  0  0  0  0  0  0  0  0  0
    4.0110   -1.1000   -0.8970 S   0  0  0  0  0  0  0  0  0  0  0  0
   -1.0530    0.6920    0.8440 C   0  0  0  0  0  0  0  0  0  0  0  0
   -2.4420    1.2700    0.8130 C   0  0  0  0  0  0  0  0  0  0  0  0
   -2.9680    1.4340   -0.5960 C   0  0  0  0  0  0  0  0  0  0  0  0
   -2.7910    0.0570   -1.2450 C   0  0  0  0  0  0  0  0  0  0  0  0
   -1.4390   -0.1310   -1.3940 O   0  0  0  0  0  0  0  0  0  0  0  0
  1  2  1  0
  3  2  1  1
  3  4  1  0
  3 12  1  0
  3 16  1  0
  4  5  1  6
  4  6  1  0
  6  7  1  0
  7  8  2  0
  7 11  1  0
  8  9  1  0
  9 10  1  0
 10 11  1  0
 12 13  1  0
 13 14  1  0
 14 15  1  0
 15 16  1  0
M  END
