
     RDKit          3D

 16 17  0  0  0  0  0  0  0  0999 V2000
    5.0120   -0.6860   -1.0630 C   0  0  0  0  0  0  0  0  0  0  0  0
    3.6670   -1.0610   -0.6640 N   0  0  0  0  0  0  0  0  0  0  0  0
    2.6810   -0.1370   -0.2740 C   0  0  0  0  0  0  0  0  0  0  0  0
    2.9730    1.0830   -0.2680 O   0  0  0  0  0  0  0  0  0  0  0  0
    1.3590   -0.5030    0.1190 N   0  0  0  0  0  0  0  0  0  0  0  0
    0.3610    0.4340    0.5140 C   0  0  2  0  0  0  0  0  0  0  0  0
   -0.1080    0.2570    1.9210 C   0  0  0  0  0  0  0  0  0  0  0  0
   -1.6540    1.1750    1.8980 S   0  0  2  0  0  0  0  0  0  0  0  0
   -1.5080    2.4950    2.5800 O   0  0  0  0  0  0  0  0  0  0  0  0
   -2.7820    0.3690    2.4180 O   0  0  0  0  0  0  0  0  0  0  0  0
   -1.8270    1.3860    0.1210 C   0  0  2  0  0  0  0  0  0  0  0  0
   -3.1660    0.8250   -0.3000 C   0  0  0  0  0  0  0  0  0  0  0  0
   -2.8860   -0.4450   -1.0700 C   0  0  0  0  0  0  0  0  0  0  0  0
   -1.5020   -0.8710   -0.5570 C   0  0  2  0  0  0  0  0  0  0  0  0
   -1.7090   -1.5780    0.5990 O   0  0  0  0  0  0  0  0  0  0  0  0
   -0.8190    0.4350   -0.3990 C   0  0  2  0  0  0  0  0  0  0  0  0
  1  2  1  0
  2  3  1  0
  3  4  2  0
  3  5  1  0
  6  5  1  6
  6  7  1  0
 16  6  1  1
  8  7  1  6
  8  9  2  0
  8 10  2  0
  8 11  1  0
 11 12  1  6
 11 16  1  0
 12 13  1  0
 13 14  1  0
 14 15  1  1
 14 16  1  0
M  END
