
     RDKit          3D

 16 17  0  0  0  0  0  0  0  0999 V2000
    5.0520    1.2000    0.1930 C   0  0  0  0  0  0  0  0  0  0  0  0
    3.8490    0.3110    0.4090 C   0  0  0  0  0  0  0  0  0  0  0  0
    2.6330    1.1200    0.5010 N   0  0  0  0  0  0  0  0  0  0  0  0
    1.3920    0.4970    0.7020 C   0  0  0  0  0  0  0  0  0  0  0  0
    1.1680   -0.7450    0.7760 N   0  0  0  0  0  0  0  0  0  0  0  0
   -0.1520   -1.2120    0.9820 C   0  0  1  0  0  0  0  0  0  0  0  0
   -0.9490   -0.1930    1.7660 C   0  0  2  0  0  0  0  0  0  0  0  0
   -2.2800   -0.3110    1.5000 O   0  0  0  0  0  0  0  0  0  0  0  0
   -2.5140    0.2250    0.2330 C   0  0  2  0  0  0  0  0  0  0  0  0
   -4.0050    0.1640   -0.0170 C   0  0  0  0  0  0  0  0  0  0  0  0
   -4.2460    0.6940   -1.2700 O   0  0  0  0  0  0  0  0  0  0  0  0
   -1.7310   -0.4760   -0.8350 C   0  0  1  0  0  0  0  0  0  0  0  0
   -1.1280    0.4900   -1.6440 O   0  0  0  0  0  0  0  0  0  0  0  0
   -0.8020   -1.5210   -0.3440 C   0  0  2  0  0  0  0  0  0  0  0  0
   -1.4500   -2.7490   -0.2260 O   0  0  0  0  0  0  0  0  0  0  0  0
   -0.2240    1.2910    0.9330 S   0  0  0  0  0  0  0  0  0  0  0  0
  1  2  1  0
  2  3  1  0
  3  4  1  0
  4  5  2  0
  4 16  1  0
  6  5  1  6
  6  7  1  0
  6 14  1  0
  7  8  1  6
  7 16  1  0
  8  9  1  0
  9 10  1  6
  9 12  1  0
 10 11  1  0
 12 13  1  1
 12 14  1  0
 14 15  1  1
M  END
