
     RDKit          3D

 16 17  0  0  0  0  0  0  0  0999 V2000
   -0.6040   -0.6670   -1.7590 C   0  0  0  0  0  0  0  0  0  0  0  0
   -0.0590   -0.3790   -0.3490 C   0  0  1  0  0  0  0  0  0  0  0  0
   -1.1320   -0.8340    0.5740 C   0  0  0  0  0  0  0  0  0  0  0  0
   -0.8990   -1.8060    1.3330 O   0  0  0  0  0  0  0  0  0  0  0  0
   -2.4150   -0.2360    0.6530 N   0  0  0  0  0  0  0  0  0  0  0  0
   -3.4300   -0.6810    1.5380 C   0  0  0  0  0  0  0  0  0  0  0  0
   -4.6750    0.0000    1.5230 N   0  0  0  0  0  0  0  0  0  0  0  0
   -3.2510   -1.9180    2.5610 S   0  0  0  0  0  0  0  0  0  0  0  0
    1.0510   -1.1410   -0.1980 O   0  0  0  0  0  0  0  0  0  0  0  0
    2.2520   -0.5430   -0.1770 C   0  0  1  0  0  0  0  0  0  0  0  0
    2.7520    0.1690   -1.3880 C   0  0  0  0  0  0  0  0  0  0  0  0
    3.4170    1.1710   -0.4310 C   0  0  0  0  0  0  0  0  0  0  0  0
    2.3520    0.7390    0.5890 C   0  0  1  0  0  0  0  0  0  0  0  0
    1.2230    1.5730    0.4190 O   0  0  0  0  0  0  0  0  0  0  0  0
    0.1560    1.0700   -0.2930 C   0  0  0  0  0  0  0  0  0  0  0  0
   -0.6240    1.8350   -0.8870 O   0  0  0  0  0  0  0  0  0  0  0  0
  2  1  1  6
  2  3  1  0
  2  9  1  0
  2 15  1  0
  3  4  2  0
  3  5  1  0
  5  6  1  0
  6  7  1  0
  6  8  2  0
  9 10  1  0
 10 11  1  6
 10 13  1  0
 11 12  1  0
 13 12  1  6
 13 14  1  0
 14 15  1  0
 15 16  2  0
M  END
