
     RDKit          3D

 16 17  0  0  0  0  0  0  0  0999 V2000
   -2.3000   -0.4930    1.7570 C   0  0  0  0  0  0  0  0  0  0  0  0
   -1.3850    0.0630    0.6880 C   0  0  2  0  0  0  0  0  0  0  0  0
    0.2800   -0.3820    1.0610 S   0  0  0  0  0  0  0  0  0  0  0  0
    1.5460    0.2010   -0.0360 C   0  0  1  0  0  0  0  0  0  0  0  0
    2.6410    0.8820    0.7270 C   0  0  0  0  0  0  0  0  0  0  0  0
    3.9620    0.1210    0.5370 C   0  0  0  0  0  0  0  0  0  0  0  0
    4.2360   -0.0660   -0.8260 O   0  0  0  0  0  0  0  0  0  0  0  0
    3.3930   -1.0160   -1.2850 N   0  0  0  0  0  0  0  0  0  0  0  0
    2.0270   -0.8790   -0.9520 C   0  0  0  0  0  0  0  0  0  0  0  0
    1.2070   -1.6890   -1.4390 O   0  0  0  0  0  0  0  0  0  0  0  0
   -1.7180    1.4820    0.4260 C   0  0  0  0  0  0  0  0  0  0  0  0
   -3.0810    1.3340   -0.1530 N   0  0  0  0  0  0  0  0  0  0  0  0
   -3.2330    0.0130   -0.6510 C   0  0  0  0  0  0  0  0  0  0  0  0
   -4.2810   -0.5250   -1.0400 O   0  0  0  0  0  0  0  0  0  0  0  0
   -1.8780   -0.5950   -0.6190 C   0  0  2  0  0  0  0  0  0  0  0  0
   -1.8740   -1.9480   -0.4360 O   0  0  0  0  0  0  0  0  0  0  0  0
  2  1  1  1
  2  3  1  0
  2 11  1  0
  2 15  1  0
  4  3  1  1
  4  5  1  0
  4  9  1  0
  5  6  1  0
  6  7  1  0
  7  8  1  0
  8  9  1  0
  9 10  2  0
 11 12  1  0
 12 13  1  0
 13 14  2  0
 13 15  1  0
 15 16  1  1
M  END
