
     RDKit          3D

 25 26  0  0  0  0  0  0  0  0999 V2000
    6.0780    0.5070    1.2410 C   0  0  0  0  0  0  0  0  0  0  0  0
    4.9890    0.4350    0.1670 C   0  0  0  0  0  0  0  0  0  0  0  0
    3.7520   -0.0790    0.8330 C   0  0  2  0  0  0  0  0  0  0  0  0
    4.0030   -1.3390    1.3650 O   0  0  0  0  0  0  0  0  0  0  0  0
    2.5690   -0.1340   -0.0210 C   0  0  0  0  0  0  0  0  0  0  0  0
    1.9690   -1.2290   -0.1590 O   0  0  0  0  0  0  0  0  0  0  0  0
    2.0370    0.9870   -0.7200 N   0  0  0  0  0  0  0  0  0  0  0  0
    0.8940    1.0020   -1.5660 C   0  0  0  0  0  0  0  0  0  0  0  0
   -0.3730    0.6020   -0.9490 C   0  0  0  0  0  0  0  0  0  0  0  0
   -1.0490   -0.4210   -1.4380 C   0  0  0  0  0  0  0  0  0  0  0  0
   -0.5340   -1.1780   -2.6220 C   0  0  0  0  0  0  0  0  0  0  0  0
   -2.3350   -0.8910   -0.8760 C   0  0  2  0  0  0  0  0  0  0  0  0
   -2.8070   -0.1270    0.2760 C   0  0  0  0  0  0  0  0  0  0  0  0
   -2.1180    0.8950    0.7530 C   0  0  0  0  0  0  0  0  0  0  0  0
   -2.6190    1.6500    1.9200 C   0  0  0  0  0  0  0  0  0  0  0  0
   -1.9310    2.6070    2.3320 O   0  0  0  0  0  0  0  0  0  0  0  0
   -3.7970    1.3450    2.5610 O   0  0  0  0  0  0  0  0  0  0  0  0
   -4.1870    2.1310    3.6680 C   0  0  0  0  0  0  0  0  0  0  0  0
   -0.9230    1.2500    0.1480 O   0  0  0  0  0  0  0  0  0  0  0  0
   -2.2760   -2.3050   -0.6540 N   0  0  0  0  0  0  0  0  0  0  0  0
   -3.5020   -2.8700   -1.0960 C   0  0  0  0  0  0  0  0  0  0  0  0
   -3.9470   -4.0210   -0.8070 O   0  0  0  0  0  0  0  0  0  0  0  0
   -4.1700   -1.9170   -1.9370 N   0  0  0  0  0  0  0  0  0  0  0  0
   -3.3360   -0.7760   -1.9970 C   0  0  0  0  0  0  0  0  0  0  0  0
   -3.4520    0.1350   -2.8470 O   0  0  0  0  0  0  0  0  0  0  0  0
  1  2  1  0
  2  3  1  0
  3  4  1  6
  3  5  1  0
  5  6  2  0
  5  7  1  0
  7  8  1  0
  8  9  1  0
  9 10  2  0
  9 19  1  0
 10 11  1  0
 10 12  1  0
 12 13  1  0
 12 20  1  1
 12 24  1  0
 13 14  2  0
 14 15  1  0
 14 19  1  0
 15 16  2  0
 15 17  1  0
 17 18  1  0
 20 21  1  0
 21 22  2  0
 21 23  1  0
 23 24  1  0
 24 25  2  0
M  END
