
     RDKit          3D

 25 26  0  0  0  0  0  0  0  0999 V2000
   -4.1640    0.1980   -2.9330 C   0  0  0  0  0  0  0  0  0  0  0  0
   -3.1570    0.3510   -2.0330 O   0  0  0  0  0  0  0  0  0  0  0  0
   -3.4190    0.0400   -0.7190 C   0  0  1  0  0  0  0  0  0  0  0  0
   -2.1010    0.3290    0.0230 C   0  0  0  0  0  0  0  0  0  0  0  0
   -1.0210   -0.4610   -0.4840 N   0  0  0  0  0  0  0  0  0  0  0  0
    0.2640   -0.3150    0.0950 C   0  0  0  0  0  0  0  0  0  0  0  0
    0.4530    0.5110    1.0540 O   0  0  0  0  0  0  0  0  0  0  0  0
    1.3980   -1.0470   -0.3310 N   0  0  0  0  0  0  0  0  0  0  0  0
    2.7070   -0.9150    0.2200 C   0  0  0  0  0  0  0  0  0  0  0  0
    3.1840   -2.0150    0.8280 C   0  0  0  0  0  0  0  0  0  0  0  0
    4.5250   -1.9590    1.4220 C   0  0  2  0  0  0  0  0  0  0  0  0
    4.4760   -1.5130    2.7550 O   0  0  0  0  0  0  0  0  0  0  0  0
    5.3800   -0.9900    0.6430 C   0  0  0  0  0  0  0  0  0  0  0  0
    4.7390    0.2990    0.6910 O   0  0  0  0  0  0  0  0  0  0  0  0
    3.4620    0.3020    0.1180 C   0  0  0  0  0  0  0  0  0  0  0  0
    2.9540    1.3520   -0.4910 C   0  0  0  0  0  0  0  0  0  0  0  0
    3.7950    2.5610   -0.5490 C   0  0  0  0  0  0  0  0  0  0  0  0
    3.4080    3.6260   -1.1090 O   0  0  0  0  0  0  0  0  0  0  0  0
    5.0710    2.6040    0.0110 O   0  0  0  0  0  0  0  0  0  0  0  0
    5.8580    3.7330   -0.0420 N   0  0  0  0  0  0  0  0  0  0  0  0
   -4.4380    0.9280   -0.0610 C   0  0  0  0  0  0  0  0  0  0  0  0
   -5.1860    0.2820    1.0610 C   0  0  0  0  0  0  0  0  0  0  0  0
   -5.4660   -1.0410    0.9010 O   0  0  0  0  0  0  0  0  0  0  0  0
   -4.2650   -1.7560    0.7950 C   0  0  0  0  0  0  0  0  0  0  0  0
   -3.7600   -1.4170   -0.6230 C   0  0  0  0  0  0  0  0  0  0  0  0
  1  2  1  0
  2  3  1  0
  3  4  1  1
  3 21  1  0
  3 25  1  0
  4  5  1  0
  5  6  1  0
  6  7  2  0
  6  8  1  0
  8  9  1  0
  9 10  2  0
  9 15  1  0
 10 11  1  0
 11 12  1  1
 11 13  1  0
 13 14  1  0
 14 15  1  0
 15 16  2  3
 16 17  1  0
 17 18  2  0
 17 19  1  0
 19 20  1  0
 21 22  1  0
 22 23  1  0
 23 24  1  0
 24 25  1  0
M  END
