
     RDKit          3D

 25 26  0  0  0  0  0  0  0  0999 V2000
    3.1980   -1.3730    1.7100 C   0  0  0  0  0  0  0  0  0  0  0  0
    3.9120   -0.8720    0.4830 C   0  0  1  0  0  0  0  0  0  0  0  0
    3.0240   -0.8970   -0.6010 O   0  0  0  0  0  0  0  0  0  0  0  0
    2.4790    0.3460   -0.8620 C   0  0  0  0  0  0  0  0  0  0  0  0
    1.3430    0.6730   -1.7530 C   0  0  1  0  0  0  0  0  0  0  0  0
    1.7060    0.2220   -3.1730 C   0  0  0  0  0  0  0  0  0  0  0  0
    1.9010   -1.1570   -3.1240 O   0  0  0  0  0  0  0  0  0  0  0  0
    0.1330   -0.0010   -1.3260 N   0  0  0  0  0  0  0  0  0  0  0  0
   -1.0210    0.7280   -1.0100 C   0  0  0  0  0  0  0  0  0  0  0  0
   -0.9810    1.9790   -1.1060 O   0  0  0  0  0  0  0  0  0  0  0  0
   -2.2690    0.1160   -0.5760 C   0  0  0  0  0  0  0  0  0  0  0  0
   -2.3760   -1.1520   -0.4570 O   0  0  0  0  0  0  0  0  0  0  0  0
   -3.4040    0.8960   -0.2690 N   0  0  0  0  0  0  0  0  0  0  0  0
   -4.6270    0.3080    0.1560 C   0  0  0  0  0  0  0  0  0  0  0  0
   -5.1220    0.6280    1.3410 C   0  0  0  0  0  0  0  0  0  0  0  0
   -6.3770    0.0360    1.7960 C   0  0  0  0  0  0  0  0  0  0  0  0
   -7.0170    0.4540    2.7860 O   0  0  0  0  0  0  0  0  0  0  0  0
   -6.9060   -1.1240    1.0320 C   0  0  0  0  0  0  0  0  0  0  0  0
   -5.9500   -1.6360    0.1670 O   0  0  0  0  0  0  0  0  0  0  0  0
   -5.4040   -0.6620   -0.6580 C   0  0  0  0  0  0  0  0  0  0  0  0
    3.1570    1.2360   -0.1620 C   0  0  0  0  0  0  0  0  0  0  0  0
    4.2040    0.5720    0.6050 C   0  0  0  0  0  0  0  0  0  0  0  0
    5.1950    1.1170    1.2650 C   0  0  0  0  0  0  0  0  0  0  0  0
    6.1190    0.3040    1.9540 N   0  0  0  0  0  0  0  0  0  0  0  0
    7.4340    0.6240    2.0110 O   0  0  0  0  0  0  0  0  0  0  0  0
  2  1  1  1
  2  3  1  0
  2 22  1  0
  3  4  1  0
  4  5  1  0
  4 21  2  0
  5  6  1  6
  5  8  1  0
  6  7  1  0
  8  9  1  0
  9 10  2  0
  9 11  1  0
 11 12  2  0
 11 13  1  0
 13 14  1  0
 14 15  2  0
 14 20  1  0
 15 16  1  0
 16 17  2  0
 16 18  1  0
 18 19  1  0
 19 20  1  0
 21 22  1  0
 22 23  2  3
 23 24  1  0
 24 25  1  0
M  END
