
     RDKit          3D

 25 26  0  0  0  0  0  0  0  0999 V2000
    7.6280   -2.7030    0.5590 C   0  0  0  0  0  0  0  0  0  0  0  0
    6.5810   -1.7720    0.3750 O   0  0  0  0  0  0  0  0  0  0  0  0
    6.7810   -0.4190    0.6160 C   0  0  0  0  0  0  0  0  0  0  0  0
    7.9260   -0.0780    0.9980 O   0  0  0  0  0  0  0  0  0  0  0  0
    5.7420    0.5610    0.4410 C   0  0  0  0  0  0  0  0  0  0  0  0
    4.5270    0.2280    0.0400 C   0  0  0  0  0  0  0  0  0  0  0  0
    4.2660   -1.1040   -0.2150 O   0  0  0  0  0  0  0  0  0  0  0  0
    3.4710    1.2330   -0.1360 C   0  0  0  0  0  0  0  0  0  0  0  0
    2.2870    0.8370   -0.5370 C   0  0  0  0  0  0  0  0  0  0  0  0
    1.1330    1.7290   -0.7570 C   0  0  1  0  0  0  0  0  0  0  0  0
    0.0380    1.1860    0.0220 N   0  0  0  0  0  0  0  0  0  0  0  0
   -1.1240    0.6790   -0.5710 C   0  0  0  0  0  0  0  0  0  0  0  0
   -1.2150    0.6980   -1.8170 O   0  0  0  0  0  0  0  0  0  0  0  0
   -2.2210    0.1380    0.1500 N   0  0  0  0  0  0  0  0  0  0  0  0
   -3.4120   -0.3830   -0.4500 C   0  0  1  0  0  0  0  0  0  0  0  0
   -3.6840   -1.8210   -0.1160 C   0  0  0  0  0  0  0  0  0  0  0  0
   -4.9680   -2.2250   -0.8070 C   0  0  0  0  0  0  0  0  0  0  0  0
   -5.9490   -1.2500   -0.7720 O   0  0  0  0  0  0  0  0  0  0  0  0
   -5.7740   -0.4360    0.3170 C   0  0  2  0  0  0  0  0  0  0  0  0
   -6.9420    0.4540    0.6180 C   0  0  0  0  0  0  0  0  0  0  0  0
   -4.5770    0.4570    0.0320 C   0  0  0  0  0  0  0  0  0  0  0  0
    1.4260    3.0750   -0.4910 N   0  0  0  0  0  0  0  0  0  0  0  0
    2.7080    3.4770   -0.0610 C   0  0  0  0  0  0  0  0  0  0  0  0
    2.9780    4.6940    0.1810 O   0  0  0  0  0  0  0  0  0  0  0  0
    3.7440    2.5790    0.1240 O   0  0  0  0  0  0  0  0  0  0  0  0
  1  2  1  0
  2  3  1  0
  3  4  2  0
  3  5  1  0
  5  6  2  3
  6  7  1  0
  6  8  1  0
  8  9  2  0
  8 25  1  0
  9 10  1  0
 10 11  1  1
 10 22  1  0
 11 12  1  0
 12 13  2  0
 12 14  1  0
 15 14  1  1
 15 16  1  0
 15 21  1  0
 16 17  1  0
 17 18  1  0
 18 19  1  0
 19 20  1  6
 19 21  1  0
 22 23  1  0
 23 24  2  0
 23 25  1  0
M  END
