
     RDKit          3D

 25 26  0  0  0  0  0  0  0  0999 V2000
    2.5820   -0.9710    3.5260 C   0  0  0  0  0  0  0  0  0  0  0  0
    2.2510   -0.4250    2.2060 C   0  0  0  0  0  0  0  0  0  0  0  0
    2.7760    0.7210    1.7630 C   0  0  0  0  0  0  0  0  0  0  0  0
    3.7020    1.4800    2.5740 C   0  0  0  0  0  0  0  0  0  0  0  0
    4.2620    2.5670    2.2700 N   0  0  0  0  0  0  0  0  0  0  0  0
    4.0490    0.9820    3.8640 O   0  0  0  0  0  0  0  0  0  0  0  0
    2.4130    1.2220    0.4390 C   0  0  0  0  0  0  0  0  0  0  0  0
    2.9050    2.2980    0.0200 O   0  0  0  0  0  0  0  0  0  0  0  0
    1.5200    0.5780   -0.4550 N   0  0  0  0  0  0  0  0  0  0  0  0
    1.2030    1.1220   -1.7470 C   0  0  1  0  0  0  0  0  0  0  0  0
    1.4620    0.1790   -2.8770 C   0  0  0  0  0  0  0  0  0  0  0  0
    0.6780    0.7440   -3.9320 O   0  0  0  0  0  0  0  0  0  0  0  0
   -0.3760    1.4630   -3.3920 C   0  0  0  0  0  0  0  0  0  0  0  0
   -1.2360    2.0660   -4.0710 O   0  0  0  0  0  0  0  0  0  0  0  0
   -0.2910    1.3830   -1.9130 C   0  0  1  0  0  0  0  0  0  0  0  0
   -1.0670    0.2030   -1.5220 N   0  0  0  0  0  0  0  0  0  0  0  0
   -2.1130    0.3110   -0.5660 C   0  0  0  0  0  0  0  0  0  0  0  0
   -2.2940    1.4940   -0.1070 O   0  0  0  0  0  0  0  0  0  0  0  0
   -2.9340   -0.7940   -0.1160 C   0  0  0  0  0  0  0  0  0  0  0  0
   -2.7930   -2.0210   -0.5510 C   0  0  0  0  0  0  0  0  0  0  0  0
   -3.6190   -3.1560   -0.1040 C   0  0  0  0  0  0  0  0  0  0  0  0
   -4.5920   -2.8270    0.8430 O   0  0  0  0  0  0  0  0  0  0  0  0
   -4.7440   -1.5450    1.3010 C   0  0  0  0  0  0  0  0  0  0  0  0
   -3.9820   -0.5700    0.8710 C   0  0  0  0  0  0  0  0  0  0  0  0
   -4.1450    0.7450    1.3470 O   0  0  0  0  0  0  0  0  0  0  0  0
  1  2  1  0
  2  3  2  3
  3  4  1  0
  3  7  1  0
  4  5  2  0
  4  6  1  0
  7  8  2  0
  7  9  1  0
 10  9  1  1
 10 11  1  0
 10 15  1  0
 11 12  1  0
 12 13  1  0
 13 14  2  0
 13 15  1  0
 15 16  1  6
 16 17  1  0
 17 18  2  0
 17 19  1  0
 19 20  2  0
 19 24  1  0
 20 21  1  0
 21 22  1  0
 22 23  1  0
 23 24  2  0
 24 25  1  0
M  END
