
     RDKit          3D

 25 26  0  0  0  0  0  0  0  0999 V2000
    7.2120    1.5180    2.3270 C   0  0  0  0  0  0  0  0  0  0  0  0
    7.1510    0.0600    1.9270 C   0  0  0  0  0  0  0  0  0  0  0  0
    6.3390   -0.1740    0.8120 O   0  0  0  0  0  0  0  0  0  0  0  0
    5.0000    0.1160    0.7370 C   0  0  0  0  0  0  0  0  0  0  0  0
    4.4330    0.6310    1.7330 O   0  0  0  0  0  0  0  0  0  0  0  0
    4.1750   -0.1510   -0.4750 C   0  0  1  0  0  0  0  0  0  0  0  0
    4.2510   -1.5920   -0.8500 C   0  0  0  0  0  0  0  0  0  0  0  0
    2.8280   -2.0150   -0.9880 C   0  0  0  0  0  0  0  0  0  0  0  0
    2.0970   -0.9250   -0.2020 C   0  0  2  0  0  0  0  0  0  0  0  0
    0.7400   -0.7970   -0.7960 C   0  0  0  0  0  0  0  0  0  0  0  0
   -0.0510    0.2570   -0.2110 N   0  0  0  0  0  0  0  0  0  0  0  0
   -1.3990    0.4830   -0.7070 C   0  0  0  0  0  0  0  0  0  0  0  0
   -1.7710   -0.2690   -1.6190 O   0  0  0  0  0  0  0  0  0  0  0  0
   -2.2330    1.4660   -0.2110 N   0  0  0  0  0  0  0  0  0  0  0  0
   -3.5550    1.8870   -0.4690 C   0  0  0  0  0  0  0  0  0  0  0  0
   -4.6780    1.0030   -0.1920 C   0  0  0  0  0  0  0  0  0  0  0  0
   -5.4400    1.3650    0.8680 C   0  0  0  0  0  0  0  0  0  0  0  0
   -6.6050    0.5880    1.2860 C   0  0  2  0  0  0  0  0  0  0  0  0
   -6.4200    0.0070    2.6190 N   0  0  0  0  0  0  0  0  0  0  0  0
   -6.9680   -0.4340    0.4190 O   0  0  0  0  0  0  0  0  0  0  0  0
   -6.2050   -0.7930   -0.6480 C   0  0  0  0  0  0  0  0  0  0  0  0
   -6.5460   -1.8910   -1.4680 O   0  0  0  0  0  0  0  0  0  0  0  0
   -5.0940   -0.1210   -0.9720 C   0  0  0  0  0  0  0  0  0  0  0  0
   -4.3910   -0.5800   -2.1070 O   0  0  0  0  0  0  0  0  0  0  0  0
    2.8730    0.2140   -0.3280 O   0  0  0  0  0  0  0  0  0  0  0  0
  1  2  1  0
  2  3  1  0
  3  4  1  0
  4  5  2  0
  6  4  1  1
  6  7  1  0
  6 25  1  0
  7  8  1  0
  8  9  1  0
  9 10  1  6
  9 25  1  0
 10 11  1  0
 11 12  1  0
 12 13  2  0
 12 14  1  0
 14 15  1  0
 15 16  1  0
 16 17  2  0
 16 23  1  0
 17 18  1  0
 18 19  1  1
 18 20  1  0
 20 21  1  0
 21 22  1  0
 21 23  2  0
 23 24  1  0
M  END
