
     RDKit          3D

 25 26  0  0  0  0  0  0  0  0999 V2000
   -6.0220    1.8420   -0.0140 C   0  0  0  0  0  0  0  0  0  0  0  0
   -4.7440    1.3650   -0.6790 C   0  0  1  0  0  0  0  0  0  0  0  0
   -4.4920    2.2010   -1.7680 O   0  0  0  0  0  0  0  0  0  0  0  0
   -3.6090    1.5130    0.3120 C   0  0  0  0  0  0  0  0  0  0  0  0
   -3.6000    0.3900    1.3060 C   0  0  0  0  0  0  0  0  0  0  0  0
   -3.4560   -0.9600    0.6750 C   0  0  2  0  0  0  0  0  0  0  0  0
   -2.0490   -1.4150    0.7670 C   0  0  0  0  0  0  0  0  0  0  0  0
   -1.3530   -1.7880   -0.1970 O   0  0  0  0  0  0  0  0  0  0  0  0
   -1.3790   -1.4570    2.0080 O   0  0  0  0  0  0  0  0  0  0  0  0
   -0.0300   -1.8890    2.0820 C   0  0  0  0  0  0  0  0  0  0  0  0
    0.8680   -1.0680    1.3090 C   0  0  0  0  0  0  0  0  0  0  0  0
    0.7520   -0.1270    0.6560 O   0  0  0  0  0  0  0  0  0  0  0  0
    2.5000   -1.6660    1.4000 N   0  0  0  0  0  0  0  0  0  0  0  0
    3.0980   -0.7080    0.5810 C   0  0  0  0  0  0  0  0  0  0  0  0
    2.7280    0.2990    0.0400 O   0  0  0  0  0  0  0  0  0  0  0  0
    4.5420   -1.0990    0.3710 N   0  0  0  0  0  0  0  0  0  0  0  0
    5.3410   -0.2920   -0.4110 C   0  0  0  0  0  0  0  0  0  0  0  0
    5.8400   -0.7010   -1.5750 C   0  0  0  0  0  0  0  0  0  0  0  0
    6.6810    0.1480   -2.4070 C   0  0  0  0  0  0  0  0  0  0  0  0
    6.9790    1.4060   -1.8710 O   0  0  0  0  0  0  0  0  0  0  0  0
    6.4800    1.8730   -0.6670 C   0  0  0  0  0  0  0  0  0  0  0  0
    5.7060    1.0680    0.0250 C   0  0  0  0  0  0  0  0  0  0  0  0
   -3.9540   -1.0010   -0.6650 N   0  0  0  0  0  0  0  0  0  0  0  0
   -4.8740   -0.0360   -1.1270 C   0  0  0  0  0  0  0  0  0  0  0  0
   -5.7880   -0.3870   -1.9150 O   0  0  0  0  0  0  0  0  0  0  0  0
  2  1  1  1
  2  3  1  0
  2  4  1  0
  2 24  1  0
  4  5  1  0
  5  6  1  0
  6  7  1  6
  6 23  1  0
  7  8  2  0
  7  9  1  0
  9 10  1  0
 10 11  1  0
 11 12  2  0
 11 13  1  0
 13 14  1  0
 14 15  2  0
 14 16  1  0
 16 17  1  0
 17 18  2  0
 17 22  1  0
 18 19  1  0
 19 20  1  0
 20 21  1  0
 21 22  2  0
 23 24  1  0
 24 25  2  0
M  END
