
     RDKit          3D

 25 26  0  0  0  0  0  0  0  0999 V2000
    4.4800   -2.0360   -1.1410 C   0  0  0  0  0  0  0  0  0  0  0  0
    4.1490   -1.6410   -2.4210 O   0  0  0  0  0  0  0  0  0  0  0  0
    4.6540   -0.3990   -2.7340 C   0  0  0  0  0  0  0  0  0  0  0  0
    4.0260    0.7140   -1.8930 C   0  0  2  0  0  0  0  0  0  0  0  0
    2.6310    0.8040   -2.0980 N   0  0  0  0  0  0  0  0  0  0  0  0
    1.5820    0.3770   -1.1800 C   0  0  0  0  0  0  0  0  0  0  0  0
    1.8000   -0.0860   -0.1600 O   0  0  0  0  0  0  0  0  0  0  0  0
    0.2540    0.6760   -1.8830 N   0  0  0  0  0  0  0  0  0  0  0  0
   -0.7540    0.0530   -0.6170 C   0  0  0  0  0  0  0  0  0  0  0  0
   -0.2040   -0.3300    0.3030 O   0  0  0  0  0  0  0  0  0  0  0  0
   -2.1300    0.1660   -1.0330 C   0  0  0  0  0  0  0  0  0  0  0  0
   -3.1550   -0.2600   -0.0690 C   0  0  1  0  0  0  0  0  0  0  0  0
   -3.0650   -1.6920    0.3670 C   0  0  0  0  0  0  0  0  0  0  0  0
   -4.1590   -1.6900    1.4560 C   0  0  0  0  0  0  0  0  0  0  0  0
   -3.9180   -0.3320    2.0480 C   0  0  0  0  0  0  0  0  0  0  0  0
   -4.3450   -0.0010    3.2500 C   0  0  0  0  0  0  0  0  0  0  0  0
   -5.0420   -0.6960    4.1970 O   0  0  0  0  0  0  0  0  0  0  0  0
   -5.2510    0.1200    5.3250 C   0  0  0  0  0  0  0  0  0  0  0  0
   -4.7240    1.3100    5.1570 C   0  0  0  0  0  0  0  0  0  0  0  0
   -4.1070    1.3380    3.8330 C   0  0  0  0  0  0  0  0  0  0  0  0
   -3.5000    2.2510    3.2630 O   0  0  0  0  0  0  0  0  0  0  0  0
   -3.2080    0.4330    1.1310 O   0  0  0  0  0  0  0  0  0  0  0  0
    4.6090    2.0190   -2.3580 C   0  0  0  0  0  0  0  0  0  0  0  0
    6.0190    2.1650   -2.3330 N   0  0  0  0  0  0  0  0  0  0  0  0
    3.9020    2.9510   -2.7580 O   0  0  0  0  0  0  0  0  0  0  0  0
  1  2  1  0
  2  3  1  0
  4  3  1  6
  4  5  1  0
  4 23  1  0
  5  6  1  0
  6  7  2  0
  6  8  1  0
  8  9  1  0
  9 10  2  0
  9 11  1  0
 12 11  1  1
 12 13  1  0
 12 22  1  0
 13 14  1  0
 14 15  1  0
 15 16  2  3
 15 22  1  0
 16 17  1  0
 16 20  1  0
 17 18  1  0
 18 19  2  0
 19 20  1  0
 20 21  2  0
 23 24  1  0
 23 25  2  0
M  END
