
     RDKit          3D

 21 21  0  0  0  0  0  0  0  0999 V2000
   -1.7710   -3.7270   -0.9360 C   0  0  0  0  0  0  0  0  0  0  0  0
   -1.4220   -2.8060    0.2340 C   0  0  1  0  0  0  0  0  0  0  0  0
   -0.0880   -3.2390    0.7470 C   0  0  0  0  0  0  0  0  0  0  0  0
   -1.5070   -1.3830   -0.2030 C   0  0  0  0  0  0  0  0  0  0  0  0
   -1.2010   -0.3710    0.8380 C   0  0  1  0  0  0  0  0  0  0  0  0
    0.1130   -0.4440    1.3960 N   0  0  0  0  0  0  0  0  0  0  0  0
    1.2660   -0.0220    0.6440 C   0  0  0  0  0  0  0  0  0  0  0  0
    1.1570    0.4050   -0.5150 O   0  0  0  0  0  0  0  0  0  0  0  0
    2.5320   -0.1110    1.2700 N   0  0  0  0  0  0  0  0  0  0  0  0
    3.7700    0.2510    0.7040 C   0  0  0  0  0  0  0  0  0  0  0  0
    3.8960    0.7280   -0.5090 C   0  0  0  0  0  0  0  0  0  0  0  0
    5.2270    1.1000   -1.0740 C   0  0  0  0  0  0  0  0  0  0  0  0
    6.2730    0.8840   -0.1850 O   0  0  0  0  0  0  0  0  0  0  0  0
    6.1740    0.3910    1.0770 C   0  0  0  0  0  0  0  0  0  0  0  0
    4.9800    0.0720    1.5450 C   0  0  0  0  0  0  0  0  0  0  0  0
   -1.4410    1.0260    0.3650 C   0  0  0  0  0  0  0  0  0  0  0  0
   -0.6260    1.9580    0.4630 O   0  0  0  0  0  0  0  0  0  0  0  0
   -2.6910    1.3090   -0.2390 N   0  0  0  0  0  0  0  0  0  0  0  0
   -3.0360    2.6280   -0.7360 C   0  0  1  0  0  0  0  0  0  0  0  0
   -3.5210    2.6170   -2.1510 C   0  0  0  0  0  0  0  0  0  0  0  0
   -4.2010    3.1140    0.1320 C   0  0  0  0  0  0  0  0  0  0  0  0
  2  1  1  6
  2  3  1  0
  2  4  1  0
  5  4  1  6
  5  6  1  0
  5 16  1  0
  6  7  1  0
  7  8  2  0
  7  9  1  0
  9 10  1  0
 10 11  2  0
 10 15  1  0
 11 12  1  0
 12 13  1  0
 13 14  1  0
 14 15  2  0
 16 17  2  0
 16 18  1  0
 18 19  1  0
 19 20  1  6
 19 21  1  0
M  END
