
     RDKit          3D

 26 25  0  0  0  0  0  0  0  0999 V2000
    0.7060   -2.4040    3.5070 C   0  0  0  0  0  0  0  0  0  0  0  0
    0.6080   -1.4510    2.5040 O   0  0  0  0  0  0  0  0  0  0  0  0
    0.4140   -2.0240    1.2680 C   0  0  0  0  0  0  0  0  0  0  0  0
    0.2900   -1.1710    0.1000 C   0  0  1  0  0  0  0  0  0  0  0  0
    0.5470   -2.1670   -1.1190 C   0  0  0  0  0  0  0  0  0  0  0  0
   -0.0660   -3.2980   -1.1380 O   0  0  0  0  0  0  0  0  0  0  0  0
   -1.2830   -3.7470   -1.1570 C   0  0  0  0  0  0  0  0  0  0  0  0
   -1.0460   -0.6160   -0.2370 C   0  0  0  0  0  0  0  0  0  0  0  0
   -1.8500    0.2330    0.6490 C   0  0  2  0  0  0  0  0  0  0  0  0
   -2.3560   -0.4430    1.8740 C   0  0  0  0  0  0  0  0  0  0  0  0
   -3.3300    0.6300    2.9830 S   0  0  0  0  0  0  0  0  0  0  0  0
   -2.8240    1.1200   -0.0780 C   0  0  2  0  0  0  0  0  0  0  0  0
   -3.6500    1.9460    0.7770 N   0  0  0  0  0  0  0  0  0  0  0  0
   -3.7390    0.4180   -1.0160 C   0  0  0  0  0  0  0  0  0  0  0  0
   -4.5680   -0.5730   -0.3570 N   0  0  0  0  0  0  0  0  0  0  0  0
   -2.0640    2.1450   -0.9000 C   0  0  0  0  0  0  0  0  0  0  0  0
   -2.1730    3.5560   -0.6000 N   0  0  0  0  0  0  0  0  0  0  0  0
   -1.3190    1.8770   -1.8540 O   0  0  0  0  0  0  0  0  0  0  0  0
    1.1620   -0.2050   -0.0960 O   0  0  0  0  0  0  0  0  0  0  0  0
    2.3640    0.1350   -0.1920 C   0  0  0  0  0  0  0  0  0  0  0  0
    3.3970   -0.3880   -1.1200 C   0  0  0  0  0  0  0  0  0  0  0  0
    4.7230    0.3340   -0.9840 C   0  0  0  0  0  0  0  0  0  0  0  0
    4.7240    1.7510   -1.3130 C   0  0  0  0  0  0  0  0  0  0  0  0
    3.7470    2.3630   -1.7680 O   0  0  0  0  0  0  0  0  0  0  0  0
    5.8940    2.4690   -1.1070 O   0  0  0  0  0  0  0  0  0  0  0  0
    6.0000    3.8490   -1.3970 C   0  0  0  0  0  0  0  0  0  0  0  0
  1  2  1  0
  2  3  1  0
  4  3  1  1
  4  5  1  0
  4  8  1  0
  4 19  1  0
  5  6  1  0
  6  7  1  0
  9  8  1  6
  9 10  1  0
  9 12  1  0
 10 11  1  0
 12 13  1  1
 12 14  1  0
 12 16  1  0
 14 15  1  0
 16 17  1  0
 16 18  2  0
 19 20  1  0
 20 21  1  0
 21 22  1  0
 22 23  1  0
 23 24  2  0
 23 25  1  0
 25 26  1  0
M  CHG  1  13   1
M  END
