
     RDKit          3D

 21 21  0  0  0  0  0  0  0  0999 V2000
   -2.8950    2.0430   -0.7360 C   0  0  0  0  0  0  0  0  0  0  0  0
   -2.5900    0.9960    0.2260 N   0  0  0  0  0  0  0  0  0  0  0  0
   -1.3290    1.1520    0.9430 C   0  0  0  0  0  0  0  0  0  0  0  0
   -0.1920    0.4850    0.2130 C   0  0  0  0  0  0  0  0  0  0  0  0
    1.0220    0.6840    0.9830 N   0  0  0  0  0  0  0  0  0  0  0  0
    2.2730    0.1680    0.5510 C   0  0  0  0  0  0  0  0  0  0  0  0
    2.3280   -0.4740   -0.5220 O   0  0  0  0  0  0  0  0  0  0  0  0
    3.5060    0.3710    1.3350 C   0  0  0  0  0  0  0  0  0  0  0  0
    4.6480   -0.2680    0.6450 C   0  0  0  0  0  0  0  0  0  0  0  0
    5.3350   -1.2180    1.2400 C   0  0  0  0  0  0  0  0  0  0  0  0
    6.4320   -1.8500    0.6090 N   0  0  0  0  0  0  0  0  0  0  0  0
    6.8860   -1.5240   -0.6990 C   0  0  0  0  0  0  0  0  0  0  0  0
    6.0770   -0.4630   -1.2970 C   0  0  0  0  0  0  0  0  0  0  0  0
    5.0580    0.1120   -0.6890 C   0  0  0  0  0  0  0  0  0  0  0  0
    4.3330    1.1240   -1.3340 O   0  0  0  0  0  0  0  0  0  0  0  0
   -3.4260   -0.1200    0.4870 C   0  0  0  0  0  0  0  0  0  0  0  0
   -3.0140   -0.9390    1.3580 O   0  0  0  0  0  0  0  0  0  0  0  0
   -4.7150   -0.3700   -0.1870 C   0  0  2  0  0  0  0  0  0  0  0  0
   -4.6260   -0.5640   -1.6580 C   0  0  0  0  0  0  0  0  0  0  0  0
   -5.7280    0.7250    0.1010 C   0  0  0  0  0  0  0  0  0  0  0  0
   -5.3360   -1.6380    0.4110 C   0  0  0  0  0  0  0  0  0  0  0  0
  1  2  1  0
  2  3  1  0
  2 16  1  0
  3  4  1  0
  4  5  1  0
  5  6  1  0
  6  7  2  0
  6  8  1  0
  8  9  1  0
  9 10  2  0
  9 14  1  0
 10 11  1  0
 11 12  1  0
 12 13  1  0
 13 14  2  0
 14 15  1  0
 16 17  2  0
 16 18  1  0
 18 19  1  6
 18 20  1  0
 18 21  1  0
M  END
