
     RDKit          3D

 21 21  0  0  0  0  0  0  0  0999 V2000
    4.4140    1.9710    4.6440 C   0  0  0  0  0  0  0  0  0  0  0  0
    4.5070    1.4030    3.2420 C   0  0  0  0  0  0  0  0  0  0  0  0
    3.2630    0.5430    3.0070 C   0  0  0  0  0  0  0  0  0  0  0  0
    3.3070   -0.0840    1.6380 C   0  0  0  0  0  0  0  0  0  0  0  0
    4.4640   -0.3130    1.1290 O   0  0  0  0  0  0  0  0  0  0  0  0
    2.1780   -0.4310    0.8680 N   0  0  0  0  0  0  0  0  0  0  0  0
    2.3830   -1.0810   -0.4090 C   0  0  0  0  0  0  0  0  0  0  0  0
    3.6220   -1.4940   -0.6820 N   0  0  0  0  0  0  0  0  0  0  0  0
    3.9310   -2.1520   -1.8170 C   0  0  0  0  0  0  0  0  0  0  0  0
    2.9470   -2.4190   -2.7400 C   0  0  0  0  0  0  0  0  0  0  0  0
    1.6640   -1.9890   -2.4510 C   0  0  0  0  0  0  0  0  0  0  0  0
    1.3550   -1.3090   -1.2760 C   0  0  0  0  0  0  0  0  0  0  0  0
    0.0610   -0.8940   -1.0300 O   0  0  0  0  0  0  0  0  0  0  0  0
   -1.0000   -1.1180   -1.9390 C   0  0  0  0  0  0  0  0  0  0  0  0
   -2.2610   -0.5440   -1.3810 C   0  0  0  0  0  0  0  0  0  0  0  0
   -3.2630   -0.1010   -0.9210 C   0  0  0  0  0  0  0  0  0  0  0  0
   -4.5210    0.4450   -0.3430 C   0  0  0  0  0  0  0  0  0  0  0  0
   -5.5350    0.7690   -1.4520 C   0  0  0  0  0  0  0  0  0  0  0  0
   -6.7820    1.3070   -0.8420 C   0  0  0  0  0  0  0  0  0  0  0  0
   -8.0350    1.2640   -1.4460 N   0  0  0  0  0  0  0  0  0  0  0  0
   -6.6550    1.8370    0.3080 O   0  0  0  0  0  0  0  0  0  0  0  0
  1  2  1  0
  2  3  1  0
  3  4  1  0
  4  5  2  0
  4  6  1  0
  6  7  1  0
  7  8  2  0
  7 12  1  0
  8  9  1  0
  9 10  2  0
 10 11  1  0
 11 12  2  0
 12 13  1  0
 13 14  1  0
 14 15  1  0
 15 16  3  0
 16 17  1  0
 17 18  1  0
 18 19  1  0
 19 20  1  0
 19 21  2  0
M  END
