
     RDKit          3D

 21 21  0  0  0  0  0  0  0  0999 V2000
   -1.5080   -2.2370    0.0160 C   0  0  0  0  0  0  0  0  0  0  0  0
   -2.6250   -1.6080   -0.2030 C   0  0  0  0  0  0  0  0  0  0  0  0
   -3.7990   -2.5130   -0.5040 C   0  0  0  0  0  0  0  0  0  0  0  0
   -2.8340   -0.1480   -0.0950 C   0  0  0  0  0  0  0  0  0  0  0  0
   -3.9640    0.4010   -0.3690 C   0  0  0  0  0  0  0  0  0  0  0  0
   -5.2440   -0.0400   -0.8050 C   0  0  0  0  0  0  0  0  0  0  0  0
   -6.1480    0.9010   -0.9480 O   0  0  0  0  0  0  0  0  0  0  0  0
   -1.7160    0.6600    0.4190 C   0  0  0  0  0  0  0  0  0  0  0  0
   -0.5860    0.0400    0.6660 N   0  0  0  0  0  0  0  0  0  0  0  0
    0.5790    0.5230    1.1370 N   0  0  0  0  0  0  0  0  0  0  0  0
    1.8330    0.4810    0.4000 C   0  0  0  0  0  0  0  0  0  0  0  0
    1.8080    0.8540   -0.9230 C   0  0  0  0  0  0  0  0  0  0  0  0
    2.9960    0.7740   -1.6290 C   0  0  0  0  0  0  0  0  0  0  0  0
    4.1460    0.3310   -0.9910 C   0  0  0  0  0  0  0  0  0  0  0  0
    4.1960   -0.0470    0.3310 C   0  0  0  0  0  0  0  0  0  0  0  0
    5.2950   -0.4920    1.0080 O   0  0  0  0  0  0  0  0  0  0  0  0
    6.5660   -0.6400    0.4630 C   0  0  0  0  0  0  0  0  0  0  0  0
    2.9750    0.0440    1.0260 C   0  0  0  0  0  0  0  0  0  0  0  0
   -1.7900    2.0650    0.6870 C   0  0  0  0  0  0  0  0  0  0  0  0
   -2.7960    3.0050    0.5520 N   0  0  0  0  0  0  0  0  0  0  0  0
   -0.6820    2.6300    1.1720 O   0  0  0  0  0  0  0  0  0  0  0  0
  1  2  2  0
  2  3  1  0
  2  4  1  0
  4  5  2  3
  4  8  1  0
  5  6  1  0
  6  7  2  0
  8  9  2  3
  8 19  1  0
  9 10  1  0
 10 11  1  0
 11 12  2  0
 11 18  1  0
 12 13  1  0
 13 14  2  0
 14 15  1  0
 15 16  1  0
 15 18  2  0
 16 17  1  0
 19 20  1  0
 19 21  2  0
M  END
