
     RDKit          3D

 26 25  0  0  0  0  0  0  0  0999 V2000
    7.3010   -0.7890    0.4250 C   0  0  0  0  0  0  0  0  0  0  0  0
    6.8160    0.5030    0.5280 O   0  0  0  0  0  0  0  0  0  0  0  0
    6.5430    1.0080   -0.7090 C   0  0  0  0  0  0  0  0  0  0  0  0
    5.4760    0.3230   -1.4720 C   0  0  0  0  0  0  0  0  0  0  0  0
    4.2270    0.2800   -0.9580 O   0  0  0  0  0  0  0  0  0  0  0  0
    3.9940   -0.2840    0.2420 C   0  0  0  0  0  0  0  0  0  0  0  0
    2.5450   -0.2890    0.6560 C   0  0  0  0  0  0  0  0  0  0  0  0
    1.9150    0.9720    0.7760 N   0  0  0  0  0  0  0  0  0  0  0  0
    2.5130    2.2430    0.6420 C   0  0  0  0  0  0  0  0  0  0  0  0
    3.8640    2.5350    0.3690 N   0  0  0  0  0  0  0  0  0  0  0  0
    1.5370    3.5730    0.8220 S   0  0  0  0  0  0  0  0  0  0  0  0
    0.4750    0.9860    1.1040 C   0  0  2  0  0  0  0  0  0  0  0  0
    0.4100    0.4890    2.5360 C   0  0  0  0  0  0  0  0  0  0  0  0
   -0.8610    0.4550    3.0740 O   0  0  0  0  0  0  0  0  0  0  0  0
   -0.1780    0.0660    0.1330 C   0  0  0  0  0  0  0  0  0  0  0  0
   -1.6780    0.0150    0.2850 C   0  0  0  0  0  0  0  0  0  0  0  0
   -2.2720    0.8010    1.0390 O   0  0  0  0  0  0  0  0  0  0  0  0
   -2.4240   -0.8970   -0.4010 O   0  0  0  0  0  0  0  0  0  0  0  0
   -3.8130   -1.0780   -0.3890 C   0  0  1  0  0  0  0  0  0  0  0  0
   -4.2890   -1.3460    0.9910 C   0  0  0  0  0  0  0  0  0  0  0  0
   -4.5710   -0.0900   -1.1880 C   0  0  0  0  0  0  0  0  0  0  0  0
   -4.4450    1.3440   -0.8580 C   0  0  0  0  0  0  0  0  0  0  0  0
   -5.3470    2.0570   -1.7980 N   0  0  0  0  0  0  0  0  0  0  0  0
   -3.9670   -2.4450   -1.1670 C   0  0  0  0  0  0  0  0  0  0  0  0
   -5.4080   -2.8150   -1.2630 C   0  0  0  0  0  0  0  0  0  0  0  0
   -6.0490   -2.9760   -0.0500 O   0  0  0  0  0  0  0  0  0  0  0  0
  1  2  1  0
  2  3  1  0
  3  4  1  0
  4  5  1  0
  5  6  1  0
  6  7  1  0
  7  8  1  0
  8  9  1  0
  8 12  1  0
  9 10  1  0
  9 11  2  0
 12 13  1  1
 12 15  1  0
 13 14  1  0
 15 16  1  0
 16 17  2  0
 16 18  1  0
 18 19  1  0
 19 20  1  1
 19 21  1  0
 19 24  1  0
 21 22  1  0
 22 23  1  0
 24 25  1  0
 25 26  1  0
M  CHG  1  23   1
M  END
