
     RDKit          3D

 21 21  0  0  0  0  0  0  0  0999 V2000
    5.4880   -2.7700   -0.5360 C   0  0  0  0  0  0  0  0  0  0  0  0
    4.3540   -2.5550   -1.1560 C   0  0  0  0  0  0  0  0  0  0  0  0
    3.6210   -1.2920   -0.9580 C   0  0  0  0  0  0  0  0  0  0  0  0
    2.2960   -1.4980   -0.4160 N   0  0  0  0  0  0  0  0  0  0  0  0
    1.4500   -0.3870   -0.1570 C   0  0  0  0  0  0  0  0  0  0  0  0
    1.8460    0.8980   -0.4010 C   0  0  0  0  0  0  0  0  0  0  0  0
    1.0360    2.0030   -0.1540 C   0  0  0  0  0  0  0  0  0  0  0  0
   -0.2160    1.8050    0.3560 C   0  0  0  0  0  0  0  0  0  0  0  0
   -1.1060    2.8410    0.6440 N   0  0  0  0  0  0  0  0  0  0  0  0
   -0.8500    4.2050    0.4390 C   0  0  0  0  0  0  0  0  0  0  0  0
    0.2040    4.6760   -0.0290 O   0  0  0  0  0  0  0  0  0  0  0  0
   -1.8260    5.1690    0.7680 O   0  0  0  0  0  0  0  0  0  0  0  0
   -1.5810    6.5470    0.5650 C   0  0  0  0  0  0  0  0  0  0  0  0
   -0.6620    0.4980    0.6210 C   0  0  0  0  0  0  0  0  0  0  0  0
   -1.9880    0.2680    1.1830 C   0  0  0  0  0  0  0  0  0  0  0  0
   -2.3560   -1.1040    1.3790 N   0  0  0  0  0  0  0  0  0  0  0  0
   -2.5300   -2.0360    0.2920 C   0  0  0  0  0  0  0  0  0  0  0  0
   -2.3610   -1.6270   -0.8700 O   0  0  0  0  0  0  0  0  0  0  0  0
   -2.8990   -3.4410    0.5250 C   0  0  0  0  0  0  0  0  0  0  0  0
   -3.0020   -4.1580   -0.8020 C   0  0  0  0  0  0  0  0  0  0  0  0
    0.1720   -0.5480    0.3620 C   0  0  0  0  0  0  0  0  0  0  0  0
  1  2  2  0
  2  3  1  0
  3  4  1  0
  4  5  1  0
  5  6  2  0
  5 21  1  0
  6  7  1  0
  7  8  2  0
  8  9  1  0
  8 14  1  0
  9 10  1  0
 10 11  2  0
 10 12  1  0
 12 13  1  0
 14 15  1  0
 14 21  2  0
 15 16  1  0
 16 17  1  0
 17 18  2  0
 17 19  1  0
 19 20  1  0
M  END
