
     RDKit          3D

 45 49  0  0  0  0  0  0  0  0999 V2000
   -5.0960    2.1510   -2.2590 C   0  0  0  0  0  0  0  0  0  0  0  0
   -4.8080    1.4530   -0.9390 C   0  0  2  0  0  0  0  0  0  0  0  0
   -3.5780    1.9940   -0.3480 C   0  0  0  0  0  0  0  0  0  0  0  0
   -2.3560    1.0890   -0.3490 C   0  0  1  0  0  0  0  0  0  0  0  0
   -1.5530    1.3820   -1.5760 C   0  0  0  0  0  0  0  0  0  0  0  0
   -1.6250    1.3760    0.9090 C   0  0  0  0  0  0  0  0  0  0  0  0
   -0.4340    0.6620    1.2290 N   0  0  0  0  0  0  0  0  0  0  0  0
    0.8120    0.6840    0.6140 C   0  0  0  0  0  0  0  0  0  0  0  0
    1.0220    1.4310   -0.3660 O   0  0  0  0  0  0  0  0  0  0  0  0
    1.9620   -0.1730    1.0760 C   0  0  0  0  0  0  0  0  0  0  0  0
    1.8000   -0.9600    2.0530 C   0  0  0  0  0  0  0  0  0  0  0  0
    2.8200   -1.8980    2.6370 C   0  0  0  0  0  0  0  0  0  0  0  0
    3.3620   -2.9110    1.9560 C   0  0  0  0  0  0  0  0  0  0  0  0
    4.2860   -3.7690    2.5080 C   0  0  0  0  0  0  0  0  0  0  0  0
    4.4150   -3.0650    4.2020 S   0  0  0  0  0  0  0  0  0  0  0  0
    3.2190   -1.7150    3.9630 C   0  0  0  0  0  0  0  0  0  0  0  0
    3.2260    0.1390    0.4410 C   0  0  0  0  0  0  0  0  0  0  0  0
    3.1660    0.8800   -0.6160 O   0  0  0  0  0  0  0  0  0  0  0  0
    4.5230   -0.2350    0.8050 N   0  0  0  0  0  0  0  0  0  0  0  0
    5.6700    0.1180    0.0050 C   0  0  0  0  0  0  0  0  0  0  0  0
    5.5080    0.7700   -1.0350 O   0  0  0  0  0  0  0  0  0  0  0  0
    7.0000   -0.2890    0.4190 C   0  0  0  0  0  0  0  0  0  0  0  0
    8.2060   -0.0530   -0.1910 C   0  0  0  0  0  0  0  0  0  0  0  0
    9.1820   -0.6420    0.5950 C   0  0  0  0  0  0  0  0  0  0  0  0
   10.6000   -0.6110    0.2820 C   0  0  0  0  0  0  0  0  0  0  0  0
   11.4120   -1.1840    1.0670 O   0  0  0  0  0  0  0  0  0  0  0  0
   11.1220    0.0660   -0.9180 C   0  0  1  0  0  0  0  0  0  0  0  0
   12.3440    0.9630   -0.7160 C   0  0  0  0  0  0  0  0  0  0  0  0
   12.4600   -0.3000   -1.4560 C   0  0  0  0  0  0  0  0  0  0  0  0
    8.5670   -1.1930    1.6120 O   0  0  0  0  0  0  0  0  0  0  0  0
    7.2750   -0.9940    1.5240 N   0  0  0  0  0  0  0  0  0  0  0  0
   -2.7460   -0.3680   -0.3850 C   0  0  0  0  0  0  0  0  0  0  0  0
   -4.0730   -0.5480   -0.0020 O   0  0  0  0  0  0  0  0  0  0  0  0
   -4.8300   -0.0250   -1.0570 C   0  0  1  0  0  0  0  0  0  0  0  0
   -6.1800   -0.6430   -0.9340 C   0  0  0  0  0  0  0  0  0  0  0  0
   -6.1870   -1.9920   -0.6590 C   0  0  0  0  0  0  0  0  0  0  0  0
   -7.3690   -2.6900   -0.5200 C   0  0  0  0  0  0  0  0  0  0  0  0
   -8.5580   -2.0170   -0.6600 C   0  0  0  0  0  0  0  0  0  0  0  0
   -9.7080   -2.6980   -0.5240 F   0  0  0  0  0  0  0  0  0  0  0  0
   -8.5530   -0.6340   -0.9410 C   0  0  0  0  0  0  0  0  0  0  0  0
   -9.8690   -0.0240   -1.1190 C   0  0  0  0  0  0  0  0  0  0  0  0
   -9.9400    1.3150   -1.3130 O   0  0  0  0  0  0  0  0  0  0  0  0
   -9.6040    2.0000   -0.1570 C   0  0  0  0  0  0  0  0  0  0  0  0
   -9.6360    3.3810   -0.4060 F   0  0  0  0  0  0  0  0  0  0  0  0
   -7.3680    0.0350   -1.0760 C   0  0  0  0  0  0  0  0  0  0  0  0
  2  1  1  6
  2  3  1  0
  2 34  1  0
  3  4  1  0
  4  5  1  6
  4  6  1  0
  4 32  1  0
  6  7  1  0
  7  8  1  0
  8  9  2  0
  8 10  1  0
 10 11  2  3
 10 17  1  0
 11 12  1  0
 12 13  1  0
 12 16  2  0
 13 14  2  0
 14 15  1  0
 15 16  1  0
 17 18  2  0
 17 19  1  0
 19 20  1  0
 20 21  2  0
 20 22  1  0
 22 23  1  0
 22 31  2  0
 23 24  2  0
 24 25  1  0
 24 30  1  0
 25 26  2  0
 27 25  1  1
 27 28  1  0
 27 29  1  0
 28 29  1  0
 30 31  1  0
 32 33  1  0
 33 34  1  0
 34 35  1  1
 35 36  2  0
 35 45  1  0
 36 37  1  0
 37 38  2  0
 38 39  1  0
 38 40  1  0
 40 41  1  0
 40 45  2  0
 41 42  1  0
 42 43  1  0
 43 44  1  0
M  END
