
     RDKit          3D

 45 48  0  0  0  0  0  0  0  0999 V2000
   -1.5650   -5.5590   -2.7530 C   0  0  0  0  0  0  0  0  0  0  0  0
   -0.5910   -5.3780   -1.5960 C   0  0  0  0  0  0  0  0  0  0  0  0
   -1.0150   -4.2660   -0.8080 O   0  0  0  0  0  0  0  0  0  0  0  0
   -2.2420   -4.2470   -0.1020 C   0  0  0  0  0  0  0  0  0  0  0  0
   -2.9710   -5.3850   -0.0410 C   0  0  0  0  0  0  0  0  0  0  0  0
   -4.2160   -5.2670    0.6260 C   0  0  0  0  0  0  0  0  0  0  0  0
   -4.6640   -4.0820    1.1730 C   0  0  0  0  0  0  0  0  0  0  0  0
   -5.9320   -4.1010    1.7670 O   0  0  0  0  0  0  0  0  0  0  0  0
   -6.6350   -5.3750    1.6300 C   0  0  0  0  0  0  0  0  0  0  0  0
   -3.8480   -2.9990    1.0650 C   0  0  0  0  0  0  0  0  0  0  0  0
   -2.6260   -2.9850    0.4530 C   0  0  0  0  0  0  0  0  0  0  0  0
   -1.7330   -2.0600    0.2180 O   0  0  0  0  0  0  0  0  0  0  0  0
   -1.3460   -0.8150    0.2620 C   0  0  0  0  0  0  0  0  0  0  0  0
   -1.4550    0.0320    1.2120 C   0  0  0  0  0  0  0  0  0  0  0  0
   -0.9030    1.4760    0.9320 C   0  0  0  0  0  0  0  0  0  0  0  0
   -1.6170    1.6800   -0.2870 N   0  0  0  0  0  0  0  0  0  0  0  0
   -2.8000    2.4560   -0.4420 C   0  0  0  0  0  0  0  0  0  0  0  0
   -3.4530    2.5970   -1.4110 O   0  0  0  0  0  0  0  0  0  0  0  0
   -3.2320    3.1870    0.8520 C   0  0  0  0  0  0  0  0  0  0  0  0
   -2.0940    4.3840    1.4110 S   0  0  0  0  0  0  0  0  0  0  0  0
   -1.8490    5.7780    0.4460 C   0  0  0  0  0  0  0  0  0  0  0  0
   -2.1880    5.6660   -1.0540 C   0  0  0  0  0  0  0  0  0  0  0  0
   -2.0050    6.8290   -1.6810 C   0  0  0  0  0  0  0  0  0  0  0  0
   -1.5940    8.0200   -1.2800 C   0  0  0  0  0  0  0  0  0  0  0  0
   -1.4720    9.1030   -2.0860 F   0  0  0  0  0  0  0  0  0  0  0  0
   -1.2940    8.0950    0.0530 C   0  0  0  0  0  0  0  0  0  0  0  0
   -0.8510    9.2940    0.5850 F   0  0  0  0  0  0  0  0  0  0  0  0
   -1.4280    6.9810    0.8800 C   0  0  0  0  0  0  0  0  0  0  0  0
   -1.2260    0.9190   -1.5020 C   0  0  0  0  0  0  0  0  0  0  0  0
   -0.6760   -0.3940   -1.0840 C   0  0  1  0  0  0  0  0  0  0  0  0
    0.7050   -0.2280   -0.7090 N   0  0  0  0  0  0  0  0  0  0  0  0
    1.4710   -1.0960    0.1310 C   0  0  0  0  0  0  0  0  0  0  0  0
    0.9690   -2.1210    0.6650 O   0  0  0  0  0  0  0  0  0  0  0  0
    2.8760   -0.7500    0.3440 C   0  0  0  0  0  0  0  0  0  0  0  0
    3.5060   -0.6840    1.5340 C   0  0  0  0  0  0  0  0  0  0  0  0
    4.8010   -0.2240    1.7280 C   0  0  0  0  0  0  0  0  0  0  0  0
    5.5020    0.2050    0.6310 C   0  0  0  0  0  0  0  0  0  0  0  0
    6.7630    0.7020    0.5900 O   0  0  0  0  0  0  0  0  0  0  0  0
    7.3570    0.9410    1.8980 C   0  0  0  0  0  0  0  0  0  0  0  0
    8.7230    1.4770    1.6710 C   0  0  0  0  0  0  0  0  0  0  0  0
    9.5510    0.5190    1.0510 O   0  0  0  0  0  0  0  0  0  0  0  0
    4.8870    0.1520   -0.6590 C   0  0  0  0  0  0  0  0  0  0  0  0
    5.4590    0.8200   -1.6400 C   0  0  0  0  0  0  0  0  0  0  0  0
    6.0910    1.5430   -2.7400 N   0  0  0  0  0  0  0  0  0  0  0  0
    3.6240   -0.3100   -0.7760 C   0  0  0  0  0  0  0  0  0  0  0  0
  1  2  1  0
  2  3  1  0
  3  4  1  0
  4  5  2  0
  4 11  1  0
  5  6  1  0
  6  7  2  0
  7  8  1  0
  7 10  1  0
  8  9  1  0
 10 11  2  0
 11 12  1  0
 12 13  1  0
 13 14  2  0
 13 30  1  0
 14 15  1  0
 15 16  1  0
 16 17  1  0
 16 29  1  0
 17 18  2  0
 17 19  1  0
 19 20  1  0
 20 21  1  0
 21 22  2  0
 21 28  1  0
 22 23  1  0
 23 24  2  0
 24 25  1  0
 24 26  1  0
 26 27  1  0
 26 28  2  0
 29 30  1  0
 30 31  1  1
 31 32  1  0
 32 33  2  0
 32 34  1  0
 34 35  2  0
 34 45  1  0
 35 36  1  0
 36 37  2  0
 37 38  1  0
 37 42  1  0
 38 39  1  0
 39 40  1  0
 40 41  1  0
 42 43  1  0
 42 45  2  0
 43 44  3  0
M  END
