
     RDKit          3D

 45 48  0  0  0  0  0  0  0  0999 V2000
   -7.2660    4.2710   -2.4390 C   0  0  0  0  0  0  0  0  0  0  0  0
   -7.9380    2.8930   -2.5150 C   0  0  0  0  0  0  0  0  0  0  0  0
   -8.6740    2.6080   -1.2820 C   0  0  0  0  0  0  0  0  0  0  0  0
   -9.7050    3.5900   -0.7590 C   0  0  0  0  0  0  0  0  0  0  0  0
   -8.4930    1.5310   -0.5870 C   0  0  0  0  0  0  0  0  0  0  0  0
   -7.5560    0.4990   -0.9590 C   0  0  0  0  0  0  0  0  0  0  0  0
   -7.5820   -0.1660   -2.1470 C   0  0  0  0  0  0  0  0  0  0  0  0
   -8.5810    0.0750   -3.0460 F   0  0  0  0  0  0  0  0  0  0  0  0
   -6.6070   -1.1140   -2.4160 C   0  0  0  0  0  0  0  0  0  0  0  0
   -6.6830   -1.8120   -3.7360 C   0  0  0  0  0  0  0  0  0  0  0  0
   -5.6060   -1.4010   -1.5030 C   0  0  0  0  0  0  0  0  0  0  0  0
   -5.5680   -0.7300   -0.2840 C   0  0  0  0  0  0  0  0  0  0  0  0
   -4.5350   -1.0290    0.6650 N   0  0  0  0  0  0  0  0  0  0  0  0
   -3.6600    0.0650    1.0530 C   0  0  0  0  0  0  0  0  0  0  0  0
   -2.4770   -0.5360    1.7730 C   0  0  2  0  0  0  0  0  0  0  0  0
   -1.8620   -1.4360    0.8940 O   0  0  0  0  0  0  0  0  0  0  0  0
   -0.5080   -1.1300    0.7580 C   0  0  0  0  0  0  0  0  0  0  0  0
    0.1300   -2.0910   -0.1940 C   0  0  0  0  0  0  0  0  0  0  0  0
    1.4860   -1.7940   -0.3330 O   0  0  0  0  0  0  0  0  0  0  0  0
    2.3600   -1.8560    0.7500 C   0  0  0  0  0  0  0  0  0  0  0  0
    1.9640   -2.1860    1.8910 O   0  0  0  0  0  0  0  0  0  0  0  0
    3.7490   -1.5320    0.5380 C   0  0  0  0  0  0  0  0  0  0  0  0
    4.0910   -1.1670   -0.6360 O   0  0  0  0  0  0  0  0  0  0  0  0
    4.7280   -1.5950    1.5420 N   0  0  0  0  0  0  0  0  0  0  0  0
    4.5470   -2.0820    2.9310 C   0  0  0  0  0  0  0  0  0  0  0  0
    5.8720   -2.7670    3.2790 C   0  0  0  0  0  0  0  0  0  0  0  0
    6.7330   -2.5320    2.0330 C   0  0  0  0  0  0  0  0  0  0  0  0
    6.1370   -1.2290    1.5650 C   0  0  1  0  0  0  0  0  0  0  0  0
    6.7020   -0.6560    0.3740 C   0  0  0  0  0  0  0  0  0  0  0  0
    7.7270   -1.1700   -0.1470 O   0  0  0  0  0  0  0  0  0  0  0  0
    6.1420    0.4890   -0.2450 N   0  0  0  0  0  0  0  0  0  0  0  0
    6.7290    1.0540   -1.4640 C   0  0  0  0  0  0  0  0  0  0  0  0
    8.1120    1.4700   -1.1610 C   0  0  0  0  0  0  0  0  0  0  0  0
    8.6800    2.1570   -0.1160 C   0  0  0  0  0  0  0  0  0  0  0  0
    9.9710    2.3950   -0.1000 C   0  0  0  0  0  0  0  0  0  0  0  0
   10.7990    1.9580   -1.1410 C   0  0  0  0  0  0  0  0  0  0  0  0
   12.2140    2.0690   -1.3830 C   0  0  0  0  0  0  0  0  0  0  0  0
   12.4840    3.2190   -2.1240 O   0  0  0  0  0  0  0  0  0  0  0  0
    9.5800    1.1460   -2.2020 S   0  0  0  0  0  0  0  0  0  0  0  0
   -3.0450   -1.3450    2.9480 C   0  0  0  0  0  0  0  0  0  0  0  0
   -3.4750   -2.6770    2.3150 C   0  0  0  0  0  0  0  0  0  0  0  0
   -4.3890   -2.3390    1.1940 C   0  0  0  0  0  0  0  0  0  0  0  0
   -5.0710   -3.2580    0.6850 O   0  0  0  0  0  0  0  0  0  0  0  0
   -6.5390    0.2020   -0.0390 C   0  0  0  0  0  0  0  0  0  0  0  0
   -6.5050    0.8650    1.1590 F   0  0  0  0  0  0  0  0  0  0  0  0
  1  2  1  0
  2  3  1  0
  3  4  1  0
  3  5  2  3
  5  6  1  0
  6  7  2  0
  6 44  1  0
  7  8  1  0
  7  9  1  0
  9 10  1  0
  9 11  2  0
 11 12  1  0
 12 13  1  0
 12 44  2  0
 13 14  1  0
 13 42  1  0
 14 15  1  0
 15 16  1  6
 15 40  1  0
 16 17  1  0
 17 18  1  0
 18 19  1  0
 19 20  1  0
 20 21  2  0
 20 22  1  0
 22 23  2  0
 22 24  1  0
 24 25  1  0
 24 28  1  0
 25 26  1  0
 26 27  1  0
 27 28  1  0
 28 29  1  6
 29 30  2  0
 29 31  1  0
 31 32  1  0
 32 33  1  0
 33 34  2  0
 33 39  1  0
 34 35  1  0
 35 36  2  0
 36 37  1  0
 36 39  1  0
 37 38  1  0
 40 41  1  0
 41 42  1  0
 42 43  2  0
 44 45  1  0
M  END
