
     RDKit          3D

 45 48  0  0  0  0  0  0  0  0999 V2000
    9.7570   -0.2270   -2.5060 C   0  0  0  0  0  0  0  0  0  0  0  0
    9.3590   -0.8420   -1.1950 C   0  0  0  0  0  0  0  0  0  0  0  0
    9.9960   -1.9430   -0.6880 C   0  0  0  0  0  0  0  0  0  0  0  0
    9.6380   -2.5140    0.5110 C   0  0  0  0  0  0  0  0  0  0  0  0
   10.3060   -3.5930    0.9490 F   0  0  0  0  0  0  0  0  0  0  0  0
    8.6060   -1.9650    1.2290 C   0  0  0  0  0  0  0  0  0  0  0  0
    7.9050   -0.8300    0.7670 C   0  0  0  0  0  0  0  0  0  0  0  0
    6.8050   -0.2540    1.5740 C   0  0  0  0  0  0  0  0  0  0  0  0
    8.3070   -0.3070   -0.4340 C   0  0  0  0  0  0  0  0  0  0  0  0
    7.5110    1.0890   -1.1080 S   0  0  1  0  0  0  0  0  0  0  0  0
    6.9140    1.9580   -0.0370 O   0  0  0  0  0  0  0  0  0  0  0  0
    8.4340    1.9270   -1.9250 O   0  0  0  0  0  0  0  0  0  0  0  0
    6.1820    0.6210   -2.1400 N   0  0  0  0  0  0  0  0  0  0  0  0
    5.1030   -0.0810   -1.5600 C   0  0  0  0  0  0  0  0  0  0  0  0
    4.0400    0.5650   -0.9620 C   0  0  0  0  0  0  0  0  0  0  0  0
    2.9790   -0.1090   -0.3660 C   0  0  0  0  0  0  0  0  0  0  0  0
    1.8710    0.6420    0.2070 C   0  0  0  0  0  0  0  0  0  0  0  0
    1.8540    1.9140    0.0420 O   0  0  0  0  0  0  0  0  0  0  0  0
    0.7580    0.0070    0.9740 C   0  0  0  0  0  0  0  0  0  0  0  0
   -0.3940    0.8780    1.0320 N   0  0  0  0  0  0  0  0  0  0  0  0
   -0.9820    0.9600   -0.2430 C   0  0  0  0  0  0  0  0  0  0  0  0
   -2.3420    0.3010   -0.3530 C   0  0  1  0  0  0  0  0  0  0  0  0
   -2.1490   -1.1730   -0.5500 C   0  0  0  0  0  0  0  0  0  0  0  0
   -3.1190    0.5720    0.8330 N   0  0  0  0  0  0  0  0  0  0  0  0
   -4.4140    0.0310    0.9720 C   0  0  0  0  0  0  0  0  0  0  0  0
   -4.8870   -0.7570    0.1110 O   0  0  0  0  0  0  0  0  0  0  0  0
   -5.2830    0.3690    2.1360 C   0  0  0  0  0  0  0  0  0  0  0  0
   -6.5260   -0.2700    2.0640 O   0  0  0  0  0  0  0  0  0  0  0  0
   -7.3930   -0.0960    1.0190 C   0  0  0  0  0  0  0  0  0  0  0  0
   -7.2160    0.7140   -0.0670 C   0  0  0  0  0  0  0  0  0  0  0  0
   -8.3420    0.5780   -0.8600 C   0  0  0  0  0  0  0  0  0  0  0  0
   -8.6040    1.2720   -2.1660 C   0  0  2  0  0  0  0  0  0  0  0  0
   -9.8950    2.0300   -2.0270 C   0  0  0  0  0  0  0  0  0  0  0  0
   -8.7650    0.1760   -3.2120 C   0  0  0  0  0  0  0  0  0  0  0  0
   -9.1240   -0.2630   -0.2600 O   0  0  0  0  0  0  0  0  0  0  0  0
   -8.6260   -0.7080    0.8670 C   0  0  0  0  0  0  0  0  0  0  0  0
   -9.2670   -1.6750    1.7860 C   0  0  0  0  0  0  0  0  0  0  0  0
  -10.3990   -2.1060    1.4480 O   0  0  0  0  0  0  0  0  0  0  0  0
   -2.5660    1.3830    1.9080 C   0  0  0  0  0  0  0  0  0  0  0  0
   -1.1980    0.7750    2.1790 C   0  0  2  0  0  0  0  0  0  0  0  0
   -0.5580    1.4450    3.3860 C   0  0  0  0  0  0  0  0  0  0  0  0
    2.9690   -1.4860   -0.3630 C   0  0  0  0  0  0  0  0  0  0  0  0
    4.0180   -2.1500   -0.9550 C   0  0  0  0  0  0  0  0  0  0  0  0
    5.0740   -1.4450   -1.5480 C   0  0  0  0  0  0  0  0  0  0  0  0
    6.0510   -2.1700   -2.1000 F   0  0  0  0  0  0  0  0  0  0  0  0
  1  2  1  0
  2  3  2  0
  2  9  1  0
  3  4  1  0
  4  5  1  0
  4  6  2  0
  6  7  1  0
  7  8  1  0
  7  9  2  0
  9 10  1  0
 10 11  2  0
 10 12  2  0
 10 13  1  6
 13 14  1  0
 14 15  2  0
 14 44  1  0
 15 16  1  0
 16 17  1  0
 16 42  2  0
 17 18  2  0
 17 19  1  0
 19 20  1  0
 20 21  1  0
 20 40  1  0
 21 22  1  0
 22 23  1  1
 22 24  1  0
 24 25  1  0
 24 39  1  0
 25 26  2  0
 25 27  1  0
 27 28  1  0
 28 29  1  0
 29 30  1  0
 29 36  2  0
 30 31  2  0
 31 32  1  0
 31 35  1  0
 32 33  1  1
 32 34  1  0
 35 36  1  0
 36 37  1  0
 37 38  2  0
 39 40  1  0
 40 41  1  1
 42 43  1  0
 43 44  2  0
 44 45  1  0
M  END
