
     RDKit          3D

 33 36  0  0  0  0  0  0  0  0999 V2000
   -8.0370   -2.0360    0.4050 C   0  0  0  0  0  0  0  0  0  0  0  0
   -7.6060   -1.1800   -0.7640 C   0  0  0  0  0  0  0  0  0  0  0  0
   -7.0200    0.1350   -0.3610 C   0  0  1  0  0  0  0  0  0  0  0  0
   -8.0640    0.8610    0.3940 N   0  0  0  0  0  0  0  0  0  0  0  0
   -5.9130   -0.1300    0.6550 C   0  0  1  0  0  0  0  0  0  0  0  0
   -4.7910   -1.0150    0.1950 C   0  0  0  0  0  0  0  0  0  0  0  0
   -3.8190   -0.0660    0.8630 C   0  0  1  0  0  0  0  0  0  0  0  0
   -2.7160    0.2620    0.0750 N   0  0  0  0  0  0  0  0  0  0  0  0
   -1.5920    1.0530    0.6930 C   0  0  0  0  0  0  0  0  0  0  0  0
   -1.7220    1.3780    1.8430 O   0  0  0  0  0  0  0  0  0  0  0  0
   -0.6160    1.2270   -0.2650 N   0  0  0  0  0  0  0  0  0  0  0  0
    0.4670    2.2160    0.7070 C   0  0  0  0  0  0  0  0  0  0  0  0
    0.0730    2.4540    1.7670 O   0  0  0  0  0  0  0  0  0  0  0  0
    1.6800    2.5230   -0.0500 C   0  0  0  0  0  0  0  0  0  0  0  0
    1.9960    1.4240   -0.9900 C   0  0  0  0  0  0  0  0  0  0  0  0
    1.7880    1.4840   -2.3340 N   0  0  0  0  0  0  0  0  0  0  0  0
    2.0880    0.3120   -2.9180 C   0  0  0  0  0  0  0  0  0  0  0  0
    2.0260   -0.1150   -4.2380 C   0  0  0  0  0  0  0  0  0  0  0  0
    2.3830   -1.3980   -4.5650 C   0  0  0  0  0  0  0  0  0  0  0  0
    2.7990   -2.2300   -3.5450 C   0  0  0  0  0  0  0  0  0  0  0  0
    2.8610   -1.7980   -2.2210 C   0  0  0  0  0  0  0  0  0  0  0  0
    2.5030   -0.5080   -1.8900 C   0  0  0  0  0  0  0  0  0  0  0  0
    2.4560    0.1670   -0.6850 C   0  0  0  0  0  0  0  0  0  0  0  0
    2.9140   -0.3610    0.6440 C   0  0  0  0  0  0  0  0  0  0  0  0
    4.3620   -0.1190    0.8180 C   0  0  0  0  0  0  0  0  0  0  0  0
    5.0180    1.0050    0.4230 C   0  0  0  0  0  0  0  0  0  0  0  0
    6.3890    1.1810    0.6250 C   0  0  0  0  0  0  0  0  0  0  0  0
    7.1350    0.1930    1.2430 C   0  0  0  0  0  0  0  0  0  0  0  0
    8.5180    0.3800    1.4220 N   0  0  0  0  0  0  0  0  0  0  0  0
    9.3410   -0.5810    2.1220 C   0  0  0  0  0  0  0  0  0  0  0  0
    6.4670   -0.9510    1.6450 C   0  0  0  0  0  0  0  0  0  0  0  0
    5.1130   -1.1230    1.4460 C   0  0  0  0  0  0  0  0  0  0  0  0
   -4.9050    1.0310    0.6700 C   0  0  0  0  0  0  0  0  0  0  0  0
  1  2  1  0
  2  3  1  0
  3  4  1  1
  3  5  1  0
  5  6  1  6
  5 33  1  0
  6  7  1  0
  7  8  1  6
  7 33  1  0
  8  9  1  0
  9 10  2  0
  9 11  1  0
 11 12  1  0
 12 13  2  0
 12 14  1  0
 14 15  1  0
 15 16  1  0
 15 23  2  0
 16 17  1  0
 17 18  2  0
 17 22  1  0
 18 19  1  0
 19 20  2  0
 20 21  1  0
 21 22  2  0
 22 23  1  0
 23 24  1  0
 24 25  1  0
 25 26  2  0
 25 32  1  0
 26 27  1  0
 27 28  2  0
 28 29  1  0
 28 31  1  0
 29 30  1  0
 31 32  2  0
M  CHG  1   4   1
M  END
