
     RDKit          3D

 33 36  0  0  0  0  0  0  0  0999 V2000
    4.1700   -1.5850    1.0370 C   0  0  0  0  0  0  0  0  0  0  0  0
    3.7500   -0.5080    0.0520 C   0  0  2  0  0  0  0  0  0  0  0  0
    4.2820    0.7510    0.3220 N   0  0  0  0  0  0  0  0  0  0  0  0
    5.2500    1.4200   -0.4800 C   0  0  0  0  0  0  0  0  0  0  0  0
    6.4130    0.5090   -0.5940 C   0  0  0  0  0  0  0  0  0  0  0  0
    6.4920   -0.6260   -1.3130 C   0  0  0  0  0  0  0  0  0  0  0  0
    7.6650   -1.4160   -1.3860 C   0  0  0  0  0  0  0  0  0  0  0  0
    8.7750   -1.0080   -0.7000 C   0  0  0  0  0  0  0  0  0  0  0  0
    8.7020    0.1410    0.0250 C   0  0  0  0  0  0  0  0  0  0  0  0
    7.5760    0.9080    0.1050 C   0  0  0  0  0  0  0  0  0  0  0  0
    7.4390    2.1020    0.8630 N   0  0  0  0  0  0  0  0  0  0  0  0
    2.2610   -0.4550   -0.1380 C   0  0  0  0  0  0  0  0  0  0  0  0
    1.5400    0.4390    0.5970 C   0  0  0  0  0  0  0  0  0  0  0  0
    0.2060    0.5440    0.3670 C   0  0  0  0  0  0  0  0  0  0  0  0
   -0.4430   -0.2460   -0.6060 C   0  0  0  0  0  0  0  0  0  0  0  0
   -1.8220   -0.0470   -0.7840 N   0  0  0  0  0  0  0  0  0  0  0  0
   -2.8470   -0.7500    0.0050 C   0  0  0  0  0  0  0  0  0  0  0  0
   -3.5160    0.5800    0.5150 C   0  0  2  0  0  0  0  0  0  0  0  0
   -4.5840    0.3400    1.3900 N   0  0  0  0  0  0  0  0  0  0  0  0
   -5.8280   -0.2330    1.0090 C   0  0  0  0  0  0  0  0  0  0  0  0
   -6.9180    0.4050    0.7670 C   0  0  0  0  0  0  0  0  0  0  0  0
   -6.9710    1.8700    0.8780 C   0  0  0  0  0  0  0  0  0  0  0  0
   -5.8080    2.6100    1.2790 N   0  0  0  0  0  0  0  0  0  0  0  0
   -7.9880    2.4970    0.6200 O   0  0  0  0  0  0  0  0  0  0  0  0
   -8.2180   -0.2660    0.4300 C   0  0  0  0  0  0  0  0  0  0  0  0
   -8.1340   -1.7160    0.1800 C   0  0  0  0  0  0  0  0  0  0  0  0
   -6.8430   -2.3490    0.5090 C   0  0  0  0  0  0  0  0  0  0  0  0
   -5.7790   -1.7050    0.8800 C   0  0  0  0  0  0  0  0  0  0  0  0
   -3.8880    1.1110   -0.8880 C   0  0  0  0  0  0  0  0  0  0  0  0
   -2.5700    0.8510   -1.5900 C   0  0  0  0  0  0  0  0  0  0  0  0
   -2.2260    1.3340   -2.6710 O   0  0  0  0  0  0  0  0  0  0  0  0
    0.2990   -1.1360   -1.3140 C   0  0  0  0  0  0  0  0  0  0  0  0
    1.6790   -1.2580   -1.0900 C   0  0  0  0  0  0  0  0  0  0  0  0
  2  1  1  1
  2  3  1  0
  2 12  1  0
  3  4  1  0
  4  5  1  0
  5  6  2  0
  5 10  1  0
  6  7  1  0
  7  8  2  0
  8  9  1  0
  9 10  2  0
 10 11  1  0
 12 13  2  0
 12 33  1  0
 13 14  1  0
 14 15  2  0
 15 16  1  0
 15 32  1  0
 16 17  1  0
 16 30  1  0
 17 18  1  0
 18 19  1  1
 18 29  1  0
 19 20  1  0
 20 21  2  0
 20 28  1  0
 21 22  1  0
 21 25  1  0
 22 23  1  0
 22 24  2  0
 25 26  1  0
 26 27  1  0
 27 28  2  0
 29 30  1  0
 30 31  2  0
 32 33  2  0
M  CHG  1   3   1
M  END
