
     RDKit          3D

 33 36  0  0  0  0  0  0  0  0999 V2000
   -6.1650    2.9290   -0.9840 C   0  0  0  0  0  0  0  0  0  0  0  0
   -6.4490    1.4640   -0.7940 C   0  0  0  0  0  0  0  0  0  0  0  0
   -7.6430    0.9300   -0.5860 N   0  0  0  0  0  0  0  0  0  0  0  0
   -7.5620   -0.3960   -0.4580 C   0  0  0  0  0  0  0  0  0  0  0  0
   -6.2480   -0.7390   -0.5880 C   0  0  0  0  0  0  0  0  0  0  0  0
   -5.5500    0.4280   -0.7990 C   0  0  0  0  0  0  0  0  0  0  0  0
   -4.0840    0.5000   -0.9920 C   0  0  0  0  0  0  0  0  0  0  0  0
   -3.3780    1.0030    0.2490 C   0  0  0  0  0  0  0  0  0  0  0  0
   -1.9430    1.0280   -0.0700 N   0  0  0  0  0  0  0  0  0  0  0  0
   -1.2070    1.2860    1.1500 C   0  0  0  0  0  0  0  0  0  0  0  0
    0.0530    0.4900    1.0890 C   0  0  0  0  0  0  0  0  0  0  0  0
   -0.0010   -0.8090    1.5690 C   0  0  0  0  0  0  0  0  0  0  0  0
    1.1870   -1.5030    1.4920 C   0  0  0  0  0  0  0  0  0  0  0  0
    2.3470   -0.9550    0.9790 C   0  0  0  0  0  0  0  0  0  0  0  0
    2.3600    0.3290    0.5160 C   0  0  0  0  0  0  0  0  0  0  0  0
    3.5280    0.9480   -0.0070 N   0  0  0  0  0  0  0  0  0  0  0  0
    4.8550    0.4780    0.1210 C   0  0  0  0  0  0  0  0  0  0  0  0
    5.0460   -0.5650    0.7450 O   0  0  0  0  0  0  0  0  0  0  0  0
    5.9580    1.1550   -0.4380 N   0  0  0  0  0  0  0  0  0  0  0  0
    7.2950    0.7430   -0.3510 C   0  0  0  0  0  0  0  0  0  0  0  0
    8.2830    1.5700   -0.9180 C   0  0  0  0  0  0  0  0  0  0  0  0
    9.6170    1.2610   -0.8930 C   0  0  0  0  0  0  0  0  0  0  0  0
   10.0690    0.1210   -0.3100 C   0  0  0  0  0  0  0  0  0  0  0  0
   11.4890   -0.2140   -0.2810 C   0  0  0  0  0  0  0  0  0  0  0  0
   11.9380   -1.4180    0.3520 N   0  0  0  0  0  0  0  0  0  0  0  0
   12.2880    0.5850   -0.8250 O   0  0  0  0  0  0  0  0  0  0  0  0
    9.1260   -0.7250    0.2630 C   0  0  0  0  0  0  0  0  0  0  0  0
    7.7650   -0.3990    0.2310 C   0  0  0  0  0  0  0  0  0  0  0  0
    1.1760    1.0570    0.5790 C   0  0  0  0  0  0  0  0  0  0  0  0
   -5.8930   -2.1870   -0.4810 C   0  0  0  0  0  0  0  0  0  0  0  0
   -6.7210   -2.7180    0.6910 C   0  0  0  0  0  0  0  0  0  0  0  0
   -8.1570   -2.6860    0.2920 C   0  0  0  0  0  0  0  0  0  0  0  0
   -8.6480   -1.3780   -0.2160 C   0  0  0  0  0  0  0  0  0  0  0  0
  1  2  1  0
  2  3  1  0
  2  6  2  0
  3  4  1  0
  4  5  2  0
  4 33  1  0
  5  6  1  0
  5 30  1  0
  6  7  1  0
  7  8  1  0
  8  9  1  0
  9 10  1  0
 10 11  1  0
 11 12  2  0
 11 29  1  0
 12 13  1  0
 13 14  2  0
 14 15  1  0
 15 16  1  0
 15 29  2  0
 16 17  1  0
 17 18  2  0
 17 19  1  0
 19 20  1  0
 20 21  2  0
 20 28  1  0
 21 22  1  0
 22 23  2  0
 23 24  1  0
 23 27  1  0
 24 25  1  0
 24 26  2  0
 27 28  2  0
 30 31  1  0
 31 32  1  0
 32 33  1  0
M  CHG  1   9   1
M  END
