
     RDKit          3D

 33 36  0  0  0  0  0  0  0  0999 V2000
   -7.0710   -0.5280    1.9950 C   0  0  0  0  0  0  0  0  0  0  0  0
   -6.2370    0.4320    1.2160 C   0  0  0  0  0  0  0  0  0  0  0  0
   -6.6010    1.7570    1.1980 C   0  0  0  0  0  0  0  0  0  0  0  0
   -5.8780    2.6870    0.5000 C   0  0  0  0  0  0  0  0  0  0  0  0
   -6.2590    4.0710    0.4840 N   0  0  0  0  0  0  0  0  0  0  0  0
   -4.7600    2.2500   -0.1930 C   0  0  0  0  0  0  0  0  0  0  0  0
   -4.3830    0.9210   -0.1830 C   0  0  0  0  0  0  0  0  0  0  0  0
   -5.1270    0.0010    0.5280 C   0  0  0  0  0  0  0  0  0  0  0  0
   -4.7250   -1.4330    0.5310 C   0  0  1  0  0  0  0  0  0  0  0  0
   -5.6770   -2.2400   -0.2030 N   0  0  0  0  0  0  0  0  0  0  0  0
   -3.3270   -1.6270   -0.0570 C   0  0  0  0  0  0  0  0  0  0  0  0
   -2.4830   -0.8460    0.6960 O   0  0  0  0  0  0  0  0  0  0  0  0
   -1.1470   -0.9120    0.3410 C   0  0  1  0  0  0  0  0  0  0  0  0
   -0.6460    0.4780    0.0450 C   0  0  0  0  0  0  0  0  0  0  0  0
    0.7670    0.5120   -0.3170 N   0  0  0  0  0  0  0  0  0  0  0  0
    1.2900   -0.1790   -1.4330 C   0  0  0  0  0  0  0  0  0  0  0  0
    0.5230   -0.8680   -2.1670 O   0  0  0  0  0  0  0  0  0  0  0  0
    2.7330   -0.0890   -1.7310 C   0  0  0  0  0  0  0  0  0  0  0  0
    3.2730   -1.0350   -2.5990 C   0  0  0  0  0  0  0  0  0  0  0  0
    4.5980   -1.0280   -2.9440 C   0  0  0  0  0  0  0  0  0  0  0  0
    5.4220   -0.0550   -2.4150 C   0  0  0  0  0  0  0  0  0  0  0  0
    4.8930    0.8850   -1.5540 C   0  0  0  0  0  0  0  0  0  0  0  0
    3.5430    0.8670   -1.2130 C   0  0  0  0  0  0  0  0  0  0  0  0
    5.5680    2.0060   -0.8740 C   0  0  0  0  0  0  0  0  0  0  0  0
    6.7470    1.5550   -0.0440 C   0  0  0  0  0  0  0  0  0  0  0  0
    7.1780    0.1980   -0.5620 C   0  0  0  0  0  0  0  0  0  0  0  0
    7.7580    0.3570   -1.9470 C   0  0  0  0  0  0  0  0  0  0  0  0
    6.8110   -0.2520   -2.9340 C   0  0  0  0  0  0  0  0  0  0  0  0
   -0.3170   -1.4850    1.4340 C   0  0  0  0  0  0  0  0  0  0  0  0
    0.6260   -2.4150    1.2750 N   0  0  0  0  0  0  0  0  0  0  0  0
    1.1960   -2.7160    2.4740 C   0  0  0  0  0  0  0  0  0  0  0  0
    0.5420   -1.9100    3.3860 C   0  0  0  0  0  0  0  0  0  0  0  0
   -0.3770   -1.1670    2.7300 N   0  0  0  0  0  0  0  0  0  0  0  0
  1  2  1  0
  2  3  2  0
  2  8  1  0
  3  4  1  0
  4  5  1  0
  4  6  2  0
  6  7  1  0
  7  8  2  0
  8  9  1  0
  9 10  1  6
  9 11  1  0
 11 12  1  0
 12 13  1  0
 13 14  1  1
 13 29  1  0
 14 15  1  0
 15 16  1  0
 16 17  2  0
 16 18  1  0
 18 19  2  0
 18 23  1  0
 19 20  1  0
 20 21  2  0
 21 22  1  0
 21 28  1  0
 22 23  2  0
 22 24  1  0
 24 25  1  0
 25 26  1  0
 26 27  1  0
 27 28  1  0
 29 30  2  0
 29 33  1  0
 30 31  1  0
 31 32  2  0
 32 33  1  0
M  CHG  1  10   1
M  END
