
     RDKit          3D

 20 20  0  0  0  0  0  0  0  0999 V2000
   -4.6570   -0.4350   -1.0880 O   0  0  0  0  0  0  0  0  0  0  0  0
   -4.8050   -0.8000    0.0830 C   0  0  0  0  0  0  0  0  0  0  0  0
   -4.0300   -0.2160    1.1100 N   0  0  0  0  0  0  0  0  0  0  0  0
   -3.0300    0.8050    0.9500 C   0  0  0  0  0  0  0  0  0  0  0  0
   -1.8530    0.4220    0.0950 C   0  0  1  0  0  0  0  0  0  0  0  0
   -2.1730    0.0960   -1.1900 O   0  0  0  0  0  0  0  0  0  0  0  0
   -0.9370    1.6480    0.0530 C   0  0  0  0  0  0  0  0  0  0  0  0
    0.3800    1.3230   -0.5990 C   0  0  0  0  0  0  0  0  0  0  0  0
    1.0860    0.3200    0.2950 C   0  0  2  0  0  0  0  0  0  0  0  0
    1.2300    0.7640    1.5900 O   0  0  0  0  0  0  0  0  0  0  0  0
    2.4290   -0.0650   -0.3260 C   0  0  0  0  0  0  0  0  0  0  0  0
    3.2810    1.0110   -0.3480 O   0  0  0  0  0  0  0  0  0  0  0  0
    4.4760    0.6770   -0.9230 C   0  0  0  0  0  0  0  0  0  0  0  0
    5.2150   -0.4190   -0.2140 C   0  0  0  0  0  0  0  0  0  0  0  0
    5.4850   -0.0280    1.1050 O   0  0  0  0  0  0  0  0  0  0  0  0
    0.2440   -0.9370    0.2920 C   0  0  2  0  0  0  0  0  0  0  0  0
    0.2440   -1.4250   -1.0170 O   0  0  0  0  0  0  0  0  0  0  0  0
   -1.1450   -0.7090    0.8250 C   0  0  0  0  0  0  0  0  0  0  0  0
   -5.7560   -1.7990    0.3480 O   0  0  0  0  0  0  0  0  0  0  0  0
   -6.4830   -2.3450   -0.6340 O   0  0  0  0  0  0  0  0  0  0  0  0
  1  2  2  0
  2  3  1  0
  2 19  1  0
  3  4  1  0
  4  5  1  0
  5  6  1  6
  5  7  1  0
  5 18  1  0
  7  8  1  0
  8  9  1  0
  9 10  1  1
  9 11  1  0
  9 16  1  0
 11 12  1  0
 12 13  1  0
 13 14  1  0
 14 15  1  0
 16 17  1  6
 16 18  1  0
 19 20  1  0
M  END
