
     RDKit          3D

 19 19  0  0  0  0  0  0  0  0999 V2000
    0.0140   -0.7650   -2.1310 C   0  0  0  0  0  0  0  0  0  0  0  0
    0.0310   -0.8860   -0.6380 C   0  0  1  0  0  0  0  0  0  0  0  0
   -0.4110   -2.1790   -0.3120 O   0  0  0  0  0  0  0  0  0  0  0  0
    1.4870   -0.7930   -0.2020 C   0  0  2  0  0  0  0  0  0  0  0  0
    1.7740   -1.3430    1.1410 C   0  0  0  0  0  0  0  0  0  0  0  0
    3.0070   -0.9760    1.6060 O   0  0  0  0  0  0  0  0  0  0  0  0
    3.8640   -0.4050    0.7090 C   0  0  2  0  0  0  0  0  0  0  0  0
    5.0460    0.1670    1.3250 N   0  0  0  0  0  0  0  0  0  0  0  0
    3.2580    0.6890   -0.1350 C   0  0  0  0  0  0  0  0  0  0  0  0
    1.9540    0.4620   -0.4780 O   0  0  0  0  0  0  0  0  0  0  0  0
   -0.8260    0.0950    0.1020 C   0  0  1  0  0  0  0  0  0  0  0  0
   -0.5510    1.3990   -0.1810 O   0  0  0  0  0  0  0  0  0  0  0  0
   -2.2620   -0.2140    0.0880 C   0  0  2  0  0  0  0  0  0  0  0  0
   -2.8490   -0.2450   -1.3290 C   0  0  0  0  0  0  0  0  0  0  0  0
   -4.2260   -0.5380   -1.2540 O   0  0  0  0  0  0  0  0  0  0  0  0
   -3.1550    0.6850    0.8890 C   0  0  0  0  0  0  0  0  0  0  0  0
   -3.2260    2.0850    0.5210 C   0  0  0  0  0  0  0  0  0  0  0  0
   -2.6900    2.5620   -0.4780 O   0  0  0  0  0  0  0  0  0  0  0  0
   -3.9410    3.0000    1.3260 O   0  0  0  0  0  0  0  0  0  0  0  0
  2  1  1  6
  2  3  1  0
  2  4  1  0
  2 11  1  0
  4  5  1  1
  4 10  1  0
  5  6  1  0
  6  7  1  0
  7  8  1  1
  7  9  1  0
  9 10  1  0
 11 12  1  6
 11 13  1  0
 13 14  1  6
 13 16  1  0
 14 15  1  0
 16 17  1  0
 17 18  2  0
 17 19  1  0
M  END
