
     RDKit          3D

 19 19  0  0  0  0  0  0  0  0999 V2000
    1.2370    1.9390    0.5400 O   0  0  0  0  0  0  0  0  0  0  0  0
    1.3680    0.7140    0.4390 C   0  0  0  0  0  0  0  0  0  0  0  0
    0.2540   -0.0670    0.4870 O   0  0  0  0  0  0  0  0  0  0  0  0
   -1.0720    0.2940    0.6430 C   0  0  1  0  0  0  0  0  0  0  0  0
   -1.4110    1.0080    1.9270 C   0  0  0  0  0  0  0  0  0  0  0  0
   -0.7700    2.1920    2.1420 O   0  0  0  0  0  0  0  0  0  0  0  0
   -1.6400    1.0600   -0.5250 C   0  0  0  0  0  0  0  0  0  0  0  0
   -2.4570    0.2120   -1.4690 C   0  0  1  0  0  0  0  0  0  0  0  0
   -2.6400    0.8780   -2.6610 O   0  0  0  0  0  0  0  0  0  0  0  0
   -1.6300   -1.0610   -1.7140 C   0  0  0  0  0  0  0  0  0  0  0  0
   -1.7980   -1.8100   -0.4690 N   0  0  0  0  0  0  0  0  0  0  0  0
   -1.8310   -1.0120    0.7070 C   0  0  0  0  0  0  0  0  0  0  0  0
   -2.4560   -1.3870    1.7230 O   0  0  0  0  0  0  0  0  0  0  0  0
    2.7520    0.1490    0.2670 C   0  0  2  0  0  0  0  0  0  0  0  0
    3.6890    1.1750    0.2530 O   0  0  0  0  0  0  0  0  0  0  0  0
    2.8310   -0.5410   -1.0400 C   0  0  0  0  0  0  0  0  0  0  0  0
    2.5940    0.2010   -2.1900 O   0  0  0  0  0  0  0  0  0  0  0  0
    3.1160   -1.8140   -1.1170 C   0  0  0  0  0  0  0  0  0  0  0  0
    3.3570   -2.5770    0.0080 O   0  0  0  0  0  0  0  0  0  0  0  0
  1  2  2  0
  2  3  1  0
  2 14  1  0
  3  4  1  0
  4  5  1  1
  4  7  1  0
  4 12  1  0
  5  6  1  0
  7  8  1  0
  8  9  1  6
  8 10  1  0
 10 11  1  0
 11 12  1  0
 12 13  2  0
 14 15  1  6
 14 16  1  0
 16 17  1  0
 16 18  2  3
 18 19  1  0
M  END
