
     RDKit          3D

 20 20  0  0  0  0  0  0  0  0999 V2000
    1.7980   -0.5500   -1.0030 O   0  0  0  0  0  0  0  0  0  0  0  0
    2.1440   -0.5340    0.1770 C   0  0  0  0  0  0  0  0  0  0  0  0
    1.2640   -0.7700    1.2460 N   0  0  0  0  0  0  0  0  0  0  0  0
   -0.1140   -1.0310    1.1320 C   0  0  0  0  0  0  0  0  0  0  0  0
   -1.0510    0.0130    0.6390 C   0  0  1  0  0  0  0  0  0  0  0  0
   -0.9050    1.1020    1.5550 O   0  0  0  0  0  0  0  0  0  0  0  0
   -0.8940    0.5640   -0.7090 C   0  0  0  0  0  0  0  0  0  0  0  0
   -2.0740    1.3980   -1.1800 C   0  0  1  0  0  0  0  0  0  0  0  0
   -2.7190    0.8280   -2.2910 O   0  0  0  0  0  0  0  0  0  0  0  0
   -3.0240    1.7330   -0.0820 C   0  0  0  0  0  0  0  0  0  0  0  0
   -3.5110    0.5270    0.6700 C   0  0  0  0  0  0  0  0  0  0  0  0
   -2.4690   -0.4870    0.9370 C   0  0  2  0  0  0  0  0  0  0  0  0
   -2.4600   -0.6980    2.3420 O   0  0  0  0  0  0  0  0  0  0  0  0
   -2.7780   -1.7610    0.3030 C   0  0  0  0  0  0  0  0  0  0  0  0
   -2.9820   -2.7810    1.0250 O   0  0  0  0  0  0  0  0  0  0  0  0
   -2.8760   -1.9850   -1.0640 O   0  0  0  0  0  0  0  0  0  0  0  0
    3.5150   -0.2570    0.4090 O   0  0  0  0  0  0  0  0  0  0  0  0
    4.3800   -0.0230   -0.6860 C   0  0  0  0  0  0  0  0  0  0  0  0
    5.7610    0.2380   -0.0920 C   0  0  0  0  0  0  0  0  0  0  0  0
    6.1640   -0.8680    0.6340 O   0  0  0  0  0  0  0  0  0  0  0  0
  1  2  2  0
  2  3  1  0
  2 17  1  0
  3  4  1  0
  4  5  1  0
  5  6  1  1
  5  7  1  0
  5 12  1  0
  7  8  1  0
  8  9  1  6
  8 10  1  0
 10 11  1  0
 11 12  1  0
 12 13  1  1
 12 14  1  0
 14 15  2  0
 14 16  1  0
 17 18  1  0
 18 19  1  0
 19 20  1  0
M  END
