
     RDKit          3D

 20 20  0  0  0  0  0  0  0  0999 V2000
   -3.1910   -3.0790    0.2590 C   0  0  0  0  0  0  0  0  0  0  0  0
   -2.3950   -1.8970   -0.2500 C   0  0  0  0  0  0  0  0  0  0  0  0
   -2.2420   -1.8430   -1.4660 O   0  0  0  0  0  0  0  0  0  0  0  0
   -1.8810   -0.9460    0.6240 N   0  0  0  0  0  0  0  0  0  0  0  0
   -1.1180    0.1810    0.2610 C   0  0  2  0  0  0  0  0  0  0  0  0
   -1.9350    1.4310    0.0600 C   0  0  1  0  0  0  0  0  0  0  0  0
   -2.8440    1.6370    1.0960 O   0  0  0  0  0  0  0  0  0  0  0  0
   -1.0140    2.5850    0.0650 C   0  0  0  0  0  0  0  0  0  0  0  0
    0.1740    2.4760   -0.5530 C   0  0  0  0  0  0  0  0  0  0  0  0
    1.0880    3.6110   -0.5530 C   0  0  0  0  0  0  0  0  0  0  0  0
    2.1870    3.5000   -1.1310 O   0  0  0  0  0  0  0  0  0  0  0  0
    0.7720    4.8010    0.0660 O   0  0  0  0  0  0  0  0  0  0  0  0
    0.4460    1.2770   -1.1500 O   0  0  0  0  0  0  0  0  0  0  0  0
   -0.1800    0.0430   -0.9010 C   0  0  1  0  0  0  0  0  0  0  0  0
    0.9150   -0.9640   -0.6700 C   0  0  2  0  0  0  0  0  0  0  0  0
    0.5240   -2.2410   -0.4050 O   0  0  0  0  0  0  0  0  0  0  0  0
    1.8740   -0.5550    0.4360 C   0  0  2  0  0  0  0  0  0  0  0  0
    2.3230    0.7370    0.2280 O   0  0  0  0  0  0  0  0  0  0  0  0
    3.0440   -1.5380    0.3480 C   0  0  0  0  0  0  0  0  0  0  0  0
    4.0120   -1.2700    1.2890 O   0  0  0  0  0  0  0  0  0  0  0  0
  1  2  1  0
  2  3  2  0
  2  4  1  0
  5  4  1  6
  5  6  1  0
  5 14  1  0
  6  7  1  1
  6  8  1  0
  8  9  2  0
  9 10  1  0
  9 13  1  0
 10 11  2  0
 10 12  1  0
 14 13  1  1
 14 15  1  0
 15 16  1  1
 15 17  1  0
 17 18  1  6
 17 19  1  0
 19 20  1  0
M  END
