
     RDKit          3D

 20 21  0  0  0  0  0  0  0  0999 V2000
   -3.5540    0.0090   -0.7610 C   0  0  0  0  0  0  0  0  0  0  0  0
   -2.3590    0.0300    0.1430 C   0  0  1  0  0  0  0  0  0  0  0  0
   -2.7160    0.8760    1.2240 O   0  0  0  0  0  0  0  0  0  0  0  0
   -2.2170   -1.3620    0.7050 C   0  0  0  0  0  0  0  0  0  0  0  0
   -3.7810   -1.7010    1.6090 S   0  0  0  0  0  0  0  0  0  0  0  0
   -1.1610    0.5510   -0.5370 C   0  0  1  0  0  0  0  0  0  0  0  0
   -1.4770    1.9800   -1.0060 C   0  0  0  0  0  0  0  0  0  0  0  0
   -2.5280    2.0400   -1.8760 O   0  0  0  0  0  0  0  0  0  0  0  0
    0.0540    0.6370    0.3870 C   0  0  0  0  0  0  0  0  0  0  0  0
    0.9360   -0.4370   -0.1140 C   0  0  2  0  0  0  0  0  0  0  0  0
    2.3240   -0.4100    0.2850 C   0  0  0  0  0  0  0  0  0  0  0  0
    3.2590   -0.2400   -0.6340 C   0  0  0  0  0  0  0  0  0  0  0  0
    4.6950   -0.1950   -0.3510 C   0  0  0  0  0  0  0  0  0  0  0  0
    4.9960   -0.3490    0.9920 O   0  0  0  0  0  0  0  0  0  0  0  0
    4.0410   -0.5260    1.9540 C   0  0  0  0  0  0  0  0  0  0  0  0
    2.7670   -0.5610    1.6690 C   0  0  0  0  0  0  0  0  0  0  0  0
    1.7760   -0.7370    2.6140 O   0  0  0  0  0  0  0  0  0  0  0  0
    0.8260   -0.2490   -1.6100 C   0  0  0  0  0  0  0  0  0  0  0  0
   -0.6940   -0.2070   -1.7150 C   0  0  0  0  0  0  0  0  0  0  0  0
   -1.2370   -0.7370   -2.6390 O   0  0  0  0  0  0  0  0  0  0  0  0
  2  1  1  6
  2  3  1  0
  2  4  1  0
  2  6  1  0
  4  5  1  0
  6  7  1  6
  6  9  1  0
  6 19  1  0
  7  8  1  0
  9 10  1  0
 10 11  1  1
 10 18  1  0
 11 12  2  0
 11 16  1  0
 12 13  1  0
 13 14  1  0
 14 15  1  0
 15 16  2  0
 16 17  1  0
 18 19  1  0
 19 20  2  0
M  END
