
     RDKit          3D

 20 21  0  0  0  0  0  0  0  0999 V2000
   -4.2660   -0.4280   -0.3810 C   0  0  0  0  0  0  0  0  0  0  0  0
   -3.1020    0.4590   -0.6380 C   0  0  1  0  0  0  0  0  0  0  0  0
   -3.2600    1.0710   -1.8880 O   0  0  0  0  0  0  0  0  0  0  0  0
   -2.9150    1.4620    0.4560 C   0  0  0  0  0  0  0  0  0  0  0  0
   -2.4050    0.6000    1.9420 S   0  0  0  0  0  0  0  0  0  0  0  0
   -1.9250   -1.1110    1.6570 C   0  0  0  0  0  0  0  0  0  0  0  0
   -1.7980   -1.4710    0.2260 C   0  0  0  0  0  0  0  0  0  0  0  0
   -1.7640   -0.3370   -0.7290 C   0  0  1  0  0  0  0  0  0  0  0  0
   -1.8880   -0.9790   -2.1310 C   0  0  0  0  0  0  0  0  0  0  0  0
   -0.8050    0.5280   -0.6100 O   0  0  0  0  0  0  0  0  0  0  0  0
    0.4930    0.5120   -0.6260 C   0  0  0  0  0  0  0  0  0  0  0  0
    1.2740   -0.2040    0.4210 C   0  0  2  0  0  0  0  0  0  0  0  0
    0.9820    0.3190    1.6900 O   0  0  0  0  0  0  0  0  0  0  0  0
    2.7640    0.0220    0.2240 C   0  0  0  0  0  0  0  0  0  0  0  0
    3.5790   -0.9900    0.0140 C   0  0  0  0  0  0  0  0  0  0  0  0
    5.0420   -0.8900   -0.1900 C   0  0  0  0  0  0  0  0  0  0  0  0
    5.5100    0.4170   -0.1390 O   0  0  0  0  0  0  0  0  0  0  0  0
    4.6760    1.4960    0.0800 C   0  0  0  0  0  0  0  0  0  0  0  0
    5.2620    2.7630    0.1100 O   0  0  0  0  0  0  0  0  0  0  0  0
    3.3510    1.3550    0.2600 C   0  0  0  0  0  0  0  0  0  0  0  0
  2  1  1  1
  2  3  1  0
  2  4  1  0
  2  8  1  0
  4  5  1  0
  5  6  1  0
  6  7  1  0
  7  8  1  0
  8  9  1  6
  8 10  1  0
 10 11  1  0
 11 12  1  0
 12 13  1  1
 12 14  1  0
 14 15  2  0
 14 20  1  0
 15 16  1  0
 16 17  1  0
 17 18  1  0
 18 19  1  0
 18 20  2  0
M  END
