
     RDKit          3D

 20 21  0  0  0  0  0  0  0  0999 V2000
   -4.7670    1.0430    0.1900 C   0  0  0  0  0  0  0  0  0  0  0  0
   -3.8330    0.3640    1.1210 C   0  0  0  0  0  0  0  0  0  0  0  0
   -2.5400   -0.1210    0.5160 C   0  0  2  0  0  0  0  0  0  0  0  0
   -2.7590   -1.1230   -0.5940 C   0  0  0  0  0  0  0  0  0  0  0  0
   -3.5060   -0.6010   -1.6440 O   0  0  0  0  0  0  0  0  0  0  0  0
   -1.7750   -0.8330    1.6100 C   0  0  0  0  0  0  0  0  0  0  0  0
   -0.4000   -0.3190    1.7730 C   0  0  0  0  0  0  0  0  0  0  0  0
    0.1890   -0.1690    2.8720 O   0  0  0  0  0  0  0  0  0  0  0  0
    0.3300    0.0450    0.5260 C   0  0  0  0  0  0  0  0  0  0  0  0
   -0.3650    0.7100   -0.3650 C   0  0  0  0  0  0  0  0  0  0  0  0
   -1.7930    1.0330   -0.0520 C   0  0  0  0  0  0  0  0  0  0  0  0
    0.3720    1.2220   -1.8960 S   0  0  0  0  0  0  0  0  0  0  0  0
    1.9060    0.2810   -2.0040 C   0  0  0  0  0  0  0  0  0  0  0  0
    2.5400    0.3940   -0.6190 C   0  0  2  0  0  0  0  0  0  0  0  0
    2.6170    1.7580   -0.3390 O   0  0  0  0  0  0  0  0  0  0  0  0
    3.9530   -0.1210   -0.7620 C   0  0  0  0  0  0  0  0  0  0  0  0
    4.6970   -0.0580    0.5700 C   0  0  0  0  0  0  0  0  0  0  0  0
    5.9880   -0.5610    0.3000 O   0  0  0  0  0  0  0  0  0  0  0  0
    1.7540   -0.3450    0.4030 C   0  0  2  0  0  0  0  0  0  0  0  0
    1.8790   -1.6930    0.1920 O   0  0  0  0  0  0  0  0  0  0  0  0
  1  2  1  0
  3  2  1  1
  3  4  1  0
  3  6  1  0
  3 11  1  0
  4  5  1  0
  6  7  1  0
  7  8  2  0
  7  9  1  0
  9 10  2  0
  9 19  1  0
 10 11  1  0
 10 12  1  0
 12 13  1  0
 13 14  1  0
 14 15  1  1
 14 16  1  0
 14 19  1  0
 16 17  1  0
 17 18  1  0
 19 20  1  6
M  END
