
     RDKit          3D

 20 21  0  0  0  0  0  0  0  0999 V2000
   -5.1350   -0.8750   -2.6970 O   0  0  0  0  0  0  0  0  0  0  0  0
   -4.0090   -0.6140   -2.2310 C   0  0  0  0  0  0  0  0  0  0  0  0
   -2.5610   -0.5870   -3.2850 S   0  0  0  0  0  0  0  0  0  0  0  0
   -1.4320   -0.1550   -1.9720 C   0  0  0  0  0  0  0  0  0  0  0  0
   -2.0810   -0.0500   -0.8540 C   0  0  0  0  0  0  0  0  0  0  0  0
   -1.4270    0.2990    0.4580 C   0  0  0  0  0  0  0  0  0  0  0  0
   -0.0970    0.4760    0.3980 O   0  0  0  0  0  0  0  0  0  0  0  0
    0.5860   -0.6940    0.2290 C   0  0  0  0  0  0  0  0  0  0  0  0
    2.0790   -0.5330    0.0860 C   0  0  1  0  0  0  0  0  0  0  0  0
    2.6380   -1.8000   -0.0820 O   0  0  0  0  0  0  0  0  0  0  0  0
    2.5050    0.3610   -1.0240 C   0  0  0  0  0  0  0  0  0  0  0  0
    3.5640    1.3490   -0.6020 C   0  0  0  0  0  0  0  0  0  0  0  0
    4.7010    0.7420    0.1620 C   0  0  0  0  0  0  0  0  0  0  0  0
    4.1970   -0.2100    1.2230 C   0  0  0  0  0  0  0  0  0  0  0  0
    2.7080    0.0190    1.3710 C   0  0  2  0  0  0  0  0  0  0  0  0
    2.2360   -0.7470    2.4470 O   0  0  0  0  0  0  0  0  0  0  0  0
   -3.5100   -0.2890   -0.9120 C   0  0  0  0  0  0  0  0  0  0  0  0
   -4.3490   -0.2320    0.1190 C   0  0  0  0  0  0  0  0  0  0  0  0
   -5.7850   -0.4640    0.1140 C   0  0  0  0  0  0  0  0  0  0  0  0
   -6.4220    0.7210    0.5640 O   0  0  0  0  0  0  0  0  0  0  0  0
  1  2  2  0
  2  3  1  0
  2 17  1  0
  3  4  1  0
  4  5  2  0
  5  6  1  0
  5 17  1  0
  6  7  1  0
  7  8  1  0
  8  9  1  0
  9 10  1  6
  9 11  1  0
  9 15  1  0
 11 12  1  0
 12 13  1  0
 13 14  1  0
 14 15  1  0
 15 16  1  1
 17 18  2  3
 18 19  1  0
 19 20  1  0
M  END
