
     RDKit          3D

 20 21  0  0  0  0  0  0  0  0999 V2000
   -1.0760    3.6530   -0.8490 C   0  0  0  0  0  0  0  0  0  0  0  0
   -1.1380    2.3190   -0.1520 C   0  0  2  0  0  0  0  0  0  0  0  0
   -0.7210    1.1530   -0.9860 C   0  0  0  0  0  0  0  0  0  0  0  0
   -0.5130   -0.0380   -0.0190 C   0  0  1  0  0  0  0  0  0  0  0  0
   -0.2270   -1.5790   -0.8520 S   0  0  0  0  0  0  0  0  0  0  0  0
   -1.2990   -2.9030   -0.4880 C   0  0  0  0  0  0  0  0  0  0  0  0
   -2.6970   -2.9680   -0.9260 C   0  0  0  0  0  0  0  0  0  0  0  0
   -3.1960   -4.2290   -0.4130 O   0  0  0  0  0  0  0  0  0  0  0  0
    0.5880    0.2580    0.9820 C   0  0  1  0  0  0  0  0  0  0  0  0
    0.6460   -0.9430    1.7700 O   0  0  0  0  0  0  0  0  0  0  0  0
    1.8890    0.4660    0.3130 C   0  0  0  0  0  0  0  0  0  0  0  0
    2.5940    1.5450    0.0680 C   0  0  0  0  0  0  0  0  0  0  0  0
    3.6830    0.8630   -0.6010 C   0  0  2  0  0  0  0  0  0  0  0  0
    3.8840    1.1410   -1.9410 O   0  0  0  0  0  0  0  0  0  0  0  0
    2.8660   -0.3560   -0.3410 C   0  0  0  0  0  0  0  0  0  0  0  0
    3.1280   -1.6080   -0.6300 C   0  0  0  0  0  0  0  0  0  0  0  0
    4.2660   -1.9720   -1.3290 O   0  0  0  0  0  0  0  0  0  0  0  0
   -1.8200   -0.1700    0.7700 C   0  0  0  0  0  0  0  0  0  0  0  0
   -2.2640    1.1400    1.3780 C   0  0  0  0  0  0  0  0  0  0  0  0
   -2.4250    2.0770    0.3290 O   0  0  0  0  0  0  0  0  0  0  0  0
  2  1  1  6
  2  3  1  0
  2 20  1  0
  3  4  1  0
  4  5  1  6
  4  9  1  0
  4 18  1  0
  5  6  1  0
  6  7  1  0
  7  8  1  0
  9 10  1  1
  9 11  1  0
 11 12  2  0
 11 15  1  0
 12 13  1  0
 13 14  1  6
 13 15  1  0
 15 16  2  3
 16 17  1  0
 18 19  1  0
 19 20  1  0
M  END
