
     RDKit          3D

 20 21  0  0  0  0  0  0  0  0999 V2000
    5.0180    1.4870    0.1590 C   0  0  0  0  0  0  0  0  0  0  0  0
    3.5720    1.5930   -0.0850 C   0  0  0  0  0  0  0  0  0  0  0  0
    2.6690    0.6730    0.1070 C   0  0  0  0  0  0  0  0  0  0  0  0
    1.2010    0.8680   -0.1730 C   0  0  0  0  0  0  0  0  0  0  0  0
    0.6210   -0.3580    0.4660 C   0  0  1  0  0  0  0  0  0  0  0  0
   -0.7450   -0.7110   -0.0510 C   0  0  0  0  0  0  0  0  0  0  0  0
   -1.6300    0.4790    0.2550 C   0  0  2  0  0  0  0  0  0  0  0  0
   -1.5960    0.6270    1.6520 O   0  0  0  0  0  0  0  0  0  0  0  0
   -3.0530    0.2920   -0.1610 C   0  0  1  0  0  0  0  0  0  0  0  0
   -3.8020    1.5490    0.3040 C   0  0  0  0  0  0  0  0  0  0  0  0
   -3.6630    1.6220    1.7010 O   0  0  0  0  0  0  0  0  0  0  0  0
   -3.2690    0.0440   -1.6140 C   0  0  0  0  0  0  0  0  0  0  0  0
   -4.5130   -0.6300   -1.5940 O   0  0  0  0  0  0  0  0  0  0  0  0
   -4.2890   -1.5250   -0.5460 C   0  0  0  0  0  0  0  0  0  0  0  0
   -3.5950   -0.8390    0.4350 O   0  0  0  0  0  0  0  0  0  0  0  0
    1.6590   -1.4120    0.1590 C   0  0  1  0  0  0  0  0  0  0  0  0
    1.7980   -1.6690   -1.1850 O   0  0  0  0  0  0  0  0  0  0  0  0
    2.8690   -0.6770    0.6120 C   0  0  0  0  0  0  0  0  0  0  0  0
    3.8510   -1.1830    1.3120 C   0  0  0  0  0  0  0  0  0  0  0  0
    3.8110   -2.9260    1.7950 S   0  0  0  0  0  0  0  0  0  0  0  0
  1  2  1  0
  2  3  2  3
  3  4  1  0
  3 18  1  0
  4  5  1  0
  5  6  1  6
  5 16  1  0
  6  7  1  0
  7  8  1  1
  7  9  1  0
  9 10  1  1
  9 12  1  0
  9 15  1  0
 10 11  1  0
 12 13  1  0
 13 14  1  0
 14 15  1  0
 16 17  1  6
 16 18  1  0
 18 19  2  3
 19 20  1  0
M  END
