
     RDKit          3D

 36 39  0  0  0  0  0  0  0  0999 V2000
   -7.2270   -4.8400   -1.8610 C   0  0  0  0  0  0  0  0  0  0  0  0
   -6.8030   -3.6770   -1.4060 C   0  0  0  0  0  0  0  0  0  0  0  0
   -5.6430   -3.4040   -0.7550 N   0  0  0  0  0  0  0  0  0  0  0  0
   -5.5500   -2.1070   -0.4430 C   0  0  0  0  0  0  0  0  0  0  0  0
   -4.6330   -1.2680    0.1970 C   0  0  0  0  0  0  0  0  0  0  0  0
   -4.8160    0.0810    0.3740 C   0  0  0  0  0  0  0  0  0  0  0  0
   -3.8770    1.0120    0.9210 C   0  0  0  0  0  0  0  0  0  0  0  0
   -2.6180    1.0470    1.0630 C   0  0  0  0  0  0  0  0  0  0  0  0
   -1.5140    0.1840    0.7390 C   0  0  0  0  0  0  0  0  0  0  0  0
   -1.6750   -0.9050    0.1520 O   0  0  0  0  0  0  0  0  0  0  0  0
   -0.1400    0.5400    1.0800 N   0  0  0  0  0  0  0  0  0  0  0  0
    0.8820   -0.4120    0.6910 C   0  0  0  0  0  0  0  0  0  0  0  0
    2.2640    0.0950    1.0790 C   0  0  0  0  0  0  0  0  0  0  0  0
    2.5750    1.4000    0.4270 C   0  0  0  0  0  0  0  0  0  0  0  0
    3.8500    1.8390    0.7860 O   0  0  0  0  0  0  0  0  0  0  0  0
    5.0440    1.1780    0.5100 C   0  0  0  0  0  0  0  0  0  0  0  0
    4.9660    0.1020   -0.1120 O   0  0  0  0  0  0  0  0  0  0  0  0
    6.2970    1.6710    0.9000 N   0  0  0  0  0  0  0  0  0  0  0  0
    7.5650    1.1040    0.6820 C   0  0  0  0  0  0  0  0  0  0  0  0
    7.7740   -0.0710    0.0150 C   0  0  0  0  0  0  0  0  0  0  0  0
    9.0420   -0.6080   -0.1880 C   0  0  0  0  0  0  0  0  0  0  0  0
    9.2070   -1.8930   -0.9180 C   0  0  0  0  0  0  0  0  0  0  0  0
   10.1140    0.0840    0.3080 C   0  0  0  0  0  0  0  0  0  0  0  0
    9.9670    1.2810    0.9940 C   0  0  0  0  0  0  0  0  0  0  0  0
   11.1090    2.0520    1.5390 C   0  0  0  0  0  0  0  0  0  0  0  0
    8.7000    1.7560    1.1610 C   0  0  0  0  0  0  0  0  0  0  0  0
    8.5100    3.0360    1.8860 C   0  0  0  0  0  0  0  0  0  0  0  0
   -6.0400    0.6060   -0.1470 C   0  0  0  0  0  0  0  0  0  0  0  0
   -6.3230    2.0420   -0.0010 C   0  0  0  0  0  0  0  0  0  0  0  0
   -6.9590   -0.1940   -0.7800 C   0  0  0  0  0  0  0  0  0  0  0  0
   -6.6770   -1.5290   -0.9040 C   0  0  0  0  0  0  0  0  0  0  0  0
   -7.4800   -2.4520   -1.5030 C   0  0  0  0  0  0  0  0  0  0  0  0
   -8.6310   -2.0700   -2.0120 C   0  0  0  0  0  0  0  0  0  0  0  0
   -9.0860   -0.6750   -1.9580 C   0  0  1  0  0  0  0  0  0  0  0  0
  -10.3400   -0.7020   -1.1590 N   0  0  0  0  0  0  0  0  0  0  0  0
   -8.2200    0.3480   -1.3590 C   0  0  0  0  0  0  0  0  0  0  0  0
  1  2  2  0
  2  3  1  0
  2 32  1  0
  3  4  1  0
  4  5  2  0
  4 31  1  0
  5  6  1  0
  6  7  1  0
  6 28  2  0
  7  8  2  3
  8  9  1  0
  9 10  2  0
  9 11  1  0
 11 12  1  0
 12 13  1  0
 13 14  1  0
 14 15  1  0
 15 16  1  0
 16 17  2  0
 16 18  1  0
 18 19  1  0
 19 20  2  0
 19 26  1  0
 20 21  1  0
 21 22  1  0
 21 23  2  0
 23 24  1  0
 24 25  1  0
 24 26  2  0
 26 27  1  0
 28 29  1  0
 28 30  1  0
 30 31  2  0
 30 36  1  0
 31 32  1  0
 32 33  2  0
 33 34  1  0
 34 35  1  1
 34 36  1  0
M  CHG  1  35   1
M  END
