
     RDKit          3D

 36 39  0  0  0  0  0  0  0  0999 V2000
   -7.0070    3.5280   -1.5970 C   0  0  0  0  0  0  0  0  0  0  0  0
   -7.6720    2.2130   -1.2470 C   0  0  0  0  0  0  0  0  0  0  0  0
   -6.8320    1.0650   -1.8010 C   0  0  0  0  0  0  0  0  0  0  0  0
   -7.4020   -0.2340   -1.5070 C   0  0  0  0  0  0  0  0  0  0  0  0
   -7.0020   -1.2080   -0.7420 C   0  0  0  0  0  0  0  0  0  0  0  0
   -7.7370   -2.5020   -0.5680 C   0  0  0  0  0  0  0  0  0  0  0  0
   -8.8050   -2.7950   -1.1540 O   0  0  0  0  0  0  0  0  0  0  0  0
   -7.0340   -3.3090    0.3430 N   0  0  0  0  0  0  0  0  0  0  0  0
   -5.8930   -2.5960    0.7580 C   0  0  0  0  0  0  0  0  0  0  0  0
   -4.8610   -2.9230    1.6560 C   0  0  0  0  0  0  0  0  0  0  0  0
   -3.8400   -2.0310    1.9040 C   0  0  0  0  0  0  0  0  0  0  0  0
   -3.7880   -0.8000    1.2950 C   0  0  0  0  0  0  0  0  0  0  0  0
   -2.6760    0.1430    1.5810 C   0  0  1  0  0  0  0  0  0  0  0  0
   -1.6500   -0.4940    2.4510 C   0  0  0  0  0  0  0  0  0  0  0  0
   -2.1630    0.7530    0.3750 N   0  0  0  0  0  0  0  0  0  0  0  0
   -1.0430    1.5960    0.6890 C   0  0  0  0  0  0  0  0  0  0  0  0
    0.2860    0.9810    0.5530 C   0  0  0  0  0  0  0  0  0  0  0  0
    1.2930    1.6860    0.8210 O   0  0  0  0  0  0  0  0  0  0  0  0
    0.4810   -0.3480    0.1390 N   0  0  0  0  0  0  0  0  0  0  0  0
    1.7050   -1.0260   -0.0290 C   0  0  0  0  0  0  0  0  0  0  0  0
    1.7310   -2.4210   -0.1480 C   0  0  0  0  0  0  0  0  0  0  0  0
    2.8800   -3.1410   -0.3310 C   0  0  0  0  0  0  0  0  0  0  0  0
    4.0740   -2.4980   -0.4050 C   0  0  0  0  0  0  0  0  0  0  0  0
    4.1140   -1.1120   -0.2940 C   0  0  0  0  0  0  0  0  0  0  0  0
    5.3590   -0.4470   -0.3390 N   0  0  0  0  0  0  0  0  0  0  0  0
    5.5270    0.8610   -0.7920 C   0  0  0  0  0  0  0  0  0  0  0  0
    4.5040    1.5340   -1.2130 O   0  0  0  0  0  0  0  0  0  0  0  0
    6.7750    1.5550   -0.8360 C   0  0  0  0  0  0  0  0  0  0  0  0
    7.9840    1.2050   -0.5080 C   0  0  0  0  0  0  0  0  0  0  0  0
    9.1450    2.1570   -0.6590 C   0  0  0  0  0  0  0  0  0  0  0  0
   10.2050    1.5910    0.2790 C   0  0  0  0  0  0  0  0  0  0  0  0
   10.0080    0.1040    0.1040 C   0  0  0  0  0  0  0  0  0  0  0  0
    8.5080   -0.0430    0.0260 C   0  0  0  0  0  0  0  0  0  0  0  0
    2.9310   -0.4130   -0.1090 C   0  0  0  0  0  0  0  0  0  0  0  0
   -4.8060   -0.4800    0.4110 C   0  0  0  0  0  0  0  0  0  0  0  0
   -5.8400   -1.3630    0.1460 C   0  0  0  0  0  0  0  0  0  0  0  0
  1  2  1  0
  2  3  1  0
  3  4  1  0
  4  5  2  3
  5  6  1  0
  5 36  1  0
  6  7  2  0
  6  8  1  0
  8  9  1  0
  9 10  2  0
  9 36  1  0
 10 11  1  0
 11 12  2  0
 12 13  1  0
 12 35  1  0
 13 14  1  6
 13 15  1  0
 15 16  1  0
 16 17  1  0
 17 18  2  0
 17 19  1  0
 19 20  1  0
 20 21  2  0
 20 34  1  0
 21 22  1  0
 22 23  2  0
 23 24  1  0
 24 25  1  0
 24 34  2  0
 25 26  1  0
 26 27  2  0
 26 28  1  0
 28 29  2  3
 29 30  1  0
 29 33  1  0
 30 31  1  0
 31 32  1  0
 32 33  1  0
 35 36  2  0
M  CHG  1  15   1
M  END
