
     RDKit          3D

 36 39  0  0  0  0  0  0  0  0999 V2000
   -7.7830    1.7280   -0.9370 C   0  0  0  0  0  0  0  0  0  0  0  0
   -6.9800    1.3530    0.2350 C   0  0  0  0  0  0  0  0  0  0  0  0
   -7.1620    2.0190    1.4280 C   0  0  0  0  0  0  0  0  0  0  0  0
   -6.3910    1.6380    2.5000 C   0  0  0  0  0  0  0  0  0  0  0  0
   -5.4540    0.6050    2.3760 C   0  0  0  0  0  0  0  0  0  0  0  0
   -4.6710    0.2220    3.4750 N   0  0  0  0  0  0  0  0  0  0  0  0
   -5.2850   -0.0510    1.1750 C   0  0  0  0  0  0  0  0  0  0  0  0
   -4.3000   -1.1190    1.0870 C   0  0  0  0  0  0  0  0  0  0  0  0
   -3.5910   -1.4740    2.0600 O   0  0  0  0  0  0  0  0  0  0  0  0
   -4.1010   -1.8060   -0.1130 O   0  0  0  0  0  0  0  0  0  0  0  0
   -3.1760   -2.8370   -0.2700 C   0  0  1  0  0  0  0  0  0  0  0  0
   -3.7960   -4.1640   -0.6120 C   0  0  0  0  0  0  0  0  0  0  0  0
   -2.1300   -2.4860   -1.2870 C   0  0  0  0  0  0  0  0  0  0  0  0
   -2.2220   -1.3710   -1.8380 O   0  0  0  0  0  0  0  0  0  0  0  0
   -1.1110   -3.4210   -1.5650 N   0  0  0  0  0  0  0  0  0  0  0  0
   -0.0940   -3.1140   -2.5350 C   0  0  0  0  0  0  0  0  0  0  0  0
    0.6970   -1.9020   -2.1830 C   0  0  0  0  0  0  0  0  0  0  0  0
    1.7640   -1.8630   -1.3020 C   0  0  0  0  0  0  0  0  0  0  0  0
    2.2280   -0.6100   -1.2370 N   0  0  0  0  0  0  0  0  0  0  0  0
    3.3190   -0.1860   -0.4330 C   0  0  0  0  0  0  0  0  0  0  0  0
    3.1150    0.4320    0.7980 C   0  0  0  0  0  0  0  0  0  0  0  0
    4.1900    0.8350    1.5600 C   0  0  0  0  0  0  0  0  0  0  0  0
    5.4920    0.6610    1.1690 C   0  0  0  0  0  0  0  0  0  0  0  0
    6.6450    1.0880    1.9740 C   0  0  0  0  0  0  0  0  0  0  0  0
    6.5280    1.6720    3.1360 C   0  0  0  0  0  0  0  0  0  0  0  0
    7.8760    1.9610    3.6600 C   0  0  0  0  0  0  0  0  0  0  0  0
    8.7750    1.4540    2.6210 C   0  0  0  0  0  0  0  0  0  0  0  0
    8.0430    0.9490    1.6450 C   0  0  0  0  0  0  0  0  0  0  0  0
    5.6940    0.0490   -0.0510 C   0  0  0  0  0  0  0  0  0  0  0  0
    4.6310   -0.3600   -0.8240 C   0  0  0  0  0  0  0  0  0  0  0  0
    1.4760    0.1370   -2.0550 C   0  0  0  0  0  0  0  0  0  0  0  0
    1.6540    1.5810   -2.2760 C   0  0  2  0  0  0  0  0  0  0  0  0
    0.4020    2.3150   -1.8170 C   0  0  0  0  0  0  0  0  0  0  0  0
    1.8500    1.9180   -3.7410 C   0  0  0  0  0  0  0  0  0  0  0  0
    0.5320   -0.6460   -2.6430 N   0  0  0  0  0  0  0  0  0  0  0  0
   -6.0480    0.3190    0.0950 C   0  0  0  0  0  0  0  0  0  0  0  0
  1  2  1  0
  2  3  2  0
  2 36  1  0
  3  4  1  0
  4  5  2  0
  5  6  1  0
  5  7  1  0
  7  8  1  0
  7 36  2  0
  8  9  2  0
  8 10  1  0
 10 11  1  0
 11 12  1  6
 11 13  1  0
 13 14  2  0
 13 15  1  0
 15 16  1  0
 16 17  1  0
 17 18  2  0
 17 35  1  0
 18 19  1  0
 19 20  1  0
 19 31  1  0
 20 21  2  0
 20 30  1  0
 21 22  1  0
 22 23  2  0
 23 24  1  0
 23 29  1  0
 24 25  2  0
 24 28  1  0
 25 26  1  0
 26 27  1  0
 27 28  2  0
 29 30  2  0
 31 32  1  0
 31 35  2  0
 32 33  1  6
 32 34  1  0
M  CHG  1  35   1
M  END
