
     RDKit          3D

 36 39  0  0  0  0  0  0  0  0999 V2000
    4.1860   -3.9320   -1.4170 C   0  0  0  0  0  0  0  0  0  0  0  0
    3.3080   -2.7900   -1.0590 C   0  0  0  0  0  0  0  0  0  0  0  0
    1.9700   -2.8690   -1.3750 C   0  0  0  0  0  0  0  0  0  0  0  0
    1.1550   -1.7830   -1.0270 C   0  0  0  0  0  0  0  0  0  0  0  0
    1.6230   -0.6720   -0.4020 C   0  0  0  0  0  0  0  0  0  0  0  0
    0.8240    0.4530   -0.0380 N   0  0  0  0  0  0  0  0  0  0  0  0
   -0.4810    0.7230   -0.4070 C   0  0  0  0  0  0  0  0  0  0  0  0
   -1.0730   -0.1180   -1.1550 O   0  0  0  0  0  0  0  0  0  0  0  0
   -1.2610    1.8860   -0.0150 C   0  0  0  0  0  0  0  0  0  0  0  0
   -2.6620    1.6580    0.1540 C   0  0  0  0  0  0  0  0  0  0  0  0
   -3.5000    2.6320    0.5780 C   0  0  0  0  0  0  0  0  0  0  0  0
   -4.8860    2.4840    0.7720 N   0  0  0  0  0  0  0  0  0  0  0  0
   -5.6700    1.3380    0.5860 C   0  0  0  0  0  0  0  0  0  0  0  0
   -5.1300    0.2860    0.1990 O   0  0  0  0  0  0  0  0  0  0  0  0
   -7.1330    1.2910    0.8230 C   0  0  0  0  0  0  0  0  0  0  0  0
   -7.7430   -0.0380    0.4400 C   0  0  2  0  0  0  0  0  0  0  0  0
   -7.1390   -1.1840    1.1920 C   0  0  0  0  0  0  0  0  0  0  0  0
   -7.6230   -0.3010   -1.0380 C   0  0  0  0  0  0  0  0  0  0  0  0
   -8.4020   -1.4840   -1.3860 N   0  0  0  0  0  0  0  0  0  0  0  0
   -9.7920   -1.1720   -1.1150 C   0  0  0  0  0  0  0  0  0  0  0  0
   -9.8780   -0.9620    0.3870 C   0  0  0  0  0  0  0  0  0  0  0  0
   -9.0950    0.0710    0.8220 O   0  0  0  0  0  0  0  0  0  0  0  0
   -2.9270    3.8840    0.8450 C   0  0  0  0  0  0  0  0  0  0  0  0
   -1.5970    4.1190    0.6890 C   0  0  0  0  0  0  0  0  0  0  0  0
   -0.7320    3.1020    0.2470 C   0  0  0  0  0  0  0  0  0  0  0  0
    0.6880    3.4460    0.0460 C   0  0  0  0  0  0  0  0  0  0  0  0
    2.9960   -0.6470   -0.1050 C   0  0  0  0  0  0  0  0  0  0  0  0
    3.8350   -1.6740   -0.4190 C   0  0  0  0  0  0  0  0  0  0  0  0
    5.2130   -1.6630   -0.1190 N   0  0  0  0  0  0  0  0  0  0  0  0
    5.7660   -0.5020    0.5230 C   0  0  0  0  0  0  0  0  0  0  0  0
    7.2360   -0.7120    0.7700 C   0  0  1  0  0  0  0  0  0  0  0  0
    7.9240   -0.9330   -0.5540 C   0  0  0  0  0  0  0  0  0  0  0  0
    9.4390   -0.9530   -0.4050 C   0  0  0  0  0  0  0  0  0  0  0  0
    9.9240    0.2870    0.3130 C   0  0  0  0  0  0  0  0  0  0  0  0
    8.7460    1.2180    0.6060 C   0  0  0  0  0  0  0  0  0  0  0  0
    7.7820    0.4840    1.5030 C   0  0  0  0  0  0  0  0  0  0  0  0
  1  2  1  0
  2  3  2  0
  2 28  1  0
  3  4  1  0
  4  5  2  0
  5  6  1  0
  5 27  1  0
  6  7  1  0
  7  8  2  0
  7  9  1  0
  9 10  2  0
  9 25  1  0
 10 11  1  0
 11 12  1  0
 11 23  2  0
 12 13  1  0
 13 14  2  0
 13 15  1  0
 15 16  1  0
 16 17  1  1
 16 18  1  0
 16 22  1  0
 18 19  1  0
 19 20  1  0
 20 21  1  0
 21 22  1  0
 23 24  1  0
 24 25  2  0
 25 26  1  0
 27 28  2  0
 28 29  1  0
 29 30  1  0
 31 30  1  6
 31 32  1  0
 31 36  1  0
 32 33  1  0
 33 34  1  0
 34 35  1  0
 35 36  1  0
M  CHG  1  19   1
M  END
