
     RDKit          3D

 36 39  0  0  0  0  0  0  0  0999 V2000
   -5.6650    1.3560   -1.5370 C   0  0  0  0  0  0  0  0  0  0  0  0
   -4.7080    2.0560   -0.7020 C   0  0  0  0  0  0  0  0  0  0  0  0
   -3.3190    1.7290   -0.6250 N   0  0  0  0  0  0  0  0  0  0  0  0
   -2.7020    1.1170    0.4110 C   0  0  0  0  0  0  0  0  0  0  0  0
   -1.3520    1.0560    0.1920 C   0  0  0  0  0  0  0  0  0  0  0  0
   -1.1410    1.6420   -1.0530 C   0  0  0  0  0  0  0  0  0  0  0  0
    0.1430    1.7960   -1.7360 C   0  0  0  0  0  0  0  0  0  0  0  0
   -2.3730    2.0320   -1.4940 N   0  0  0  0  0  0  0  0  0  0  0  0
   -2.5510    2.6900   -2.7650 C   0  0  0  0  0  0  0  0  0  0  0  0
   -0.4070    0.7900    1.2990 C   0  0  0  0  0  0  0  0  0  0  0  0
    1.0070    0.6750    1.0160 N   0  0  0  0  0  0  0  0  0  0  0  0
    1.8620    1.8170    1.1390 C   0  0  0  0  0  0  0  0  0  0  0  0
    3.1740    1.5900    0.4320 C   0  0  0  0  0  0  0  0  0  0  0  0
    3.6770    0.2450    0.7770 N   0  0  0  0  0  0  0  0  0  0  0  0
    5.0270    0.1440    0.3210 C   0  0  0  0  0  0  0  0  0  0  0  0
    5.7110   -1.1610    0.6220 C   0  0  0  0  0  0  0  0  0  0  0  0
    7.1010   -1.0890    0.0890 C   0  0  0  0  0  0  0  0  0  0  0  0
    7.4300   -1.4750   -1.1880 C   0  0  0  0  0  0  0  0  0  0  0  0
    8.7190   -1.4080   -1.6790 C   0  0  0  0  0  0  0  0  0  0  0  0
    9.7160   -0.9310   -0.8500 C   0  0  0  0  0  0  0  0  0  0  0  0
    9.4120   -0.5380    0.4310 C   0  0  0  0  0  0  0  0  0  0  0  0
    8.1160   -0.6160    0.8970 C   0  0  0  0  0  0  0  0  0  0  0  0
    2.8150   -0.6580    0.0440 C   0  0  0  0  0  0  0  0  0  0  0  0
    1.4500   -0.6400    0.6450 C   0  0  0  0  0  0  0  0  0  0  0  0
   -0.7390    0.6350    2.5340 N   0  0  0  0  0  0  0  0  0  0  0  0
   -2.3990    0.7490    3.0790 S   0  0  1  0  0  0  0  0  0  0  0  0
   -2.7210   -0.3830    3.9980 O   0  0  0  0  0  0  0  0  0  0  0  0
   -2.7430    2.0880    3.5950 O   0  0  0  0  0  0  0  0  0  0  0  0
   -3.3060    0.4480    1.5490 C   0  0  0  0  0  0  0  0  0  0  0  0
   -4.1650   -0.4780    1.5120 C   0  0  0  0  0  0  0  0  0  0  0  0
   -4.8280   -1.2330    0.4950 C   0  0  0  0  0  0  0  0  0  0  0  0
   -4.3830   -1.2200   -0.8400 N   0  0  0  0  0  0  0  0  0  0  0  0
   -5.7650   -2.1130    0.8030 C   0  0  0  0  0  0  0  0  0  0  0  0
   -6.4690   -2.9060   -0.1840 C   0  0  0  0  0  0  0  0  0  0  0  0
   -7.3970   -3.7650    0.2140 C   0  0  0  0  0  0  0  0  0  0  0  0
   -7.6810   -3.8900    1.6020 N   0  0  0  0  0  0  0  0  0  0  0  0
  1  2  1  0
  2  3  1  0
  3  4  1  0
  3  8  1  0
  4  5  2  0
  4 29  1  0
  5  6  1  0
  5 10  1  0
  6  7  1  0
  6  8  2  0
  8  9  1  0
 10 11  1  0
 10 25  2  0
 11 12  1  0
 11 24  1  0
 12 13  1  0
 13 14  1  0
 14 15  1  0
 14 23  1  0
 15 16  1  0
 16 17  1  0
 17 18  2  0
 17 22  1  0
 18 19  1  0
 19 20  2  0
 20 21  1  0
 21 22  2  0
 23 24  1  0
 26 25  1  6
 26 27  2  0
 26 28  2  0
 26 29  1  0
 29 30  2  3
 30 31  1  0
 31 32  1  0
 31 33  2  3
 33 34  1  0
 34 35  2  3
 35 36  1  0
M  CHG  1   8   1
M  END
