
     RDKit          3D

 39 42  0  0  0  0  0  0  0  0999 V2000
   -6.9600    1.3440    1.7680 C   0  0  0  0  0  0  0  0  0  0  0  0
   -7.3400   -0.0900    1.6040 C   0  0  0  0  0  0  0  0  0  0  0  0
   -6.2840   -1.0870    1.9020 C   0  0  2  0  0  0  0  0  0  0  0  0
   -5.7660   -0.9150    3.3520 C   0  0  0  0  0  0  0  0  0  0  0  0
   -5.1270   -1.6410    0.7630 S   0  0  0  0  0  0  0  0  0  0  0  0
   -3.8880   -0.6990   -0.0220 C   0  0  2  0  0  0  0  0  0  0  0  0
   -4.2120    0.1230   -1.2040 C   0  0  0  0  0  0  0  0  0  0  0  0
   -5.2170    1.1960   -1.0900 C   0  0  0  0  0  0  0  0  0  0  0  0
   -5.3930    1.9940   -2.3720 C   0  0  1  0  0  0  0  0  0  0  0  0
   -5.8280    1.2110   -3.5510 C   0  0  0  0  0  0  0  0  0  0  0  0
   -7.1490    0.8900   -3.6310 O   0  0  0  0  0  0  0  0  0  0  0  0
   -8.0050    1.5260   -2.7890 C   0  0  0  0  0  0  0  0  0  0  0  0
   -7.5690    2.8180   -2.2170 C   0  0  0  0  0  0  0  0  0  0  0  0
   -6.2330    3.0450   -2.1320 O   0  0  0  0  0  0  0  0  0  0  0  0
   -2.7360   -1.5650   -0.2410 N   0  0  0  0  0  0  0  0  0  0  0  0
   -1.4950   -1.2860    0.3360 C   0  0  0  0  0  0  0  0  0  0  0  0
   -1.3590   -0.2840    1.0440 O   0  0  0  0  0  0  0  0  0  0  0  0
   -0.3280   -2.1120    0.1580 N   0  0  0  0  0  0  0  0  0  0  0  0
    0.9310   -1.7520    0.7760 C   0  0  1  0  0  0  0  0  0  0  0  0
    1.4160   -2.8030    1.7710 C   0  0  0  0  0  0  0  0  0  0  0  0
    2.6670   -2.3370    2.4500 C   0  0  0  0  0  0  0  0  0  0  0  0
    3.5920   -1.5570    1.6070 C   0  0  0  0  0  0  0  0  0  0  0  0
    4.8040   -1.1880    2.1910 C   0  0  0  0  0  0  0  0  0  0  0  0
    5.7120   -0.4690    1.4580 C   0  0  0  0  0  0  0  0  0  0  0  0
    5.4320   -0.1200    0.1720 C   0  0  0  0  0  0  0  0  0  0  0  0
    6.3340    0.5840   -0.6460 N   0  0  0  0  0  0  0  0  0  0  0  0
    7.7620    0.4940   -0.4610 C   0  0  0  0  0  0  0  0  0  0  0  0
    8.1510   -0.2500    0.4650 O   0  0  0  0  0  0  0  0  0  0  0  0
    8.6040    1.2540   -1.3450 C   0  0  0  0  0  0  0  0  0  0  0  0
    9.8610    1.3850   -1.4240 C   0  0  0  0  0  0  0  0  0  0  0  0
   10.9900    0.8790   -0.7220 C   0  0  0  0  0  0  0  0  0  0  0  0
   11.1350    0.0840    0.3660 C   0  0  0  0  0  0  0  0  0  0  0  0
   12.5150   -0.0820    0.6030 C   0  0  0  0  0  0  0  0  0  0  0  0
   13.1200    0.6380   -0.3750 C   0  0  0  0  0  0  0  0  0  0  0  0
   12.2490    1.1920   -1.1380 O   0  0  0  0  0  0  0  0  0  0  0  0
    4.2050   -0.4980   -0.4010 C   0  0  0  0  0  0  0  0  0  0  0  0
    3.2790   -1.2220    0.3240 C   0  0  0  0  0  0  0  0  0  0  0  0
    1.9910   -1.6140   -0.2840 C   0  0  2  0  0  0  0  0  0  0  0  0
    1.6300   -0.6490   -1.2240 O   0  0  0  0  0  0  0  0  0  0  0  0
  1  2  1  0
  2  3  1  0
  3  4  1  1
  3  5  1  0
  5  6  1  0
  6  7  1  6
  6 15  1  0
  7  8  1  0
  9  8  1  1
  9 10  1  0
  9 14  1  0
 10 11  1  0
 11 12  1  0
 12 13  1  0
 13 14  1  0
 15 16  1  0
 16 17  2  0
 16 18  1  0
 19 18  1  6
 19 20  1  0
 19 38  1  0
 20 21  1  0
 21 22  1  0
 22 23  2  0
 22 37  1  0
 23 24  1  0
 24 25  2  0
 25 26  1  0
 25 36  1  0
 26 27  1  0
 27 28  2  0
 27 29  1  0
 29 30  2  3
 30 31  1  0
 31 32  2  0
 31 35  1  0
 32 33  1  0
 33 34  2  0
 34 35  1  0
 36 37  2  0
 37 38  1  0
 38 39  1  6
M  END
