
     RDKit          3D

 40 42  0  0  0  0  0  0  0  0999 V2000
   -6.4730    3.7280   -2.8240 C   0  0  0  0  0  0  0  0  0  0  0  0
   -7.1530    4.4530   -1.3350 S   0  0  0  0  0  0  0  0  0  0  0  0
   -6.0380    4.5120    0.0650 C   0  0  0  0  0  0  0  0  0  0  0  0
   -5.7190    3.1770    0.6660 C   0  0  2  0  0  0  0  0  0  0  0  0
   -4.8590    3.3820    1.7840 O   0  0  0  0  0  0  0  0  0  0  0  0
   -5.0160    2.2230   -0.2900 C   0  0  0  0  0  0  0  0  0  0  0  0
   -4.7630    0.9980    0.3420 O   0  0  0  0  0  0  0  0  0  0  0  0
   -4.0260   -0.0370   -0.1820 C   0  0  0  0  0  0  0  0  0  0  0  0
   -3.5060    0.1120   -1.3030 O   0  0  0  0  0  0  0  0  0  0  0  0
   -3.8460   -1.3100    0.5580 C   0  0  2  0  0  0  0  0  0  0  0  0
   -2.6910   -2.0330    0.0970 N   0  0  0  0  0  0  0  0  0  0  0  0
   -2.7860   -3.3090   -0.5660 C   0  0  0  0  0  0  0  0  0  0  0  0
   -1.6220   -4.2170   -0.2400 C   0  0  0  0  0  0  0  0  0  0  0  0
   -0.7910   -3.7430    0.8960 C   0  0  0  0  0  0  0  0  0  0  0  0
   -0.2130   -2.3570    0.5520 C   0  0  1  0  0  0  0  0  0  0  0  0
    0.6180   -2.5130   -0.6230 N   0  0  0  0  0  0  0  0  0  0  0  0
    2.0510   -2.6060   -0.4330 C   0  0  0  0  0  0  0  0  0  0  0  0
    2.5320   -2.5640    0.7040 O   0  0  0  0  0  0  0  0  0  0  0  0
    2.9300   -2.7470   -1.5230 N   0  0  0  0  0  0  0  0  0  0  0  0
    4.3490   -2.8840   -1.3800 C   0  0  0  0  0  0  0  0  0  0  0  0
    5.0890   -1.6510   -1.0540 C   0  0  0  0  0  0  0  0  0  0  0  0
    5.4950   -0.7540   -2.0550 C   0  0  0  0  0  0  0  0  0  0  0  0
    6.2220    0.3680   -1.7550 C   0  0  0  0  0  0  0  0  0  0  0  0
    6.6050    0.6970   -0.4500 C   0  0  0  0  0  0  0  0  0  0  0  0
    7.4370    1.8910   -0.1830 C   0  0  2  0  0  0  0  0  0  0  0  0
    8.7130    1.8530   -1.0470 C   0  0  0  0  0  0  0  0  0  0  0  0
    7.9590    1.8740    1.2540 C   0  0  0  0  0  0  0  0  0  0  0  0
    6.7800    3.2040   -0.4320 C   0  0  0  0  0  0  0  0  0  0  0  0
    5.5570    3.4790    0.3870 C   0  0  0  0  0  0  0  0  0  0  0  0
    5.0780    4.7530    0.0170 O   0  0  0  0  0  0  0  0  0  0  0  0
    6.1990   -0.1860    0.5280 C   0  0  0  0  0  0  0  0  0  0  0  0
    5.4660   -1.3220    0.2290 C   0  0  0  0  0  0  0  0  0  0  0  0
   -1.3650   -1.4780    0.2750 C   0  0  0  0  0  0  0  0  0  0  0  0
   -1.1920   -0.2450    0.1970 O   0  0  0  0  0  0  0  0  0  0  0  0
   -5.0950   -2.1420    0.3230 C   0  0  0  0  0  0  0  0  0  0  0  0
   -6.3130   -1.3920    0.8080 C   0  0  0  0  0  0  0  0  0  0  0  0
   -6.0770   -0.5960    1.8880 O   0  0  0  0  0  0  0  0  0  0  0  0
   -5.0190   -0.9150    2.6920 C   0  0  1  0  0  0  0  0  0  0  0  0
   -5.2730   -2.1590    3.5260 C   0  0  0  0  0  0  0  0  0  0  0  0
   -3.6770   -0.9730    2.0120 C   0  0  0  0  0  0  0  0  0  0  0  0
  1  2  1  0
  2  3  1  0
  3  4  1  0
  4  5  1  1
  4  6  1  0
  6  7  1  0
  7  8  1  0
  8  9  2  0
  8 10  1  0
 10 11  1  6
 10 35  1  0
 10 40  1  0
 11 12  1  0
 11 33  1  0
 12 13  1  0
 13 14  1  0
 14 15  1  0
 15 16  1  6
 15 33  1  0
 16 17  1  0
 17 18  2  0
 17 19  1  0
 19 20  1  0
 20 21  1  0
 21 22  2  0
 21 32  1  0
 22 23  1  0
 23 24  2  0
 24 25  1  0
 24 31  1  0
 25 26  1  6
 25 27  1  0
 25 28  1  0
 28 29  1  0
 29 30  1  0
 31 32  2  0
 33 34  2  0
 35 36  1  0
 36 37  1  0
 37 38  1  0
 38 39  1  6
 38 40  1  0
M  END
