
     RDKit          3D

 40 42  0  0  0  0  0  0  0  0999 V2000
   -9.8810    0.0190   -0.8160 C   0  0  0  0  0  0  0  0  0  0  0  0
   -8.8370    0.0100   -1.6080 C   0  0  0  0  0  0  0  0  0  0  0  0
   -8.9510    0.2280   -3.4610 S   0  0  0  0  0  0  0  0  0  0  0  0
   -7.2480    0.0970   -3.7430 C   0  0  0  0  0  0  0  0  0  0  0  0
   -6.7170    0.1900   -5.0300 O   0  0  0  0  0  0  0  0  0  0  0  0
   -6.6540   -0.1040   -2.4400 C   0  0  0  0  0  0  0  0  0  0  0  0
   -7.4240   -0.1460   -1.4050 C   0  0  0  0  0  0  0  0  0  0  0  0
   -6.9120   -0.3480    0.0040 C   0  0  2  0  0  0  0  0  0  0  0  0
   -7.3390    0.7610    0.8680 N   0  0  0  0  0  0  0  0  0  0  0  0
   -6.7030    0.7050    2.1680 C   0  0  0  0  0  0  0  0  0  0  0  0
   -6.6800    1.6990    2.9030 O   0  0  0  0  0  0  0  0  0  0  0  0
   -6.1190   -0.6240    2.4790 C   0  0  2  0  0  0  0  0  0  0  0  0
   -5.5350   -0.6570    3.8460 C   0  0  0  0  0  0  0  0  0  0  0  0
   -4.9410   -1.8600    4.2780 N   0  0  0  0  0  0  0  0  0  0  0  0
   -5.6080    0.3940    4.5320 O   0  0  0  0  0  0  0  0  0  0  0  0
   -5.0290   -0.9000    1.4680 C   0  0  0  0  0  0  0  0  0  0  0  0
   -5.4130   -0.5080    0.0580 C   0  0  2  0  0  0  0  0  0  0  0  0
   -4.7080    0.7410   -0.2770 C   0  0  0  0  0  0  0  0  0  0  0  0
   -5.3000    1.8300   -0.5110 O   0  0  0  0  0  0  0  0  0  0  0  0
   -3.2470    0.7430   -0.3430 C   0  0  0  0  0  0  0  0  0  0  0  0
   -2.5560    1.9120   -0.5950 C   0  0  0  0  0  0  0  0  0  0  0  0
   -1.1550    1.9420   -0.6750 C   0  0  0  0  0  0  0  0  0  0  0  0
   -0.4170    0.8210   -0.5090 C   0  0  0  0  0  0  0  0  0  0  0  0
    0.9890    0.7200   -0.5930 N   0  0  0  0  0  0  0  0  0  0  0  0
    1.8290    1.6030   -1.2840 C   0  0  0  0  0  0  0  0  0  0  0  0
    1.1830    2.5720   -1.8810 O   0  0  0  0  0  0  0  0  0  0  0  0
    3.2540    1.6020   -1.4310 C   0  0  0  0  0  0  0  0  0  0  0  0
    4.1520    0.8140   -1.0050 C   0  0  0  0  0  0  0  0  0  0  0  0
    4.1500   -0.3860   -0.2180 C   0  0  0  0  0  0  0  0  0  0  0  0
    4.9440   -0.1330    1.0730 C   0  0  0  0  0  0  0  0  0  0  0  0
    6.3410    0.2440    0.7980 C   0  0  0  0  0  0  0  0  0  0  0  0
    6.6220    1.4380    0.4950 O   0  0  0  0  0  0  0  0  0  0  0  0
    7.3860   -0.6500    0.8520 O   0  0  0  0  0  0  0  0  0  0  0  0
    8.7540   -0.2200    0.5680 C   0  0  2  0  0  0  0  0  0  0  0  0
    9.1170   -1.0430   -0.6550 C   0  0  0  0  0  0  0  0  0  0  0  0
    9.5690   -0.4740    1.7870 C   0  0  0  0  0  0  0  0  0  0  0  0
   10.9880   -0.0580    1.7200 C   0  0  0  0  0  0  0  0  0  0  0  0
   11.7770   -0.7830    0.6800 C   0  0  0  0  0  0  0  0  0  0  0  0
   -1.1250   -0.3620   -0.2530 C   0  0  0  0  0  0  0  0  0  0  0  0
   -2.4970   -0.3950   -0.1740 C   0  0  0  0  0  0  0  0  0  0  0  0
  1  2  2  0
  2  3  1  0
  2  7  1  0
  3  4  2  0
  4  5  1  0
  4  6  1  0
  6  7  2  0
  8  7  1  6
  8  9  1  0
  8 17  1  0
  9 10  1  0
 10 11  2  0
 10 12  1  0
 12 13  1  1
 12 16  1  0
 13 14  1  0
 13 15  2  0
 16 17  1  0
 17 18  1  1
 18 19  2  0
 18 20  1  0
 20 21  2  0
 20 40  1  0
 21 22  1  0
 22 23  2  0
 23 24  1  0
 23 39  1  0
 24 25  1  0
 25 26  2  0
 25 27  1  0
 27 28  2  3
 28 29  1  0
 29 30  1  0
 30 31  1  0
 31 32  2  0
 31 33  1  0
 33 34  1  0
 34 35  1  6
 34 36  1  0
 36 37  1  0
 37 38  1  0
 39 40  2  0
M  END
