
     RDKit          3D

 34 37  0  0  0  0  0  0  0  0999 V2000
    8.3270   -0.5250   -2.2120 C   0  0  0  0  0  0  0  0  0  0  0  0
    6.9410   -0.0870   -1.8930 C   0  0  0  0  0  0  0  0  0  0  0  0
    6.6780    1.2230   -1.6550 C   0  0  0  0  0  0  0  0  0  0  0  0
    5.3900    1.6730   -1.3520 C   0  0  0  0  0  0  0  0  0  0  0  0
    5.1680    3.1040   -1.1070 C   0  0  0  0  0  0  0  0  0  0  0  0
    4.3560    0.7750   -1.2900 C   0  0  0  0  0  0  0  0  0  0  0  0
    2.9990    0.8540   -1.0270 C   0  0  0  0  0  0  0  0  0  0  0  0
    2.3040    2.1030   -0.7150 C   0  0  0  0  0  0  0  0  0  0  0  0
    2.4610   -0.4090   -1.1100 C   0  0  0  0  0  0  0  0  0  0  0  0
    1.0660   -0.8420   -0.9150 C   0  0  0  0  0  0  0  0  0  0  0  0
    0.7930   -2.0620   -1.0400 O   0  0  0  0  0  0  0  0  0  0  0  0
    0.1000    0.0450   -0.6110 O   0  0  0  0  0  0  0  0  0  0  0  0
   -1.2920   -0.2110   -0.3790 C   0  0  0  0  0  0  0  0  0  0  0  0
   -1.4390   -1.0260    0.8270 C   0  0  1  0  0  0  0  0  0  0  0  0
   -0.9340   -0.4240    2.0710 C   0  0  0  0  0  0  0  0  0  0  0  0
   -1.1470   -1.3310    3.2820 C   0  0  0  0  0  0  0  0  0  0  0  0
   -2.5040   -1.5550    3.4120 O   0  0  0  0  0  0  0  0  0  0  0  0
   -2.6820   -1.8490    0.9320 N   0  0  0  0  0  0  0  0  0  0  0  0
   -3.9120   -1.4170    1.0310 C   0  0  0  0  0  0  0  0  0  0  0  0
   -4.2760    0.0250    1.2170 C   0  0  0  0  0  0  0  0  0  0  0  0
   -3.3610    0.8440    1.4560 O   0  0  0  0  0  0  0  0  0  0  0  0
   -5.5520    0.5610    1.1450 N   0  0  0  0  0  0  0  0  0  0  0  0
   -6.8380    0.0240    0.8750 C   0  0  0  0  0  0  0  0  0  0  0  0
   -7.6620    1.2750    0.5050 C   0  0  0  0  0  0  0  0  0  0  0  0
   -6.5700    2.3050    0.3260 C   0  0  0  0  0  0  0  0  0  0  0  0
   -5.7190    1.9350    1.3750 O   0  0  0  0  0  0  0  0  0  0  0  0
   -4.9730   -2.3680    1.0640 C   0  0  0  0  0  0  0  0  0  0  0  0
   -4.1480   -3.9030    0.9490 S   0  0  0  0  0  0  0  0  0  0  0  0
   -2.4840   -3.2480    0.8650 C   0  0  0  0  0  0  0  0  0  0  0  0
   -1.4560   -3.8980    0.7730 O   0  0  0  0  0  0  0  0  0  0  0  0
    3.4910   -1.2430   -1.4210 N   0  0  0  0  0  0  0  0  0  0  0  0
    4.6310   -0.5410   -1.5300 C   0  0  0  0  0  0  0  0  0  0  0  0
    5.9090   -0.9950   -1.8320 C   0  0  0  0  0  0  0  0  0  0  0  0
    6.1740   -2.2940   -2.0690 F   0  0  0  0  0  0  0  0  0  0  0  0
  1  2  1  0
  2  3  2  0
  2 33  1  0
  3  4  1  0
  4  5  1  0
  4  6  2  0
  6  7  1  0
  6 32  1  0
  7  8  1  0
  7  9  2  0
  9 10  1  0
  9 31  1  0
 10 11  2  0
 10 12  1  0
 12 13  1  0
 14 13  1  6
 14 15  1  0
 14 18  1  0
 15 16  1  0
 16 17  1  0
 18 19  1  0
 18 29  1  0
 19 20  1  0
 19 27  2  0
 20 21  2  0
 20 22  1  0
 22 23  1  0
 22 26  1  0
 23 24  1  0
 24 25  1  0
 25 26  1  0
 27 28  1  0
 28 29  1  0
 29 30  2  0
 31 32  1  0
 32 33  2  0
 33 34  1  0
M  END
