
     RDKit          3D

 33 36  0  0  0  0  0  0  0  0999 V2000
    6.1130   -0.5970    1.4600 C   0  0  0  0  0  0  0  0  0  0  0  0
    5.4160   -0.2600    0.2420 N   0  0  0  0  0  0  0  0  0  0  0  0
    5.2840    1.0790   -0.2850 C   0  0  0  0  0  0  0  0  0  0  0  0
    4.0940    1.8290    0.2680 C   0  0  0  0  0  0  0  0  0  0  0  0
    4.1430    2.0600    1.7170 C   0  0  0  0  0  0  0  0  0  0  0  0
    5.2070    2.2020    2.4010 N   0  0  0  0  0  0  0  0  0  0  0  0
    2.9390    2.1420    2.4220 O   0  0  0  0  0  0  0  0  0  0  0  0
    4.7960   -1.3220   -0.4830 C   0  0  0  0  0  0  0  0  0  0  0  0
    4.8570   -2.4860   -0.0080 O   0  0  0  0  0  0  0  0  0  0  0  0
    4.1070   -1.1050   -1.7510 C   0  0  0  0  0  0  0  0  0  0  0  0
    4.8400   -1.1470   -2.9420 C   0  0  0  0  0  0  0  0  0  0  0  0
    3.9780   -0.9040   -3.9330 N   0  0  0  0  0  0  0  0  0  0  0  0
    2.7300   -0.7140   -3.3860 C   0  0  0  0  0  0  0  0  0  0  0  0
    2.7840   -0.8340   -2.0400 C   0  0  0  0  0  0  0  0  0  0  0  0
    1.5150   -0.6490   -1.4520 C   0  0  0  0  0  0  0  0  0  0  0  0
    1.4920   -0.7630   -0.0430 O   0  0  0  0  0  0  0  0  0  0  0  0
    0.3550   -0.3970   -1.9050 C   0  0  0  0  0  0  0  0  0  0  0  0
   -0.9160   -0.1230   -2.3310 C   0  0  0  0  0  0  0  0  0  0  0  0
   -1.8170    0.0660   -1.1570 C   0  0  0  0  0  0  0  0  0  0  0  0
   -2.9530   -0.6230   -1.1780 C   0  0  0  0  0  0  0  0  0  0  0  0
   -3.9620   -0.5950   -0.1470 C   0  0  0  0  0  0  0  0  0  0  0  0
   -4.9940   -1.2750   -0.2580 O   0  0  0  0  0  0  0  0  0  0  0  0
   -3.8470    0.1710    1.0110 O   0  0  0  0  0  0  0  0  0  0  0  0
   -4.7810    0.2100    2.0300 C   0  0  1  0  0  0  0  0  0  0  0  0
   -4.2640   -0.0940    3.3910 C   0  0  0  0  0  0  0  0  0  0  0  0
   -5.4310    0.3040    4.2750 C   0  0  0  0  0  0  0  0  0  0  0  0
   -6.2190    1.3200    3.5010 C   0  0  0  0  0  0  0  0  0  0  0  0
   -5.4710    1.5490    2.1770 C   0  0  1  0  0  0  0  0  0  0  0  0
   -4.6240    2.6080    2.3500 O   0  0  0  0  0  0  0  0  0  0  0  0
   -3.1570   -1.4730   -2.3740 C   0  0  0  0  0  0  0  0  0  0  0  0
   -2.8600   -0.7240   -3.6630 C   0  0  0  0  0  0  0  0  0  0  0  0
   -1.4830   -0.0600   -3.6370 C   0  0  0  0  0  0  0  0  0  0  0  0
    1.1210   -0.3720   -3.8600 S   0  0  0  0  0  0  0  0  0  0  0  0
  1  2  1  0
  2  3  1  0
  2  8  1  0
  3  4  1  0
  4  5  1  0
  5  6  2  0
  5  7  1  0
  8  9  2  0
  8 10  1  0
 10 11  2  0
 10 14  1  0
 11 12  1  0
 12 13  1  0
 13 14  2  0
 13 33  1  0
 14 15  1  0
 15 16  2  0
 15 17  1  0
 17 18  2  3
 17 33  1  0
 18 19  1  0
 18 32  1  0
 19 20  2  0
 20 21  1  0
 20 30  1  0
 21 22  2  0
 21 23  1  0
 24 23  1  6
 24 25  1  0
 24 28  1  0
 25 26  1  0
 26 27  1  0
 27 28  1  0
 28 29  1  1
 30 31  1  0
 31 32  1  0
M  END
