
     RDKit          3D

 33 35  0  0  0  0  0  0  0  0999 V2000
   -5.6110   -3.0390   -2.0420 C   0  0  0  0  0  0  0  0  0  0  0  0
   -4.4780   -2.2010   -1.4990 C   0  0  0  0  0  0  0  0  0  0  0  0
   -3.1760   -2.5810   -1.6990 C   0  0  0  0  0  0  0  0  0  0  0  0
   -2.1630   -1.7650   -1.1730 C   0  0  0  0  0  0  0  0  0  0  0  0
   -2.4150   -0.6180   -0.4760 C   0  0  0  0  0  0  0  0  0  0  0  0
   -1.4010    0.2180    0.0630 N   0  0  0  0  0  0  0  0  0  0  0  0
   -0.0070    0.0210   -0.0230 C   0  0  0  0  0  0  0  0  0  0  0  0
    0.4710   -0.9650   -0.6150 O   0  0  0  0  0  0  0  0  0  0  0  0
    0.9250    0.9970    0.5990 C   0  0  0  0  0  0  0  0  0  0  0  0
    2.3470    0.5070    0.3360 C   0  0  0  0  0  0  0  0  0  0  0  0
    3.3490    1.3950    0.9060 C   0  0  0  0  0  0  0  0  0  0  0  0
    2.9180    2.4300    1.5160 O   0  0  0  0  0  0  0  0  0  0  0  0
    4.7690    1.1810    0.8240 C   0  0  0  0  0  0  0  0  0  0  0  0
    5.4010    0.1950    0.2510 C   0  0  0  0  0  0  0  0  0  0  0  0
    4.4400   -1.0700   -0.5420 Cl  0  0  0  0  0  0  0  0  0  0  0  0
    6.8530    0.0430    0.2080 C   0  0  0  0  0  0  0  0  0  0  0  0
    7.4460   -1.0360   -0.4220 C   0  0  0  0  0  0  0  0  0  0  0  0
    8.8040   -1.1920   -0.4710 C   0  0  0  0  0  0  0  0  0  0  0  0
    9.6260   -0.2680    0.1130 C   0  0  0  0  0  0  0  0  0  0  0  0
   11.0820   -0.4290    0.0650 C   0  0  0  0  0  0  0  0  0  0  0  0
   11.6430   -1.5570   -0.5960 N   0  0  0  0  0  0  0  0  0  0  0  0
   11.8470    0.3950    0.5870 O   0  0  0  0  0  0  0  0  0  0  0  0
    9.0720    0.8070    0.7420 C   0  0  0  0  0  0  0  0  0  0  0  0
    7.6790    0.9600    0.7880 C   0  0  0  0  0  0  0  0  0  0  0  0
   -3.7610   -0.2500   -0.2840 C   0  0  0  0  0  0  0  0  0  0  0  0
   -4.0150    0.8960    0.4110 O   0  0  0  0  0  0  0  0  0  0  0  0
   -5.2280    1.5060    0.7280 C   0  0  1  0  0  0  0  0  0  0  0  0
   -6.0410    1.9060   -0.4480 C   0  0  0  0  0  0  0  0  0  0  0  0
   -7.4750    1.5760   -0.4630 C   0  0  0  0  0  0  0  0  0  0  0  0
   -7.9970    0.7540    0.5680 N   0  0  0  0  0  0  0  0  0  0  0  0
   -7.4440    1.1710    1.8390 C   0  0  0  0  0  0  0  0  0  0  0  0
   -5.9800    0.8000    1.8120 C   0  0  0  0  0  0  0  0  0  0  0  0
   -4.7370   -1.0480   -0.7980 C   0  0  0  0  0  0  0  0  0  0  0  0
  1  2  1  0
  2  3  2  0
  2 33  1  0
  3  4  1  0
  4  5  2  0
  5  6  1  0
  5 25  1  0
  6  7  1  0
  7  8  2  0
  7  9  1  0
  9 10  1  0
 10 11  1  0
 11 12  2  0
 11 13  1  0
 13 14  2  3
 14 15  1  0
 14 16  1  0
 16 17  2  0
 16 24  1  0
 17 18  1  0
 18 19  2  0
 19 20  1  0
 19 23  1  0
 20 21  1  0
 20 22  2  0
 23 24  2  0
 25 26  1  0
 25 33  2  0
 27 26  1  6
 27 28  1  0
 27 32  1  0
 28 29  1  0
 29 30  1  0
 30 31  1  0
 31 32  1  0
M  CHG  1  30   1
M  END
