
     RDKit          3D

 34 37  0  0  0  0  0  0  0  0999 V2000
   10.0630    0.1100    0.2310 C   0  0  0  0  0  0  0  0  0  0  0  0
    8.9820    1.0130   -0.0330 N   0  0  0  0  0  0  0  0  0  0  0  0
    7.6500    0.7000    0.3300 C   0  0  0  0  0  0  0  0  0  0  0  0
    7.3320   -0.3870    1.1160 C   0  0  0  0  0  0  0  0  0  0  0  0
    5.9800   -0.6400    1.4190 C   0  0  0  0  0  0  0  0  0  0  0  0
    4.9820    0.1550    0.9600 C   0  0  0  0  0  0  0  0  0  0  0  0
    3.5950   -0.0650    1.2850 N   0  0  0  0  0  0  0  0  0  0  0  0
    2.5890    0.0190    0.3120 C   0  0  0  0  0  0  0  0  0  0  0  0
    2.9970    0.2710   -0.8760 O   0  0  0  0  0  0  0  0  0  0  0  0
    1.1600   -0.1480    0.4980 C   0  0  0  0  0  0  0  0  0  0  0  0
   -0.0320   -0.0800   -0.8340 S   0  0  0  0  0  0  0  0  0  0  0  0
   -1.4390   -0.3190    0.1220 C   0  0  0  0  0  0  0  0  0  0  0  0
   -2.8110   -0.3370   -0.4300 C   0  0  0  0  0  0  0  0  0  0  0  0
   -2.9750   -0.1410   -1.6210 O   0  0  0  0  0  0  0  0  0  0  0  0
   -3.8410   -0.5780    0.4300 N   0  0  0  0  0  0  0  0  0  0  0  0
   -5.1750   -0.6450    0.0970 C   0  0  0  0  0  0  0  0  0  0  0  0
   -5.8950   -0.1450   -1.0500 C   0  0  0  0  0  0  0  0  0  0  0  0
   -7.3160   -0.4620   -1.1800 C   0  0  0  0  0  0  0  0  0  0  0  0
   -8.2020   -0.1720   -2.0850 O   0  0  0  0  0  0  0  0  0  0  0  0
   -8.4000    0.4600   -3.2310 C   0  0  0  0  0  0  0  0  0  0  0  0
   -7.9130   -1.2490   -0.1510 C   0  0  0  0  0  0  0  0  0  0  0  0
   -6.9330   -1.3860    0.5250 C   0  0  0  0  0  0  0  0  0  0  0  0
   -5.8320   -1.3950    1.0270 C   0  0  0  0  0  0  0  0  0  0  0  0
   -6.2740   -2.1690    2.0710 O   0  0  0  0  0  0  0  0  0  0  0  0
   -7.7630   -2.5070    1.8510 C   0  0  0  0  0  0  0  0  0  0  0  0
   -8.2230   -3.1960    2.6560 O   0  0  0  0  0  0  0  0  0  0  0  0
   -8.7540   -2.0280    0.6480 C   0  0  0  0  0  0  0  0  0  0  0  0
   -0.9680   -0.4360    1.3670 C   0  0  0  0  0  0  0  0  0  0  0  0
    0.3800   -0.3470    1.5560 C   0  0  0  0  0  0  0  0  0  0  0  0
    0.9580   -0.4480    2.8200 F   0  0  0  0  0  0  0  0  0  0  0  0
    5.3450    1.2390    0.1740 C   0  0  0  0  0  0  0  0  0  0  0  0
    6.6440    1.5380   -0.1570 C   0  0  0  0  0  0  0  0  0  0  0  0
    6.9600    2.6410   -0.9460 O   0  0  0  0  0  0  0  0  0  0  0  0
    5.9250    3.4700   -1.4180 C   0  0  0  0  0  0  0  0  0  0  0  0
  1  2  1  0
  2  3  1  0
  3  4  2  0
  3 32  1  0
  4  5  1  0
  5  6  2  0
  6  7  1  0
  6 31  1  0
  7  8  1  0
  8  9  2  0
  8 10  1  0
 10 11  1  0
 10 29  2  0
 11 12  1  0
 12 13  1  0
 12 28  2  0
 13 14  2  0
 13 15  1  0
 15 16  1  0
 16 17  2  0
 16 23  1  0
 17 18  1  0
 18 19  1  0
 18 21  2  0
 19 20  1  0
 21 22  1  0
 21 27  1  0
 22 23  2  0
 23 24  1  0
 24 25  1  0
 25 26  2  0
 25 27  1  0
 28 29  1  0
 29 30  1  0
 31 32  2  0
 32 33  1  0
 33 34  1  0
M  END
