
     RDKit          3D

 33 36  0  0  0  0  0  0  0  0999 V2000
   -0.1800    0.2720    0.2230 O   0  0  0  0  0  0  0  0  0  0  0  0
   -0.2420   -0.9740    0.1800 C   0  0  0  0  0  0  0  0  0  0  0  0
    0.9800   -1.7970    0.3530 C   0  0  0  0  0  0  0  0  0  0  0  0
    2.1830   -1.0680    0.5700 N   0  0  2  0  0  0  0  0  0  0  0  0
    2.1570   -0.3120    1.7840 C   0  0  0  0  0  0  0  0  0  0  0  0
    2.9480    0.9280    1.5410 C   0  0  2  0  0  0  0  0  0  0  0  0
    2.1510    2.0810    1.5590 O   0  0  0  0  0  0  0  0  0  0  0  0
    3.5690    0.7170    0.1810 C   0  0  1  0  0  0  0  0  0  0  0  0
    4.9050    0.2200    0.2470 N   0  0  0  0  0  0  0  0  0  0  0  0
    6.0350    0.8460   -0.2900 C   0  0  0  0  0  0  0  0  0  0  0  0
    5.8690    1.9420   -0.8850 O   0  0  0  0  0  0  0  0  0  0  0  0
    7.3780    0.2930   -0.1940 C   0  0  0  0  0  0  0  0  0  0  0  0
    7.9150   -0.8230    0.3530 C   0  0  0  0  0  0  0  0  0  0  0  0
    9.2350   -1.0300    0.2540 C   0  0  0  0  0  0  0  0  0  0  0  0
   10.0510   -0.1790   -0.3630 C   0  0  0  0  0  0  0  0  0  0  0  0
   11.7330   -0.1050   -0.6820 Cl  0  0  0  0  0  0  0  0  0  0  0  0
    8.8590    1.1490   -0.9210 S   0  0  0  0  0  0  0  0  0  0  0  0
    2.6240   -0.2470   -0.5170 C   0  0  0  0  0  0  0  0  0  0  0  0
   -1.5160   -1.5630   -0.0390 N   0  0  0  0  0  0  0  0  0  0  0  0
   -2.7410   -0.8990   -0.2200 C   0  0  0  0  0  0  0  0  0  0  0  0
   -2.9800    0.4300   -0.2440 C   0  0  0  0  0  0  0  0  0  0  0  0
   -4.2610    0.9620   -0.4440 C   0  0  0  0  0  0  0  0  0  0  0  0
   -5.3410    0.1410   -0.6270 C   0  0  0  0  0  0  0  0  0  0  0  0
   -6.6230    0.6950   -0.8280 N   0  0  0  0  0  0  0  0  0  0  0  0
   -7.4200    0.1230   -1.7490 C   0  0  0  0  0  0  0  0  0  0  0  0
   -8.6940    0.5760   -2.0300 C   0  0  0  0  0  0  0  0  0  0  0  0
   -9.1990    1.6720   -1.3450 C   0  0  0  0  0  0  0  0  0  0  0  0
   -8.3830    2.2540   -0.4060 C   0  0  0  0  0  0  0  0  0  0  0  0
   -7.1180    1.7540   -0.1690 C   0  0  0  0  0  0  0  0  0  0  0  0
   -6.4170    2.3120    0.6880 O   0  0  0  0  0  0  0  0  0  0  0  0
   -5.1260   -1.2430   -0.6080 C   0  0  0  0  0  0  0  0  0  0  0  0
   -3.8560   -1.7280   -0.4090 C   0  0  0  0  0  0  0  0  0  0  0  0
   -3.7340   -3.0890   -0.4060 F   0  0  0  0  0  0  0  0  0  0  0  0
  1  2  2  0
  2  3  1  0
  2 19  1  0
  4  3  1  6
  4  5  1  0
  4 18  1  0
  5  6  1  0
  6  7  1  6
  6  8  1  0
  8  9  1  1
  8 18  1  0
  9 10  1  0
 10 11  2  0
 10 12  1  0
 12 13  2  0
 12 17  1  0
 13 14  1  0
 14 15  2  0
 15 16  1  0
 15 17  1  0
 19 20  1  0
 20 21  2  0
 20 32  1  0
 21 22  1  0
 22 23  2  0
 23 24  1  0
 23 31  1  0
 24 25  1  0
 24 29  1  0
 25 26  2  0
 26 27  1  0
 27 28  2  0
 28 29  1  0
 29 30  2  0
 31 32  2  0
 32 33  1  0
M  CHG  1   4   1
M  END
