
     RDKit          3D

 33 36  0  0  0  0  0  0  0  0999 V2000
   -1.9170    2.3350   -0.1420 C   0  0  0  0  0  0  0  0  0  0  0  0
   -2.6520    1.0490   -0.3620 C   0  0  0  0  0  0  0  0  0  0  0  0
   -2.1650   -0.2180   -0.1430 C   0  0  0  0  0  0  0  0  0  0  0  0
   -0.8260   -0.6700    0.1230 C   0  0  0  0  0  0  0  0  0  0  0  0
    0.3000   -0.0070    0.0400 C   0  0  0  0  0  0  0  0  0  0  0  0
    1.6160   -0.5610    0.3390 C   0  0  0  0  0  0  0  0  0  0  0  0
    1.7610   -1.8610    0.7380 C   0  0  0  0  0  0  0  0  0  0  0  0
    3.0150   -2.3540    1.0130 N   0  0  0  0  0  0  0  0  0  0  0  0
    4.0910   -1.5630    0.8900 C   0  0  0  0  0  0  0  0  0  0  0  0
    5.2610   -1.9550    1.1260 O   0  0  0  0  0  0  0  0  0  0  0  0
    3.9690   -0.2730    0.4960 N   0  0  0  0  0  0  0  0  0  0  0  0
    5.1280    0.5450    0.3750 C   0  0  1  0  0  0  0  0  0  0  0  0
    5.8670    0.7630    1.6630 C   0  0  0  0  0  0  0  0  0  0  0  0
    6.9900    1.7620    1.3510 C   0  0  0  0  0  0  0  0  0  0  0  0
    7.9650    1.1790    0.3580 C   0  0  0  0  0  0  0  0  0  0  0  0
    7.4700   -0.0720   -0.2930 C   0  0  0  0  0  0  0  0  0  0  0  0
    6.0340   -0.0350   -0.6950 C   0  0  0  0  0  0  0  0  0  0  0  0
    2.7620    0.2400    0.2200 C   0  0  0  0  0  0  0  0  0  0  0  0
   -3.2510   -1.0830   -0.3350 C   0  0  0  0  0  0  0  0  0  0  0  0
   -3.2530   -2.5090   -0.2170 N   0  0  0  0  0  0  0  0  0  0  0  0
   -2.4120   -3.3320   -1.0380 C   0  0  0  0  0  0  0  0  0  0  0  0
   -4.1100   -3.1420    0.7400 C   0  0  0  0  0  0  0  0  0  0  0  0
   -5.3640   -2.7760    0.8470 C   0  0  0  0  0  0  0  0  0  0  0  0
   -6.2340   -3.4510    1.8500 C   0  0  0  0  0  0  0  0  0  0  0  0
   -6.7040   -2.4920    2.7380 F   0  0  0  0  0  0  0  0  0  0  0  0
   -4.2820   -0.3150   -0.6500 N   0  0  0  0  0  0  0  0  0  0  0  0
   -3.9300    0.9950   -0.6740 N   0  0  0  0  0  0  0  0  0  0  0  0
   -4.8460    2.0140   -1.1160 C   0  0  0  0  0  0  0  0  0  0  0  0
   -6.1770    1.7930   -1.0810 C   0  0  0  0  0  0  0  0  0  0  0  0
   -6.8640    2.9870   -1.5900 C   0  0  0  0  0  0  0  0  0  0  0  0
   -5.7960    3.9180   -1.9620 C   0  0  0  0  0  0  0  0  0  0  0  0
   -4.6270    3.3270   -1.6720 C   0  0  0  0  0  0  0  0  0  0  0  0
   -3.4300    3.9010   -1.9330 F   0  0  0  0  0  0  0  0  0  0  0  0
  1  2  1  0
  2  3  2  0
  2 27  1  0
  3  4  1  0
  3 19  1  0
  4  5  2  3
  5  6  1  0
  6  7  1  0
  6 18  2  0
  7  8  2  0
  8  9  1  0
  9 10  2  0
  9 11  1  0
 12 11  1  1
 11 18  1  0
 12 13  1  0
 12 17  1  0
 13 14  1  0
 14 15  1  0
 15 16  1  0
 16 17  1  0
 19 20  1  0
 19 26  2  0
 20 21  1  0
 20 22  1  0
 22 23  2  3
 23 24  1  0
 24 25  1  0
 26 27  1  0
 27 28  1  0
 28 29  2  0
 28 32  1  0
 29 30  1  0
 30 31  1  0
 31 32  2  0
 32 33  1  0
M  END
