
     RDKit          3D

 33 35  0  0  0  0  0  0  0  0999 V2000
    9.2000    0.0230    0.9230 C   0  0  0  0  0  0  0  0  0  0  0  0
    7.8290    0.2240    0.3660 C   0  0  0  0  0  0  0  0  0  0  0  0
    7.6610   -0.3580   -1.0360 C   0  0  2  0  0  0  0  0  0  0  0  0
    8.6260    0.3050   -1.9660 C   0  0  0  0  0  0  0  0  0  0  0  0
    6.2440   -0.1850   -1.4270 C   0  0  0  0  0  0  0  0  0  0  0  0
    5.5360   -1.2320   -1.6220 O   0  0  0  0  0  0  0  0  0  0  0  0
    5.6430    1.0480   -1.5890 O   0  0  0  0  0  0  0  0  0  0  0  0
    4.2510    1.0770   -1.9560 C   0  0  0  0  0  0  0  0  0  0  0  0
    3.4980    0.3930   -0.8420 C   0  0  0  0  0  0  0  0  0  0  0  0
    3.0790   -0.8590   -0.7210 N   0  0  0  0  0  0  0  0  0  0  0  0
    2.4480   -1.0540    0.4730 N   0  0  0  0  0  0  0  0  0  0  0  0
    1.8630   -2.3210    0.8600 C   0  0  0  0  0  0  0  0  0  0  0  0
    0.5530   -2.6290    0.2620 C   0  0  0  0  0  0  0  0  0  0  0  0
   -0.5250   -1.6960    0.6190 C   0  0  0  0  0  0  0  0  0  0  0  0
   -0.3750   -0.7410    1.3750 O   0  0  0  0  0  0  0  0  0  0  0  0
   -1.8300   -1.8950    0.0660 N   0  0  0  0  0  0  0  0  0  0  0  0
   -2.9780   -1.1760    0.2480 N   0  0  0  0  0  0  0  0  0  0  0  0
   -3.2400   -0.0950    1.1010 C   0  0  0  0  0  0  0  0  0  0  0  0
   -2.3860    0.3700    1.8450 O   0  0  0  0  0  0  0  0  0  0  0  0
   -4.5750    0.4940    1.1020 C   0  0  0  0  0  0  0  0  0  0  0  0
   -5.6710    0.0620    0.3870 C   0  0  0  0  0  0  0  0  0  0  0  0
   -6.7630    0.8910    0.6540 C   0  0  0  0  0  0  0  0  0  0  0  0
   -8.1000    0.7400    0.0860 C   0  0  0  0  0  0  0  0  0  0  0  0
   -8.4790   -0.2140   -0.7460 C   0  0  0  0  0  0  0  0  0  0  0  0
   -9.9090   -0.0490   -1.1130 C   0  0  0  0  0  0  0  0  0  0  0  0
  -10.3030    1.1680   -0.3530 C   0  0  0  0  0  0  0  0  0  0  0  0
   -9.2370    1.5960    0.3270 C   0  0  0  0  0  0  0  0  0  0  0  0
   -9.2240    2.7430    1.1710 N   0  0  0  0  0  0  0  0  0  0  0  0
   -6.2950    1.7980    1.5190 N   0  0  0  0  0  0  0  0  0  0  0  0
   -5.0050    1.5730    1.7920 N   0  0  0  0  0  0  0  0  0  0  0  0
    2.4950    0.1240    1.0830 C   0  0  0  0  0  0  0  0  0  0  0  0
    2.0580    0.4570    2.2070 O   0  0  0  0  0  0  0  0  0  0  0  0
    3.1280    1.0080    0.2940 N   0  0  0  0  0  0  0  0  0  0  0  0
  1  2  1  0
  2  3  1  0
  3  4  1  6
  3  5  1  0
  5  6  2  0
  5  7  1  0
  7  8  1  0
  8  9  1  0
  9 10  2  0
  9 33  1  0
 10 11  1  0
 11 12  1  0
 11 31  1  0
 12 13  1  0
 13 14  1  0
 14 15  2  0
 14 16  1  0
 16 17  1  0
 17 18  1  0
 18 19  2  0
 18 20  1  0
 20 21  2  0
 20 30  1  0
 21 22  1  0
 22 23  1  0
 22 29  2  0
 23 24  2  0
 23 27  1  0
 24 25  1  0
 25 26  1  0
 26 27  2  0
 27 28  1  0
 29 30  1  0
 31 32  2  0
 31 33  1  0
M  END
