
     RDKit          3D

 33 35  0  0  0  0  0  0  0  0999 V2000
   -0.3180    5.2260    0.8010 N   0  0  0  0  0  0  0  0  0  0  0  0
   -0.6570    4.2840   -0.1970 C   0  0  0  0  0  0  0  0  0  0  0  0
   -1.2860    4.6640   -1.2230 O   0  0  0  0  0  0  0  0  0  0  0  0
   -0.3300    2.9020   -0.1270 N   0  0  0  0  0  0  0  0  0  0  0  0
   -0.7090    1.9980   -1.1860 C   0  0  0  0  0  0  0  0  0  0  0  0
   -0.2120    0.6290   -0.7940 C   0  0  0  0  0  0  0  0  0  0  0  0
   -1.0320   -0.3610   -0.6430 C   0  0  0  0  0  0  0  0  0  0  0  0
   -2.4300   -0.1410   -0.8540 N   0  0  0  0  0  0  0  0  0  0  0  0
   -3.2850    0.3440    0.2070 C   0  0  0  0  0  0  0  0  0  0  0  0
   -4.6840    0.4860   -0.2710 C   0  0  0  0  0  0  0  0  0  0  0  0
   -4.9800    0.1970   -1.4600 O   0  0  0  0  0  0  0  0  0  0  0  0
   -5.7070    0.9460    0.5890 N   0  0  0  0  0  0  0  0  0  0  0  0
   -7.0740    1.1090    0.2050 C   0  0  0  0  0  0  0  0  0  0  0  0
   -7.6930   -0.1720   -0.2540 C   0  0  0  0  0  0  0  0  0  0  0  0
   -8.3400   -1.0620    0.5680 C   0  0  0  0  0  0  0  0  0  0  0  0
   -8.7640   -2.1050   -0.2260 C   0  0  0  0  0  0  0  0  0  0  0  0
   -8.3530   -1.8020   -1.5110 C   0  0  0  0  0  0  0  0  0  0  0  0
   -7.7230   -0.6470   -1.4760 O   0  0  0  0  0  0  0  0  0  0  0  0
    1.2260    0.4870   -0.5970 C   0  0  0  0  0  0  0  0  0  0  0  0
    1.9730    1.5190   -0.7670 O   0  0  0  0  0  0  0  0  0  0  0  0
    1.8290   -0.7240   -0.2320 N   0  0  0  0  0  0  0  0  0  0  0  0
    3.1970   -0.9370   -0.0190 C   0  0  0  0  0  0  0  0  0  0  0  0
    3.6950   -2.2520    0.0790 C   0  0  0  0  0  0  0  0  0  0  0  0
    4.9950   -2.4480    0.2980 N   0  0  0  0  0  0  0  0  0  0  0  0
    5.8780   -1.4680    0.4340 C   0  0  0  0  0  0  0  0  0  0  0  0
    7.2920   -1.7350    0.6720 C   0  0  0  0  0  0  0  0  0  0  0  0
    8.2730   -0.7520    0.8240 C   0  0  0  0  0  0  0  0  0  0  0  0
    9.4730   -1.3860    1.0310 C   0  0  0  0  0  0  0  0  0  0  0  0
    9.2010   -2.7340    1.0010 C   0  0  0  0  0  0  0  0  0  0  0  0
   10.1430   -3.7800    1.1700 N   0  0  0  0  0  0  0  0  0  0  0  0
    7.8990   -2.8750    0.7860 O   0  0  0  0  0  0  0  0  0  0  0  0
    5.4440   -0.2100    0.3470 N   0  0  0  0  0  0  0  0  0  0  0  0
    4.1220    0.0500    0.1240 C   0  0  0  0  0  0  0  0  0  0  0  0
  1  2  1  0
  2  3  2  0
  2  4  1  0
  4  5  1  0
  5  6  1  0
  6  7  2  3
  6 19  1  0
  7  8  1  0
  8  9  1  0
  9 10  1  0
 10 11  2  0
 10 12  1  0
 12 13  1  0
 13 14  1  0
 14 15  2  0
 14 18  1  0
 15 16  1  0
 16 17  2  0
 17 18  1  0
 19 20  2  0
 19 21  1  0
 21 22  1  0
 22 23  2  0
 22 33  1  0
 23 24  1  0
 24 25  2  0
 25 26  1  0
 25 32  1  0
 26 27  2  0
 26 31  1  0
 27 28  1  0
 28 29  2  0
 29 30  1  0
 29 31  1  0
 32 33  2  0
M  END
