
     RDKit          3D

 12 11  0  0  0  0  0  0  0  0999 V2000
   -3.3640    1.1310   -0.0820 C   0  0  0  0  0  0  0  0  0  0  0  0
   -3.0040   -0.3160    0.0860 C   0  0  0  0  0  0  0  0  0  0  0  0
   -1.5100   -0.5030    0.2760 C   0  0  0  0  0  0  0  0  0  0  0  0
   -0.7400   -0.0310   -0.8240 N   0  0  0  0  0  0  0  0  0  0  0  0
    0.6620   -0.1940   -0.6720 C   0  0  2  0  0  0  0  0  0  0  0  0
    1.0930   -1.6320   -0.5220 C   0  0  0  0  0  0  0  0  0  0  0  0
    2.4790   -1.6820   -0.3790 O   0  0  0  0  0  0  0  0  0  0  0  0
    1.2130    0.6500    0.3990 C   0  0  0  0  0  0  0  0  0  0  0  0
    0.5060    1.4160    1.0260 O   0  0  0  0  0  0  0  0  0  0  0  0
    2.9860    0.6210    0.8760 P   0  0  0  0  0  0  0  0  0  0  0  0
    3.4140    1.9920    1.8280 O   0  0  0  0  0  0  0  0  0  0  0  0
    4.0150    0.4490   -0.5070 O   0  0  0  0  0  0  0  0  0  0  0  0
  1  2  1  0
  2  3  1  0
  3  4  1  0
  4  5  1  0
  5  6  1  1
  5  8  1  0
  6  7  1  0
  8  9  2  0
  8 10  1  0
 10 11  1  0
 10 12  1  0
M  END
