
     RDKit          3D

 13 12  0  0  0  0  0  0  0  0999 V2000
   -4.0420    1.2180    0.0230 C   0  0  0  0  0  0  0  0  0  0  0  0
   -2.9620    0.3830    0.5050 O   0  0  0  0  0  0  0  0  0  0  0  0
   -2.5080   -0.6640   -0.2650 C   0  0  0  0  0  0  0  0  0  0  0  0
   -3.0840   -0.8390   -1.3770 O   0  0  0  0  0  0  0  0  0  0  0  0
   -1.4000   -1.5700    0.1300 C   0  0  0  0  0  0  0  0  0  0  0  0
   -0.1690   -1.2780   -0.7280 C   0  0  2  0  0  0  0  0  0  0  0  0
    0.8110   -2.1730   -0.3250 O   0  0  0  0  0  0  0  0  0  0  0  0
    0.2570    0.0650   -0.6040 N   0  0  0  0  0  0  0  0  0  0  0  0
    0.7670    0.5070    0.6470 C   0  0  0  0  0  0  0  0  0  0  0  0
    2.1750   -0.0180    0.9530 C   0  0  0  0  0  0  0  0  0  0  0  0
    3.2780    0.6300   -0.4130 P   0  0  0  0  0  0  0  0  0  0  0  0
    4.9100    0.1040   -0.1070 O   0  0  0  0  0  0  0  0  0  0  0  0
    3.2360    2.3710   -0.3250 O   0  0  0  0  0  0  0  0  0  0  0  0
  1  2  1  0
  2  3  1  0
  3  4  2  0
  3  5  1  0
  5  6  1  0
  6  7  1  1
  6  8  1  0
  8  9  1  0
  9 10  1  0
 10 11  1  0
 11 12  1  0
 11 13  1  0
M  END
