
     RDKit          3D

 13 12  0  0  0  0  0  0  0  0999 V2000
   -4.7080   -1.0150    1.1190 C   0  0  0  0  0  0  0  0  0  0  0  0
   -3.7160   -0.2880    0.3950 O   0  0  0  0  0  0  0  0  0  0  0  0
   -2.4030   -0.2180    0.7750 C   0  0  0  0  0  0  0  0  0  0  0  0
   -2.0280   -0.8210    1.8150 O   0  0  0  0  0  0  0  0  0  0  0  0
   -1.3970    0.5630   -0.0240 C   0  0  1  0  0  0  0  0  0  0  0  0
   -1.9150    1.9890   -0.1120 C   0  0  0  0  0  0  0  0  0  0  0  0
   -0.1420    0.4950    0.5390 O   0  0  0  0  0  0  0  0  0  0  0  0
    0.7500   -0.0040   -0.3610 C   0  0  0  0  0  0  0  0  0  0  0  0
    2.1060   -0.1100    0.1500 N   0  0  0  0  0  0  0  0  0  0  0  0
    2.8650   -0.6620   -0.9810 C   0  0  0  0  0  0  0  0  0  0  0  0
    4.6390   -0.8960   -0.5880 P   0  0  0  0  0  0  0  0  0  0  0  0
    5.4480    0.6180   -0.9080 O   0  0  0  0  0  0  0  0  0  0  0  0
    4.8060   -1.2130    1.1040 O   0  0  0  0  0  0  0  0  0  0  0  0
  1  2  1  0
  2  3  1  0
  3  4  2  0
  3  5  1  0
  5  6  1  1
  5  7  1  0
  7  8  1  0
  8  9  1  0
  9 10  1  0
 10 11  1  0
 11 12  1  0
 11 13  1  0
M  END
