
     RDKit          3D

 13 12  0  0  0  0  0  0  0  0999 V2000
    3.8330    0.7190    0.9020 C   0  0  0  0  0  0  0  0  0  0  0  0
    2.4580    0.3790    0.7580 O   0  0  0  0  0  0  0  0  0  0  0  0
    2.1080   -0.3320   -0.3750 C   0  0  0  0  0  0  0  0  0  0  0  0
    2.9820   -0.6570   -1.2270 O   0  0  0  0  0  0  0  0  0  0  0  0
    0.7080   -0.7590   -0.6730 C   0  0  0  0  0  0  0  0  0  0  0  0
   -0.1860   -0.4350    0.3340 N   0  0  0  0  0  0  0  0  0  0  0  0
   -0.0930   -1.1330    1.5360 C   0  0  0  0  0  0  0  0  0  0  0  0
   -1.4070    0.1700    0.0140 C   0  0  2  0  0  0  0  0  0  0  0  0
   -2.3030   -0.6780   -0.8740 C   0  0  0  0  0  0  0  0  0  0  0  0
   -2.6320   -1.8750   -0.2660 O   0  0  0  0  0  0  0  0  0  0  0  0
   -1.2100    1.8720   -0.7300 P   0  0  0  0  0  0  0  0  0  0  0  0
   -1.8460    3.0730    0.3500 O   0  0  0  0  0  0  0  0  0  0  0  0
   -2.0000    1.9230   -2.2750 O   0  0  0  0  0  0  0  0  0  0  0  0
  1  2  1  0
  2  3  1  0
  3  4  2  0
  3  5  1  0
  5  6  1  0
  6  7  1  0
  6  8  1  0
  8  9  1  6
  8 11  1  0
  9 10  1  0
 11 12  1  0
 11 13  1  0
M  END
