
     RDKit          3D

 13 12  0  0  0  0  0  0  0  0999 V2000
    3.4190    0.4770    0.9900 C   0  0  0  0  0  0  0  0  0  0  0  0
    2.0960    0.6030    0.2690 C   0  0  0  0  0  0  0  0  0  0  0  0
    2.0190   -0.2350   -0.8290 O   0  0  0  0  0  0  0  0  0  0  0  0
    0.8520   -0.0870   -1.4200 O   0  0  0  0  0  0  0  0  0  0  0  0
   -0.3530    0.1080   -0.7550 C   0  0  0  0  0  0  0  0  0  0  0  0
   -0.9660    1.4280   -0.8080 C   0  0  0  0  0  0  0  0  0  0  0  0
   -2.0890    1.6860   -0.2130 N   0  0  0  0  0  0  0  0  0  0  0  0
   -2.6740    2.9250   -0.2570 O   0  0  0  0  0  0  0  0  0  0  0  0
   -2.0840    4.0270    0.1990 O   0  0  0  0  0  0  0  0  0  0  0  0
   -0.9490   -0.8570   -0.0840 C   0  0  0  0  0  0  0  0  0  0  0  0
   -0.2940   -2.1870   -0.0530 C   0  0  0  0  0  0  0  0  0  0  0  0
   -1.3660   -3.5070   -0.7810 P   0  0  0  0  0  0  0  0  0  0  0  0
   -2.9060   -3.5120   -0.0110 O   0  0  0  0  0  0  0  0  0  0  0  0
  1  2  1  0
  2  3  1  0
  3  4  1  0
  4  5  1  0
  5  6  1  0
  5 10  2  3
  6  7  2  3
  7  8  1  0
  8  9  1  0
 10 11  1  0
 11 12  1  0
 12 13  1  0
M  END
