
     RDKit          3D

 13 12  0  0  0  0  0  0  0  0999 V2000
   -2.6840    1.9090    0.6200 C   0  0  0  0  0  0  0  0  0  0  0  0
   -1.7970    1.4310   -0.3190 O   0  0  0  0  0  0  0  0  0  0  0  0
   -1.1320   -0.1150    0.1600 P   0  0  0  0  0  0  0  0  0  0  0  0
    0.6130   -0.1520   -0.5360 C   0  0  0  0  0  0  0  0  0  0  0  0
    1.4880    0.5740    0.3650 N   0  0  0  0  0  0  0  0  0  0  0  0
    0.9850    1.9340    0.4570 C   0  0  0  0  0  0  0  0  0  0  0  0
    2.8310    0.6220   -0.1710 C   0  0  0  0  0  0  0  0  0  0  0  0
    3.5200   -0.6750   -0.1930 C   0  0  0  0  0  0  0  0  0  0  0  0
    4.6600   -0.7770   -0.6810 O   0  0  0  0  0  0  0  0  0  0  0  0
    2.9040   -1.7900    0.3310 O   0  0  0  0  0  0  0  0  0  0  0  0
   -2.0440   -1.3110   -0.7080 O   0  0  0  0  0  0  0  0  0  0  0  0
   -2.4330   -2.3620    0.1120 C   0  0  0  0  0  0  0  0  0  0  0  0
   -3.1520   -3.2610   -0.6700 O   0  0  0  0  0  0  0  0  0  0  0  0
  1  2  1  0
  2  3  1  0
  3  4  1  0
  3 11  1  0
  4  5  1  0
  5  6  1  0
  5  7  1  0
  7  8  1  0
  8  9  2  0
  8 10  1  0
 11 12  1  0
 12 13  1  0
M  END
