
     RDKit          3D

 23 26  0  0  0  0  0  0  0  0999 V2000
    2.8850   -1.4930   -2.2560 C   0  0  0  0  0  0  0  0  0  0  0  0
    3.4900   -0.5690   -1.2840 C   0  0  0  0  0  0  0  0  0  0  0  0
    4.6930    0.0880   -1.5540 C   0  0  0  0  0  0  0  0  0  0  0  0
    5.2380    0.9490   -0.6280 C   0  0  0  0  0  0  0  0  0  0  0  0
    4.5970    1.1620    0.5690 C   0  0  0  0  0  0  0  0  0  0  0  0
    3.3920    0.5100    0.8520 C   0  0  0  0  0  0  0  0  0  0  0  0
    2.7760    0.7270    2.0240 N   0  0  0  0  0  0  0  0  0  0  0  0
    1.6170    0.1140    2.3230 C   0  0  0  0  0  0  0  0  0  0  0  0
    1.0730    0.3550    3.4560 O   0  0  0  0  0  0  0  0  0  0  0  0
    1.0650   -0.7350    1.4230 N   0  0  0  0  0  0  0  0  0  0  0  0
   -0.1650   -1.4030    1.7130 C   0  0  0  0  0  0  0  0  0  0  0  0
   -1.3950   -0.6850    1.3130 C   0  0  0  0  0  0  0  0  0  0  0  0
   -2.0350    0.1780    2.2160 C   0  0  0  0  0  0  0  0  0  0  0  0
   -3.1820    0.8650    1.8840 C   0  0  0  0  0  0  0  0  0  0  0  0
   -3.7430    0.7160    0.6210 C   0  0  0  0  0  0  0  0  0  0  0  0
   -3.1340   -0.1230   -0.2780 C   0  0  0  0  0  0  0  0  0  0  0  0
   -1.9730   -0.8150    0.0670 C   0  0  0  0  0  0  0  0  0  0  0  0
   -3.9170   -0.1150   -1.5670 C   0  0  0  0  0  0  0  0  0  0  0  0
   -4.6030    1.2510   -1.4850 C   0  0  0  0  0  0  0  0  0  0  0  0
   -4.9320    1.2950   -0.0110 C   0  0  0  0  0  0  0  0  0  0  0  0
    1.6690   -0.9720    0.2310 C   0  0  0  0  0  0  0  0  0  0  0  0
    1.1190   -1.7740   -0.5770 O   0  0  0  0  0  0  0  0  0  0  0  0
    2.8530   -0.3470   -0.0770 C   0  0  0  0  0  0  0  0  0  0  0  0
  1  2  1  0
  2  3  2  0
  2 23  1  0
  3  4  1  0
  4  5  2  0
  5  6  1  0
  6  7  1  0
  6 23  2  0
  7  8  1  0
  8  9  2  0
  8 10  1  0
 10 11  1  0
 10 21  1  0
 11 12  1  0
 12 13  2  0
 12 17  1  0
 13 14  1  0
 14 15  2  0
 15 16  1  0
 15 20  1  0
 16 17  2  0
 16 18  1  0
 18 19  1  0
 19 20  1  0
 21 22  2  0
 21 23  1  0
M  END
