
     RDKit          3D

 22 25  0  0  0  0  0  0  0  0999 V2000
   -4.4560    1.0070   -1.5970 C   0  0  0  0  0  0  0  0  0  0  0  0
   -3.7930    1.4880   -0.3450 C   0  0  2  0  0  0  0  0  0  0  0  0
   -2.3710    1.0630   -0.2440 C   0  0  0  0  0  0  0  0  0  0  0  0
   -2.1150   -0.2000   -0.0090 C   0  0  0  0  0  0  0  0  0  0  0  0
   -0.7520   -0.7590    0.1170 C   0  0  0  0  0  0  0  0  0  0  0  0
    0.3560    0.0390   -0.0100 C   0  0  0  0  0  0  0  0  0  0  0  0
    1.6210   -0.5080    0.1110 C   0  0  0  0  0  0  0  0  0  0  0  0
    1.7440   -1.8570    0.3590 C   0  0  0  0  0  0  0  0  0  0  0  0
    0.6370   -2.6490    0.4850 N   0  0  0  0  0  0  0  0  0  0  0  0
   -0.5760   -2.1030    0.3650 C   0  0  0  0  0  0  0  0  0  0  0  0
   -1.6010   -2.8260    0.4790 O   0  0  0  0  0  0  0  0  0  0  0  0
    3.0400   -2.4120    0.4820 N   0  0  0  0  0  0  0  0  0  0  0  0
    4.2450   -1.6660    0.3670 C   0  0  0  0  0  0  0  0  0  0  0  0
    4.0400   -0.2380    0.1030 C   0  0  0  0  0  0  0  0  0  0  0  0
    5.1820    0.5660   -0.0240 C   0  0  0  0  0  0  0  0  0  0  0  0
    5.0790    1.9150   -0.2710 C   0  0  0  0  0  0  0  0  0  0  0  0
    3.8100    2.4730   -0.3950 C   0  0  0  0  0  0  0  0  0  0  0  0
    2.6680    1.7100   -0.2750 C   0  0  0  0  0  0  0  0  0  0  0  0
    2.7890    0.3540   -0.0260 C   0  0  0  0  0  0  0  0  0  0  0  0
   -3.2280   -1.0390    0.1260 O   0  0  0  0  0  0  0  0  0  0  0  0
   -4.4760   -0.6400    0.6110 C   0  0  0  0  0  0  0  0  0  0  0  0
   -4.5350    0.8420    0.8320 C   0  0  0  0  0  0  0  0  0  0  0  0
  2  1  1  6
  2  3  1  0
  2 22  1  0
  3  4  2  0
  4  5  1  0
  4 20  1  0
  5  6  2  0
  5 10  1  0
  6  7  1  0
  7  8  2  0
  7 19  1  0
  8  9  1  0
  8 12  1  0
  9 10  1  0
 10 11  2  0
 12 13  1  0
 13 14  1  0
 14 15  2  0
 14 19  1  0
 15 16  1  0
 16 17  2  0
 17 18  1  0
 18 19  2  0
 20 21  1  0
 21 22  1  0
M  END
