
     RDKit          3D

 23 26  0  0  0  0  0  0  0  0999 V2000
   -4.7260   -1.3140   -1.9950 C   0  0  0  0  0  0  0  0  0  0  0  0
   -3.5080   -0.7930   -1.3220 C   0  0  0  0  0  0  0  0  0  0  0  0
   -3.6550   -0.1010   -0.2200 C   0  0  0  0  0  0  0  0  0  0  0  0
   -5.0460    0.1290    0.3020 C   0  0  0  0  0  0  0  0  0  0  0  0
   -2.5650    0.4550    0.5410 C   0  0  1  0  0  0  0  0  0  0  0  0
   -2.6200    0.0330    2.0060 C   0  0  0  0  0  0  0  0  0  0  0  0
   -1.2410    0.2180   -0.0390 C   0  0  0  0  0  0  0  0  0  0  0  0
   -0.1040    0.7550    0.6270 C   0  0  0  0  0  0  0  0  0  0  0  0
    1.1590    0.5630    0.1400 C   0  0  0  0  0  0  0  0  0  0  0  0
    1.3000   -0.1680   -1.0210 C   0  0  0  0  0  0  0  0  0  0  0  0
    0.2020   -0.6920   -1.6740 C   0  0  0  0  0  0  0  0  0  0  0  0
   -1.0800   -0.5010   -1.1850 C   0  0  0  0  0  0  0  0  0  0  0  0
   -2.2160   -1.0330   -1.8670 N   0  0  0  0  0  0  0  0  0  0  0  0
    2.5530   -0.4770   -1.6890 C   0  0  0  0  0  0  0  0  0  0  0  0
    2.4370   -1.1270   -2.7450 O   0  0  0  0  0  0  0  0  0  0  0  0
    3.8970   -0.1420   -1.3070 N   0  0  0  0  0  0  0  0  0  0  0  0
    4.3190    0.3270   -0.0140 C   0  0  0  0  0  0  0  0  0  0  0  0
    5.6750    0.1220    0.1410 C   0  0  0  0  0  0  0  0  0  0  0  0
    6.2480    0.5160    1.3320 C   0  0  0  0  0  0  0  0  0  0  0  0
    5.4740    1.0940    2.3200 C   0  0  0  0  0  0  0  0  0  0  0  0
    4.1120    1.2920    2.1440 C   0  0  0  0  0  0  0  0  0  0  0  0
    3.5290    0.9010    0.9580 C   0  0  0  0  0  0  0  0  0  0  0  0
    2.1480    1.1670    0.9340 O   0  0  0  0  0  0  0  0  0  0  0  0
  1  2  1  0
  2  3  2  0
  2 13  1  0
  3  4  1  0
  3  5  1  0
  5  6  1  1
  5  7  1  0
  7  8  2  0
  7 12  1  0
  8  9  1  0
  9 10  2  0
  9 23  1  0
 10 11  1  0
 10 14  1  0
 11 12  2  0
 12 13  1  0
 14 15  2  0
 14 16  1  0
 16 17  1  0
 17 18  2  0
 17 22  1  0
 18 19  1  0
 19 20  2  0
 20 21  1  0
 21 22  2  0
 22 23  1  0
M  END
