
     RDKit          3D

 23 25  0  0  0  0  0  0  0  0999 V2000
    4.0350    1.2560   -2.7600 C   0  0  0  0  0  0  0  0  0  0  0  0
    3.3170    0.8750   -1.5150 C   0  0  0  0  0  0  0  0  0  0  0  0
    2.0000    1.2240   -1.3320 C   0  0  0  0  0  0  0  0  0  0  0  0
    1.3060    0.8720   -0.1610 C   0  0  0  0  0  0  0  0  0  0  0  0
    1.9330    0.1660    0.8370 C   0  0  0  0  0  0  0  0  0  0  0  0
    3.2670   -0.1800    0.6380 C   0  0  0  0  0  0  0  0  0  0  0  0
    3.9080   -0.9500    1.7540 C   0  0  0  0  0  0  0  0  0  0  0  0
    3.9310    0.1680   -0.5060 C   0  0  0  0  0  0  0  0  0  0  0  0
    5.3390   -0.2300   -0.6500 C   0  0  0  0  0  0  0  0  0  0  0  0
    1.2200   -0.2200    2.0820 C   0  0  0  0  0  0  0  0  0  0  0  0
   -0.1960   -0.5890    1.6110 C   0  0  0  0  0  0  0  0  0  0  0  0
   -0.7980    0.7490    1.1900 C   0  0  2  0  0  0  0  0  0  0  0  0
   -2.2800    0.6110    1.0070 C   0  0  0  0  0  0  0  0  0  0  0  0
   -2.9970    1.3370    1.7220 O   0  0  0  0  0  0  0  0  0  0  0  0
   -2.8200   -0.2840    0.0820 N   0  0  0  0  0  0  0  0  0  0  0  0
   -4.1790   -0.4880   -0.1650 C   0  0  0  0  0  0  0  0  0  0  0  0
   -5.1840    0.1710    0.4740 C   0  0  0  0  0  0  0  0  0  0  0  0
   -6.5290   -0.0950    0.1640 C   0  0  0  0  0  0  0  0  0  0  0  0
   -6.8290   -1.0190   -0.7820 C   0  0  0  0  0  0  0  0  0  0  0  0
   -5.8310   -1.6570   -1.4000 N   0  0  0  0  0  0  0  0  0  0  0  0
   -4.5360   -1.4340   -1.1360 C   0  0  0  0  0  0  0  0  0  0  0  0
   -3.6070   -2.0370   -1.7200 O   0  0  0  0  0  0  0  0  0  0  0  0
   -0.1150    1.2740   -0.0110 C   0  0  0  0  0  0  0  0  0  0  0  0
  1  2  1  0
  2  3  2  0
  2  8  1  0
  3  4  1  0
  4  5  2  0
  4 23  1  0
  5  6  1  0
  5 10  1  0
  6  7  1  0
  6  8  2  0
  8  9  1  0
 10 11  1  0
 11 12  1  0
 12 13  1  6
 12 23  1  0
 13 14  2  0
 13 15  1  0
 15 16  1  0
 16 17  2  0
 16 21  1  0
 17 18  1  0
 18 19  2  0
 19 20  1  0
 20 21  1  0
 21 22  2  0
M  END
