
     RDKit          3D

 22 22  0  0  0  0  0  0  0  0999 V2000
   -1.1730    3.2750    1.8950 C   0  0  0  0  0  0  0  0  0  0  0  0
   -1.5910    2.0060    1.6060 C   0  0  0  0  0  0  0  0  0  0  0  0
   -2.8240    1.6460    2.0610 O   0  0  0  0  0  0  0  0  0  0  0  0
   -0.6560    1.1920    0.8350 C   0  0  0  0  0  0  0  0  0  0  0  0
    0.4940    1.9570    0.4450 O   0  0  0  0  0  0  0  0  0  0  0  0
    0.2110    2.8560   -0.6800 C   0  0  0  0  0  0  0  0  0  0  0  0
    1.3490    3.5920   -0.8990 O   0  0  0  0  0  0  0  0  0  0  0  0
   -0.7640   -0.0430    0.4590 C   0  0  0  0  0  0  0  0  0  0  0  0
   -1.9640   -0.8540    0.7530 C   0  0  0  0  0  0  0  0  0  0  0  0
   -3.0580   -0.3020    1.3920 O   0  0  0  0  0  0  0  0  0  0  0  0
   -4.2630   -1.0710    1.5130 C   0  0  0  0  0  0  0  0  0  0  0  0
   -2.0170   -2.1280    0.4060 C   0  0  0  0  0  0  0  0  0  0  0  0
   -0.9770   -2.8610   -0.2720 C   0  0  2  0  0  0  0  0  0  0  0  0
   -0.5750   -3.9350    0.5460 O   0  0  0  0  0  0  0  0  0  0  0  0
    0.2100   -2.0570   -0.5490 C   0  0  0  0  0  0  0  0  0  0  0  0
    1.2820   -2.6920   -1.2190 N   0  0  0  0  0  0  0  0  0  0  0  0
    0.3480   -0.7460   -0.2210 C   0  0  0  0  0  0  0  0  0  0  0  0
    1.6730   -0.2240   -0.4200 C   0  0  0  0  0  0  0  0  0  0  0  0
    2.1760    0.8610   -0.2060 O   0  0  0  0  0  0  0  0  0  0  0  0
    2.6780   -1.1000   -0.9810 O   0  0  0  0  0  0  0  0  0  0  0  0
    3.9980   -0.5920   -1.1800 C   0  0  0  0  0  0  0  0  0  0  0  0
    3.9240    0.5610   -2.1240 C   0  0  0  0  0  0  0  0  0  0  0  0
  1  2  2  0
  2  3  1  0
  2  4  1  0
  4  5  1  0
  4  8  2  3
  5  6  1  0
  6  7  1  0
  8  9  1  0
  8 17  1  0
  9 10  1  0
  9 12  2  0
 10 11  1  0
 12 13  1  0
 13 14  1  1
 13 15  1  0
 15 16  1  0
 15 17  2  0
 17 18  1  0
 18 19  2  0
 18 20  1  0
 20 21  1  0
 21 22  1  0
M  END
