
     RDKit          3D

 26 29  0  0  0  0  0  0  0  0999 V2000
   -6.8720   -0.6550   -2.0840 N   0  0  0  0  0  0  0  0  0  0  0  0
   -6.2330    0.0090   -1.0130 C   0  0  0  0  0  0  0  0  0  0  0  0
   -6.9930    0.7160   -0.1190 C   0  0  0  0  0  0  0  0  0  0  0  0
   -6.4170    1.3790    0.9390 C   0  0  0  0  0  0  0  0  0  0  0  0
   -5.0360    1.3540    1.1380 C   0  0  0  0  0  0  0  0  0  0  0  0
   -4.3310    2.2140    2.5020 Cl  0  0  0  0  0  0  0  0  0  0  0  0
   -4.2600    0.6480    0.2470 C   0  0  0  0  0  0  0  0  0  0  0  0
   -2.8190    0.5960    0.4170 C   0  0  0  0  0  0  0  0  0  0  0  0
   -2.0960   -0.0730   -0.4290 N   0  0  0  0  0  0  0  0  0  0  0  0
   -0.6910   -0.1200   -0.2580 C   0  0  0  0  0  0  0  0  0  0  0  0
   -0.0150   -1.3100   -0.3230 C   0  0  0  0  0  0  0  0  0  0  0  0
    1.3650   -1.3110   -0.1480 C   0  0  0  0  0  0  0  0  0  0  0  0
    2.0710   -2.4930   -0.2200 C   0  0  0  0  0  0  0  0  0  0  0  0
    3.4400   -2.5130   -0.0590 C   0  0  0  0  0  0  0  0  0  0  0  0
    4.0850   -1.3430    0.1740 C   0  0  0  0  0  0  0  0  0  0  0  0
    3.3560   -0.1440    0.2470 C   0  0  0  0  0  0  0  0  0  0  0  0
    1.9930   -0.0970    0.0870 C   0  0  0  0  0  0  0  0  0  0  0  0
    1.3350    1.0540    0.1490 N   0  0  0  0  0  0  0  0  0  0  0  0
   -0.0130    1.0470   -0.0230 C   0  0  0  0  0  0  0  0  0  0  0  0
   -0.6120    2.1710    0.0440 O   0  0  0  0  0  0  0  0  0  0  0  0
    3.9280    1.1650    0.5440 C   0  0  0  0  0  0  0  0  0  0  0  0
    5.1860    1.5140    0.2470 C   0  0  0  0  0  0  0  0  0  0  0  0
    6.2320    0.8160   -0.3690 N   0  0  0  0  0  0  0  0  0  0  0  0
    6.4190   -0.5150    0.0560 C   0  0  0  0  0  0  0  0  0  0  0  0
    5.5490   -1.4790    0.3040 C   0  0  0  0  0  0  0  0  0  0  0  0
   -4.8710   -0.0140   -0.8150 C   0  0  0  0  0  0  0  0  0  0  0  0
  1  2  1  0
  2  3  2  0
  2 26  1  0
  3  4  1  0
  4  5  2  0
  5  6  1  0
  5  7  1  0
  7  8  1  0
  7 26  2  0
  8  9  2  3
  9 10  1  0
 10 11  2  0
 10 19  1  0
 11 12  1  0
 12 13  2  0
 12 17  1  0
 13 14  1  0
 14 15  2  0
 15 16  1  0
 15 25  1  0
 16 17  2  0
 16 21  1  0
 17 18  1  0
 18 19  1  0
 19 20  2  0
 21 22  2  0
 22 23  1  0
 23 24  1  0
 24 25  2  0
M  CHG  1  23   1
M  END
