
     RDKit          3D

 19 21  0  0  0  0  0  0  0  0999 V2000
    5.7600   -0.3690   -0.4410 C   0  0  0  0  0  0  0  0  0  0  0  0
    4.2960   -0.3220   -0.2010 C   0  0  0  0  0  0  0  0  0  0  0  0
    3.5020    0.7200   -0.6460 C   0  0  0  0  0  0  0  0  0  0  0  0
    2.1350    0.7620   -0.4210 C   0  0  0  0  0  0  0  0  0  0  0  0
    1.5280   -0.2740    0.2750 C   0  0  0  0  0  0  0  0  0  0  0  0
    0.0840   -0.2700    0.5350 C   0  0  0  0  0  0  0  0  0  0  0  0
   -0.4400   -0.8550    1.6700 C   0  0  0  0  0  0  0  0  0  0  0  0
   -1.8100   -0.8480    1.9100 C   0  0  0  0  0  0  0  0  0  0  0  0
   -2.6920   -0.2590    1.0290 C   0  0  0  0  0  0  0  0  0  0  0  0
   -4.0180   -0.2240    1.2110 N   0  0  0  0  0  0  0  0  0  0  0  0
   -4.8670    0.3560    0.3380 C   0  0  0  0  0  0  0  0  0  0  0  0
   -6.2640    0.3550    0.5980 N   0  0  0  0  0  0  0  0  0  0  0  0
   -4.3720    0.9300   -0.7710 N   0  0  0  0  0  0  0  0  0  0  0  0
   -3.0610    0.9280   -1.0100 C   0  0  0  0  0  0  0  0  0  0  0  0
   -2.4620    1.5100   -2.1540 N   0  0  0  0  0  0  0  0  0  0  0  0
   -2.1750    0.3270   -0.1080 C   0  0  0  0  0  0  0  0  0  0  0  0
   -0.8110    0.3140   -0.3370 C   0  0  0  0  0  0  0  0  0  0  0  0
    2.3450   -1.3070    0.7100 C   0  0  0  0  0  0  0  0  0  0  0  0
    3.6950   -1.3490    0.4880 C   0  0  0  0  0  0  0  0  0  0  0  0
  1  2  1  0
  2  3  2  0
  2 19  1  0
  3  4  1  0
  4  5  2  0
  5  6  1  0
  5 18  1  0
  6  7  2  0
  6 17  1  0
  7  8  1  0
  8  9  2  0
  9 10  1  0
  9 16  1  0
 10 11  2  0
 11 12  1  0
 11 13  1  0
 13 14  2  0
 14 15  1  0
 14 16  1  0
 16 17  2  0
 18 19  2  0
M  END
