
     RDKit          3D

 26 29  0  0  0  0  0  0  0  0999 V2000
   -6.1990    1.1280    0.1300 C   0  0  0  0  0  0  0  0  0  0  0  0
   -4.8900    0.8410    0.1040 C   0  0  0  0  0  0  0  0  0  0  0  0
   -3.9300    1.9230    0.2520 C   0  0  0  0  0  0  0  0  0  0  0  0
   -2.5400    1.4800    0.2080 C   0  0  0  0  0  0  0  0  0  0  0  0
   -1.5780    2.4540    0.3420 C   0  0  0  0  0  0  0  0  0  0  0  0
   -0.2390    2.1670    0.3170 C   0  0  0  0  0  0  0  0  0  0  0  0
    0.1700    0.8680    0.1540 C   0  0  0  0  0  0  0  0  0  0  0  0
    1.4240    0.4810    0.1160 O   0  0  0  0  0  0  0  0  0  0  0  0
    2.7050    0.7010    0.1560 C   0  0  0  0  0  0  0  0  0  0  0  0
    3.2910    1.9460    0.3210 C   0  0  0  0  0  0  0  0  0  0  0  0
    4.6680    2.0580    0.3480 C   0  0  0  0  0  0  0  0  0  0  0  0
    5.4990    0.9730    0.2160 C   0  0  0  0  0  0  0  0  0  0  0  0
    6.9030    1.1040    0.2460 N   0  0  0  0  0  0  0  0  0  0  0  0
    4.9180   -0.2290    0.0560 N   0  0  0  0  0  0  0  0  0  0  0  0
    3.5990   -0.4010    0.0220 C   0  0  0  0  0  0  0  0  0  0  0  0
    3.0460   -1.7660   -0.1590 C   0  0  0  0  0  0  0  0  0  0  0  0
    4.1440   -2.7000   -0.2690 N   0  0  0  0  0  0  0  0  0  0  0  0
   -0.8070   -0.1660    0.0120 C   0  0  0  0  0  0  0  0  0  0  0  0
   -2.1220    0.1480    0.0410 C   0  0  0  0  0  0  0  0  0  0  0  0
   -3.1380   -0.9080   -0.1050 C   0  0  0  0  0  0  0  0  0  0  0  0
   -2.7850   -2.2160   -0.2700 C   0  0  0  0  0  0  0  0  0  0  0  0
   -1.1690   -2.8140   -0.3320 Cl  0  0  0  0  0  0  0  0  0  0  0  0
   -3.8180   -3.1530   -0.4000 C   0  0  0  0  0  0  0  0  0  0  0  0
   -5.1390   -2.7660   -0.3620 C   0  0  0  0  0  0  0  0  0  0  0  0
   -5.4500   -1.4860   -0.2000 N   0  0  0  0  0  0  0  0  0  0  0  0
   -4.4930   -0.5440   -0.0700 C   0  0  0  0  0  0  0  0  0  0  0  0
  1  2  2  0
  2  3  1  0
  2 26  1  0
  3  4  1  0
  4  5  2  0
  4 19  1  0
  5  6  1  0
  6  7  2  0
  7  8  1  0
  7 18  1  0
  8  9  1  0
  9 10  2  0
  9 15  1  0
 10 11  1  0
 11 12  2  0
 12 13  1  0
 12 14  1  0
 14 15  2  0
 15 16  1  0
 16 17  1  0
 18 19  2  0
 19 20  1  0
 20 21  2  0
 20 26  1  0
 21 22  1  0
 21 23  1  0
 23 24  2  0
 24 25  1  0
 25 26  2  0
M  CHG  1  17   1
M  END
