
     RDKit          3D

 22 23  0  0  0  0  0  0  0  0999 V2000
    0.1080    4.5140    1.0050 N   0  0  0  0  0  0  0  0  0  0  0  0
   -0.1180    3.1620    0.6230 C   0  0  0  0  0  0  0  0  0  0  0  0
   -1.4070    2.6640    0.5600 C   0  0  0  0  0  0  0  0  0  0  0  0
   -1.6020    1.3490    0.1880 C   0  0  0  0  0  0  0  0  0  0  0  0
   -0.5220    0.5300   -0.1220 C   0  0  0  0  0  0  0  0  0  0  0  0
   -0.7360   -0.7720   -0.4900 O   0  0  0  0  0  0  0  0  0  0  0  0
   -2.0010   -1.3070   -0.5650 C   0  0  0  0  0  0  0  0  0  0  0  0
   -2.7210   -1.4710    0.5260 C   0  0  0  0  0  0  0  0  0  0  0  0
   -4.0790   -2.0340    0.5280 C   0  0  1  0  0  0  0  0  0  0  0  0
   -4.9640   -1.0840    1.0520 O   0  0  0  0  0  0  0  0  0  0  0  0
   -4.5030   -2.3710   -0.7680 O   0  0  0  0  0  0  0  0  0  0  0  0
   -3.7620   -2.2060   -1.9170 C   0  0  0  0  0  0  0  0  0  0  0  0
   -2.5390   -1.6890   -1.8490 C   0  0  0  0  0  0  0  0  0  0  0  0
    0.7660    1.0190   -0.0620 C   0  0  0  0  0  0  0  0  0  0  0  0
    1.8040    0.1570   -0.3810 O   0  0  0  0  0  0  0  0  0  0  0  0
    3.1600    0.5580   -0.3510 C   0  0  0  0  0  0  0  0  0  0  0  0
    4.0600   -0.4950   -0.7180 N   0  0  0  0  0  0  0  0  0  0  0  0
    3.8750   -0.9790   -1.9380 O   0  0  0  0  0  0  0  0  0  0  0  0
    4.1700   -1.5410    0.2620 C   0  0  1  0  0  0  0  0  0  0  0  0
    4.6290   -1.0580    1.4800 O   0  0  0  0  0  0  0  0  0  0  0  0
    3.0090   -2.2610    0.4480 O   0  0  0  0  0  0  0  0  0  0  0  0
    0.9430    2.3290    0.3110 C   0  0  0  0  0  0  0  0  0  0  0  0
  1  2  1  0
  2  3  2  0
  2 22  1  0
  3  4  1  0
  4  5  2  0
  5  6  1  0
  5 14  1  0
  6  7  1  0
  7  8  2  0
  7 13  1  0
  8  9  1  0
  9 10  1  6
  9 11  1  0
 11 12  1  0
 12 13  2  0
 14 15  1  0
 14 22  2  0
 15 16  1  0
 16 17  1  0
 17 18  1  0
 17 19  1  0
 19 20  1  1
 19 21  1  0
M  END
