
     RDKit          3D

 26 27  0  0  0  0  0  0  0  0999 V2000
   -4.0740    3.3020   -1.5660 C   0  0  0  0  0  0  0  0  0  0  0  0
   -3.6620    1.9720   -1.4890 O   0  0  0  0  0  0  0  0  0  0  0  0
   -2.3900    1.8890   -0.8720 C   0  0  0  0  0  0  0  0  0  0  0  0
   -2.0490    0.4100   -0.8440 C   0  0  2  0  0  0  0  0  0  0  0  0
   -3.2510   -0.3280   -0.3540 C   0  0  0  0  0  0  0  0  0  0  0  0
   -3.0300   -1.7280    0.0930 C   0  0  1  0  0  0  0  0  0  0  0  0
   -3.5710   -2.7350   -0.9140 C   0  0  0  0  0  0  0  0  0  0  0  0
   -1.5890   -2.0940    0.3130 C   0  0  0  0  0  0  0  0  0  0  0  0
   -0.8820   -0.8810    0.8330 C   0  0  2  0  0  0  0  0  0  0  0  0
   -1.3860   -0.3650    2.0850 C   0  0  0  0  0  0  0  0  0  0  0  0
   -1.7480    0.8230    2.2510 O   0  0  0  0  0  0  0  0  0  0  0  0
   -1.4970   -1.2100    3.2200 N   0  0  0  0  0  0  0  0  0  0  0  0
   -1.9840   -0.7430    4.4570 N   0  0  0  0  0  0  0  0  0  0  0  0
   -0.8140    0.0700   -0.2600 N   0  0  2  0  0  0  0  0  0  0  0  0
    0.0310    1.1980    0.0800 C   0  0  0  0  0  0  0  0  0  0  0  0
    1.3030    1.1960   -0.6220 N   0  0  0  0  0  0  0  0  0  0  0  0
    2.4470    0.6260   -0.2170 N   0  0  0  0  0  0  0  0  0  0  0  0
    3.4160    0.8200   -1.1090 C   0  0  0  0  0  0  0  0  0  0  0  0
    4.8350    0.3670   -1.0700 C   0  0  0  0  0  0  0  0  0  0  0  0
    5.1470   -0.4060    0.1690 C   0  0  0  0  0  0  0  0  0  0  0  0
    6.5660   -0.8230    0.1420 C   0  0  0  0  0  0  0  0  0  0  0  0
    7.0710   -1.5730    1.2330 N   0  0  0  0  0  0  0  0  0  0  0  0
    7.2740   -0.5010   -0.8390 O   0  0  0  0  0  0  0  0  0  0  0  0
    2.9000    1.5240   -2.1100 N   0  0  0  0  0  0  0  0  0  0  0  0
    1.6170    1.7500   -1.8100 C   0  0  0  0  0  0  0  0  0  0  0  0
    0.8260    2.3880   -2.5370 O   0  0  0  0  0  0  0  0  0  0  0  0
  1  2  1  0
  2  3  1  0
  4  3  1  1
  4  5  1  0
  4 14  1  0
  5  6  1  0
  6  7  1  6
  6  8  1  0
  8  9  1  0
  9 10  1  1
  9 14  1  0
 10 11  2  0
 10 12  1  0
 12 13  1  0
 14 15  1  1
 15 16  1  0
 16 17  1  0
 16 25  1  0
 17 18  2  0
 18 19  1  0
 18 24  1  0
 19 20  1  0
 20 21  1  0
 21 22  1  0
 21 23  2  0
 24 25  1  0
 25 26  2  0
M  CHG  1  14   1
M  END
