
     RDKit          3D

 25 26  0  0  0  0  0  0  0  0999 V2000
    7.2380    1.3290    0.8160 C   0  0  0  0  0  0  0  0  0  0  0  0
    7.5590    0.0110    1.1820 O   0  0  0  0  0  0  0  0  0  0  0  0
    7.5190   -0.7910    0.0740 C   0  0  0  0  0  0  0  0  0  0  0  0
    6.0810   -0.9130   -0.4050 C   0  0  0  0  0  0  0  0  0  0  0  0
    5.9530   -1.3720   -1.5450 O   0  0  0  0  0  0  0  0  0  0  0  0
    5.0060   -0.5450    0.3750 N   0  0  0  0  0  0  0  0  0  0  0  0
    3.6070   -0.5950    0.0480 C   0  0  0  0  0  0  0  0  0  0  0  0
    3.0050   -0.9870   -1.0320 C   0  0  0  0  0  0  0  0  0  0  0  0
    3.5670   -1.5020   -2.2570 N   0  0  0  0  0  0  0  0  0  0  0  0
    1.5330   -0.8380   -0.8670 C   0  0  0  0  0  0  0  0  0  0  0  0
    0.6910   -1.1530   -1.7870 N   0  0  0  0  0  0  0  0  0  0  0  0
    1.3150   -0.3070    0.4460 C   0  0  0  0  0  0  0  0  0  0  0  0
    0.2100   -0.0020    1.0620 N   0  0  0  0  0  0  0  0  0  0  0  0
   -1.0400   -0.1610    0.4780 C   0  0  0  0  0  0  0  0  0  0  0  0
   -1.8200   -1.1770    0.8040 C   0  0  0  0  0  0  0  0  0  0  0  0
   -3.1010   -1.3800    0.2360 N   0  0  0  0  0  0  0  0  0  0  0  0
   -4.0250   -0.2910    0.1940 C   0  0  1  0  0  0  0  0  0  0  0  0
   -5.3440   -0.6680   -0.4410 C   0  0  0  0  0  0  0  0  0  0  0  0
   -6.2650    0.3780    0.1320 C   0  0  2  0  0  0  0  0  0  0  0  0
   -6.0880    1.6430   -0.6730 C   0  0  0  0  0  0  0  0  0  0  0  0
   -6.7960    2.7620   -0.0790 N   0  0  0  0  0  0  0  0  0  0  0  0
   -5.7690    0.5630    1.4340 O   0  0  0  0  0  0  0  0  0  0  0  0
   -4.4560    0.1600    1.5330 C   0  0  0  0  0  0  0  0  0  0  0  0
   -3.7680    0.1760    2.5670 O   0  0  0  0  0  0  0  0  0  0  0  0
    2.6110   -0.1590    1.0100 N   0  0  0  0  0  0  0  0  0  0  0  0
  1  2  1  0
  2  3  1  0
  3  4  1  0
  4  5  2  0
  4  6  1  0
  6  7  1  0
  7  8  2  0
  7 25  1  0
  8  9  1  0
  8 10  1  0
 10 11  2  0
 10 12  1  0
 12 13  2  3
 12 25  1  0
 13 14  1  0
 14 15  2  3
 15 16  1  0
 17 16  1  1
 17 18  1  0
 17 23  1  0
 18 19  1  0
 19 20  1  6
 19 22  1  0
 20 21  1  0
 22 23  1  0
 23 24  2  0
M  CHG  1  21   1
M  END
