
     RDKit          3D

 26 27  0  0  0  0  0  0  0  0999 V2000
   -7.3410    1.6050   -0.7500 C   0  0  0  0  0  0  0  0  0  0  0  0
   -5.8570    1.2150   -0.6820 C   0  0  0  0  0  0  0  0  0  0  0  0
   -5.6960   -0.2000   -0.2180 C   0  0  2  0  0  0  0  0  0  0  0  0
   -6.2320   -0.4910    1.1470 C   0  0  0  0  0  0  0  0  0  0  0  0
   -4.3810   -0.7480   -0.3470 N   0  0  0  0  0  0  0  0  0  0  0  0
   -3.2780   -0.1310    0.0290 C   0  0  0  0  0  0  0  0  0  0  0  0
   -3.3180    1.1500    0.6140 N   0  0  0  0  0  0  0  0  0  0  0  0
   -1.9790   -0.6830   -0.1000 C   0  0  0  0  0  0  0  0  0  0  0  0
   -0.8660    0.0730    0.3700 N   0  0  0  0  0  0  0  0  0  0  0  0
    0.4140    0.0350   -0.1990 C   0  0  0  0  0  0  0  0  0  0  0  0
    0.6870   -0.6690   -1.2000 O   0  0  0  0  0  0  0  0  0  0  0  0
    1.5220    0.8030    0.3260 N   0  0  0  0  0  0  0  0  0  0  0  0
    2.7630    0.6900   -0.3010 N   0  0  0  0  0  0  0  0  0  0  0  0
    3.7320   -0.1600    0.2870 C   0  0  0  0  0  0  0  0  0  0  0  0
    3.4150   -0.7620    1.3560 O   0  0  0  0  0  0  0  0  0  0  0  0
    5.0910   -0.4040   -0.2530 C   0  0  2  0  0  0  0  0  0  0  0  0
    5.8200   -1.4340    0.5910 C   0  0  0  0  0  0  0  0  0  0  0  0
    7.0530   -0.7140    1.1520 C   0  0  0  0  0  0  0  0  0  0  0  0
    7.2650    0.2830    0.1250 N   0  0  0  0  0  0  0  0  0  0  0  0
    5.9400    0.8230   -0.1450 C   0  0  1  0  0  0  0  0  0  0  0  0
    5.9980    1.6050   -1.4450 C   0  0  0  0  0  0  0  0  0  0  0  0
   -1.9120   -1.9330   -0.6520 C   0  0  0  0  0  0  0  0  0  0  0  0
   -0.7940   -2.5050   -0.8000 O   0  0  0  0  0  0  0  0  0  0  0  0
   -3.0480   -2.5530   -1.0340 N   0  0  0  0  0  0  0  0  0  0  0  0
   -4.2600   -1.9950   -0.8950 C   0  0  0  0  0  0  0  0  0  0  0  0
   -5.2760   -2.5970   -1.2580 O   0  0  0  0  0  0  0  0  0  0  0  0
  1  2  1  0
  2  3  1  0
  3  4  1  1
  3  5  1  0
  5  6  1  0
  5 25  1  0
  6  7  1  0
  6  8  2  0
  8  9  1  0
  8 22  1  0
  9 10  1  0
 10 11  2  0
 10 12  1  0
 12 13  1  0
 13 14  1  0
 14 15  2  0
 16 14  1  1
 16 17  1  0
 16 20  1  0
 17 18  1  0
 18 19  1  0
 19 20  1  0
 20 21  1  6
 22 23  2  0
 22 24  1  0
 24 25  1  0
 25 26  2  0
M  CHG  1  19   1
M  END
