
     RDKit          3D

 26 27  0  0  0  0  0  0  0  0999 V2000
    8.1200    0.4470    0.0920 C   0  0  0  0  0  0  0  0  0  0  0  0
    7.0320    0.0340    0.9470 N   0  0  0  0  0  0  0  0  0  0  0  0
    5.7940   -0.1310    0.2390 C   0  0  0  0  0  0  0  0  0  0  0  0
    5.0380    0.8560    0.0890 O   0  0  0  0  0  0  0  0  0  0  0  0
    5.4160   -1.3820   -0.2870 N   0  0  0  0  0  0  0  0  0  0  0  0
    4.2490   -1.6880   -0.9840 N   0  0  0  0  0  0  0  0  0  0  0  0
    3.1840   -2.4010   -0.3450 C   0  0  0  0  0  0  0  0  0  0  0  0
    3.4380   -2.6660    0.8960 O   0  0  0  0  0  0  0  0  0  0  0  0
    1.9330   -2.8260   -0.9340 C   0  0  0  0  0  0  0  0  0  0  0  0
    0.9490   -1.8790   -1.3170 N   0  0  0  0  0  0  0  0  0  0  0  0
   -0.0410   -1.2960   -0.6230 C   0  0  0  0  0  0  0  0  0  0  0  0
   -0.2010   -1.4810    0.8530 C   0  0  0  0  0  0  0  0  0  0  0  0
   -0.8440   -0.5100   -1.4190 C   0  0  0  0  0  0  0  0  0  0  0  0
   -2.0270    0.2780   -1.0910 C   0  0  1  0  0  0  0  0  0  0  0  0
   -2.8800    0.6280   -2.3280 C   0  0  0  0  0  0  0  0  0  0  0  0
   -2.8790   -0.2630   -0.0570 N   0  0  0  0  0  0  0  0  0  0  0  0
   -3.7970    0.6240    0.5800 C   0  0  0  0  0  0  0  0  0  0  0  0
   -3.8500    1.7980    0.1790 O   0  0  0  0  0  0  0  0  0  0  0  0
   -4.6640    0.2490    1.6480 N   0  0  0  0  0  0  0  0  0  0  0  0
   -5.6380    1.0720    2.2760 C   0  0  2  0  0  0  0  0  0  0  0  0
   -6.3590    2.1410    1.5450 C   0  0  0  0  0  0  0  0  0  0  0  0
   -5.4770    2.4260    2.8020 C   0  0  2  0  0  0  0  0  0  0  0  0
   -4.3170    3.3320    2.6010 C   0  0  0  0  0  0  0  0  0  0  0  0
   -0.2940   -0.6320   -2.6510 N   0  0  0  0  0  0  0  0  0  0  0  0
    0.7660   -1.4400   -2.5920 C   0  0  0  0  0  0  0  0  0  0  0  0
    1.4980   -1.7560   -3.5610 O   0  0  0  0  0  0  0  0  0  0  0  0
  1  2  1  0
  2  3  1  0
  3  4  2  0
  3  5  1  0
  5  6  1  0
  6  7  1  0
  7  8  2  0
  7  9  1  0
  9 10  1  0
 10 11  1  0
 10 25  1  0
 11 12  1  0
 11 13  2  0
 13 14  1  0
 13 24  1  0
 14 15  1  6
 14 16  1  0
 16 17  1  0
 17 18  2  0
 17 19  1  0
 20 19  1  6
 20 21  1  0
 20 22  1  0
 21 22  1  0
 22 23  1  6
 24 25  1  0
 25 26  2  0
M  CHG  1   2   1
M  END
