
     RDKit          3D

 26 27  0  0  0  0  0  0  0  0999 V2000
    0.0490    3.4000   -3.2290 C   0  0  0  0  0  0  0  0  0  0  0  0
   -0.3380    3.0560   -1.8750 N   0  0  0  0  0  0  0  0  0  0  0  0
   -0.1910    1.7410   -1.3450 C   0  0  0  0  0  0  0  0  0  0  0  0
    0.2960    0.8430   -2.0830 O   0  0  0  0  0  0  0  0  0  0  0  0
   -0.5630    1.3940   -0.0370 N   0  0  0  0  0  0  0  0  0  0  0  0
   -0.4190    0.0600    0.5220 C   0  0  1  0  0  0  0  0  0  0  0  0
    0.3820    0.2170    1.7840 C   0  0  0  0  0  0  0  0  0  0  0  0
    1.6820    0.8090    1.3880 N   0  0  0  0  0  0  0  0  0  0  0  0
    2.5140   -0.0350    0.6190 C   0  0  0  0  0  0  0  0  0  0  0  0
    3.2870    0.3290   -0.3680 C   0  0  0  0  0  0  0  0  0  0  0  0
    4.1140   -0.6490   -1.1010 C   0  0  0  0  0  0  0  0  0  0  0  0
    4.0620   -1.8620   -0.7540 O   0  0  0  0  0  0  0  0  0  0  0  0
    4.9450   -0.2370   -2.1650 N   0  0  0  0  0  0  0  0  0  0  0  0
    5.0190    1.1140   -2.5700 C   0  0  0  0  0  0  0  0  0  0  0  0
    5.7600    1.4720   -3.5160 O   0  0  0  0  0  0  0  0  0  0  0  0
    4.2520    2.0910   -1.9070 N   0  0  0  0  0  0  0  0  0  0  0  0
    3.3890    1.6980   -0.8100 C   0  0  0  0  0  0  0  0  0  0  0  0
    2.7160    2.5870   -0.2370 O   0  0  0  0  0  0  0  0  0  0  0  0
   -1.7710   -0.5610    0.7920 C   0  0  2  0  0  0  0  0  0  0  0  0
   -2.6070    0.2070    1.7630 C   0  0  0  0  0  0  0  0  0  0  0  0
   -1.5460   -1.9820    1.2400 C   0  0  0  0  0  0  0  0  0  0  0  0
   -2.7920   -2.7010    1.5250 C   0  0  0  0  0  0  0  0  0  0  0  0
   -3.4160   -2.7570    2.7110 N   0  0  0  0  0  0  0  0  0  0  0  0
   -4.5340   -3.5170    2.5750 C   0  0  0  0  0  0  0  0  0  0  0  0
   -4.5960   -3.9380    1.2630 C   0  0  0  0  0  0  0  0  0  0  0  0
   -3.5030   -3.4160    0.6390 N   0  0  0  0  0  0  0  0  0  0  0  0
  1  2  1  0
  2  3  1  0
  3  4  2  0
  3  5  1  0
  5  6  1  0
  6  7  1  1
  6 19  1  0
  7  8  1  0
  8  9  1  0
  9 10  2  3
 10 11  1  0
 10 17  1  0
 11 12  2  0
 11 13  1  0
 13 14  1  0
 14 15  2  0
 14 16  1  0
 16 17  1  0
 17 18  2  0
 19 20  1  1
 19 21  1  0
 21 22  1  0
 22 23  1  0
 22 26  2  0
 23 24  1  0
 24 25  2  0
 25 26  1  0
M  CHG  1  26   1
M  END
