
     RDKit          3D

 26 28  0  0  0  0  0  0  0  0999 V2000
   -4.1170   -2.8530    1.5910 N   0  0  0  0  0  0  0  0  0  0  0  0
   -4.1760   -1.4500    1.3430 C   0  0  2  0  0  0  0  0  0  0  0  0
   -4.7190   -1.1260   -0.0070 C   0  0  0  0  0  0  0  0  0  0  0  0
   -4.1420   -0.0050   -0.4650 C   0  0  0  0  0  0  0  0  0  0  0  0
   -4.4610    0.5500   -1.7240 N   0  0  0  0  0  0  0  0  0  0  0  0
   -4.5250    1.9590   -2.1270 C   0  0  0  0  0  0  0  0  0  0  0  0
   -3.6960    2.7190   -1.0940 C   0  0  0  0  0  0  0  0  0  0  0  0
   -2.2970    2.1850   -1.0930 C   0  0  0  0  0  0  0  0  0  0  0  0
   -1.9770    1.1930   -0.0400 C   0  0  2  0  0  0  0  0  0  0  0  0
   -1.0130    0.2430   -0.5960 N   0  0  0  0  0  0  0  0  0  0  0  0
    0.1610   -0.1020    0.1130 C   0  0  0  0  0  0  0  0  0  0  0  0
    0.3550    0.4220    1.2360 O   0  0  0  0  0  0  0  0  0  0  0  0
    1.1160   -1.0350   -0.4370 N   0  0  0  0  0  0  0  0  0  0  0  0
    2.2620   -1.4130    0.2450 N   0  0  0  0  0  0  0  0  0  0  0  0
    3.5150   -0.7960   -0.1080 C   0  0  0  0  0  0  0  0  0  0  0  0
    3.5790    0.0640   -1.0080 O   0  0  0  0  0  0  0  0  0  0  0  0
    4.7610   -1.1780    0.6010 C   0  0  0  0  0  0  0  0  0  0  0  0
    5.9310   -0.4510    0.1620 N   0  0  0  0  0  0  0  0  0  0  0  0
    6.8640   -0.7540   -0.8660 C   0  0  0  0  0  0  0  0  0  0  0  0
    6.9480   -1.8190   -1.5170 O   0  0  0  0  0  0  0  0  0  0  0  0
    7.7660    0.4160   -1.0730 C   0  0  0  0  0  0  0  0  0  0  0  0
    7.5590    1.2370    0.1090 N   0  0  0  0  0  0  0  0  0  0  0  0
    6.3870    0.7810    0.7410 C   0  0  0  0  0  0  0  0  0  0  0  0
    5.8120    1.3680    1.6850 O   0  0  0  0  0  0  0  0  0  0  0  0
   -3.1850    0.5010    0.5290 C   0  0  2  0  0  0  0  0  0  0  0  0
   -2.7910   -0.8060    1.2350 C   0  0  0  0  0  0  0  0  0  0  0  0
  2  1  1  6
  2  3  1  0
  2 26  1  0
  3  4  2  0
  4  5  1  0
  4 25  1  0
  5  6  1  0
  6  7  1  0
  7  8  1  0
  8  9  1  0
  9 10  1  6
  9 25  1  0
 10 11  1  0
 11 12  2  0
 11 13  1  0
 13 14  1  0
 14 15  1  0
 15 16  2  0
 15 17  1  0
 17 18  1  0
 18 19  1  0
 18 23  1  0
 19 20  2  0
 19 21  1  0
 21 22  1  0
 22 23  1  0
 23 24  2  0
 25 26  1  6
M  CHG  1   1   1
M  END
