
     RDKit          3D

 18 18  0  0  0  0  0  0  0  0999 V2000
   -2.9000    2.1020    0.7520 C   0  0  0  0  0  0  0  0  0  0  0  0
   -1.7290    1.4290    0.0240 C   0  0  1  0  0  0  0  0  0  0  0  0
   -1.1000    0.5810    0.8700 O   0  0  0  0  0  0  0  0  0  0  0  0
   -1.3210   -0.7460    0.7300 C   0  0  2  0  0  0  0  0  0  0  0  0
   -1.5150   -1.3360    2.1370 C   0  0  0  0  0  0  0  0  0  0  0  0
   -0.1460   -1.4110    0.1200 C   0  0  0  0  0  0  0  0  0  0  0  0
   -0.0950   -2.6410   -0.1170 O   0  0  0  0  0  0  0  0  0  0  0  0
    1.0320   -0.6520   -0.2410 N   0  0  0  0  0  0  0  0  0  0  0  0
    2.1590   -1.2900   -0.8270 C   0  0  0  0  0  0  0  0  0  0  0  0
    3.3760   -0.5510   -1.1660 C   0  0  0  0  0  0  0  0  0  0  0  0
    4.0790    0.0620   -0.1970 O   0  0  0  0  0  0  0  0  0  0  0  0
    3.8910    1.1080    0.5960 C   0  0  0  0  0  0  0  0  0  0  0  0
    2.8460    1.7890    0.5140 O   0  0  0  0  0  0  0  0  0  0  0  0
    4.8320    1.5270    1.5750 O   0  0  0  0  0  0  0  0  0  0  0  0
   -2.5630   -1.1150   -0.0390 C   0  0  0  0  0  0  0  0  0  0  0  0
   -2.6340   -0.4330   -1.2830 O   0  0  0  0  0  0  0  0  0  0  0  0
   -2.1500    0.8800   -1.2610 C   0  0  0  0  0  0  0  0  0  0  0  0
   -2.0870    1.5460   -2.3160 O   0  0  0  0  0  0  0  0  0  0  0  0
  2  1  1  1
  2  3  1  0
  2 17  1  0
  3  4  1  0
  4  5  1  1
  4  6  1  0
  4 15  1  0
  6  7  2  0
  6  8  1  0
  8  9  1  0
  9 10  1  0
 10 11  1  0
 11 12  1  0
 12 13  2  0
 12 14  1  0
 15 16  1  0
 16 17  1  0
 17 18  2  0
M  END
