
     RDKit          3D

 17 16  0  0  0  0  0  0  0  0999 V2000
   -3.4010    1.5060   -1.0380 C   0  0  0  0  0  0  0  0  0  0  0  0
   -3.5390    0.0510   -0.6570 C   0  0  0  0  0  0  0  0  0  0  0  0
   -2.3620   -0.3030    0.1400 N   0  0  0  0  0  0  0  0  0  0  0  0
   -2.4470   -0.1130    1.5720 C   0  0  0  0  0  0  0  0  0  0  0  0
   -1.2140   -0.7910   -0.4910 C   0  0  0  0  0  0  0  0  0  0  0  0
   -1.1650   -0.9180   -1.7250 O   0  0  0  0  0  0  0  0  0  0  0  0
   -0.0220   -1.1690    0.3310 C   0  0  0  0  0  0  0  0  0  0  0  0
    1.1210   -0.3830   -0.1330 C   0  0  0  0  0  0  0  0  0  0  0  0
    2.2490   -0.8310   -0.6200 C   0  0  0  0  0  0  0  0  0  0  0  0
    3.1830    0.1730   -0.9900 O   0  0  0  0  0  0  0  0  0  0  0  0
    3.1440    1.3870   -0.3800 O   0  0  0  0  0  0  0  0  0  0  0  0
    4.2430    2.1220    0.0260 C   0  0  0  0  0  0  0  0  0  0  0  0
    5.3760    1.6450   -0.1810 O   0  0  0  0  0  0  0  0  0  0  0  0
    4.1470    3.3480    0.6440 O   0  0  0  0  0  0  0  0  0  0  0  0
    2.6340   -2.2090   -0.8180 C   0  0  0  0  0  0  0  0  0  0  0  0
    3.7940   -2.4520   -1.3140 O   0  0  0  0  0  0  0  0  0  0  0  0
    1.8700   -3.2920   -0.5220 O   0  0  0  0  0  0  0  0  0  0  0  0
  1  2  1  0
  2  3  1  0
  3  4  1  0
  3  5  1  0
  5  6  2  0
  5  7  1  0
  7  8  1  0
  8  9  2  3
  9 10  1  0
  9 15  1  0
 10 11  1  0
 11 12  1  0
 12 13  2  0
 12 14  1  0
 15 16  2  0
 15 17  1  0
M  END
