
     RDKit          3D

 18 18  0  0  0  0  0  0  0  0999 V2000
   -2.8850   -1.9780    0.8850 C   0  0  0  0  0  0  0  0  0  0  0  0
   -1.8460   -1.1590    0.1570 C   0  0  2  0  0  0  0  0  0  0  0  0
   -2.3950    0.0610   -0.4350 C   0  0  0  0  0  0  0  0  0  0  0  0
   -2.3290    0.2490   -1.6650 O   0  0  0  0  0  0  0  0  0  0  0  0
   -2.9880    1.0100    0.3660 O   0  0  0  0  0  0  0  0  0  0  0  0
   -3.5190    2.1820   -0.1710 C   0  0  0  0  0  0  0  0  0  0  0  0
   -3.4600    2.3890   -1.4270 O   0  0  0  0  0  0  0  0  0  0  0  0
   -4.1210    3.1570    0.6010 O   0  0  0  0  0  0  0  0  0  0  0  0
   -1.1680   -2.0570   -0.8360 C   0  0  0  0  0  0  0  0  0  0  0  0
    0.1240   -1.3510   -1.0970 C   0  0  0  0  0  0  0  0  0  0  0  0
    0.3840   -0.5640    0.1120 N   0  0  0  0  0  0  0  0  0  0  0  0
    1.5390    0.2550    0.2720 C   0  0  0  0  0  0  0  0  0  0  0  0
    1.6850    0.8970    1.3390 O   0  0  0  0  0  0  0  0  0  0  0  0
    2.4980    0.3720   -0.6940 O   0  0  0  0  0  0  0  0  0  0  0  0
    3.6610    1.1340   -0.6520 C   0  0  0  0  0  0  0  0  0  0  0  0
    4.5300    0.6850    0.4810 C   0  0  0  0  0  0  0  0  0  0  0  0
    5.6840    1.4690    0.4930 O   0  0  0  0  0  0  0  0  0  0  0  0
   -0.7000   -0.7680    1.0630 C   0  0  0  0  0  0  0  0  0  0  0  0
  2  1  1  1
  2  3  1  0
  2  9  1  0
  2 18  1  0
  3  4  2  0
  3  5  1  0
  5  6  1  0
  6  7  2  0
  6  8  1  0
  9 10  1  0
 10 11  1  0
 11 12  1  0
 11 18  1  0
 12 13  2  0
 12 14  1  0
 14 15  1  0
 15 16  1  0
 16 17  1  0
M  END
