
     RDKit          3D

 18 18  0  0  0  0  0  0  0  0999 V2000
   -4.1820   -1.5720   -0.6650 C   0  0  0  0  0  0  0  0  0  0  0  0
   -3.8990   -0.1010   -0.7290 C   0  0  1  0  0  0  0  0  0  0  0  0
   -4.3630    0.5940    0.4410 O   0  0  0  0  0  0  0  0  0  0  0  0
   -3.6860    1.7220    0.8640 C   0  0  0  0  0  0  0  0  0  0  0  0
   -4.3090    2.8080    1.1400 O   0  0  0  0  0  0  0  0  0  0  0  0
   -2.2270    1.6690    0.9980 C   0  0  0  0  0  0  0  0  0  0  0  0
   -1.6240    0.8260   -0.0070 N   0  0  0  0  0  0  0  0  0  0  0  0
   -0.1530    0.7300   -0.1190 C   0  0  0  0  0  0  0  0  0  0  0  0
    0.2620   -0.3890    0.7640 C   0  0  0  0  0  0  0  0  0  0  0  0
    1.6100   -0.6830    0.8350 O   0  0  0  0  0  0  0  0  0  0  0  0
    2.4290   -1.0580   -0.2120 C   0  0  0  0  0  0  0  0  0  0  0  0
    1.8480   -1.1270   -1.3290 O   0  0  0  0  0  0  0  0  0  0  0  0
    3.8550   -1.3630   -0.0990 C   0  0  0  0  0  0  0  0  0  0  0  0
    4.7820   -0.3040   -0.5940 C   0  0  0  0  0  0  0  0  0  0  0  0
    4.5980    0.8720    0.1040 O   0  0  0  0  0  0  0  0  0  0  0  0
    5.4520    1.7520   -0.3890 O   0  0  0  0  0  0  0  0  0  0  0  0
   -2.4450    0.0890   -0.8890 C   0  0  0  0  0  0  0  0  0  0  0  0
   -1.9140   -0.4550   -1.8950 O   0  0  0  0  0  0  0  0  0  0  0  0
  2  1  1  1
  2  3  1  0
  2 17  1  0
  3  4  1  0
  4  5  2  0
  4  6  1  0
  6  7  1  0
  7  8  1  0
  7 17  1  0
  8  9  1  0
  9 10  1  0
 10 11  1  0
 11 12  2  0
 11 13  1  0
 13 14  1  0
 14 15  1  0
 15 16  1  0
 17 18  2  0
M  END
