
     RDKit          3D

 18 17  0  0  0  0  0  0  0  0999 V2000
   -7.2190    2.1460    0.4270 C   0  0  0  0  0  0  0  0  0  0  0  0
   -6.0340    1.4560    0.7320 O   0  0  0  0  0  0  0  0  0  0  0  0
   -5.6020    0.4570   -0.1010 C   0  0  0  0  0  0  0  0  0  0  0  0
   -6.2850    0.1850   -1.1230 O   0  0  0  0  0  0  0  0  0  0  0  0
   -4.4310   -0.2460    0.1730 O   0  0  0  0  0  0  0  0  0  0  0  0
   -4.0370   -1.2790   -0.7390 C   0  0  0  0  0  0  0  0  0  0  0  0
   -2.7650   -1.9050   -0.2670 C   0  0  0  0  0  0  0  0  0  0  0  0
   -1.7040   -0.9470   -0.1850 O   0  0  0  0  0  0  0  0  0  0  0  0
   -0.4360   -1.2930    0.2270 C   0  0  0  0  0  0  0  0  0  0  0  0
   -0.2550   -2.5200    0.5330 O   0  0  0  0  0  0  0  0  0  0  0  0
    0.6120   -0.3890    0.3160 O   0  0  0  0  0  0  0  0  0  0  0  0
    1.8590   -0.9040    0.7580 C   0  0  0  0  0  0  0  0  0  0  0  0
    2.9100    0.2020    0.8060 C   0  0  1  0  0  0  0  0  0  0  0  0
    4.1710   -0.4640    1.2830 C   0  0  0  0  0  0  0  0  0  0  0  0
    3.0280    0.7880   -0.5510 C   0  0  0  0  0  0  0  0  0  0  0  0
    3.8810    1.7990   -0.7740 O   0  0  0  0  0  0  0  0  0  0  0  0
    5.2140    1.6670   -0.6360 C   0  0  0  0  0  0  0  0  0  0  0  0
    5.8320    0.6900   -1.5160 N   0  0  0  0  0  0  0  0  0  0  0  0
  1  2  1  0
  2  3  1  0
  3  4  2  0
  3  5  1  0
  5  6  1  0
  6  7  1  0
  7  8  1  0
  8  9  1  0
  9 10  2  0
  9 11  1  0
 11 12  1  0
 12 13  1  0
 13 14  1  6
 13 15  1  0
 15 16  1  0
 16 17  1  0
 17 18  1  0
M  END
