
     RDKit          3D

 16 18  0  0  0  0  0  0  0  0999 V2000
   -3.6560   -0.6870    0.8060 C   0  0  0  0  0  0  0  0  0  0  0  0
   -3.3480    0.1830   -0.3420 C   0  0  0  0  0  0  0  0  0  0  0  0
   -4.2180    0.6250   -1.2900 N   0  0  0  0  0  0  0  0  0  0  0  0
   -3.5900    1.3850   -2.1670 N   0  0  0  0  0  0  0  0  0  0  0  0
   -2.3070    1.4440   -1.7990 C   0  0  0  0  0  0  0  0  0  0  0  0
   -2.1100    0.6910   -0.6410 C   0  0  0  0  0  0  0  0  0  0  0  0
   -0.8640    0.5250    0.0400 N   0  0  0  0  0  0  0  0  0  0  0  0
   -0.5920    0.7820    1.3340 C   0  0  0  0  0  0  0  0  0  0  0  0
    0.7210    0.4970    1.6250 C   0  0  0  0  0  0  0  0  0  0  0  0
    1.2880    0.0400    0.4490 C   0  0  0  0  0  0  0  0  0  0  0  0
    2.6480   -0.3870    0.2370 N   0  0  0  0  0  0  0  0  0  0  0  0
    3.3050   -1.4160    0.7520 C   0  0  0  0  0  0  0  0  0  0  0  0
    4.6040   -1.4620    0.2770 C   0  0  0  0  0  0  0  0  0  0  0  0
    4.7360   -0.3900   -0.5810 C   0  0  0  0  0  0  0  0  0  0  0  0
    3.5210    0.2430   -0.5800 C   0  0  0  0  0  0  0  0  0  0  0  0
    0.2910    0.0730   -0.4890 C   0  0  0  0  0  0  0  0  0  0  0  0
  1  2  1  0
  2  3  1  0
  2  6  2  0
  3  4  1  0
  4  5  2  0
  5  6  1  0
  6  7  1  0
  7  8  1  0
  7 16  1  0
  8  9  2  0
  9 10  1  0
 10 11  1  0
 10 16  2  0
 11 12  1  0
 11 15  1  0
 12 13  2  0
 13 14  1  0
 14 15  2  0
M  END
