
     RDKit          3D

 16 18  0  0  0  0  0  0  0  0999 V2000
   -2.6140   -0.7820    1.8270 C   0  0  0  0  0  0  0  0  0  0  0  0
   -1.3510   -0.8110    1.4340 C   0  0  0  0  0  0  0  0  0  0  0  0
   -0.9690   -0.1130    0.2120 C   0  0  0  0  0  0  0  0  0  0  0  0
    0.2360   -0.0870   -0.2470 N   0  0  0  0  0  0  0  0  0  0  0  0
    1.3070   -0.7690    0.4470 C   0  0  0  0  0  0  0  0  0  0  0  0
    2.6340   -0.4030   -0.0650 C   0  0  0  0  0  0  0  0  0  0  0  0
    2.9210    0.4550   -1.0550 N   0  0  0  0  0  0  0  0  0  0  0  0
    4.2490    0.5320   -1.2390 C   0  0  0  0  0  0  0  0  0  0  0  0
    4.8120   -0.3300   -0.3060 C   0  0  0  0  0  0  0  0  0  0  0  0
    3.8020   -0.8810    0.3910 N   0  0  0  0  0  0  0  0  0  0  0  0
   -2.0390    0.5810   -0.5000 C   0  0  0  0  0  0  0  0  0  0  0  0
   -2.0730    1.3090   -1.6220 C   0  0  0  0  0  0  0  0  0  0  0  0
   -3.4380    1.7660   -1.8620 C   0  0  0  0  0  0  0  0  0  0  0  0
   -4.1960    1.3260   -0.9130 N   0  0  0  0  0  0  0  0  0  0  0  0
   -3.4100    0.5550    0.0170 C   0  0  0  0  0  0  0  0  0  0  0  0
   -3.6840   -0.1000    1.1350 C   0  0  0  0  0  0  0  0  0  0  0  0
  1  2  2  0
  1 16  1  0
  2  3  1  0
  3  4  2  3
  3 11  1  0
  4  5  1  0
  5  6  1  0
  6  7  2  0
  6 10  1  0
  7  8  1  0
  8  9  2  0
  9 10  1  0
 11 12  2  0
 11 15  1  0
 12 13  1  0
 13 14  2  0
 14 15  1  0
 15 16  2  0
M  END
