
     RDKit          3D

 16 18  0  0  0  0  0  0  0  0999 V2000
    4.7160   -0.6660    0.2110 C   0  0  0  0  0  0  0  0  0  0  0  0
    3.3660   -0.2080   -0.0560 N   0  0  0  0  0  0  0  0  0  0  0  0
    3.1750    0.9230   -0.9020 C   0  0  0  0  0  0  0  0  0  0  0  0
    1.9810    1.3990   -1.1930 C   0  0  0  0  0  0  0  0  0  0  0  0
    0.7980    0.7570   -0.6370 C   0  0  0  0  0  0  0  0  0  0  0  0
   -0.5230    0.9830   -0.7300 N   0  0  0  0  0  0  0  0  0  0  0  0
   -1.2030    0.0690    0.0030 C   0  0  0  0  0  0  0  0  0  0  0  0
   -2.6560   -0.0360    0.1680 C   0  0  0  0  0  0  0  0  0  0  0  0
   -3.4680    0.8730   -0.4730 C   0  0  0  0  0  0  0  0  0  0  0  0
   -4.8350    0.7450   -0.2960 C   0  0  0  0  0  0  0  0  0  0  0  0
   -5.3190   -0.2360    0.4760 N   0  0  0  0  0  0  0  0  0  0  0  0
   -4.5170   -1.1240    1.1010 C   0  0  0  0  0  0  0  0  0  0  0  0
   -3.1410   -1.0420    0.9590 C   0  0  0  0  0  0  0  0  0  0  0  0
   -0.2650   -0.7220    0.5470 N   0  0  0  0  0  0  0  0  0  0  0  0
    0.9490   -0.3330    0.1810 C   0  0  0  0  0  0  0  0  0  0  0  0
    2.2680   -0.9120    0.5420 C   0  0  0  0  0  0  0  0  0  0  0  0
  1  2  1  0
  2  3  1  0
  2 16  1  0
  3  4  2  0
  4  5  1  0
  5  6  1  0
  5 15  2  0
  6  7  1  0
  7  8  1  0
  7 14  2  0
  8  9  2  0
  8 13  1  0
  9 10  1  0
 10 11  2  0
 11 12  1  0
 12 13  2  0
 14 15  1  0
 15 16  1  0
M  END
