
     RDKit          3D

 16 18  0  0  0  0  0  0  0  0999 V2000
   -2.6910   -1.0630   -1.4450 C   0  0  0  0  0  0  0  0  0  0  0  0
   -1.9570   -0.1440   -0.5240 C   0  0  0  0  0  0  0  0  0  0  0  0
   -0.6590   -0.2440   -0.3150 C   0  0  0  0  0  0  0  0  0  0  0  0
   -0.0560   -1.3250   -1.0670 C   0  0  0  0  0  0  0  0  0  0  0  0
    1.3010   -1.7590   -0.7380 C   0  0  0  0  0  0  0  0  0  0  0  0
    2.4030   -0.7910   -0.6830 C   0  0  0  0  0  0  0  0  0  0  0  0
    2.4370    0.1160    0.4120 N   0  0  0  0  0  0  0  0  0  0  0  0
    3.5440    0.4910    1.0870 C   0  0  0  0  0  0  0  0  0  0  0  0
    3.2160    1.3720    2.0780 C   0  0  0  0  0  0  0  0  0  0  0  0
    1.8760    1.5410    2.0090 N   0  0  0  0  0  0  0  0  0  0  0  0
    1.4210    0.7630    0.9830 C   0  0  0  0  0  0  0  0  0  0  0  0
    0.0100    0.6790    0.5950 C   0  0  0  0  0  0  0  0  0  0  0  0
   -0.6280    1.6180    1.2220 N   0  0  0  0  0  0  0  0  0  0  0  0
   -2.0020    1.7760    1.0430 C   0  0  0  0  0  0  0  0  0  0  0  0
   -2.6250    2.7100    1.6690 N   0  0  0  0  0  0  0  0  0  0  0  0
   -2.7670    0.8980    0.1500 C   0  0  0  0  0  0  0  0  0  0  0  0
  1  2  1  0
  2  3  2  0
  2 16  1  0
  3  4  1  0
  3 12  1  0
  4  5  1  0
  5  6  1  0
  6  7  1  0
  7  8  1  0
  7 11  1  0
  8  9  2  0
  9 10  1  0
 10 11  2  0
 11 12  1  0
 12 13  2  0
 13 14  1  0
 14 15  2  0
 14 16  1  0
M  END
