
     RDKit          3D

 18 18  0  0  0  0  0  0  0  0999 V2000
    3.8940   -0.5270    1.4760 C   0  0  0  0  0  0  0  0  0  0  0  0
    3.9050   -0.5690    0.0380 N   0  0  0  0  0  0  0  0  0  0  0  0
    5.1020   -0.7630   -0.6310 N   0  0  0  0  0  0  0  0  0  0  0  0
    6.0000    0.0890   -0.7320 O   0  0  0  0  0  0  0  0  0  0  0  0
    2.7060   -0.4120   -0.6800 C   0  0  0  0  0  0  0  0  0  0  0  0
    2.7390   -0.4530   -1.9350 O   0  0  0  0  0  0  0  0  0  0  0  0
    1.4400   -0.2080   -0.0650 N   0  0  0  0  0  0  0  0  0  0  0  0
    0.2330   -0.0530   -0.8730 C   0  0  1  0  0  0  0  0  0  0  0  0
   -0.7270   -1.2050   -0.5820 C   0  0  2  0  0  0  0  0  0  0  0  0
   -1.6760   -1.2290   -1.6130 O   0  0  0  0  0  0  0  0  0  0  0  0
   -1.2770   -1.0080    0.6610 O   0  0  0  0  0  0  0  0  0  0  0  0
   -2.2320   -0.0090    0.6850 C   0  0  2  0  0  0  0  0  0  0  0  0
   -3.6120   -0.6150    0.5370 C   0  0  0  0  0  0  0  0  0  0  0  0
   -4.6100    0.3370    0.5540 O   0  0  0  0  0  0  0  0  0  0  0  0
   -1.9580    1.0510   -0.3290 C   0  0  1  0  0  0  0  0  0  0  0  0
   -2.3970    2.2770    0.2230 O   0  0  0  0  0  0  0  0  0  0  0  0
   -0.4800    1.2330   -0.6060 C   0  0  2  0  0  0  0  0  0  0  0  0
   -0.3900    2.0820   -1.7220 O   0  0  0  0  0  0  0  0  0  0  0  0
  1  2  1  0
  2  3  1  0
  2  5  1  0
  3  4  2  0
  5  6  2  0
  5  7  1  0
  8  7  1  1
  8  9  1  0
  8 17  1  0
  9 10  1  6
  9 11  1  0
 11 12  1  0
 12 13  1  6
 12 15  1  0
 13 14  1  0
 15 16  1  1
 15 17  1  0
 17 18  1  6
M  END
