
     RDKit          3D

 20 21  0  0  0  0  0  0  0  0999 V2000
   -4.2120    0.7620    0.5960 C   0  0  0  0  0  0  0  0  0  0  0  0
   -3.2260    0.5610   -0.5480 C   0  0  0  0  0  0  0  0  0  0  0  0
   -1.9430   -0.1040   -0.0340 C   0  0  2  0  0  0  0  0  0  0  0  0
   -2.4040   -1.4240    0.5380 C   0  0  0  0  0  0  0  0  0  0  0  0
   -1.5410    0.7190    1.0330 N   0  0  0  0  0  0  0  0  0  0  0  0
   -0.7870    0.2570    2.0980 C   0  0  0  0  0  0  0  0  0  0  0  0
    0.6940    0.4720    1.7190 C   0  0  0  0  0  0  0  0  0  0  0  0
    0.8950   -0.5370    0.5930 C   0  0  0  0  0  0  0  0  0  0  0  0
    0.4790   -0.0540   -0.7350 C   0  0  1  0  0  0  0  0  0  0  0  0
    1.4480   -0.5430   -1.7720 C   0  0  0  0  0  0  0  0  0  0  0  0
    3.1210    0.0010   -1.6730 S   0  0  0  0  0  0  0  0  0  0  0  0
    4.1350   -0.5080   -0.3540 C   0  0  0  0  0  0  0  0  0  0  0  0
    4.8110   -1.6750   -0.3240 N   0  0  0  0  0  0  0  0  0  0  0  0
    5.4800   -1.7710    0.7920 N   0  0  0  0  0  0  0  0  0  0  0  0
    5.2610   -0.6700    1.5240 C   0  0  0  0  0  0  0  0  0  0  0  0
    5.7580   -0.4510    2.6510 O   0  0  0  0  0  0  0  0  0  0  0  0
    4.4340    0.1120    0.8250 N   0  0  0  0  0  0  0  0  0  0  0  0
   -0.9380   -0.3020   -1.1390 C   0  0  2  0  0  0  0  0  0  0  0  0
   -1.2190    0.4620   -2.3170 N   0  0  0  0  0  0  0  0  0  0  0  0
   -0.6590    1.7750   -2.3510 C   0  0  0  0  0  0  0  0  0  0  0  0
  1  2  1  0
  2  3  1  0
  3  4  1  1
  3  5  1  0
  3 18  1  0
  5  6  1  0
  6  7  1  0
  7  8  1  0
  8  9  1  0
  9 10  1  6
  9 18  1  0
 10 11  1  0
 11 12  1  0
 12 13  2  0
 12 17  1  0
 13 14  1  0
 14 15  1  0
 15 16  2  0
 15 17  1  0
 18 19  1  6
 19 20  1  0
M  CHG  1  19   1
M  END
