
     RDKit          3D

 21 22  0  0  0  0  0  0  0  0999 V2000
   -4.0090    3.1830    0.1290 C   0  0  0  0  0  0  0  0  0  0  0  0
   -2.8610    2.3580    0.0730 O   0  0  0  0  0  0  0  0  0  0  0  0
   -2.9760    0.9650    0.0660 C   0  0  0  0  0  0  0  0  0  0  0  0
   -4.2060    0.3470    0.1130 C   0  0  0  0  0  0  0  0  0  0  0  0
   -4.3170   -1.0270    0.1060 C   0  0  0  0  0  0  0  0  0  0  0  0
   -3.1510   -1.7670    0.0500 C   0  0  0  0  0  0  0  0  0  0  0  0
   -3.3020   -3.1620    0.0440 O   0  0  0  0  0  0  0  0  0  0  0  0
   -1.9280   -1.1550    0.0030 C   0  0  0  0  0  0  0  0  0  0  0  0
   -1.8240    0.2090    0.0100 C   0  0  0  0  0  0  0  0  0  0  0  0
   -0.5100    0.8830   -0.0410 C   0  0  0  0  0  0  0  0  0  0  0  0
   -0.4370    2.1310   -0.0330 O   0  0  0  0  0  0  0  0  0  0  0  0
    0.6670    0.1590   -0.0970 O   0  0  0  0  0  0  0  0  0  0  0  0
    1.9360    0.8290   -0.1460 C   0  0  0  0  0  0  0  0  0  0  0  0
    3.0420   -0.1570   -0.2020 C   0  0  0  0  0  0  0  0  0  0  0  0
    2.7710   -1.5210   -0.2020 C   0  0  0  0  0  0  0  0  0  0  0  0
    3.7910   -2.4480   -0.2540 C   0  0  0  0  0  0  0  0  0  0  0  0
    5.0460   -1.9650   -0.3040 N   0  0  0  0  0  0  0  0  0  0  0  0
    6.0780   -2.8890   -0.3560 O   0  0  0  0  0  0  0  0  0  0  0  0
    5.3410   -0.6690   -0.3050 C   0  0  0  0  0  0  0  0  0  0  0  0
    4.3420    0.2800   -0.2540 C   0  0  0  0  0  0  0  0  0  0  0  0
    4.6110    1.6320   -0.2540 O   0  0  0  0  0  0  0  0  0  0  0  0
  1  2  1  0
  2  3  1  0
  3  4  2  0
  3  9  1  0
  4  5  1  0
  5  6  2  0
  6  7  1  0
  6  8  1  0
  8  9  2  0
  9 10  1  0
 10 11  2  0
 10 12  1  0
 12 13  1  0
 13 14  1  0
 14 15  2  0
 14 20  1  0
 15 16  1  0
 16 17  2  0
 17 18  1  0
 17 19  1  0
 19 20  2  0
 20 21  1  0
M  CHG  2  17   1  18  -1
M  END
