
     RDKit          3D

 20 22  0  0  0  0  0  0  0  0999 V2000
   -1.9680   -2.4570    0.6760 C   0  0  0  0  0  0  0  0  0  0  0  0
   -2.4850   -1.6680   -0.5170 C   0  0  1  0  0  0  0  0  0  0  0  0
   -3.9080   -1.8540   -0.5380 N   0  0  0  0  0  0  0  0  0  0  0  0
   -2.2690   -0.2300   -0.1680 C   0  0  0  0  0  0  0  0  0  0  0  0
   -3.1080    0.7570   -0.0990 C   0  0  0  0  0  0  0  0  0  0  0  0
   -4.5990    0.9400   -0.3180 C   0  0  0  0  0  0  0  0  0  0  0  0
   -4.7950    2.3370   -0.0760 N   0  0  0  0  0  0  0  0  0  0  0  0
   -3.6920    2.9430    0.2490 C   0  0  0  0  0  0  0  0  0  0  0  0
   -2.5990    1.9810    0.2570 N   0  0  0  0  0  0  0  0  0  0  0  0
   -1.2550    2.0630    0.5140 N   0  0  0  0  0  0  0  0  0  0  0  0
   -0.6460    0.4290    0.2740 S   0  0  1  0  0  0  0  0  0  0  0  0
   -0.3870    0.0010    1.5870 O   0  0  0  0  0  0  0  0  0  0  0  0
    0.3490    0.5570   -0.8680 N   0  0  0  0  0  0  0  0  0  0  0  0
    1.5620   -0.1530   -1.1510 C   0  0  0  0  0  0  0  0  0  0  0  0
    2.6800    0.2810   -0.2290 C   0  0  1  0  0  0  0  0  0  0  0  0
    2.9250    1.7700   -0.2300 C   0  0  0  0  0  0  0  0  0  0  0  0
    2.6590   -0.4070    1.0910 C   0  0  0  0  0  0  0  0  0  0  0  0
    4.0330   -1.0770    1.2940 C   0  0  0  0  0  0  0  0  0  0  0  0
    4.8860   -0.2450    0.3370 C   0  0  0  0  0  0  0  0  0  0  0  0
    3.9730   -0.2770   -0.8870 C   0  0  0  0  0  0  0  0  0  0  0  0
  2  1  1  1
  2  3  1  0
  2  4  1  0
  4  5  2  0
  4 11  1  0
  5  6  1  0
  5  9  1  0
  6  7  1  0
  7  8  2  0
  8  9  1  0
  9 10  1  0
 10 11  2  0
 11 12  2  0
 11 13  1  6
 13 14  1  0
 14 15  1  0
 15 16  1  1
 15 17  1  0
 15 20  1  0
 17 18  1  0
 18 19  1  0
 19 20  1  0
M  CHG  1   7   1
M  END
