
     RDKit          3D

 21 22  0  0  0  0  0  0  0  0999 V2000
   -3.0090   -2.8810    0.7580 C   0  0  0  0  0  0  0  0  0  0  0  0
   -1.9680   -1.9740    0.5730 O   0  0  0  0  0  0  0  0  0  0  0  0
   -2.1500   -0.6310    0.2920 C   0  0  0  0  0  0  0  0  0  0  0  0
   -3.4310   -0.1720    0.1920 C   0  0  0  0  0  0  0  0  0  0  0  0
   -3.7040    1.1570   -0.0860 C   0  0  0  0  0  0  0  0  0  0  0  0
   -2.6300    1.9950   -0.2580 C   0  0  0  0  0  0  0  0  0  0  0  0
   -2.8780    3.4130   -0.5540 C   0  0  0  0  0  0  0  0  0  0  0  0
   -1.9310    4.2220   -0.7200 O   0  0  0  0  0  0  0  0  0  0  0  0
   -4.1730    3.9030   -0.6600 O   0  0  0  0  0  0  0  0  0  0  0  0
   -1.3300    1.5680   -0.1650 C   0  0  0  0  0  0  0  0  0  0  0  0
   -1.0530    0.2490    0.1120 C   0  0  0  0  0  0  0  0  0  0  0  0
    0.1340   -0.2750    0.2250 O   0  0  0  0  0  0  0  0  0  0  0  0
    1.4470   -0.1560    0.2040 C   0  0  0  0  0  0  0  0  0  0  0  0
    2.1450    1.0070   -0.0370 C   0  0  0  0  0  0  0  0  0  0  0  0
    3.5460    1.0340   -0.0380 C   0  0  0  0  0  0  0  0  0  0  0  0
    4.2730   -0.1030    0.2010 C   0  0  0  0  0  0  0  0  0  0  0  0
    5.6840    0.0080    0.1830 N   0  0  0  0  0  0  0  0  0  0  0  0
    6.3660    0.1130    1.2180 O   0  0  0  0  0  0  0  0  0  0  0  0
    3.5950   -1.2750    0.4440 C   0  0  0  0  0  0  0  0  0  0  0  0
    2.2270   -1.3180    0.4490 C   0  0  0  0  0  0  0  0  0  0  0  0
    1.6420   -2.5470    0.7030 O   0  0  0  0  0  0  0  0  0  0  0  0
  1  2  1  0
  2  3  1  0
  3  4  2  0
  3 11  1  0
  4  5  1  0
  5  6  2  0
  6  7  1  0
  6 10  1  0
  7  8  2  0
  7  9  1  0
 10 11  2  0
 11 12  1  0
 12 13  1  0
 13 14  2  0
 13 20  1  0
 14 15  1  0
 15 16  2  0
 16 17  1  0
 16 19  1  0
 17 18  2  0
 19 20  2  0
 20 21  1  0
M  CHG  2   9  -1  17   1
M  END
