
     RDKit          3D

 20 22  0  0  0  0  0  0  0  0999 V2000
   -2.5100   -1.5300    2.9440 O   0  0  0  0  0  0  0  0  0  0  0  0
   -2.6030   -2.1270    1.8430 C   0  0  0  0  0  0  0  0  0  0  0  0
   -3.2200   -3.3710    1.8260 O   0  0  0  0  0  0  0  0  0  0  0  0
   -2.0730   -1.4910    0.7010 N   0  0  0  0  0  0  0  0  0  0  0  0
   -1.4550   -0.2130    0.8100 C   0  0  2  0  0  0  0  0  0  0  0  0
   -2.2540    0.8060    0.0430 C   0  0  0  0  0  0  0  0  0  0  0  0
   -2.6080    2.0810    0.4670 C   0  0  0  0  0  0  0  0  0  0  0  0
   -3.3320    2.6660   -0.5420 C   0  0  0  0  0  0  0  0  0  0  0  0
   -3.4010    1.7380   -1.5520 C   0  0  0  0  0  0  0  0  0  0  0  0
   -2.7540    0.6680   -1.1590 O   0  0  0  0  0  0  0  0  0  0  0  0
   -0.0560   -0.1790    0.3550 C   0  0  0  0  0  0  0  0  0  0  0  0
    0.6170    0.7250   -0.4420 C   0  0  0  0  0  0  0  0  0  0  0  0
    1.9230    0.3010   -0.5710 C   0  0  0  0  0  0  0  0  0  0  0  0
    3.0400    0.8080   -1.2470 C   0  0  0  0  0  0  0  0  0  0  0  0
    4.2440    0.1370   -1.1830 C   0  0  0  0  0  0  0  0  0  0  0  0
    5.3680    0.6250   -1.8490 O   0  0  0  0  0  0  0  0  0  0  0  0
    4.3260   -1.0330   -0.4470 C   0  0  0  0  0  0  0  0  0  0  0  0
    3.2050   -1.5120    0.2130 C   0  0  0  0  0  0  0  0  0  0  0  0
    2.0020   -0.8620    0.1620 C   0  0  0  0  0  0  0  0  0  0  0  0
    0.8320   -1.0880    0.6710 O   0  0  0  0  0  0  0  0  0  0  0  0
  1  2  2  0
  2  3  1  0
  2  4  1  0
  5  4  1  6
  5  6  1  0
  5 11  1  0
  6  7  2  0
  6 10  1  0
  7  8  1  0
  8  9  2  0
  9 10  1  0
 11 12  2  0
 11 20  1  0
 12 13  1  0
 13 14  2  0
 13 19  1  0
 14 15  1  0
 15 16  1  0
 15 17  2  0
 17 18  1  0
 18 19  2  0
 19 20  1  0
M  END
