
     RDKit          3D

 20 22  0  0  0  0  0  0  0  0999 V2000
    4.1730   -1.3800    0.0960 O   0  0  0  0  0  0  0  0  0  0  0  0
    2.9290   -1.3550    0.1160 C   0  0  0  0  0  0  0  0  0  0  0  0
    2.2030   -2.5110    0.3620 O   0  0  0  0  0  0  0  0  0  0  0  0
    0.8560   -2.8940    0.2100 C   0  0  0  0  0  0  0  0  0  0  0  0
    0.1730   -2.1280   -0.9080 C   0  0  0  0  0  0  0  0  0  0  0  0
   -0.0730   -0.7280   -0.5420 C   0  0  0  0  0  0  0  0  0  0  0  0
   -1.2640   -0.2670   -0.2430 C   0  0  0  0  0  0  0  0  0  0  0  0
   -2.4060   -1.1610   -0.2630 C   0  0  0  0  0  0  0  0  0  0  0  0
   -3.6410   -0.7670    0.0740 C   0  0  0  0  0  0  0  0  0  0  0  0
   -3.8270    0.6100    0.4630 C   0  0  0  0  0  0  0  0  0  0  0  0
   -2.8530    1.4710    0.4890 C   0  0  0  0  0  0  0  0  0  0  0  0
   -1.4340    1.1610    0.1190 C   0  0  0  0  0  0  0  0  0  0  0  0
    1.0230    0.2810   -0.4320 C   0  0  0  0  0  0  0  0  0  0  0  0
    0.9510    1.5500   -0.5790 O   0  0  0  0  0  0  0  0  0  0  0  0
    2.0950    2.1590   -0.4160 C   0  0  0  0  0  0  0  0  0  0  0  0
    2.3480    3.5750   -0.5130 N   0  0  0  0  0  0  0  0  0  0  0  0
    3.5000    3.9750   -0.3260 O   0  0  0  0  0  0  0  0  0  0  0  0
    1.3730    4.4690   -0.8010 O   0  0  0  0  0  0  0  0  0  0  0  0
    3.0210    1.1800   -0.1300 C   0  0  0  0  0  0  0  0  0  0  0  0
    2.3470   -0.0290   -0.1380 C   0  0  0  0  0  0  0  0  0  0  0  0
  1  2  2  0
  2  3  1  0
  2 20  1  0
  3  4  1  0
  4  5  1  0
  5  6  1  0
  6  7  2  3
  6 13  1  0
  7  8  1  0
  7 12  1  0
  8  9  2  0
  9 10  1  0
 10 11  2  0
 11 12  1  0
 13 14  1  0
 13 20  2  0
 14 15  1  0
 15 16  1  0
 15 19  2  0
 16 17  2  0
 16 18  1  0
 19 20  1  0
M  CHG  2  16   1  18  -1
M  END
