
     RDKit          3D

 16 16  0  0  0  0  0  0  0  0999 V2000
    4.8350    0.0980   -0.7070 C   0  0  0  0  0  0  0  0  0  0  0  0
    3.4120    0.5440   -0.6650 C   0  0  0  0  0  0  0  0  0  0  0  0
    3.1430    1.7370   -0.8710 O   0  0  0  0  0  0  0  0  0  0  0  0
    2.3670   -0.3800   -0.3940 N   0  0  0  0  0  0  0  0  0  0  0  0
    0.9700   -0.0140   -0.3390 C   0  0  1  0  0  0  0  0  0  0  0  0
    0.1540   -0.7230   -1.3970 C   0  0  2  0  0  0  0  0  0  0  0  0
    0.7880   -0.6770   -2.6370 O   0  0  0  0  0  0  0  0  0  0  0  0
   -1.1980   -0.0330   -1.4480 C   0  0  0  0  0  0  0  0  0  0  0  0
   -2.0660   -0.7270   -0.5210 N   0  0  0  0  0  0  0  0  0  0  0  0
   -2.1340   -0.1300    0.7650 C   0  0  2  0  0  0  0  0  0  0  0  0
   -3.2770    0.8600    0.8700 C   0  0  0  0  0  0  0  0  0  0  0  0
   -4.4940    0.2250    0.6330 O   0  0  0  0  0  0  0  0  0  0  0  0
   -0.8790    0.5870    1.1860 C   0  0  1  0  0  0  0  0  0  0  0  0
   -1.0320    0.8680    2.5630 O   0  0  0  0  0  0  0  0  0  0  0  0
    0.3620   -0.2610    1.0140 C   0  0  2  0  0  0  0  0  0  0  0  0
    1.3000    0.0800    1.9990 O   0  0  0  0  0  0  0  0  0  0  0  0
  1  2  1  0
  2  3  2  0
  2  4  1  0
  5  4  1  1
  5  6  1  0
  5 15  1  0
  6  7  1  6
  6  8  1  0
  8  9  1  0
  9 10  1  0
 10 11  1  6
 10 13  1  0
 11 12  1  0
 13 14  1  1
 13 15  1  0
 15 16  1  1
M  CHG  1   9   1
M  END
