
     RDKit          3D

 15 15  0  0  0  0  0  0  0  0999 V2000
   -2.4460    0.7960    0.8860 N   0  0  0  0  0  0  0  0  0  0  0  0
   -2.0320   -0.2090   -0.0670 C   0  0  1  0  0  0  0  0  0  0  0  0
   -2.8090   -1.4980    0.1480 C   0  0  0  0  0  0  0  0  0  0  0  0
   -4.1670   -1.3220    0.0000 O   0  0  0  0  0  0  0  0  0  0  0  0
   -2.2730    0.3300   -1.4610 C   0  0  0  0  0  0  0  0  0  0  0  0
   -3.6280    0.6010   -1.5950 O   0  0  0  0  0  0  0  0  0  0  0  0
   -0.5660   -0.5510    0.1420 C   0  0  2  0  0  0  0  0  0  0  0  0
   -0.4560   -1.0320    1.4430 O   0  0  0  0  0  0  0  0  0  0  0  0
    0.3170    0.6550   -0.0780 C   0  0  0  0  0  0  0  0  0  0  0  0
    1.6820    0.3120    0.1560 N   0  0  0  0  0  0  0  0  0  0  0  0
    2.5740    1.4090   -0.0300 C   0  0  0  0  0  0  0  0  0  0  0  0
    4.0250    1.0550    0.0190 C   0  0  0  0  0  0  0  0  0  0  0  0
    4.2530   -0.2980    0.2370 O   0  0  0  0  0  0  0  0  0  0  0  0
    3.5700   -0.9950   -0.7470 C   0  0  0  0  0  0  0  0  0  0  0  0
    2.1080   -0.9240   -0.4310 C   0  0  0  0  0  0  0  0  0  0  0  0
  2  1  1  1
  2  3  1  0
  2  5  1  0
  2  7  1  0
  3  4  1  0
  5  6  1  0
  7  8  1  1
  7  9  1  0
  9 10  1  0
 10 11  1  0
 10 15  1  0
 11 12  1  0
 12 13  1  0
 13 14  1  0
 14 15  1  0
M  CHG  1   1   1
M  END
