
     RDKit          3D

 15 15  0  0  0  0  0  0  0  0999 V2000
   -1.9220   -0.2830    2.2840 C   0  0  0  0  0  0  0  0  0  0  0  0
   -1.6640   -0.0600    0.8100 C   0  0  1  0  0  0  0  0  0  0  0  0
   -2.9780    0.0200    0.1300 C   0  0  0  0  0  0  0  0  0  0  0  0
   -2.9450    0.3800   -1.3280 C   0  0  0  0  0  0  0  0  0  0  0  0
   -2.4640    1.6870   -1.4720 O   0  0  0  0  0  0  0  0  0  0  0  0
   -1.0150    1.1290    0.6520 O   0  0  0  0  0  0  0  0  0  0  0  0
    0.3720    0.8130    0.6660 C   0  0  0  0  0  0  0  0  0  0  0  0
    0.2570   -0.3780   -0.3990 C   0  0  1  0  0  0  0  0  0  0  0  0
    1.5570   -1.0370   -0.3360 O   0  0  0  0  0  0  0  0  0  0  0  0
    2.3700   -0.1630   -0.9260 C   0  0  0  0  0  0  0  0  0  0  0  0
    3.4030    0.2610    0.2370 C   0  0  0  0  0  0  0  0  0  0  0  0
    3.9010    1.3610   -0.3360 O   0  0  0  0  0  0  0  0  0  0  0  0
    5.1450    1.6000   -0.5850 N   0  0  0  0  0  0  0  0  0  0  0  0
   -0.7540   -1.1510    0.3040 C   0  0  2  0  0  0  0  0  0  0  0  0
   -1.3310   -2.1940   -0.4840 N   0  0  0  0  0  0  0  0  0  0  0  0
  2  1  1  1
  2  3  1  0
  2  6  1  0
  2 14  1  0
  3  4  1  0
  4  5  1  0
  6  7  1  0
  7  8  1  0
  8  9  1  1
  8 14  1  0
  9 10  1  0
 10 11  1  0
 11 12  1  0
 12 13  1  0
 14 15  1  6
M  CHG  1  15   1
M  END
