
     RDKit          3D

 28 31  0  0  0  0  0  0  0  0999 V2000
    9.0850   -0.9880    0.3880 C   0  0  0  0  0  0  0  0  0  0  0  0
    7.6370   -1.1810    0.7400 C   0  0  0  0  0  0  0  0  0  0  0  0
    7.0380   -2.2910    1.2970 C   0  0  0  0  0  0  0  0  0  0  0  0
    5.7430   -1.9810    1.4190 N   0  0  0  0  0  0  0  0  0  0  0  0
    5.5330   -0.7320    0.9600 C   0  0  0  0  0  0  0  0  0  0  0  0
    4.2230    0.0080    0.9140 C   0  0  0  0  0  0  0  0  0  0  0  0
    3.4350   -0.3380   -0.6670 S   0  0  0  0  0  0  0  0  0  0  0  0
    1.8840    0.4940   -0.8090 C   0  0  0  0  0  0  0  0  0  0  0  0
    0.7110   -0.0880   -0.3960 C   0  0  0  0  0  0  0  0  0  0  0  0
   -0.5060    0.5740   -0.5110 C   0  0  0  0  0  0  0  0  0  0  0  0
   -1.6850    0.0130   -0.1070 C   0  0  0  0  0  0  0  0  0  0  0  0
   -2.9270    0.6280   -0.1990 C   0  0  0  0  0  0  0  0  0  0  0  0
   -4.0530   -0.0470    0.2630 N   0  0  0  0  0  0  0  0  0  0  0  0
   -5.3790    0.3510    0.0430 C   0  0  0  0  0  0  0  0  0  0  0  0
   -5.6590    1.3620   -0.6010 O   0  0  0  0  0  0  0  0  0  0  0  0
   -6.5050   -0.4320    0.5800 C   0  0  0  0  0  0  0  0  0  0  0  0
   -7.7700   -0.1200    0.4140 C   0  0  0  0  0  0  0  0  0  0  0  0
   -8.5660   -1.1410    1.0950 C   0  0  0  0  0  0  0  0  0  0  0  0
   -9.8130   -1.1740    1.1510 O   0  0  0  0  0  0  0  0  0  0  0  0
   -7.6920   -2.0410    1.6510 O   0  0  0  0  0  0  0  0  0  0  0  0
   -6.3570   -1.6670    1.3720 C   0  0  0  0  0  0  0  0  0  0  0  0
   -2.9230    1.8850   -0.7380 C   0  0  0  0  0  0  0  0  0  0  0  0
   -1.7370    2.5000   -1.1670 C   0  0  0  0  0  0  0  0  0  0  0  0
   -0.5410    1.8450   -1.0520 C   0  0  0  0  0  0  0  0  0  0  0  0
    0.6380    2.4250   -1.4640 C   0  0  0  0  0  0  0  0  0  0  0  0
    1.8340    1.7550   -1.3430 C   0  0  0  0  0  0  0  0  0  0  0  0
    3.4470    2.5740   -1.9180 Br  0  0  0  0  0  0  0  0  0  0  0  0
    6.7050   -0.2980    0.5640 O   0  0  0  0  0  0  0  0  0  0  0  0
  1  2  1  0
  2  3  2  0
  2 28  1  0
  3  4  1  0
  4  5  2  0
  5  6  1  0
  5 28  1  0
  6  7  1  0
  7  8  1  0
  8  9  2  0
  8 26  1  0
  9 10  1  0
 10 11  2  0
 10 24  1  0
 11 12  1  0
 12 13  1  0
 12 22  2  0
 13 14  1  0
 14 15  2  0
 14 16  1  0
 16 17  2  0
 16 21  1  0
 17 18  1  0
 18 19  2  0
 18 20  1  0
 20 21  1  0
 22 23  1  0
 23 24  2  0
 24 25  1  0
 25 26  2  0
 26 27  1  0
M  END
