
     RDKit          3D

 27 30  0  0  0  0  0  0  0  0999 V2000
   -7.3580    1.9980    2.5690 O   0  0  0  0  0  0  0  0  0  0  0  0
   -6.4090    1.8360    1.8190 C   0  0  0  0  0  0  0  0  0  0  0  0
   -4.6740    1.9760    2.5540 Br  0  0  0  0  0  0  0  0  0  0  0  0
   -6.6770    1.5500    0.4080 C   0  0  0  0  0  0  0  0  0  0  0  0
   -5.5570    1.2910   -0.3770 O   0  0  0  0  0  0  0  0  0  0  0  0
   -4.6930    0.2310   -0.1840 C   0  0  0  0  0  0  0  0  0  0  0  0
   -4.8040   -0.7300    0.7800 C   0  0  0  0  0  0  0  0  0  0  0  0
   -3.9060   -1.7690    0.9280 C   0  0  0  0  0  0  0  0  0  0  0  0
   -2.8130   -1.8650    0.0570 C   0  0  0  0  0  0  0  0  0  0  0  0
   -1.8940   -2.9700    0.2000 C   0  0  0  0  0  0  0  0  0  0  0  0
   -0.6150   -2.7840    0.2340 C   0  0  0  0  0  0  0  0  0  0  0  0
    0.1200   -1.5900    0.1540 N   0  0  0  0  0  0  0  0  0  0  0  0
    1.5040   -1.7110    0.1960 C   0  0  0  0  0  0  0  0  0  0  0  0
    2.4270   -0.5370    0.1160 C   0  0  0  0  0  0  0  0  0  0  0  0
    1.9580    0.7520   -0.0000 C   0  0  0  0  0  0  0  0  0  0  0  0
    2.8290    1.8190   -0.0740 C   0  0  0  0  0  0  0  0  0  0  0  0
    4.1960    1.6660   -0.0360 C   0  0  0  0  0  0  0  0  0  0  0  0
    4.6650    0.3770    0.0800 C   0  0  0  0  0  0  0  0  0  0  0  0
    3.7930   -0.6880    0.1530 C   0  0  0  0  0  0  0  0  0  0  0  0
    6.0290    0.1980    0.1200 O   0  0  0  0  0  0  0  0  0  0  0  0
    6.9540    1.2070   -0.2430 C   0  0  0  0  0  0  0  0  0  0  0  0
    6.4620    2.5840    0.1410 C   0  0  0  0  0  0  0  0  0  0  0  0
    5.0770    2.7360   -0.1100 O   0  0  0  0  0  0  0  0  0  0  0  0
    2.0080   -2.9170    0.3080 C   0  0  0  0  0  0  0  0  0  0  0  0
    0.6280   -4.0500    0.3740 S   0  0  0  0  0  0  0  0  0  0  0  0
   -2.6790   -0.9100   -0.9240 C   0  0  0  0  0  0  0  0  0  0  0  0
   -3.6140    0.1280   -1.0390 C   0  0  0  0  0  0  0  0  0  0  0  0
  1  2  2  0
  2  3  1  0
  2  4  1  0
  4  5  1  0
  5  6  1  0
  6  7  2  0
  6 27  1  0
  7  8  1  0
  8  9  2  0
  9 10  1  0
  9 26  1  0
 10 11  2  3
 11 12  1  0
 11 25  1  0
 12 13  1  0
 13 14  1  0
 13 24  2  0
 14 15  2  0
 14 19  1  0
 15 16  1  0
 16 17  2  0
 17 18  1  0
 17 23  1  0
 18 19  2  0
 18 20  1  0
 20 21  1  0
 21 22  1  0
 22 23  1  0
 24 25  1  0
 26 27  2  0
M  END
