
     RDKit          3D

 28 31  0  0  0  0  0  0  0  0999 V2000
   -3.0830   -2.7570    2.9820 C   0  0  0  0  0  0  0  0  0  0  0  0
   -2.9510   -2.6250    1.4960 C   0  0  1  0  0  0  0  0  0  0  0  0
   -4.5230   -2.8930    0.6540 S   0  0  0  0  0  0  0  0  0  0  0  0
   -2.3580   -1.2660    1.1670 C   0  0  0  0  0  0  0  0  0  0  0  0
   -2.2050   -1.0820   -0.3160 C   0  0  0  0  0  0  0  0  0  0  0  0
   -1.6350    0.1860   -0.7380 C   0  0  0  0  0  0  0  0  0  0  0  0
   -0.3090    0.5400   -0.7500 C   0  0  0  0  0  0  0  0  0  0  0  0
    0.8250   -0.3390   -0.3800 C   0  0  0  0  0  0  0  0  0  0  0  0
    0.6400   -1.5200   -0.0780 O   0  0  0  0  0  0  0  0  0  0  0  0
    2.1350    0.1730   -0.3700 N   0  0  0  0  0  0  0  0  0  0  0  0
    3.3350   -0.4750   -0.0560 C   0  0  0  0  0  0  0  0  0  0  0  0
    3.3690   -1.7850    0.3130 C   0  0  0  0  0  0  0  0  0  0  0  0
    4.5870   -2.3990    0.6190 C   0  0  0  0  0  0  0  0  0  0  0  0
    5.7580   -1.6680    0.5430 C   0  0  0  0  0  0  0  0  0  0  0  0
    5.7230   -0.3400    0.1690 C   0  0  0  0  0  0  0  0  0  0  0  0
    4.5090    0.2240   -0.1220 C   0  0  0  0  0  0  0  0  0  0  0  0
    4.5000    2.0580   -0.6360 Br  0  0  0  0  0  0  0  0  0  0  0  0
    7.0330    0.1530    0.1760 O   0  0  0  0  0  0  0  0  0  0  0  0
    7.8080   -0.7630    0.8960 C   0  0  0  0  0  0  0  0  0  0  0  0
    7.0960   -1.9720    0.7750 O   0  0  0  0  0  0  0  0  0  0  0  0
   -0.1940    1.8060   -1.1800 N   0  0  0  0  0  0  0  0  0  0  0  0
   -1.3980    2.3230   -1.4620 C   0  0  0  0  0  0  0  0  0  0  0  0
   -2.3190    1.3060   -1.1870 C   0  0  0  0  0  0  0  0  0  0  0  0
   -3.7480    1.5180   -1.3800 C   0  0  0  0  0  0  0  0  0  0  0  0
   -4.5170    0.5550   -1.2600 O   0  0  0  0  0  0  0  0  0  0  0  0
   -4.2710    2.8860   -1.7200 C   0  0  0  0  0  0  0  0  0  0  0  0
   -3.2320    3.8780   -1.1960 C   0  0  0  0  0  0  0  0  0  0  0  0
   -1.9460    3.6040   -1.9550 C   0  0  0  0  0  0  0  0  0  0  0  0
  2  1  1  1
  2  3  1  0
  2  4  1  0
  4  5  1  0
  5  6  1  0
  6  7  2  0
  6 23  1  0
  7  8  1  0
  7 21  1  0
  8  9  2  0
  8 10  1  0
 10 11  1  0
 11 12  2  0
 11 16  1  0
 12 13  1  0
 13 14  2  0
 14 15  1  0
 14 20  1  0
 15 16  2  0
 15 18  1  0
 16 17  1  0
 18 19  1  0
 19 20  1  0
 21 22  1  0
 22 23  2  0
 22 28  1  0
 23 24  1  0
 24 25  2  0
 24 26  1  0
 26 27  1  0
 27 28  1  0
M  END
