
     RDKit          3D

 20 21  0  0  0  0  0  0  0  0999 V2000
   -5.6740   -1.3170   -1.2270 C   0  0  0  0  0  0  0  0  0  0  0  0
   -4.7160   -0.3120   -0.6800 C   0  0  2  0  0  0  0  0  0  0  0  0
   -4.9150    1.0790   -1.2330 C   0  0  0  0  0  0  0  0  0  0  0  0
   -3.6650    1.4700   -1.7140 O   0  0  0  0  0  0  0  0  0  0  0  0
   -2.8130    0.6280   -1.0620 C   0  0  1  0  0  0  0  0  0  0  0  0
   -1.3570    0.6940   -1.4280 C   0  0  0  0  0  0  0  0  0  0  0  0
   -1.0680    0.3970    0.0500 C   0  0  1  0  0  0  0  0  0  0  0  0
    0.0550    1.0380    0.5690 O   0  0  0  0  0  0  0  0  0  0  0  0
    1.0380    0.3230    1.2380 C   0  0  0  0  0  0  0  0  0  0  0  0
    0.8560   -0.9180    1.3460 O   0  0  0  0  0  0  0  0  0  0  0  0
    2.1970    0.9320    1.7830 N   0  0  0  0  0  0  0  0  0  0  0  0
    3.2210    0.1770    2.4810 C   0  0  0  0  0  0  0  0  0  0  0  0
    3.8270   -0.8670    1.6000 C   0  0  0  0  0  0  0  0  0  0  0  0
    4.3990   -0.2230    0.5020 O   0  0  0  0  0  0  0  0  0  0  0  0
    4.9540   -1.0820   -0.3210 O   0  0  0  0  0  0  0  0  0  0  0  0
    6.2860   -0.9000   -0.3900 N   0  0  0  0  0  0  0  0  0  0  0  0
    6.6620   -0.7780   -1.6850 O   0  0  0  0  0  0  0  0  0  0  0  0
    7.2230    0.4080   -1.8100 O   0  0  0  0  0  0  0  0  0  0  0  0
   -2.4050    1.0700    0.3500 C   0  0  0  0  0  0  0  0  0  0  0  0
   -3.3830   -0.6280   -1.0320 O   0  0  0  0  0  0  0  0  0  0  0  0
  2  1  1  6
  2  3  1  0
  2 20  1  0
  3  4  1  0
  4  5  1  0
  5  6  1  6
  5 19  1  0
  5 20  1  0
  6  7  1  0
  7  8  1  1
  7 19  1  0
  8  9  1  0
  9 10  2  0
  9 11  1  0
 11 12  1  0
 12 13  1  0
 13 14  1  0
 14 15  1  0
 15 16  1  0
 16 17  1  0
 17 18  1  0
M  END
