
     RDKit          3D

 19 20  0  0  0  0  0  0  0  0999 V2000
    1.2060    0.8170    1.1560 O   0  0  0  0  0  0  0  0  0  0  0  0
    0.7600   -0.3350    0.8860 C   0  0  0  0  0  0  0  0  0  0  0  0
    1.7030   -1.4150    0.5450 C   0  0  0  0  0  0  0  0  0  0  0  0
    3.1460   -0.9940    0.5480 C   0  0  0  0  0  0  0  0  0  0  0  0
    3.4710    0.0470   -0.3730 N   0  0  0  0  0  0  0  0  0  0  0  0
    3.4350    1.3680   -0.1200 O   0  0  0  0  0  0  0  0  0  0  0  0
    3.5860    2.0360   -1.3120 C   0  0  0  0  0  0  0  0  0  0  0  0
    4.1900    1.1370   -2.2310 O   0  0  0  0  0  0  0  0  0  0  0  0
    3.8890   -0.1350   -1.7140 C   0  0  0  0  0  0  0  0  0  0  0  0
    3.9980   -1.1960   -2.3920 O   0  0  0  0  0  0  0  0  0  0  0  0
   -0.6160   -0.5790    0.9100 N   0  0  0  0  0  0  0  0  0  0  0  0
   -1.2720   -1.8280    0.6270 C   0  0  0  0  0  0  0  0  0  0  0  0
   -2.7330   -1.5010    0.3500 C   0  0  0  0  0  0  0  0  0  0  0  0
   -2.7100    0.0260    0.1990 C   0  0  2  0  0  0  0  0  0  0  0  0
   -2.3020    0.3070   -1.1010 O   0  0  0  0  0  0  0  0  0  0  0  0
   -3.4670    1.2600   -1.9580 P   0  0  0  0  0  0  0  0  0  0  0  0
   -2.7560    2.7600   -2.4180 O   0  0  0  0  0  0  0  0  0  0  0  0
   -4.8740    1.5730   -1.0200 O   0  0  0  0  0  0  0  0  0  0  0  0
   -1.6470    0.3740    1.2230 C   0  0  0  0  0  0  0  0  0  0  0  0
  1  2  2  0
  2  3  1  0
  2 11  1  0
  3  4  1  0
  4  5  1  0
  5  6  1  0
  5  9  1  0
  6  7  1  0
  7  8  1  0
  8  9  1  0
  9 10  2  0
 11 12  1  0
 11 19  1  0
 12 13  1  0
 13 14  1  0
 14 15  1  6
 14 19  1  0
 15 16  1  0
 16 17  1  0
 16 18  1  0
M  END
