
     RDKit          3D

 20 22  0  0  0  0  0  0  0  0999 V2000
   -3.5480    3.0080   -0.6980 O   0  0  0  0  0  0  0  0  0  0  0  0
   -3.2650    1.7900   -0.5830 C   0  0  0  0  0  0  0  0  0  0  0  0
   -4.3370    0.9110   -0.3680 O   0  0  0  0  0  0  0  0  0  0  0  0
   -4.3080   -0.5000   -0.3320 C   0  0  0  0  0  0  0  0  0  0  0  0
   -2.9120   -0.9900   -0.7380 C   0  0  0  0  0  0  0  0  0  0  0  0
   -2.0570   -0.7030    0.2990 O   0  0  0  0  0  0  0  0  0  0  0  0
   -1.2650    0.4170    0.0830 C   0  0  1  0  0  0  0  0  0  0  0  0
   -1.9250    1.4140   -0.6770 O   0  0  0  0  0  0  0  0  0  0  0  0
   -0.9110    0.9570    1.4420 C   0  0  0  0  0  0  0  0  0  0  0  0
   -1.7030    1.5240    2.2370 O   0  0  0  0  0  0  0  0  0  0  0  0
    0.4210    0.7040    1.6180 O   0  0  0  0  0  0  0  0  0  0  0  0
    1.0070    0.1630    0.4980 N   0  0  0  0  0  0  0  0  0  0  0  0
    2.3980   -0.2060    0.3910 C   0  0  0  0  0  0  0  0  0  0  0  0
    3.1860    0.3480   -0.5140 C   0  0  0  0  0  0  0  0  0  0  0  0
    4.6230    0.0250   -0.6870 C   0  0  0  0  0  0  0  0  0  0  0  0
    5.0400   -0.9340    0.2210 O   0  0  0  0  0  0  0  0  0  0  0  0
    4.2080   -1.5030    1.1590 C   0  0  0  0  0  0  0  0  0  0  0  0
    2.9740   -1.1750    1.2520 N   0  0  0  0  0  0  0  0  0  0  0  0
    0.0210    0.0320   -0.5180 C   0  0  0  0  0  0  0  0  0  0  0  0
    0.1710   -0.3350   -1.7090 O   0  0  0  0  0  0  0  0  0  0  0  0
  1  2  2  0
  2  3  1  0
  2  8  1  0
  3  4  1  0
  4  5  1  0
  5  6  1  0
  7  6  1  1
  7  8  1  0
  7  9  1  0
  7 19  1  0
  9 10  2  0
  9 11  1  0
 11 12  1  0
 12 13  1  0
 12 19  1  0
 13 14  2  0
 13 18  1  0
 14 15  1  0
 15 16  1  0
 16 17  1  0
 17 18  2  0
 19 20  2  0
M  END
