
     RDKit          3D

 20 20  0  0  0  0  0  0  0  0999 V2000
   -2.6050   -3.8920    0.7130 C   0  0  0  0  0  0  0  0  0  0  0  0
   -1.7190   -2.8240    0.4670 O   0  0  0  0  0  0  0  0  0  0  0  0
   -2.1420   -1.4760    0.5160 C   0  0  0  0  0  0  0  0  0  0  0  0
   -3.3260   -1.2970    0.7850 O   0  0  0  0  0  0  0  0  0  0  0  0
   -1.2090   -0.3960    0.2580 C   0  0  0  0  0  0  0  0  0  0  0  0
    0.1550   -0.6060   -0.0520 C   0  0  0  0  0  0  0  0  0  0  0  0
    0.7270    0.6060   -0.2300 C   0  0  0  0  0  0  0  0  0  0  0  0
    2.0660    0.9250   -0.5540 N   0  0  0  0  0  0  0  0  0  0  0  0
    3.0720   -0.0530   -0.7520 C   0  0  0  0  0  0  0  0  0  0  0  0
    2.7640   -1.2590   -0.6360 O   0  0  0  0  0  0  0  0  0  0  0  0
    4.3950    0.3280   -1.0750 O   0  0  0  0  0  0  0  0  0  0  0  0
    5.3380   -0.6700   -1.2580 C   0  0  0  0  0  0  0  0  0  0  0  0
    4.9580   -1.8600   -1.1260 O   0  0  0  0  0  0  0  0  0  0  0  0
    6.6740   -0.3630   -1.5810 O   0  0  0  0  0  0  0  0  0  0  0  0
   -0.2260    1.5630   -0.0430 N   0  0  0  0  0  0  0  0  0  0  0  0
   -1.4240    0.9630    0.2580 C   0  0  0  0  0  0  0  0  0  0  0  0
   -2.6720    1.6570    0.5240 C   0  0  0  0  0  0  0  0  0  0  0  0
   -3.7320    1.0370    0.7940 O   0  0  0  0  0  0  0  0  0  0  0  0
   -2.8320    3.1230    0.5070 C   0  0  0  0  0  0  0  0  0  0  0  0
   -1.7470    3.8810    0.2260 O   0  0  0  0  0  0  0  0  0  0  0  0
  1  2  1  0
  2  3  1  0
  3  4  2  0
  3  5  1  0
  5  6  1  0
  5 16  2  0
  6  7  2  0
  7  8  1  0
  7 15  1  0
  8  9  1  0
  9 10  2  0
  9 11  1  0
 11 12  1  0
 12 13  2  0
 12 14  1  0
 15 16  1  0
 16 17  1  0
 17 18  2  0
 17 19  1  0
 19 20  1  0
M  END
