
     RDKit          3D

 22 22  0  0  0  0  0  0  0  0999 V2000
   -0.6120   -4.7910    0.1370 C   0  0  0  0  0  0  0  0  0  0  0  0
   -0.8380   -3.3300    0.0460 C   0  0  0  0  0  0  0  0  0  0  0  0
   -2.1220   -2.8940   -0.0200 N   0  0  0  0  0  0  0  0  0  0  0  0
   -2.3270   -1.5770   -0.1020 C   0  0  0  0  0  0  0  0  0  0  0  0
   -1.3140   -0.6330   -0.1230 C   0  0  0  0  0  0  0  0  0  0  0  0
   -1.5520    0.8280   -0.2150 C   0  0  0  0  0  0  0  0  0  0  0  0
   -2.9200    0.9710   -0.2670 O   0  0  0  0  0  0  0  0  0  0  0  0
   -3.6180    2.3330   -0.3650 P   0  0  0  0  0  0  0  0  0  0  0  0
   -5.1360    1.7430   -0.3950 O   0  0  0  0  0  0  0  0  0  0  0  0
   -4.0560    3.8090   -0.3010 O   0  0  0  0  0  0  0  0  0  0  0  0
   -2.9140    2.5870    1.1480 O   0  0  0  0  0  0  0  0  0  0  0  0
   -0.0140   -1.0910   -0.0550 C   0  0  0  0  0  0  0  0  0  0  0  0
    1.0720   -0.1250   -0.0750 C   0  0  0  0  0  0  0  0  0  0  0  0
    2.2940   -0.5350   -0.0130 N   0  0  0  0  0  0  0  0  0  0  0  0
    3.4290    0.3420   -0.0260 C   0  0  1  0  0  0  0  0  0  0  0  0
    3.4480    1.1760   -1.2930 C   0  0  0  0  0  0  0  0  0  0  0  0
    4.5540    2.0180   -1.2870 O   0  0  0  0  0  0  0  0  0  0  0  0
    3.4860    1.2070    1.1840 C   0  0  0  0  0  0  0  0  0  0  0  0
    2.5850    1.0840    2.0400 O   0  0  0  0  0  0  0  0  0  0  0  0
    4.5260    2.1090    1.3180 O   0  0  0  0  0  0  0  0  0  0  0  0
    0.2060   -2.4340    0.0290 C   0  0  0  0  0  0  0  0  0  0  0  0
    1.4970   -2.9180    0.0980 O   0  0  0  0  0  0  0  0  0  0  0  0
  1  2  1  0
  2  3  2  0
  2 21  1  0
  3  4  1  0
  4  5  2  0
  5  6  1  0
  5 12  1  0
  6  7  1  0
  7  8  1  0
  8  9  1  0
  8 10  1  0
  8 11  1  0
 12 13  1  0
 12 21  2  0
 13 14  2  3
 14 15  1  0
 15 16  1  6
 15 18  1  0
 16 17  1  0
 18 19  2  0
 18 20  1  0
 21 22  1  0
M  END
