
     RDKit          3D

 20 20  0  0  0  0  0  0  0  0999 V2000
    4.0720    1.7520   -0.9050 N   0  0  0  0  0  0  0  0  0  0  0  0
    3.2740    0.9040   -0.0350 C   0  0  0  0  0  0  0  0  0  0  0  0
    3.9300    0.2690    0.7970 O   0  0  0  0  0  0  0  0  0  0  0  0
    1.8370    0.8700   -0.2020 C   0  0  0  0  0  0  0  0  0  0  0  0
    1.4190    1.5500   -1.1630 O   0  0  0  0  0  0  0  0  0  0  0  0
    0.9780    0.1470    0.6180 N   0  0  0  0  0  0  0  0  0  0  0  0
    1.7220   -0.4730    1.7920 C   0  0  0  0  0  0  0  0  0  0  0  0
    2.2150   -1.7620    1.3210 C   0  0  0  0  0  0  0  0  0  0  0  0
    2.8890   -2.5580    2.0530 O   0  0  0  0  0  0  0  0  0  0  0  0
    1.9710   -2.1970    0.0320 O   0  0  0  0  0  0  0  0  0  0  0  0
   -0.3980   -0.1090    0.5760 C   0  0  0  0  0  0  0  0  0  0  0  0
   -0.7110   -0.8310    1.6920 O   0  0  0  0  0  0  0  0  0  0  0  0
   -1.5420    0.1330   -0.2340 C   0  0  0  0  0  0  0  0  0  0  0  0
   -1.5730    0.7460   -1.3530 C   0  0  0  0  0  0  0  0  0  0  0  0
   -2.7320    1.0210   -2.2290 C   0  0  0  0  0  0  0  0  0  0  0  0
   -2.5950    1.6580   -3.3310 O   0  0  0  0  0  0  0  0  0  0  0  0
   -3.9960    0.6100   -1.9060 O   0  0  0  0  0  0  0  0  0  0  0  0
   -4.0300   -0.8650   -0.8870 P   0  0  0  0  0  0  0  0  0  0  0  0
   -5.5940   -1.0360   -0.1780 O   0  0  0  0  0  0  0  0  0  0  0  0
   -2.8300   -0.4080    0.4300 C   0  0  0  0  0  0  0  0  0  0  0  0
  1  2  1  0
  2  3  2  0
  2  4  1  0
  4  5  2  0
  4  6  1  0
  6  7  1  0
  6 11  1  0
  7  8  1  0
  8  9  2  0
  8 10  1  0
 11 12  2  0
 11 13  1  0
 13 14  2  0
 13 20  1  0
 14 15  1  0
 15 16  2  0
 15 17  1  0
 17 18  1  0
 18 19  1  0
 18 20  1  0
M  END
