
     RDKit          3D

 20 21  0  0  0  0  0  0  0  0999 V2000
   -5.9480    1.4590   -0.9010 C   0  0  0  0  0  0  0  0  0  0  0  0
   -4.5880    0.8470   -0.9350 C   0  0  2  0  0  0  0  0  0  0  0  0
   -4.6160   -0.6540   -0.6290 C   0  0  0  0  0  0  0  0  0  0  0  0
   -3.7780   -0.7820    0.4890 O   0  0  0  0  0  0  0  0  0  0  0  0
   -2.9350    0.2740    0.2770 C   0  0  1  0  0  0  0  0  0  0  0  0
   -1.8210    0.4590    1.2480 C   0  0  0  0  0  0  0  0  0  0  0  0
   -1.0370    1.0040   -0.0440 C   0  0  1  0  0  0  0  0  0  0  0  0
    0.3080    0.8800    0.1690 O   0  0  0  0  0  0  0  0  0  0  0  0
    1.0160   -0.2480    0.4600 C   0  0  0  0  0  0  0  0  0  0  0  0
    0.3930   -1.3750    0.5720 O   0  0  0  0  0  0  0  0  0  0  0  0
    2.3480   -0.1270    0.7030 N   0  0  0  0  0  0  0  0  0  0  0  0
    3.3730   -1.0720    0.9600 C   0  0  0  0  0  0  0  0  0  0  0  0
    3.7330   -1.6670   -0.4200 C   0  0  0  0  0  0  0  0  0  0  0  0
    5.0740   -2.1210   -0.1680 O   0  0  0  0  0  0  0  0  0  0  0  0
    5.6710   -1.4390   -1.2650 O   0  0  0  0  0  0  0  0  0  0  0  0
    6.4230   -0.5110   -0.5660 N   0  0  0  0  0  0  0  0  0  0  0  0
    5.9920    0.7170   -0.5200 O   0  0  0  0  0  0  0  0  0  0  0  0
    7.0620    1.5360   -0.4210 O   0  0  0  0  0  0  0  0  0  0  0  0
   -1.8620    0.0600   -0.7990 C   0  0  0  0  0  0  0  0  0  0  0  0
   -3.7430    1.3740    0.0540 O   0  0  0  0  0  0  0  0  0  0  0  0
  2  1  1  1
  2  3  1  0
  2 20  1  0
  3  4  1  0
  4  5  1  0
  5  6  1  1
  5 19  1  0
  5 20  1  0
  6  7  1  0
  7  8  1  1
  7 19  1  0
  8  9  1  0
  9 10  2  0
  9 11  1  0
 11 12  1  0
 12 13  1  0
 13 14  1  0
 14 15  1  0
 15 16  1  0
 16 17  1  0
 17 18  1  0
M  END
