
     RDKit          3D

 20 21  0  0  0  0  0  0  0  0999 V2000
    2.0510    0.5800    1.3850 O   0  0  0  0  0  0  0  0  0  0  0  0
    1.9080   -0.0010    0.2830 C   0  0  0  0  0  0  0  0  0  0  0  0
    0.5970   -0.0490   -0.2930 N   0  0  0  0  0  0  0  0  0  0  0  0
   -0.5220    0.5370    0.3470 C   0  0  0  0  0  0  0  0  0  0  0  0
   -0.2620    1.0990    1.4700 O   0  0  0  0  0  0  0  0  0  0  0  0
   -1.8490    0.5410   -0.1500 N   0  0  0  0  0  0  0  0  0  0  0  0
   -2.8780    1.1800    0.6560 C   0  0  0  0  0  0  0  0  0  0  0  0
   -4.0090    0.1750    0.7990 C   0  0  2  0  0  0  0  0  0  0  0  0
   -3.4290   -1.0250    1.2340 O   0  0  0  0  0  0  0  0  0  0  0  0
   -4.5690   -0.0680   -0.5850 C   0  0  0  0  0  0  0  0  0  0  0  0
   -3.5540   -0.5390   -1.4550 O   0  0  0  0  0  0  0  0  0  0  0  0
   -2.2460   -0.0310   -1.3830 C   0  0  0  0  0  0  0  0  0  0  0  0
   -1.4390   -0.0570   -2.3270 O   0  0  0  0  0  0  0  0  0  0  0  0
    3.0500   -0.6220   -0.4130 C   0  0  0  0  0  0  0  0  0  0  0  0
    2.9640   -1.2480   -1.5740 C   0  0  0  0  0  0  0  0  0  0  0  0
    4.2220   -1.6870   -1.8960 O   0  0  0  0  0  0  0  0  0  0  0  0
    5.1350   -1.3510   -0.9500 O   0  0  0  0  0  0  0  0  0  0  0  0
    4.4130   -0.6580    0.0310 C   0  0  0  0  0  0  0  0  0  0  0  0
    4.9310   -0.1480    1.1440 C   0  0  0  0  0  0  0  0  0  0  0  0
    6.2840   -0.2740    1.4210 O   0  0  0  0  0  0  0  0  0  0  0  0
  1  2  2  0
  2  3  1  0
  2 14  1  0
  3  4  1  0
  4  5  2  0
  4  6  1  0
  6  7  1  0
  6 12  1  0
  7  8  1  0
  8  9  1  6
  8 10  1  0
 10 11  1  0
 11 12  1  0
 12 13  2  0
 14 15  2  0
 14 18  1  0
 15 16  1  0
 16 17  1  0
 17 18  1  0
 18 19  2  3
 19 20  1  0
M  END
