
     RDKit          3D

 32 36  0  0  0  0  0  0  0  0999 V2000
   -1.2990    3.4410    4.3570 C   0  0  0  0  0  0  0  0  0  0  0  0
   -1.9760    2.8940    3.1520 C   0  0  0  0  0  0  0  0  0  0  0  0
   -2.5340    2.4340    2.1840 C   0  0  0  0  0  0  0  0  0  0  0  0
   -3.2020    1.8520    1.0130 C   0  0  2  0  0  0  0  0  0  0  0  0
   -3.7980    2.8400    0.2300 O   0  0  0  0  0  0  0  0  0  0  0  0
   -4.3320    0.9650    1.4920 C   0  0  0  0  0  0  0  0  0  0  0  0
   -4.1380   -0.3030    0.6390 C   0  0  0  0  0  0  0  0  0  0  0  0
   -2.6820   -0.3990    0.5820 C   0  0  1  0  0  0  0  0  0  0  0  0
   -2.0520   -1.2300   -0.5000 C   0  0  2  0  0  0  0  0  0  0  0  0
   -2.7610   -2.5300   -0.5290 C   0  0  0  0  0  0  0  0  0  0  0  0
   -2.1050   -3.3070   -1.6900 C   0  0  0  0  0  0  0  0  0  0  0  0
   -0.7410   -3.5650   -1.0910 C   0  0  0  0  0  0  0  0  0  0  0  0
   -0.2550   -4.7950   -1.1380 C   0  0  0  0  0  0  0  0  0  0  0  0
    1.0850   -5.0050   -0.5370 C   0  0  0  0  0  0  0  0  0  0  0  0
    1.7780   -5.9760   -0.8660 O   0  0  0  0  0  0  0  0  0  0  0  0
    1.5460   -4.0080    0.4630 C   0  0  0  0  0  0  0  0  0  0  0  0
    1.3840   -2.6610   -0.2320 C   0  0  0  0  0  0  0  0  0  0  0  0
   -0.0210   -2.4460   -0.4830 C   0  0  0  0  0  0  0  0  0  0  0  0
   -0.5870   -1.2990   -0.1800 C   0  0  0  0  0  0  0  0  0  0  0  0
    0.0130   -0.1320    0.4090 C   0  0  1  0  0  0  0  0  0  0  0  0
    1.2760    0.3770   -0.0950 C   0  0  0  0  0  0  0  0  0  0  0  0
    1.5950    0.4700   -1.4250 C   0  0  0  0  0  0  0  0  0  0  0  0
    2.8030    0.9910   -1.8570 C   0  0  0  0  0  0  0  0  0  0  0  0
    3.7300    1.4360   -0.9560 C   0  0  0  0  0  0  0  0  0  0  0  0
    5.0010    1.9900   -1.3440 N   0  0  0  0  0  0  0  0  0  0  0  0
    5.4560    2.1630   -2.6820 C   0  0  0  0  0  0  0  0  0  0  0  0
    5.9310    2.4180   -0.2860 C   0  0  0  0  0  0  0  0  0  0  0  0
    3.4430    1.3570    0.3980 C   0  0  0  0  0  0  0  0  0  0  0  0
    2.2390    0.8360    0.7750 C   0  0  0  0  0  0  0  0  0  0  0  0
   -0.8430    1.1080    0.4850 C   0  0  0  0  0  0  0  0  0  0  0  0
   -2.2750    1.0080    0.1870 C   0  0  2  0  0  0  0  0  0  0  0  0
   -2.5630    1.2990   -1.2740 C   0  0  0  0  0  0  0  0  0  0  0  0
  1  2  1  0
  2  3  3  0
  3  4  1  0
  4  5  1  6
  4  6  1  0
  4 31  1  0
  6  7  1  0
  8  7  1  6
  8  9  1  0
  8 31  1  0
  9 10  1  1
  9 19  1  0
 10 11  1  0
 11 12  1  0
 12 13  2  0
 12 18  1  0
 13 14  1  0
 14 15  2  0
 14 16  1  0
 16 17  1  0
 17 18  1  0
 18 19  2  0
 19 20  1  0
 20 21  1  6
 20 30  1  0
 21 22  2  0
 21 29  1  0
 22 23  1  0
 23 24  2  0
 24 25  1  0
 24 28  1  0
 25 26  1  0
 25 27  1  0
 28 29  2  0
 30 31  1  0
 31 32  1  6
M  END
