
     RDKit          3D

 32 35  0  0  0  0  0  0  0  0999 V2000
    4.3080    3.2350   -2.8770 C   0  0  0  0  0  0  0  0  0  0  0  0
    3.7850    2.1610   -2.0180 C   0  0  0  0  0  0  0  0  0  0  0  0
    4.6340    1.1990   -1.7280 C   0  0  0  0  0  0  0  0  0  0  0  0
    4.4380   -0.0070   -0.9050 C   0  0  0  0  0  0  0  0  0  0  0  0
    3.2730   -0.5090   -0.4600 C   0  0  0  0  0  0  0  0  0  0  0  0
    3.3030   -1.7410    0.3650 C   0  0  0  0  0  0  0  0  0  0  0  0
    4.6930   -2.0700    0.8780 C   0  0  0  0  0  0  0  0  0  0  0  0
    5.1600   -0.9950    1.7980 C   0  0  0  0  0  0  0  0  0  0  0  0
    6.5580   -1.2380    2.3250 C   0  0  0  0  0  0  0  0  0  0  0  0
    7.0230    0.0940    3.4080 Cl  0  0  0  0  0  0  0  0  0  0  0  0
    1.9190    0.0160   -0.6760 C   0  0  0  0  0  0  0  0  0  0  0  0
    0.9330   -0.8680   -0.3170 C   0  0  0  0  0  0  0  0  0  0  0  0
   -0.4240   -0.5120   -0.4580 C   0  0  0  0  0  0  0  0  0  0  0  0
   -0.8140    0.7080   -0.9520 C   0  0  0  0  0  0  0  0  0  0  0  0
   -2.2530    1.1090   -1.1120 C   0  0  2  0  0  0  0  0  0  0  0  0
   -2.3650    2.4500   -0.5960 N   0  0  0  0  0  0  0  0  0  0  0  0
   -3.1730    2.4280    0.5550 C   0  0  0  0  0  0  0  0  0  0  0  0
   -3.4300    3.4060    1.3420 O   0  0  0  0  0  0  0  0  0  0  0  0
   -3.6720    1.0800    0.6970 N   0  0  0  0  0  0  0  0  0  0  0  0
   -4.5510    0.7290    1.8180 C   0  0  0  0  0  0  0  0  0  0  0  0
   -6.0040    0.9860    1.4320 C   0  0  0  0  0  0  0  0  0  0  0  0
   -6.8680    0.6610    2.4550 O   0  0  0  0  0  0  0  0  0  0  0  0
   -3.1820    0.2740   -0.3480 C   0  0  0  0  0  0  0  0  0  0  0  0
   -3.4560   -0.9220   -0.6120 N   0  0  0  0  0  0  0  0  0  0  0  0
   -4.2710   -1.8770   -0.0570 C   0  0  0  0  0  0  0  0  0  0  0  0
   -5.6110   -2.0790   -0.2770 C   0  0  0  0  0  0  0  0  0  0  0  0
   -6.0140   -3.1560    0.4810 C   0  0  0  0  0  0  0  0  0  0  0  0
   -4.9380   -3.5900    1.1410 N   0  0  0  0  0  0  0  0  0  0  0  0
   -3.8740   -2.8440    0.8410 C   0  0  0  0  0  0  0  0  0  0  0  0
    0.1990    1.5840   -1.3090 C   0  0  0  0  0  0  0  0  0  0  0  0
    1.5290    1.2560   -1.1780 C   0  0  0  0  0  0  0  0  0  0  0  0
    2.4160    2.2930   -1.6090 N   0  0  0  0  0  0  0  0  0  0  0  0
  1  2  1  0
  2  3  2  0
  2 32  1  0
  3  4  1  0
  4  5  2  0
  5  6  1  0
  5 11  1  0
  6  7  1  0
  7  8  1  0
  8  9  1  0
  9 10  1  0
 11 12  2  0
 11 31  1  0
 12 13  1  0
 13 14  2  0
 15 14  1  1
 14 30  1  0
 15 16  1  0
 15 23  1  0
 16 17  1  0
 17 18  2  0
 17 19  1  0
 19 20  1  0
 19 23  1  0
 20 21  1  0
 21 22  1  0
 23 24  2  3
 24 25  1  0
 25 26  1  0
 25 29  2  0
 26 27  2  0
 27 28  1  0
 28 29  1  0
 30 31  2  0
 31 32  1  0
M  END
