
     RDKit          3D

 32 35  0  0  0  0  0  0  0  0999 V2000
    0.9970    1.3590   -3.6150 C   0  0  0  0  0  0  0  0  0  0  0  0
    0.9350    0.1430   -2.6790 C   0  0  0  0  0  0  0  0  0  0  0  0
   -0.1960   -0.3750   -2.4450 O   0  0  0  0  0  0  0  0  0  0  0  0
   -1.3540   -0.9520   -2.5860 C   0  0  0  0  0  0  0  0  0  0  0  0
   -1.8670   -1.3680   -3.8330 C   0  0  0  0  0  0  0  0  0  0  0  0
   -3.0510   -1.9680   -4.0190 C   0  0  0  0  0  0  0  0  0  0  0  0
   -3.5410   -2.4170   -5.3730 C   0  0  0  0  0  0  0  0  0  0  0  0
   -3.8380   -2.2020   -2.9100 C   0  0  0  0  0  0  0  0  0  0  0  0
   -5.0930   -2.8210   -3.0710 N   0  0  0  0  0  0  0  0  0  0  0  0
   -3.3580   -1.8020   -1.6530 C   0  0  0  0  0  0  0  0  0  0  0  0
   -2.1660   -1.1940   -1.4490 C   0  0  0  0  0  0  0  0  0  0  0  0
   -1.7040   -0.7030   -0.1750 N   0  0  0  0  0  0  0  0  0  0  0  0
   -2.1250   -0.9380    1.0390 C   0  0  0  0  0  0  0  0  0  0  0  0
   -3.1830   -1.8070    1.0850 O   0  0  0  0  0  0  0  0  0  0  0  0
   -1.8400   -0.5590    2.4310 C   0  0  0  0  0  0  0  0  0  0  0  0
   -2.8070   -0.3600    3.3790 C   0  0  0  0  0  0  0  0  0  0  0  0
   -2.5870    0.1610    4.6110 C   0  0  0  0  0  0  0  0  0  0  0  0
   -3.8920    0.3780    5.7530 Cl  0  0  0  0  0  0  0  0  0  0  0  0
   -1.2810    0.5310    4.9730 C   0  0  0  0  0  0  0  0  0  0  0  0
   -0.2800    0.3380    4.0420 C   0  0  0  0  0  0  0  0  0  0  0  0
    0.9790    0.6830    4.3560 N   0  0  0  0  0  0  0  0  0  0  0  0
    2.0200    0.5340    3.5170 C   0  0  0  0  0  0  0  0  0  0  0  0
    1.8270    0.0060    2.2680 C   0  0  0  0  0  0  0  0  0  0  0  0
    2.8620   -0.1420    1.3310 N   0  0  0  0  0  0  0  0  0  0  0  0
    4.2150    0.2720    1.4980 C   0  0  0  0  0  0  0  0  0  0  0  0
    4.4030    1.7540    1.5810 C   0  0  0  0  0  0  0  0  0  0  0  0
    4.9490    2.4970    2.5370 C   0  0  0  0  0  0  0  0  0  0  0  0
    4.9070    3.9310    2.1580 C   0  0  0  0  0  0  0  0  0  0  0  0
    4.2590    3.9130    0.8550 N   0  0  0  0  0  0  0  0  0  0  0  0
    3.9840    2.7120    0.5450 C   0  0  0  0  0  0  0  0  0  0  0  0
    0.5080   -0.3560    1.9440 C   0  0  0  0  0  0  0  0  0  0  0  0
   -0.5530   -0.2010    2.7890 C   0  0  0  0  0  0  0  0  0  0  0  0
  1  2  1  0
  2  3  1  0
  3  4  1  0
  4  5  2  0
  4 11  1  0
  5  6  1  0
  6  7  1  0
  6  8  2  0
  8  9  1  0
  8 10  1  0
 10 11  2  0
 11 12  1  0
 12 13  1  0
 13 14  2  0
 13 15  1  0
 15 16  2  0
 15 32  1  0
 16 17  1  0
 17 18  1  0
 17 19  2  0
 19 20  1  0
 20 21  2  0
 20 32  1  0
 21 22  1  0
 22 23  2  0
 23 24  1  0
 23 31  1  0
 24 25  1  0
 25 26  1  0
 26 27  2  0
 26 30  1  0
 27 28  1  0
 28 29  1  0
 29 30  2  0
 31 32  2  0
M  END
