
     RDKit          3D

 32 33  0  0  0  0  0  0  0  0999 V2000
  -10.1690    1.4520    0.4890 C   0  0  0  0  0  0  0  0  0  0  0  0
   -8.9150    1.3820    1.3720 C   0  0  0  0  0  0  0  0  0  0  0  0
   -7.7530    0.8220    0.5470 C   0  0  0  0  0  0  0  0  0  0  0  0
   -8.0270   -0.4150    0.0790 O   0  0  0  0  0  0  0  0  0  0  0  0
   -7.2020   -1.0750   -0.6740 N   0  0  0  0  0  0  0  0  0  0  0  0
   -5.8310   -1.2110   -0.3330 C   0  0  0  0  0  0  0  0  0  0  0  0
   -4.9140   -0.1340   -0.8780 C   0  0  2  0  0  0  0  0  0  0  0  0
   -5.0780   -0.1100   -2.2990 O   0  0  0  0  0  0  0  0  0  0  0  0
   -3.5260   -0.5850   -0.6200 C   0  0  2  0  0  0  0  0  0  0  0  0
   -3.1420   -0.6960    0.7880 N   0  0  0  0  0  0  0  0  0  0  0  0
   -1.7760   -0.8310    0.8770 N   0  0  0  0  0  0  0  0  0  0  0  0
   -1.1070    0.0020    0.2910 C   0  0  0  0  0  0  0  0  0  0  0  0
    0.2780   -0.1140    0.3870 N   0  0  0  0  0  0  0  0  0  0  0  0
    1.1490    0.8920    0.1050 C   0  0  0  0  0  0  0  0  0  0  0  0
    0.4840    1.9770   -0.1780 O   0  0  0  0  0  0  0  0  0  0  0  0
    2.5580    0.9270    0.0750 C   0  0  0  0  0  0  0  0  0  0  0  0
    3.5480    0.1210    0.2970 C   0  0  0  0  0  0  0  0  0  0  0  0
    3.4370   -1.2210    0.7010 N   0  0  0  0  0  0  0  0  0  0  0  0
    4.5940   -2.0400    0.8090 C   0  0  0  0  0  0  0  0  0  0  0  0
    4.4580   -3.2500    1.1690 O   0  0  0  0  0  0  0  0  0  0  0  0
    5.9270   -1.5470    0.5260 C   0  0  0  0  0  0  0  0  0  0  0  0
    5.9560   -0.1330    0.1060 C   0  0  0  0  0  0  0  0  0  0  0  0
    7.2690    0.4660   -0.2730 C   0  0  0  0  0  0  0  0  0  0  0  0
    7.3270    1.6420   -0.6610 O   0  0  0  0  0  0  0  0  0  0  0  0
    8.4700   -0.2980   -0.2000 N   0  0  0  0  0  0  0  0  0  0  0  0
    9.6640    0.3200   -0.5840 N   0  0  0  0  0  0  0  0  0  0  0  0
   10.8350    0.3970    0.1810 C   0  0  0  0  0  0  0  0  0  0  0  0
   12.0070    1.0480   -0.3070 N   0  0  0  0  0  0  0  0  0  0  0  0
   10.8070   -0.1340    1.3240 O   0  0  0  0  0  0  0  0  0  0  0  0
    4.9070    0.6410   -0.0030 C   0  0  0  0  0  0  0  0  0  0  0  0
    5.0420    1.9870   -0.4090 O   0  0  0  0  0  0  0  0  0  0  0  0
   -2.3040    0.8170   -0.8040 S   0  0  0  0  0  0  0  0  0  0  0  0
  1  2  1  0
  2  3  1  0
  3  4  1  0
  4  5  1  0
  5  6  1  0
  6  7  1  0
  7  8  1  6
  7  9  1  0
  9 10  1  1
  9 32  1  0
 10 11  1  0
 11 12  2  0
 12 13  1  0
 12 32  1  0
 13 14  1  0
 14 15  2  0
 14 16  1  0
 16 17  2  3
 17 18  1  0
 17 30  1  0
 18 19  1  0
 19 20  2  0
 19 21  1  0
 21 22  1  0
 22 23  1  0
 22 30  2  0
 23 24  2  0
 23 25  1  0
 25 26  1  0
 26 27  1  0
 27 28  1  0
 27 29  2  0
 30 31  1  0
M  CHG  1   5   1
M  END
