
     RDKit          3D

 32 33  0  0  0  0  0  0  0  0999 V2000
   -5.3730   -2.9460    0.3890 C   0  0  0  0  0  0  0  0  0  0  0  0
   -4.4240   -1.8690   -0.1930 C   0  0  2  0  0  0  0  0  0  0  0  0
   -3.8470   -2.4500   -1.2910 O   0  0  0  0  0  0  0  0  0  0  0  0
   -3.5500   -1.4750    0.9270 C   0  0  0  0  0  0  0  0  0  0  0  0
   -2.5030   -0.4740    0.7700 C   0  0  0  0  0  0  0  0  0  0  0  0
   -1.3760   -0.7870   -0.2130 C   0  0  2  0  0  0  0  0  0  0  0  0
   -1.8800   -0.9370   -1.4830 O   0  0  0  0  0  0  0  0  0  0  0  0
   -0.6520   -1.9270    0.2390 N   0  0  0  0  0  0  0  0  0  0  0  0
    0.6750   -1.5260    0.4980 C   0  0  0  0  0  0  0  0  0  0  0  0
    1.5760   -2.3330    0.9130 O   0  0  0  0  0  0  0  0  0  0  0  0
    0.7910   -0.1200    0.2080 C   0  0  0  0  0  0  0  0  0  0  0  0
    1.9690    0.6840    0.1480 N   0  0  0  0  0  0  0  0  0  0  0  0
    3.2190    0.2230    0.6250 C   0  0  0  0  0  0  0  0  0  0  0  0
    3.2860   -0.8460    1.2550 O   0  0  0  0  0  0  0  0  0  0  0  0
    4.4140    0.9260    0.4210 N   0  0  0  0  0  0  0  0  0  0  0  0
    5.6940    0.5970    0.9080 C   0  0  0  0  0  0  0  0  0  0  0  0
    6.2490   -0.7610    0.6800 C   0  0  2  0  0  0  0  0  0  0  0  0
    6.3060   -1.2620   -0.6480 N   0  0  0  0  0  0  0  0  0  0  0  0
    5.9150   -2.6470   -0.6360 C   0  0  0  0  0  0  0  0  0  0  0  0
    5.8310   -3.6960   -1.9140 S   0  0  0  0  0  0  0  0  0  0  0  0
    5.6010   -2.9850    0.7180 N   0  0  0  0  0  0  0  0  0  0  0  0
    5.7920   -1.8510    1.5460 C   0  0  0  0  0  0  0  0  0  0  0  0
    5.5900   -1.8370    2.8070 O   0  0  0  0  0  0  0  0  0  0  0  0
   -0.4000    0.3260   -0.2020 C   0  0  0  0  0  0  0  0  0  0  0  0
   -0.6940    1.7380   -0.3010 C   0  0  0  0  0  0  0  0  0  0  0  0
   -0.1790    2.7180    0.0330 O   0  0  0  0  0  0  0  0  0  0  0  0
   -2.1970    2.0180   -1.1350 N   0  0  0  0  0  0  0  0  0  0  0  0
   -2.4340    3.3110   -0.6690 C   0  0  0  0  0  0  0  0  0  0  0  0
   -1.9070    3.9850    0.1610 O   0  0  0  0  0  0  0  0  0  0  0  0
   -3.6140    3.8610   -1.4150 N   0  0  0  0  0  0  0  0  0  0  0  0
   -4.1170    5.0880   -1.1350 C   0  0  0  0  0  0  0  0  0  0  0  0
   -3.6530    5.8680   -0.2410 N   0  0  0  0  0  0  0  0  0  0  0  0
  2  1  1  1
  2  3  1  0
  2  4  1  0
  4  5  1  0
  5  6  1  0
  6  7  1  6
  6  8  1  0
  6 24  1  0
  8  9  1  0
  9 10  2  0
  9 11  1  0
 11 12  1  0
 11 24  2  0
 12 13  1  0
 13 14  2  0
 13 15  1  0
 15 16  1  0
 17 16  1  6
 17 18  1  0
 17 22  1  0
 18 19  1  0
 19 20  2  0
 19 21  1  0
 21 22  1  0
 22 23  2  0
 24 25  1  0
 25 26  2  0
 25 27  1  0
 27 28  1  0
 28 29  2  0
 28 30  1  0
 30 31  1  0
 31 32  2  0
M  CHG  1  32   1
M  END
