
     RDKit          3D

 32 35  0  0  0  0  0  0  0  0999 V2000
    6.4700    1.4750   -2.4850 C   0  0  0  0  0  0  0  0  0  0  0  0
    6.4970    1.3660   -1.1690 C   0  0  0  0  0  0  0  0  0  0  0  0
    5.2970    1.3280   -0.3800 C   0  0  0  0  0  0  0  0  0  0  0  0
    5.3200    1.2790    0.9320 C   0  0  0  0  0  0  0  0  0  0  0  0
    6.5090    1.2570    1.7610 C   0  0  0  0  0  0  0  0  0  0  0  0
    6.5760   -0.2270    2.7550 Cl  0  0  0  0  0  0  0  0  0  0  0  0
    3.9650    1.3630   -1.0800 C   0  0  0  0  0  0  0  0  0  0  0  0
    3.7820    0.0510   -1.8300 C   0  0  1  0  0  0  0  0  0  0  0  0
    3.7970   -1.0580   -0.7670 C   0  0  0  0  0  0  0  0  0  0  0  0
    2.5560    0.0580   -2.6750 C   0  0  0  0  0  0  0  0  0  0  0  0
    1.3160    0.2410   -1.9770 N   0  0  0  0  0  0  0  0  0  0  0  0
    0.5540   -0.8280   -1.4350 C   0  0  0  0  0  0  0  0  0  0  0  0
    0.9200   -2.1330   -1.6470 C   0  0  0  0  0  0  0  0  0  0  0  0
    0.2130   -3.1710   -1.1200 N   0  0  0  0  0  0  0  0  0  0  0  0
   -0.8890   -2.8820   -0.3630 C   0  0  0  0  0  0  0  0  0  0  0  0
   -1.7660   -3.6750    0.2680 N   0  0  0  0  0  0  0  0  0  0  0  0
   -2.6880   -2.9210    0.8820 C   0  0  0  0  0  0  0  0  0  0  0  0
   -3.7920   -3.2030    1.6520 C   0  0  0  0  0  0  0  0  0  0  0  0
   -4.0770   -4.4310    1.8860 O   0  0  0  0  0  0  0  0  0  0  0  0
   -4.5560   -2.2140    2.1470 N   0  0  0  0  0  0  0  0  0  0  0  0
   -4.2790   -0.9350    1.9150 C   0  0  0  0  0  0  0  0  0  0  0  0
   -3.1740   -0.6110    1.1430 C   0  0  0  0  0  0  0  0  0  0  0  0
   -2.3760   -1.6040    0.6240 C   0  0  0  0  0  0  0  0  0  0  0  0
   -1.2400   -1.5670   -0.1620 C   0  0  0  0  0  0  0  0  0  0  0  0
   -0.5520   -0.5510   -0.6750 N   0  0  0  0  0  0  0  0  0  0  0  0
   -2.8630    0.7890    0.8930 C   0  0  0  0  0  0  0  0  0  0  0  0
   -1.6960    1.1810    0.7450 O   0  0  0  0  0  0  0  0  0  0  0  0
   -3.9680    1.7670    0.8150 C   0  0  0  0  0  0  0  0  0  0  0  0
   -5.2540    1.2310    1.3880 C   0  0  2  0  0  0  0  0  0  0  0  0
   -6.1700    0.7330    0.2990 C   0  0  0  0  0  0  0  0  0  0  0  0
   -5.9540    2.4270    2.0510 C   0  0  0  0  0  0  0  0  0  0  0  0
   -5.0810    0.1970    2.4400 C   0  0  0  0  0  0  0  0  0  0  0  0
  1  2  2  0
  2  3  1  0
  3  4  2  3
  3  7  1  0
  4  5  1  0
  5  6  1  0
  7  8  1  0
  8  9  1  1
  8 10  1  0
 10 11  1  0
 11 12  1  0
 12 13  2  0
 12 25  1  0
 13 14  1  0
 14 15  2  0
 15 16  1  0
 15 24  1  0
 16 17  1  0
 17 18  1  0
 17 23  2  0
 18 19  2  0
 18 20  1  0
 20 21  1  0
 21 22  2  0
 21 32  1  0
 22 23  1  0
 22 26  1  0
 23 24  1  0
 24 25  2  0
 26 27  2  0
 26 28  1  0
 28 29  1  0
 29 30  1  6
 29 31  1  0
 29 32  1  0
M  END
