
     RDKit          3D

 21 22  0  0  0  0  0  0  0  0999 V2000
    1.9440    2.0130    0.9270 N   0  0  0  0  0  0  0  0  0  0  0  0
    2.2640    0.8060    0.2040 C   0  0  0  0  0  0  0  0  0  0  0  0
    3.5070    0.5850   -0.1630 C   0  0  0  0  0  0  0  0  0  0  0  0
    4.7440    1.8060    0.2580 S   0  0  0  0  0  0  0  0  0  0  0  0
    6.0470    1.1340    0.6030 O   0  0  0  0  0  0  0  0  0  0  0  0
    3.8750   -0.5310   -0.8460 O   0  0  0  0  0  0  0  0  0  0  0  0
    3.0040   -1.5460   -1.2280 C   0  0  1  0  0  0  0  0  0  0  0  0
    3.4170   -2.8030   -0.7790 O   0  0  0  0  0  0  0  0  0  0  0  0
    1.6170   -1.2580   -0.7960 C   0  0  0  0  0  0  0  0  0  0  0  0
    1.2470   -0.1950   -0.1410 C   0  0  0  0  0  0  0  0  0  0  0  0
   -0.0690    0.1100    0.2860 N   0  0  0  0  0  0  0  0  0  0  0  0
   -1.2040   -0.6980    0.0700 C   0  0  0  0  0  0  0  0  0  0  0  0
   -1.1640   -1.7760   -0.5270 O   0  0  0  0  0  0  0  0  0  0  0  0
   -2.5100   -0.1840    0.6100 C   0  0  2  0  0  0  0  0  0  0  0  0
   -3.5460   -1.1390    0.2930 N   0  0  0  0  0  0  0  0  0  0  0  0
   -4.7340   -0.8210   -0.4010 C   0  0  0  0  0  0  0  0  0  0  0  0
   -5.6150   -1.6910   -0.6390 O   0  0  0  0  0  0  0  0  0  0  0  0
   -4.9290    0.5090   -0.8370 N   0  0  0  0  0  0  0  0  0  0  0  0
   -3.9010    1.4510   -0.5420 C   0  0  0  0  0  0  0  0  0  0  0  0
   -4.0580    2.6560   -0.9260 O   0  0  0  0  0  0  0  0  0  0  0  0
   -2.7610    1.1020    0.1350 O   0  0  0  0  0  0  0  0  0  0  0  0
  1  2  1  0
  2  3  2  0
  2 10  1  0
  3  4  1  0
  3  6  1  0
  4  5  2  0
  6  7  1  0
  7  8  1  1
  7  9  1  0
  9 10  2  0
 10 11  1  0
 11 12  1  0
 12 13  2  0
 14 12  1  6
 14 15  1  0
 14 21  1  0
 15 16  1  0
 16 17  2  0
 16 18  1  0
 18 19  1  0
 19 20  2  0
 19 21  1  0
M  END
