
     RDKit          3D

 21 22  0  0  0  0  0  0  0  0999 V2000
    5.1170   -0.5480    0.2780 O   0  0  0  0  0  0  0  0  0  0  0  0
    4.2250    0.3080    0.1000 C   0  0  0  0  0  0  0  0  0  0  0  0
    4.5410    1.6400    0.3280 O   0  0  0  0  0  0  0  0  0  0  0  0
    2.9180   -0.0300   -0.3190 N   0  0  0  0  0  0  0  0  0  0  0  0
    1.8950    0.9920   -0.5170 C   0  0  0  0  0  0  0  0  0  0  0  0
    0.6490    0.6060    0.2700 C   0  0  0  0  0  0  0  0  0  0  0  0
    0.2010   -0.8010   -0.0490 C   0  0  2  0  0  0  0  0  0  0  0  0
   -1.2620   -1.1700    0.9230 S   0  0  0  0  0  0  0  0  0  0  0  0
   -2.6050   -0.1530    0.4420 N   0  0  0  0  0  0  0  0  0  0  0  0
   -3.6140    0.1350    1.3150 C   0  0  0  0  0  0  0  0  0  0  0  0
   -3.5660   -0.3380    2.4740 O   0  0  0  0  0  0  0  0  0  0  0  0
   -4.6640    0.9000    1.0070 N   0  0  0  0  0  0  0  0  0  0  0  0
   -4.7550    1.4280   -0.2240 C   0  0  0  0  0  0  0  0  0  0  0  0
   -5.7490    2.1570   -0.5310 O   0  0  0  0  0  0  0  0  0  0  0  0
   -3.7750    1.1640   -1.1110 N   0  0  0  0  0  0  0  0  0  0  0  0
   -2.7110    0.3820   -0.7830 C   0  0  0  0  0  0  0  0  0  0  0  0
   -1.8540    0.1990   -1.6840 O   0  0  0  0  0  0  0  0  0  0  0  0
    1.3630   -1.7130    0.3430 C   0  0  1  0  0  0  0  0  0  0  0  0
    1.0020   -3.0470    0.2650 O   0  0  0  0  0  0  0  0  0  0  0  0
    2.5170   -1.3990   -0.5700 C   0  0  1  0  0  0  0  0  0  0  0  0
    2.2320   -1.6470   -1.9010 O   0  0  0  0  0  0  0  0  0  0  0  0
  1  2  2  0
  2  3  1  0
  2  4  1  0
  4  5  1  0
  4 20  1  0
  5  6  1  0
  6  7  1  0
  7  8  1  1
  7 18  1  0
  8  9  1  0
  9 10  1  0
  9 16  1  0
 10 11  2  0
 10 12  1  0
 12 13  1  0
 13 14  2  0
 13 15  1  0
 15 16  1  0
 16 17  2  0
 18 19  1  6
 18 20  1  0
 20 21  1  6
M  END
