
     RDKit          3D

 21 22  0  0  0  0  0  0  0  0999 V2000
    7.3870   -1.3070   -0.1430 N   0  0  0  0  0  0  0  0  0  0  0  0
    6.2730   -0.4040   -0.1340 C   0  0  1  0  0  0  0  0  0  0  0  0
    5.5980   -0.3640   -1.3950 O   0  0  0  0  0  0  0  0  0  0  0  0
    4.2850   -0.0740   -1.0730 C   0  0  0  0  0  0  0  0  0  0  0  0
    3.3790    0.4490   -1.9820 O   0  0  0  0  0  0  0  0  0  0  0  0
    4.0260   -0.3560    0.1760 C   0  0  0  0  0  0  0  0  0  0  0  0
    2.7660   -0.2070    0.9390 C   0  0  0  0  0  0  0  0  0  0  0  0
    2.7210   -0.5460    2.1590 O   0  0  0  0  0  0  0  0  0  0  0  0
    1.6000    0.3000    0.3640 N   0  0  0  0  0  0  0  0  0  0  0  0
    0.3840    0.4470    1.0860 N   0  0  0  0  0  0  0  0  0  0  0  0
   -0.8320    0.2170    0.3920 C   0  0  0  0  0  0  0  0  0  0  0  0
   -0.8230   -0.1160   -0.8440 O   0  0  0  0  0  0  0  0  0  0  0  0
   -2.1230    0.3350    0.9870 N   0  0  0  0  0  0  0  0  0  0  0  0
   -3.3030    0.0880    0.2220 C   0  0  2  0  0  0  0  0  0  0  0  0
   -4.1630    1.3180    0.0450 C   0  0  0  0  0  0  0  0  0  0  0  0
   -5.3320    0.8690   -0.7910 C   0  0  0  0  0  0  0  0  0  0  0  0
   -5.5620   -0.8630   -0.3500 S   0  0  2  0  0  0  0  0  0  0  0  0
   -5.2800   -1.7570   -1.5000 O   0  0  0  0  0  0  0  0  0  0  0  0
   -6.8600   -1.0990    0.3140 O   0  0  0  0  0  0  0  0  0  0  0  0
   -4.1810   -1.0030    0.7990 C   0  0  0  0  0  0  0  0  0  0  0  0
    5.2210   -0.8610    0.7270 O   0  0  0  0  0  0  0  0  0  0  0  0
  2  1  1  6
  2  3  1  0
  2 21  1  0
  3  4  1  0
  4  5  1  0
  4  6  2  0
  6  7  1  0
  6 21  1  0
  7  8  2  0
  7  9  1  0
  9 10  1  0
 10 11  1  0
 11 12  2  0
 11 13  1  0
 14 13  1  1
 14 15  1  0
 14 20  1  0
 15 16  1  0
 17 16  1  6
 17 18  2  0
 17 19  2  0
 17 20  1  0
M  END
