
     RDKit          3D

 21 22  0  0  0  0  0  0  0  0999 V2000
    6.4940    0.4070    0.5390 N   0  0  0  0  0  0  0  0  0  0  0  0
    5.4110    0.1960   -0.3640 C   0  0  1  0  0  0  0  0  0  0  0  0
    5.1970   -1.1260   -0.7360 O   0  0  0  0  0  0  0  0  0  0  0  0
    3.9390   -1.5430   -0.9250 C   0  0  0  0  0  0  0  0  0  0  0  0
    2.9610   -0.8430   -0.3900 C   0  0  0  0  0  0  0  0  0  0  0  0
    1.5220   -1.0910   -0.4530 C   0  0  0  0  0  0  0  0  0  0  0  0
    1.0310   -2.0680   -1.0670 O   0  0  0  0  0  0  0  0  0  0  0  0
    0.6310   -0.2010    0.2020 N   0  0  0  0  0  0  0  0  0  0  0  0
   -0.7540   -0.3620    0.1950 N   0  0  0  0  0  0  0  0  0  0  0  0
   -1.6040    0.2640   -0.7500 C   0  0  0  0  0  0  0  0  0  0  0  0
   -1.1150    1.0060   -1.6340 O   0  0  0  0  0  0  0  0  0  0  0  0
   -3.0740    0.0750   -0.7330 C   0  0  1  0  0  0  0  0  0  0  0  0
   -3.4950   -0.7680    0.2990 O   0  0  0  0  0  0  0  0  0  0  0  0
   -4.7800   -0.6380    0.8040 C   0  0  0  0  0  0  0  0  0  0  0  0
   -5.3200   -1.5770    1.4810 O   0  0  0  0  0  0  0  0  0  0  0  0
   -5.5740    0.5590    0.5950 C   0  0  0  0  0  0  0  0  0  0  0  0
   -6.7490    0.6820    1.0540 O   0  0  0  0  0  0  0  0  0  0  0  0
   -4.9930    1.6200   -0.1580 N   0  0  0  0  0  0  0  0  0  0  0  0
   -3.6880    1.4410   -0.6490 C   0  0  0  0  0  0  0  0  0  0  0  0
   -3.0350    2.4540   -1.0210 O   0  0  0  0  0  0  0  0  0  0  0  0
    3.7860    0.5130    0.4450 S   0  0  0  0  0  0  0  0  0  0  0  0
  2  1  1  1
  2  3  1  0
  2 21  1  0
  3  4  1  0
  4  5  2  0
  5  6  1  0
  5 21  1  0
  6  7  2  0
  6  8  1  0
  8  9  1  0
  9 10  1  0
 10 11  2  0
 12 10  1  1
 12 13  1  0
 12 19  1  0
 13 14  1  0
 14 15  2  0
 14 16  1  0
 16 17  2  0
 16 18  1  0
 18 19  1  0
 19 20  2  0
M  END
