
     RDKit          3D

 25 26  0  0  0  0  0  0  0  0999 V2000
   -6.8300    1.0210    1.4680 C   0  0  0  0  0  0  0  0  0  0  0  0
   -5.4710    0.7470    0.8950 C   0  0  0  0  0  0  0  0  0  0  0  0
   -3.9310    0.6830    1.7960 S   0  0  0  0  0  0  0  0  0  0  0  0
   -2.9190    0.3270    0.4160 C   0  0  0  0  0  0  0  0  0  0  0  0
   -1.4650    0.1480    0.5210 N   0  0  0  0  0  0  0  0  0  0  0  0
   -0.8320    0.2620    1.7750 C   0  0  0  0  0  0  0  0  0  0  0  0
   -1.5440    0.5180    2.7800 O   0  0  0  0  0  0  0  0  0  0  0  0
    0.6100    0.1040    2.0000 C   0  0  0  0  0  0  0  0  0  0  0  0
    1.3110   -0.1830    0.7920 O   0  0  0  0  0  0  0  0  0  0  0  0
    2.6910   -0.3570    0.8650 C   0  0  0  0  0  0  0  0  0  0  0  0
    3.2580   -0.2560    1.9800 O   0  0  0  0  0  0  0  0  0  0  0  0
    3.4770   -0.6470   -0.2910 N   0  0  0  0  0  0  0  0  0  0  0  0
    4.8750   -0.8260   -0.2880 C   0  0  0  0  0  0  0  0  0  0  0  0
    5.4040   -1.9980   -0.5980 C   0  0  0  0  0  0  0  0  0  0  0  0
    6.8730   -2.1580   -0.5870 C   0  0  0  0  0  0  0  0  0  0  0  0
    7.6640   -1.1460   -0.2730 C   0  0  0  0  0  0  0  0  0  0  0  0
    7.1540    0.1110    0.0590 O   0  0  0  0  0  0  0  0  0  0  0  0
    5.7520    0.2760    0.0520 C   0  0  0  0  0  0  0  0  0  0  0  0
    5.2300    1.4430    0.3530 C   0  0  0  0  0  0  0  0  0  0  0  0
    6.4160    2.8750    0.8000 Br  0  0  0  0  0  0  0  0  0  0  0  0
   -3.7580    0.2770   -0.6100 C   0  0  0  0  0  0  0  0  0  0  0  0
   -3.2600   -0.0080   -1.9950 C   0  0  0  0  0  0  0  0  0  0  0  0
   -2.0250   -0.2110   -2.2390 N   0  0  0  0  0  0  0  0  0  0  0  0
   -5.0780    0.4890   -0.3970 C   0  0  0  0  0  0  0  0  0  0  0  0
   -6.1670    0.4630   -1.4710 C   0  0  0  0  0  0  0  0  0  0  0  0
  1  2  1  0
  2  3  1  0
  2 24  2  0
  3  4  1  0
  4  5  1  0
  4 21  2  0
  5  6  1  0
  6  7  2  0
  6  8  1  0
  8  9  1  0
  9 10  1  0
 10 11  2  0
 10 12  1  0
 12 13  1  0
 13 14  2  0
 13 18  1  0
 14 15  1  0
 15 16  2  0
 16 17  1  0
 17 18  1  0
 18 19  2  3
 19 20  1  0
 21 22  1  0
 21 24  1  0
 22 23  2  0
 24 25  1  0
M  END
