
     RDKit          3D

 26 28  0  0  0  0  0  0  0  0999 V2000
    5.6580   -2.2060    0.0320 C   0  0  0  0  0  0  0  0  0  0  0  0
    6.1520   -1.3520    1.1370 C   0  0  0  0  0  0  0  0  0  0  0  0
    5.3180   -0.2070    1.5710 C   0  0  0  0  0  0  0  0  0  0  0  0
    5.0200    0.8360    0.6950 N   0  0  0  0  0  0  0  0  0  0  0  0
    4.1350    0.6220   -0.4130 C   0  0  1  0  0  0  0  0  0  0  0  0
    2.7920    0.2360   -0.0230 C   0  0  0  0  0  0  0  0  0  0  0  0
    1.6810    0.7700   -0.4750 C   0  0  0  0  0  0  0  0  0  0  0  0
    0.3760    0.2490    0.0360 C   0  0  0  0  0  0  0  0  0  0  0  0
    0.3080   -0.5960    1.1190 C   0  0  0  0  0  0  0  0  0  0  0  0
   -0.8690   -1.1330    1.5860 C   0  0  0  0  0  0  0  0  0  0  0  0
   -2.0330   -0.8020    0.9310 C   0  0  0  0  0  0  0  0  0  0  0  0
   -3.1950   -1.3600    1.4290 O   0  0  0  0  0  0  0  0  0  0  0  0
   -2.0600    0.0280   -0.1520 C   0  0  0  0  0  0  0  0  0  0  0  0
   -3.2320    0.4230   -0.9040 C   0  0  0  0  0  0  0  0  0  0  0  0
   -3.1020    1.2200   -1.9110 O   0  0  0  0  0  0  0  0  0  0  0  0
   -4.5550    0.0030   -0.6310 N   0  0  0  0  0  0  0  0  0  0  0  0
   -5.6750    0.4760   -1.4820 C   0  0  1  0  0  0  0  0  0  0  0  0
   -6.8030   -0.4480   -1.6530 C   0  0  0  0  0  0  0  0  0  0  0  0
   -6.9350    0.7320   -0.7400 C   0  0  1  0  0  0  0  0  0  0  0  0
   -6.9810    0.4620    0.7420 C   0  0  0  0  0  0  0  0  0  0  0  0
   -0.8220    0.5370   -0.5710 C   0  0  0  0  0  0  0  0  0  0  0  0
    1.6930    1.8880   -1.4130 C   0  0  0  0  0  0  0  0  0  0  0  0
    0.6820    2.4490   -1.8850 O   0  0  0  0  0  0  0  0  0  0  0  0
    2.9960    2.3620   -1.8030 N   0  0  0  0  0  0  0  0  0  0  0  0
    4.1700    1.7820   -1.3090 C   0  0  0  0  0  0  0  0  0  0  0  0
    5.2770    2.3080   -1.6730 O   0  0  0  0  0  0  0  0  0  0  0  0
  1  2  1  0
  2  3  1  0
  3  4  1  0
  5  4  1  1
  5  6  1  0
  5 25  1  0
  6  7  2  0
  7  8  1  0
  7 22  1  0
  8  9  2  0
  8 21  1  0
  9 10  1  0
 10 11  2  0
 11 12  1  0
 11 13  1  0
 13 14  1  0
 13 21  2  0
 14 15  2  0
 14 16  1  0
 17 16  1  1
 17 18  1  0
 17 19  1  0
 18 19  1  0
 19 20  1  1
 22 23  2  0
 22 24  1  0
 24 25  1  0
 25 26  2  0
M  END
