
     RDKit          3D

 26 27  0  0  0  0  0  0  0  0999 V2000
    6.1240    0.0940    1.1330 C   0  0  0  0  0  0  0  0  0  0  0  0
    6.0110   -0.8440   -0.0460 C   0  0  0  0  0  0  0  0  0  0  0  0
    5.3030   -2.1150    0.4020 C   0  0  0  0  0  0  0  0  0  0  0  0
    3.9360   -1.7820    0.9120 C   0  0  0  0  0  0  0  0  0  0  0  0
    3.1250   -1.1620   -0.0660 O   0  0  0  0  0  0  0  0  0  0  0  0
    1.8350   -0.7990    0.2660 C   0  0  0  0  0  0  0  0  0  0  0  0
    1.4450   -1.0450    1.4420 O   0  0  0  0  0  0  0  0  0  0  0  0
    0.8970   -0.1490   -0.6630 C   0  0  1  0  0  0  0  0  0  0  0  0
   -0.4070    0.0930    0.0370 N   0  0  0  0  0  0  0  0  0  0  0  0
   -1.5810   -0.4630   -0.4580 C   0  0  0  0  0  0  0  0  0  0  0  0
   -1.4420   -1.1790   -1.5360 O   0  0  0  0  0  0  0  0  0  0  0  0
   -2.9090   -0.3140    0.1120 C   0  0  0  0  0  0  0  0  0  0  0  0
   -3.2780    0.3440    1.1660 C   0  0  0  0  0  0  0  0  0  0  0  0
   -2.2390    1.0510    1.9160 N   0  0  0  0  0  0  0  0  0  0  0  0
   -4.6330    0.4960    1.7490 C   0  0  0  0  0  0  0  0  0  0  0  0
   -5.6480   -0.2070    1.0000 C   0  0  0  0  0  0  0  0  0  0  0  0
   -6.9160   -0.1530    1.4170 C   0  0  0  0  0  0  0  0  0  0  0  0
   -7.9070   -0.8030    0.7370 O   0  0  0  0  0  0  0  0  0  0  0  0
   -7.7090   -1.5680   -0.4260 C   0  0  0  0  0  0  0  0  0  0  0  0
   -6.2880   -1.5910   -0.8390 C   0  0  0  0  0  0  0  0  0  0  0  0
   -5.3170   -0.9570   -0.1780 C   0  0  0  0  0  0  0  0  0  0  0  0
   -3.9830   -1.0010   -0.5990 N   0  0  0  0  0  0  0  0  0  0  0  0
    1.3300    1.2120   -1.1260 C   0  0  1  0  0  0  0  0  0  0  0  0
    1.5020    2.1890   -0.0100 C   0  0  0  0  0  0  0  0  0  0  0  0
    2.5940    1.1840   -1.9490 C   0  0  0  0  0  0  0  0  0  0  0  0
    2.9210    2.6130   -2.3530 C   0  0  0  0  0  0  0  0  0  0  0  0
  1  2  1  0
  2  3  1  0
  3  4  1  0
  4  5  1  0
  5  6  1  0
  6  7  2  0
  6  8  1  0
  8  9  1  1
  8 23  1  0
  9 10  1  0
 10 11  2  0
 10 12  1  0
 12 13  2  0
 12 22  1  0
 13 14  1  0
 13 15  1  0
 15 16  1  0
 16 17  2  0
 16 21  1  0
 17 18  1  0
 18 19  1  0
 19 20  1  0
 20 21  2  0
 21 22  1  0
 23 24  1  1
 23 25  1  0
 25 26  1  0
M  END
