
     RDKit          3D

 26 28  0  0  0  0  0  0  0  0999 V2000
   -3.2960   -3.4910    0.0780 C   0  0  0  0  0  0  0  0  0  0  0  0
   -3.1050   -1.9800    0.2660 C   0  0  2  0  0  0  0  0  0  0  0  0
   -4.3490   -1.3210   -0.2070 C   0  0  0  0  0  0  0  0  0  0  0  0
   -4.3880    0.0800   -0.1220 N   0  0  0  0  0  0  0  0  0  0  0  0
   -5.5500    0.7290   -0.5610 C   0  0  0  0  0  0  0  0  0  0  0  0
   -6.1150    1.7490    0.3720 C   0  0  0  0  0  0  0  0  0  0  0  0
   -5.4250    1.8080    1.5850 O   0  0  0  0  0  0  0  0  0  0  0  0
   -4.0860    2.0270    1.2650 C   0  0  0  0  0  0  0  0  0  0  0  0
   -3.5090    0.7410    0.7400 C   0  0  0  0  0  0  0  0  0  0  0  0
   -1.9530   -1.6400   -0.5730 N   0  0  0  0  0  0  0  0  0  0  0  0
   -0.7640   -1.2150    0.0560 C   0  0  0  0  0  0  0  0  0  0  0  0
   -0.6960   -1.1320    1.2920 O   0  0  0  0  0  0  0  0  0  0  0  0
    0.4020   -0.8700   -0.7920 C   0  0  0  0  0  0  0  0  0  0  0  0
    1.5320   -0.4520    0.0880 C   0  0  1  0  0  0  0  0  0  0  0  0
    1.8490   -1.5210    0.9410 O   0  0  0  0  0  0  0  0  0  0  0  0
    2.7700   -0.0580   -0.6570 C   0  0  1  0  0  0  0  0  0  0  0  0
    2.4740    1.0060   -1.5150 O   0  0  0  0  0  0  0  0  0  0  0  0
    3.8120    0.3250    0.3340 C   0  0  0  0  0  0  0  0  0  0  0  0
    3.7320    0.3600    1.7070 C   0  0  0  0  0  0  0  0  0  0  0  0
    4.9160    0.7700    2.2390 N   0  0  0  0  0  0  0  0  0  0  0  0
    5.7350    0.9920    1.2110 C   0  0  0  0  0  0  0  0  0  0  0  0
    7.0590    1.4210    1.1440 C   0  0  0  0  0  0  0  0  0  0  0  0
    7.6690    1.5660   -0.0770 C   0  0  0  0  0  0  0  0  0  0  0  0
    7.0310    1.3040   -1.2720 C   0  0  0  0  0  0  0  0  0  0  0  0
    5.7180    0.8780   -1.2080 C   0  0  0  0  0  0  0  0  0  0  0  0
    5.0910    0.7280    0.0130 C   0  0  0  0  0  0  0  0  0  0  0  0
  2  1  1  6
  2  3  1  0
  2 10  1  0
  3  4  1  0
  4  5  1  0
  4  9  1  0
  5  6  1  0
  6  7  1  0
  7  8  1  0
  8  9  1  0
 10 11  1  0
 11 12  2  0
 11 13  1  0
 13 14  1  0
 14 15  1  1
 14 16  1  0
 16 17  1  6
 16 18  1  0
 18 19  2  0
 18 26  1  0
 19 20  1  0
 20 21  1  0
 21 22  2  0
 21 26  1  0
 22 23  1  0
 23 24  2  0
 24 25  1  0
 25 26  2  0
M  END
