
     RDKit          3D

 25 26  0  0  0  0  0  0  0  0999 V2000
   -2.6890   -3.2650   -0.2820 C   0  0  0  0  0  0  0  0  0  0  0  0
   -2.4310   -2.2380    0.7910 C   0  0  0  0  0  0  0  0  0  0  0  0
   -2.0990   -0.8990    0.1580 C   0  0  0  0  0  0  0  0  0  0  0  0
   -2.9120    0.1110    0.4410 C   0  0  0  0  0  0  0  0  0  0  0  0
   -4.0460   -0.2260    1.3490 C   0  0  0  0  0  0  0  0  0  0  0  0
   -2.7130    1.3620   -0.0700 O   0  0  0  0  0  0  0  0  0  0  0  0
   -1.6900    2.2690    0.0200 C   0  0  0  0  0  0  0  0  0  0  0  0
   -1.4780    3.1280   -1.1920 C   0  0  0  0  0  0  0  0  0  0  0  0
   -0.4170    4.0210   -1.0130 O   0  0  0  0  0  0  0  0  0  0  0  0
   -0.8750    2.4800    1.0310 C   0  0  0  0  0  0  0  0  0  0  0  0
   -0.8530    1.7890    2.3450 C   0  0  0  0  0  0  0  0  0  0  0  0
    0.5610    1.6280    2.7820 C   0  0  0  0  0  0  0  0  0  0  0  0
    0.9430    2.3820    3.7170 O   0  0  0  0  0  0  0  0  0  0  0  0
    1.4730    0.7210    2.2410 N   0  0  0  0  0  0  0  0  0  0  0  0
    1.6750    0.4500    0.8040 C   0  0  1  0  0  0  0  0  0  0  0  0
    3.0550    1.0130    0.4160 C   0  0  0  0  0  0  0  0  0  0  0  0
    2.9510    2.3950    0.7170 O   0  0  0  0  0  0  0  0  0  0  0  0
    1.6420   -1.0290    0.6610 C   0  0  0  0  0  0  0  0  0  0  0  0
    1.6600   -1.6100   -0.6910 C   0  0  2  0  0  0  0  0  0  0  0  0
    2.9960   -1.9660   -1.2260 C   0  0  0  0  0  0  0  0  0  0  0  0
    2.8070   -1.9400   -2.7250 C   0  0  0  0  0  0  0  0  0  0  0  0
    1.8720   -0.7450   -2.8680 C   0  0  0  0  0  0  0  0  0  0  0  0
    0.9860   -0.8740   -1.7280 N   0  0  0  0  0  0  0  0  0  0  0  0
   -0.3720   -0.3830   -1.5850 C   0  0  0  0  0  0  0  0  0  0  0  0
   -1.0130   -0.7840   -0.6500 N   0  0  0  0  0  0  0  0  0  0  0  0
  1  2  1  0
  2  3  1  0
  3  4  2  0
  3 25  1  0
  4  5  1  0
  4  6  1  0
  6  7  1  0
  7  8  1  0
  7 10  2  0
  8  9  1  0
 10 11  1  0
 11 12  1  0
 12 13  2  0
 12 14  1  0
 14 15  1  0
 15 16  1  1
 15 18  1  0
 16 17  1  0
 19 18  1  1
 19 20  1  0
 19 23  1  0
 20 21  1  0
 21 22  1  0
 22 23  1  0
 23 24  1  0
 24 25  2  0
M  END
