
     RDKit          3D

 26 27  0  0  0  0  0  0  0  0999 V2000
   -3.8820   -5.8700   -0.7650 C   0  0  0  0  0  0  0  0  0  0  0  0
   -2.8780   -5.0520   -0.9710 C   0  0  0  0  0  0  0  0  0  0  0  0
   -3.0100   -3.6530   -0.4880 C   0  0  0  0  0  0  0  0  0  0  0  0
   -1.9980   -2.8460   -0.7090 C   0  0  0  0  0  0  0  0  0  0  0  0
   -1.9760   -1.4260   -0.2900 C   0  0  0  0  0  0  0  0  0  0  0  0
   -1.1160   -0.5030   -0.3780 C   0  0  0  0  0  0  0  0  0  0  0  0
    0.2440   -0.7880   -1.0320 C   0  0  0  0  0  0  0  0  0  0  0  0
    0.3740   -1.9740   -1.4270 O   0  0  0  0  0  0  0  0  0  0  0  0
    1.3380    0.0130   -1.2670 N   0  0  0  0  0  0  0  0  0  0  0  0
    1.5230    1.3650   -0.8880 C   0  0  0  0  0  0  0  0  0  0  0  0
    3.0840    1.6060   -0.8160 C   0  0  0  0  0  0  0  0  0  0  0  0
    3.5930    0.3750   -0.1010 C   0  0  2  0  0  0  0  0  0  0  0  0
    4.7880    0.5180    0.7280 C   0  0  0  0  0  0  0  0  0  0  0  0
    3.6990   -0.6650   -1.2190 C   0  0  1  0  0  0  0  0  0  0  0  0
    4.8120   -0.2540   -2.0030 O   0  0  0  0  0  0  0  0  0  0  0  0
    3.9810   -1.8900   -0.6770 O   0  0  0  0  0  0  0  0  0  0  0  0
    2.4770   -0.5730   -2.0730 C   0  0  0  0  0  0  0  0  0  0  0  0
   -1.2300    0.7620    0.1160 C   0  0  0  0  0  0  0  0  0  0  0  0
   -1.2780    1.9860    0.4820 C   0  0  0  0  0  0  0  0  0  0  0  0
   -1.6760    2.8740    1.4460 C   0  0  0  0  0  0  0  0  0  0  0  0
   -1.4350    4.1990    1.1880 C   0  0  0  0  0  0  0  0  0  0  0  0
   -2.1860    2.6720    2.7510 N   0  0  0  0  0  0  0  0  0  0  0  0
   -3.1980    3.4950    3.3710 C   0  0  0  0  0  0  0  0  0  0  0  0
   -2.8090    0.3960    0.7380 C   0  0  0  0  0  0  0  0  0  0  0  0
   -3.4520    1.2300    1.3200 O   0  0  0  0  0  0  0  0  0  0  0  0
   -3.0760   -0.8960    0.4190 N   0  0  0  0  0  0  0  0  0  0  0  0
  1  2  2  0
  2  3  1  0
  3  4  2  3
  4  5  1  0
  5  6  2  0
  5 26  1  0
  6  7  1  0
  6 18  1  0
  7  8  2  0
  7  9  1  0
  9 10  1  0
  9 17  1  0
 10 11  1  0
 11 12  1  0
 12 13  1  6
 12 14  1  0
 14 15  1  6
 14 16  1  0
 14 17  1  0
 18 19  2  3
 18 24  1  0
 19 20  1  0
 20 21  2  0
 20 22  1  0
 22 23  1  0
 24 25  2  0
 24 26  1  0
M  END
