
     RDKit          3D

 26 28  0  0  0  0  0  0  0  0999 V2000
   -2.8020   -0.5730   -1.3000 C   0  0  0  0  0  0  0  0  0  0  0  0
   -1.8050   -1.6460   -1.5320 C   0  0  0  0  0  0  0  0  0  0  0  0
   -0.8870   -1.8910   -0.5730 O   0  0  0  0  0  0  0  0  0  0  0  0
   -1.3320   -2.2680    0.6800 C   0  0  1  0  0  0  0  0  0  0  0  0
   -0.8750   -3.6990    0.7600 N   0  0  0  0  0  0  0  0  0  0  0  0
   -0.8740   -3.8830    2.1840 C   0  0  0  0  0  0  0  0  0  0  0  0
   -0.2250   -2.6090    2.6170 C   0  0  0  0  0  0  0  0  0  0  0  0
   -0.5020   -1.6370    1.7120 C   0  0  0  0  0  0  0  0  0  0  0  0
   -0.0060   -0.2650    1.9270 C   0  0  2  0  0  0  0  0  0  0  0  0
   -0.8770    0.7240    2.5600 C   0  0  0  0  0  0  0  0  0  0  0  0
   -2.1620    1.0900    2.0180 C   0  0  0  0  0  0  0  0  0  0  0  0
   -2.5270    2.3040    1.5690 C   0  0  0  0  0  0  0  0  0  0  0  0
   -3.9040    2.2420    1.1080 C   0  0  0  0  0  0  0  0  0  0  0  0
   -4.7350    3.2060    0.5690 O   0  0  0  0  0  0  0  0  0  0  0  0
   -4.2480    1.0060    1.3120 C   0  0  0  0  0  0  0  0  0  0  0  0
   -3.3500    0.2660    1.9150 C   0  0  0  0  0  0  0  0  0  0  0  0
    0.5190    0.2080    0.6180 N   0  0  0  0  0  0  0  0  0  0  0  0
    1.9090    0.4480    0.4220 C   0  0  0  0  0  0  0  0  0  0  0  0
    2.6670    0.2410    1.4050 O   0  0  0  0  0  0  0  0  0  0  0  0
    2.4190    0.9040   -0.8390 N   0  0  0  0  0  0  0  0  0  0  0  0
    3.8470    1.1230   -0.9510 C   0  0  0  0  0  0  0  0  0  0  0  0
    4.2360    1.5890   -2.2950 C   0  0  0  0  0  0  0  0  0  0  0  0
    4.5570    0.8160   -3.3890 C   0  0  0  0  0  0  0  0  0  0  0  0
    4.8600    1.6680   -4.4400 C   0  0  0  0  0  0  0  0  0  0  0  0
    4.6990    2.9460   -3.9000 C   0  0  0  0  0  0  0  0  0  0  0  0
    4.3310    2.8470   -2.6350 O   0  0  0  0  0  0  0  0  0  0  0  0
  1  2  1  0
  2  3  1  0
  4  3  1  6
  4  5  1  0
  4  8  1  0
  5  6  1  0
  6  7  1  0
  7  8  2  0
  8  9  1  0
  9 10  1  6
  9 17  1  0
 10 11  1  0
 11 12  2  0
 11 16  1  0
 12 13  1  0
 13 14  1  0
 13 15  2  0
 15 16  2  0
 17 18  1  0
 18 19  2  0
 18 20  1  0
 20 21  1  0
 21 22  1  0
 22 23  2  0
 22 26  1  0
 23 24  1  0
 24 25  2  0
 25 26  1  0
M  END
