
     RDKit          3D

 16 16  0  0  0  0  0  0  0  0999 V2000
    1.3360   -0.0000   -1.4750 C   0  0  0  0  0  0  0  0  0  0  0  0
    1.6900   -0.6930   -0.1960 C   0  0  2  0  0  0  0  0  0  0  0  0
    1.7310   -2.0930   -0.4800 O   0  0  0  0  0  0  0  0  0  0  0  0
    0.8520   -0.4200    0.8130 O   0  0  0  0  0  0  0  0  0  0  0  0
   -0.4450   -0.7010    0.8250 C   0  0  0  0  0  0  0  0  0  0  0  0
   -1.4050   -0.0750   -0.1060 C   0  0  2  0  0  0  0  0  0  0  0  0
   -1.5090    1.3150   -0.0020 O   0  0  0  0  0  0  0  0  0  0  0  0
   -2.6280    1.6930   -0.7430 C   0  0  0  0  0  0  0  0  0  0  0  0
   -3.7280    1.6050    0.1110 O   0  0  0  0  0  0  0  0  0  0  0  0
   -3.6050    0.4900    0.9430 C   0  0  0  0  0  0  0  0  0  0  0  0
   -2.8000   -0.6060    0.2930 C   0  0  1  0  0  0  0  0  0  0  0  0
   -3.4880   -1.0600   -0.8310 O   0  0  0  0  0  0  0  0  0  0  0  0
    3.1550   -0.4010    0.1710 C   0  0  2  0  0  0  0  0  0  0  0  0
    3.5370   -1.1660    1.2690 O   0  0  0  0  0  0  0  0  0  0  0  0
    3.3740    1.0320    0.4970 C   0  0  0  0  0  0  0  0  0  0  0  0
    3.0410    1.9220   -0.4950 O   0  0  0  0  0  0  0  0  0  0  0  0
  2  1  1  6
  2  3  1  0
  2  4  1  0
  2 13  1  0
  4  5  1  0
  6  5  1  1
  6  7  1  0
  6 11  1  0
  7  8  1  0
  8  9  1  0
  9 10  1  0
 10 11  1  0
 11 12  1  6
 13 14  1  1
 13 15  1  0
 15 16  1  0
M  END
