
     RDKit          3D

 16 16  0  0  0  0  0  0  0  0999 V2000
    4.0990    1.2290   -0.8720 C   0  0  0  0  0  0  0  0  0  0  0  0
    2.8560    1.0240   -0.2530 O   0  0  0  0  0  0  0  0  0  0  0  0
    3.0400    0.0530    0.7070 C   0  0  0  0  0  0  0  0  0  0  0  0
    1.7880   -0.2840    1.4680 C   0  0  0  0  0  0  0  0  0  0  0  0
    0.6940   -0.8030    0.5360 C   0  0  2  0  0  0  0  0  0  0  0  0
    0.3790    0.1450   -0.4040 O   0  0  0  0  0  0  0  0  0  0  0  0
   -0.5760    1.0170    0.0760 C   0  0  1  0  0  0  0  0  0  0  0  0
   -0.8570    2.0550   -0.7860 O   0  0  0  0  0  0  0  0  0  0  0  0
   -1.8630    0.2860    0.3790 C   0  0  1  0  0  0  0  0  0  0  0  0
   -2.4240    0.9400    1.5000 O   0  0  0  0  0  0  0  0  0  0  0  0
   -2.8500    0.4500   -0.7490 C   0  0  0  0  0  0  0  0  0  0  0  0
   -3.0080    1.8380   -0.9730 O   0  0  0  0  0  0  0  0  0  0  0  0
   -1.5910   -1.1140    0.7630 C   0  0  1  0  0  0  0  0  0  0  0  0
   -1.7410   -2.1190   -0.3420 C   0  0  0  0  0  0  0  0  0  0  0  0
   -0.8380   -1.9860   -1.3610 O   0  0  0  0  0  0  0  0  0  0  0  0
   -0.3420   -1.2300    1.3190 O   0  0  0  0  0  0  0  0  0  0  0  0
  1  2  1  0
  2  3  1  0
  3  4  1  0
  5  4  1  1
  5  6  1  0
  5 16  1  0
  6  7  1  0
  7  8  1  6
  7  9  1  0
  9 10  1  1
  9 11  1  0
  9 13  1  0
 11 12  1  0
 13 14  1  6
 13 16  1  0
 14 15  1  0
M  END
