
     RDKit          3D

 16 16  0  0  0  0  0  0  0  0999 V2000
    4.4020    1.3950    0.1790 O   0  0  0  0  0  0  0  0  0  0  0  0
    3.6780    0.1750   -0.0130 C   0  0  0  0  0  0  0  0  0  0  0  0
    2.2470    0.5490    0.2450 C   0  0  0  0  0  0  0  0  0  0  0  0
    1.2920   -0.5710    0.0660 C   0  0  1  0  0  0  0  0  0  0  0  0
    1.5800   -1.7090    0.9930 C   0  0  0  0  0  0  0  0  0  0  0  0
    2.8230   -2.2800    0.8810 O   0  0  0  0  0  0  0  0  0  0  0  0
   -0.0280   -0.1740    0.3110 O   0  0  0  0  0  0  0  0  0  0  0  0
   -0.8370   -0.3730   -0.8030 C   0  0  0  0  0  0  0  0  0  0  0  0
   -2.2500    0.0490   -0.5500 C   0  0  1  0  0  0  0  0  0  0  0  0
   -3.0770   -0.1340   -1.6290 O   0  0  0  0  0  0  0  0  0  0  0  0
   -2.8170   -0.5360    0.7230 C   0  0  1  0  0  0  0  0  0  0  0  0
   -2.6880   -1.8920    0.8190 O   0  0  0  0  0  0  0  0  0  0  0  0
   -2.1010    0.1590    1.6930 O   0  0  0  0  0  0  0  0  0  0  0  0
   -2.1350    1.4820    1.3020 C   0  0  0  0  0  0  0  0  0  0  0  0
   -2.2760    1.5310   -0.1850 C   0  0  1  0  0  0  0  0  0  0  0  0
   -1.1870    2.1350   -0.8140 O   0  0  0  0  0  0  0  0  0  0  0  0
  1  2  1  0
  2  3  1  0
  4  3  1  1
  4  5  1  0
  4  7  1  0
  5  6  1  0
  7  8  1  0
  8  9  1  0
  9 10  1  6
  9 11  1  0
  9 15  1  0
 11 12  1  6
 11 13  1  0
 13 14  1  0
 14 15  1  0
 15 16  1  6
M  END
