
     RDKit          3D

 17 17  0  0  0  0  0  0  0  0999 V2000
    5.0670    0.7280    0.3290 O   0  0  0  0  0  0  0  0  0  0  0  0
    3.9420    0.4520    1.1050 C   0  0  0  0  0  0  0  0  0  0  0  0
    3.2350   -0.6280    0.6680 O   0  0  0  0  0  0  0  0  0  0  0  0
    2.7360   -0.5710   -0.6070 C   0  0  0  0  0  0  0  0  0  0  0  0
    1.7990    0.5710   -0.7640 C   0  0  0  0  0  0  0  0  0  0  0  0
    0.7010    0.5450    0.0690 O   0  0  0  0  0  0  0  0  0  0  0  0
   -0.1260   -0.5350   -0.0570 C   0  0  1  0  0  0  0  0  0  0  0  0
   -0.0870   -1.2320    1.1740 O   0  0  0  0  0  0  0  0  0  0  0  0
   -1.5760   -0.1540   -0.2650 C   0  0  1  0  0  0  0  0  0  0  0  0
   -1.7210    0.6660   -1.5150 C   0  0  0  0  0  0  0  0  0  0  0  0
   -0.9520    1.8070   -1.3740 O   0  0  0  0  0  0  0  0  0  0  0  0
   -2.3490   -1.4690   -0.3820 C   0  0  0  0  0  0  0  0  0  0  0  0
   -2.3950   -1.8530    0.9760 O   0  0  0  0  0  0  0  0  0  0  0  0
   -2.8120   -0.7090    1.6590 C   0  0  0  0  0  0  0  0  0  0  0  0
   -2.2050    0.4620    0.9390 C   0  0  1  0  0  0  0  0  0  0  0  0
   -1.3360    1.1830    1.7320 O   0  0  0  0  0  0  0  0  0  0  0  0
   -3.2610    1.2840    0.5030 O   0  0  0  0  0  0  0  0  0  0  0  0
  1  2  1  0
  2  3  1  0
  3  4  1  0
  4  5  1  0
  5  6  1  0
  6  7  1  0
  7  8  1  1
  7  9  1  0
  9 10  1  6
  9 12  1  0
  9 15  1  0
 10 11  1  0
 12 13  1  0
 13 14  1  0
 14 15  1  0
 15 16  1  1
 15 17  1  0
M  END
