
     RDKit          3D

 20 20  0  0  0  0  0  0  0  0999 V2000
   -6.2360   -1.2950   -0.2520 C   0  0  0  0  0  0  0  0  0  0  0  0
   -4.8540   -1.1010   -0.0150 O   0  0  0  0  0  0  0  0  0  0  0  0
   -4.0880   -0.1700   -0.6580 C   0  0  0  0  0  0  0  0  0  0  0  0
   -4.6200    0.5750   -1.5180 O   0  0  0  0  0  0  0  0  0  0  0  0
   -2.6500    0.0040   -0.3860 C   0  0  0  0  0  0  0  0  0  0  0  0
   -2.0810   -0.7330    0.4780 O   0  0  0  0  0  0  0  0  0  0  0  0
   -1.8730    0.9790   -1.0660 N   0  0  0  0  0  0  0  0  0  0  0  0
   -0.4710    1.2120   -0.8570 C   0  0  0  0  0  0  0  0  0  0  0  0
   -0.2120    1.6170    0.5510 C   0  0  0  0  0  0  0  0  0  0  0  0
    1.1530    1.8620    0.8220 O   0  0  0  0  0  0  0  0  0  0  0  0
    2.1600    0.9510    0.6900 C   0  0  0  0  0  0  0  0  0  0  0  0
    3.0050    1.2010   -0.3190 C   0  0  0  0  0  0  0  0  0  0  0  0
    4.2070    0.5590   -0.8720 C   0  0  0  0  0  0  0  0  0  0  0  0
    4.7390   -0.6450   -0.7230 C   0  0  0  0  0  0  0  0  0  0  0  0
    6.2190   -0.9060   -1.6290 Cl  0  0  0  0  0  0  0  0  0  0  0  0
    4.3280   -1.8260    0.0650 C   0  0  0  0  0  0  0  0  0  0  0  0
    3.4930   -2.0780    1.0650 C   0  0  0  0  0  0  0  0  0  0  0  0
    2.6010   -1.2790    1.8340 N   0  0  0  0  0  0  0  0  0  0  0  0
    2.0720   -0.1000    1.7050 C   0  0  0  0  0  0  0  0  0  0  0  0
    1.0130    0.3160    3.0620 Cl  0  0  0  0  0  0  0  0  0  0  0  0
  1  2  1  0
  2  3  1  0
  3  4  2  0
  3  5  1  0
  5  6  2  0
  5  7  1  0
  7  8  1  0
  8  9  1  0
  9 10  1  0
 10 11  1  0
 11 12  2  0
 11 19  1  0
 12 13  1  0
 13 14  2  0
 14 15  1  0
 14 16  1  0
 16 17  2  0
 17 18  1  0
 18 19  2  0
 19 20  1  0
M  END
