
     RDKit          3D

 20 21  0  0  0  0  0  0  0  0999 V2000
   -4.7030    0.6250    2.0990 C   0  0  0  0  0  0  0  0  0  0  0  0
   -3.7430    0.7060    0.9830 C   0  0  0  0  0  0  0  0  0  0  0  0
   -3.6240    1.7800    0.3410 O   0  0  0  0  0  0  0  0  0  0  0  0
   -2.9330   -0.3470    0.5710 O   0  0  0  0  0  0  0  0  0  0  0  0
   -2.0560   -0.1960   -0.4840 C   0  0  0  0  0  0  0  0  0  0  0  0
   -0.7430    0.2360   -0.3550 C   0  0  0  0  0  0  0  0  0  0  0  0
   -0.1410    0.6060    0.9470 C   0  0  0  0  0  0  0  0  0  0  0  0
    1.1890    0.9830    0.8720 O   0  0  0  0  0  0  0  0  0  0  0  0
    2.2690    0.2560    0.4740 C   0  0  0  0  0  0  0  0  0  0  0  0
    2.1240   -1.0550    0.0800 C   0  0  0  0  0  0  0  0  0  0  0  0
    3.2070   -1.8140   -0.3270 C   0  0  0  0  0  0  0  0  0  0  0  0
    4.4670   -1.2730   -0.3470 C   0  0  0  0  0  0  0  0  0  0  0  0
    5.8730   -2.2180   -0.8620 Cl  0  0  0  0  0  0  0  0  0  0  0  0
    4.6370    0.0330    0.0420 C   0  0  0  0  0  0  0  0  0  0  0  0
    3.5340    0.7860    0.4490 C   0  0  0  0  0  0  0  0  0  0  0  0
    3.8260    2.4270    0.9260 Cl  0  0  0  0  0  0  0  0  0  0  0  0
   -0.1890    0.2620   -1.6050 N   0  0  0  0  0  0  0  0  0  0  0  0
   -1.0940   -0.1320   -2.4800 N   0  0  0  0  0  0  0  0  0  0  0  0
   -2.2390   -0.4180   -1.8390 C   0  0  0  0  0  0  0  0  0  0  0  0
   -3.3370   -0.8230   -2.3020 O   0  0  0  0  0  0  0  0  0  0  0  0
  1  2  1  0
  2  3  2  0
  2  4  1  0
  4  5  1  0
  5  6  2  0
  5 19  1  0
  6  7  1  0
  6 17  1  0
  7  8  1  0
  8  9  1  0
  9 10  2  0
  9 15  1  0
 10 11  1  0
 11 12  2  0
 12 13  1  0
 12 14  1  0
 14 15  2  0
 15 16  1  0
 17 18  1  0
 18 19  1  0
 19 20  2  0
M  END
