
     RDKit          3D

 20 20  0  0  0  0  0  0  0  0999 V2000
   -4.4590    1.1310   -0.0270 C   0  0  0  0  0  0  0  0  0  0  0  0
   -3.2570    0.9750   -0.5330 C   0  0  0  0  0  0  0  0  0  0  0  0
   -2.6130    1.9870   -1.3380 C   0  0  0  0  0  0  0  0  0  0  0  0
   -3.5110    3.4800   -1.6310 Cl  0  0  0  0  0  0  0  0  0  0  0  0
   -1.4060    1.7950   -1.8290 C   0  0  0  0  0  0  0  0  0  0  0  0
   -0.6890    0.5570   -1.5730 C   0  0  0  0  0  0  0  0  0  0  0  0
   -1.2260   -0.4260   -0.8340 C   0  0  0  0  0  0  0  0  0  0  0  0
   -0.4910   -1.5810   -0.6270 O   0  0  0  0  0  0  0  0  0  0  0  0
    0.8800   -1.6080   -0.9510 C   0  0  0  0  0  0  0  0  0  0  0  0
    1.6510   -0.5850   -0.1780 C   0  0  0  0  0  0  0  0  0  0  0  0
    1.1230    0.1870    0.6470 O   0  0  0  0  0  0  0  0  0  0  0  0
    3.0070   -0.4930   -0.3900 O   0  0  0  0  0  0  0  0  0  0  0  0
    3.8710    0.4010    0.2430 C   0  0  0  0  0  0  0  0  0  0  0  0
    3.9030    0.2510    1.7170 C   0  0  0  0  0  0  0  0  0  0  0  0
    4.7450    1.1060    2.4610 N   0  0  0  0  0  0  0  0  0  0  0  0
    3.2180   -0.5990    2.3360 O   0  0  0  0  0  0  0  0  0  0  0  0
   -2.5470   -0.2990   -0.2560 C   0  0  0  0  0  0  0  0  0  0  0  0
   -3.1390   -1.1770    0.4590 N   0  0  0  0  0  0  0  0  0  0  0  0
   -2.5850   -2.4440    0.8090 C   0  0  0  0  0  0  0  0  0  0  0  0
   -1.2500   -2.3420    1.9800 Cl  0  0  0  0  0  0  0  0  0  0  0  0
  1  2  2  0
  2  3  1  0
  2 17  1  0
  3  4  1  0
  3  5  2  0
  5  6  1  0
  6  7  2  0
  7  8  1  0
  7 17  1  0
  8  9  1  0
  9 10  1  0
 10 11  2  0
 10 12  1  0
 12 13  1  0
 13 14  1  0
 14 15  1  0
 14 16  2  0
 17 18  2  3
 18 19  1  0
 19 20  1  0
M  END
