
     RDKit          3D

 20 21  0  0  0  0  0  0  0  0999 V2000
    4.0770   -2.6080    0.6030 O   0  0  0  0  0  0  0  0  0  0  0  0
    3.8870   -1.4570    0.1340 C   0  0  0  0  0  0  0  0  0  0  0  0
    4.8080   -0.8840   -0.6610 N   0  0  0  0  0  0  0  0  0  0  0  0
    4.6190    0.3510   -1.1720 C   0  0  0  0  0  0  0  0  0  0  0  0
    3.4530    1.0390   -0.8720 C   0  0  0  0  0  0  0  0  0  0  0  0
    2.5150    0.4410   -0.0560 C   0  0  0  0  0  0  0  0  0  0  0  0
    1.3330    1.0650    0.2840 C   0  0  0  0  0  0  0  0  0  0  0  0
    1.1190    2.2080   -0.1690 O   0  0  0  0  0  0  0  0  0  0  0  0
    0.4390    0.4260    1.0960 N   0  0  0  0  0  0  0  0  0  0  0  0
   -0.7770    1.1130    1.4340 C   0  0  0  0  0  0  0  0  0  0  0  0
   -1.9000    0.8880    0.4620 C   0  0  0  0  0  0  0  0  0  0  0  0
   -2.3170   -0.5450    0.3210 C   0  0  0  0  0  0  0  0  0  0  0  0
   -3.4340   -0.7140   -0.6720 C   0  0  0  0  0  0  0  0  0  0  0  0
   -4.6880    0.0320   -0.3300 C   0  0  2  0  0  0  0  0  0  0  0  0
   -5.3720   -0.4580    1.2170 Cl  0  0  0  0  0  0  0  0  0  0  0  0
   -5.9100   -0.3400   -1.5860 Cl  0  0  0  0  0  0  0  0  0  0  0  0
    0.6710   -0.8050    1.5830 C   0  0  0  0  0  0  0  0  0  0  0  0
   -0.1320   -1.4250    2.3370 O   0  0  0  0  0  0  0  0  0  0  0  0
    1.8070   -1.3870    1.2470 O   0  0  0  0  0  0  0  0  0  0  0  0
    2.7040   -0.8260    0.4720 C   0  0  0  0  0  0  0  0  0  0  0  0
  1  2  2  0
  2  3  1  0
  2 20  1  0
  3  4  1  0
  4  5  2  0
  5  6  1  0
  6  7  1  0
  6 20  2  0
  7  8  2  0
  7  9  1  0
  9 10  1  0
  9 17  1  0
 10 11  1  0
 11 12  1  0
 12 13  1  0
 13 14  1  0
 14 15  1  1
 14 16  1  0
 17 18  2  0
 17 19  1  0
 19 20  1  0
M  END
