
     RDKit          3D

 20 21  0  0  0  0  0  0  0  0999 V2000
    5.2680   -0.4530    0.0450 C   0  0  0  0  0  0  0  0  0  0  0  0
    3.8620   -0.2260   -0.2890 N   0  0  0  0  0  0  0  0  0  0  0  0
    3.4230   -0.1200   -1.6370 C   0  0  0  0  0  0  0  0  0  0  0  0
    4.2820   -0.2290   -2.5450 O   0  0  0  0  0  0  0  0  0  0  0  0
    1.9740    0.1130   -1.9450 C   0  0  0  0  0  0  0  0  0  0  0  0
    1.2180    0.1980   -0.7560 O   0  0  0  0  0  0  0  0  0  0  0  0
   -0.1340    0.4060   -0.7140 C   0  0  0  0  0  0  0  0  0  0  0  0
   -0.7030    1.1530   -1.6450 C   0  0  0  0  0  0  0  0  0  0  0  0
   -2.0800    1.3980   -1.6470 N   0  0  0  0  0  0  0  0  0  0  0  0
   -2.9300    0.8270   -0.6080 C   0  0  0  0  0  0  0  0  0  0  0  0
   -4.2020    1.0930   -0.6410 C   0  0  0  0  0  0  0  0  0  0  0  0
   -4.7960    2.1200   -1.9640 Cl  0  0  0  0  0  0  0  0  0  0  0  0
   -5.3840    0.6450    0.5200 Cl  0  0  0  0  0  0  0  0  0  0  0  0
   -2.2270    0.0270    0.3570 C   0  0  0  0  0  0  0  0  0  0  0  0
   -0.9010   -0.2020    0.3530 C   0  0  0  0  0  0  0  0  0  0  0  0
   -0.4310   -0.9870    1.3660 O   0  0  0  0  0  0  0  0  0  0  0  0
   -0.9600   -1.1560    2.6410 C   0  0  0  0  0  0  0  0  0  0  0  0
   -2.4040   -0.7790    2.7450 C   0  0  0  0  0  0  0  0  0  0  0  0
   -2.9770   -0.7020    1.3800 C   0  0  0  0  0  0  0  0  0  0  0  0
   -4.0810   -1.2380    1.0470 O   0  0  0  0  0  0  0  0  0  0  0  0
  1  2  1  0
  2  3  1  0
  3  4  2  0
  3  5  1  0
  5  6  1  0
  6  7  1  0
  7  8  2  0
  7 15  1  0
  8  9  1  0
  9 10  1  0
 10 11  2  3
 10 14  1  0
 11 12  1  0
 11 13  1  0
 14 15  2  0
 14 19  1  0
 15 16  1  0
 16 17  1  0
 17 18  1  0
 18 19  1  0
 19 20  2  0
M  END
