
     RDKit          3D

 22 22  0  0  0  0  0  0  0  0999 V2000
    7.2290   -0.3430   -1.4570 C   0  0  0  0  0  0  0  0  0  0  0  0
    6.3250    0.5470   -0.6580 C   0  0  2  0  0  0  0  0  0  0  0  0
    6.7290    1.8550   -0.5850 O   0  0  0  0  0  0  0  0  0  0  0  0
    6.0450   -0.0720    0.6980 C   0  0  2  0  0  0  0  0  0  0  0  0
    7.3350   -0.2670    1.4330 C   0  0  0  0  0  0  0  0  0  0  0  0
    5.1420   -1.6190    0.4390 S   0  0  0  0  0  0  0  0  0  0  0  0
    3.5470   -1.3790   -0.2230 N   0  0  0  0  0  0  0  0  0  0  0  0
    2.6460   -0.4920    0.4420 C   0  0  0  0  0  0  0  0  0  0  0  0
    3.0510    0.1010    1.4880 O   0  0  0  0  0  0  0  0  0  0  0  0
    1.3190   -0.2420   -0.0130 N   0  0  0  0  0  0  0  0  0  0  0  0
    0.5020    0.6790    0.7390 C   0  0  0  0  0  0  0  0  0  0  0  0
   -0.8560    0.7650    0.0430 C   0  0  1  0  0  0  0  0  0  0  0  0
   -0.6360    1.1880   -1.2440 O   0  0  0  0  0  0  0  0  0  0  0  0
   -1.4960   -0.5840    0.1730 C   0  0  0  0  0  0  0  0  0  0  0  0
   -2.7150   -0.6170   -0.4340 O   0  0  0  0  0  0  0  0  0  0  0  0
   -3.5990    0.2630    0.1310 C   0  0  1  0  0  0  0  0  0  0  0  0
   -4.1530    1.1640   -0.9640 C   0  0  0  0  0  0  0  0  0  0  0  0
   -5.1350    0.3190   -1.7650 C   0  0  0  0  0  0  0  0  0  0  0  0
   -6.4100    0.2270   -0.9240 C   0  0  0  0  0  0  0  0  0  0  0  0
   -6.0490    0.1580    0.5500 C   0  0  1  0  0  0  0  0  0  0  0  0
   -7.0850   -0.5970    1.3610 C   0  0  0  0  0  0  0  0  0  0  0  0
   -4.7340   -0.5940    0.7100 C   0  0  0  0  0  0  0  0  0  0  0  0
  2  1  1  1
  2  3  1  0
  2  4  1  0
  4  5  1  6
  4  6  1  0
  6  7  1  0
  7  8  1  0
  8  9  2  0
  8 10  1  0
 10 11  1  0
 11 12  1  0
 12 13  1  6
 12 14  1  0
 14 15  1  0
 16 15  1  6
 16 17  1  0
 16 22  1  0
 17 18  1  0
 18 19  1  0
 19 20  1  0
 20 21  1  1
 20 22  1  0
M  END
