
     RDKit          3D

 22 23  0  0  0  0  0  0  0  0999 V2000
   -0.7840    0.4190   -2.2550 C   0  0  0  0  0  0  0  0  0  0  0  0
   -0.2240   -0.5540   -1.2110 C   0  0  1  0  0  0  0  0  0  0  0  0
    0.7400    0.1670   -0.4730 O   0  0  0  0  0  0  0  0  0  0  0  0
    2.0820   -0.2640   -0.4080 C   0  0  0  0  0  0  0  0  0  0  0  0
    2.3400   -1.3040   -1.0370 O   0  0  0  0  0  0  0  0  0  0  0  0
    3.0560    0.4880    0.3540 C   0  0  1  0  0  0  0  0  0  0  0  0
    2.4210    1.6560    0.9690 N   0  0  0  0  0  0  0  0  0  0  0  0
    3.7650   -0.2550    1.4310 C   0  0  0  0  0  0  0  0  0  0  0  0
    4.9120    0.6720    1.7790 C   0  0  0  0  0  0  0  0  0  0  0  0
    5.0080    1.6860    0.6680 C   0  0  0  0  0  0  0  0  0  0  0  0
    4.2190    1.0140   -0.4670 C   0  0  1  0  0  0  0  0  0  0  0  0
    5.0880   -0.0660   -1.0170 C   0  0  0  0  0  0  0  0  0  0  0  0
   -1.3580   -0.8760   -0.3060 C   0  0  0  0  0  0  0  0  0  0  0  0
   -1.3080   -0.5010    0.8730 O   0  0  0  0  0  0  0  0  0  0  0  0
   -2.4620   -1.5960   -0.7970 N   0  0  0  0  0  0  0  0  0  0  0  0
   -3.6390   -1.9720   -0.0790 C   0  0  0  0  0  0  0  0  0  0  0  0
   -4.5290   -0.9050    0.3660 C   0  0  1  0  0  0  0  0  0  0  0  0
   -5.6500   -1.4770    1.0310 O   0  0  0  0  0  0  0  0  0  0  0  0
   -4.0180    0.1500    1.2810 C   0  0  0  0  0  0  0  0  0  0  0  0
   -5.3530    0.8450    1.7260 C   0  0  0  0  0  0  0  0  0  0  0  0
   -6.0630    1.1260    0.0530 S   0  0  0  0  0  0  0  0  0  0  0  0
   -5.0920   -0.1460   -0.8570 C   0  0  0  0  0  0  0  0  0  0  0  0
  2  1  1  6
  2  3  1  0
  2 13  1  0
  3  4  1  0
  4  5  2  0
  4  6  1  0
  6  7  1  1
  6  8  1  0
  6 11  1  0
  8  9  1  0
  9 10  1  0
 10 11  1  0
 11 12  1  1
 13 14  2  0
 13 15  1  0
 15 16  1  0
 16 17  1  0
 17 18  1  1
 17 19  1  0
 17 22  1  0
 19 20  1  0
 20 21  1  0
 21 22  1  0
M  END
