
     RDKit          3D

 22 22  0  0  0  0  0  0  0  0999 V2000
   -2.0130   -2.7110    1.5640 C   0  0  0  0  0  0  0  0  0  0  0  0
   -2.4430   -1.2890    1.6940 C   0  0  2  0  0  0  0  0  0  0  0  0
   -3.6730   -0.9180    0.9320 C   0  0  0  0  0  0  0  0  0  0  0  0
   -3.6640   -1.2780   -0.5170 C   0  0  0  0  0  0  0  0  0  0  0  0
   -2.6240   -0.5440   -1.2910 C   0  0  1  0  0  0  0  0  0  0  0  0
   -2.8200    0.9150   -1.4640 C   0  0  0  0  0  0  0  0  0  0  0  0
   -4.0710    1.1960   -2.2000 C   0  0  0  0  0  0  0  0  0  0  0  0
   -4.5070    2.5600   -2.4140 N   0  0  0  0  0  0  0  0  0  0  0  0
   -4.8240    0.3330   -2.6790 O   0  0  0  0  0  0  0  0  0  0  0  0
   -1.2160   -0.9170   -0.8920 C   0  0  0  0  0  0  0  0  0  0  0  0
   -0.6680   -0.1660    0.2630 C   0  0  2  0  0  0  0  0  0  0  0  0
    0.7640   -0.4540    0.3280 N   0  0  0  0  0  0  0  0  0  0  0  0
    1.7730    0.4860    0.0660 C   0  0  0  0  0  0  0  0  0  0  0  0
    1.4220    1.6510   -0.2440 O   0  0  0  0  0  0  0  0  0  0  0  0
    3.1630    0.2350    0.1210 N   0  0  0  0  0  0  0  0  0  0  0  0
    4.1270    1.2520   -0.1620 C   0  0  2  0  0  0  0  0  0  0  0  0
    4.9220    0.8710   -1.3950 C   0  0  0  0  0  0  0  0  0  0  0  0
    5.0850    1.5550    0.9320 C   0  0  0  0  0  0  0  0  0  0  0  0
    6.0850    0.2070    1.4520 S   0  0  1  0  0  0  0  0  0  0  0  0
    6.9050    0.7050    2.6370 O   0  0  0  0  0  0  0  0  0  0  0  0
    5.2630   -0.9700    1.8510 O   0  0  0  0  0  0  0  0  0  0  0  0
   -1.3220   -0.2990    1.5630 C   0  0  0  0  0  0  0  0  0  0  0  0
  2  1  1  6
  2  3  1  0
  2 22  1  0
  3  4  1  0
  4  5  1  0
  5  6  1  1
  5 10  1  0
  6  7  1  0
  7  8  1  0
  7  9  2  0
 10 11  1  0
 11 12  1  1
 11 22  1  0
 12 13  1  0
 13 14  2  0
 13 15  1  0
 15 16  1  0
 16 17  1  6
 16 18  1  0
 19 18  1  1
 19 20  2  0
 19 21  2  0
M  END
