
     RDKit          3D

 22 23  0  0  0  0  0  0  0  0999 V2000
   -5.6290   -0.1850    1.9670 C   0  0  0  0  0  0  0  0  0  0  0  0
   -4.3380    0.5890    1.7090 C   0  0  0  0  0  0  0  0  0  0  0  0
   -3.8270    0.3540    0.3180 C   0  0  2  0  0  0  0  0  0  0  0  0
   -2.3070    1.2970    0.0850 S   0  0  0  0  0  0  0  0  0  0  0  0
   -1.6320    1.0570   -1.5790 C   0  0  0  0  0  0  0  0  0  0  0  0
   -1.1650   -0.3820   -1.7760 C   0  0  1  0  0  0  0  0  0  0  0  0
   -0.6270   -0.5110   -3.1550 C   0  0  0  0  0  0  0  0  0  0  0  0
    0.6790   -1.2150   -2.9840 C   0  0  0  0  0  0  0  0  0  0  0  0
    0.7240   -1.5250   -1.5150 C   0  0  1  0  0  0  0  0  0  0  0  0
    2.1190   -1.4250   -0.9760 C   0  0  0  0  0  0  0  0  0  0  0  0
    3.0530   -2.1320   -1.4340 O   0  0  0  0  0  0  0  0  0  0  0  0
    2.4640   -0.5300    0.0780 N   0  0  0  0  0  0  0  0  0  0  0  0
    3.8140   -0.4290    0.6010 C   0  0  2  0  0  0  0  0  0  0  0  0
    3.7470   -0.8380    2.0640 C   0  0  0  0  0  0  0  0  0  0  0  0
    5.1610   -1.0550    2.5350 C   0  0  0  0  0  0  0  0  0  0  0  0
    5.9840   -0.1530    1.8770 O   0  0  0  0  0  0  0  0  0  0  0  0
    5.3700    1.0930    1.6830 C   0  0  0  0  0  0  0  0  0  0  0  0
    4.3230    0.9970    0.5800 C   0  0  0  0  0  0  0  0  0  0  0  0
   -0.1370   -0.6700   -0.8910 O   0  0  0  0  0  0  0  0  0  0  0  0
   -4.8840    0.7310   -0.6500 C   0  0  0  0  0  0  0  0  0  0  0  0
   -5.4100    2.0400   -0.7130 N   0  0  0  0  0  0  0  0  0  0  0  0
   -5.3360   -0.1290   -1.4470 O   0  0  0  0  0  0  0  0  0  0  0  0
  1  2  1  0
  3  2  1  1
  3  4  1  0
  3 20  1  0
  4  5  1  0
  6  5  1  1
  6  7  1  0
  6 19  1  0
  7  8  1  0
  8  9  1  0
  9 10  1  1
  9 19  1  0
 10 11  2  0
 10 12  1  0
 13 12  1  1
 13 14  1  0
 13 18  1  0
 14 15  1  0
 15 16  1  0
 16 17  1  0
 17 18  1  0
 20 21  1  0
 20 22  2  0
M  END
