
     RDKit          3D

 24 26  0  0  0  0  0  0  0  0999 V2000
    5.4780    1.1240    0.0480 C   0  0  0  0  0  0  0  0  0  0  0  0
    5.5510   -0.1070   -0.5880 O   0  0  0  0  0  0  0  0  0  0  0  0
    4.7480   -1.0640    0.0310 C   0  0  0  0  0  0  0  0  0  0  0  0
    3.3250   -0.6510    0.0270 C   0  0  0  0  0  0  0  0  0  0  0  0
    2.8410    0.0430    1.1140 C   0  0  0  0  0  0  0  0  0  0  0  0
    1.5000    0.4360    1.1190 C   0  0  0  0  0  0  0  0  0  0  0  0
    0.8550    1.3130    2.4740 Cl  0  0  0  0  0  0  0  0  0  0  0  0
    0.6710    0.1370    0.0590 C   0  0  0  0  0  0  0  0  0  0  0  0
   -0.7250    0.6090    0.0770 C   0  0  0  0  0  0  0  0  0  0  0  0
   -1.7460   -0.2100    0.0330 C   0  0  0  0  0  0  0  0  0  0  0  0
   -1.5270   -1.6290   -0.0250 N   0  0  0  0  0  0  0  0  0  0  0  0
   -2.6460   -2.4820   -0.1080 C   0  0  0  0  0  0  0  0  0  0  0  0
   -3.8520   -2.0480   -0.1330 N   0  0  0  0  0  0  0  0  0  0  0  0
   -4.1230   -0.6560   -0.0770 C   0  0  0  0  0  0  0  0  0  0  0  0
   -5.4500   -0.2140   -0.1050 C   0  0  0  0  0  0  0  0  0  0  0  0
   -5.7410    1.1300   -0.0510 C   0  0  0  0  0  0  0  0  0  0  0  0
   -7.4000    1.7220   -0.0840 Cl  0  0  0  0  0  0  0  0  0  0  0  0
   -4.7470    2.0710    0.0310 C   0  0  0  0  0  0  0  0  0  0  0  0
   -3.4280    1.6560    0.0600 C   0  0  0  0  0  0  0  0  0  0  0  0
   -2.4440    2.5880    0.1440 F   0  0  0  0  0  0  0  0  0  0  0  0
   -3.1170    0.3160    0.0070 C   0  0  0  0  0  0  0  0  0  0  0  0
    1.2060   -0.5490   -0.9870 C   0  0  0  0  0  0  0  0  0  0  0  0
    0.5110   -0.8440   -1.9780 O   0  0  0  0  0  0  0  0  0  0  0  0
    2.5080   -0.9380   -1.0060 N   0  0  0  0  0  0  0  0  0  0  0  0
  1  2  1  0
  2  3  1  0
  3  4  1  0
  4  5  2  0
  4 24  1  0
  5  6  1  0
  6  7  1  0
  6  8  2  0
  8  9  1  0
  8 22  1  0
  9 10  2  3
 10 11  1  0
 10 21  1  0
 11 12  1  0
 12 13  2  0
 13 14  1  0
 14 15  2  0
 14 21  1  0
 15 16  1  0
 16 17  1  0
 16 18  2  0
 18 19  1  0
 19 20  1  0
 19 21  2  0
 22 23  2  0
 22 24  1  0
M  END
