
     RDKit          3D

 24 26  0  0  0  0  0  0  0  0999 V2000
   -4.2660    0.9140    0.8050 C   0  0  0  0  0  0  0  0  0  0  0  0
   -3.4700   -0.0520   -0.0430 C   0  0  1  0  0  0  0  0  0  0  0  0
   -2.0530    0.3500   -0.1030 C   0  0  0  0  0  0  0  0  0  0  0  0
   -1.1360   -0.4380    0.3280 N   0  0  0  0  0  0  0  0  0  0  0  0
    0.2660   -0.1410    0.3140 C   0  0  0  0  0  0  0  0  0  0  0  0
    1.0910   -0.9980    0.7620 O   0  0  0  0  0  0  0  0  0  0  0  0
    0.7020    1.1310   -0.2160 C   0  0  0  0  0  0  0  0  0  0  0  0
    1.9470    1.5070   -0.2400 C   0  0  0  0  0  0  0  0  0  0  0  0
    3.1030    0.7880    0.2360 C   0  0  0  0  0  0  0  0  0  0  0  0
    3.2540    0.3650    1.5320 C   0  0  0  0  0  0  0  0  0  0  0  0
    4.3670   -0.3380    1.9020 C   0  0  0  0  0  0  0  0  0  0  0  0
    4.5120   -0.7550    3.1790 F   0  0  0  0  0  0  0  0  0  0  0  0
    5.3680   -0.6420    0.9950 C   0  0  0  0  0  0  0  0  0  0  0  0
    6.7880   -1.5360    1.4580 Cl  0  0  0  0  0  0  0  0  0  0  0  0
    5.2350   -0.2260   -0.3080 C   0  0  0  0  0  0  0  0  0  0  0  0
    6.3250   -0.5600   -1.2830 C   0  0  0  0  0  0  0  0  0  0  0  0
    6.1390   -2.2840   -1.6940 Cl  0  0  0  0  0  0  0  0  0  0  0  0
    4.1180    0.4800   -0.6830 C   0  0  0  0  0  0  0  0  0  0  0  0
   -0.3370    2.0190   -0.7030 N   0  0  0  0  0  0  0  0  0  0  0  0
   -1.6560    1.6100   -0.6330 N   0  0  0  0  0  0  0  0  0  0  0  0
   -3.5680   -1.4280    0.5900 C   0  0  0  0  0  0  0  0  0  0  0  0
   -5.0260   -1.7700    0.2440 C   0  0  0  0  0  0  0  0  0  0  0  0
   -5.2750   -0.8630   -0.9310 C   0  0  0  0  0  0  0  0  0  0  0  0
   -4.0480   -0.2790   -1.2740 O   0  0  0  0  0  0  0  0  0  0  0  0
  2  1  1  1
  2  3  1  0
  2 21  1  0
  2 24  1  0
  3  4  2  0
  3 20  1  0
  4  5  1  0
  5  6  2  0
  5  7  1  0
  7  8  2  3
  7 19  1  0
  8  9  1  0
  9 10  2  0
  9 18  1  0
 10 11  1  0
 11 12  1  0
 11 13  2  0
 13 14  1  0
 13 15  1  0
 15 16  1  0
 15 18  2  0
 16 17  1  0
 19 20  1  0
 21 22  1  0
 22 23  1  0
 23 24  1  0
M  END
