
     RDKit          3D

 11 11  0  0  0  0  0  0  0  0999 V2000
   -2.7420    0.3350    0.0410 C   0  0  0  0  0  0  0  0  0  0  0  0
   -1.2790    0.7070   -0.1840 C   0  0  1  0  0  0  0  0  0  0  0  0
   -0.8390    1.3740    0.9150 O   0  0  0  0  0  0  0  0  0  0  0  0
    0.3160    0.8330    1.3810 C   0  0  0  0  0  0  0  0  0  0  0  0
    0.6940   -0.3460    0.5570 C   0  0  2  0  0  0  0  0  0  0  0  0
    1.9830   -0.0600   -0.1890 C   0  0  2  0  0  0  0  0  0  0  0  0
    2.3810   -1.1230   -0.9710 O   0  0  0  0  0  0  0  0  0  0  0  0
    2.9490    0.2770    0.7540 O   0  0  0  0  0  0  0  0  0  0  0  0
   -0.4460   -0.4990   -0.4160 C   0  0  2  0  0  0  0  0  0  0  0  0
    0.0640   -0.4400   -1.7250 O   0  0  0  0  0  0  0  0  0  0  0  0
   -1.1450   -1.6750   -0.2700 O   0  0  0  0  0  0  0  0  0  0  0  0
  2  1  1  1
  2  3  1  0
  2  9  1  0
  3  4  1  0
  5  4  1  1
  5  6  1  0
  5  9  1  0
  6  7  1  1
  6  8  1  0
  9 10  1  6
  9 11  1  0
M  END
