
     RDKit          3D

 11 11  0  0  0  0  0  0  0  0999 V2000
    3.5520   -0.7610    0.4060 O   0  0  0  0  0  0  0  0  0  0  0  0
    2.6190    0.2180    0.0610 C   0  0  0  0  0  0  0  0  0  0  0  0
    1.4440   -0.5120   -0.5790 C   0  0  1  0  0  0  0  0  0  0  0  0
    0.9230   -1.4010    0.3420 O   0  0  0  0  0  0  0  0  0  0  0  0
   -0.0520   -0.6540    1.0040 C   0  0  0  0  0  0  0  0  0  0  0  0
   -0.6310    0.1710   -0.1040 C   0  0  1  0  0  0  0  0  0  0  0  0
   -1.6730   -0.6300   -0.8200 C   0  0  0  0  0  0  0  0  0  0  0  0
   -2.8030   -0.8750   -0.0710 O   0  0  0  0  0  0  0  0  0  0  0  0
   -1.0990    1.5230    0.3230 C   0  0  0  0  0  0  0  0  0  0  0  0
   -2.1650    1.5220    1.1840 O   0  0  0  0  0  0  0  0  0  0  0  0
    0.4500    0.3440   -0.9710 O   0  0  0  0  0  0  0  0  0  0  0  0
  1  2  1  0
  3  2  1  1
  3  4  1  0
  3 11  1  0
  4  5  1  0
  5  6  1  0
  6  7  1  6
  6  9  1  0
  6 11  1  0
  7  8  1  0
  9 10  1  0
M  END
