
     RDKit          3D

 11 11  0  0  0  0  0  0  0  0999 V2000
    2.9970    1.0720    0.6150 O   0  0  0  0  0  0  0  0  0  0  0  0
    2.1700    0.9520   -0.3860 O   0  0  0  0  0  0  0  0  0  0  0  0
    1.7850   -0.3490   -0.6480 C   0  0  0  0  0  0  0  0  0  0  0  0
    0.6740   -0.8400    0.2390 C   0  0  1  0  0  0  0  0  0  0  0  0
    0.8060   -0.2380    1.4770 O   0  0  0  0  0  0  0  0  0  0  0  0
   -0.6500   -0.5810   -0.4230 C   0  0  2  0  0  0  0  0  0  0  0  0
   -0.8360   -1.4650   -1.4690 O   0  0  0  0  0  0  0  0  0  0  0  0
   -0.8090    0.8720   -0.8530 C   0  0  0  0  0  0  0  0  0  0  0  0
   -1.1050    1.5000    0.4910 C   0  0  0  0  0  0  0  0  0  0  0  0
   -1.6190    0.5170    1.3110 O   0  0  0  0  0  0  0  0  0  0  0  0
   -1.8120   -0.6280    0.5630 C   0  0  0  0  0  0  0  0  0  0  0  0
  1  2  1  0
  2  3  1  0
  3  4  1  0
  4  5  1  1
  4  6  1  0
  6  7  1  6
  6  8  1  0
  6 11  1  0
  8  9  1  0
  9 10  1  0
 10 11  1  0
M  END
