
     RDKit          3D

 11 11  0  0  0  0  0  0  0  0999 V2000
   -2.5570   -0.2530    0.5000 C   0  0  0  0  0  0  0  0  0  0  0  0
   -1.1030   -0.5360    0.1420 C   0  0  2  0  0  0  0  0  0  0  0  0
   -0.3280   -0.3640    1.2740 O   0  0  0  0  0  0  0  0  0  0  0  0
    0.9530   -0.8510    0.9720 C   0  0  1  0  0  0  0  0  0  0  0  0
    0.8330   -2.1020    0.3880 O   0  0  0  0  0  0  0  0  0  0  0  0
    1.6330    0.1560    0.0950 C   0  0  1  0  0  0  0  0  0  0  0  0
    2.6580   -0.4220   -0.6790 O   0  0  0  0  0  0  0  0  0  0  0  0
    0.7070    0.9470   -0.7650 C   0  0  2  0  0  0  0  0  0  0  0  0
    0.4880    2.2220   -0.2060 O   0  0  0  0  0  0  0  0  0  0  0  0
   -0.6220    0.3160   -0.9910 C   0  0  2  0  0  0  0  0  0  0  0  0
   -1.5740    1.3360   -1.1750 O   0  0  0  0  0  0  0  0  0  0  0  0
  2  1  1  1
  2  3  1  0
  2 10  1  0
  3  4  1  0
  4  5  1  6
  4  6  1  0
  6  7  1  6
  6  8  1  0
  8  9  1  1
  8 10  1  0
 10 11  1  1
M  END
