
     RDKit          3D

 10 10  0  0  0  0  0  0  0  0999 V2000
    2.8200   -0.6180    0.7500 O   0  0  0  0  0  0  0  0  0  0  0  0
    1.9530    0.4340    0.5940 C   0  0  0  0  0  0  0  0  0  0  0  0
    0.5510    0.0130    0.2650 C   0  0  2  0  0  0  0  0  0  0  0  0
    0.0530   -0.7940    1.2990 O   0  0  0  0  0  0  0  0  0  0  0  0
    0.4360   -0.7670   -1.0090 C   0  0  0  0  0  0  0  0  0  0  0  0
   -1.0310   -1.2160   -1.0830 C   0  0  0  0  0  0  0  0  0  0  0  0
   -1.8700   -0.1260   -1.1340 O   0  0  0  0  0  0  0  0  0  0  0  0
   -1.7870    0.5880    0.0470 C   0  0  2  0  0  0  0  0  0  0  0  0
   -2.7250    1.6010    0.1370 O   0  0  0  0  0  0  0  0  0  0  0  0
   -0.3940    1.1900    0.1520 C   0  0  0  0  0  0  0  0  0  0  0  0
  1  2  1  0
  2  3  1  0
  3  4  1  1
  3  5  1  0
  3 10  1  0
  5  6  1  0
  6  7  1  0
  7  8  1  0
  8  9  1  6
  8 10  1  0
M  END
