
     RDKit          3D

 16 16  0  0  0  0  0  0  0  0999 V2000
   -4.4580   -1.6570   -0.1980 C   0  0  0  0  0  0  0  0  0  0  0  0
   -3.8960   -0.5540    0.2550 C   0  0  0  0  0  0  0  0  0  0  0  0
   -2.4790   -0.6100    0.7180 C   0  0  0  0  0  0  0  0  0  0  0  0
   -1.6570    0.3100   -0.0690 N   0  0  0  0  0  0  0  0  0  0  0  0
   -0.2450    0.2640    0.0620 C   0  0  0  0  0  0  0  0  0  0  0  0
    0.2340    0.5530    1.3330 O   0  0  0  0  0  0  0  0  0  0  0  0
    1.9950    0.3950    1.1500 S   0  0  0  0  0  0  0  0  0  0  0  0
    2.9710    0.9010    2.0170 O   0  0  0  0  0  0  0  0  0  0  0  0
    1.7950    1.7590    0.3190 O   0  0  0  0  0  0  0  0  0  0  0  0
    2.2430   -0.3160   -0.4460 O   0  0  0  0  0  0  0  0  0  0  0  0
    3.2370   -1.1090   -0.3480 O   0  0  0  0  0  0  0  0  0  0  0  0
    4.0920   -0.7830    0.6400 N   0  0  0  0  0  0  0  0  0  0  0  0
    5.4130   -0.6910    0.1260 N   0  0  0  0  0  0  0  0  0  0  0  0
   -2.3220    1.2150   -0.9220 C   0  0  0  0  0  0  0  0  0  0  0  0
   -2.7780    2.4340   -1.2010 C   0  0  0  0  0  0  0  0  0  0  0  0
   -2.9830    1.4280   -2.1220 O   0  0  0  0  0  0  0  0  0  0  0  0
  1  2  2  0
  2  3  1  0
  3  4  1  0
  4  5  1  0
  4 14  1  0
  5  6  1  0
  6  7  1  0
  7  8  2  0
  7  9  1  0
  7 10  1  0
 10 11  1  0
 11 12  1  0
 12 13  1  0
 14 15  2  0
 14 16  1  0
 15 16  1  0
M  END
