
     RDKit          3D

 15 15  0  0  0  0  0  0  0  0999 V2000
    4.2350    1.2350    0.4210 C   0  0  0  0  0  0  0  0  0  0  0  0
    4.0350    0.0450   -0.3200 N   0  0  0  0  0  0  0  0  0  0  0  0
    2.9140   -0.6520   -0.0860 O   0  0  0  0  0  0  0  0  0  0  0  0
    1.6290   -0.1860   -0.1400 C   0  0  0  0  0  0  0  0  0  0  0  0
    1.4350    1.0140   -0.4370 O   0  0  0  0  0  0  0  0  0  0  0  0
    0.4760   -0.9700    0.1180 N   0  0  0  0  0  0  0  0  0  0  0  0
   -0.8210   -0.3980    0.0370 C   0  0  1  0  0  0  0  0  0  0  0  0
   -0.8830    0.8140   -0.6300 O   0  0  0  0  0  0  0  0  0  0  0  0
   -2.2570    1.0680   -0.8210 C   0  0  0  0  0  0  0  0  0  0  0  0
   -2.5810    2.5950   -1.6890 S   0  0  0  0  0  0  0  0  0  0  0  0
   -2.1100    3.9580   -0.7690 O   0  0  0  0  0  0  0  0  0  0  0  0
   -1.6580   -1.3210   -0.7410 N   0  0  0  0  0  0  0  0  0  0  0  0
   -2.2660   -2.2140    0.2120 C   0  0  0  0  0  0  0  0  0  0  0  0
   -1.7130   -1.6870    1.5250 C   0  0  0  0  0  0  0  0  0  0  0  0
   -1.4710   -0.3550    1.2550 O   0  0  0  0  0  0  0  0  0  0  0  0
  1  2  1  0
  2  3  1  0
  3  4  1  0
  4  5  2  0
  4  6  1  0
  7  6  1  1
  7  8  1  0
  7 12  1  0
  7 15  1  0
  8  9  1  0
  9 10  1  0
 10 11  1  0
 12 13  1  0
 13 14  1  0
 14 15  1  0
M  END
