
     RDKit          3D

 16 15  0  0  0  0  0  0  0  0999 V2000
    2.4430    1.0090   -1.2030 N   0  0  0  0  0  0  0  0  0  0  0  0
    2.9510    0.7860   -0.0480 C   0  0  0  0  0  0  0  0  0  0  0  0
    4.2430    1.8180    0.6140 S   0  0  0  0  0  0  0  0  0  0  0  0
    4.7310    1.2960    2.1630 O   0  0  0  0  0  0  0  0  0  0  0  0
    2.4560   -0.3320    0.7280 C   0  0  0  0  0  0  0  0  0  0  0  0
    2.9440   -0.5750    1.8790 O   0  0  0  0  0  0  0  0  0  0  0  0
    1.4250   -1.1420    0.1800 N   0  0  0  0  0  0  0  0  0  0  0  0
    0.2530   -0.6300    0.0100 C   0  0  0  0  0  0  0  0  0  0  0  0
   -0.7950   -1.4600   -0.5500 C   0  0  0  0  0  0  0  0  0  0  0  0
   -1.9930   -0.9570   -0.7300 C   0  0  0  0  0  0  0  0  0  0  0  0
   -3.0750   -1.7080   -1.2740 N   0  0  0  0  0  0  0  0  0  0  0  0
   -2.8250   -2.7060   -1.9660 O   0  0  0  0  0  0  0  0  0  0  0  0
   -2.2250    0.3650   -0.3780 O   0  0  0  0  0  0  0  0  0  0  0  0
   -3.4270    0.6070    0.2560 O   0  0  0  0  0  0  0  0  0  0  0  0
   -4.5250    1.0560   -0.4390 C   0  0  0  0  0  0  0  0  0  0  0  0
   -4.3790    1.2340   -1.6760 O   0  0  0  0  0  0  0  0  0  0  0  0
  1  2  2  0
  2  3  1  0
  2  5  1  0
  3  4  1  0
  5  6  2  0
  5  7  1  0
  7  8  2  3
  8  9  1  0
  9 10  2  3
 10 11  1  0
 10 13  1  0
 11 12  2  0
 13 14  1  0
 14 15  1  0
 15 16  2  0
M  END
