
     RDKit          3D

 27 28  0  0  0  0  0  0  0  0999 V2000
   -2.4730   -4.5190   -0.6400 N   0  0  0  0  0  0  0  0  0  0  0  0
   -2.3560   -3.2560   -0.7630 C   0  0  0  0  0  0  0  0  0  0  0  0
   -1.0900   -2.5660   -0.6660 N   0  0  0  0  0  0  0  0  0  0  0  0
   -0.9820   -1.3040   -0.7780 C   0  0  0  0  0  0  0  0  0  0  0  0
    0.3200   -0.7010   -0.6720 N   0  0  0  0  0  0  0  0  0  0  0  0
    0.5340    0.5790   -1.3200 C   0  0  2  0  0  0  0  0  0  0  0  0
    1.6100    1.3130   -0.5460 C   0  0  0  0  0  0  0  0  0  0  0  0
    2.8130    0.5680   -0.5420 O   0  0  0  0  0  0  0  0  0  0  0  0
    3.9110    1.0930    0.1250 C   0  0  0  0  0  0  0  0  0  0  0  0
    3.8020    2.2050    0.7010 O   0  0  0  0  0  0  0  0  0  0  0  0
    5.1350    0.4190    0.1750 O   0  0  0  0  0  0  0  0  0  0  0  0
    6.5350    1.0590    1.0100 P   0  0  0  0  0  0  0  0  0  0  0  0
    7.1710    2.3840    0.0770 O   0  0  0  0  0  0  0  0  0  0  0  0
    8.0340   -0.5450    1.1900 P   0  0  0  0  0  0  0  0  0  0  0  0
    7.6940   -1.7690    0.0110 O   0  0  0  0  0  0  0  0  0  0  0  0
    7.9530   -1.1740    2.8100 O   0  0  0  0  0  0  0  0  0  0  0  0
   -0.7360    1.3690   -1.2280 C   0  0  0  0  0  0  0  0  0  0  0  0
   -1.8540    0.7040   -1.7180 O   0  0  0  0  0  0  0  0  0  0  0  0
   -2.1480   -0.4380   -0.9820 C   0  0  2  0  0  0  0  0  0  0  0  0
   -2.6850   -0.1180    0.2890 O   0  0  0  0  0  0  0  0  0  0  0  0
   -3.7690    0.6870    0.5220 C   0  0  0  0  0  0  0  0  0  0  0  0
   -4.3550    1.2040   -0.4690 O   0  0  0  0  0  0  0  0  0  0  0  0
   -4.2850    0.9790    1.8890 C   0  0  0  0  0  0  0  0  0  0  0  0
   -5.4250    1.8510    1.7910 N   0  0  0  0  0  0  0  0  0  0  0  0
   -5.9510    2.1630    2.9750 O   0  0  0  0  0  0  0  0  0  0  0  0
   -3.2050   -1.2020   -1.7430 C   0  0  0  0  0  0  0  0  0  0  0  0
   -3.4790   -2.4150   -0.9990 N   0  0  0  0  0  0  0  0  0  0  0  0
  1  2  2  0
  2  3  1  0
  2 27  1  0
  3  4  2  0
  4  5  1  0
  4 19  1  0
  5  6  1  0
  6  7  1  1
  6 17  1  0
  7  8  1  0
  8  9  1  0
  9 10  2  0
  9 11  1  0
 11 12  1  0
 12 13  1  0
 12 14  1  0
 14 15  1  0
 14 16  1  0
 17 18  1  0
 18 19  1  0
 19 20  1  1
 19 26  1  0
 20 21  1  0
 21 22  2  0
 21 23  1  0
 23 24  1  0
 24 25  1  0
 26 27  1  0
M  END
