
     RDKit          3D

 15 16  0  0  0  0  0  0  0  0999 V2000
   -2.0510    2.4180    1.0710 C   0  0  0  0  0  0  0  0  0  0  0  0
   -0.7660    1.8080    1.2120 N   0  0  0  0  0  0  0  0  0  0  0  0
   -0.6450    0.5600    0.5380 C   0  0  2  0  0  0  0  0  0  0  0  0
    0.4410   -0.1940    0.8930 O   0  0  0  0  0  0  0  0  0  0  0  0
    1.8370    0.3930    0.6850 S   0  0  0  0  0  0  0  0  0  0  0  0
    1.3450   -1.1130   -1.1870 O   0  0  0  0  0  0  0  0  0  0  0  0
    2.5350   -0.6730    1.2970 O   0  0  0  0  0  0  0  0  0  0  0  0
    3.2700   -0.4090    0.2970 C   0  0  0  0  0  0  0  0  0  0  0  0
    4.3840   -0.7540   -0.3310 C   0  0  0  0  0  0  0  0  0  0  0  0
    5.2480   -1.7630    0.0510 O   0  0  0  0  0  0  0  0  0  0  0  0
   -0.7930    0.6210   -0.9640 C   0  0  0  0  0  0  0  0  0  0  0  0
   -1.2420   -0.6590   -1.2710 O   0  0  0  0  0  0  0  0  0  0  0  0
   -1.5350   -1.3010   -0.1460 N   0  0  0  0  0  0  0  0  0  0  0  0
   -2.5620   -2.2870   -0.2460 C   0  0  0  0  0  0  0  0  0  0  0  0
   -1.8190   -0.2980    0.8220 N   0  0  0  0  0  0  0  0  0  0  0  0
  1  2  1  0
  3  2  1  1
  3  4  1  0
  3 11  1  0
  3 15  1  0
  4  5  1  0
  5  6  2  0
  5  7  1  0
  5  8  1  0
  7  8  1  0
  8  9  2  3
  9 10  1  0
 11 12  1  0
 12 13  1  0
 13 14  1  0
 13 15  1  0
M  END
