
     RDKit          3D

 10 10  0  0  0  0  0  0  0  0999 V2000
    1.5790    0.9630    1.1300 O   0  0  0  0  0  0  0  0  0  0  0  0
    1.9470    0.0240    0.3700 C   0  0  0  0  0  0  0  0  0  0  0  0
    3.3080   -0.1190    0.1490 O   0  0  0  0  0  0  0  0  0  0  0  0
    1.0000   -0.8120   -0.2050 O   0  0  0  0  0  0  0  0  0  0  0  0
   -0.3340   -0.5720    0.0890 C   0  0  0  0  0  0  0  0  0  0  0  0
   -1.2380    0.2350   -0.5690 C   0  0  0  0  0  0  0  0  0  0  0  0
   -2.4430    0.1540    0.0940 C   0  0  0  0  0  0  0  0  0  0  0  0
   -3.5460    0.7060   -0.1330 O   0  0  0  0  0  0  0  0  0  0  0  0
   -2.2330   -0.6650    1.0900 O   0  0  0  0  0  0  0  0  0  0  0  0
   -1.0110   -1.0870    1.0890 O   0  0  0  0  0  0  0  0  0  0  0  0
  1  2  2  0
  2  3  1  0
  2  4  1  0
  4  5  1  0
  5  6  2  0
  5 10  1  0
  6  7  1  0
  7  8  2  0
  7  9  1  0
  9 10  1  0
M  END
