
     RDKit          3D

  9  8  0  0  0  0  0  0  0  0999 V2000
    1.8090    1.2050   -0.9300 O   0  0  0  0  0  0  0  0  0  0  0  0
    1.9870    0.4860    0.0790 C   0  0  0  0  0  0  0  0  0  0  0  0
    3.2370   -0.0540    0.3160 O   0  0  0  0  0  0  0  0  0  0  0  0
    4.2970    0.1450   -0.4820 O   0  0  0  0  0  0  0  0  0  0  0  0
    0.8930    0.2740    0.9130 O   0  0  0  0  0  0  0  0  0  0  0  0
   -0.3140    0.8040    0.6720 O   0  0  0  0  0  0  0  0  0  0  0  0
   -1.0530   -0.1940    0.0210 C   0  0  0  0  0  0  0  0  0  0  0  0
   -2.4410    0.2990   -0.3000 C   0  0  0  0  0  0  0  0  0  0  0  0
   -3.1340   -0.7210   -0.9420 O   0  0  0  0  0  0  0  0  0  0  0  0
  1  2  2  0
  2  3  1  0
  2  5  1  0
  3  4  1  0
  5  6  1  0
  6  7  1  0
  7  8  1  0
  8  9  1  0
M  END
