
     RDKit          3D

 35 36  0  0  0  0  0  0  0  0999 V2000
   -1.1010   -0.1360    1.8450 O   0  0  0  0  0  0  0  0  0  0  0  0
   -0.3540   -0.9300    1.2340 C   0  0  0  0  0  0  0  0  0  0  0  0
   -0.7040   -2.2800    1.0220 N   0  0  0  0  0  0  0  0  0  0  0  0
   -1.9090   -2.9040    1.4460 C   0  0  0  0  0  0  0  0  0  0  0  0
   -3.1870   -2.3600    0.8560 C   0  0  1  0  0  0  0  0  0  0  0  0
   -3.3400   -1.0600    1.1820 O   0  0  0  0  0  0  0  0  0  0  0  0
   -4.4260   -0.4020    0.7180 C   0  0  2  0  0  0  0  0  0  0  0  0
   -4.1250    0.7580   -0.2000 C   0  0  0  0  0  0  0  0  0  0  0  0
   -5.3530    1.3080   -0.5730 O   0  0  0  0  0  0  0  0  0  0  0  0
   -5.1810    2.6510   -1.6280 P   0  0  0  0  0  0  0  0  0  0  0  0
   -5.1660    4.0950   -0.6550 O   0  0  0  0  0  0  0  0  0  0  0  0
   -3.6140    2.5600   -2.3980 O   0  0  0  0  0  0  0  0  0  0  0  0
   -5.3410    0.0870    1.7890 C   0  0  0  0  0  0  0  0  0  0  0  0
   -6.3970    0.7190    1.5300 O   0  0  0  0  0  0  0  0  0  0  0  0
   -5.0700   -0.1330    3.1320 O   0  0  0  0  0  0  0  0  0  0  0  0
   -3.1020   -2.6020   -0.5390 O   0  0  0  0  0  0  0  0  0  0  0  0
   -3.5440   -3.8800   -0.8270 C   0  0  0  0  0  0  0  0  0  0  0  0
   -3.3550   -4.5680   -1.8730 O   0  0  0  0  0  0  0  0  0  0  0  0
   -4.2940   -4.3010    0.3340 N   0  0  0  0  0  0  0  0  0  0  0  0
   -4.2690   -3.2510    1.2790 C   0  0  0  0  0  0  0  0  0  0  0  0
   -5.0140   -3.1240    2.2570 O   0  0  0  0  0  0  0  0  0  0  0  0
    0.8520   -0.3880    0.7770 O   0  0  0  0  0  0  0  0  0  0  0  0
    1.1980    0.9680    0.9920 C   0  0  0  0  0  0  0  0  0  0  0  0
    2.5760    1.1520    0.3440 C   0  0  1  0  0  0  0  0  0  0  0  0
    3.5270    0.2700    1.0850 C   0  0  0  0  0  0  0  0  0  0  0  0
    4.0610   -0.7540    0.3170 O   0  0  0  0  0  0  0  0  0  0  0  0
    4.5750   -0.3350   -0.8820 C   0  0  2  0  0  0  0  0  0  0  0  0
    5.5800    0.7880   -0.7300 C   0  0  0  0  0  0  0  0  0  0  0  0
    6.1200    1.2160   -2.0850 C   0  0  0  0  0  0  0  0  0  0  0  0
    7.3510    2.5910   -1.9100 P   0  0  0  0  0  0  0  0  0  0  0  0
    6.5630    4.1250   -2.0490 O   0  0  0  0  0  0  0  0  0  0  0  0
    8.0850    2.4930   -0.3380 O   0  0  0  0  0  0  0  0  0  0  0  0
    3.4530    0.2010   -1.6930 C   0  0  0  0  0  0  0  0  0  0  0  0
    3.4610    0.0560   -2.9390 O   0  0  0  0  0  0  0  0  0  0  0  0
    2.4350    0.8480   -1.0120 O   0  0  0  0  0  0  0  0  0  0  0  0
  1  2  2  0
  2  3  1  0
  2 22  1  0
  3  4  1  0
  5  4  1  1
  5  6  1  0
  5 16  1  0
  5 20  1  0
  6  7  1  0
  7  8  1  1
  7 13  1  0
  8  9  1  0
  9 10  1  0
 10 11  1  0
 10 12  1  0
 13 14  2  0
 13 15  1  0
 16 17  1  0
 17 18  2  0
 17 19  1  0
 19 20  1  0
 20 21  2  0
 22 23  1  0
 24 23  1  1
 24 25  1  0
 24 35  1  0
 25 26  1  0
 26 27  1  0
 27 28  1  1
 27 33  1  0
 28 29  1  0
 29 30  1  0
 30 31  1  0
 30 32  1  0
 33 34  2  0
 33 35  1  0
M  END
