
     RDKit          3D

 35 36  0  0  0  0  0  0  0  0999 V2000
    6.9940    0.5860   -3.3980 O   0  0  0  0  0  0  0  0  0  0  0  0
    6.0030    0.9440   -2.7030 C   0  0  0  0  0  0  0  0  0  0  0  0
    4.7140    0.3730   -2.6000 N   0  0  0  0  0  0  0  0  0  0  0  0
    3.9510    1.1940   -1.7160 C   0  0  1  0  0  0  0  0  0  0  0  0
    3.6800    0.4830   -0.4550 C   0  0  0  0  0  0  0  0  0  0  0  0
    4.1040   -0.6720   -0.2840 O   0  0  0  0  0  0  0  0  0  0  0  0
    2.9470    1.0760    0.5790 O   0  0  0  0  0  0  0  0  0  0  0  0
    2.6710    0.4500    1.7740 C   0  0  0  0  0  0  0  0  0  0  0  0
    1.8110   -0.7480    1.7820 C   0  0  0  0  0  0  0  0  0  0  0  0
    0.4140   -0.5640    1.3430 N   0  0  0  0  0  0  0  0  0  0  0  0
   -0.5510   -0.1630    2.3560 C   0  0  0  0  0  0  0  0  0  0  0  0
   -0.5960   -1.0020    3.3370 O   0  0  0  0  0  0  0  0  0  0  0  0
   -1.4220    0.9830    2.4240 C   0  0  1  0  0  0  0  0  0  0  0  0
   -1.6730    1.2820    3.8060 O   0  0  0  0  0  0  0  0  0  0  0  0
   -0.7990    2.3100    1.9600 C   0  0  0  0  0  0  0  0  0  0  0  0
   -0.4610    2.2680    0.6300 O   0  0  0  0  0  0  0  0  0  0  0  0
   -2.7830    0.9090    1.8350 C   0  0  0  0  0  0  0  0  0  0  0  0
   -2.7460    1.4100    0.5540 O   0  0  0  0  0  0  0  0  0  0  0  0
   -4.1560    1.1810   -0.3670 P   0  0  0  0  0  0  0  0  0  0  0  0
   -5.2850    2.4290    0.0720 O   0  0  0  0  0  0  0  0  0  0  0  0
   -3.9700    1.1910   -2.0470 O   0  0  0  0  0  0  0  0  0  0  0  0
   -3.1100    0.2370   -2.5660 C   0  0  0  0  0  0  0  0  0  0  0  0
   -2.2200   -0.2290   -1.4650 C   0  0  0  0  0  0  0  0  0  0  0  0
   -1.4050   -1.3070   -1.7990 O   0  0  0  0  0  0  0  0  0  0  0  0
   -0.9450   -1.7520   -0.5670 C   0  0  2  0  0  0  0  0  0  0  0  0
   -0.2450   -3.0930   -0.8730 C   0  0  0  0  0  0  0  0  0  0  0  0
    0.2670   -3.6550    0.2820 O   0  0  0  0  0  0  0  0  0  0  0  0
   -1.9000   -1.9530    0.3850 O   0  0  0  0  0  0  0  0  0  0  0  0
   -3.0810   -3.1310   -0.0330 P   0  0  0  0  0  0  0  0  0  0  0  0
   -2.8300   -4.6520    0.7110 O   0  0  0  0  0  0  0  0  0  0  0  0
   -3.3140   -3.2600   -1.7410 O   0  0  0  0  0  0  0  0  0  0  0  0
    0.0890   -0.7960   -0.0110 C   0  0  0  0  0  0  0  0  0  0  0  0
    0.7060   -0.1570   -0.9050 O   0  0  0  0  0  0  0  0  0  0  0  0
    4.7800    2.4440   -1.5000 C   0  0  0  0  0  0  0  0  0  0  0  0
    6.0740    2.0710   -1.8630 O   0  0  0  0  0  0  0  0  0  0  0  0
  1  2  2  0
  2  3  1  0
  2 35  1  0
  3  4  1  0
  4  5  1  1
  4 34  1  0
  5  6  2  0
  5  7  1  0
  7  8  1  0
  8  9  1  0
  9 10  1  0
 10 11  1  0
 10 32  1  0
 11 12  2  0
 11 13  1  0
 13 14  1  1
 13 15  1  0
 13 17  1  0
 15 16  1  0
 17 18  1  0
 18 19  1  0
 19 20  1  0
 19 21  1  0
 21 22  1  0
 22 23  1  0
 23 24  1  0
 24 25  1  0
 25 26  1  6
 25 28  1  0
 25 32  1  0
 26 27  1  0
 28 29  1  0
 29 30  1  0
 29 31  1  0
 32 33  2  0
 34 35  1  0
M  END
