
     RDKit          3D

 33 35  0  0  0  0  0  0  0  0999 V2000
   -6.5460    2.1090   -2.4140 O   0  0  0  0  0  0  0  0  0  0  0  0
   -5.3000    2.1750   -2.3690 C   0  0  0  0  0  0  0  0  0  0  0  0
   -4.6090    3.0320   -3.2400 O   0  0  0  0  0  0  0  0  0  0  0  0
   -4.5780    1.4040   -1.4600 O   0  0  0  0  0  0  0  0  0  0  0  0
   -5.1850    0.5390   -0.5690 C   0  0  0  0  0  0  0  0  0  0  0  0
   -6.4330    0.4500   -0.5860 O   0  0  0  0  0  0  0  0  0  0  0  0
   -4.4450   -0.2720    0.3880 C   0  0  0  0  0  0  0  0  0  0  0  0
   -3.1390   -0.2220    0.4490 N   0  0  0  0  0  0  0  0  0  0  0  0
   -2.4090   -1.0180    1.4010 C   0  0  0  0  0  0  0  0  0  0  0  0
   -0.9170   -0.9840    1.4620 C   0  0  1  0  0  0  0  0  0  0  0  0
   -0.3320   -1.4390    0.1380 C   0  0  0  0  0  0  0  0  0  0  0  0
    0.3880   -0.4570   -0.5760 N   0  0  0  0  0  0  0  0  0  0  0  0
    1.7970   -0.3910   -0.3780 C   0  0  0  0  0  0  0  0  0  0  0  0
    2.5290   -1.5910   -0.9440 C   0  0  0  0  0  0  0  0  0  0  0  0
    3.9080   -1.4920   -0.7430 O   0  0  0  0  0  0  0  0  0  0  0  0
    4.7420   -0.5080   -1.2350 C   0  0  0  0  0  0  0  0  0  0  0  0
    4.2390    0.4000   -1.9380 O   0  0  0  0  0  0  0  0  0  0  0  0
    6.2050   -0.4610   -0.9820 C   0  0  0  0  0  0  0  0  0  0  0  0
    6.8100    0.6390   -1.6240 O   0  0  0  0  0  0  0  0  0  0  0  0
    6.4760    1.9540   -1.3810 C   0  0  0  0  0  0  0  0  0  0  0  0
    5.5810    2.1960   -0.5390 O   0  0  0  0  0  0  0  0  0  0  0  0
    7.1380    2.9530   -2.0740 O   0  0  0  0  0  0  0  0  0  0  0  0
    6.8260    4.2540   -1.8540 O   0  0  0  0  0  0  0  0  0  0  0  0
   -0.2260    0.8190   -0.4960 C   0  0  0  0  0  0  0  0  0  0  0  0
   -0.6450    1.2300    0.8730 C   0  0  0  0  0  0  0  0  0  0  0  0
   -0.4570    0.2730    1.8410 O   0  0  0  0  0  0  0  0  0  0  0  0
   -3.0620   -1.7950    2.2250 C   0  0  0  0  0  0  0  0  0  0  0  0
   -2.7180   -2.7470    3.3060 C   0  0  0  0  0  0  0  0  0  0  0  0
   -1.6640   -2.7340    3.9440 O   0  0  0  0  0  0  0  0  0  0  0  0
   -3.8520   -3.5750    3.3610 O   0  0  0  0  0  0  0  0  0  0  0  0
   -4.7600   -3.1690    2.4170 O   0  0  0  0  0  0  0  0  0  0  0  0
   -4.5800   -1.8100    2.3300 C   0  0  2  0  0  0  0  0  0  0  0  0
   -5.0980   -1.1280    1.2580 O   0  0  0  0  0  0  0  0  0  0  0  0
  1  2  2  0
  2  3  1  0
  2  4  1  0
  4  5  1  0
  5  6  2  0
  5  7  1  0
  7  8  2  0
  7 33  1  0
  8  9  1  0
 10  9  1  6
  9 27  2  0
 10 11  1  0
 10 26  1  0
 11 12  1  0
 12 13  1  0
 12 24  1  0
 13 14  1  0
 14 15  1  0
 15 16  1  0
 16 17  2  0
 16 18  1  0
 18 19  1  0
 19 20  1  0
 20 21  2  0
 20 22  1  0
 22 23  1  0
 24 25  1  0
 25 26  1  0
 27 28  1  0
 27 32  1  0
 28 29  2  0
 28 30  1  0
 30 31  1  0
 32 31  1  6
 32 33  1  0
M  END
