
     RDKit          3D

 33 34  0  0  0  0  0  0  0  0999 V2000
   -6.0570   -2.9570   -1.8700 O   0  0  0  0  0  0  0  0  0  0  0  0
   -5.7350   -1.9410   -1.3180 C   0  0  0  0  0  0  0  0  0  0  0  0
   -6.3470   -1.3770   -0.0940 C   0  0  0  0  0  0  0  0  0  0  0  0
   -5.6740   -0.1700    0.1440 O   0  0  0  0  0  0  0  0  0  0  0  0
   -4.4130   -0.2700   -0.3990 C   0  0  1  0  0  0  0  0  0  0  0  0
   -3.8490    1.1110   -0.6350 C   0  0  0  0  0  0  0  0  0  0  0  0
   -3.8450    1.8250    0.6990 C   0  0  0  0  0  0  0  0  0  0  0  0
   -3.5500    1.0080    1.7600 O   0  0  0  0  0  0  0  0  0  0  0  0
   -2.8220   -0.1080    1.4470 C   0  0  2  0  0  0  0  0  0  0  0  0
   -2.6610   -0.8420    2.6730 O   0  0  0  0  0  0  0  0  0  0  0  0
   -3.7220   -1.3180    3.4080 C   0  0  0  0  0  0  0  0  0  0  0  0
   -4.8790   -1.1140    3.0100 O   0  0  0  0  0  0  0  0  0  0  0  0
   -3.4320   -2.0130    4.5750 O   0  0  0  0  0  0  0  0  0  0  0  0
   -1.4290    0.2140    1.0200 C   0  0  0  0  0  0  0  0  0  0  0  0
   -0.7120   -0.7550    0.7140 O   0  0  0  0  0  0  0  0  0  0  0  0
   -0.9750    1.4970    0.9690 O   0  0  0  0  0  0  0  0  0  0  0  0
    0.3150    1.8310    0.5740 C   0  0  0  0  0  0  0  0  0  0  0  0
    0.6680    1.4210   -0.8370 C   0  0  0  0  0  0  0  0  0  0  0  0
    2.0240    1.8060   -1.1680 N   0  0  0  0  0  0  0  0  0  0  0  0
    3.1610    1.3560   -0.4910 C   0  0  0  0  0  0  0  0  0  0  0  0
    3.0280    0.5600    0.4750 O   0  0  0  0  0  0  0  0  0  0  0  0
    4.4950    1.7570   -0.8380 N   0  0  0  0  0  0  0  0  0  0  0  0
    5.6420    1.2640   -0.1060 C   0  0  0  0  0  0  0  0  0  0  0  0
    5.7200   -0.2030   -0.1860 C   0  0  0  0  0  0  0  0  0  0  0  0
    4.8450   -0.8290   -0.8360 O   0  0  0  0  0  0  0  0  0  0  0  0
    6.7300   -0.9130    0.4340 O   0  0  0  0  0  0  0  0  0  0  0  0
    6.8160   -2.3410    0.3620 C   0  0  0  0  0  0  0  0  0  0  0  0
    6.9350   -2.6650   -1.0010 O   0  0  0  0  0  0  0  0  0  0  0  0
    7.9990   -2.1260   -1.5280 O   0  0  0  0  0  0  0  0  0  0  0  0
    7.8230   -0.8710   -1.8850 O   0  0  0  0  0  0  0  0  0  0  0  0
    8.0120   -0.7100   -3.1710 O   0  0  0  0  0  0  0  0  0  0  0  0
   -3.4370   -1.0310    0.4520 C   0  0  0  0  0  0  0  0  0  0  0  0
   -4.6630   -1.0000   -1.7050 C   0  0  0  0  0  0  0  0  0  0  0  0
  1  2  2  0
  2  3  1  0
  2 33  1  0
  3  4  1  0
  4  5  1  0
  5  6  1  6
  5 32  1  0
  5 33  1  0
  6  7  1  0
  7  8  1  0
  8  9  1  0
  9 10  1  1
  9 14  1  0
  9 32  1  0
 10 11  1  0
 11 12  2  0
 11 13  1  0
 14 15  2  0
 14 16  1  0
 16 17  1  0
 17 18  1  0
 18 19  1  0
 19 20  1  0
 20 21  2  0
 20 22  1  0
 22 23  1  0
 23 24  1  0
 24 25  2  0
 24 26  1  0
 26 27  1  0
 27 28  1  0
 28 29  1  0
 29 30  1  0
 30 31  1  0
M  END
