
     RDKit          3D

 33 34  0  0  0  0  0  0  0  0999 V2000
   -5.2620   -5.4800    0.4950 C   0  0  0  0  0  0  0  0  0  0  0  0
   -4.8110   -4.3250   -0.1970 O   0  0  0  0  0  0  0  0  0  0  0  0
   -3.7600   -3.5400    0.2480 C   0  0  0  0  0  0  0  0  0  0  0  0
   -3.2050   -3.8970    1.3160 O   0  0  0  0  0  0  0  0  0  0  0  0
   -3.2960   -2.3960   -0.4160 N   0  0  0  0  0  0  0  0  0  0  0  0
   -3.8570   -1.9390   -1.5970 O   0  0  0  0  0  0  0  0  0  0  0  0
   -3.9260   -0.5450   -1.3610 C   0  0  0  0  0  0  0  0  0  0  0  0
   -2.5500    0.0210   -1.5490 C   0  0  0  0  0  0  0  0  0  0  0  0
   -1.4420   -0.8990   -0.9670 C   0  0  1  0  0  0  0  0  0  0  0  0
   -0.3170   -0.0460   -0.5810 C   0  0  1  0  0  0  0  0  0  0  0  0
    0.9150   -0.4980   -0.3360 O   0  0  0  0  0  0  0  0  0  0  0  0
    1.5390   -1.3430    0.4880 C   0  0  0  0  0  0  0  0  0  0  0  0
    0.8520   -1.9380    1.3160 O   0  0  0  0  0  0  0  0  0  0  0  0
    2.9640   -1.5700    0.4320 N   0  0  0  0  0  0  0  0  0  0  0  0
    3.5310   -2.4980    1.3630 C   0  0  0  0  0  0  0  0  0  0  0  0
    5.0290   -2.6400    1.1950 C   0  0  0  0  0  0  0  0  0  0  0  0
    5.6750   -1.4230    1.3880 O   0  0  0  0  0  0  0  0  0  0  0  0
    6.9540   -1.5720    1.2390 O   0  0  0  0  0  0  0  0  0  0  0  0
   -0.1810    0.8880   -1.6660 O   0  0  0  0  0  0  0  0  0  0  0  0
    0.7430    1.7910   -1.0680 C   0  0  0  0  0  0  0  0  0  0  0  0
    0.0720    2.0250    0.2570 C   0  0  1  0  0  0  0  0  0  0  0  0
    1.1070    2.2010    1.3370 C   0  0  0  0  0  0  0  0  0  0  0  0
    1.7570    3.3850    1.2990 O   0  0  0  0  0  0  0  0  0  0  0  0
    2.6050    4.0420    0.4980 C   0  0  0  0  0  0  0  0  0  0  0  0
    2.9870    3.4840   -0.5580 O   0  0  0  0  0  0  0  0  0  0  0  0
    3.0860    5.3470    0.8060 O   0  0  0  0  0  0  0  0  0  0  0  0
   -0.7600    3.2390    0.1670 C   0  0  0  0  0  0  0  0  0  0  0  0
   -1.9940    3.1700    0.3400 O   0  0  0  0  0  0  0  0  0  0  0  0
   -0.2390    4.4940   -0.1090 O   0  0  0  0  0  0  0  0  0  0  0  0
   -1.0510    5.6450   -0.1920 C   0  0  0  0  0  0  0  0  0  0  0  0
   -0.6690    0.8490    0.4690 O   0  0  0  0  0  0  0  0  0  0  0  0
   -2.1890   -1.6070    0.1090 C   0  0  0  0  0  0  0  0  0  0  0  0
   -2.0180   -1.6190    1.3190 O   0  0  0  0  0  0  0  0  0  0  0  0
  1  2  1  0
  2  3  1  0
  3  4  2  0
  3  5  1  0
  5  6  1  0
  5 32  1  0
  6  7  1  0
  7  8  1  0
  9  8  1  1
  9 10  1  0
  9 32  1  0
 10 11  1  1
 10 19  1  0
 10 31  1  0
 11 12  1  0
 12 13  2  0
 12 14  1  0
 14 15  1  0
 15 16  1  0
 16 17  1  0
 17 18  1  0
 19 20  1  0
 20 21  1  0
 21 22  1  1
 21 27  1  0
 21 31  1  0
 22 23  1  0
 23 24  1  0
 24 25  2  0
 24 26  1  0
 27 28  2  0
 27 29  1  0
 29 30  1  0
 32 33  2  0
M  END
