
     RDKit          3D

 35 37  0  0  0  0  0  0  0  0999 V2000
    5.4800    3.0050    0.4950 C   0  0  0  0  0  0  0  0  0  0  0  0
    5.7410    1.6760    1.4560 P   0  0  0  0  0  0  0  0  0  0  0  0
    6.9170    0.3430    1.0510 C   0  0  2  0  0  0  0  0  0  0  0  0
    7.6540    0.7360   -0.0860 O   0  0  0  0  0  0  0  0  0  0  0  0
    6.4160   -1.0130    0.9450 C   0  0  0  0  0  0  0  0  0  0  0  0
    5.6490   -1.5430    0.0110 C   0  0  0  0  0  0  0  0  0  0  0  0
    5.1720   -0.7200   -1.1260 C   0  0  0  0  0  0  0  0  0  0  0  0
    3.8520   -0.6690   -1.2180 O   0  0  0  0  0  0  0  0  0  0  0  0
    2.6740   -0.4170   -0.7280 C   0  0  0  0  0  0  0  0  0  0  0  0
    1.5360   -0.6030   -1.5410 C   0  0  0  0  0  0  0  0  0  0  0  0
    0.2800   -0.3620   -1.0950 C   0  0  0  0  0  0  0  0  0  0  0  0
    0.0160    0.0780    0.1750 C   0  0  0  0  0  0  0  0  0  0  0  0
   -1.2150    0.3440    0.7030 O   0  0  0  0  0  0  0  0  0  0  0  0
   -2.4560    0.2080   -0.0220 C   0  0  1  0  0  0  0  0  0  0  0  0
   -3.2580   -0.7160    0.8270 C   0  0  0  0  0  0  0  0  0  0  0  0
   -4.5910   -1.1210    0.3530 C   0  0  0  0  0  0  0  0  0  0  0  0
   -5.0560   -0.7380   -0.8040 C   0  0  0  0  0  0  0  0  0  0  0  0
   -6.3760   -1.1360   -1.2770 C   0  0  0  0  0  0  0  0  0  0  0  0
   -6.8430   -0.7760   -2.3850 O   0  0  0  0  0  0  0  0  0  0  0  0
   -7.1300   -1.9710   -0.4050 N   0  0  0  0  0  0  0  0  0  0  0  0
   -6.4330   -2.7700    0.5970 C   0  0  0  0  0  0  0  0  0  0  0  0
   -5.3910   -1.9720    1.2790 C   0  0  0  0  0  0  0  0  0  0  0  0
   -3.0190    1.6000   -0.0230 C   0  0  0  0  0  0  0  0  0  0  0  0
   -3.3160    2.2290    1.1640 C   0  0  0  0  0  0  0  0  0  0  0  0
   -3.7850    3.5050    1.2050 C   0  0  0  0  0  0  0  0  0  0  0  0
   -3.9720    4.2000    0.0230 C   0  0  0  0  0  0  0  0  0  0  0  0
   -4.4660    5.5490    0.0270 N   0  0  0  0  0  0  0  0  0  0  0  0
   -3.6770    3.5810   -1.1840 C   0  0  0  0  0  0  0  0  0  0  0  0
   -3.8550    4.2520   -2.3710 O   0  0  0  0  0  0  0  0  0  0  0  0
   -3.2000    2.2780   -1.1920 C   0  0  0  0  0  0  0  0  0  0  0  0
    1.1110    0.2760    1.0170 C   0  0  0  0  0  0  0  0  0  0  0  0
    2.3780    0.0300    0.5590 C   0  0  0  0  0  0  0  0  0  0  0  0
    5.2500   -2.9340    0.0640 C   0  0  0  0  0  0  0  0  0  0  0  0
    4.4990   -3.4480   -0.8750 C   0  0  0  0  0  0  0  0  0  0  0  0
    5.6760   -3.8350    1.1860 C   0  0  0  0  0  0  0  0  0  0  0  0
  1  2  2  0
  2  3  1  0
  3  4  1  6
  3  5  1  0
  5  6  2  3
  6  7  1  0
  6 33  1  0
  7  8  1  0
  8  9  1  0
  9 10  2  0
  9 32  1  0
 10 11  1  0
 11 12  2  0
 12 13  1  0
 12 31  1  0
 13 14  1  0
 14 15  1  1
 14 23  1  0
 15 16  1  0
 16 17  2  0
 16 22  1  0
 17 18  1  0
 18 19  2  0
 18 20  1  0
 20 21  1  0
 21 22  1  0
 23 24  2  0
 23 30  1  0
 24 25  1  0
 25 26  2  0
 26 27  1  0
 26 28  1  0
 28 29  1  0
 28 30  2  0
 31 32  2  0
 33 34  2  0
 33 35  1  0
M  END
