
     RDKit          3D

 33 34  0  0  0  0  0  0  0  0999 V2000
   -0.9680   -1.5320   -2.6660 O   0  0  0  0  0  0  0  0  0  0  0  0
   -2.0270   -1.0360   -2.1420 C   0  0  0  0  0  0  0  0  0  0  0  0
   -1.8690   -0.5190   -0.7460 C   0  0  0  0  0  0  0  0  0  0  0  0
   -0.4700   -0.2290   -0.3980 C   0  0  0  0  0  0  0  0  0  0  0  0
    0.1170   -0.6030    0.6890 C   0  0  0  0  0  0  0  0  0  0  0  0
    1.4260   -0.1000    0.5810 O   0  0  0  0  0  0  0  0  0  0  0  0
    1.6300    0.5970   -0.6100 C   0  0  2  0  0  0  0  0  0  0  0  0
    2.8390    0.3970   -1.4300 C   0  0  0  0  0  0  0  0  0  0  0  0
    3.3900   -0.8090   -1.6580 O   0  0  0  0  0  0  0  0  0  0  0  0
    3.9700   -1.3150   -0.5480 C   0  0  0  0  0  0  0  0  0  0  0  0
    4.6590   -2.6590   -0.7110 C   0  0  0  0  0  0  0  0  0  0  0  0
    5.1080   -2.9240    0.6590 O   0  0  0  0  0  0  0  0  0  0  0  0
    6.1370   -2.1110    0.8510 O   0  0  0  0  0  0  0  0  0  0  0  0
    1.7900    2.0650   -0.0980 C   0  0  0  0  0  0  0  0  0  0  0  0
    1.2320    2.3900    0.9250 O   0  0  0  0  0  0  0  0  0  0  0  0
    2.6110    2.9510   -0.8360 N   0  0  0  0  0  0  0  0  0  0  0  0
    2.8090    4.3200   -0.3100 C   0  0  0  0  0  0  0  0  0  0  0  0
    1.6940    5.0480   -0.6830 O   0  0  0  0  0  0  0  0  0  0  0  0
    0.5570    4.5990   -0.2880 O   0  0  0  0  0  0  0  0  0  0  0  0
    0.4240    0.5150   -1.2430 O   0  0  0  0  0  0  0  0  0  0  0  0
   -0.4960   -1.3380    1.7430 C   0  0  0  0  0  0  0  0  0  0  0  0
    0.2810   -2.1830    2.3250 O   0  0  0  0  0  0  0  0  0  0  0  0
   -1.7930   -1.2630    2.1940 O   0  0  0  0  0  0  0  0  0  0  0  0
   -2.5500   -0.1290    2.5880 C   0  0  0  0  0  0  0  0  0  0  0  0
   -3.8130   -0.5980    3.2260 C   0  0  0  0  0  0  0  0  0  0  0  0
   -4.6620   -1.2840    2.4510 O   0  0  0  0  0  0  0  0  0  0  0  0
   -4.6760   -1.6740    1.1550 C   0  0  0  0  0  0  0  0  0  0  0  0
   -4.3790   -2.8600    0.7240 O   0  0  0  0  0  0  0  0  0  0  0  0
   -5.0420   -0.7120    0.0950 C   0  0  0  0  0  0  0  0  0  0  0  0
   -4.9310   -1.2250   -1.1710 O   0  0  0  0  0  0  0  0  0  0  0  0
   -4.5450   -0.8180   -2.3800 C   0  0  0  0  0  0  0  0  0  0  0  0
   -5.2740   -0.1750   -3.2590 O   0  0  0  0  0  0  0  0  0  0  0  0
   -3.1920   -1.0330   -2.9420 N   0  0  0  0  0  0  0  0  0  0  0  0
  1  2  2  0
  2  3  1  0
  2 33  1  0
  3  4  1  0
  4  5  2  0
  4 20  1  0
  5  6  1  0
  5 21  1  0
  6  7  1  0
  7  8  1  6
  7 14  1  0
  7 20  1  0
  8  9  1  0
  9 10  1  0
 10 11  1  0
 11 12  1  0
 12 13  1  0
 14 15  2  0
 14 16  1  0
 16 17  1  0
 17 18  1  0
 18 19  1  0
 21 22  2  0
 21 23  1  0
 23 24  1  0
 24 25  1  0
 25 26  1  0
 26 27  1  0
 27 28  2  0
 27 29  1  0
 29 30  1  0
 30 31  1  0
 31 32  2  0
 31 33  1  0
M  END
