
     RDKit          3D

 33 35  0  0  0  0  0  0  0  0999 V2000
   -4.0040    3.4050   -0.8310 O   0  0  0  0  0  0  0  0  0  0  0  0
   -3.2460    2.3510   -0.6790 C   0  0  0  0  0  0  0  0  0  0  0  0
   -1.9150    2.6710   -1.0970 N   0  0  0  0  0  0  0  0  0  0  0  0
   -0.7030    2.1020   -0.5680 C   0  0  1  0  0  0  0  0  0  0  0  0
    0.3330    3.0690   -0.2310 C   0  0  0  0  0  0  0  0  0  0  0  0
    1.3800    2.7580    0.6580 N   0  0  0  0  0  0  0  0  0  0  0  0
    1.9950    1.6210    1.1510 C   0  0  0  0  0  0  0  0  0  0  0  0
    2.0910    1.4700    2.4310 O   0  0  0  0  0  0  0  0  0  0  0  0
    2.6120    0.4620    0.4470 C   0  0  1  0  0  0  0  0  0  0  0  0
    4.0270    0.5690    0.4290 O   0  0  0  0  0  0  0  0  0  0  0  0
    4.6880    0.7260   -0.7670 C   0  0  0  0  0  0  0  0  0  0  0  0
    4.0090    0.7700   -1.8210 O   0  0  0  0  0  0  0  0  0  0  0  0
    6.0840    0.8350   -0.8260 O   0  0  0  0  0  0  0  0  0  0  0  0
    6.6330    0.9860   -2.0460 O   0  0  0  0  0  0  0  0  0  0  0  0
    7.4460   -0.0240   -2.2550 O   0  0  0  0  0  0  0  0  0  0  0  0
    7.0670   -1.1090   -1.6180 O   0  0  0  0  0  0  0  0  0  0  0  0
    2.2190   -0.8550    1.0910 C   0  0  0  0  0  0  0  0  0  0  0  0
    0.9140   -0.9890    1.4370 O   0  0  0  0  0  0  0  0  0  0  0  0
    0.4490   -2.3330    1.5170 C   0  0  0  0  0  0  0  0  0  0  0  0
   -1.0430   -2.2030    1.1660 C   0  0  2  0  0  0  0  0  0  0  0  0
   -1.0710   -2.0090   -0.3240 C   0  0  0  0  0  0  0  0  0  0  0  0
   -0.8310   -0.5250   -0.6730 C   0  0  0  0  0  0  0  0  0  0  0  0
   -1.2190    0.1120    0.4230 O   0  0  0  0  0  0  0  0  0  0  0  0
   -1.1300    1.3900    0.6880 C   0  0  0  0  0  0  0  0  0  0  0  0
   -1.4640   -1.1800    1.9660 O   0  0  0  0  0  0  0  0  0  0  0  0
   -2.6260   -1.5050    2.6240 C   0  0  0  0  0  0  0  0  0  0  0  0
   -3.0640   -2.7030    1.8190 C   0  0  2  0  0  0  0  0  0  0  0  0
   -1.8460   -3.2470    1.4600 O   0  0  0  0  0  0  0  0  0  0  0  0
   -3.9150   -2.2540    0.6450 C   0  0  0  0  0  0  0  0  0  0  0  0
   -4.4060   -3.3140    0.1020 O   0  0  0  0  0  0  0  0  0  0  0  0
   -4.0640   -0.9800    0.3190 O   0  0  0  0  0  0  0  0  0  0  0  0
   -4.2340   -0.0070   -0.6040 C   0  0  0  0  0  0  0  0  0  0  0  0
   -3.7880    1.2440   -0.2000 O   0  0  0  0  0  0  0  0  0  0  0  0
  1  2  2  0
  2  3  1  0
  2 33  1  0
  3  4  1  0
  4  5  1  1
  4 24  1  0
  5  6  1  0
  6  7  1  0
  7  8  2  0
  7  9  1  0
  9 10  1  1
  9 17  1  0
 10 11  1  0
 11 12  2  0
 11 13  1  0
 13 14  1  0
 14 15  1  0
 15 16  1  0
 17 18  1  0
 18 19  1  0
 20 19  1  1
 20 21  1  0
 20 25  1  0
 20 28  1  0
 21 22  1  0
 22 23  1  0
 23 24  1  0
 25 26  1  0
 27 26  1  1
 27 28  1  0
 27 29  1  0
 29 30  2  0
 29 31  1  0
 31 32  1  0
 32 33  1  0
M  END
