
     RDKit          3D

 33 34  0  0  0  0  0  0  0  0999 V2000
   -6.7130   -1.2460   -0.9550 O   0  0  0  0  0  0  0  0  0  0  0  0
   -5.5210   -0.7530   -1.0300 C   0  0  0  0  0  0  0  0  0  0  0  0
   -4.4730   -1.5870   -1.6420 C   0  0  0  0  0  0  0  0  0  0  0  0
   -3.3140   -1.5810   -0.8850 O   0  0  0  0  0  0  0  0  0  0  0  0
   -2.2290   -1.5340   -1.5220 O   0  0  0  0  0  0  0  0  0  0  0  0
   -1.0360   -0.8090   -1.3320 C   0  0  0  0  0  0  0  0  0  0  0  0
   -0.5830   -0.0430   -2.2220 O   0  0  0  0  0  0  0  0  0  0  0  0
   -0.2810   -0.8750   -0.1410 N   0  0  0  0  0  0  0  0  0  0  0  0
    1.1860   -0.8810   -0.0630 C   0  0  1  0  0  0  0  0  0  0  0  0
    1.8550    0.3780    0.3470 C   0  0  0  0  0  0  0  0  0  0  0  0
    1.4400    1.4220    0.8320 O   0  0  0  0  0  0  0  0  0  0  0  0
    3.2570    0.2750    0.1000 O   0  0  0  0  0  0  0  0  0  0  0  0
    4.1000    1.2760    0.4160 C   0  0  0  0  0  0  0  0  0  0  0  0
    5.4080    1.1320   -0.4220 C   0  0  0  0  0  0  0  0  0  0  0  0
    6.1340    2.2100    0.0030 O   0  0  0  0  0  0  0  0  0  0  0  0
    6.3470    2.9090   -1.1920 O   0  0  0  0  0  0  0  0  0  0  0  0
    5.9340    4.1750   -0.7020 O   0  0  0  0  0  0  0  0  0  0  0  0
    6.7340    4.2650    0.3940 O   0  0  0  0  0  0  0  0  0  0  0  0
    1.7220   -1.8720    0.9120 C   0  0  0  0  0  0  0  0  0  0  0  0
    1.2760   -3.2650    0.5130 C   0  0  0  0  0  0  0  0  0  0  0  0
    1.8440   -3.5220   -0.7040 O   0  0  0  0  0  0  0  0  0  0  0  0
    2.4790   -2.5700   -1.3900 C   0  0  0  0  0  0  0  0  0  0  0  0
    1.8100   -1.1480   -1.3900 C   0  0  0  0  0  0  0  0  0  0  0  0
    1.8770   -0.5830   -2.3460 O   0  0  0  0  0  0  0  0  0  0  0  0
   -1.0520   -0.9210    1.0840 C   0  0  0  0  0  0  0  0  0  0  0  0
   -1.6690    0.4860    1.3830 C   0  0  0  0  0  0  0  0  0  0  0  0
   -2.8500    0.4720    2.0890 O   0  0  0  0  0  0  0  0  0  0  0  0
   -4.0260    0.3960    1.4390 C   0  0  0  0  0  0  0  0  0  0  0  0
   -4.1640    1.0150    0.1580 C   0  0  2  0  0  0  0  0  0  0  0  0
   -4.1030    2.4670    0.2100 C   0  0  0  0  0  0  0  0  0  0  0  0
   -4.2350    3.3200   -0.6720 O   0  0  0  0  0  0  0  0  0  0  0  0
   -3.8050    3.0400    1.5060 O   0  0  0  0  0  0  0  0  0  0  0  0
   -5.3910    0.5350   -0.5230 N   0  0  0  0  0  0  0  0  0  0  0  0
  1  2  2  0
  2  3  1  0
  2 33  1  0
  3  4  1  0
  4  5  1  0
  5  6  1  0
  6  7  2  0
  6  8  1  0
  9  8  1  6
  8 25  1  0
  9 10  1  0
  9 19  1  0
  9 23  1  0
 10 11  2  0
 10 12  1  0
 12 13  1  0
 13 14  1  0
 14 15  1  0
 15 16  1  0
 16 17  1  0
 17 18  1  0
 19 20  1  0
 20 21  1  0
 21 22  1  0
 22 23  1  0
 23 24  2  0
 25 26  1  0
 26 27  1  0
 27 28  1  0
 28 29  1  0
 29 30  1  1
 29 33  1  0
 30 31  2  0
 30 32  1  0
M  END
