
     RDKit          3D

 35 36  0  0  0  0  0  0  0  0999 V2000
   -5.5860    1.4020   -0.4480 C   0  0  0  0  0  0  0  0  0  0  0  0
   -5.8910    0.1470   -0.6900 C   0  0  0  0  0  0  0  0  0  0  0  0
   -7.2530   -0.2130   -1.1140 C   0  0  0  0  0  0  0  0  0  0  0  0
   -7.8880   -1.1730   -0.1300 C   0  0  0  0  0  0  0  0  0  0  0  0
   -4.8530   -0.8270   -0.5240 N   0  0  0  0  0  0  0  0  0  0  0  0
   -3.5120   -0.4270   -0.7800 C   0  0  0  0  0  0  0  0  0  0  0  0
   -3.1320   -0.3690   -2.0680 C   0  0  0  0  0  0  0  0  0  0  0  0
   -1.7930    0.0250   -2.4480 C   0  0  0  0  0  0  0  0  0  0  0  0
   -0.9120    0.3380   -1.5220 C   0  0  0  0  0  0  0  0  0  0  0  0
    0.4530    0.7450   -1.8480 C   0  0  0  0  0  0  0  0  0  0  0  0
    1.2150    1.0040   -0.7390 C   0  0  0  0  0  0  0  0  0  0  0  0
    2.5780    1.4140   -0.8680 N   0  0  0  0  0  0  0  0  0  0  0  0
    3.5480    0.4340   -1.0520 C   0  0  0  0  0  0  0  0  0  0  0  0
    4.2580   -0.0150    0.0970 C   0  0  0  0  0  0  0  0  0  0  0  0
    3.8740    0.6100    1.3060 C   0  0  0  0  0  0  0  0  0  0  0  0
    4.0580    0.6950    2.5660 C   0  0  0  0  0  0  0  0  0  0  0  0
    4.9360    0.0430    3.5270 C   0  0  0  0  0  0  0  0  0  0  0  0
    3.1730    1.6930    3.2460 N   0  0  0  0  0  0  0  0  0  0  0  0
    5.2130   -1.0050   -0.2070 C   0  0  0  0  0  0  0  0  0  0  0  0
    5.2430   -1.3080   -1.5310 O   0  0  0  0  0  0  0  0  0  0  0  0
    6.1590   -1.7770    0.4890 C   0  0  0  0  0  0  0  0  0  0  0  0
    6.3850   -1.7490    1.6930 O   0  0  0  0  0  0  0  0  0  0  0  0
    6.9950   -2.7310   -0.2130 O   0  0  0  0  0  0  0  0  0  0  0  0
    7.9430   -3.4990    0.5170 C   0  0  0  0  0  0  0  0  0  0  0  0
    2.9030    2.7320   -0.8230 O   0  0  0  0  0  0  0  0  0  0  0  0
    4.1370    2.8940   -1.4360 C   0  0  0  0  0  0  0  0  0  0  0  0
    1.1170    0.9040   -3.1190 C   0  0  2  0  0  0  0  0  0  0  0  0
    0.6060    1.1530   -4.4620 C   0  0  0  0  0  0  0  0  0  0  0  0
    1.1830   -0.2170   -4.1200 C   0  0  0  0  0  0  0  0  0  0  0  0
   -1.2990    0.2800   -0.1890 O   0  0  0  0  0  0  0  0  0  0  0  0
   -2.5760   -0.0920    0.2620 C   0  0  0  0  0  0  0  0  0  0  0  0
   -2.8190   -0.1090    1.5490 C   0  0  0  0  0  0  0  0  0  0  0  0
   -4.0270   -0.4490    2.2330 C   0  0  0  0  0  0  0  0  0  0  0  0
   -4.0870   -0.4070    3.5860 C   0  0  0  0  0  0  0  0  0  0  0  0
   -5.2990   -0.7450    4.3490 C   0  0  0  0  0  0  0  0  0  0  0  0
  1  2  2  0
  2  3  1  0
  2  5  1  0
  3  4  1  0
  5  6  1  0
  6  7  2  0
  6 31  1  0
  7  8  1  0
  8  9  2  0
  9 10  1  0
  9 30  1  0
 10 11  2  3
 27 10  1  1
 11 12  1  0
 12 13  1  0
 12 25  1  0
 13 14  2  3
 14 15  1  0
 14 19  1  0
 15 16  2  3
 16 17  1  0
 16 18  1  0
 19 20  2  0
 19 21  1  0
 21 22  2  0
 21 23  1  0
 23 24  1  0
 25 26  1  0
 27 28  1  0
 27 29  1  0
 28 29  1  0
 30 31  1  0
 31 32  2  3
 32 33  1  0
 33 34  2  3
 34 35  1  0
M  END
