
     RDKit          3D

 33 34  0  0  0  0  0  0  0  0999 V2000
   -0.8700    2.7980   -2.7780 N   0  0  0  0  0  0  0  0  0  0  0  0
   -0.5220    2.8220   -1.4080 C   0  0  0  0  0  0  0  0  0  0  0  0
    0.2590    3.7290   -1.0240 O   0  0  0  0  0  0  0  0  0  0  0  0
   -1.0830    1.7940   -0.4980 C   0  0  2  0  0  0  0  0  0  0  0  0
   -1.8450    2.5240    0.5500 C   0  0  0  0  0  0  0  0  0  0  0  0
   -1.2890    3.3420    1.3230 O   0  0  0  0  0  0  0  0  0  0  0  0
   -3.2050    2.3200    0.7060 O   0  0  0  0  0  0  0  0  0  0  0  0
   -3.8970    3.0200    1.7000 C   0  0  0  0  0  0  0  0  0  0  0  0
   -3.4020    2.7580    3.0570 C   0  0  0  0  0  0  0  0  0  0  0  0
   -2.4460    1.9760    3.2770 O   0  0  0  0  0  0  0  0  0  0  0  0
   -3.9930    3.3820    4.1400 O   0  0  0  0  0  0  0  0  0  0  0  0
    0.0810    1.1380    0.1920 C   0  0  0  0  0  0  0  0  0  0  0  0
    0.7060    0.1820   -0.8000 C   0  0  1  0  0  0  0  0  0  0  0  0
    1.9010   -0.3420   -0.3430 O   0  0  0  0  0  0  0  0  0  0  0  0
    2.9370   -0.0360   -1.1880 C   0  0  0  0  0  0  0  0  0  0  0  0
    4.2200   -0.6100   -0.6740 C   0  0  0  0  0  0  0  0  0  0  0  0
    4.1890   -1.2630    0.3940 O   0  0  0  0  0  0  0  0  0  0  0  0
    5.4160   -0.4620   -1.3010 O   0  0  0  0  0  0  0  0  0  0  0  0
    6.6730   -0.9200   -0.9580 C   0  0  0  0  0  0  0  0  0  0  0  0
    7.2120   -0.4870    0.2250 O   0  0  0  0  0  0  0  0  0  0  0  0
    6.5380   -0.7930    1.2720 O   0  0  0  0  0  0  0  0  0  0  0  0
    6.8500   -1.9050    1.8580 O   0  0  0  0  0  0  0  0  0  0  0  0
   -0.3380   -0.8960   -1.0220 C   0  0  0  0  0  0  0  0  0  0  0  0
   -1.6990   -0.3810   -1.0840 C   0  0  1  0  0  0  0  0  0  0  0  0
   -2.6160   -0.8990   -0.0120 C   0  0  0  0  0  0  0  0  0  0  0  0
   -2.5300   -2.3050    0.2560 N   0  0  0  0  0  0  0  0  0  0  0  0
   -3.2490   -3.3020   -0.4580 C   0  0  0  0  0  0  0  0  0  0  0  0
   -4.0650   -3.1320   -1.4130 O   0  0  0  0  0  0  0  0  0  0  0  0
   -2.9140   -4.6380    0.0730 C   0  0  0  0  0  0  0  0  0  0  0  0
   -2.0660   -4.3670    1.1460 O   0  0  0  0  0  0  0  0  0  0  0  0
   -1.7980   -2.9870    1.2560 C   0  0  0  0  0  0  0  0  0  0  0  0
   -1.0170   -2.4910    2.1340 O   0  0  0  0  0  0  0  0  0  0  0  0
   -1.8810    0.9660   -1.2090 O   0  0  0  0  0  0  0  0  0  0  0  0
  1  2  1  0
  2  3  2  0
  4  2  1  6
  4  5  1  0
  4 12  1  0
  4 33  1  0
  5  6  2  0
  5  7  1  0
  7  8  1  0
  8  9  1  0
  9 10  2  0
  9 11  1  0
 12 13  1  0
 13 14  1  1
 13 23  1  0
 14 15  1  0
 15 16  1  0
 16 17  2  0
 16 18  1  0
 18 19  1  0
 19 20  1  0
 20 21  1  0
 21 22  1  0
 23 24  1  0
 24 25  1  1
 24 33  1  0
 25 26  1  0
 26 27  1  0
 26 31  1  0
 27 28  2  0
 27 29  1  0
 29 30  1  0
 30 31  1  0
 31 32  2  0
M  END
