
     RDKit          3D

 11 11  0  0  0  0  0  0  0  0999 V2000
    3.5300    0.5980    0.3210 C   0  0  0  0  0  0  0  0  0  0  0  0
    2.4210   -0.2420    0.5730 O   0  0  0  0  0  0  0  0  0  0  0  0
    1.1440    0.1600    0.1300 C   0  0  0  0  0  0  0  0  0  0  0  0
    1.0890    1.2360   -0.4560 O   0  0  0  0  0  0  0  0  0  0  0  0
    0.0130   -0.6400    0.3570 N   0  0  0  0  0  0  0  0  0  0  0  0
   -1.3340   -0.2610   -0.0860 C   0  0  0  0  0  0  0  0  0  0  0  0
   -1.5330    0.9120   -0.7500 C   0  0  0  0  0  0  0  0  0  0  0  0
   -3.2920    0.8830   -1.0480 S   0  0  0  0  0  0  0  0  0  0  0  0
   -3.6300   -0.6180   -0.3040 C   0  0  0  0  0  0  0  0  0  0  0  0
   -2.3650   -1.0780    0.1680 C   0  0  0  0  0  0  0  0  0  0  0  0
   -2.2850   -2.3040    0.8390 F   0  0  0  0  0  0  0  0  0  0  0  0
  1  2  1  0
  2  3  1  0
  3  4  2  0
  3  5  1  0
  5  6  1  0
  6  7  2  0
  6 10  1  0
  7  8  1  0
  8  9  1  0
  9 10  2  0
 10 11  1  0
M  END
