
     RDKit          3D

 10 10  0  0  0  0  0  0  0  0999 V2000
    3.3070    0.0330   -0.0610 C   0  0  0  0  0  0  0  0  0  0  0  0
    2.0470    0.6870    0.0110 N   0  0  0  0  0  0  0  0  0  0  0  0
    0.7960   -0.0000   -0.1460 C   0  0  0  0  0  0  0  0  0  0  0  0
   -0.4470    0.4630   -0.1060 C   0  0  0  0  0  0  0  0  0  0  0  0
   -1.4880   -0.3870   -0.2860 C   0  0  0  0  0  0  0  0  0  0  0  0
   -2.9130    0.0630   -0.2540 C   0  0  0  0  0  0  0  0  0  0  0  0
   -3.8250   -0.7760   -0.4270 O   0  0  0  0  0  0  0  0  0  0  0  0
   -3.2840    1.3650   -0.0420 O   0  0  0  0  0  0  0  0  0  0  0  0
   -1.2080   -1.6830   -0.4990 C   0  0  0  0  0  0  0  0  0  0  0  0
    0.6070   -1.7270   -0.4490 S   0  0  0  0  0  0  0  0  0  0  0  0
  1  2  1  0
  2  3  1  0
  3  4  2  0
  3 10  1  0
  4  5  1  0
  5  6  1  0
  5  9  2  0
  6  7  2  0
  6  8  1  0
  9 10  1  0
M  END
