
     RDKit          3D

 10 10  0  0  0  0  0  0  0  0999 V2000
    2.8220    0.2850    0.2920 C   0  0  0  0  0  0  0  0  0  0  0  0
    1.6670    0.4770   -0.6590 C   0  0  0  0  0  0  0  0  0  0  0  0
    0.6430   -0.5650   -0.5160 C   0  0  0  0  0  0  0  0  0  0  0  0
   -0.5930   -0.2480   -0.1890 C   0  0  0  0  0  0  0  0  0  0  0  0
   -1.2460    1.4050    0.1290 S   0  0  0  0  0  0  0  0  0  0  0  0
   -2.9590    0.9010    0.2500 C   0  0  0  0  0  0  0  0  0  0  0  0
   -3.8980    1.7250    0.3360 O   0  0  0  0  0  0  0  0  0  0  0  0
   -2.9440   -0.4970    0.2230 N   0  0  0  0  0  0  0  0  0  0  0  0
   -1.7300   -1.1200   -0.0020 C   0  0  0  0  0  0  0  0  0  0  0  0
   -1.5680   -2.3930   -0.0520 O   0  0  0  0  0  0  0  0  0  0  0  0
  1  2  1  0
  2  3  1  0
  3  4  2  3
  4  5  1  0
  4  9  1  0
  5  6  1  0
  6  7  2  0
  6  8  1  0
  8  9  1  0
  9 10  2  0
M  END
