
     RDKit          3D

 25 28  0  0  0  0  0  0  0  0999 V2000
    5.7410   -1.0750    1.1870 C   0  0  0  0  0  0  0  0  0  0  0  0
    4.8210   -0.1950    0.8430 C   0  0  0  0  0  0  0  0  0  0  0  0
    5.1380    1.1600    1.0910 C   0  0  0  0  0  0  0  0  0  0  0  0
    4.2150    2.1010    0.7480 C   0  0  0  0  0  0  0  0  0  0  0  0
    3.0420    1.7690    0.1940 N   0  0  0  0  0  0  0  0  0  0  0  0
    1.9780    2.4930   -0.2240 C   0  0  0  0  0  0  0  0  0  0  0  0
    0.9930    1.6390   -0.7310 C   0  0  0  0  0  0  0  0  0  0  0  0
   -0.2800    2.0910   -1.2650 C   0  0  0  0  0  0  0  0  0  0  0  0
   -0.6130    3.4410   -1.4020 C   0  0  0  0  0  0  0  0  0  0  0  0
   -1.8050    3.5220   -1.9610 N   0  0  0  0  0  0  0  0  0  0  0  0
   -2.2390    2.2980   -2.1820 N   0  0  0  0  0  0  0  0  0  0  0  0
   -1.3410    1.3890   -1.7700 C   0  0  0  0  0  0  0  0  0  0  0  0
   -1.5360   -0.0470   -1.7990 C   0  0  0  0  0  0  0  0  0  0  0  0
   -2.2290   -0.6930   -0.6610 C   0  0  1  0  0  0  0  0  0  0  0  0
   -1.7050   -0.5650    0.7030 C   0  0  0  0  0  0  0  0  0  0  0  0
   -2.5130    0.3560    1.5990 C   0  0  0  0  0  0  0  0  0  0  0  0
   -3.8790   -0.1300    1.9200 C   0  0  0  0  0  0  0  0  0  0  0  0
   -4.2230   -1.4920    1.4120 C   0  0  0  0  0  0  0  0  0  0  0  0
   -4.2960   -1.6130   -0.0760 C   0  0  0  0  0  0  0  0  0  0  0  0
   -3.6840   -0.4980   -0.7510 N   0  0  0  0  0  0  0  0  0  0  0  0
    1.5250    0.4220   -0.5890 N   0  0  0  0  0  0  0  0  0  0  0  0
    2.7480    0.4790   -0.0380 C   0  0  0  0  0  0  0  0  0  0  0  0
    3.6320   -0.5760    0.2770 C   0  0  0  0  0  0  0  0  0  0  0  0
    3.2410   -1.7610    0.0270 C   0  0  0  0  0  0  0  0  0  0  0  0
    3.8350   -3.0780    0.2190 C   0  0  0  0  0  0  0  0  0  0  0  0
  1  2  2  0
  2  3  1  0
  2 23  1  0
  3  4  2  0
  4  5  1  0
  5  6  1  0
  5 22  1  0
  6  7  2  0
  7  8  1  0
  7 21  1  0
  8  9  1  0
  8 12  2  0
  9 10  2  0
 10 11  1  0
 11 12  1  0
 12 13  1  0
 14 13  1  6
 14 15  1  0
 14 20  1  0
 15 16  1  0
 16 17  1  0
 17 18  1  0
 18 19  1  0
 19 20  1  0
 21 22  2  0
 22 23  1  0
 23 24  2  3
 24 25  1  0
M  CHG  1  20   1
M  END
