
     RDKit          3D

 12 13  0  0  0  0  0  0  0  0999 V2000
    3.2110   -1.1180   -0.0450 N   0  0  0  0  0  0  0  0  0  0  0  0
    2.0630   -0.5120   -0.0490 C   0  0  0  0  0  0  0  0  0  0  0  0
    1.7820    0.8710   -0.0870 N   0  0  0  0  0  0  0  0  0  0  0  0
    0.5220    1.1290   -0.0790 C   0  0  0  0  0  0  0  0  0  0  0  0
   -0.1240    2.4920   -0.1110 C   0  0  0  0  0  0  0  0  0  0  0  0
   -1.1080    2.6930    1.3490 Cl  0  0  0  0  0  0  0  0  0  0  0  0
   -0.1760   -0.1080   -0.0320 N   0  0  0  0  0  0  0  0  0  0  0  0
   -1.5940   -0.4130   -0.0050 C   0  0  0  0  0  0  0  0  0  0  0  0
   -1.8580   -1.8550    0.0420 C   0  0  0  0  0  0  0  0  0  0  0  0
   -0.9530   -2.7770    0.0580 N   0  0  0  0  0  0  0  0  0  0  0  0
    0.4190   -2.4170    0.0300 N   0  0  0  0  0  0  0  0  0  0  0  0
    0.7650   -1.1750   -0.0120 C   0  0  0  0  0  0  0  0  0  0  0  0
  1  2  2  0
  2  3  1  0
  2 12  1  0
  3  4  2  0
  4  5  1  0
  4  7  1  0
  5  6  1  0
  7  8  1  0
  7 12  1  0
  8  9  1  0
  9 10  2  0
 10 11  1  0
 11 12  2  0
M  END
