
     RDKit          3D

 24 27  0  0  0  0  0  0  0  0999 V2000
   -3.2850    3.0380   -0.9360 C   0  0  0  0  0  0  0  0  0  0  0  0
   -3.5950    1.7780   -0.2110 C   0  0  0  0  0  0  0  0  0  0  0  0
   -4.7740    1.6100    0.4790 C   0  0  0  0  0  0  0  0  0  0  0  0
   -5.0490    0.4390    1.1460 C   0  0  0  0  0  0  0  0  0  0  0  0
   -4.0930   -0.5670    1.0950 C   0  0  0  0  0  0  0  0  0  0  0  0
   -2.9070   -0.4030    0.4030 C   0  0  0  0  0  0  0  0  0  0  0  0
   -1.9220   -1.4900    0.3730 C   0  0  1  0  0  0  0  0  0  0  0  0
   -1.6450   -1.9950   -1.0170 C   0  0  0  0  0  0  0  0  0  0  0  0
   -0.9680   -0.9750   -1.9020 C   0  0  0  0  0  0  0  0  0  0  0  0
    0.2080   -0.3350   -1.1960 C   0  0  0  0  0  0  0  0  0  0  0  0
    0.4450   -1.0960    0.0100 N   0  0  0  0  0  0  0  0  0  0  0  0
    1.6860   -1.7860    0.1230 C   0  0  0  0  0  0  0  0  0  0  0  0
    1.8500   -3.1340   -0.0760 N   0  0  0  0  0  0  0  0  0  0  0  0
    3.1340   -3.4150    0.0550 C   0  0  0  0  0  0  0  0  0  0  0  0
    3.7860   -2.2800    0.3310 N   0  0  0  0  0  0  0  0  0  0  0  0
    2.8950   -1.2390    0.3810 C   0  0  0  0  0  0  0  0  0  0  0  0
    3.3030    0.1410    0.6650 C   0  0  0  0  0  0  0  0  0  0  0  0
    2.4630    1.1820    0.8740 C   0  0  0  0  0  0  0  0  0  0  0  0
    2.9550    2.4680    1.1090 C   0  0  0  0  0  0  0  0  0  0  0  0
    4.2630    2.7330    1.1400 N   0  0  0  0  0  0  0  0  0  0  0  0
    5.1330    1.7290    0.9380 C   0  0  0  0  0  0  0  0  0  0  0  0
    4.6620    0.4550    0.7050 C   0  0  0  0  0  0  0  0  0  0  0  0
   -0.5920   -1.1010    1.0080 C   0  0  0  0  0  0  0  0  0  0  0  0
   -2.7160    0.7590   -0.2160 N   0  0  0  0  0  0  0  0  0  0  0  0
  1  2  1  0
  2  3  2  0
  2 24  1  0
  3  4  1  0
  4  5  2  0
  5  6  1  0
  7  6  1  6
  6 24  2  0
  7  8  1  0
  7 23  1  0
  8  9  1  0
  9 10  1  0
 10 11  1  0
 11 12  1  0
 11 23  1  0
 12 13  1  0
 12 16  2  0
 13 14  2  0
 14 15  1  0
 15 16  1  0
 16 17  1  0
 17 18  2  0
 17 22  1  0
 18 19  1  0
 19 20  2  0
 20 21  1  0
 21 22  2  0
M  CHG  1  20   1
M  END
