
     RDKit          3D

 11 11  0  0  0  0  0  0  0  0999 V2000
    2.7180   -0.9420    0.3670 N   0  0  0  0  0  0  0  0  0  0  0  0
    1.8770    0.4690   -0.1930 S   0  0  2  0  0  0  0  0  0  0  0  0
    2.2740    0.6430   -1.6490 O   0  0  0  0  0  0  0  0  0  0  0  0
    2.3380    1.6430    0.6260 O   0  0  0  0  0  0  0  0  0  0  0  0
    0.1640    0.2070   -0.0560 C   0  0  0  0  0  0  0  0  0  0  0  0
   -0.3750   -0.9840    0.4390 C   0  0  0  0  0  0  0  0  0  0  0  0
   -1.7450   -1.1680    0.5390 C   0  0  0  0  0  0  0  0  0  0  0  0
   -2.6140   -0.1580    0.1420 C   0  0  0  0  0  0  0  0  0  0  0  0
   -2.0950    1.0120   -0.3440 C   0  0  0  0  0  0  0  0  0  0  0  0
   -0.7280    1.1870   -0.4390 C   0  0  0  0  0  0  0  0  0  0  0  0
   -0.0570    2.6900   -1.0650 Cl  0  0  0  0  0  0  0  0  0  0  0  0
  2  1  1  1
  2  3  2  0
  2  4  2  0
  2  5  1  0
  5  6  2  0
  5 10  1  0
  6  7  1  0
  7  8  2  0
  8  9  1  0
  9 10  2  0
 10 11  1  0
M  END
