
     RDKit          3D

 12 13  0  0  0  0  0  0  0  0999 V2000
   -2.6600    0.2190   -0.6050 C   0  0  0  0  0  0  0  0  0  0  0  0
   -1.2980    0.5740   -0.0410 C   0  0  0  0  0  0  0  0  0  0  0  0
   -1.2240    1.7140    0.6050 C   0  0  0  0  0  0  0  0  0  0  0  0
   -2.6860    2.7000    0.7490 Cl  0  0  0  0  0  0  0  0  0  0  0  0
   -0.1860   -0.3330   -0.2360 C   0  0  0  0  0  0  0  0  0  0  0  0
   -0.3280   -1.5140   -0.9220 N   0  0  0  0  0  0  0  0  0  0  0  0
    0.8250   -2.1460   -0.9560 N   0  0  0  0  0  0  0  0  0  0  0  0
    1.7480   -1.4180   -0.3050 C   0  0  0  0  0  0  0  0  0  0  0  0
    3.0350   -1.3870    0.0610 N   0  0  0  0  0  0  0  0  0  0  0  0
    3.1810   -0.2580    0.7200 N   0  0  0  0  0  0  0  0  0  0  0  0
    2.0070    0.4110    0.7680 C   0  0  0  0  0  0  0  0  0  0  0  0
    1.0880   -0.3030    0.1270 N   0  0  0  0  0  0  0  0  0  0  0  0
  1  2  1  0
  2  3  2  3
  2  5  1  0
  3  4  1  0
  5  6  2  0
  5 12  1  0
  6  7  1  0
  7  8  2  0
  8  9  1  0
  8 12  1  0
  9 10  1  0
 10 11  2  0
 11 12  1  0
M  END
