
     RDKit          3D

 10 10  0  0  0  0  0  0  0  0999 V2000
    2.8980   -0.2290    0.5070 C   0  0  0  0  0  0  0  0  0  0  0  0
    1.8910    0.2150   -0.9430 S   0  0  0  0  0  0  0  0  0  0  0  0
    0.1560    0.0130   -0.5460 C   0  0  0  0  0  0  0  0  0  0  0  0
   -0.4760   -1.2110   -0.7730 C   0  0  0  0  0  0  0  0  0  0  0  0
   -1.7820   -1.3200   -0.4590 N   0  0  0  0  0  0  0  0  0  0  0  0
   -2.4950   -0.2970    0.0620 C   0  0  0  0  0  0  0  0  0  0  0  0
   -3.7080   -0.4460    0.3370 O   0  0  0  0  0  0  0  0  0  0  0  0
   -1.8750    0.9210    0.2910 C   0  0  0  0  0  0  0  0  0  0  0  0
   -0.5410    1.0830   -0.0130 C   0  0  0  0  0  0  0  0  0  0  0  0
    0.0620    2.3040    0.2210 O   0  0  0  0  0  0  0  0  0  0  0  0
  1  2  1  0
  2  3  1  0
  3  4  2  0
  3  9  1  0
  4  5  1  0
  5  6  1  0
  6  7  2  0
  6  8  1  0
  8  9  2  0
  9 10  1  0
M  END
