
     RDKit          3D

 10 10  0  0  0  0  0  0  0  0999 V2000
    2.9560    0.0290    0.5650 N   0  0  0  0  0  0  0  0  0  0  0  0
    1.8830   -0.4420   -0.7300 S   0  0  2  0  0  0  0  0  0  0  0  0
    2.1630   -1.9080   -0.9770 O   0  0  0  0  0  0  0  0  0  0  0  0
    2.2740    0.2920   -1.9800 O   0  0  0  0  0  0  0  0  0  0  0  0
    0.2190   -0.1730   -0.2940 C   0  0  0  0  0  0  0  0  0  0  0  0
   -0.5380   -1.1430    0.3330 C   0  0  0  0  0  0  0  0  0  0  0  0
   -1.8580   -0.9220    0.6760 C   0  0  0  0  0  0  0  0  0  0  0  0
   -2.4940    0.2740    0.4150 C   0  0  0  0  0  0  0  0  0  0  0  0
   -1.7420    1.2450   -0.2100 C   0  0  0  0  0  0  0  0  0  0  0  0
   -0.4220    1.0240   -0.5530 C   0  0  0  0  0  0  0  0  0  0  0  0
  2  1  1  1
  2  3  2  0
  2  4  2  0
  2  5  1  0
  5  6  2  0
  5 10  1  0
  6  7  1  0
  7  8  2  0
  8  9  1  0
  9 10  2  0
M  END
