
     RDKit          3D

 22 23  0  0  0  0  0  0  0  0999 V2000
   -3.7780   -2.7960    0.3920 C   0  0  0  0  0  0  0  0  0  0  0  0
   -3.3880   -1.5710    0.0830 C   0  0  0  0  0  0  0  0  0  0  0  0
   -1.9330   -1.2760    0.1200 C   0  0  0  0  0  0  0  0  0  0  0  0
   -1.5080   -0.0810   -0.1780 C   0  0  0  0  0  0  0  0  0  0  0  0
   -0.1460    0.3060   -0.1750 N   0  0  0  0  0  0  0  0  0  0  0  0
    0.9210   -0.5670    0.1560 C   0  0  0  0  0  0  0  0  0  0  0  0
    0.7880   -1.7580    0.4770 O   0  0  0  0  0  0  0  0  0  0  0  0
    2.2720   -0.0760    0.1290 N   0  0  0  0  0  0  0  0  0  0  0  0
    3.3780   -0.9520    0.4640 C   0  0  0  0  0  0  0  0  0  0  0  0
    4.6260   -0.1680    0.3480 C   0  0  0  0  0  0  0  0  0  0  0  0
    4.6320    1.1370   -0.0160 N   0  0  0  0  0  0  0  0  0  0  0  0
    5.7850    1.8220   -0.1120 C   0  0  0  0  0  0  0  0  0  0  0  0
    6.9950    1.2260    0.1530 C   0  0  0  0  0  0  0  0  0  0  0  0
    7.0080   -0.0650    0.5140 N   0  0  0  0  0  0  0  0  0  0  0  0
    5.8440   -0.7490    0.6090 C   0  0  0  0  0  0  0  0  0  0  0  0
    5.8860   -1.9600    0.9500 O   0  0  0  0  0  0  0  0  0  0  0  0
   -2.4700    0.9660   -0.5490 C   0  0  0  0  0  0  0  0  0  0  0  0
   -3.7680    0.7470   -0.5940 C   0  0  0  0  0  0  0  0  0  0  0  0
   -4.8400    2.0680   -1.0490 S   0  0  0  0  0  0  0  0  0  0  0  0
   -6.5020    1.5930   -1.0530 N   0  0  0  0  0  0  0  0  0  0  0  0
   -4.6120    3.2530   -0.1210 O   0  0  0  0  0  0  0  0  0  0  0  0
   -4.3800   -0.5580   -0.2800 C   0  0  0  0  0  0  0  0  0  0  0  0
  1  2  2  0
  2  3  1  0
  2 22  1  0
  3  4  2  0
  4  5  1  0
  4 17  1  0
  5  6  1  0
  6  7  2  0
  6  8  1  0
  8  9  1  0
  9 10  1  0
 10 11  2  0
 10 15  1  0
 11 12  1  0
 12 13  2  0
 13 14  1  0
 14 15  1  0
 15 16  2  0
 17 18  2  0
 18 19  1  0
 18 22  1  0
 19 20  1  1
 19 21  2  0
M  CHG  1  20   1
M  END
