
     RDKit          3D

 22 23  0  0  0  0  0  0  0  0999 V2000
   -6.3680    1.6760    1.0250 C   0  0  0  0  0  0  0  0  0  0  0  0
   -5.2750    0.6850    0.6720 C   0  0  0  0  0  0  0  0  0  0  0  0
   -4.7430    1.0000   -0.6940 C   0  0  2  0  0  0  0  0  0  0  0  0
   -3.7000    0.1110   -1.1350 N   0  0  0  0  0  0  0  0  0  0  0  0
   -2.3950    0.5480   -0.9220 C   0  0  0  0  0  0  0  0  0  0  0  0
   -1.2530   -0.4650   -0.9620 C   0  0  0  0  0  0  0  0  0  0  0  0
   -1.4290   -1.2890    0.2830 C   0  0  0  0  0  0  0  0  0  0  0  0
   -0.4620   -2.3990    0.4490 C   0  0  1  0  0  0  0  0  0  0  0  0
   -0.5360   -3.3980   -0.6070 N   0  0  0  0  0  0  0  0  0  0  0  0
    0.9310   -1.8980    0.4480 C   0  0  0  0  0  0  0  0  0  0  0  0
    1.8380   -2.5230   -0.1800 O   0  0  0  0  0  0  0  0  0  0  0  0
    1.3460   -0.7000    1.1310 N   0  0  0  0  0  0  0  0  0  0  0  0
    2.6770   -0.3480    1.0520 N   0  0  0  0  0  0  0  0  0  0  0  0
    3.2110    0.6950    0.2660 C   0  0  0  0  0  0  0  0  0  0  0  0
    2.4210    1.3810   -0.4370 O   0  0  0  0  0  0  0  0  0  0  0  0
    4.6560    0.9760    0.2590 C   0  0  0  0  0  0  0  0  0  0  0  0
    5.2310    1.9290   -0.4540 C   0  0  0  0  0  0  0  0  0  0  0  0
    6.6980    1.9440   -0.2360 C   0  0  0  0  0  0  0  0  0  0  0  0
    6.9250    0.8050    0.7160 C   0  0  0  0  0  0  0  0  0  0  0  0
    5.6380    0.3100    0.9740 O   0  0  0  0  0  0  0  0  0  0  0  0
   -2.1990    1.7760   -0.6860 N   0  0  0  0  0  0  0  0  0  0  0  0
   -3.7760    2.5640   -0.7110 S   0  0  0  0  0  0  0  0  0  0  0  0
  1  2  1  0
  3  2  1  1
  3  4  1  0
  3 22  1  0
  4  5  1  0
  5  6  1  0
  5 21  2  0
  6  7  1  0
  7  8  1  0
  8  9  1  6
  8 10  1  0
 10 11  2  0
 10 12  1  0
 12 13  1  0
 13 14  1  0
 14 15  2  0
 14 16  1  0
 16 17  2  0
 16 20  1  0
 17 18  1  0
 18 19  1  0
 19 20  1  0
 21 22  1  0
M  CHG  1   9   1
M  END
