
     RDKit          3D

 21 22  0  0  0  0  0  0  0  0999 V2000
    1.6320    1.5370    0.0330 O   0  0  0  0  0  0  0  0  0  0  0  0
    2.2620    0.5560   -0.4800 C   0  0  0  0  0  0  0  0  0  0  0  0
    3.7000    0.5420   -0.3680 C   0  0  0  0  0  0  0  0  0  0  0  0
    4.4370   -0.4270   -0.8690 C   0  0  0  0  0  0  0  0  0  0  0  0
    5.8930   -0.4080   -0.7360 C   0  0  0  0  0  0  0  0  0  0  0  0
    6.7560   -1.3440   -1.2130 C   0  0  0  0  0  0  0  0  0  0  0  0
    7.9940   -0.9610   -0.8820 N   0  0  0  0  0  0  0  0  0  0  0  0
    7.9020    0.1910   -0.2120 C   0  0  0  0  0  0  0  0  0  0  0  0
    6.6070    0.5410   -0.1170 N   0  0  0  0  0  0  0  0  0  0  0  0
    1.5780   -0.4920   -1.1420 N   0  0  0  0  0  0  0  0  0  0  0  0
    0.1750   -0.4280   -1.2220 N   0  0  0  0  0  0  0  0  0  0  0  0
   -0.6240   -0.2370   -0.0630 C   0  0  0  0  0  0  0  0  0  0  0  0
   -0.1220   -0.1140    1.0790 O   0  0  0  0  0  0  0  0  0  0  0  0
   -2.0480   -0.1740   -0.1400 N   0  0  0  0  0  0  0  0  0  0  0  0
   -2.8880    0.0220    1.0240 C   0  0  1  0  0  0  0  0  0  0  0  0
   -3.7190    1.2650    0.8080 C   0  0  0  0  0  0  0  0  0  0  0  0
   -4.7590    0.9580   -0.2360 C   0  0  0  0  0  0  0  0  0  0  0  0
   -5.8540    0.1450    0.4500 C   0  0  2  0  0  0  0  0  0  0  0  0
   -6.8160    1.0390    0.8800 O   0  0  0  0  0  0  0  0  0  0  0  0
   -5.2450   -0.6600    1.5470 C   0  0  0  0  0  0  0  0  0  0  0  0
   -3.8390   -1.1260    1.2400 C   0  0  0  0  0  0  0  0  0  0  0  0
  1  2  2  0
  2  3  1  0
  2 10  1  0
  3  4  2  3
  4  5  1  0
  5  6  2  0
  5  9  1  0
  6  7  1  0
  7  8  1  0
  8  9  2  0
 10 11  1  0
 11 12  1  0
 12 13  2  0
 12 14  1  0
 15 14  1  6
 15 16  1  0
 15 21  1  0
 16 17  1  0
 17 18  1  0
 18 19  1  1
 18 20  1  0
 20 21  1  0
M  CHG  1   9   1
M  END
