
     RDKit          3D

 11 11  0  0  0  0  0  0  0  0999 V2000
    2.8150   -0.1200   -0.9080 N   0  0  0  0  0  0  0  0  0  0  0  0
    1.9930    0.4170    0.5320 S   0  0  2  0  0  0  0  0  0  0  0  0
    2.1860    1.9190    0.5780 O   0  0  0  0  0  0  0  0  0  0  0  0
    2.5280   -0.2590    1.7340 O   0  0  0  0  0  0  0  0  0  0  0  0
    0.2810    0.1320    0.3000 C   0  0  0  0  0  0  0  0  0  0  0  0
   -0.3300   -1.0510    0.6640 C   0  0  0  0  0  0  0  0  0  0  0  0
   -1.6900   -1.2640    0.4740 C   0  0  0  0  0  0  0  0  0  0  0  0
   -2.4790   -0.2850   -0.0910 C   0  0  0  0  0  0  0  0  0  0  0  0
   -1.8860    0.9060   -0.4610 C   0  0  0  0  0  0  0  0  0  0  0  0
   -2.6580    1.8750   -1.0190 F   0  0  0  0  0  0  0  0  0  0  0  0
   -0.5200    1.1000   -0.2630 C   0  0  0  0  0  0  0  0  0  0  0  0
  2  1  1  6
  2  3  2  0
  2  4  2  0
  2  5  1  0
  5  6  2  0
  5 11  1  0
  6  7  1  0
  7  8  2  0
  8  9  1  0
  9 10  1  0
  9 11  2  0
M  END
