
     RDKit          3D

 22 23  0  0  0  0  0  0  0  0999 V2000
   -1.8100   -3.1340    1.5790 N   0  0  0  0  0  0  0  0  0  0  0  0
   -2.5430   -1.9690    1.1700 C   0  0  0  0  0  0  0  0  0  0  0  0
   -3.2550   -1.4280    2.0300 O   0  0  0  0  0  0  0  0  0  0  0  0
   -2.4230   -1.4950   -0.1800 C   0  0  0  0  0  0  0  0  0  0  0  0
   -2.9860   -0.4790   -0.7530 C   0  0  0  0  0  0  0  0  0  0  0  0
   -3.9170    0.4800   -0.1630 C   0  0  0  0  0  0  0  0  0  0  0  0
   -4.4560    1.5030   -0.8220 C   0  0  0  0  0  0  0  0  0  0  0  0
   -5.3200    2.2550    0.0200 N   0  0  0  0  0  0  0  0  0  0  0  0
   -4.8840    1.8800    1.3680 C   0  0  0  0  0  0  0  0  0  0  0  0
   -4.4350    0.5650    1.1160 O   0  0  0  0  0  0  0  0  0  0  0  0
   -1.5540   -2.2470   -1.0330 O   0  0  0  0  0  0  0  0  0  0  0  0
   -0.3170   -1.6920   -1.2660 C   0  0  0  0  0  0  0  0  0  0  0  0
    0.3480   -1.7760   -2.7400 S   0  0  0  0  0  0  0  0  0  0  0  0
    0.3710   -1.0520   -0.2230 N   0  0  0  0  0  0  0  0  0  0  0  0
    1.6150   -0.4890   -0.4410 N   0  0  0  0  0  0  0  0  0  0  0  0
    2.4650   -0.3800    0.5260 C   0  0  0  0  0  0  0  0  0  0  0  0
    3.7530    0.2230    0.2180 C   0  0  0  0  0  0  0  0  0  0  0  0
    4.0910    0.6720   -1.0400 C   0  0  0  0  0  0  0  0  0  0  0  0
    5.3300    1.2430   -1.3000 C   0  0  0  0  0  0  0  0  0  0  0  0
    6.1710    1.3300   -0.2600 N   0  0  0  0  0  0  0  0  0  0  0  0
    5.8910    0.9100    0.9780 C   0  0  0  0  0  0  0  0  0  0  0  0
    4.6660    0.3440    1.2420 C   0  0  0  0  0  0  0  0  0  0  0  0
  1  2  1  0
  2  3  2  0
  2  4  1  0
  4  5  2  3
  4 11  1  0
  5  6  1  0
  6  7  2  0
  6 10  1  0
  7  8  1  0
  8  9  1  0
  9 10  1  0
 11 12  1  0
 12 13  2  0
 12 14  1  0
 14 15  1  0
 15 16  2  3
 16 17  1  0
 17 18  2  0
 17 22  1  0
 18 19  1  0
 19 20  2  0
 20 21  1  0
 21 22  2  0
M  CHG  1  20   1
M  END
