
     RDKit          3D

 40 41  0  0  0  0  0  0  0  0999 V2000
    6.8570   -0.5280    0.8100 C   0  0  0  0  0  0  0  0  0  0  0  0
    5.7210   -0.7530   -0.0100 O   0  0  0  0  0  0  0  0  0  0  0  0
    4.6990    0.2230   -0.1530 C   0  0  0  0  0  0  0  0  0  0  0  0
    4.9280    1.1220   -1.1500 C   0  0  0  0  0  0  0  0  0  0  0  0
    6.0610    1.0830   -1.9520 O   0  0  0  0  0  0  0  0  0  0  0  0
    3.9590    2.0580   -1.2990 C   0  0  0  0  0  0  0  0  0  0  0  0
    2.7800    2.1330   -0.4990 C   0  0  0  0  0  0  0  0  0  0  0  0
    2.5620    1.2120    0.5110 C   0  0  0  0  0  0  0  0  0  0  0  0
    1.4230    1.1910    1.3690 O   0  0  0  0  0  0  0  0  0  0  0  0
    3.5630    0.2310    0.6790 C   0  0  0  0  0  0  0  0  0  0  0  0
    3.6800   -0.9130    1.6240 C   0  0  0  0  0  0  0  0  0  0  0  0
    3.0890   -2.2250    1.1200 C   0  0  1  0  0  0  0  0  0  0  0  0
    2.9850   -3.2110    2.2650 C   0  0  0  0  0  0  0  0  0  0  0  0
    1.6800   -1.9940    0.6080 C   0  0  0  0  0  0  0  0  0  0  0  0
    1.1780   -3.1840   -0.1660 C   0  0  2  0  0  0  0  0  0  0  0  0
    2.0880   -3.4230   -1.1930 O   0  0  0  0  0  0  0  0  0  0  0  0
    2.5970   -4.7070   -1.0760 C   0  0  0  0  0  0  0  0  0  0  0  0
   -0.1370   -2.9060   -0.8500 C   0  0  2  0  0  0  0  0  0  0  0  0
    0.0590   -1.7300   -1.6060 O   0  0  0  0  0  0  0  0  0  0  0  0
   -1.3060   -2.7150    0.0490 C   0  0  1  0  0  0  0  0  0  0  0  0
   -1.2800   -3.5480    1.3110 C   0  0  0  0  0  0  0  0  0  0  0  0
   -1.5590   -1.2700    0.3160 C   0  0  0  0  0  0  0  0  0  0  0  0
   -2.6790   -0.6370   -0.4250 C   0  0  1  0  0  0  0  0  0  0  0  0
   -3.3800   -1.5590   -1.4090 C   0  0  0  0  0  0  0  0  0  0  0  0
   -3.6680    0.0030    0.5230 C   0  0  2  0  0  0  0  0  0  0  0  0
   -4.9520   -0.5630    0.2470 O   0  0  0  0  0  0  0  0  0  0  0  0
   -5.6430   -1.3150    1.1860 C   0  0  0  0  0  0  0  0  0  0  0  0
   -6.9110   -1.8290    0.8050 N   0  0  0  0  0  0  0  0  0  0  0  0
   -5.1540   -1.5240    2.3250 O   0  0  0  0  0  0  0  0  0  0  0  0
   -3.8040    1.4870    0.2980 C   0  0  1  0  0  0  0  0  0  0  0  0
   -4.6200    2.0840    1.2570 O   0  0  0  0  0  0  0  0  0  0  0  0
   -5.7770    2.6050    0.7250 C   0  0  0  0  0  0  0  0  0  0  0  0
   -2.4910    2.2200    0.3160 C   0  0  0  0  0  0  0  0  0  0  0  0
   -2.4610    3.1100   -0.9080 C   0  0  0  0  0  0  0  0  0  0  0  0
   -1.6070    4.3170   -0.7540 C   0  0  0  0  0  0  0  0  0  0  0  0
   -0.1940    4.0940   -0.3550 C   0  0  2  0  0  0  0  0  0  0  0  0
    0.3690    5.4700    0.0240 C   0  0  0  0  0  0  0  0  0  0  0  0
    0.6460    3.4200   -1.3830 C   0  0  2  0  0  0  0  0  0  0  0  0
    0.0600    2.2010   -1.7180 O   0  0  0  0  0  0  0  0  0  0  0  0
    2.0320    3.2670   -0.9950 N   0  0  0  0  0  0  0  0  0  0  0  0
  1  2  1  0
  2  3  1  0
  3  4  2  0
  3 10  1  0
  4  5  1  0
  4  6  1  0
  6  7  2  0
  7  8  1  0
  7 40  1  0
  8  9  1  0
  8 10  2  0
 10 11  1  0
 11 12  1  0
 12 13  1  1
 12 14  1  0
 14 15  1  0
 15 16  1  6
 15 18  1  0
 16 17  1  0
 18 19  1  1
 18 20  1  0
 20 21  1  1
 20 22  1  0
 22 23  1  0
 23 24  1  1
 23 25  1  0
 25 26  1  6
 25 30  1  0
 26 27  1  0
 27 28  1  0
 27 29  2  0
 30 31  1  1
 30 33  1  0
 31 32  1  0
 33 34  1  0
 34 35  1  0
 35 36  1  0
 36 37  1  6
 36 38  1  0
 38 39  1  1
 38 40  1  0
M  END
