
     RDKit          3D

 40 43  0  0  0  0  0  0  0  0999 V2000
   -9.9990    0.0840    2.9040 C   0  0  0  0  0  0  0  0  0  0  0  0
  -10.6830   -0.2680    1.6880 N   0  0  0  0  0  0  0  0  0  0  0  0
   -9.9950   -0.3720    0.4510 C   0  0  0  0  0  0  0  0  0  0  0  0
   -8.6240   -0.1260    0.4340 C   0  0  0  0  0  0  0  0  0  0  0  0
   -7.9270   -0.2180   -0.7420 C   0  0  0  0  0  0  0  0  0  0  0  0
   -6.4960    0.0360   -0.7740 C   0  0  0  0  0  0  0  0  0  0  0  0
   -5.6450   -0.2410    0.2750 C   0  0  0  0  0  0  0  0  0  0  0  0
   -4.2900   -0.0010    0.2440 C   0  0  0  0  0  0  0  0  0  0  0  0
   -3.7240    0.5480   -0.8850 C   0  0  0  0  0  0  0  0  0  0  0  0
   -2.3450    0.8010   -0.9370 O   0  0  0  0  0  0  0  0  0  0  0  0
   -1.4570   -0.1520   -1.4060 C   0  0  0  0  0  0  0  0  0  0  0  0
   -1.9370   -1.2480   -1.7800 O   0  0  0  0  0  0  0  0  0  0  0  0
   -0.0180    0.0790   -1.4760 C   0  0  0  0  0  0  0  0  0  0  0  0
    0.5260    1.2790   -1.0700 C   0  0  0  0  0  0  0  0  0  0  0  0
    1.9070    1.4610   -1.1550 C   0  0  0  0  0  0  0  0  0  0  0  0
    2.7370    0.4690   -1.6360 C   0  0  0  0  0  0  0  0  0  0  0  0
    4.1900    0.7050   -1.7120 C   0  0  0  0  0  0  0  0  0  0  0  0
    4.9570   -0.1730   -2.1400 O   0  0  0  0  0  0  0  0  0  0  0  0
    4.7150    1.9030   -1.3090 O   0  0  0  0  0  0  0  0  0  0  0  0
    6.0830    2.2500   -1.3350 C   0  0  0  0  0  0  0  0  0  0  0  0
    6.9300    1.3510   -0.5040 C   0  0  0  0  0  0  0  0  0  0  0  0
    6.3650    0.4320    0.0930 O   0  0  0  0  0  0  0  0  0  0  0  0
    8.3090    1.5870   -0.4400 N   0  0  0  0  0  0  0  0  0  0  0  0
    9.1930    0.7920    0.3120 C   0  0  0  0  0  0  0  0  0  0  0  0
    8.9360   -0.4250    0.8660 C   0  0  0  0  0  0  0  0  0  0  0  0
    9.8850   -1.1430    1.6220 C   0  0  0  0  0  0  0  0  0  0  0  0
   11.1300   -0.5970    1.8120 C   0  0  0  0  0  0  0  0  0  0  0  0
   12.1450   -1.3070    2.5880 C   0  0  0  0  0  0  0  0  0  0  0  0
   11.8440   -2.6240    3.1790 C   0  0  0  0  0  0  0  0  0  0  0  0
   13.2800   -0.8060    2.7610 O   0  0  0  0  0  0  0  0  0  0  0  0
   11.4280    0.6270    1.2690 C   0  0  0  0  0  0  0  0  0  0  0  0
   10.4810    1.3010    0.5380 C   0  0  0  0  0  0  0  0  0  0  0  0
    2.1960   -0.7200   -2.0370 C   0  0  0  0  0  0  0  0  0  0  0  0
    0.8130   -0.9120   -1.9550 C   0  0  0  0  0  0  0  0  0  0  0  0
   -4.5450    0.8370   -1.9500 C   0  0  0  0  0  0  0  0  0  0  0  0
   -5.8940    0.5900   -1.9010 C   0  0  0  0  0  0  0  0  0  0  0  0
   -8.6000   -0.5530   -1.8910 C   0  0  0  0  0  0  0  0  0  0  0  0
   -9.9730   -0.8020   -1.8850 C   0  0  0  0  0  0  0  0  0  0  0  0
  -10.6730   -0.7100   -0.7010 C   0  0  0  0  0  0  0  0  0  0  0  0
  -12.1400   -0.9740   -0.6900 C   0  0  0  0  0  0  0  0  0  0  0  0
  1  2  1  0
  2  3  1  0
  3  4  2  0
  3 39  1  0
  4  5  1  0
  5  6  1  0
  5 37  2  0
  6  7  2  0
  6 36  1  0
  7  8  1  0
  8  9  2  0
  9 10  1  0
  9 35  1  0
 10 11  1  0
 11 12  2  0
 11 13  1  0
 13 14  2  0
 13 34  1  0
 14 15  1  0
 15 16  2  0
 16 17  1  0
 16 33  1  0
 17 18  2  0
 17 19  1  0
 19 20  1  0
 20 21  1  0
 21 22  2  0
 21 23  1  0
 23 24  1  0
 24 25  2  0
 24 32  1  0
 25 26  1  0
 26 27  2  0
 27 28  1  0
 27 31  1  0
 28 29  1  0
 28 30  2  0
 31 32  2  0
 33 34  2  0
 35 36  2  0
 37 38  1  0
 38 39  2  0
 39 40  1  0
M  END
