
     RDKit          3D

 40 44  0  0  0  0  0  0  0  0999 V2000
   -6.7370   -1.3020    1.6480 C   0  0  0  0  0  0  0  0  0  0  0  0
   -6.3540   -0.6350    0.5010 N   0  0  0  0  0  0  0  0  0  0  0  0
   -4.7360   -0.1620    0.3620 S   0  0  0  0  0  0  0  0  0  0  0  0
   -4.5320   -1.6950   -0.1140 C   0  0  0  0  0  0  0  0  0  0  0  0
   -3.7450   -2.4450    0.6640 C   0  0  0  0  0  0  0  0  0  0  0  0
   -3.2040   -1.6430    1.7330 C   0  0  0  0  0  0  0  0  0  0  0  0
   -3.6560   -0.3580    1.6120 C   0  0  0  0  0  0  0  0  0  0  0  0
   -2.7350    0.8370    1.8710 C   0  0  0  0  0  0  0  0  0  0  0  0
   -2.5920    1.6740    0.7860 C   0  0  0  0  0  0  0  0  0  0  0  0
   -1.7450    2.7570    0.7250 C   0  0  0  0  0  0  0  0  0  0  0  0
   -0.8760    3.3120    1.6830 N   0  0  0  0  0  0  0  0  0  0  0  0
   -0.0380    4.4540    1.3160 C   0  0  0  0  0  0  0  0  0  0  0  0
    0.8150    3.9380    0.1840 C   0  0  0  0  0  0  0  0  0  0  0  0
    0.8050    4.6230   -1.0070 C   0  0  0  0  0  0  0  0  0  0  0  0
    1.5250    4.1200   -2.0620 C   0  0  0  0  0  0  0  0  0  0  0  0
    1.5300    4.7470   -3.2950 C   0  0  0  0  0  0  0  0  0  0  0  0
    2.2430    4.1910   -4.3230 C   0  0  0  0  0  0  0  0  0  0  0  0
    2.9410    3.0460   -4.1690 N   0  0  0  0  0  0  0  0  0  0  0  0
    2.9690    2.3930   -2.9870 C   0  0  0  0  0  0  0  0  0  0  0  0
    2.2530    2.9370   -1.9280 C   0  0  0  0  0  0  0  0  0  0  0  0
    2.2310    2.2740   -0.6900 C   0  0  0  0  0  0  0  0  0  0  0  0
    2.9500    1.0210   -0.5640 N   0  0  0  0  0  0  0  0  0  0  0  0
    4.3140    0.9540   -0.1760 C   0  0  0  0  0  0  0  0  0  0  0  0
    2.1610   -0.1670   -0.8950 C   0  0  0  0  0  0  0  0  0  0  0  0
    1.8430   -1.0260    0.1890 C   0  0  0  0  0  0  0  0  0  0  0  0
    2.0890   -2.2440    0.3360 C   0  0  0  0  0  0  0  0  0  0  0  0
    2.2010   -3.5830    0.8330 C   0  0  0  0  0  0  0  0  0  0  0  0
    2.8510   -4.5710    0.1520 C   0  0  0  0  0  0  0  0  0  0  0  0
    2.8590   -5.8290    0.8340 C   0  0  0  0  0  0  0  0  0  0  0  0
    3.3720   -6.9740    0.5880 C   0  0  0  0  0  0  0  0  0  0  0  0
    4.1810   -7.3920   -0.5570 C   0  0  0  0  0  0  0  0  0  0  0  0
    3.1290   -7.9670    1.5650 F   0  0  0  0  0  0  0  0  0  0  0  0
    1.0760   -0.3350    1.3640 C   0  0  1  0  0  0  0  0  0  0  0  0
    0.6500   -1.3010    2.2280 F   0  0  0  0  0  0  0  0  0  0  0  0
    2.0990    0.3840    2.0050 F   0  0  0  0  0  0  0  0  0  0  0  0
    1.5210    2.7920    0.3150 N   0  0  0  0  0  0  0  0  0  0  0  0
   -1.8870    3.3120   -0.5250 N   0  0  0  0  0  0  0  0  0  0  0  0
   -2.7790    2.6520   -1.2060 N   0  0  0  0  0  0  0  0  0  0  0  0
   -3.2550    1.6590   -0.3900 C   0  0  0  0  0  0  0  0  0  0  0  0
   -4.2500    0.8350   -0.8090 N   0  0  0  0  0  0  0  0  0  0  0  0
  1  2  1  0
  2  3  2  3
  3  4  1  0
  3  7  1  0
  3 40  1  0
  4  5  2  0
  5  6  1  0
  6  7  2  0
  7  8  1  0
  8  9  2  0
  9 10  1  0
  9 39  1  0
 10 11  1  0
 10 37  2  0
 11 12  1  0
 12 13  1  0
 13 14  2  0
 13 36  1  0
 14 15  1  0
 15 16  2  0
 15 20  1  0
 16 17  1  0
 17 18  2  0
 18 19  1  0
 19 20  2  0
 20 21  1  0
 21 22  1  0
 21 36  2  0
 22 23  1  0
 22 24  1  0
 24 25  1  0
 25 26  2  3
 25 33  1  0
 26 27  1  0
 27 28  2  3
 28 29  1  0
 29 30  2  3
 30 31  1  0
 30 32  1  0
 33 34  1  1
 33 35  1  0
 37 38  1  0
 38 39  1  0
 39 40  2  0
M  CHG  1   2   1
M  END
