
     RDKit          3D

 40 45  0  0  0  0  0  0  0  0999 V2000
   -1.7560    0.7100    4.2720 N   0  0  0  0  0  0  0  0  0  0  0  0
   -2.0620    0.3600    3.0640 C   0  0  0  0  0  0  0  0  0  0  0  0
   -2.3980   -0.0470    1.7340 C   0  0  0  0  0  0  0  0  0  0  0  0
   -1.4790   -0.0670    0.7040 C   0  0  0  0  0  0  0  0  0  0  0  0
   -1.8590   -0.4160   -0.5200 C   0  0  0  0  0  0  0  0  0  0  0  0
   -1.2010   -0.5860   -1.8440 C   0  0  0  0  0  0  0  0  0  0  0  0
    0.1390   -0.1630   -1.7730 N   0  0  0  0  0  0  0  0  0  0  0  0
    0.3020    1.2210   -1.6150 C   0  0  0  0  0  0  0  0  0  0  0  0
    1.7000    1.6720   -1.2830 C   0  0  0  0  0  0  0  0  0  0  0  0
    2.6360    0.6710   -1.6960 N   0  0  0  0  0  0  0  0  0  0  0  0
    3.8380    0.4870   -0.9900 C   0  0  0  0  0  0  0  0  0  0  0  0
    4.6750   -0.5290   -1.0190 N   0  0  0  0  0  0  0  0  0  0  0  0
    5.7470   -0.3200   -0.2670 C   0  0  0  0  0  0  0  0  0  0  0  0
    6.8930   -1.0820   -0.0020 C   0  0  0  0  0  0  0  0  0  0  0  0
    7.8630   -0.5370    0.8480 C   0  0  0  0  0  0  0  0  0  0  0  0
    8.9720   -1.2610    1.0950 N   0  0  0  0  0  0  0  0  0  0  0  0
    9.9320   -0.7590    1.8890 C   0  0  0  0  0  0  0  0  0  0  0  0
    9.7460    0.4770    2.4250 C   0  0  0  0  0  0  0  0  0  0  0  0
    8.6350    1.2430    2.1980 C   0  0  0  0  0  0  0  0  0  0  0  0
    7.6470    0.6650    1.3510 C   0  0  0  0  0  0  0  0  0  0  0  0
    6.5400    1.4370    1.1080 N   0  0  0  0  0  0  0  0  0  0  0  0
    5.5880    0.9140    0.2820 C   0  0  0  0  0  0  0  0  0  0  0  0
    4.4010    1.4420   -0.1530 N   0  0  0  0  0  0  0  0  0  0  0  0
    2.3160   -0.1030   -2.8920 C   0  0  0  0  0  0  0  0  0  0  0  0
    1.0070   -0.7850   -2.7200 C   0  0  0  0  0  0  0  0  0  0  0  0
   -3.5940   -0.7520   -0.2980 S   0  0  0  0  0  0  0  0  0  0  0  0
   -3.6690   -0.3980    1.4230 C   0  0  0  0  0  0  0  0  0  0  0  0
   -4.8250   -0.4880    2.2480 N   0  0  0  0  0  0  0  0  0  0  0  0
   -6.0120   -0.9250    1.6100 C   0  0  0  0  0  0  0  0  0  0  0  0
   -6.5010   -2.1360    1.8170 C   0  0  0  0  0  0  0  0  0  0  0  0
   -5.8520   -3.1240    2.7250 C   0  0  2  0  0  0  0  0  0  0  0  0
   -5.2100   -4.1370    2.0400 F   0  0  0  0  0  0  0  0  0  0  0  0
   -6.8330   -3.7380    3.5230 F   0  0  0  0  0  0  0  0  0  0  0  0
   -4.9270   -2.5160    3.5360 F   0  0  0  0  0  0  0  0  0  0  0  0
   -6.6700    0.0070    0.6750 C   0  0  0  0  0  0  0  0  0  0  0  0
   -6.1830    1.3150    0.5610 C   0  0  0  0  0  0  0  0  0  0  0  0
   -6.7290    2.2280   -0.3210 C   0  0  0  0  0  0  0  0  0  0  0  0
   -7.7830    1.8810   -1.1230 C   0  0  0  0  0  0  0  0  0  0  0  0
   -8.2780    0.6030   -1.0310 C   0  0  0  0  0  0  0  0  0  0  0  0
   -7.7150   -0.3120   -0.1380 C   0  0  0  0  0  0  0  0  0  0  0  0
  1  2  3  0
  2  3  1  0
  3  4  1  0
  3 27  2  0
  4  5  2  0
  5  6  1  0
  5 26  1  0
  6  7  1  0
  7  8  1  0
  7 25  1  0
  8  9  1  0
  9 10  1  0
 10 11  1  0
 10 24  1  0
 11 12  1  0
 11 23  2  0
 12 13  1  0
 13 14  2  0
 13 22  1  0
 14 15  1  0
 15 16  2  0
 15 20  1  0
 16 17  1  0
 17 18  2  0
 18 19  1  0
 19 20  2  0
 20 21  1  0
 21 22  2  0
 22 23  1  0
 24 25  1  0
 26 27  1  0
 27 28  1  0
 28 29  1  0
 29 30  2  3
 29 35  1  0
 30 31  1  0
 31 32  1  6
 31 33  1  0
 31 34  1  0
 35 36  2  0
 35 40  1  0
 36 37  1  0
 37 38  2  0
 38 39  1  0
 39 40  2  0
M  CHG  1  23   1
M  END
