
     RDKit          3D

 40 45  0  0  0  0  0  0  0  0999 V2000
    3.8780    1.2000    4.5550 F   0  0  0  0  0  0  0  0  0  0  0  0
    4.2140    1.2400    3.2370 C   0  0  0  0  0  0  0  0  0  0  0  0
    4.0340    2.3920    2.5280 C   0  0  0  0  0  0  0  0  0  0  0  0
    4.3790    2.4130    1.1960 C   0  0  0  0  0  0  0  0  0  0  0  0
    4.9050    1.2970    0.5540 C   0  0  0  0  0  0  0  0  0  0  0  0
    5.0830    0.1480    1.2650 C   0  0  0  0  0  0  0  0  0  0  0  0
    5.6380   -1.0560    0.6310 C   0  0  0  0  0  0  0  0  0  0  0  0
    4.6730   -1.9270    0.0070 N   0  0  0  0  0  0  0  0  0  0  0  0
    3.8690   -1.5200   -1.1000 C   0  0  0  0  0  0  0  0  0  0  0  0
    2.6130   -0.9570   -1.1180 C   0  0  0  0  0  0  0  0  0  0  0  0
    1.7790   -0.6700    0.0840 C   0  0  0  0  0  0  0  0  0  0  0  0
    0.4880   -0.0760   -0.3140 N   0  0  1  0  0  0  0  0  0  0  0  0
   -0.1170   -0.8440   -1.3820 C   0  0  0  0  0  0  0  0  0  0  0  0
   -1.6470   -0.9280   -1.2360 C   0  0  0  0  0  0  0  0  0  0  0  0
   -2.2670    0.2040   -0.4770 C   0  0  2  0  0  0  0  0  0  0  0  0
   -3.4160    0.9380   -1.0020 C   0  0  0  0  0  0  0  0  0  0  0  0
   -3.5520    1.7970   -2.0770 N   0  0  0  0  0  0  0  0  0  0  0  0
   -4.7710    2.2870   -2.1730 N   0  0  0  0  0  0  0  0  0  0  0  0
   -5.4580    1.7590   -1.1630 C   0  0  0  0  0  0  0  0  0  0  0  0
   -4.6300    0.9400   -0.4570 N   0  0  0  0  0  0  0  0  0  0  0  0
   -4.7850    0.1020    0.6860 C   0  0  0  0  0  0  0  0  0  0  0  0
   -4.0910   -1.1620    0.4980 C   0  0  1  0  0  0  0  0  0  0  0  0
   -4.8530   -1.9560    1.4370 F   0  0  0  0  0  0  0  0  0  0  0  0
   -4.5370   -1.8810   -0.6030 F   0  0  0  0  0  0  0  0  0  0  0  0
   -5.4700    0.3150    1.8250 C   0  0  0  0  0  0  0  0  0  0  0  0
   -6.2980    1.3660    2.4080 C   0  0  0  0  0  0  0  0  0  0  0  0
   -6.9160    2.2830    1.3850 C   0  0  0  0  0  0  0  0  0  0  0  0
   -7.4960    1.5760    0.2060 C   0  0  0  0  0  0  0  0  0  0  0  0
   -6.8590    2.1720   -1.0560 C   0  0  0  0  0  0  0  0  0  0  0  0
   -1.6020    0.6870    0.7790 C   0  0  0  0  0  0  0  0  0  0  0  0
   -0.2950   -0.0700    0.8920 C   0  0  0  0  0  0  0  0  0  0  0  0
    2.3010   -0.7480   -2.4020 N   0  0  0  0  0  0  0  0  0  0  0  0
    3.2910   -1.1530   -3.1480 N   0  0  0  0  0  0  0  0  0  0  0  0
    4.2920   -1.6430   -2.4050 C   0  0  0  0  0  0  0  0  0  0  0  0
    5.5650   -2.2070   -2.8740 C   0  0  0  0  0  0  0  0  0  0  0  0
    5.9870   -2.3430   -4.1710 N   0  0  0  0  0  0  0  0  0  0  0  0
    7.1120   -2.8670   -4.4280 C   0  0  0  0  0  0  0  0  0  0  0  0
    7.9370   -3.3130   -3.4050 C   0  0  0  0  0  0  0  0  0  0  0  0
    6.8960   -2.8880   -1.9990 S   0  0  0  0  0  0  0  0  0  0  0  0
    4.7420    0.1180    2.5930 C   0  0  0  0  0  0  0  0  0  0  0  0
  1  2  1  0
  2  3  2  0
  2 40  1  0
  3  4  1  0
  4  5  2  0
  5  6  1  0
  6  7  1  0
  6 40  2  0
  7  8  1  0
  8  9  1  0
  9 10  1  0
  9 34  2  0
 10 11  1  0
 10 32  2  0
 12 11  1  1
 12 13  1  0
 12 31  1  0
 13 14  1  0
 14 15  1  0
 15 16  1  6
 15 30  1  0
 16 17  2  0
 16 20  1  0
 17 18  1  0
 18 19  2  0
 19 20  1  0
 19 29  1  0
 20 21  1  0
 21 22  1  0
 21 25  2  0
 22 23  1  1
 22 24  1  0
 25 26  1  0
 26 27  1  0
 27 28  1  0
 28 29  1  0
 30 31  1  0
 32 33  1  0
 33 34  1  0
 34 35  1  0
 35 36  2  0
 35 39  1  0
 36 37  1  0
 37 38  2  0
 38 39  1  0
M  CHG  1  12   1
M  END
