
     RDKit          3D

 40 43  0  0  0  0  0  0  0  0999 V2000
   -2.0100    0.7270   -2.8650 C   0  0  0  0  0  0  0  0  0  0  0  0
   -2.5910   -0.6160   -2.5090 C   0  0  0  0  0  0  0  0  0  0  0  0
   -3.4200   -0.4580   -1.3770 O   0  0  0  0  0  0  0  0  0  0  0  0
   -4.1090   -1.5080   -0.7910 C   0  0  0  0  0  0  0  0  0  0  0  0
   -3.9490   -2.6250   -1.3380 O   0  0  0  0  0  0  0  0  0  0  0  0
   -4.9700   -1.4090    0.3670 C   0  0  0  0  0  0  0  0  0  0  0  0
   -5.5920   -2.5760    0.8030 C   0  0  0  0  0  0  0  0  0  0  0  0
   -6.4400   -2.6190    1.8940 C   0  0  0  0  0  0  0  0  0  0  0  0
   -7.0550   -3.8340    2.3060 N   0  0  0  0  0  0  0  0  0  0  0  0
   -6.6630   -1.4340    2.5640 C   0  0  0  0  0  0  0  0  0  0  0  0
   -6.0600   -0.2660    2.1530 C   0  0  0  0  0  0  0  0  0  0  0  0
   -5.2180   -0.2460    1.0630 C   0  0  0  0  0  0  0  0  0  0  0  0
   -4.5920    1.0040    0.6550 C   0  0  0  0  0  0  0  0  0  0  0  0
   -3.1490    1.0830    1.0410 C   0  0  0  0  0  0  0  0  0  0  0  0
   -2.4970    0.0450    1.6710 C   0  0  0  0  0  0  0  0  0  0  0  0
   -1.1660    0.1240    2.0200 C   0  0  0  0  0  0  0  0  0  0  0  0
   -0.5210   -0.9220    2.6510 O   0  0  0  0  0  0  0  0  0  0  0  0
   -1.1360   -2.1340    2.9900 C   0  0  0  0  0  0  0  0  0  0  0  0
   -0.4070    1.2660    1.7510 C   0  0  0  0  0  0  0  0  0  0  0  0
    1.0020    1.3590    2.1290 C   0  0  0  0  0  0  0  0  0  0  0  0
    1.9620    0.5480    1.2740 C   0  0  0  0  0  0  0  0  0  0  0  0
    1.9590    0.9290   -0.1300 C   0  0  0  0  0  0  0  0  0  0  0  0
    0.8330    1.3800   -0.5950 O   0  0  0  0  0  0  0  0  0  0  0  0
    2.9840    0.8930   -1.0870 N   0  0  0  0  0  0  0  0  0  0  0  0
    2.7730    1.4410   -2.4150 C   0  0  0  0  0  0  0  0  0  0  0  0
    3.9490    2.0550   -3.0730 C   0  0  2  0  0  0  0  0  0  0  0  0
    4.3940    1.2550   -4.2950 C   0  0  0  0  0  0  0  0  0  0  0  0
    5.0540    2.1480   -2.2080 O   0  0  0  0  0  0  0  0  0  0  0  0
    5.3450    1.0400   -1.4120 C   0  0  0  0  0  0  0  0  0  0  0  0
    6.6000    0.5480   -1.1600 C   0  0  0  0  0  0  0  0  0  0  0  0
    6.7880   -0.5740   -0.3450 C   0  0  0  0  0  0  0  0  0  0  0  0
    8.1540   -1.0510   -0.1140 C   0  0  0  0  0  0  0  0  0  0  0  0
    5.6930   -1.2000    0.2170 C   0  0  0  0  0  0  0  0  0  0  0  0
    5.8630   -2.3640    1.0640 C   0  0  0  0  0  0  0  0  0  0  0  0
    7.0000   -2.8390    1.3190 O   0  0  0  0  0  0  0  0  0  0  0  0
    4.3980   -0.7360   -0.0110 C   0  0  0  0  0  0  0  0  0  0  0  0
    4.2730    0.3630   -0.8140 C   0  0  0  0  0  0  0  0  0  0  0  0
   -1.0780    2.2920    1.1210 C   0  0  0  0  0  0  0  0  0  0  0  0
   -2.4220    2.2190    0.7660 C   0  0  0  0  0  0  0  0  0  0  0  0
   -3.1170    3.3480    0.0930 C   0  0  0  0  0  0  0  0  0  0  0  0
  1  2  1  0
  2  3  1  0
  3  4  1  0
  4  5  2  0
  4  6  1  0
  6  7  2  0
  6 12  1  0
  7  8  1  0
  8  9  1  0
  8 10  2  0
 10 11  1  0
 11 12  2  0
 12 13  1  0
 13 14  1  0
 14 15  2  0
 14 39  1  0
 15 16  1  0
 16 17  1  0
 16 19  2  0
 17 18  1  0
 19 20  1  0
 19 38  1  0
 20 21  1  0
 21 22  1  0
 22 23  2  0
 22 24  1  0
 24 25  1  0
 24 37  1  0
 25 26  1  0
 26 27  1  6
 26 28  1  0
 28 29  1  0
 29 30  2  0
 29 37  1  0
 30 31  1  0
 31 32  1  0
 31 33  2  0
 33 34  1  0
 33 36  1  0
 34 35  2  0
 36 37  2  0
 38 39  2  0
 39 40  1  0
M  END
