
     RDKit          3D

 39 44  0  0  0  0  0  0  0  0999 V2000
  -11.3060    3.1380   -0.4090 C   0  0  0  0  0  0  0  0  0  0  0  0
  -10.0490    2.3300   -0.4810 C   0  0  0  0  0  0  0  0  0  0  0  0
  -10.0100    1.1350   -1.1680 C   0  0  0  0  0  0  0  0  0  0  0  0
   -8.8410    0.3930   -1.2290 C   0  0  0  0  0  0  0  0  0  0  0  0
   -7.6780    0.8110   -0.6130 C   0  0  0  0  0  0  0  0  0  0  0  0
   -6.4550    0.0030   -0.6950 C   0  0  0  0  0  0  0  0  0  0  0  0
   -6.3640   -1.1660   -1.3490 N   0  0  0  0  0  0  0  0  0  0  0  0
   -5.0890   -1.6170   -1.2050 C   0  0  0  0  0  0  0  0  0  0  0  0
   -4.5530   -2.8820   -1.7730 C   0  0  0  0  0  0  0  0  0  0  0  0
   -4.4040   -0.7280   -0.4660 N   0  0  0  0  0  0  0  0  0  0  0  0
   -3.0310   -0.8180   -0.0790 C   0  0  0  0  0  0  0  0  0  0  0  0
   -2.0770   -1.3360   -0.8750 N   0  0  0  0  0  0  0  0  0  0  0  0
   -0.7800   -1.4050   -0.4610 C   0  0  0  0  0  0  0  0  0  0  0  0
   -0.4170   -0.9460    0.7820 C   0  0  0  0  0  0  0  0  0  0  0  0
    0.9480   -1.0040    1.2710 C   0  0  0  0  0  0  0  0  0  0  0  0
    1.8790   -1.7020    0.4600 N   0  0  0  0  0  0  0  0  0  0  0  0
    3.0900   -2.0450    1.1080 C   0  0  0  0  0  0  0  0  0  0  0  0
    3.2060   -3.2900    1.7480 C   0  0  0  0  0  0  0  0  0  0  0  0
    4.3610   -3.6740    2.3860 C   0  0  0  0  0  0  0  0  0  0  0  0
    4.4030   -4.8780    2.9760 F   0  0  0  0  0  0  0  0  0  0  0  0
    5.4180   -2.7880    2.3790 C   0  0  0  0  0  0  0  0  0  0  0  0
    5.3460   -1.5660    1.7690 C   0  0  0  0  0  0  0  0  0  0  0  0
    4.1820   -1.1810    1.1270 C   0  0  0  0  0  0  0  0  0  0  0  0
    4.0570    0.0820    0.4970 N   0  0  0  0  0  0  0  0  0  0  0  0
    5.1700    1.0160    0.3800 C   0  0  0  0  0  0  0  0  0  0  0  0
    6.2440    0.4950    0.0370 N   0  0  0  0  0  0  0  0  0  0  0  0
    7.5240    1.0130   -0.1880 C   0  0  0  0  0  0  0  0  0  0  0  0
    7.7490    2.2900   -0.0370 C   0  0  0  0  0  0  0  0  0  0  0  0
    9.1900    2.6030   -0.3330 C   0  0  0  0  0  0  0  0  0  0  0  0
    9.6000    1.4320   -1.1910 C   0  0  0  0  0  0  0  0  0  0  0  0
    8.7970    0.2830   -0.6170 C   0  0  0  0  0  0  0  0  0  0  0  0
    6.4270    3.3790    0.4510 S   0  0  0  0  0  0  0  0  0  0  0  0
    4.9260    2.4530    0.6580 C   0  0  0  0  0  0  0  0  0  0  0  0
   -1.3990   -0.4160    1.5930 C   0  0  0  0  0  0  0  0  0  0  0  0
   -2.6690   -0.3640    1.1510 N   0  0  0  0  0  0  0  0  0  0  0  0
   -5.2580    0.2420   -0.1720 N   0  0  0  0  0  0  0  0  0  0  0  0
   -7.7170    2.0040    0.0720 C   0  0  0  0  0  0  0  0  0  0  0  0
   -8.8880    2.7470    0.1330 C   0  0  0  0  0  0  0  0  0  0  0  0
   -8.9320    3.9230    0.8070 F   0  0  0  0  0  0  0  0  0  0  0  0
  1  2  1  0
  2  3  2  0
  2 38  1  0
  3  4  1  0
  4  5  2  0
  5  6  1  0
  5 37  1  0
  6  7  1  0
  6 36  2  0
  7  8  2  0
  8  9  1  0
  8 10  1  0
 10 11  1  0
 10 36  1  0
 11 12  2  0
 11 35  1  0
 12 13  1  0
 13 14  2  0
 14 15  1  0
 14 34  1  0
 15 16  1  0
 16 17  1  0
 17 18  2  0
 17 23  1  0
 18 19  1  0
 19 20  1  0
 19 21  2  0
 21 22  1  0
 22 23  2  0
 23 24  1  0
 24 25  1  0
 25 26  2  0
 25 33  1  0
 26 27  1  0
 27 28  2  0
 27 31  1  0
 28 29  1  0
 28 32  1  0
 29 30  1  0
 30 31  1  0
 32 33  1  0
 34 35  2  0
 37 38  2  0
 38 39  1  0
M  CHG  1  16   1
M  END
