
     RDKit          3D

 17 19  0  0  0  0  0  0  0  0999 V2000
   -5.0670    0.8560    0.3440 C   0  0  0  0  0  0  0  0  0  0  0  0
   -3.6190    0.8740    0.1880 N   0  0  0  0  0  0  0  0  0  0  0  0
   -2.9900    2.0580    0.0180 C   0  0  0  0  0  0  0  0  0  0  0  0
   -1.6250    2.1490   -0.1360 C   0  0  0  0  0  0  0  0  0  0  0  0
   -0.9140    0.9710   -0.1090 C   0  0  0  0  0  0  0  0  0  0  0  0
    0.3850    0.6550   -0.2210 N   0  0  0  0  0  0  0  0  0  0  0  0
    0.5570   -0.6680   -0.1240 C   0  0  0  0  0  0  0  0  0  0  0  0
    1.8050   -1.3710   -0.1960 N   0  0  0  0  0  0  0  0  0  0  0  0
    3.0350   -0.7070   -0.3850 C   0  0  0  0  0  0  0  0  0  0  0  0
    4.2640   -1.3220   -0.4630 C   0  0  0  0  0  0  0  0  0  0  0  0
    5.2560   -0.3760   -0.6510 C   0  0  0  0  0  0  0  0  0  0  0  0
    4.6270    0.8160   -0.6880 N   0  0  0  0  0  0  0  0  0  0  0  0
    3.3020    0.6350   -0.5300 C   0  0  0  0  0  0  0  0  0  0  0  0
   -0.6700   -1.3030    0.0630 C   0  0  0  0  0  0  0  0  0  0  0  0
   -0.9080   -2.6880    0.2090 N   0  0  0  0  0  0  0  0  0  0  0  0
   -1.6280   -0.2860    0.0770 C   0  0  0  0  0  0  0  0  0  0  0  0
   -2.9490   -0.2660    0.2160 N   0  0  0  0  0  0  0  0  0  0  0  0
  1  2  1  0
  2  3  1  0
  2 17  1  0
  3  4  2  0
  4  5  1  0
  5  6  2  0
  5 16  1  0
  6  7  1  0
  7  8  1  0
  7 14  2  0
  8  9  1  0
  9 10  1  0
  9 13  2  0
 10 11  2  0
 11 12  1  0
 12 13  1  0
 14 15  1  0
 14 16  1  0
 16 17  2  0
M  END
