
     RDKit          3D

 18 20  0  0  0  0  0  0  0  0999 V2000
   -2.4830   -2.2100    0.8690 C   0  0  0  0  0  0  0  0  0  0  0  0
   -2.5180   -0.8430    0.3900 N   0  0  0  0  0  0  0  0  0  0  0  0
   -3.7140   -0.2760   -0.0720 C   0  0  0  0  0  0  0  0  0  0  0  0
   -4.7410   -1.0160   -0.2590 N   0  0  0  0  0  0  0  0  0  0  0  0
   -3.8660    1.1740   -0.3650 C   0  0  0  0  0  0  0  0  0  0  0  0
   -2.6140    1.8310   -0.5520 N   0  0  0  0  0  0  0  0  0  0  0  0
   -1.3510    1.3170   -0.0960 C   0  0  0  0  0  0  0  0  0  0  0  0
   -0.2900    2.0640   -0.0780 C   0  0  0  0  0  0  0  0  0  0  0  0
    1.0580    1.6700    0.3520 C   0  0  0  0  0  0  0  0  0  0  0  0
    1.7970    2.3230    1.3020 N   0  0  0  0  0  0  0  0  0  0  0  0
    2.9690    1.7320    1.4000 N   0  0  0  0  0  0  0  0  0  0  0  0
    3.0480    0.6980    0.5470 C   0  0  0  0  0  0  0  0  0  0  0  0
    4.2090   -0.2150    0.3620 C   0  0  1  0  0  0  0  0  0  0  0  0
    4.0010   -1.6110   -0.0920 C   0  0  0  0  0  0  0  0  0  0  0  0
    4.5440   -0.5840   -1.0750 C   0  0  0  0  0  0  0  0  0  0  0  0
    1.8590    0.6860   -0.0830 N   0  0  0  0  0  0  0  0  0  0  0  0
   -1.3340   -0.0430    0.3780 C   0  0  0  0  0  0  0  0  0  0  0  0
   -0.3020   -0.6060    0.8060 O   0  0  0  0  0  0  0  0  0  0  0  0
  1  2  1  0
  2  3  1  0
  2 17  1  0
  3  4  2  0
  3  5  1  0
  5  6  1  0
  6  7  1  0
  7  8  2  3
  7 17  1  0
  8  9  1  0
  9 10  2  0
  9 16  1  0
 10 11  1  0
 11 12  2  0
 13 12  1  6
 12 16  1  0
 13 14  1  0
 13 15  1  0
 14 15  1  0
 17 18  2  0
M  END
