
     RDKit          3D

 18 20  0  0  0  0  0  0  0  0999 V2000
    4.6580    0.3950    0.0650 C   0  0  0  0  0  0  0  0  0  0  0  0
    3.3200    0.1290   -0.3740 N   0  0  0  0  0  0  0  0  0  0  0  0
    3.0490   -0.4810   -1.5290 N   0  0  0  0  0  0  0  0  0  0  0  0
    1.7230   -0.5810   -1.6540 C   0  0  0  0  0  0  0  0  0  0  0  0
    1.1100   -0.0220   -0.5510 C   0  0  0  0  0  0  0  0  0  0  0  0
   -0.3170    0.0780   -0.2740 C   0  0  0  0  0  0  0  0  0  0  0  0
   -0.9090    1.2500    0.0410 N   0  0  0  0  0  0  0  0  0  0  0  0
   -2.2080    1.3450    0.2950 N   0  0  0  0  0  0  0  0  0  0  0  0
   -2.8130    2.6410    0.6340 C   0  0  0  0  0  0  0  0  0  0  0  0
   -3.0150    0.2800    0.2530 C   0  0  0  0  0  0  0  0  0  0  0  0
   -4.2470    0.4380    0.5060 O   0  0  0  0  0  0  0  0  0  0  0  0
   -2.4920   -0.9560   -0.0600 C   0  0  0  0  0  0  0  0  0  0  0  0
   -3.0780   -2.1970   -0.1720 C   0  0  0  0  0  0  0  0  0  0  0  0
   -2.0790   -3.0340   -0.5020 N   0  0  0  0  0  0  0  0  0  0  0  0
   -0.9170   -2.3690   -0.5950 C   0  0  0  0  0  0  0  0  0  0  0  0
   -1.1430   -1.0300   -0.3180 C   0  0  0  0  0  0  0  0  0  0  0  0
    2.1390    0.4220    0.2470 C   0  0  0  0  0  0  0  0  0  0  0  0
    2.0490    1.0700    1.4930 N   0  0  0  0  0  0  0  0  0  0  0  0
  1  2  1  0
  2  3  1  0
  2 17  1  0
  3  4  2  0
  4  5  1  0
  5  6  1  0
  5 17  2  0
  6  7  2  0
  6 16  1  0
  7  8  1  0
  8  9  1  0
  8 10  1  0
 10 11  2  0
 10 12  1  0
 12 13  2  0
 12 16  1  0
 13 14  1  0
 14 15  1  0
 15 16  2  0
 17 18  1  0
M  END
