
     RDKit          3D

 25 27  0  0  0  0  0  0  0  0999 V2000
   -1.6430   -1.9720   -1.0410 C   0  0  0  0  0  0  0  0  0  0  0  0
   -1.6060   -2.0470    0.4900 C   0  0  2  0  0  0  0  0  0  0  0  0
   -2.8380   -1.3590    1.0690 C   0  0  0  0  0  0  0  0  0  0  0  0
   -3.1630   -0.0770    0.3970 C   0  0  1  0  0  0  0  0  0  0  0  0
   -3.9410    0.7150    1.3850 O   0  0  0  0  0  0  0  0  0  0  0  0
   -2.5570    1.0170    0.9510 C   0  0  2  0  0  0  0  0  0  0  0  0
   -2.5370    2.3140    0.2680 C   0  0  0  0  0  0  0  0  0  0  0  0
   -1.7530    3.3430    0.4370 C   0  0  0  0  0  0  0  0  0  0  0  0
   -0.6480    3.5830    1.3300 C   0  0  0  0  0  0  0  0  0  0  0  0
    0.4280    2.8800    1.5630 C   0  0  0  0  0  0  0  0  0  0  0  0
    0.8630    1.6190    0.9940 C   0  0  0  0  0  0  0  0  0  0  0  0
    1.4910    0.8680    1.8400 O   0  0  0  0  0  0  0  0  0  0  0  0
    0.6690    1.1470   -0.3810 C   0  0  0  0  0  0  0  0  0  0  0  0
    1.7210    0.1030   -0.6720 C   0  0  0  0  0  0  0  0  0  0  0  0
    2.6470    0.4760   -1.6350 C   0  0  0  0  0  0  0  0  0  0  0  0
    2.6030    2.0460   -2.4100 Cl  0  0  0  0  0  0  0  0  0  0  0  0
    3.6460   -0.3820   -2.0230 C   0  0  0  0  0  0  0  0  0  0  0  0
    4.5790    0.0200   -3.0070 O   0  0  0  0  0  0  0  0  0  0  0  0
    3.7050   -1.6090   -1.4380 C   0  0  0  0  0  0  0  0  0  0  0  0
    2.7660   -1.9920   -0.4590 C   0  0  0  0  0  0  0  0  0  0  0  0
    2.9340   -3.2630    0.0530 O   0  0  0  0  0  0  0  0  0  0  0  0
    1.7560   -1.1270   -0.0630 C   0  0  0  0  0  0  0  0  0  0  0  0
    0.8320   -1.5810    0.9960 C   0  0  0  0  0  0  0  0  0  0  0  0
    1.4640   -2.1840    1.9710 O   0  0  0  0  0  0  0  0  0  0  0  0
   -0.5070   -1.4260    1.0270 O   0  0  0  0  0  0  0  0  0  0  0  0
  2  1  1  6
  2  3  1  0
  2 25  1  0
  4  3  1  1
  4  5  1  0
  4  6  1  0
  6  5  1  1
  6  7  1  0
  7  8  2  0
  8  9  1  0
  9 10  2  0
 10 11  1  0
 11 12  2  0
 11 13  1  0
 13 14  1  0
 14 15  2  0
 14 22  1  0
 15 16  1  0
 15 17  1  0
 17 18  1  0
 17 19  2  0
 19 20  1  0
 20 21  1  0
 20 22  2  0
 22 23  1  0
 23 24  2  0
 23 25  1  0
M  END
