
     RDKit          3D

 13 12  0  0  0  0  0  0  0  0999 V2000
    4.3320   -0.9740   -0.8120 O   0  0  0  0  0  0  0  0  0  0  0  0
    3.9270   -0.7860    0.3570 C   0  0  0  0  0  0  0  0  0  0  0  0
    4.8160   -0.8550    1.4150 O   0  0  0  0  0  0  0  0  0  0  0  0
    2.4680   -0.4880    0.5910 C   0  0  0  0  0  0  0  0  0  0  0  0
    1.7590   -0.4790   -0.7370 C   0  0  0  0  0  0  0  0  0  0  0  0
    0.4110   -0.2190   -0.6010 O   0  0  0  0  0  0  0  0  0  0  0  0
    0.1440    0.9950   -0.0290 C   0  0  0  0  0  0  0  0  0  0  0  0
   -1.3700    1.2320    0.0790 C   0  0  0  0  0  0  0  0  0  0  0  0
   -1.9700    0.2410    0.8640 O   0  0  0  0  0  0  0  0  0  0  0  0
   -3.6620    0.6090    0.9140 P   0  0  0  0  0  0  0  0  0  0  0  0
   -4.3760    0.5590   -0.6480 O   0  0  0  0  0  0  0  0  0  0  0  0
   -4.5120   -0.2900    2.0950 O   0  0  0  0  0  0  0  0  0  0  0  0
   -5.3650   -1.1420    1.5670 O   0  0  0  0  0  0  0  0  0  0  0  0
  1  2  2  0
  2  3  1  0
  2  4  1  0
  4  5  1  0
  5  6  1  0
  6  7  1  0
  7  8  1  0
  8  9  1  0
  9 10  1  0
 10 11  1  0
 10 12  1  0
 12 13  1  0
M  END
