
     RDKit          3D

 16 16  0  0  0  0  0  0  0  0999 V2000
   -0.2370   -1.5060    1.5010 O   0  0  0  0  0  0  0  0  0  0  0  0
   -0.7900   -0.9300    0.3740 C   0  0  1  0  0  0  0  0  0  0  0  0
   -2.3030   -0.8340    0.4540 C   0  0  2  0  0  0  0  0  0  0  0  0
   -2.9340   -1.9430   -0.0850 O   0  0  0  0  0  0  0  0  0  0  0  0
   -2.8420    0.4400   -0.1000 C   0  0  1  0  0  0  0  0  0  0  0  0
   -3.0670    1.3960    0.9180 O   0  0  0  0  0  0  0  0  0  0  0  0
   -2.0670    1.0190   -1.2280 C   0  0  2  0  0  0  0  0  0  0  0  0
   -2.5810    0.5760   -2.4370 O   0  0  0  0  0  0  0  0  0  0  0  0
   -0.7110    0.8130   -1.1750 O   0  0  0  0  0  0  0  0  0  0  0  0
   -0.2810    0.4460    0.0910 C   0  0  2  0  0  0  0  0  0  0  0  0
    1.2100    0.5880    0.2500 C   0  0  0  0  0  0  0  0  0  0  0  0
    1.8600   -0.1990   -0.6460 O   0  0  0  0  0  0  0  0  0  0  0  0
    3.5260   -0.0330   -0.4520 P   0  0  0  0  0  0  0  0  0  0  0  0
    3.4020   -0.6290    0.9540 O   0  0  0  0  0  0  0  0  0  0  0  0
    4.1300    1.3780    0.2180 O   0  0  0  0  0  0  0  0  0  0  0  0
    4.5160   -1.1020   -1.1060 O   0  0  0  0  0  0  0  0  0  0  0  0
  2  1  1  1
  2  3  1  0
  2 10  1  0
  3  4  1  6
  3  5  1  0
  5  6  1  1
  5  7  1  0
  7  8  1  6
  7  9  1  0
  9 10  1  0
 10 11  1  6
 11 12  1  0
 12 13  1  0
 13 14  1  0
 13 15  1  0
 13 16  1  0
M  END
