
     RDKit          3D

 14 13  0  0  0  0  0  0  0  0999 V2000
   -2.8840    1.7450   -0.9770 O   0  0  0  0  0  0  0  0  0  0  0  0
   -3.3420    1.0870   -0.0280 C   0  0  0  0  0  0  0  0  0  0  0  0
   -4.2660    1.6960    0.8060 O   0  0  0  0  0  0  0  0  0  0  0  0
   -2.9780   -0.3180    0.2950 C   0  0  0  0  0  0  0  0  0  0  0  0
   -1.5870   -0.2740    1.5080 P   0  0  0  0  0  0  0  0  0  0  0  0
   -1.8570   -1.2180    2.9070 O   0  0  0  0  0  0  0  0  0  0  0  0
   -0.0730   -0.7090    0.8140 O   0  0  0  0  0  0  0  0  0  0  0  0
   -0.1520   -1.0500   -0.5200 C   0  0  0  0  0  0  0  0  0  0  0  0
    1.1920   -1.4170   -1.0670 C   0  0  0  0  0  0  0  0  0  0  0  0
    2.1730   -0.4510   -1.0200 O   0  0  0  0  0  0  0  0  0  0  0  0
    2.7510    0.1730    0.0360 C   0  0  0  0  0  0  0  0  0  0  0  0
    2.3740   -0.1460    1.1900 O   0  0  0  0  0  0  0  0  0  0  0  0
    3.8090    1.2150   -0.1240 C   0  0  0  0  0  0  0  0  0  0  0  0
    4.1860    1.6700    1.1310 O   0  0  0  0  0  0  0  0  0  0  0  0
  1  2  2  0
  2  3  1  0
  2  4  1  0
  4  5  1  0
  5  6  1  0
  5  7  1  0
  7  8  1  0
  8  9  1  0
  9 10  1  0
 10 11  1  0
 11 12  2  0
 11 13  1  0
 13 14  1  0
M  END
