
     RDKit          3D

 31 34  0  0  0  0  0  0  0  0999 V2000
   -0.8110    0.4590    2.4780 C   0  0  0  0  0  0  0  0  0  0  0  0
   -1.7920   -0.0940    1.5710 N   0  0  0  0  0  0  0  0  0  0  0  0
   -2.8510    0.8010    1.0920 C   0  0  0  0  0  0  0  0  0  0  0  0
   -2.8150    1.9630    1.4970 O   0  0  0  0  0  0  0  0  0  0  0  0
   -3.8420    0.2930    0.2110 N   0  0  0  0  0  0  0  0  0  0  0  0
   -4.9090    1.0650   -0.2920 C   0  0  0  0  0  0  0  0  0  0  0  0
   -5.9520    0.3690   -0.9150 C   0  0  0  0  0  0  0  0  0  0  0  0
   -7.0230    1.0530   -1.4140 C   0  0  0  0  0  0  0  0  0  0  0  0
   -7.1290    2.4430   -1.3300 C   0  0  0  0  0  0  0  0  0  0  0  0
   -6.1100    3.1270   -0.7230 C   0  0  0  0  0  0  0  0  0  0  0  0
   -5.0190    2.4050   -0.2170 C   0  0  0  0  0  0  0  0  0  0  0  0
   -1.8570   -1.4210    1.1240 C   0  0  0  0  0  0  0  0  0  0  0  0
   -2.8770   -2.2700    1.6100 C   0  0  0  0  0  0  0  0  0  0  0  0
   -3.0280   -3.5730    1.2090 C   0  0  0  0  0  0  0  0  0  0  0  0
   -2.1420   -4.0850    0.2840 C   0  0  0  0  0  0  0  0  0  0  0  0
   -1.1390   -3.3080   -0.2170 C   0  0  0  0  0  0  0  0  0  0  0  0
   -1.0030   -1.9730    0.2100 C   0  0  0  0  0  0  0  0  0  0  0  0
    0.1140   -1.2090   -0.3240 C   0  0  0  0  0  0  0  0  0  0  0  0
    0.3160   -0.0490    0.0690 O   0  0  0  0  0  0  0  0  0  0  0  0
    0.9420   -1.7500   -1.2430 O   0  0  0  0  0  0  0  0  0  0  0  0
    2.0780   -1.2630   -1.8690 C   0  0  0  0  0  0  0  0  0  0  0  0
    3.2400   -1.0870   -0.9230 C   0  0  0  0  0  0  0  0  0  0  0  0
    2.9220   -0.1240    0.0900 N   0  0  0  0  0  0  0  0  0  0  0  0
    3.8440   -0.2500    1.2300 C   0  0  0  0  0  0  0  0  0  0  0  0
    5.2490   -0.4460    0.7740 C   0  0  0  0  0  0  0  0  0  0  0  0
    5.6190    0.8030    0.0380 C   0  0  0  0  0  0  0  0  0  0  0  0
    6.8200    1.3750   -0.1660 C   0  0  0  0  0  0  0  0  0  0  0  0
    6.5230    2.5750   -0.9590 C   0  0  0  0  0  0  0  0  0  0  0  0
    5.1110    2.5980   -1.1660 N   0  0  0  0  0  0  0  0  0  0  0  0
    4.5680    1.5710   -0.5880 C   0  0  0  0  0  0  0  0  0  0  0  0
    3.1690    1.1880   -0.5360 C   0  0  0  0  0  0  0  0  0  0  0  0
  1  2  1  0
  2  3  1  0
  2 12  1  0
  3  4  2  0
  3  5  1  0
  5  6  1  0
  6  7  2  0
  6 11  1  0
  7  8  1  0
  8  9  2  0
  9 10  1  0
 10 11  2  0
 12 13  2  0
 12 17  1  0
 13 14  1  0
 14 15  2  0
 15 16  1  0
 16 17  2  0
 17 18  1  0
 18 19  2  0
 18 20  1  0
 20 21  1  0
 21 22  1  0
 22 23  1  0
 23 24  1  0
 23 31  1  0
 24 25  1  0
 25 26  1  0
 26 27  2  0
 26 30  1  0
 27 28  1  0
 28 29  1  0
 29 30  2  0
 30 31  1  0
M  END
