
     RDKit          3D

 31 34  0  0  0  0  0  0  0  0999 V2000
   -1.2920    1.3630    5.4650 C   0  0  0  0  0  0  0  0  0  0  0  0
   -1.1110    1.0520    4.1080 O   0  0  0  0  0  0  0  0  0  0  0  0
   -1.9370    1.5300    3.1190 C   0  0  0  0  0  0  0  0  0  0  0  0
   -2.9940    2.3470    3.4080 C   0  0  0  0  0  0  0  0  0  0  0  0
   -3.8030    2.8120    2.4080 C   0  0  0  0  0  0  0  0  0  0  0  0
   -3.5720    2.4700    1.1000 C   0  0  0  0  0  0  0  0  0  0  0  0
   -4.3980    2.9520    0.0450 N   0  0  0  0  0  0  0  0  0  0  0  0
   -4.2380    2.4830   -1.3050 C   0  0  0  0  0  0  0  0  0  0  0  0
   -4.5600    1.0220   -1.4030 C   0  0  0  0  0  0  0  0  0  0  0  0
   -4.9560    0.2080   -0.4450 C   0  0  0  0  0  0  0  0  0  0  0  0
   -5.1470   -1.1290   -1.0210 C   0  0  0  0  0  0  0  0  0  0  0  0
   -4.8050   -0.9720   -2.4450 C   0  0  0  0  0  0  0  0  0  0  0  0
   -4.4630    0.2840   -2.6660 C   0  0  0  0  0  0  0  0  0  0  0  0
   -2.4830    1.6300    0.8090 C   0  0  0  0  0  0  0  0  0  0  0  0
   -1.6750    1.1640    1.7930 C   0  0  0  0  0  0  0  0  0  0  0  0
   -0.5830    0.3280    1.5380 N   0  0  0  0  0  0  0  0  0  0  0  0
   -0.1190   -0.1710    0.3090 C   0  0  0  0  0  0  0  0  0  0  0  0
   -0.7130    0.1310   -0.7400 O   0  0  0  0  0  0  0  0  0  0  0  0
    1.0150   -1.0120    0.2530 N   0  0  0  0  0  0  0  0  0  0  0  0
    1.6970   -1.3610    1.4730 C   0  0  0  0  0  0  0  0  0  0  0  0
    2.8180   -2.3180    1.3180 C   0  0  0  0  0  0  0  0  0  0  0  0
    3.4360   -2.4270   -0.0240 C   0  0  0  0  0  0  0  0  0  0  0  0
    2.9800   -1.3720   -1.0080 C   0  0  1  0  0  0  0  0  0  0  0  0
    3.2820    0.0140   -0.5270 C   0  0  0  0  0  0  0  0  0  0  0  0
    3.8340    0.9170   -1.6170 C   0  0  0  0  0  0  0  0  0  0  0  0
    5.0660    0.2440   -2.1230 C   0  0  0  0  0  0  0  0  0  0  0  0
    6.1190    0.8740   -2.3180 O   0  0  0  0  0  0  0  0  0  0  0  0
    4.9570   -1.1570   -2.3640 N   0  0  0  0  0  0  0  0  0  0  0  0
    6.1220   -1.9560   -2.6000 C   0  0  0  0  0  0  0  0  0  0  0  0
    3.5950   -1.6950   -2.3490 C   0  0  0  0  0  0  0  0  0  0  0  0
    1.4510   -1.4930   -1.0500 C   0  0  0  0  0  0  0  0  0  0  0  0
  1  2  1  0
  2  3  1  0
  3  4  2  0
  3 15  1  0
  4  5  1  0
  5  6  2  0
  6  7  1  0
  6 14  1  0
  7  8  1  0
  8  9  1  0
  9 10  2  0
  9 13  1  0
 10 11  1  0
 11 12  1  0
 12 13  2  0
 14 15  2  0
 15 16  1  0
 16 17  1  0
 17 18  2  0
 17 19  1  0
 19 20  1  0
 19 31  1  0
 20 21  1  0
 21 22  1  0
 23 22  1  1
 23 24  1  0
 23 30  1  0
 23 31  1  0
 24 25  1  0
 25 26  1  0
 26 27  2  0
 26 28  1  0
 28 29  1  0
 28 30  1  0
M  END
