
     RDKit          3D

 29 32  0  0  0  0  0  0  0  0999 V2000
    8.5650    1.5690   -0.1290 C   0  0  0  0  0  0  0  0  0  0  0  0
    7.2380    1.1660    0.4390 C   0  0  0  0  0  0  0  0  0  0  0  0
    6.5170    0.3710   -0.6540 C   0  0  0  0  0  0  0  0  0  0  0  0
    5.2950   -0.1710   -0.1190 N   0  0  0  0  0  0  0  0  0  0  0  0
    5.3470   -1.3070    0.6360 C   0  0  0  0  0  0  0  0  0  0  0  0
    6.5540   -2.0780    1.0710 C   0  0  0  0  0  0  0  0  0  0  0  0
    4.0960   -1.6710    0.8870 N   0  0  0  0  0  0  0  0  0  0  0  0
    3.2830   -0.7740    0.2950 C   0  0  0  0  0  0  0  0  0  0  0  0
    1.9240   -0.7410    0.1600 C   0  0  0  0  0  0  0  0  0  0  0  0
    1.3490    0.2520   -0.6050 C   0  0  0  0  0  0  0  0  0  0  0  0
   -0.1130    0.0250   -0.9590 C   0  0  0  0  0  0  0  0  0  0  0  0
   -0.5260   -1.0920   -0.1900 N   0  0  0  0  0  0  0  0  0  0  0  0
   -1.7310   -1.7060   -0.4940 C   0  0  0  0  0  0  0  0  0  0  0  0
   -2.7230   -0.5910   -0.7280 C   0  0  0  0  0  0  0  0  0  0  0  0
   -2.6840    0.3510   -1.6400 O   0  0  0  0  0  0  0  0  0  0  0  0
   -3.7870    1.1190   -1.5520 C   0  0  0  0  0  0  0  0  0  0  0  0
   -4.5600    0.6440   -0.5310 C   0  0  0  0  0  0  0  0  0  0  0  0
   -3.8630   -0.4240   -0.0260 C   0  0  0  0  0  0  0  0  0  0  0  0
   -4.2900   -1.0650    1.2500 C   0  0  1  0  0  0  0  0  0  0  0  0
   -3.9230   -0.1730    2.3580 N   0  0  0  0  0  0  0  0  0  0  0  0
   -5.7280   -1.3430    1.1290 C   0  0  0  0  0  0  0  0  0  0  0  0
   -6.5230   -0.3690    0.3720 C   0  0  0  0  0  0  0  0  0  0  0  0
   -5.8740    0.9730    0.0510 C   0  0  2  0  0  0  0  0  0  0  0  0
   -6.7930    1.6040   -0.9250 C   0  0  0  0  0  0  0  0  0  0  0  0
   -8.1490    1.6700   -0.5810 N   0  0  0  0  0  0  0  0  0  0  0  0
   -6.3820    2.0480   -2.0050 O   0  0  0  0  0  0  0  0  0  0  0  0
    2.0370    1.2280   -1.2370 C   0  0  0  0  0  0  0  0  0  0  0  0
    3.4270    1.1930   -1.1050 C   0  0  0  0  0  0  0  0  0  0  0  0
    4.0290    0.1830   -0.3420 C   0  0  0  0  0  0  0  0  0  0  0  0
  1  2  1  0
  2  3  1  0
  3  4  1  0
  4  5  1  0
  4 29  1  0
  5  6  1  0
  5  7  2  0
  7  8  1  0
  8  9  2  0
  8 29  1  0
  9 10  1  0
 10 11  1  0
 10 27  2  0
 11 12  1  0
 12 13  1  0
 13 14  1  0
 14 15  1  0
 14 18  2  0
 15 16  1  0
 16 17  2  0
 17 18  1  0
 17 23  1  0
 18 19  1  0
 19 20  1  1
 19 21  1  0
 21 22  1  0
 22 23  1  0
 23 24  1  6
 24 25  1  0
 24 26  2  0
 27 28  1  0
 28 29  2  0
M  CHG  1  20   1
M  END
