
     RDKit          3D

  8  8  0  0  0  0  0  0  0  0999 V2000
    2.5970    0.3940   -0.1330 N   0  0  0  0  0  0  0  0  0  0  0  0
    1.5640   -0.4900    0.9610 S   0  0  0  0  0  0  0  0  0  0  0  0
   -0.1850   -0.4020    0.3760 C   0  0  0  0  0  0  0  0  0  0  0  0
   -0.6360   -1.3890   -0.4930 C   0  0  0  0  0  0  0  0  0  0  0  0
   -2.3460   -0.9160   -0.7880 S   0  0  0  0  0  0  0  0  0  0  0  0
   -2.2640    0.5930    0.3170 C   0  0  0  0  0  0  0  0  0  0  0  0
   -3.2300    1.3300    0.4850 O   0  0  0  0  0  0  0  0  0  0  0  0
   -1.0370    0.5180    0.7170 N   0  0  0  0  0  0  0  0  0  0  0  0
  1  2  1  0
  2  3  1  0
  3  4  2  0
  3  8  1  0
  4  5  1  0
  5  6  1  0
  6  7  2  0
  6  8  1  0
M  END
