
     RDKit          3D

  9  8  0  0  0  0  0  0  0  0999 V2000
    3.1700    0.8240    0.1790 C   0  0  0  0  0  0  0  0  0  0  0  0
    1.3590    0.6850    0.2070 S   0  0  0  0  0  0  0  0  0  0  0  0
    0.8370   -0.9980   -0.0890 C   0  0  0  0  0  0  0  0  0  0  0  0
    1.7440   -1.8770   -0.2850 N   0  0  0  0  0  0  0  0  0  0  0  0
   -0.8750   -1.4680   -0.1210 S   0  0  0  0  0  0  0  0  0  0  0  0
   -1.9360   -0.0770    0.1650 N   0  0  0  0  0  0  0  0  0  0  0  0
   -3.0670    0.2100   -0.6510 C   0  0  0  0  0  0  0  0  0  0  0  0
   -3.2840   -0.5960   -1.6130 O   0  0  0  0  0  0  0  0  0  0  0  0
   -3.8940    1.2760   -0.4480 O   0  0  0  0  0  0  0  0  0  0  0  0
  1  2  1  0
  2  3  1  0
  3  4  2  0
  3  5  1  0
  5  6  1  0
  6  7  1  0
  7  8  2  0
  7  9  1  0
M  END
