
     RDKit          3D

 11 11  0  0  0  0  0  0  0  0999 V2000
    3.9160    0.6100   -1.2190 O   0  0  0  0  0  0  0  0  0  0  0  0
    2.7250    0.0430   -1.0190 O   0  0  0  0  0  0  0  0  0  0  0  0
    2.7520   -0.6020    0.1080 O   0  0  0  0  0  0  0  0  0  0  0  0
    1.5610   -0.9780    0.4620 O   0  0  0  0  0  0  0  0  0  0  0  0
    0.5600   -0.1200    0.0170 C   0  0  2  0  0  0  0  0  0  0  0  0
   -0.0940    0.4780    1.2460 C   0  0  0  0  0  0  0  0  0  0  0  0
   -1.1420    1.2910    0.8920 O   0  0  0  0  0  0  0  0  0  0  0  0
   -2.0470    0.7100    0.0270 C   0  0  0  0  0  0  0  0  0  0  0  0
   -2.2780   -0.7440    0.3910 C   0  0  0  0  0  0  0  0  0  0  0  0
   -1.2290   -1.4840   -0.1040 O   0  0  0  0  0  0  0  0  0  0  0  0
   -0.3710   -0.7730   -0.7900 O   0  0  0  0  0  0  0  0  0  0  0  0
  1  2  1  0
  2  3  1  0
  3  4  1  0
  5  4  1  1
  5  6  1  0
  5 11  1  0
  6  7  1  0
  7  8  1  0
  8  9  1  0
  9 10  1  0
 10 11  1  0
M  END
