
     RDKit          3D

 28 30  0  0  0  0  0  0  0  0999 V2000
   -4.1200    2.1280   -2.4430 N   0  0  0  0  0  0  0  0  0  0  0  0
   -4.5370    1.4520   -1.2760 C   0  0  0  0  0  0  0  0  0  0  0  0
   -3.6130    0.7720   -0.5810 N   0  0  0  0  0  0  0  0  0  0  0  0
   -3.9830    0.1190    0.5350 C   0  0  0  0  0  0  0  0  0  0  0  0
   -5.3040    0.1520    0.9560 C   0  0  0  0  0  0  0  0  0  0  0  0
   -5.3470   -0.5790    2.0720 N   0  0  0  0  0  0  0  0  0  0  0  0
   -4.0970   -1.0480    2.3350 C   0  0  0  0  0  0  0  0  0  0  0  0
   -3.2570   -0.6120    1.3770 N   0  0  0  0  0  0  0  0  0  0  0  0
   -1.8580   -0.9020    1.3170 C   0  0  2  0  0  0  0  0  0  0  0  0
   -1.0640    0.2280    1.1400 O   0  0  0  0  0  0  0  0  0  0  0  0
    0.2030   -0.3690    1.1020 C   0  0  2  0  0  0  0  0  0  0  0  0
    1.2720    0.5540    0.6380 C   0  0  0  0  0  0  0  0  0  0  0  0
    2.4520   -0.2310    0.6720 O   0  0  0  0  0  0  0  0  0  0  0  0
    3.7090    0.5560    0.2120 P   0  0  0  0  0  0  0  0  0  0  0  0
    3.5400    1.7920    1.2600 O   0  0  0  0  0  0  0  0  0  0  0  0
    4.5990   -0.7870    0.6690 O   0  0  0  0  0  0  0  0  0  0  0  0
    5.0110    1.1160   -0.3880 O   0  0  0  0  0  0  0  0  0  0  0  0
    5.7510    0.5620   -1.5990 P   0  0  0  0  0  0  0  0  0  0  0  0
    4.4080    0.2180   -2.4350 O   0  0  0  0  0  0  0  0  0  0  0  0
    6.4910    2.0340   -1.8120 O   0  0  0  0  0  0  0  0  0  0  0  0
    6.4620   -0.6030   -0.6420 O   0  0  0  0  0  0  0  0  0  0  0  0
    0.0110   -1.4280    0.0050 C   0  0  1  0  0  0  0  0  0  0  0  0
    0.8370   -2.4900    0.3550 O   0  0  0  0  0  0  0  0  0  0  0  0
   -1.4540   -1.7720    0.1700 C   0  0  1  0  0  0  0  0  0  0  0  0
   -1.5210   -3.1320    0.4860 O   0  0  0  0  0  0  0  0  0  0  0  0
   -6.2440    0.8470    0.2420 C   0  0  0  0  0  0  0  0  0  0  0  0
   -7.4530    0.8950    0.6010 O   0  0  0  0  0  0  0  0  0  0  0  0
   -5.8230    1.4890   -0.8740 N   0  0  0  0  0  0  0  0  0  0  0  0
  1  2  1  0
  2  3  1  0
  2 28  2  0
  3  4  1  0
  4  5  2  0
  4  8  1  0
  5  6  1  0
  5 26  1  0
  6  7  2  0
  7  8  1  0
  9  8  1  6
  9 10  1  0
  9 24  1  0
 10 11  1  0
 11 12  1  6
 11 22  1  0
 12 13  1  0
 13 14  1  0
 14 15  1  0
 14 16  1  0
 14 17  1  0
 17 18  1  0
 18 19  1  0
 18 20  1  0
 18 21  1  0
 22 23  1  1
 22 24  1  0
 24 25  1  1
 26 27  2  0
 26 28  1  0
M  CHG  1  28   1
M  END
