
     RDKit          3D

 13 13  0  0  0  0  0  0  0  0999 V2000
   -1.3530   -2.1430   -0.6350 C   0  0  0  0  0  0  0  0  0  0  0  0
   -1.0590   -1.0100   -0.0700 C   0  0  0  0  0  0  0  0  0  0  0  0
   -2.1520   -0.1950    0.3720 N   0  0  0  0  0  0  0  0  0  0  0  0
   -2.0510    1.0680    0.5290 C   0  0  0  0  0  0  0  0  0  0  0  0
   -3.2120    1.8490    0.9870 C   0  0  0  0  0  0  0  0  0  0  0  0
    0.2960   -0.4650    0.1350 C   0  0  0  0  0  0  0  0  0  0  0  0
    0.4730    0.0840    1.3620 N   0  0  0  0  0  0  0  0  0  0  0  0
    1.5430    0.6440    1.8070 O   0  0  0  0  0  0  0  0  0  0  0  0
    2.8270    0.6880    0.7570 P   0  0  0  0  0  0  0  0  0  0  0  0
    4.3860    1.3350    1.1290 O   0  0  0  0  0  0  0  0  0  0  0  0
    2.4790   -0.0270   -0.7380 N   0  0  0  0  0  0  0  0  0  0  0  0
    1.2200   -0.5210   -0.8470 C   0  0  0  0  0  0  0  0  0  0  0  0
    0.9240   -1.1080   -2.1940 C   0  0  0  0  0  0  0  0  0  0  0  0
  1  2  2  0
  2  3  1  0
  2  6  1  0
  3  4  2  3
  4  5  1  0
  6  7  1  0
  6 12  2  0
  7  8  1  0
  8  9  1  0
  9 10  1  0
  9 11  1  0
 11 12  1  0
 12 13  1  0
M  END
