
     RDKit          3D

 11 10  0  0  0  0  0  0  0  0999 V2000
   -1.8130   -1.2080    0.4760 O   0  0  0  0  0  0  0  0  0  0  0  0
   -2.1940   -0.0890    0.1010 C   0  0  0  0  0  0  0  0  0  0  0  0
   -3.6680    0.1070   -0.0250 C   0  0  0  0  0  0  0  0  0  0  0  0
   -3.9860    1.3960   -0.4520 O   0  0  0  0  0  0  0  0  0  0  0  0
   -1.2740    0.8790   -0.1700 O   0  0  0  0  0  0  0  0  0  0  0  0
    0.0220    0.8050   -0.0910 O   0  0  0  0  0  0  0  0  0  0  0  0
    0.5840   -0.3300    0.4140 C   0  0  0  0  0  0  0  0  0  0  0  0
    2.1000   -0.2530    0.4410 C   0  0  0  0  0  0  0  0  0  0  0  0
    2.5650   -0.0730   -0.8570 O   0  0  0  0  0  0  0  0  0  0  0  0
    3.8600    0.0030   -0.9170 O   0  0  0  0  0  0  0  0  0  0  0  0
    4.4770   -0.3020    0.1830 O   0  0  0  0  0  0  0  0  0  0  0  0
  1  2  2  0
  2  3  1  0
  2  5  1  0
  3  4  1  0
  5  6  1  0
  6  7  1  0
  7  8  1  0
  8  9  1  0
  9 10  1  0
 10 11  1  0
M  END
