
     RDKit          3D

  8  7  0  0  0  0  0  0  0  0999 V2000
   -1.6170   -1.1320   -0.4430 F   0  0  0  0  0  0  0  0  0  0  0  0
   -1.1670    0.1370   -0.1310 C   0  0  2  0  0  0  0  0  0  0  0  0
   -1.7150    0.5360    1.5000 Cl  0  0  0  0  0  0  0  0  0  0  0  0
   -1.9720    1.2770   -1.2480 Cl  0  0  0  0  0  0  0  0  0  0  0  0
    0.1890    0.2890   -0.3110 O   0  0  0  0  0  0  0  0  0  0  0  0
    0.9480   -0.5220    0.4200 N   0  0  0  0  0  0  0  0  0  0  0  0
    2.2310   -0.3840   -0.0090 O   0  0  0  0  0  0  0  0  0  0  0  0
    2.4550    1.2980   -0.2490 Cl  0  0  0  0  0  0  0  0  0  0  0  0
  2  1  1  6
  2  3  1  0
  2  4  1  0
  2  5  1  0
  5  6  1  0
  6  7  1  0
  7  8  1  0
M  END
