
     RDKit          3D

  9  8  0  0  0  0  0  0  0  0999 V2000
    1.9090    1.7650    1.2410 F   0  0  0  0  0  0  0  0  0  0  0  0
    1.4390    0.7800    0.3740 C   0  0  1  0  0  0  0  0  0  0  0  0
    2.8890   -0.1420   -0.1520 Cl  0  0  0  0  0  0  0  0  0  0  0  0
    0.5220   -0.0420    0.9990 O   0  0  0  0  0  0  0  0  0  0  0  0
   -0.6240    0.0540    0.3820 O   0  0  0  0  0  0  0  0  0  0  0  0
   -1.0830   -1.1260   -0.0280 N   0  0  0  0  0  0  0  0  0  0  0  0
   -0.4070   -1.6400   -1.5430 Cl  0  0  0  0  0  0  0  0  0  0  0  0
   -2.4240   -1.2270   -0.0130 O   0  0  0  0  0  0  0  0  0  0  0  0
   -3.1990    0.2690    0.1880 Cl  0  0  0  0  0  0  0  0  0  0  0  0
  2  1  1  1
  2  3  1  0
  2  4  1  0
  4  5  1  0
  5  6  1  0
  6  7  1  0
  6  8  1  0
  8  9  1  0
M  END
