
     RDKit          3D

  8  7  0  0  0  0  0  0  0  0999 V2000
   -1.7680    0.7970    1.4600 F   0  0  0  0  0  0  0  0  0  0  0  0
   -1.3350    0.1080    0.3600 C   0  0  1  0  0  0  0  0  0  0  0  0
   -1.6170   -1.6240    0.5770 Cl  0  0  0  0  0  0  0  0  0  0  0  0
   -2.1550    0.6220   -1.1300 Cl  0  0  0  0  0  0  0  0  0  0  0  0
    0.0240    0.3410    0.2200 O   0  0  0  0  0  0  0  0  0  0  0  0
    0.5290   -0.2960   -0.8330 O   0  0  0  0  0  0  0  0  0  0  0  0
    1.8710   -0.3850   -0.5790 N   0  0  0  0  0  0  0  0  0  0  0  0
    2.4500    1.2640   -0.4530 Cl  0  0  0  0  0  0  0  0  0  0  0  0
  2  1  1  1
  2  3  1  0
  2  4  1  0
  2  5  1  0
  5  6  1  0
  6  7  1  0
  7  8  1  0
M  END
