
     RDKit          3D

 22 23  0  0  0  0  0  0  0  0999 V2000
    3.0210   -2.5410    2.0120 O   0  0  0  0  0  0  0  0  0  0  0  0
    2.4330   -1.3570    1.6190 C   0  0  0  0  0  0  0  0  0  0  0  0
    3.0030   -0.6570    0.6270 C   0  0  0  0  0  0  0  0  0  0  0  0
    4.1720   -1.1740    0.0430 O   0  0  0  0  0  0  0  0  0  0  0  0
    2.3740    0.5740    0.2320 C   0  0  0  0  0  0  0  0  0  0  0  0
    2.8550    1.3360   -0.7040 C   0  0  0  0  0  0  0  0  0  0  0  0
    4.0460    1.2040   -1.5580 C   0  0  0  0  0  0  0  0  0  0  0  0
    4.9270    2.2840   -1.3770 O   0  0  0  0  0  0  0  0  0  0  0  0
    1.0790    1.0000    0.8350 C   0  0  1  0  0  0  0  0  0  0  0  0
    0.8540    2.3410    0.5680 O   0  0  0  0  0  0  0  0  0  0  0  0
   -0.0770    0.2100    0.4200 C   0  0  0  0  0  0  0  0  0  0  0  0
   -1.3560    0.6230    0.8100 C   0  0  0  0  0  0  0  0  0  0  0  0
   -2.4880   -0.0840    0.3970 C   0  0  0  0  0  0  0  0  0  0  0  0
   -3.8540    0.3550    0.7700 C   0  0  0  0  0  0  0  0  0  0  0  0
   -3.9170    1.8210    1.1120 C   0  0  0  0  0  0  0  0  0  0  0  0
   -5.2620    2.1180    1.4260 O   0  0  0  0  0  0  0  0  0  0  0  0
   -2.3790   -1.1980   -0.3960 C   0  0  0  0  0  0  0  0  0  0  0  0
   -1.1260   -1.6140   -0.7830 C   0  0  0  0  0  0  0  0  0  0  0  0
   -0.0050   -0.8940   -0.3630 C   0  0  0  0  0  0  0  0  0  0  0  0
   -1.3140   -2.7440   -1.5610 O   0  0  0  0  0  0  0  0  0  0  0  0
   -2.6100   -3.2820   -1.3370 C   0  0  0  0  0  0  0  0  0  0  0  0
   -3.3060   -2.0930   -0.9570 O   0  0  0  0  0  0  0  0  0  0  0  0
  1  2  1  0
  2  3  2  3
  3  4  1  0
  3  5  1  0
  5  6  2  3
  5  9  1  0
  6  7  1  0
  7  8  1  0
  9 10  1  6
  9 11  1  0
 11 12  2  0
 11 19  1  0
 12 13  1  0
 13 14  1  0
 13 17  2  0
 14 15  1  0
 15 16  1  0
 17 18  1  0
 17 22  1  0
 18 19  2  0
 18 20  1  0
 20 21  1  0
 21 22  1  0
M  END
