
     RDKit          3D

 22 24  0  0  0  0  0  0  0  0999 V2000
   -2.3330    2.2920   -1.6380 O   0  0  0  0  0  0  0  0  0  0  0  0
   -1.7570    3.0330   -0.6340 C   0  0  0  0  0  0  0  0  0  0  0  0
   -1.6930    2.2870    0.6700 C   0  0  0  0  0  0  0  0  0  0  0  0
   -0.9040    1.0340    0.5890 C   0  0  0  0  0  0  0  0  0  0  0  0
    0.3570    0.9970    1.1070 C   0  0  0  0  0  0  0  0  0  0  0  0
    1.1020   -0.1750    1.0330 C   0  0  0  0  0  0  0  0  0  0  0  0
    2.3900   -0.2110    1.5630 O   0  0  0  0  0  0  0  0  0  0  0  0
    3.4410    0.1380    0.7540 C   0  0  0  0  0  0  0  0  0  0  0  0
    4.2120   -0.6620   -0.0460 C   0  0  0  0  0  0  0  0  0  0  0  0
    4.1000   -2.0310   -0.2180 O   0  0  0  0  0  0  0  0  0  0  0  0
    5.1370    0.1600   -0.6590 C   0  0  0  0  0  0  0  0  0  0  0  0
    4.9200    1.3790   -0.2390 O   0  0  0  0  0  0  0  0  0  0  0  0
    3.9290    1.4310    0.5990 C   0  0  0  0  0  0  0  0  0  0  0  0
    3.4200    2.5570    1.2450 O   0  0  0  0  0  0  0  0  0  0  0  0
    0.5380   -1.2790    0.4310 C   0  0  0  0  0  0  0  0  0  0  0  0
   -0.7330   -1.2740   -0.1020 C   0  0  0  0  0  0  0  0  0  0  0  0
   -1.4490   -0.0900   -0.0110 C   0  0  0  0  0  0  0  0  0  0  0  0
   -2.7360   -0.0650   -0.5440 O   0  0  0  0  0  0  0  0  0  0  0  0
   -3.3210   -1.2030   -1.1200 C   0  0  0  0  0  0  0  0  0  0  0  0
   -2.8060   -2.4260   -0.3960 C   0  0  1  0  0  0  0  0  0  0  0  0
   -3.4720   -3.5760   -0.7500 O   0  0  0  0  0  0  0  0  0  0  0  0
   -1.3130   -2.5000   -0.7490 C   0  0  0  0  0  0  0  0  0  0  0  0
  1  2  1  0
  2  3  1  0
  3  4  1  0
  4  5  2  0
  4 17  1  0
  5  6  1  0
  6  7  1  0
  6 15  2  0
  7  8  1  0
  8  9  1  0
  8 13  2  0
  9 10  1  0
  9 11  2  0
 11 12  1  0
 12 13  1  0
 13 14  1  0
 15 16  1  0
 16 17  2  0
 16 22  1  0
 17 18  1  0
 18 19  1  0
 19 20  1  0
 20 21  1  6
 20 22  1  0
M  END
