
     RDKit          3D

 22 24  0  0  0  0  0  0  0  0999 V2000
    5.0650    2.1750   -1.3730 O   0  0  0  0  0  0  0  0  0  0  0  0
    4.1880    1.6450   -0.6410 C   0  0  0  0  0  0  0  0  0  0  0  0
    2.7680    1.8470   -0.7790 C   0  0  0  0  0  0  0  0  0  0  0  0
    2.1240    1.1500    0.1420 C   0  0  0  0  0  0  0  0  0  0  0  0
    0.6750    1.1210    0.2960 C   0  0  0  0  0  0  0  0  0  0  0  0
    0.0640   -0.2010    0.1510 C   0  0  0  0  0  0  0  0  0  0  0  0
    0.7570   -1.3520   -0.1470 C   0  0  0  0  0  0  0  0  0  0  0  0
    0.1000   -2.5710   -0.2620 C   0  0  0  0  0  0  0  0  0  0  0  0
   -1.2630   -2.6620   -0.0800 C   0  0  0  0  0  0  0  0  0  0  0  0
   -1.9550   -1.5320    0.2150 C   0  0  0  0  0  0  0  0  0  0  0  0
   -3.3290   -1.6070    0.4020 O   0  0  0  0  0  0  0  0  0  0  0  0
   -1.2940   -0.3210    0.3280 C   0  0  0  0  0  0  0  0  0  0  0  0
   -2.0820    0.7750    0.6290 O   0  0  0  0  0  0  0  0  0  0  0  0
   -2.7320    1.5990   -0.3050 C   0  0  0  0  0  0  0  0  0  0  0  0
   -3.4790    2.6790    0.4890 C   0  0  0  0  0  0  0  0  0  0  0  0
   -4.1230    3.4990   -0.4360 O   0  0  0  0  0  0  0  0  0  0  0  0
   -1.6810   -3.9950   -0.2490 O   0  0  0  0  0  0  0  0  0  0  0  0
   -0.5060   -4.7740   -0.1240 C   0  0  0  0  0  0  0  0  0  0  0  0
    0.5080   -3.8750   -0.5460 O   0  0  0  0  0  0  0  0  0  0  0  0
    3.1410    0.4580    0.9250 C   0  0  0  0  0  0  0  0  0  0  0  0
    4.3530    0.7300    0.4880 C   0  0  0  0  0  0  0  0  0  0  0  0
    5.5940    0.3010    0.9230 O   0  0  0  0  0  0  0  0  0  0  0  0
  1  2  2  0
  2  3  1  0
  2 21  1  0
  3  4  2  0
  4  5  1  0
  4 20  1  0
  5  6  1  0
  6  7  2  0
  6 12  1  0
  7  8  1  0
  8  9  2  0
  8 19  1  0
  9 10  1  0
  9 17  1  0
 10 11  1  0
 10 12  2  0
 12 13  1  0
 13 14  1  0
 14 15  1  0
 15 16  1  0
 17 18  1  0
 18 19  1  0
 20 21  2  0
 21 22  1  0
M  END
