
     RDKit          3D

 22 23  0  0  0  0  0  0  0  0999 V2000
   -2.8540   -3.8010    1.2310 O   0  0  0  0  0  0  0  0  0  0  0  0
   -3.3800   -2.6240    0.7310 C   0  0  0  0  0  0  0  0  0  0  0  0
   -2.6850   -1.4700    0.8660 C   0  0  0  0  0  0  0  0  0  0  0  0
   -1.4020   -1.5880    1.5490 C   0  0  0  0  0  0  0  0  0  0  0  0
   -0.1950   -1.2660    0.7920 C   0  0  0  0  0  0  0  0  0  0  0  0
    0.5660   -0.1470    1.0400 C   0  0  0  0  0  0  0  0  0  0  0  0
    1.7330    0.1510    0.3530 C   0  0  0  0  0  0  0  0  0  0  0  0
    2.1850   -0.6940   -0.6360 C   0  0  0  0  0  0  0  0  0  0  0  0
    1.4560   -1.8130   -0.9090 C   0  0  0  0  0  0  0  0  0  0  0  0
    0.2860   -2.1000   -0.2120 C   0  0  0  0  0  0  0  0  0  0  0  0
   -0.4160   -3.2340   -0.5180 O   0  0  0  0  0  0  0  0  0  0  0  0
    3.3610   -0.3710   -1.3120 O   0  0  0  0  0  0  0  0  0  0  0  0
    4.2190    0.5900   -0.7260 C   0  0  0  0  0  0  0  0  0  0  0  0
    3.3560    1.7600   -0.3470 C   0  0  2  0  0  0  0  0  0  0  0  0
    4.1250    2.9690    0.0700 C   0  0  0  0  0  0  0  0  0  0  0  0
    4.9680    3.3140   -1.0040 O   0  0  0  0  0  0  0  0  0  0  0  0
    2.4640    1.3000    0.6470 O   0  0  0  0  0  0  0  0  0  0  0  0
   -3.3120   -0.2980    0.3280 C   0  0  0  0  0  0  0  0  0  0  0  0
   -4.5690   -0.4280   -0.3030 O   0  0  0  0  0  0  0  0  0  0  0  0
   -2.7980    0.8910    0.3800 C   0  0  0  0  0  0  0  0  0  0  0  0
   -3.5370    2.0400   -0.2150 C   0  0  0  0  0  0  0  0  0  0  0  0
   -2.8010    2.6540   -1.2230 O   0  0  0  0  0  0  0  0  0  0  0  0
  1  2  1  0
  2  3  2  3
  3  4  1  0
  3 18  1  0
  4  5  1  0
  5  6  2  0
  5 10  1  0
  6  7  1  0
  7  8  2  0
  7 17  1  0
  8  9  1  0
  8 12  1  0
  9 10  2  0
 10 11  1  0
 12 13  1  0
 13 14  1  0
 14 15  1  1
 14 17  1  0
 15 16  1  0
 18 19  1  0
 18 20  2  3
 20 21  1  0
 21 22  1  0
M  END
