
     RDKit          3D

 22 24  0  0  0  0  0  0  0  0999 V2000
   -3.6780    1.0250   -2.1250 O   0  0  0  0  0  0  0  0  0  0  0  0
   -4.5160    0.0580   -2.6130 C   0  0  0  0  0  0  0  0  0  0  0  0
   -3.8340   -1.2450   -2.8600 C   0  0  0  0  0  0  0  0  0  0  0  0
   -3.2420   -1.9060   -1.8670 O   0  0  0  0  0  0  0  0  0  0  0  0
   -2.2540   -1.8700   -0.9650 C   0  0  0  0  0  0  0  0  0  0  0  0
   -1.3390   -0.8480   -0.8380 C   0  0  0  0  0  0  0  0  0  0  0  0
   -0.3170   -0.8120    0.1010 C   0  0  0  0  0  0  0  0  0  0  0  0
    0.6460    0.3150    0.1990 C   0  0  1  0  0  0  0  0  0  0  0  0
    0.8420    0.7150    1.5520 O   0  0  0  0  0  0  0  0  0  0  0  0
    2.1190    1.2850    1.5700 C   0  0  0  0  0  0  0  0  0  0  0  0
    2.7570    2.1390    2.4280 C   0  0  0  0  0  0  0  0  0  0  0  0
    4.0520    2.5810    2.2430 C   0  0  0  0  0  0  0  0  0  0  0  0
    4.6540    3.4450    3.1390 O   0  0  0  0  0  0  0  0  0  0  0  0
    4.7260    2.1310    1.1310 C   0  0  0  0  0  0  0  0  0  0  0  0
    6.0220    2.5640    0.9300 O   0  0  0  0  0  0  0  0  0  0  0  0
    4.0940    1.2640    0.2480 C   0  0  0  0  0  0  0  0  0  0  0  0
    2.8070    0.8380    0.4520 C   0  0  0  0  0  0  0  0  0  0  0  0
    1.9290   -0.0080   -0.2380 O   0  0  0  0  0  0  0  0  0  0  0  0
   -0.2020   -1.8680    0.9710 C   0  0  0  0  0  0  0  0  0  0  0  0
   -1.1000   -2.9150    0.8770 C   0  0  0  0  0  0  0  0  0  0  0  0
   -2.1000   -2.9450   -0.0470 C   0  0  0  0  0  0  0  0  0  0  0  0
   -3.0080   -3.9860   -0.1530 O   0  0  0  0  0  0  0  0  0  0  0  0
  1  2  1  0
  2  3  1  0
  3  4  1  0
  4  5  1  0
  5  6  2  0
  5 21  1  0
  6  7  1  0
  8  7  1  1
  7 19  2  0
  8  9  1  0
  8 18  1  0
  9 10  1  0
 10 11  2  0
 10 17  1  0
 11 12  1  0
 12 13  1  0
 12 14  2  0
 14 15  1  0
 14 16  1  0
 16 17  2  0
 17 18  1  0
 19 20  1  0
 20 21  2  0
 21 22  1  0
M  END
