
     RDKit          3D

 27 28  0  0  0  0  0  0  0  0999 V2000
   -5.0060   -0.8660    1.5990 C   0  0  0  0  0  0  0  0  0  0  0  0
   -5.5680   -0.7150    0.2350 C   0  0  1  0  0  0  0  0  0  0  0  0
   -4.4960    0.0810   -0.9740 S   0  0  0  0  0  0  0  0  0  0  0  0
   -3.0080   -0.8650   -1.1930 C   0  0  0  0  0  0  0  0  0  0  0  0
   -2.0450   -0.7710   -0.0280 C   0  0  1  0  0  0  0  0  0  0  0  0
   -0.9660   -1.6720   -0.3400 O   0  0  0  0  0  0  0  0  0  0  0  0
    0.2000   -1.1120    0.0540 C   0  0  1  0  0  0  0  0  0  0  0  0
    1.3850   -1.6390   -0.6520 C   0  0  0  0  0  0  0  0  0  0  0  0
    1.1770   -2.4900   -1.5810 O   0  0  0  0  0  0  0  0  0  0  0  0
    2.6820   -1.2180   -0.3080 N   0  0  0  0  0  0  0  0  0  0  0  0
    3.5190   -0.7330   -1.1360 C   0  0  0  0  0  0  0  0  0  0  0  0
    3.1680   -0.5940   -2.4640 O   0  0  0  0  0  0  0  0  0  0  0  0
    4.8410   -0.3380   -0.6270 C   0  0  1  0  0  0  0  0  0  0  0  0
    5.9190   -1.1590   -1.2880 C   0  0  0  0  0  0  0  0  0  0  0  0
    5.1470    1.1330   -0.9060 C   0  0  0  0  0  0  0  0  0  0  0  0
    6.3750    1.2840    0.0070 C   0  0  0  0  0  0  0  0  0  0  0  0
    5.9360    0.4430    1.1800 C   0  0  0  0  0  0  0  0  0  0  0  0
    4.8900   -0.3610    0.7530 O   0  0  0  0  0  0  0  0  0  0  0  0
    0.0620    0.3760   -0.2300 C   0  0  0  0  0  0  0  0  0  0  0  0
   -1.4060    0.5370    0.1840 C   0  0  1  0  0  0  0  0  0  0  0  0
   -2.0700    2.0600   -0.3540 S   0  0  0  0  0  0  0  0  0  0  0  0
   -3.1910    2.8960    0.6940 C   0  0  2  0  0  0  0  0  0  0  0  0
   -2.4640    3.3170    1.9390 N   0  0  0  0  0  0  0  0  0  0  0  0
   -4.3390    2.3160    1.1310 O   0  0  0  0  0  0  0  0  0  0  0  0
   -5.9420   -2.0690   -0.2680 C   0  0  0  0  0  0  0  0  0  0  0  0
   -5.4330   -2.5630   -1.2870 O   0  0  0  0  0  0  0  0  0  0  0  0
   -6.9070   -2.7640    0.4670 O   0  0  0  0  0  0  0  0  0  0  0  0
  2  1  1  1
  2  3  1  0
  2 25  1  0
  3  4  1  0
  5  4  1  6
  5  6  1  0
  5 20  1  0
  6  7  1  0
  7  8  1  6
  7 19  1  0
  8  9  2  0
  8 10  1  0
 10 11  2  3
 11 12  1  0
 11 13  1  0
 13 14  1  6
 13 15  1  0
 13 18  1  0
 15 16  1  0
 16 17  1  0
 17 18  1  0
 19 20  1  0
 20 21  1  6
 21 22  1  0
 22 23  1  1
 22 24  1  0
 25 26  2  0
 25 27  1  0
M  END
