
     RDKit          3D

 27 28  0  0  0  0  0  0  0  0999 V2000
    9.7100    1.3720   -0.7520 C   0  0  0  0  0  0  0  0  0  0  0  0
    8.3700    1.0510   -1.1500 O   0  0  0  0  0  0  0  0  0  0  0  0
    7.3960    0.7300   -0.2290 C   0  0  0  0  0  0  0  0  0  0  0  0
    7.7260    0.7290    0.9830 O   0  0  0  0  0  0  0  0  0  0  0  0
    6.0260    0.4000   -0.6100 C   0  0  0  0  0  0  0  0  0  0  0  0
    5.6750    0.3960   -1.8170 O   0  0  0  0  0  0  0  0  0  0  0  0
    5.0730    0.0770    0.3940 N   0  0  0  0  0  0  0  0  0  0  0  0
    3.7150   -0.2540    0.0730 C   0  0  0  0  0  0  0  0  0  0  0  0
    3.2430   -0.2650   -1.4680 S   0  0  0  0  0  0  0  0  0  0  0  0
    2.6020   -0.6310    1.3760 S   0  0  0  0  0  0  0  0  0  0  0  0
    0.9590   -1.0530    0.8280 C   0  0  1  0  0  0  0  0  0  0  0  0
    0.3160    0.1450    0.1690 C   0  0  0  0  0  0  0  0  0  0  0  0
   -1.1380   -0.1590   -0.2660 C   0  0  2  0  0  0  0  0  0  0  0  0
   -1.1540   -0.1940   -1.6710 O   0  0  0  0  0  0  0  0  0  0  0  0
   -1.9500    0.9550    0.2400 C   0  0  0  0  0  0  0  0  0  0  0  0
   -3.4060    1.0070   -0.0040 C   0  0  1  0  0  0  0  0  0  0  0  0
   -3.8400    2.2490    0.5870 O   0  0  0  0  0  0  0  0  0  0  0  0
   -3.7550    1.0970   -1.3400 O   0  0  0  0  0  0  0  0  0  0  0  0
   -5.0810    1.5060   -1.4280 C   0  0  0  0  0  0  0  0  0  0  0  0
   -6.0260    0.4290   -0.9080 C   0  0  0  0  0  0  0  0  0  0  0  0
   -5.1330   -0.6740   -0.3320 C   0  0  0  0  0  0  0  0  0  0  0  0
   -4.2400   -0.0240    0.7150 C   0  0  2  0  0  0  0  0  0  0  0  0
   -5.1850    0.6240    1.6530 N   0  0  0  0  0  0  0  0  0  0  0  0
   -1.4800   -1.5230    0.2060 C   0  0  0  0  0  0  0  0  0  0  0  0
   -0.5190   -2.5870   -0.3190 C   0  0  0  0  0  0  0  0  0  0  0  0
    0.9320   -2.1650   -0.1970 C   0  0  2  0  0  0  0  0  0  0  0  0
    1.7440   -3.2040    0.2380 O   0  0  0  0  0  0  0  0  0  0  0  0
  1  2  1  0
  2  3  1  0
  3  4  2  0
  3  5  1  0
  5  6  2  0
  5  7  1  0
  7  8  1  0
  8  9  2  0
  8 10  1  0
 11 10  1  6
 11 12  1  0
 11 26  1  0
 12 13  1  0
 13 14  1  6
 13 15  1  0
 13 24  1  0
 15 16  1  0
 16 17  1  1
 16 18  1  0
 16 22  1  0
 18 19  1  0
 19 20  1  0
 20 21  1  0
 21 22  1  0
 22 23  1  1
 24 25  1  0
 25 26  1  0
 26 27  1  1
M  END
