
     RDKit          3D

  6  6  0  0  0  0  0  0  0  0999 V2000
    1.9210    1.5060   -0.1800 O   0  0  0  0  0  0  0  0  0  0  0  0
    0.8920    0.7790   -0.1860 C   0  0  0  0  0  0  0  0  0  0  0  0
    0.7720   -0.6870    0.0600 C   0  0  0  0  0  0  0  0  0  0  0  0
   -0.3980   -0.7170    0.8300 O   0  0  0  0  0  0  0  0  0  0  0  0
   -1.2560    0.1100    0.1060 C   0  0  0  0  0  0  0  0  0  0  0  0
   -0.4270    1.1540   -0.4270 O   0  0  0  0  0  0  0  0  0  0  0  0
  1  2  2  0
  2  3  1  0
  2  6  1  0
  3  4  1  0
  4  5  1  0
  5  6  1  0
M  END
