
     RDKit          3D

  5  5  0  0  0  0  0  0  0  0999 V2000
   -0.7820    0.6470    0.2090 C   0  0  0  0  0  0  0  0  0  0  0  0
   -0.6320   -0.8400    0.0130 C   0  0  0  0  0  0  0  0  0  0  0  0
    0.5770   -0.9330   -0.6770 O   0  0  0  0  0  0  0  0  0  0  0  0
    1.2830    0.2010   -0.2690 C   0  0  0  0  0  0  0  0  0  0  0  0
    0.3690    1.2490   -0.2600 O   0  0  0  0  0  0  0  0  0  0  0  0
  1  2  1  0
  1  5  1  0
  2  3  1  0
  3  4  1  0
  4  5  1  0
M  END
