
     RDKit          3D

 28 30  0  0  0  0  0  0  0  0999 V2000
   -1.7580    1.3600    4.1880 C   0  0  0  0  0  0  0  0  0  0  0  0
   -2.0650    1.3960    2.7350 C   0  0  0  0  0  0  0  0  0  0  0  0
   -2.3320    2.4410    2.1030 O   0  0  0  0  0  0  0  0  0  0  0  0
   -2.0660    0.1740    1.9760 N   0  0  0  0  0  0  0  0  0  0  0  0
   -2.3520    0.1400    0.5820 C   0  0  1  0  0  0  0  0  0  0  0  0
   -1.1910   -0.2600   -0.2990 C   0  0  2  0  0  0  0  0  0  0  0  0
   -0.1420    0.5840   -0.0710 O   0  0  0  0  0  0  0  0  0  0  0  0
    1.0640    0.0130    0.2760 C   0  0  2  0  0  0  0  0  0  0  0  0
    1.6560    0.4710    1.5440 C   0  0  1  0  0  0  0  0  0  0  0  0
    1.9070   -0.6860    2.4930 C   0  0  0  0  0  0  0  0  0  0  0  0
    0.7490   -1.4030    2.7650 O   0  0  0  0  0  0  0  0  0  0  0  0
    2.8500    1.1540    1.2920 O   0  0  0  0  0  0  0  0  0  0  0  0
    3.7980    0.2870    0.7590 C   0  0  2  0  0  0  0  0  0  0  0  0
    5.1270    1.3010   -0.0020 S   0  0  0  0  0  0  0  0  0  0  0  0
    5.1840    0.3810   -1.5410 C   0  0  0  0  0  0  0  0  0  0  0  0
    6.2480    0.6060   -2.5690 C   0  0  0  0  0  0  0  0  0  0  0  0
    4.2200   -0.3860   -1.5090 N   0  0  0  0  0  0  0  0  0  0  0  0
    3.3340   -0.4500   -0.4590 C   0  0  2  0  0  0  0  0  0  0  0  0
    2.0460    0.2710   -0.8850 C   0  0  1  0  0  0  0  0  0  0  0  0
    1.5610   -0.1830   -2.0820 O   0  0  0  0  0  0  0  0  0  0  0  0
   -1.5840    0.0030   -1.6270 O   0  0  0  0  0  0  0  0  0  0  0  0
   -2.6610   -0.7330   -2.0430 C   0  0  2  0  0  0  0  0  0  0  0  0
   -2.9870   -0.2960   -3.4560 C   0  0  0  0  0  0  0  0  0  0  0  0
   -1.8860   -0.5280   -4.2880 O   0  0  0  0  0  0  0  0  0  0  0  0
   -3.9090   -0.4370   -1.2010 C   0  0  1  0  0  0  0  0  0  0  0  0
   -4.9070   -1.2920   -1.6620 O   0  0  0  0  0  0  0  0  0  0  0  0
   -3.5310   -0.7350    0.2350 C   0  0  2  0  0  0  0  0  0  0  0  0
   -4.6390   -0.4310    1.0230 O   0  0  0  0  0  0  0  0  0  0  0  0
  1  2  1  0
  2  3  2  0
  2  4  1  0
  5  4  1  1
  5  6  1  0
  5 27  1  0
  6  7  1  1
  6 21  1  0
  8  7  1  6
  8  9  1  0
  8 19  1  0
  9 10  1  1
  9 12  1  0
 10 11  1  0
 13 12  1  6
 13 14  1  0
 13 18  1  0
 14 15  1  0
 15 16  1  0
 15 17  2  0
 18 17  1  6
 18 19  1  0
 19 20  1  6
 21 22  1  0
 22 23  1  6
 22 25  1  0
 23 24  1  0
 25 26  1  6
 25 27  1  0
 27 28  1  1
M  END
