
     RDKit          3D

  5  4  0  0  0  0  0  0  0  0999 V2000
   -1.9220    0.4890    0.1120 C   0  0  0  0  0  0  0  0  0  0  0  0
   -0.6420   -0.2710    0.0500 C   0  0  0  0  0  0  0  0  0  0  0  0
    0.4850    0.5440    0.2970 O   0  0  0  0  0  0  0  0  0  0  0  0
    1.5920   -0.3060    0.2050 C   0  0  0  0  0  0  0  0  0  0  0  0
    2.7770    0.3880    0.4310 O   0  0  0  0  0  0  0  0  0  0  0  0
  1  2  1  0
  2  3  1  0
  3  4  1  0
  4  5  1  0
M  END
