
     RDKit          3D

 42 45  0  0  0  0  0  0  0  0999 V2000
   -8.2300   -1.7890    1.1210 C   0  0  0  0  0  0  0  0  0  0  0  0
   -7.8860   -0.4040    1.4260 C   0  0  0  0  0  0  0  0  0  0  0  0
   -6.8690    0.3690    1.2850 C   0  0  0  0  0  0  0  0  0  0  0  0
   -7.1500    1.7570    1.8410 C   0  0  0  0  0  0  0  0  0  0  0  0
   -6.2750    2.4120    2.6540 C   0  0  0  0  0  0  0  0  0  0  0  0
   -6.5900    3.6320    3.1020 F   0  0  0  0  0  0  0  0  0  0  0  0
   -4.9610    1.7970    3.0750 C   0  0  0  0  0  0  0  0  0  0  0  0
   -4.9830    0.3290    3.2820 C   0  0  0  0  0  0  0  0  0  0  0  0
   -4.9750   -0.6250    2.1200 C   0  0  0  0  0  0  0  0  0  0  0  0
   -5.4790    0.1050    0.8380 C   0  0  1  0  0  0  0  0  0  0  0  0
   -5.1180   -0.4390   -0.4190 C   0  0  0  0  0  0  0  0  0  0  0  0
   -5.7580   -1.4120   -1.1190 C   0  0  0  0  0  0  0  0  0  0  0  0
   -5.3320   -1.7990   -2.3960 C   0  0  0  0  0  0  0  0  0  0  0  0
   -6.0300   -2.7750   -3.0640 F   0  0  0  0  0  0  0  0  0  0  0  0
   -4.2740   -1.2500   -3.0300 C   0  0  0  0  0  0  0  0  0  0  0  0
   -3.5970   -0.2390   -2.3190 C   0  0  0  0  0  0  0  0  0  0  0  0
   -2.4730    0.3860   -3.0850 C   0  0  0  0  0  0  0  0  0  0  0  0
   -3.9800    0.1570   -1.0810 C   0  0  0  0  0  0  0  0  0  0  0  0
   -3.2690    1.2240   -0.3630 C   0  0  0  0  0  0  0  0  0  0  0  0
   -1.6620    1.7440   -0.9680 S   0  0  0  0  0  0  0  0  0  0  0  0
   -0.4060    0.5160   -0.4430 C   0  0  2  0  0  0  0  0  0  0  0  0
   -0.2970    0.5490    1.0850 C   0  0  0  0  0  0  0  0  0  0  0  0
    0.9430    0.7380   -1.0090 C   0  0  0  0  0  0  0  0  0  0  0  0
    1.7830   -0.3290   -0.5090 O   0  0  0  0  0  0  0  0  0  0  0  0
    3.1470   -0.3250   -0.9030 C   0  0  0  0  0  0  0  0  0  0  0  0
    3.5820    0.5360   -1.6190 O   0  0  0  0  0  0  0  0  0  0  0  0
    3.9610   -1.4630   -0.3500 C   0  0  0  0  0  0  0  0  0  0  0  0
    5.3470   -1.3170   -0.7660 N   0  0  0  0  0  0  0  0  0  0  0  0
    5.7960   -1.8890   -1.8890 C   0  0  0  0  0  0  0  0  0  0  0  0
    5.0980   -2.5980   -2.6490 O   0  0  0  0  0  0  0  0  0  0  0  0
    7.1070   -1.6960   -2.2410 N   0  0  0  0  0  0  0  0  0  0  0  0
    7.9520   -0.9440   -1.4770 C   0  0  0  0  0  0  0  0  0  0  0  0
    9.2540   -0.7320   -1.8020 C   0  0  0  0  0  0  0  0  0  0  0  0
    9.7360   -1.3020   -2.9410 F   0  0  0  0  0  0  0  0  0  0  0  0
   10.1240    0.0410   -1.0230 C   0  0  0  0  0  0  0  0  0  0  0  0
    9.6700    0.6250    0.1320 C   0  0  0  0  0  0  0  0  0  0  0  0
   10.4590    1.4070    0.9590 O   0  0  0  0  0  0  0  0  0  0  0  0
   11.7970    1.6460    0.6520 C   0  0  0  0  0  0  0  0  0  0  0  0
    8.3310    0.4040    0.4620 C   0  0  0  0  0  0  0  0  0  0  0  0
    7.4760   -0.3680   -0.3250 C   0  0  0  0  0  0  0  0  0  0  0  0
    6.1660   -0.5620    0.0200 C   0  0  0  0  0  0  0  0  0  0  0  0
    5.7300   -0.0300    1.0700 O   0  0  0  0  0  0  0  0  0  0  0  0
  1  2  1  0
  2  3  2  3
  3  4  1  0
  3 10  1  0
  4  5  2  0
  5  6  1  0
  5  7  1  0
  7  8  1  0
  8  9  1  0
  9 10  1  0
 10 11  1  6
 11 12  2  0
 11 18  1  0
 12 13  1  0
 13 14  1  0
 13 15  2  0
 15 16  1  0
 16 17  1  0
 16 18  2  0
 18 19  1  0
 19 20  1  0
 20 21  1  0
 21 22  1  1
 21 23  1  0
 23 24  1  0
 24 25  1  0
 25 26  2  0
 25 27  1  0
 27 28  1  0
 28 29  1  0
 28 41  1  0
 29 30  2  0
 29 31  1  0
 31 32  1  0
 32 33  2  0
 32 40  1  0
 33 34  1  0
 33 35  1  0
 35 36  2  0
 36 37  1  0
 36 39  1  0
 37 38  1  0
 39 40  2  0
 40 41  1  0
 41 42  2  0
M  END
