
     RDKit          3D

 42 42  0  0  0  0  0  0  0  0999 V2000
    7.9260    4.2650    1.5390 C   0  0  0  0  0  0  0  0  0  0  0  0
    6.5090    4.3170    1.0110 C   0  0  0  0  0  0  0  0  0  0  0  0
    6.3260    3.2630    0.0470 N   0  0  0  0  0  0  0  0  0  0  0  0
    6.4860    1.8990    0.3600 C   0  0  0  0  0  0  0  0  0  0  0  0
    6.8000    1.5620    1.5140 O   0  0  0  0  0  0  0  0  0  0  0  0
    6.2810    0.8260   -0.6860 C   0  0  1  0  0  0  0  0  0  0  0  0
    7.3350    1.1430   -1.7760 C   0  0  0  0  0  0  0  0  0  0  0  0
    6.4960   -0.3890   -0.1240 O   0  0  0  0  0  0  0  0  0  0  0  0
    5.7110   -1.4770    0.0440 C   0  0  0  0  0  0  0  0  0  0  0  0
    6.2930   -2.5820    0.6750 C   0  0  0  0  0  0  0  0  0  0  0  0
    5.5920   -3.7150    0.8900 C   0  0  0  0  0  0  0  0  0  0  0  0
    6.2330   -4.8660    1.5600 C   0  0  0  0  0  0  0  0  0  0  0  0
    7.5860   -4.7440    1.9650 N   0  0  0  0  0  0  0  0  0  0  0  0
    5.6030   -5.9380    1.7730 O   0  0  0  0  0  0  0  0  0  0  0  0
    4.2800   -3.8550    0.5050 C   0  0  0  0  0  0  0  0  0  0  0  0
    3.5510   -5.0440    0.7320 N   0  0  0  0  0  0  0  0  0  0  0  0
    3.7090   -2.7500   -0.1230 C   0  0  0  0  0  0  0  0  0  0  0  0
    4.3670   -1.5730   -0.3670 C   0  0  0  0  0  0  0  0  0  0  0  0
    3.7820   -0.5120   -0.9750 O   0  0  0  0  0  0  0  0  0  0  0  0
    2.4880   -0.3790   -1.3880 C   0  0  0  0  0  0  0  0  0  0  0  0
    1.5080   -0.3690   -0.2630 C   0  0  0  0  0  0  0  0  0  0  0  0
    0.0940   -0.2300   -0.7710 C   0  0  0  0  0  0  0  0  0  0  0  0
   -0.1350   -0.1230   -2.0070 O   0  0  0  0  0  0  0  0  0  0  0  0
   -0.9670   -0.2210    0.1450 N   0  0  0  0  0  0  0  0  0  0  0  0
   -2.4160   -0.0760   -0.3450 C   0  0  2  0  0  0  0  0  0  0  0  0
   -2.8210    1.1400    0.3400 C   0  0  0  0  0  0  0  0  0  0  0  0
   -4.1270    1.7950    0.1820 C   0  0  1  0  0  0  0  0  0  0  0  0
   -4.0640    3.0410    1.0720 C   0  0  1  0  0  0  0  0  0  0  0  0
   -5.2980    3.8480    1.0560 C   0  0  0  0  0  0  0  0  0  0  0  0
   -3.7620    2.5620    2.4130 N   0  0  0  0  0  0  0  0  0  0  0  0
   -4.3580    2.1300   -1.2050 N   0  0  1  0  0  0  0  0  0  0  0  0
   -5.7700    2.1740   -1.5540 C   0  0  0  0  0  0  0  0  0  0  0  0
   -3.6450    3.2840   -1.6750 C   0  0  0  0  0  0  0  0  0  0  0  0
   -2.9690   -1.4030   -0.0900 C   0  0  0  0  0  0  0  0  0  0  0  0
   -4.3780   -1.7760   -0.4240 C   0  0  1  0  0  0  0  0  0  0  0  0
   -4.4410   -3.3080   -0.0390 C   0  0  0  0  0  0  0  0  0  0  0  0
   -5.2780   -1.1960    0.4860 N   0  0  0  0  0  0  0  0  0  0  0  0
   -6.6660   -1.2530    0.2830 C   0  0  0  0  0  0  0  0  0  0  0  0
   -7.3220   -2.5960    0.3860 C   0  0  0  0  0  0  0  0  0  0  0  0
   -4.6930   -1.7330   -1.8410 C   0  0  0  0  0  0  0  0  0  0  0  0
   -3.7830   -2.3300   -2.7950 N   0  0  0  0  0  0  0  0  0  0  0  0
   -5.7040   -1.2190   -2.3890 O   0  0  0  0  0  0  0  0  0  0  0  0
  1  2  1  0
  2  3  1  0
  3  4  1  0
  4  5  2  0
  4  6  1  0
  6  7  1  6
  6  8  1  0
  8  9  1  0
  9 10  2  0
  9 18  1  0
 10 11  1  0
 11 12  1  0
 11 15  2  0
 12 13  1  0
 12 14  2  0
 15 16  1  0
 15 17  1  0
 17 18  2  0
 18 19  1  0
 19 20  1  0
 20 21  1  0
 21 22  1  0
 22 23  2  0
 22 24  1  0
 24 25  1  0
 25 26  1  1
 25 34  1  0
 27 26  1  6
 27 28  1  0
 27 31  1  0
 28 29  1  1
 28 30  1  0
 31 32  1  1
 31 33  1  0
 34 35  1  0
 35 36  1  1
 35 37  1  0
 35 40  1  0
 37 38  1  0
 38 39  1  0
 40 41  1  0
 40 42  2  0
M  CHG  2  30   1  31   1
M  END
