
     RDKit          3D

 42 43  0  0  0  0  0  0  0  0999 V2000
   12.4560   -1.1180    0.5410 C   0  0  0  0  0  0  0  0  0  0  0  0
   11.0630   -1.0800    1.0210 C   0  0  0  0  0  0  0  0  0  0  0  0
   10.7960   -1.1040    2.4350 N   0  0  0  0  0  0  0  0  0  0  0  0
   10.0490   -1.0270    0.1800 C   0  0  0  0  0  0  0  0  0  0  0  0
    8.6790   -0.9910    0.7030 C   0  0  0  0  0  0  0  0  0  0  0  0
    7.9000    0.2320    0.3110 C   0  0  0  0  0  0  0  0  0  0  0  0
    6.5810    0.1380    0.8870 N   0  0  0  0  0  0  0  0  0  0  0  0
    5.6420    1.2080    0.6310 C   0  0  0  0  0  0  0  0  0  0  0  0
    6.0090    2.1850   -0.0850 O   0  0  0  0  0  0  0  0  0  0  0  0
    4.3460    1.1950    1.1460 N   0  0  0  0  0  0  0  0  0  0  0  0
    3.3390    2.1990    0.9250 C   0  0  0  0  0  0  0  0  0  0  0  0
    3.0360    2.2620   -0.5650 C   0  0  0  0  0  0  0  0  0  0  0  0
    2.6190    1.2130   -1.1950 O   0  0  0  0  0  0  0  0  0  0  0  0
    1.6100    0.4290   -1.2100 C   0  0  0  0  0  0  0  0  0  0  0  0
    1.1620   -0.3770   -0.0090 C   0  0  2  0  0  0  0  0  0  0  0  0
    0.2500   -1.4460   -0.5030 C   0  0  0  0  0  0  0  0  0  0  0  0
   -1.1840   -0.9910   -0.4410 N   0  0  0  0  0  0  0  0  0  0  0  0
   -1.8780   -1.0360   -1.6270 C   0  0  0  0  0  0  0  0  0  0  0  0
   -1.0780   -1.4820   -2.6470 O   0  0  0  0  0  0  0  0  0  0  0  0
   -3.1930   -0.7440   -2.0700 C   0  0  0  0  0  0  0  0  0  0  0  0
   -4.3600   -0.3960   -1.2150 C   0  0  1  0  0  0  0  0  0  0  0  0
   -4.7320   -1.4430   -0.2370 C   0  0  0  0  0  0  0  0  0  0  0  0
   -5.1310   -2.7090   -1.0150 C   0  0  0  0  0  0  0  0  0  0  0  0
   -5.5310   -3.8110   -0.0730 C   0  0  0  0  0  0  0  0  0  0  0  0
   -6.6630   -3.4550    0.7610 N   0  0  0  0  0  0  0  0  0  0  0  0
   -4.2950    1.0170   -0.8240 C   0  0  0  0  0  0  0  0  0  0  0  0
   -5.3170    1.6570    0.0050 C   0  0  0  0  0  0  0  0  0  0  0  0
   -6.6990    1.8270   -0.4300 C   0  0  1  0  0  0  0  0  0  0  0  0
   -7.4060    2.5810    0.7460 C   0  0  0  0  0  0  0  0  0  0  0  0
   -6.8990    2.6790   -1.5770 N   0  0  0  0  0  0  0  0  0  0  0  0
   -7.5050    0.5580   -0.5020 C   0  0  1  0  0  0  0  0  0  0  0  0
   -8.9540    0.8020   -0.9760 C   0  0  0  0  0  0  0  0  0  0  0  0
   -8.0270   -0.0550   -1.7090 C   0  0  0  0  0  0  0  0  0  0  0  0
   -1.4920   -0.6040    0.8930 C   0  0  0  0  0  0  0  0  0  0  0  0
   -0.4890    0.3520    1.4750 C   0  0  2  0  0  0  0  0  0  0  0  0
   -1.0900    1.7070    1.5410 C   0  0  0  0  0  0  0  0  0  0  0  0
   -0.3260    2.8010    1.0570 N   0  0  0  0  0  0  0  0  0  0  0  0
   -2.2350    1.9570    1.9970 O   0  0  0  0  0  0  0  0  0  0  0  0
    0.7330    0.4160    0.9570 O   0  0  0  0  0  0  0  0  0  0  0  0
   10.2440   -1.0060   -1.2460 C   0  0  0  0  0  0  0  0  0  0  0  0
    9.1610   -0.9530   -2.1710 N   0  0  0  0  0  0  0  0  0  0  0  0
   11.3990   -1.0350   -1.7330 O   0  0  0  0  0  0  0  0  0  0  0  0
  1  2  1  0
  2  3  1  0
  2  4  2  3
  4  5  1  0
  4 40  1  0
  5  6  1  0
  6  7  1  0
  7  8  1  0
  8  9  2  0
  8 10  1  0
 10 11  1  0
 11 12  1  0
 12 13  1  0
 13 14  1  0
 15 14  1  6
 15 16  1  0
 15 39  1  0
 16 17  1  0
 17 18  1  0
 17 34  1  0
 18 19  2  0
 18 20  1  0
 21 20  1  1
 21 22  1  0
 21 26  1  0
 22 23  1  0
 23 24  1  0
 24 25  1  0
 26 27  1  0
 27 28  1  0
 28 29  1  1
 28 30  1  0
 28 31  1  0
 31 32  1  1
 31 33  1  0
 32 33  1  0
 34 35  1  0
 35 36  1  6
 35 39  1  0
 36 37  1  0
 36 38  2  0
 40 41  1  0
 40 42  2  0
M  CHG  2  25   1  30   1
M  END
