
     RDKit          3D

 42 45  0  0  0  0  0  0  0  0999 V2000
   -2.2870   -1.6430   -4.7380 C   0  0  0  0  0  0  0  0  0  0  0  0
   -2.0470   -2.4150   -3.4620 C   0  0  0  0  0  0  0  0  0  0  0  0
   -2.2610   -1.5370   -2.3760 O   0  0  0  0  0  0  0  0  0  0  0  0
   -2.1280   -1.9150   -1.0590 C   0  0  0  0  0  0  0  0  0  0  0  0
   -1.8040   -3.0830   -0.7710 O   0  0  0  0  0  0  0  0  0  0  0  0
   -2.3610   -0.9600    0.0960 C   0  0  1  0  0  0  0  0  0  0  0  0
   -1.4010    0.1700   -0.0470 C   0  0  0  0  0  0  0  0  0  0  0  0
   -0.0320   -0.4390   -0.0230 N   0  0  0  0  0  0  0  0  0  0  0  0
    1.0900    0.3980   -0.1430 C   0  0  0  0  0  0  0  0  0  0  0  0
    0.8080    1.6270   -0.2690 O   0  0  0  0  0  0  0  0  0  0  0  0
    2.5170   -0.0610   -0.1330 C   0  0  0  0  0  0  0  0  0  0  0  0
    3.4640    0.9360   -0.3090 C   0  0  0  0  0  0  0  0  0  0  0  0
    3.4120    2.3390   -0.5040 N   0  0  0  0  0  0  0  0  0  0  0  0
    4.6150    3.1080   -0.6600 C   0  0  0  0  0  0  0  0  0  0  0  0
    5.2020    3.6160    0.4700 C   0  0  0  0  0  0  0  0  0  0  0  0
    4.6460    3.3840    1.6800 F   0  0  0  0  0  0  0  0  0  0  0  0
    6.3590    4.3700    0.4360 C   0  0  0  0  0  0  0  0  0  0  0  0
    6.9630    4.6350   -0.7570 C   0  0  0  0  0  0  0  0  0  0  0  0
    8.2040    5.4500   -0.7500 C   0  0  0  0  0  0  0  0  0  0  0  0
    6.3920    4.1360   -1.9100 C   0  0  0  0  0  0  0  0  0  0  0  0
    5.2170    3.3710   -1.8650 C   0  0  0  0  0  0  0  0  0  0  0  0
    4.6500    2.8770   -2.9870 F   0  0  0  0  0  0  0  0  0  0  0  0
    5.0090    0.0740   -0.2450 S   0  0  0  0  0  0  0  0  0  0  0  0
    4.3420   -1.5250    0.0060 C   0  0  0  0  0  0  0  0  0  0  0  0
    5.1300   -2.7420    0.1480 C   0  0  0  0  0  0  0  0  0  0  0  0
    2.9660   -1.3170    0.0290 C   0  0  0  0  0  0  0  0  0  0  0  0
    2.1550   -2.5560    0.2610 C   0  0  0  0  0  0  0  0  0  0  0  0
    1.7750   -2.9260    1.5460 C   0  0  0  0  0  0  0  0  0  0  0  0
    1.0670   -4.0780    1.7880 C   0  0  0  0  0  0  0  0  0  0  0  0
    0.7140   -4.9020    0.7460 C   0  0  0  0  0  0  0  0  0  0  0  0
    0.0080   -6.0570    0.9520 F   0  0  0  0  0  0  0  0  0  0  0  0
    1.0960   -4.5250   -0.5270 C   0  0  0  0  0  0  0  0  0  0  0  0
    1.8020   -3.3810   -0.7830 C   0  0  0  0  0  0  0  0  0  0  0  0
   -3.8010   -0.6290    0.0750 C   0  0  0  0  0  0  0  0  0  0  0  0
   -4.3450    0.2890    1.0990 C   0  0  2  0  0  0  0  0  0  0  0  0
   -3.7540    1.6720    1.0770 C   0  0  0  0  0  0  0  0  0  0  0  0
   -4.2110   -0.1990    2.3990 O   0  0  0  0  0  0  0  0  0  0  0  0
   -5.3270    0.1250    3.1190 C   0  0  0  0  0  0  0  0  0  0  0  0
   -6.3530    0.4620    2.0940 C   0  0  2  0  0  0  0  0  0  0  0  0
   -6.9730    1.8250    2.3080 C   0  0  0  0  0  0  0  0  0  0  0  0
   -7.4950   -0.5470    2.1370 C   0  0  0  0  0  0  0  0  0  0  0  0
   -5.7170    0.4260    0.8820 O   0  0  0  0  0  0  0  0  0  0  0  0
  1  2  1  0
  2  3  1  0
  3  4  1  0
  4  5  2  0
  4  6  1  0
  6  7  1  6
  6 34  1  0
  7  8  1  0
  8  9  1  0
  9 10  2  0
  9 11  1  0
 11 12  2  0
 11 26  1  0
 12 13  1  0
 12 23  1  0
 13 14  1  0
 14 15  2  0
 14 21  1  0
 15 16  1  0
 15 17  1  0
 17 18  2  0
 18 19  1  0
 18 20  1  0
 20 21  2  0
 21 22  1  0
 23 24  1  0
 24 25  1  0
 24 26  2  0
 26 27  1  0
 27 28  2  0
 27 33  1  0
 28 29  1  0
 29 30  2  0
 30 31  1  0
 30 32  1  0
 32 33  2  0
 34 35  1  0
 35 36  1  1
 35 37  1  0
 35 42  1  0
 37 38  1  0
 38 39  1  0
 39 40  1  1
 39 41  1  0
 39 42  1  0
M  END
