
     RDKit          3D

 22 24  0  0  0  0  0  0  0  0999 V2000
   -6.9850   -1.0840   -0.2590 C   0  0  0  0  0  0  0  0  0  0  0  0
   -6.5730   -0.3220    0.9380 C   0  0  0  0  0  0  0  0  0  0  0  0
   -5.3000   -0.0870    1.1600 C   0  0  0  0  0  0  0  0  0  0  0  0
   -4.2470   -0.5500    0.2670 C   0  0  0  0  0  0  0  0  0  0  0  0
   -2.9970   -0.2530    0.5930 C   0  0  0  0  0  0  0  0  0  0  0  0
   -1.9040   -0.6930   -0.2670 C   0  0  0  0  0  0  0  0  0  0  0  0
   -0.7610   -0.0430   -0.2890 C   0  0  0  0  0  0  0  0  0  0  0  0
    0.4580   -0.3240   -1.0830 C   0  0  0  0  0  0  0  0  0  0  0  0
    1.4530    0.5240   -0.4760 N   0  0  0  0  0  0  0  0  0  0  0  0
    2.7960    0.6430   -0.9220 C   0  0  0  0  0  0  0  0  0  0  0  0
    3.6220    1.4070   -0.3450 O   0  0  0  0  0  0  0  0  0  0  0  0
    3.2370   -0.1070   -2.0420 N   0  0  0  0  0  0  0  0  0  0  0  0
    4.6120    0.0360   -2.4690 C   0  0  0  0  0  0  0  0  0  0  0  0
    5.4760   -0.3980   -1.3210 C   0  0  0  0  0  0  0  0  0  0  0  0
    5.0700   -0.9920   -0.1470 C   0  0  0  0  0  0  0  0  0  0  0  0
    6.2040   -1.2120    0.6090 C   0  0  0  0  0  0  0  0  0  0  0  0
    7.2600   -0.7430   -0.1360 C   0  0  0  0  0  0  0  0  0  0  0  0
    6.7700   -0.2780   -1.2570 O   0  0  0  0  0  0  0  0  0  0  0  0
    0.9160    1.2530    0.6580 C   0  0  0  0  0  0  0  0  0  0  0  0
   -0.5800    1.1370    0.5660 C   0  0  2  0  0  0  0  0  0  0  0  0
   -1.2160    0.8840    1.9150 C   0  0  0  0  0  0  0  0  0  0  0  0
   -2.6590    0.5170    1.8090 C   0  0  0  0  0  0  0  0  0  0  0  0
  1  2  1  0
  2  3  2  3
  3  4  1  0
  4  5  2  3
  5  6  1  0
  5 22  1  0
  6  7  2  0
  7  8  1  0
  7 20  1  0
  8  9  1  0
  9 10  1  0
  9 19  1  0
 10 11  2  0
 10 12  1  0
 12 13  1  0
 13 14  1  0
 14 15  2  0
 14 18  1  0
 15 16  1  0
 16 17  2  0
 17 18  1  0
 20 19  1  1
 20 21  1  0
 21 22  1  0
M  END
