
     RDKit          3D

 22 24  0  0  0  0  0  0  0  0999 V2000
   -4.5640   -2.5570    0.3660 C   0  0  0  0  0  0  0  0  0  0  0  0
   -4.0860   -1.1830    0.0450 C   0  0  0  0  0  0  0  0  0  0  0  0
   -4.8530   -0.2940   -0.6910 C   0  0  0  0  0  0  0  0  0  0  0  0
   -4.3790    0.9890   -0.9760 C   0  0  0  0  0  0  0  0  0  0  0  0
   -5.1830    1.9590   -1.7620 C   0  0  0  0  0  0  0  0  0  0  0  0
   -3.1320    1.3470   -0.5090 C   0  0  0  0  0  0  0  0  0  0  0  0
   -2.3880    0.4500    0.2190 C   0  0  0  0  0  0  0  0  0  0  0  0
   -1.0480    0.8310    0.7230 C   0  0  0  0  0  0  0  0  0  0  0  0
   -0.0280    0.4910   -0.2660 C   0  0  0  0  0  0  0  0  0  0  0  0
   -0.4220   -0.0530   -1.3560 O   0  0  0  0  0  0  0  0  0  0  0  0
    1.3600    0.7260   -0.0930 N   0  0  0  0  0  0  0  0  0  0  0  0
    1.8190    1.3370    1.1240 C   0  0  0  0  0  0  0  0  0  0  0  0
    2.6090    0.3010    1.8780 C   0  0  0  0  0  0  0  0  0  0  0  0
    3.7020   -0.1640    0.9510 C   0  0  0  0  0  0  0  0  0  0  0  0
    4.9510   -0.6750    1.2270 C   0  0  0  0  0  0  0  0  0  0  0  0
    5.5850   -0.9540    0.0380 C   0  0  0  0  0  0  0  0  0  0  0  0
    6.9370   -1.5140   -0.1070 C   0  0  0  0  0  0  0  0  0  0  0  0
    7.6460   -1.7920    0.8910 O   0  0  0  0  0  0  0  0  0  0  0  0
    4.7290   -0.6140   -0.9210 N   0  0  0  0  0  0  0  0  0  0  0  0
    3.5740   -0.1300   -0.4070 C   0  0  0  0  0  0  0  0  0  0  0  0
    2.3280    0.3740   -1.0940 C   0  0  0  0  0  0  0  0  0  0  0  0
   -2.8500   -0.8160    0.5040 C   0  0  0  0  0  0  0  0  0  0  0  0
  1  2  1  0
  2  3  2  0
  2 22  1  0
  3  4  1  0
  4  5  1  0
  4  6  2  0
  6  7  1  0
  7  8  1  0
  7 22  2  0
  8  9  1  0
  9 10  2  0
  9 11  1  0
 11 12  1  0
 11 21  1  0
 12 13  1  0
 13 14  1  0
 14 15  1  0
 14 20  2  0
 15 16  2  0
 16 17  1  0
 16 19  1  0
 17 18  2  0
 19 20  1  0
 20 21  1  0
M  END
