
     RDKit          3D

 18 19  0  0  0  0  0  0  0  0999 V2000
    0.5620    1.3760    1.0070 O   0  0  0  0  0  0  0  0  0  0  0  0
    0.3230    0.3840    0.2900 C   0  0  0  0  0  0  0  0  0  0  0  0
   -1.1190   -0.0230   -0.0030 C   0  0  0  0  0  0  0  0  0  0  0  0
   -2.0420    0.6830    0.5080 C   0  0  0  0  0  0  0  0  0  0  0  0
   -3.4660    0.7350    0.5480 C   0  0  0  0  0  0  0  0  0  0  0  0
   -4.0140    1.7520    1.2830 C   0  0  0  0  0  0  0  0  0  0  0  0
   -5.4010    1.9590    1.4340 N   0  0  0  0  0  0  0  0  0  0  0  0
   -6.2820    1.2100    0.8930 C   0  0  0  0  0  0  0  0  0  0  0  0
   -5.8430    0.1610    0.1350 O   0  0  0  0  0  0  0  0  0  0  0  0
   -4.4410   -0.1180   -0.0680 C   0  0  0  0  0  0  0  0  0  0  0  0
   -4.1520   -1.1350   -0.8040 C   0  0  0  0  0  0  0  0  0  0  0  0
   -2.9810   -1.6650   -1.1880 O   0  0  0  0  0  0  0  0  0  0  0  0
    1.3840   -0.3540   -0.2450 N   0  0  0  0  0  0  0  0  0  0  0  0
    2.7590   -0.0260   -0.0090 C   0  0  1  0  0  0  0  0  0  0  0  0
    3.5530   -1.1520    0.5990 C   0  0  0  0  0  0  0  0  0  0  0  0
    4.9880   -0.6650    0.3480 C   0  0  0  0  0  0  0  0  0  0  0  0
    4.9200    0.1360   -0.9210 C   0  0  0  0  0  0  0  0  0  0  0  0
    3.4690    0.1880   -1.3250 C   0  0  0  0  0  0  0  0  0  0  0  0
  1  2  2  0
  2  3  1  0
  2 13  1  0
  3  4  2  3
  4  5  1  0
  5  6  2  0
  5 10  1  0
  6  7  1  0
  7  8  2  0
  8  9  1  0
  9 10  1  0
 10 11  2  3
 11 12  1  0
 14 13  1  6
 14 15  1  0
 14 18  1  0
 15 16  1  0
 16 17  1  0
 17 18  1  0
M  END
