
     RDKit          3D

 18 18  0  0  0  0  0  0  0  0999 V2000
   -3.8850   -2.7850    2.1210 C   0  0  0  0  0  0  0  0  0  0  0  0
   -3.2600   -1.9200    1.3590 C   0  0  0  0  0  0  0  0  0  0  0  0
   -1.9300   -1.4020    1.6360 C   0  0  0  0  0  0  0  0  0  0  0  0
   -1.4740   -0.4650    0.8490 C   0  0  0  0  0  0  0  0  0  0  0  0
   -0.1640    0.0380    1.1300 N   0  0  0  0  0  0  0  0  0  0  0  0
    0.8410   -0.1250    0.1300 C   0  0  0  0  0  0  0  0  0  0  0  0
    0.5630   -0.6940   -0.9500 O   0  0  0  0  0  0  0  0  0  0  0  0
    2.2110    0.3710    0.3540 C   0  0  0  0  0  0  0  0  0  0  0  0
    3.0730    0.0770   -0.8400 C   0  0  0  0  0  0  0  0  0  0  0  0
    4.4270    0.6010   -0.5440 C   0  0  0  0  0  0  0  0  0  0  0  0
    4.6410    1.8230   -0.6710 O   0  0  0  0  0  0  0  0  0  0  0  0
    5.4430   -0.2380   -0.1320 O   0  0  0  0  0  0  0  0  0  0  0  0
    6.7640    0.2340    0.1630 C   0  0  0  0  0  0  0  0  0  0  0  0
   -2.1900    0.1310   -0.2990 C   0  0  2  0  0  0  0  0  0  0  0  0
   -1.8200    1.5990   -0.3340 C   0  0  0  0  0  0  0  0  0  0  0  0
   -2.4920    2.3290   -1.4700 C   0  0  0  0  0  0  0  0  0  0  0  0
   -3.5950   -0.0700   -0.1650 N   0  0  0  0  0  0  0  0  0  0  0  0
   -3.9320   -1.4240    0.1290 C   0  0  0  0  0  0  0  0  0  0  0  0
  1  2  2  0
  2  3  1  0
  2 18  1  0
  3  4  2  0
  4  5  1  0
  4 14  1  0
  5  6  1  0
  6  7  2  0
  6  8  1  0
  8  9  1  0
  9 10  1  0
 10 11  2  0
 10 12  1  0
 12 13  1  0
 14 15  1  1
 14 17  1  0
 15 16  1  0
 17 18  1  0
M  END
