
     RDKit          3D

 18 18  0  0  0  0  0  0  0  0999 V2000
   -0.8050    5.1450   -0.6330 C   0  0  0  0  0  0  0  0  0  0  0  0
   -1.4290    3.8180   -0.4810 C   0  0  0  0  0  0  0  0  0  0  0  0
   -0.6660    2.7150   -0.3440 C   0  0  0  0  0  0  0  0  0  0  0  0
   -1.2840    1.4300   -0.1960 C   0  0  0  0  0  0  0  0  0  0  0  0
   -0.7020    0.2410   -0.0510 C   0  0  0  0  0  0  0  0  0  0  0  0
   -1.5940   -0.9030    0.0780 C   0  0  0  0  0  0  0  0  0  0  0  0
   -1.1380   -2.0900    0.2220 O   0  0  0  0  0  0  0  0  0  0  0  0
   -3.0090   -0.8100    0.0560 N   0  0  0  0  0  0  0  0  0  0  0  0
   -3.8390   -2.0190    0.1940 C   0  0  0  0  0  0  0  0  0  0  0  0
   -3.5720   -3.0070   -0.9000 C   0  0  0  0  0  0  0  0  0  0  0  0
    0.7430    0.1180   -0.0260 C   0  0  0  0  0  0  0  0  0  0  0  0
    1.4540    1.1460   -0.1430 O   0  0  0  0  0  0  0  0  0  0  0  0
    1.4540   -1.0840    0.1220 N   0  0  0  0  0  0  0  0  0  0  0  0
    2.8960   -1.1820    0.1440 C   0  0  0  0  0  0  0  0  0  0  0  0
    3.8080   -0.2570    0.0410 C   0  0  0  0  0  0  0  0  0  0  0  0
    5.1900   -0.8780    0.1250 C   0  0  0  0  0  0  0  0  0  0  0  0
    4.9270   -2.2100   -0.1830 O   0  0  0  0  0  0  0  0  0  0  0  0
    3.6550   -2.4760    0.3040 C   0  0  0  0  0  0  0  0  0  0  0  0
  1  2  1  0
  2  3  2  3
  3  4  1  0
  4  5  2  3
  5  6  1  0
  5 11  1  0
  6  7  2  0
  6  8  1  0
  8  9  1  0
  9 10  1  0
 11 12  2  0
 11 13  1  0
 13 14  1  0
 14 15  2  0
 14 18  1  0
 15 16  1  0
 16 17  1  0
 17 18  1  0
M  END
