
     RDKit          3D

 18 18  0  0  0  0  0  0  0  0999 V2000
   -3.8940   -0.6730   -0.7730 C   0  0  0  0  0  0  0  0  0  0  0  0
   -4.0950    0.2890    0.3510 C   0  0  0  0  0  0  0  0  0  0  0  0
   -3.0630    1.2830    0.4940 N   0  0  0  0  0  0  0  0  0  0  0  0
   -1.7190    0.7800    0.8940 C   0  0  0  0  0  0  0  0  0  0  0  0
   -1.6790    0.2390    2.2620 C   0  0  0  0  0  0  0  0  0  0  0  0
   -0.8060    0.8750   -0.0380 C   0  0  0  0  0  0  0  0  0  0  0  0
   -1.2020    1.4570   -1.3570 C   0  0  0  0  0  0  0  0  0  0  0  0
   -2.3430    1.8960   -1.5680 O   0  0  0  0  0  0  0  0  0  0  0  0
   -0.1940    1.4940   -2.3950 C   0  0  0  0  0  0  0  0  0  0  0  0
    0.9990    1.0460   -2.2090 C   0  0  0  0  0  0  0  0  0  0  0  0
    1.4610    0.4470   -0.9090 C   0  0  0  0  0  0  0  0  0  0  0  0
    2.6990   -0.1840   -1.0290 N   0  0  0  0  0  0  0  0  0  0  0  0
    3.4200   -1.1040   -0.2600 C   0  0  0  0  0  0  0  0  0  0  0  0
    2.9770   -1.5790    0.7640 O   0  0  0  0  0  0  0  0  0  0  0  0
    4.7220   -1.5230   -0.6620 O   0  0  0  0  0  0  0  0  0  0  0  0
    5.4110   -2.4640    0.1600 C   0  0  0  0  0  0  0  0  0  0  0  0
    0.5500    0.4150    0.0570 C   0  0  0  0  0  0  0  0  0  0  0  0
    1.0820    0.1160    1.4130 C   0  0  0  0  0  0  0  0  0  0  0  0
  1  2  1  0
  2  3  1  0
  3  4  1  0
  4  5  1  0
  4  6  2  3
  6  7  1  0
  6 17  1  0
  7  8  2  0
  7  9  1  0
  9 10  2  0
 10 11  1  0
 11 12  1  0
 11 17  2  0
 12 13  1  0
 13 14  2  0
 13 15  1  0
 15 16  1  0
 17 18  1  0
M  END
