
     RDKit          3D

 18 18  0  0  0  0  0  0  0  0999 V2000
    7.8020    0.9060    0.9480 C   0  0  0  0  0  0  0  0  0  0  0  0
    6.7490    0.1230    0.4930 O   0  0  0  0  0  0  0  0  0  0  0  0
    5.6050    0.7340    0.9390 C   0  0  0  0  0  0  0  0  0  0  0  0
    4.4100    0.0290    0.5120 C   0  0  0  0  0  0  0  0  0  0  0  0
    3.3810   -0.5940    0.1500 C   0  0  0  0  0  0  0  0  0  0  0  0
    2.2040   -1.3090   -0.2410 C   0  0  0  0  0  0  0  0  0  0  0  0
    1.7350   -2.2710   -0.4490 O   0  0  0  0  0  0  0  0  0  0  0  0
    1.1180   -0.1910   -0.3930 N   0  0  0  0  0  0  0  0  0  0  0  0
   -0.1990   -0.2640   -0.5740 N   0  0  0  0  0  0  0  0  0  0  0  0
   -0.8510    0.6860   -1.4170 C   0  0  0  0  0  0  0  0  0  0  0  0
   -0.1050    1.4430   -2.0770 O   0  0  0  0  0  0  0  0  0  0  0  0
   -2.3200    0.7500   -1.4490 C   0  0  0  0  0  0  0  0  0  0  0  0
   -3.1100    0.0610   -0.8050 C   0  0  0  0  0  0  0  0  0  0  0  0
   -4.3390   -0.3730   -0.3660 C   0  0  0  0  0  0  0  0  0  0  0  0
   -4.6460   -1.3570    0.5290 C   0  0  0  0  0  0  0  0  0  0  0  0
   -6.1400   -1.4320    0.6650 C   0  0  0  0  0  0  0  0  0  0  0  0
   -6.6630   -0.3910   -0.2490 C   0  0  0  0  0  0  0  0  0  0  0  0
   -5.6410    0.2020   -0.8270 C   0  0  0  0  0  0  0  0  0  0  0  0
  1  2  1  0
  2  3  1  0
  3  4  1  0
  4  5  3  0
  5  6  1  0
  6  7  2  0
  6  8  1  0
  8  9  1  0
  9 10  1  0
 10 11  2  0
 10 12  1  0
 12 13  2  3
 13 14  1  0
 14 15  2  0
 14 18  1  0
 15 16  1  0
 16 17  1  0
 17 18  2  0
M  END
