
     RDKit          3D

 23 25  0  0  0  0  0  0  0  0999 V2000
   -2.6350   -2.5240    2.9180 C   0  0  0  0  0  0  0  0  0  0  0  0
   -1.9450   -1.3570    2.3260 C   0  0  0  0  0  0  0  0  0  0  0  0
   -2.6940   -0.5960    1.4980 C   0  0  0  0  0  0  0  0  0  0  0  0
   -2.2520    0.5990    0.7970 C   0  0  0  0  0  0  0  0  0  0  0  0
   -3.3280    1.5350    0.3020 C   0  0  0  0  0  0  0  0  0  0  0  0
   -4.2120    0.8990   -0.6210 N   0  0  0  0  0  0  0  0  0  0  0  0
   -4.0370    0.8510   -1.9520 C   0  0  0  0  0  0  0  0  0  0  0  0
   -5.0870    0.1600   -2.5400 C   0  0  0  0  0  0  0  0  0  0  0  0
   -5.9210   -0.2200   -1.5230 C   0  0  0  0  0  0  0  0  0  0  0  0
   -5.3570    0.2490   -0.3560 C   0  0  0  0  0  0  0  0  0  0  0  0
   -1.0190    0.9520    0.5490 C   0  0  0  0  0  0  0  0  0  0  0  0
    0.3160    0.2870    0.8800 C   0  0  0  0  0  0  0  0  0  0  0  0
    1.3960    0.6630    0.0710 C   0  0  0  0  0  0  0  0  0  0  0  0
    0.8710    1.4440   -0.9550 O   0  0  0  0  0  0  0  0  0  0  0  0
    2.7330    0.6160   -0.1660 N   0  0  0  0  0  0  0  0  0  0  0  0
    3.8750    0.1740    0.5880 C   0  0  0  0  0  0  0  0  0  0  0  0
    5.1510    0.8070   -0.0670 C   0  0  0  0  0  0  0  0  0  0  0  0
    5.3820    0.0060   -1.3240 C   0  0  0  0  0  0  0  0  0  0  0  0
    4.1410    0.1710   -2.1600 C   0  0  0  0  0  0  0  0  0  0  0  0
    3.1470    1.1010   -1.5580 C   0  0  0  0  0  0  0  0  0  0  0  0
    0.4370   -0.6290    1.8180 C   0  0  0  0  0  0  0  0  0  0  0  0
    1.7530   -1.2440    2.0870 C   0  0  0  0  0  0  0  0  0  0  0  0
   -0.6060   -1.1190    2.6450 O   0  0  0  0  0  0  0  0  0  0  0  0
  1  2  1  0
  2  3  2  0
  2 23  1  0
  3  4  1  0
  4  5  1  0
  4 11  2  0
  5  6  1  0
  6  7  1  0
  6 10  1  0
  7  8  2  0
  8  9  1  0
  9 10  2  0
 11 12  1  0
 12 13  1  0
 12 21  2  0
 13 14  2  0
 13 15  1  0
 15 16  1  0
 15 20  1  0
 16 17  1  0
 17 18  1  0
 18 19  1  0
 19 20  1  0
 21 22  1  0
 21 23  1  0
M  END
