
     RDKit          3D

 23 24  0  0  0  0  0  0  0  0999 V2000
    7.2290    2.0790    0.5850 C   0  0  0  0  0  0  0  0  0  0  0  0
    6.6940    0.7170    0.8470 C   0  0  0  0  0  0  0  0  0  0  0  0
    6.0540    0.0530   -0.1050 C   0  0  0  0  0  0  0  0  0  0  0  0
    5.8850    0.6890   -1.4260 C   0  0  0  0  0  0  0  0  0  0  0  0
    5.5330   -1.3050    0.2050 C   0  0  0  0  0  0  0  0  0  0  0  0
    3.9850   -1.2670   -0.0030 C   0  0  0  0  0  0  0  0  0  0  0  0
    3.4890   -0.2320    0.9530 C   0  0  0  0  0  0  0  0  0  0  0  0
    2.0510   -0.0270    0.8940 C   0  0  0  0  0  0  0  0  0  0  0  0
    1.2070   -0.5930    0.0880 C   0  0  0  0  0  0  0  0  0  0  0  0
    1.2630   -1.5700   -1.0010 C   0  0  0  0  0  0  0  0  0  0  0  0
   -0.1000   -1.7280   -1.4050 O   0  0  0  0  0  0  0  0  0  0  0  0
   -0.8360   -1.5210   -0.2880 N   0  0  0  0  0  0  0  0  0  0  0  0
   -2.2050   -1.3040   -0.7000 C   0  0  0  0  0  0  0  0  0  0  0  0
   -3.0420   -1.0110    0.4840 C   0  0  0  0  0  0  0  0  0  0  0  0
   -2.5780   -0.9840    1.6700 O   0  0  0  0  0  0  0  0  0  0  0  0
   -4.4280   -0.7480    0.2910 N   0  0  0  0  0  0  0  0  0  0  0  0
   -5.1010   -0.7390   -0.9860 C   0  0  0  0  0  0  0  0  0  0  0  0
   -6.3710    0.0570   -0.7900 C   0  0  0  0  0  0  0  0  0  0  0  0
   -6.2570    0.5370    0.5980 C   0  0  0  0  0  0  0  0  0  0  0  0
   -6.7930    1.6260    1.0910 C   0  0  0  0  0  0  0  0  0  0  0  0
   -7.6250    2.5700    0.2970 C   0  0  0  0  0  0  0  0  0  0  0  0
   -5.4250   -0.4370    1.3280 C   0  0  0  0  0  0  0  0  0  0  0  0
   -0.2930   -0.2590    0.1580 C   0  0  0  0  0  0  0  0  0  0  0  0
  1  2  1  0
  2  3  2  3
  3  4  1  0
  3  5  1  0
  5  6  1  0
  6  7  1  0
  7  8  1  0
  8  9  2  3
  9 10  1  0
  9 23  1  0
 10 11  1  0
 11 12  1  0
 12 13  1  0
 12 23  1  0
 13 14  1  0
 14 15  2  0
 14 16  1  0
 16 17  1  0
 16 22  1  0
 17 18  1  0
 18 19  1  0
 19 20  2  3
 19 22  1  0
 20 21  1  0
M  END
