
     RDKit          3D

 23 25  0  0  0  0  0  0  0  0999 V2000
    4.9100    0.9040    2.6620 C   0  0  0  0  0  0  0  0  0  0  0  0
    5.6480    0.4740    1.6930 C   0  0  0  0  0  0  0  0  0  0  0  0
    5.1850    0.0470    0.4140 C   0  0  0  0  0  0  0  0  0  0  0  0
    6.0890   -0.3750   -0.4890 C   0  0  0  0  0  0  0  0  0  0  0  0
    3.8050    0.0360    0.0170 C   0  0  0  0  0  0  0  0  0  0  0  0
    2.8740    0.4070    0.7750 N   0  0  0  0  0  0  0  0  0  0  0  0
    1.4930    0.4170    0.4370 C   0  0  0  0  0  0  0  0  0  0  0  0
    0.8960    1.5410   -0.0990 C   0  0  0  0  0  0  0  0  0  0  0  0
   -0.4420    1.5810   -0.4360 C   0  0  0  0  0  0  0  0  0  0  0  0
   -1.2420    0.4650   -0.2410 C   0  0  0  0  0  0  0  0  0  0  0  0
   -2.5920    0.4510   -0.5620 O   0  0  0  0  0  0  0  0  0  0  0  0
   -3.1460    1.6270   -1.1060 C   0  0  0  0  0  0  0  0  0  0  0  0
   -4.5870    1.4850   -1.4050 C   0  0  0  0  0  0  0  0  0  0  0  0
   -5.3880    0.4650   -1.2430 C   0  0  0  0  0  0  0  0  0  0  0  0
   -6.7510    0.8300   -1.7000 C   0  0  0  0  0  0  0  0  0  0  0  0
   -6.5970    2.1850   -2.1350 N   0  0  0  0  0  0  0  0  0  0  0  0
   -5.3900    2.5610   -1.9730 C   0  0  0  0  0  0  0  0  0  0  0  0
   -0.6660   -0.6850    0.2990 C   0  0  0  0  0  0  0  0  0  0  0  0
    0.6760   -0.6840    0.6230 C   0  0  0  0  0  0  0  0  0  0  0  0
    1.2470   -1.9190    1.1910 C   0  0  0  0  0  0  0  0  0  0  0  0
    0.6570   -3.0880    0.4360 C   0  0  0  0  0  0  0  0  0  0  0  0
   -0.8410   -3.1230    0.5040 C   0  0  0  0  0  0  0  0  0  0  0  0
   -1.4260   -1.8360    0.5160 O   0  0  0  0  0  0  0  0  0  0  0  0
  1  2  2  0
  2  3  1  0
  3  4  2  0
  3  5  1  0
  5  6  2  3
  6  7  1  0
  7  8  2  0
  7 19  1  0
  8  9  1  0
  9 10  2  0
 10 11  1  0
 10 18  1  0
 11 12  1  0
 12 13  1  0
 13 14  2  0
 13 17  1  0
 14 15  1  0
 15 16  1  0
 16 17  2  0
 18 19  2  0
 18 23  1  0
 19 20  1  0
 20 21  1  0
 21 22  1  0
 22 23  1  0
M  END
