
     RDKit          3D

 23 25  0  0  0  0  0  0  0  0999 V2000
    6.3070   -1.1570    1.5180 C   0  0  0  0  0  0  0  0  0  0  0  0
    6.1550   -0.1390    0.4430 C   0  0  0  0  0  0  0  0  0  0  0  0
    6.7220   -0.1790   -0.7470 C   0  0  0  0  0  0  0  0  0  0  0  0
    6.2930    1.0140   -1.4600 C   0  0  0  0  0  0  0  0  0  0  0  0
    5.5120    1.7270   -0.7340 N   0  0  0  0  0  0  0  0  0  0  0  0
    5.3460    1.0780    0.5300 C   0  0  1  0  0  0  0  0  0  0  0  0
    3.9110    0.6530    0.6510 C   0  0  0  0  0  0  0  0  0  0  0  0
    3.4970    0.0580    1.6730 O   0  0  0  0  0  0  0  0  0  0  0  0
    3.0070    0.9100   -0.3650 O   0  0  0  0  0  0  0  0  0  0  0  0
    1.6820    0.4930   -0.2010 C   0  0  0  0  0  0  0  0  0  0  0  0
    0.8070    1.3680    0.3840 C   0  0  0  0  0  0  0  0  0  0  0  0
   -0.5070    0.9770    0.5550 C   0  0  0  0  0  0  0  0  0  0  0  0
   -0.9050   -0.2720    0.1380 C   0  0  0  0  0  0  0  0  0  0  0  0
   -2.2540   -0.6490    0.3240 N   0  0  0  0  0  0  0  0  0  0  0  0
   -3.1810   -0.0250   -0.3110 C   0  0  0  0  0  0  0  0  0  0  0  0
   -2.8220    1.0690   -1.2180 C   0  0  0  0  0  0  0  0  0  0  0  0
   -4.5880   -0.4200   -0.1160 C   0  0  0  0  0  0  0  0  0  0  0  0
   -4.9970   -1.3920    0.6810 C   0  0  0  0  0  0  0  0  0  0  0  0
   -6.4850   -1.4980    0.6180 C   0  0  0  0  0  0  0  0  0  0  0  0
   -6.8630   -0.0880    0.2130 C   0  0  0  0  0  0  0  0  0  0  0  0
   -5.7450    0.2240   -0.7910 C   0  0  0  0  0  0  0  0  0  0  0  0
   -0.0080   -1.1340   -0.4480 C   0  0  0  0  0  0  0  0  0  0  0  0
    1.3060   -0.7510   -0.6220 C   0  0  0  0  0  0  0  0  0  0  0  0
  1  2  1  0
  2  3  2  0
  2  6  1  0
  3  4  1  0
  4  5  2  0
  5  6  1  0
  6  7  1  6
  7  8  2  0
  7  9  1  0
  9 10  1  0
 10 11  2  0
 10 23  1  0
 11 12  1  0
 12 13  2  0
 13 14  1  0
 13 22  1  0
 14 15  2  3
 15 16  1  0
 15 17  1  0
 17 18  2  0
 17 21  1  0
 18 19  1  0
 19 20  1  0
 20 21  1  0
 22 23  2  0
M  END
