
     RDKit          3D

 23 25  0  0  0  0  0  0  0  0999 V2000
    6.1880    2.2640    1.3940 C   0  0  0  0  0  0  0  0  0  0  0  0
    6.4570    0.7980    1.1130 C   0  0  0  0  0  0  0  0  0  0  0  0
    5.2230    0.1390    0.9890 O   0  0  0  0  0  0  0  0  0  0  0  0
    4.3360    0.5330    0.0060 C   0  0  0  0  0  0  0  0  0  0  0  0
    4.6580    1.4740   -0.7530 O   0  0  0  0  0  0  0  0  0  0  0  0
    3.0720   -0.1270   -0.1380 C   0  0  0  0  0  0  0  0  0  0  0  0
    2.2020    0.2850   -1.1280 C   0  0  0  0  0  0  0  0  0  0  0  0
    0.9960   -0.3320   -1.2780 C   0  0  0  0  0  0  0  0  0  0  0  0
    0.6520   -1.3830   -0.4200 C   0  0  0  0  0  0  0  0  0  0  0  0
    1.5190   -1.7910    0.5630 C   0  0  0  0  0  0  0  0  0  0  0  0
    0.9030   -2.8300    1.2240 C   0  0  0  0  0  0  0  0  0  0  0  0
   -0.3100   -3.0210    0.6280 C   0  0  0  0  0  0  0  0  0  0  0  0
   -0.4510   -2.1390   -0.3660 N   0  0  0  0  0  0  0  0  0  0  0  0
   -1.5970   -1.9860   -1.2560 C   0  0  0  0  0  0  0  0  0  0  0  0
   -2.5400   -1.1140   -0.6400 N   0  0  0  0  0  0  0  0  0  0  0  0
   -3.7050   -0.9190   -1.4570 C   0  0  0  0  0  0  0  0  0  0  0  0
   -4.1050    0.5270   -1.5770 C   0  0  0  0  0  0  0  0  0  0  0  0
   -4.0950    1.3070   -0.3180 C   0  0  0  0  0  0  0  0  0  0  0  0
   -3.0650    0.8870    0.6660 C   0  0  2  0  0  0  0  0  0  0  0  0
   -3.7180    0.1200    1.7930 C   0  0  0  0  0  0  0  0  0  0  0  0
   -2.3520    2.0690    1.2770 C   0  0  0  0  0  0  0  0  0  0  0  0
   -2.0200    0.0550   -0.0480 C   0  0  0  0  0  0  0  0  0  0  0  0
    2.7460   -1.1580    0.7110 C   0  0  0  0  0  0  0  0  0  0  0  0
  1  2  1  0
  2  3  1  0
  3  4  1  0
  4  5  2  0
  4  6  1  0
  6  7  2  0
  6 23  1  0
  7  8  1  0
  8  9  2  0
  9 10  1  0
  9 13  1  0
 10 11  1  0
 10 23  2  0
 11 12  2  0
 12 13  1  0
 13 14  1  0
 14 15  1  0
 15 16  1  0
 15 22  1  0
 16 17  1  0
 17 18  1  0
 18 19  1  0
 19 20  1  1
 19 21  1  0
 19 22  1  0
M  END
