
     RDKit          3D

 23 25  0  0  0  0  0  0  0  0999 V2000
   -8.9370    2.3530   -1.3800 N   0  0  0  0  0  0  0  0  0  0  0  0
   -7.9480    1.7860   -1.3590 C   0  0  0  0  0  0  0  0  0  0  0  0
   -6.7180    1.0570   -1.3150 C   0  0  0  0  0  0  0  0  0  0  0  0
   -6.5440    0.0140   -2.1830 C   0  0  0  0  0  0  0  0  0  0  0  0
   -5.3650   -0.6910   -2.1480 C   0  0  0  0  0  0  0  0  0  0  0  0
   -4.3030   -0.4040   -1.2600 C   0  0  0  0  0  0  0  0  0  0  0  0
   -3.1520   -1.2490   -1.3010 C   0  0  0  0  0  0  0  0  0  0  0  0
   -1.9890   -1.1690   -0.7720 C   0  0  0  0  0  0  0  0  0  0  0  0
   -1.3940   -0.1930    0.0630 C   0  0  0  0  0  0  0  0  0  0  0  0
   -0.1110   -0.3950    0.4960 C   0  0  0  0  0  0  0  0  0  0  0  0
    0.4530    0.6520    1.3580 C   0  0  0  0  0  0  0  0  0  0  0  0
    1.9490    0.7450    1.2780 C   0  0  0  0  0  0  0  0  0  0  0  0
    2.6070   -0.4820    1.0690 N   0  0  0  0  0  0  0  0  0  0  0  0
    3.6770   -0.4670    0.1370 C   0  0  0  0  0  0  0  0  0  0  0  0
    4.8110    0.3370    0.7130 C   0  0  1  0  0  0  0  0  0  0  0  0
    5.9860    0.5030   -0.2010 C   0  0  0  0  0  0  0  0  0  0  0  0
    6.5840    1.6760    0.3090 O   0  0  0  0  0  0  0  0  0  0  0  0
    5.7670    2.1660    1.2990 C   0  0  0  0  0  0  0  0  0  0  0  0
    4.4810    1.6610    0.9860 O   0  0  0  0  0  0  0  0  0  0  0  0
    1.8340   -1.6560    1.1430 C   0  0  0  0  0  0  0  0  0  0  0  0
    0.6810   -1.5680    0.1540 C   0  0  0  0  0  0  0  0  0  0  0  0
   -4.5340    0.6480   -0.4160 C   0  0  0  0  0  0  0  0  0  0  0  0
   -5.7270    1.3770   -0.4380 C   0  0  0  0  0  0  0  0  0  0  0  0
  1  2  3  0
  2  3  1  0
  3  4  2  0
  3 23  1  0
  4  5  1  0
  5  6  2  0
  6  7  1  0
  6 22  1  0
  7  8  2  3
  8  9  1  0
  9 10  2  3
 10 11  1  0
 10 21  1  0
 11 12  1  0
 12 13  1  0
 13 14  1  0
 13 20  1  0
 15 14  1  6
 15 16  1  0
 15 19  1  0
 16 17  1  0
 17 18  1  0
 18 19  1  0
 20 21  1  0
 22 23  2  0
M  END
