
     RDKit          3D

 28 30  0  0  0  0  0  0  0  0999 V2000
   -2.6310    2.5450    1.2960 C   0  0  0  0  0  0  0  0  0  0  0  0
   -2.6780    1.2770    1.0340 C   0  0  0  0  0  0  0  0  0  0  0  0
   -3.9250    0.5040    1.2360 C   0  0  0  0  0  0  0  0  0  0  0  0
   -4.9090    1.1910    1.6880 O   0  0  0  0  0  0  0  0  0  0  0  0
   -4.0600   -0.9270    0.9530 C   0  0  0  0  0  0  0  0  0  0  0  0
   -2.8280   -1.4970    0.4750 N   0  0  0  0  0  0  0  0  0  0  0  0
   -2.8200   -2.8350    0.1930 C   0  0  0  0  0  0  0  0  0  0  0  0
   -3.8430   -3.5340    0.3450 O   0  0  0  0  0  0  0  0  0  0  0  0
   -1.6980   -3.4180   -0.2550 N   0  0  0  0  0  0  0  0  0  0  0  0
   -0.5540   -2.6860   -0.4360 C   0  0  0  0  0  0  0  0  0  0  0  0
    0.4750   -3.2410   -0.8480 O   0  0  0  0  0  0  0  0  0  0  0  0
   -0.5390   -1.3320   -0.1590 C   0  0  0  0  0  0  0  0  0  0  0  0
   -1.7120   -0.7950    0.2960 C   0  0  0  0  0  0  0  0  0  0  0  0
   -1.5160    0.5410    0.5290 C   0  0  0  0  0  0  0  0  0  0  0  0
   -0.2050    0.8430    0.2110 C   0  0  0  0  0  0  0  0  0  0  0  0
    0.3780    2.1990    0.2560 C   0  0  0  0  0  0  0  0  0  0  0  0
   -0.1500    3.0750   -0.8960 C   0  0  0  0  0  0  0  0  0  0  0  0
    0.3770   -0.3230   -0.2070 N   0  0  0  0  0  0  0  0  0  0  0  0
    1.6740   -0.4820   -0.7510 C   0  0  0  0  0  0  0  0  0  0  0  0
    2.9150   -0.2100   -0.0590 C   0  0  0  0  0  0  0  0  0  0  0  0
    3.0990    0.2340    1.1600 C   0  0  0  0  0  0  0  0  0  0  0  0
    4.5150    0.4380    1.6410 C   0  0  0  0  0  0  0  0  0  0  0  0
    2.1420    0.5030    2.0700 F   0  0  0  0  0  0  0  0  0  0  0  0
    1.7110   -0.9900   -2.0010 C   0  0  0  0  0  0  0  0  0  0  0  0
    2.9420   -1.2380   -2.7500 C   0  0  2  0  0  0  0  0  0  0  0  0
    2.6000   -1.7720   -3.9980 F   0  0  0  0  0  0  0  0  0  0  0  0
    3.8120   -2.1230   -2.1620 F   0  0  0  0  0  0  0  0  0  0  0  0
    3.8620    0.2480   -3.1130 Cl  0  0  0  0  0  0  0  0  0  0  0  0
  1  2  2  0
  2  3  1  0
  2 14  1  0
  3  4  2  0
  3  5  1  0
  5  6  1  0
  6  7  1  0
  6 13  1  0
  7  8  2  0
  7  9  1  0
  9 10  1  0
 10 11  2  0
 10 12  1  0
 12 13  2  0
 12 18  1  0
 13 14  1  0
 14 15  2  0
 15 16  1  0
 15 18  1  0
 16 17  1  0
 18 19  1  0
 19 20  1  0
 19 24  2  3
 20 21  2  3
 21 22  1  0
 21 23  1  0
 24 25  1  0
 25 26  1  6
 25 27  1  0
 25 28  1  0
M  END
