
     RDKit          3D

 28 30  0  0  0  0  0  0  0  0999 V2000
    3.6720    0.9540   -1.0650 O   0  0  0  0  0  0  0  0  0  0  0  0
    2.8340    0.3200   -0.3960 C   0  0  0  0  0  0  0  0  0  0  0  0
    1.4620    0.4570   -0.6890 N   0  0  0  0  0  0  0  0  0  0  0  0
    0.8710    1.2550   -1.6860 C   0  0  0  0  0  0  0  0  0  0  0  0
    1.5720    2.0560   -2.5650 C   0  0  0  0  0  0  0  0  0  0  0  0
    0.8620    2.8090   -3.5210 C   0  0  0  0  0  0  0  0  0  0  0  0
    1.7260    3.8230   -4.6360 Cl  0  0  0  0  0  0  0  0  0  0  0  0
   -0.5100    2.7620   -3.5970 C   0  0  0  0  0  0  0  0  0  0  0  0
   -1.2150    1.9620   -2.7200 C   0  0  0  0  0  0  0  0  0  0  0  0
   -0.5040    1.2270   -1.7850 C   0  0  0  0  0  0  0  0  0  0  0  0
   -1.2230    0.4330   -0.9160 O   0  0  0  0  0  0  0  0  0  0  0  0
   -1.6940    0.8830    0.3220 C   0  0  0  0  0  0  0  0  0  0  0  0
   -1.4170    2.0790    0.5990 O   0  0  0  0  0  0  0  0  0  0  0  0
   -2.4580    0.0610    1.2600 C   0  0  1  0  0  0  0  0  0  0  0  0
   -2.7930    0.8860    2.4870 C   0  0  1  0  0  0  0  0  0  0  0  0
   -1.6630    1.3430    3.1340 F   0  0  0  0  0  0  0  0  0  0  0  0
   -3.5640    1.9800    2.1720 F   0  0  0  0  0  0  0  0  0  0  0  0
   -3.5040    0.1280    3.4150 F   0  0  0  0  0  0  0  0  0  0  0  0
   -3.7770   -0.4190    0.6910 C   0  0  0  0  0  0  0  0  0  0  0  0
   -3.3440   -1.6030   -0.1420 C   0  0  0  0  0  0  0  0  0  0  0  0
   -2.0420   -2.0910    0.4150 C   0  0  0  0  0  0  0  0  0  0  0  0
   -1.7860   -1.2300    1.6190 C   0  0  0  0  0  0  0  0  0  0  0  0
    3.3180   -0.5580    0.6870 C   0  0  0  0  0  0  0  0  0  0  0  0
    4.6480   -0.7070    0.9890 C   0  0  0  0  0  0  0  0  0  0  0  0
    5.0900   -1.5350    2.0080 C   0  0  0  0  0  0  0  0  0  0  0  0
    4.1220   -2.2140    2.7180 C   0  0  0  0  0  0  0  0  0  0  0  0
    2.8370   -2.0590    2.4130 N   0  0  0  0  0  0  0  0  0  0  0  0
    2.4340   -1.2490    1.4180 N   0  0  0  0  0  0  0  0  0  0  0  0
  1  2  2  0
  2  3  1  0
  2 23  1  0
  3  4  1  0
  4  5  2  0
  4 10  1  0
  5  6  1  0
  6  7  1  0
  6  8  2  0
  8  9  1  0
  9 10  2  0
 10 11  1  0
 11 12  1  0
 12 13  2  0
 14 12  1  6
 14 15  1  0
 14 19  1  0
 14 22  1  0
 15 16  1  1
 15 17  1  0
 15 18  1  0
 19 20  1  0
 20 21  1  0
 21 22  1  0
 23 24  2  0
 23 28  1  0
 24 25  1  0
 25 26  2  0
 26 27  1  0
 27 28  2  0
M  CHG  1  27   1
M  END
