
     RDKit          3D

 11 11  0  0  0  0  0  0  0  0999 V2000
    2.4600    1.8580    0.6990 O   0  0  0  0  0  0  0  0  0  0  0  0
    1.5680    1.3440   -0.2340 C   0  0  0  0  0  0  0  0  0  0  0  0
    0.6080    0.3930    0.4460 C   0  0  2  0  0  0  0  0  0  0  0  0
    1.3740   -0.7310    1.0690 C   0  0  0  0  0  0  0  0  0  0  0  0
    1.0320   -1.9030    0.4420 O   0  0  0  0  0  0  0  0  0  0  0  0
   -0.1920   -1.7140   -0.1940 C   0  0  2  0  0  0  0  0  0  0  0  0
   -0.2340   -2.5680   -1.2920 O   0  0  0  0  0  0  0  0  0  0  0  0
   -0.2770   -0.2760   -0.5830 C   0  0  1  0  0  0  0  0  0  0  0  0
   -1.6910    0.2650   -0.4840 C   0  0  1  0  0  0  0  0  0  0  0  0
   -2.1830    0.0030    0.7980 O   0  0  0  0  0  0  0  0  0  0  0  0
   -1.7070    1.6410   -0.6460 O   0  0  0  0  0  0  0  0  0  0  0  0
  1  2  1  0
  3  2  1  6
  3  4  1  0
  3  8  1  0
  4  5  1  0
  5  6  1  0
  6  7  1  6
  6  8  1  0
  8  9  1  1
  9 10  1  1
  9 11  1  0
M  END
