
     RDKit          3D

 28 29  0  0  0  0  0  0  0  0999 V2000
    8.2870    0.2980   -1.8330 C   0  0  0  0  0  0  0  0  0  0  0  0
    7.4400   -0.6120   -1.3790 C   0  0  0  0  0  0  0  0  0  0  0  0
    6.2150   -0.9730   -2.1410 C   0  0  0  0  0  0  0  0  0  0  0  0
    5.1080   -0.6760   -1.2990 O   0  0  0  0  0  0  0  0  0  0  0  0
    3.8160   -0.8940   -1.7020 C   0  0  0  0  0  0  0  0  0  0  0  0
    3.6620   -1.3730   -2.8660 O   0  0  0  0  0  0  0  0  0  0  0  0
    2.7000   -0.5880   -0.8360 C   0  0  0  0  0  0  0  0  0  0  0  0
    1.3770   -0.7830   -1.1820 C   0  0  0  0  0  0  0  0  0  0  0  0
    0.3070   -0.4950   -0.3660 C   0  0  0  0  0  0  0  0  0  0  0  0
    0.5630    0.0350    0.9100 C   0  0  0  0  0  0  0  0  0  0  0  0
    1.9150    0.2130    1.2160 C   0  0  0  0  0  0  0  0  0  0  0  0
    2.9280   -0.0860    0.3780 N   0  0  0  0  0  0  0  0  0  0  0  0
   -0.4420    0.3470    1.7780 O   0  0  0  0  0  0  0  0  0  0  0  0
   -1.3580    1.3480    1.9460 C   0  0  0  0  0  0  0  0  0  0  0  0
   -1.7560    2.1960    0.8030 C   0  0  0  0  0  0  0  0  0  0  0  0
   -3.1850    2.1630    0.5380 N   0  0  0  0  0  0  0  0  0  0  0  0
   -3.5040    1.7320   -0.8080 C   0  0  0  0  0  0  0  0  0  0  0  0
   -4.5080    0.6430   -0.8130 C   0  0  0  0  0  0  0  0  0  0  0  0
   -6.0390    1.0630   -1.6460 Cl  0  0  0  0  0  0  0  0  0  0  0  0
   -4.3690   -0.5540   -0.2810 C   0  0  0  0  0  0  0  0  0  0  0  0
   -3.2160   -1.1000    0.4300 C   0  0  0  0  0  0  0  0  0  0  0  0
   -3.5570   -1.8060    1.5450 C   0  0  0  0  0  0  0  0  0  0  0  0
   -4.9200   -2.0210    2.0170 C   0  0  2  0  0  0  0  0  0  0  0  0
   -4.9000   -2.3900    3.3400 F   0  0  0  0  0  0  0  0  0  0  0  0
   -5.4330   -3.1100    1.2990 F   0  0  0  0  0  0  0  0  0  0  0  0
   -5.7470   -0.9330    1.8020 F   0  0  0  0  0  0  0  0  0  0  0  0
   -1.9800   -0.8960   -0.0380 N   0  0  0  0  0  0  0  0  0  0  0  0
   -1.0810   -0.7700   -0.8410 C   0  0  0  0  0  0  0  0  0  0  0  0
  1  2  2  0
  2  3  1  0
  3  4  1  0
  4  5  1  0
  5  6  2  0
  5  7  1  0
  7  8  2  0
  7 12  1  0
  8  9  1  0
  9 10  2  0
  9 28  1  0
 10 11  1  0
 10 13  1  0
 11 12  2  0
 13 14  1  0
 14 15  1  0
 15 16  1  0
 16 17  1  0
 17 18  1  0
 18 19  1  0
 18 20  2  0
 20 21  1  0
 21 22  2  3
 21 27  1  0
 22 23  1  0
 23 24  1  1
 23 25  1  0
 23 26  1  0
 27 28  2  0
M  CHG  1  16   1
M  END
