
     RDKit          3D

 33 36  0  0  0  0  0  0  0  0999 V2000
    2.9840    4.0170   -0.7740 C   0  0  0  0  0  0  0  0  0  0  0  0
    2.3740    2.7520   -0.7890 O   0  0  0  0  0  0  0  0  0  0  0  0
    2.9360    1.7160   -0.0780 C   0  0  0  0  0  0  0  0  0  0  0  0
    4.0890    1.9400    0.6380 C   0  0  0  0  0  0  0  0  0  0  0  0
    4.7030    0.9380    1.3740 C   0  0  0  0  0  0  0  0  0  0  0  0
    4.1150   -0.3190    1.3710 C   0  0  0  0  0  0  0  0  0  0  0  0
    2.9570   -0.5130    0.6420 C   0  0  0  0  0  0  0  0  0  0  0  0
    2.4140   -1.8000    0.6780 O   0  0  0  0  0  0  0  0  0  0  0  0
    2.7870   -2.7820   -0.2660 C   0  0  0  0  0  0  0  0  0  0  0  0
    2.3500    0.4850   -0.0880 C   0  0  0  0  0  0  0  0  0  0  0  0
    1.1920    0.1800   -0.7830 O   0  0  0  0  0  0  0  0  0  0  0  0
   -0.0840    0.3160   -0.2000 C   0  0  0  0  0  0  0  0  0  0  0  0
   -0.0640    0.7320    0.9830 O   0  0  0  0  0  0  0  0  0  0  0  0
   -1.2740   -0.0260   -0.9870 C   0  0  2  0  0  0  0  0  0  0  0  0
   -1.2880    0.7730   -2.2360 C   0  0  0  0  0  0  0  0  0  0  0  0
   -1.2700    2.2440   -1.9010 C   0  0  0  0  0  0  0  0  0  0  0  0
   -2.1530    2.5860   -0.7050 C   0  0  0  0  0  0  0  0  0  0  0  0
   -3.1750    1.4790   -0.5780 C   0  0  2  0  0  0  0  0  0  0  0  0
   -4.3820    1.8440    0.0890 N   0  0  0  0  0  0  0  0  0  0  0  0
   -2.5820    0.1780   -0.2650 C   0  0  2  0  0  0  0  0  0  0  0  0
   -2.4340   -0.3190    1.0370 N   0  0  0  0  0  0  0  0  0  0  0  0
   -2.4450    0.2810    2.2990 C   0  0  0  0  0  0  0  0  0  0  0  0
   -2.2800   -0.4780    3.3280 O   0  0  0  0  0  0  0  0  0  0  0  0
   -2.6540    1.9570    2.7020 Cl  0  0  0  0  0  0  0  0  0  0  0  0
   -2.2190   -1.7960    1.0670 C   0  0  0  0  0  0  0  0  0  0  0  0
   -1.6250   -2.3690   -0.1320 C   0  0  1  0  0  0  0  0  0  0  0  0
   -2.5550   -3.4310   -0.6710 C   0  0  0  0  0  0  0  0  0  0  0  0
   -2.8530   -4.5250    0.1740 N   0  0  0  0  0  0  0  0  0  0  0  0
   -3.0110   -3.3140   -1.7930 O   0  0  0  0  0  0  0  0  0  0  0  0
   -1.1900   -1.5200   -1.2420 C   0  0  0  0  0  0  0  0  0  0  0  0
    4.9090   -1.1440    2.1730 O   0  0  0  0  0  0  0  0  0  0  0  0
    6.1320   -0.4930    2.4650 C   0  0  0  0  0  0  0  0  0  0  0  0
    5.8320    0.8470    2.1740 O   0  0  0  0  0  0  0  0  0  0  0  0
  1  2  1  0
  2  3  1  0
  3  4  2  0
  3 10  1  0
  4  5  1  0
  5  6  2  0
  5 33  1  0
  6  7  1  0
  6 31  1  0
  7  8  1  0
  7 10  2  0
  8  9  1  0
 10 11  1  0
 11 12  1  0
 12 13  2  0
 14 12  1  1
 14 15  1  0
 14 20  1  0
 14 30  1  0
 15 16  1  0
 16 17  1  0
 17 18  1  0
 18 19  1  1
 18 20  1  0
 20 21  1  1
 21 22  1  0
 21 25  1  0
 22 23  2  0
 22 24  1  0
 25 26  1  0
 26 27  1  6
 26 30  1  0
 27 28  1  0
 27 29  2  0
 31 32  1  0
 32 33  1  0
M  CHG  2  19   1  28   1
M  END
