
     RDKit          3D

 32 34  0  0  0  0  0  0  0  0999 V2000
    1.8690   -0.0300    1.3960 O   0  0  0  0  0  0  0  0  0  0  0  0
    2.0690   -0.2210    0.1960 C   0  0  0  0  0  0  0  0  0  0  0  0
    3.4320   -0.5690   -0.1510 N   0  0  0  0  0  0  0  0  0  0  0  0
    4.4390   -0.6920    0.8880 C   0  0  0  0  0  0  0  0  0  0  0  0
    5.7620   -1.0360    0.2960 C   0  0  0  0  0  0  0  0  0  0  0  0
    5.8320   -1.1440   -0.9570 O   0  0  0  0  0  0  0  0  0  0  0  0
    6.8760   -1.2320    1.0810 O   0  0  0  0  0  0  0  0  0  0  0  0
    8.1060   -1.5560    0.4660 C   0  0  0  0  0  0  0  0  0  0  0  0
    8.5320   -0.4600   -0.4570 C   0  0  0  0  0  0  0  0  0  0  0  0
    7.9070    0.7730   -0.5370 C   0  0  0  0  0  0  0  0  0  0  0  0
    8.6000    1.4930   -1.5010 C   0  0  0  0  0  0  0  0  0  0  0  0
    9.5940    0.6680   -1.9440 C   0  0  0  0  0  0  0  0  0  0  0  0
    9.5260   -0.4780   -1.3080 O   0  0  0  0  0  0  0  0  0  0  0  0
    1.0720   -0.1170   -0.8010 N   0  0  0  0  0  0  0  0  0  0  0  0
   -0.3050    0.2540   -0.5900 C   0  0  1  0  0  0  0  0  0  0  0  0
   -1.1430   -0.9490   -0.5890 C   0  0  0  0  0  0  0  0  0  0  0  0
   -2.5350   -0.8060   -0.0280 C   0  0  1  0  0  0  0  0  0  0  0  0
   -3.0480   -2.1210    0.1820 N   0  0  0  0  0  0  0  0  0  0  0  0
   -4.4790   -2.1860    0.3830 C   0  0  0  0  0  0  0  0  0  0  0  0
   -5.2750   -1.5780   -0.7530 C   0  0  0  0  0  0  0  0  0  0  0  0
   -6.0450   -0.4570   -0.1760 C   0  0  0  0  0  0  0  0  0  0  0  0
   -6.7650   -0.7920    1.0050 O   0  0  0  0  0  0  0  0  0  0  0  0
   -6.1390    0.7630   -0.6100 C   0  0  0  0  0  0  0  0  0  0  0  0
   -5.4560    1.2540   -1.8120 C   0  0  0  0  0  0  0  0  0  0  0  0
   -4.6710    2.3570   -1.4980 O   0  0  0  0  0  0  0  0  0  0  0  0
   -4.0810    2.2200   -0.2590 C   0  0  0  0  0  0  0  0  0  0  0  0
   -2.5880    1.9890   -0.4140 C   0  0  0  0  0  0  0  0  0  0  0  0
   -1.9680    1.4130    0.8040 C   0  0  2  0  0  0  0  0  0  0  0  0
   -2.0280    2.3350    1.8580 O   0  0  0  0  0  0  0  0  0  0  0  0
   -0.4570    1.2110    0.5180 C   0  0  0  0  0  0  0  0  0  0  0  0
   -2.4540    0.0490    1.2090 C   0  0  1  0  0  0  0  0  0  0  0  0
   -3.5950    0.1120    1.9530 O   0  0  0  0  0  0  0  0  0  0  0  0
  1  2  2  0
  2  3  1  0
  2 14  1  0
  3  4  1  0
  4  5  1  0
  5  6  2  0
  5  7  1  0
  7  8  1  0
  8  9  1  0
  9 10  2  0
  9 13  1  0
 10 11  1  0
 11 12  2  0
 12 13  1  0
 15 14  1  1
 15 16  1  0
 15 30  1  0
 17 16  1  1
 17 18  1  0
 17 31  1  0
 18 19  1  0
 19 20  1  0
 20 21  1  0
 21 22  1  0
 21 23  2  0
 23 24  1  0
 24 25  1  0
 25 26  1  0
 26 27  1  0
 27 28  1  0
 28 29  1  1
 28 30  1  0
 28 31  1  0
 31 32  1  6
M  CHG  1  18   1
M  END
