
     RDKit          3D

 32 34  0  0  0  0  0  0  0  0999 V2000
    2.7050    4.9690    0.6940 C   0  0  0  0  0  0  0  0  0  0  0  0
    2.3690    4.4130    2.0410 C   0  0  0  0  0  0  0  0  0  0  0  0
    1.7370    3.1390    1.9540 O   0  0  0  0  0  0  0  0  0  0  0  0
    2.3690    2.0520    1.3580 C   0  0  0  0  0  0  0  0  0  0  0  0
    3.5070    2.2590    0.9130 O   0  0  0  0  0  0  0  0  0  0  0  0
    1.7450    0.7210    1.2490 C   0  0  0  0  0  0  0  0  0  0  0  0
    2.3990   -0.2860    0.6770 C   0  0  0  0  0  0  0  0  0  0  0  0
    3.7670   -0.0760    0.1450 C   0  0  0  0  0  0  0  0  0  0  0  0
    4.3170   -1.4250   -0.2840 C   0  0  0  0  0  0  0  0  0  0  0  0
    3.4170   -2.1920   -1.1930 C   0  0  2  0  0  0  0  0  0  0  0  0
    3.3390   -1.5140   -2.4750 N   0  0  0  0  0  0  0  0  0  0  0  0
    2.0330   -2.3690   -0.5930 C   0  0  0  0  0  0  0  0  0  0  0  0
    1.8630   -1.5460    0.5430 O   0  0  0  0  0  0  0  0  0  0  0  0
    0.3960    0.6570    1.8310 C   0  0  2  0  0  0  0  0  0  0  0  0
    0.4640    1.0550    3.3260 C   0  0  0  0  0  0  0  0  0  0  0  0
   -0.3430   -0.5640    1.7710 C   0  0  0  0  0  0  0  0  0  0  0  0
   -0.4290   -1.3480    2.7280 O   0  0  0  0  0  0  0  0  0  0  0  0
   -1.0370   -0.9400    0.5580 N   0  0  0  0  0  0  0  0  0  0  0  0
   -1.7920   -2.1740    0.5210 C   0  0  0  0  0  0  0  0  0  0  0  0
   -1.6780   -2.8400   -0.8050 C   0  0  0  0  0  0  0  0  0  0  0  0
   -1.7920   -1.9150   -1.9560 C   0  0  0  0  0  0  0  0  0  0  0  0
   -2.0380   -0.4710   -1.5990 C   0  0  1  0  0  0  0  0  0  0  0  0
   -1.6920    0.2370   -2.8060 O   0  0  0  0  0  0  0  0  0  0  0  0
   -3.3910   -0.2010   -1.2640 N   0  0  0  0  0  0  0  0  0  0  0  0
   -3.9040    1.0590   -0.8550 C   0  0  0  0  0  0  0  0  0  0  0  0
   -3.3050    2.1360   -0.7810 O   0  0  0  0  0  0  0  0  0  0  0  0
   -5.3580    0.9110   -0.5000 C   0  0  0  0  0  0  0  0  0  0  0  0
   -5.5380   -0.5650   -0.4030 C   0  0  2  0  0  0  0  0  0  0  0  0
   -5.4620   -1.0560    0.8840 O   0  0  0  0  0  0  0  0  0  0  0  0
   -4.4740   -1.1070   -1.2880 C   0  0  0  0  0  0  0  0  0  0  0  0
   -4.6190   -2.1930   -1.9020 O   0  0  0  0  0  0  0  0  0  0  0  0
   -1.0050   -0.0940   -0.6000 C   0  0  0  0  0  0  0  0  0  0  0  0
  1  2  1  0
  2  3  1  0
  3  4  1  0
  4  5  2  0
  4  6  1  0
  6  7  2  3
  6 14  1  0
  7  8  1  0
  7 13  1  0
  8  9  1  0
  9 10  1  0
 10 11  1  6
 10 12  1  0
 12 13  1  0
 14 15  1  1
 14 16  1  0
 16 17  2  0
 16 18  1  0
 18 19  1  0
 18 32  1  0
 19 20  1  0
 20 21  1  0
 21 22  1  0
 22 23  1  6
 22 24  1  0
 22 32  1  0
 24 25  1  0
 24 30  1  0
 25 26  2  0
 25 27  1  0
 27 28  1  0
 28 29  1  1
 28 30  1  0
 30 31  2  0
M  CHG  1  11   1
M  END
