
     RDKit          3D

 26 27  0  0  0  0  0  0  0  0999 V2000
    5.1390    2.8430   -1.6080 N   0  0  0  0  0  0  0  0  0  0  0  0
    5.8190    2.2130   -2.6730 C   0  0  0  0  0  0  0  0  0  0  0  0
    7.0060    2.5790   -2.9790 O   0  0  0  0  0  0  0  0  0  0  0  0
    5.2500    1.1180   -3.5010 C   0  0  0  0  0  0  0  0  0  0  0  0
    3.9230    0.8480   -3.0050 N   0  0  0  0  0  0  0  0  0  0  0  0
    3.7200    0.4380   -1.7240 C   0  0  0  0  0  0  0  0  0  0  0  0
    4.7560    0.2870   -0.9450 O   0  0  0  0  0  0  0  0  0  0  0  0
    2.6210    0.1350   -1.0420 N   0  0  0  0  0  0  0  0  0  0  0  0
    1.4720   -0.1610   -0.3980 C   0  0  0  0  0  0  0  0  0  0  0  0
    1.7300   -0.5060    0.8200 O   0  0  0  0  0  0  0  0  0  0  0  0
    0.2090   -0.1480   -0.8230 N   0  0  0  0  0  0  0  0  0  0  0  0
   -0.9060   -0.5140    0.0340 C   0  0  0  0  0  0  0  0  0  0  0  0
   -1.5150   -1.6110   -0.3290 C   0  0  0  0  0  0  0  0  0  0  0  0
   -2.6140   -2.3390    0.1810 C   0  0  0  0  0  0  0  0  0  0  0  0
   -3.0480   -3.4650   -0.4050 C   0  0  0  0  0  0  0  0  0  0  0  0
   -4.2080   -4.1980    0.1600 C   0  0  0  0  0  0  0  0  0  0  0  0
   -5.3720   -3.2790    0.4020 C   0  0  0  0  0  0  0  0  0  0  0  0
   -5.1910   -2.2460    1.3480 N   0  0  0  0  0  0  0  0  0  0  0  0
   -3.5210   -1.9060    1.6190 S   0  0  0  0  0  0  0  0  0  0  0  0
   -3.0290   -2.7600    2.7770 O   0  0  0  0  0  0  0  0  0  0  0  0
   -1.1990    0.3700    1.1150 C   0  0  0  0  0  0  0  0  0  0  0  0
   -2.1080    0.2170    1.9580 O   0  0  0  0  0  0  0  0  0  0  0  0
   -0.4330    1.5820    1.3400 N   0  0  0  0  0  0  0  0  0  0  0  0
   -0.7170    2.4850    2.4340 C   0  0  2  0  0  0  0  0  0  0  0  0
   -0.2780    3.8970    2.2920 C   0  0  0  0  0  0  0  0  0  0  0  0
    0.5420    3.0280    3.1680 C   0  0  0  0  0  0  0  0  0  0  0  0
  1  2  1  0
  2  3  2  0
  2  4  1  0
  4  5  1  0
  5  6  1  0
  6  7  2  0
  6  8  1  0
  8  9  1  0
  9 10  2  0
  9 11  1  0
 11 12  1  0
 12 13  2  3
 12 21  1  0
 13 14  1  0
 14 15  2  0
 14 19  1  0
 15 16  1  0
 16 17  1  0
 17 18  1  0
 19 18  1  6
 19 20  2  0
 21 22  2  0
 21 23  1  0
 24 23  1  6
 24 25  1  0
 24 26  1  0
 25 26  1  0
M  CHG  1  18   1
M  END
