
     RDKit          3D

 26 27  0  0  0  0  0  0  0  0999 V2000
   -2.4630    1.4100   -1.8140 C   0  0  0  0  0  0  0  0  0  0  0  0
   -3.0830    0.7870   -0.5900 C   0  0  2  0  0  0  0  0  0  0  0  0
   -3.2850   -0.6990   -0.8630 C   0  0  0  0  0  0  0  0  0  0  0  0
   -4.3040    1.3080   -0.2570 O   0  0  0  0  0  0  0  0  0  0  0  0
   -4.4510    1.1750    1.1290 C   0  0  0  0  0  0  0  0  0  0  0  0
   -3.2460    0.7650    1.6580 O   0  0  0  0  0  0  0  0  0  0  0  0
   -2.2820    0.9470    0.6730 C   0  0  2  0  0  0  0  0  0  0  0  0
   -1.5790    2.2380    0.8050 C   0  0  0  0  0  0  0  0  0  0  0  0
   -2.4070    3.4130    0.7010 N   0  0  0  0  0  0  0  0  0  0  0  0
   -1.2860   -0.1570    0.6670 C   0  0  0  0  0  0  0  0  0  0  0  0
    0.0110    0.0060    0.4310 N   0  0  0  0  0  0  0  0  0  0  0  0
    0.6050   -1.1990    0.5070 C   0  0  0  0  0  0  0  0  0  0  0  0
    2.0740   -1.3500    0.2810 C   0  0  2  0  0  0  0  0  0  0  0  0
    2.7440   -1.8120    1.3930 O   0  0  0  0  0  0  0  0  0  0  0  0
    2.7250   -0.0980   -0.2060 C   0  0  0  0  0  0  0  0  0  0  0  0
    4.5150   -0.4670   -0.4280 S   0  0  0  0  0  0  0  0  0  0  0  0
    5.3860    1.0110   -1.0100 C   0  0  0  0  0  0  0  0  0  0  0  0
    5.3650    2.0700    0.0670 C   0  0  0  0  0  0  0  0  0  0  0  0
    5.9260    3.3210   -0.1260 N   0  0  0  0  0  0  0  0  0  0  0  0
    4.8140    1.7800    1.1650 O   0  0  0  0  0  0  0  0  0  0  0  0
   -0.3050   -2.1080    0.7840 N   0  0  0  0  0  0  0  0  0  0  0  0
   -0.0900   -3.5300    0.8990 C   0  0  0  0  0  0  0  0  0  0  0  0
   -0.3090   -4.1620   -0.4510 C   0  0  0  0  0  0  0  0  0  0  0  0
   -0.1210   -5.5590   -0.5770 N   0  0  0  0  0  0  0  0  0  0  0  0
   -0.6480   -3.4680   -1.4330 O   0  0  0  0  0  0  0  0  0  0  0  0
   -1.4710   -1.4590    0.8830 N   0  0  0  0  0  0  0  0  0  0  0  0
  2  1  1  6
  2  3  1  0
  2  4  1  0
  2  7  1  0
  4  5  1  0
  5  6  1  0
  6  7  1  0
  7  8  1  6
  7 10  1  0
  8  9  1  0
 10 11  1  0
 10 26  2  0
 11 12  2  0
 12 13  1  0
 12 21  1  0
 13 14  1  1
 13 15  1  0
 15 16  1  0
 16 17  1  0
 17 18  1  0
 18 19  1  0
 18 20  2  0
 21 22  1  0
 21 26  1  0
 22 23  1  0
 23 24  1  0
 23 25  2  0
M  CHG  1   9   1
M  END
