
     RDKit          3D

 26 27  0  0  0  0  0  0  0  0999 V2000
   -8.6530    1.1550   -0.1770 C   0  0  0  0  0  0  0  0  0  0  0  0
   -8.4040   -0.1950    0.5090 C   0  0  1  0  0  0  0  0  0  0  0  0
   -8.7140   -1.2070   -0.4120 O   0  0  0  0  0  0  0  0  0  0  0  0
   -6.9880   -0.2940    0.9150 C   0  0  0  0  0  0  0  0  0  0  0  0
   -6.6630   -0.2120    2.2480 C   0  0  0  0  0  0  0  0  0  0  0  0
   -5.3200   -0.3020    2.6390 C   0  0  0  0  0  0  0  0  0  0  0  0
   -4.3750   -0.4720    1.6560 C   0  0  0  0  0  0  0  0  0  0  0  0
   -3.0040   -0.5700    1.9960 N   0  0  0  0  0  0  0  0  0  0  0  0
   -2.0580   -0.7200    0.9860 N   0  0  0  0  0  0  0  0  0  0  0  0
   -0.8150   -0.0310    0.9370 C   0  0  0  0  0  0  0  0  0  0  0  0
   -0.5530    0.7710    1.8850 O   0  0  0  0  0  0  0  0  0  0  0  0
    0.1110   -0.2470   -0.1630 C   0  0  0  0  0  0  0  0  0  0  0  0
   -0.1600   -1.0260   -1.0940 O   0  0  0  0  0  0  0  0  0  0  0  0
    1.3430    0.4470   -0.1620 N   0  0  0  0  0  0  0  0  0  0  0  0
    2.3310    0.3020   -1.2100 C   0  0  1  0  0  0  0  0  0  0  0  0
    3.0380    1.6270   -1.5270 C   0  0  0  0  0  0  0  0  0  0  0  0
    3.7620    0.4650   -0.8250 C   0  0  2  0  0  0  0  0  0  0  0  0
    5.0480   -0.2560   -1.8040 S   0  0  0  0  0  0  0  0  0  0  0  0
    4.9600    0.1650   -3.2760 O   0  0  0  0  0  0  0  0  0  0  0  0
    6.6440    0.0940   -1.1360 C   0  0  2  0  0  0  0  0  0  0  0  0
    7.7580   -0.5150   -1.9980 C   0  0  0  0  0  0  0  0  0  0  0  0
    9.0110   -0.1660   -1.3630 N   0  0  0  0  0  0  0  0  0  0  0  0
    6.7690   -0.3620    0.2720 C   0  0  0  0  0  0  0  0  0  0  0  0
    5.8740    0.2700    1.0950 O   0  0  0  0  0  0  0  0  0  0  0  0
   -4.7820   -0.5410    0.3840 N   0  0  0  0  0  0  0  0  0  0  0  0
   -6.0420   -0.4590   -0.0090 N   0  0  0  0  0  0  0  0  0  0  0  0
  2  1  1  6
  2  3  1  0
  2  4  1  0
  4  5  2  0
  4 26  1  0
  5  6  1  0
  6  7  2  0
  7  8  1  0
  7 25  1  0
  8  9  1  0
  9 10  1  0
 10 11  2  0
 10 12  1  0
 12 13  2  0
 12 14  1  0
 15 14  1  1
 15 16  1  0
 15 17  1  0
 17 16  1  6
 17 18  1  0
 18 19  2  0
 18 20  1  1
 20 21  1  6
 20 23  1  0
 21 22  1  0
 23 24  1  0
 25 26  2  0
M  CHG  1  25   1
M  END
