
     RDKit          3D

 26 27  0  0  0  0  0  0  0  0999 V2000
   -3.6230    0.3140   -2.9030 C   0  0  0  0  0  0  0  0  0  0  0  0
   -3.7120    0.2520   -1.3870 C   0  0  1  0  0  0  0  0  0  0  0  0
   -5.1240   -0.0970   -1.0700 C   0  0  0  0  0  0  0  0  0  0  0  0
   -5.7630   -1.2560   -1.5640 N   0  0  0  0  0  0  0  0  0  0  0  0
   -5.8210    0.6670   -0.3190 O   0  0  0  0  0  0  0  0  0  0  0  0
   -2.8700   -0.9160   -0.9630 C   0  0  0  0  0  0  0  0  0  0  0  0
   -2.4590   -0.7430    0.4570 C   0  0  0  0  0  0  0  0  0  0  0  0
   -1.4950    0.4490    0.4400 C   0  0  1  0  0  0  0  0  0  0  0  0
   -0.2670    0.0920   -0.2260 N   0  0  0  0  0  0  0  0  0  0  0  0
    0.9460   -0.0190    0.5060 C   0  0  0  0  0  0  0  0  0  0  0  0
    0.9640    0.1960    1.7700 O   0  0  0  0  0  0  0  0  0  0  0  0
    2.1730   -0.3610   -0.0890 N   0  0  0  0  0  0  0  0  0  0  0  0
    3.4240   -0.4520    0.6850 C   0  0  0  0  0  0  0  0  0  0  0  0
    3.8810   -1.6440    0.7180 C   0  0  0  0  0  0  0  0  0  0  0  0
    4.9530   -2.3970    1.2340 C   0  0  0  0  0  0  0  0  0  0  0  0
    4.9810   -3.8430    0.9480 N   0  0  0  0  0  0  0  0  0  0  0  0
    5.9030   -2.0400    1.9050 O   0  0  0  0  0  0  0  0  0  0  0  0
    3.8780    0.8090    1.2690 C   0  0  0  0  0  0  0  0  0  0  0  0
    3.2070    1.9500    1.0530 C   0  0  0  0  0  0  0  0  0  0  0  0
    4.0130    3.2570    1.8910 S   0  0  0  0  0  0  0  0  0  0  0  0
    4.5470    4.3230    0.9520 O   0  0  0  0  0  0  0  0  0  0  0  0
    5.2910    2.2640    2.5750 C   0  0  0  0  0  0  0  0  0  0  0  0
    6.2000    2.6850    3.3070 O   0  0  0  0  0  0  0  0  0  0  0  0
    5.0050    0.9570    2.0880 N   0  0  0  0  0  0  0  0  0  0  0  0
   -2.1190    1.6440   -0.1830 C   0  0  0  0  0  0  0  0  0  0  0  0
   -3.3810    1.4940   -0.7830 N   0  0  0  0  0  0  0  0  0  0  0  0
  2  1  1  6
  2  3  1  0
  2  6  1  0
  2 26  1  0
  3  4  1  0
  3  5  2  0
  6  7  1  0
  7  8  1  0
  8  9  1  6
  8 25  1  0
  9 10  1  0
 10 11  2  0
 10 12  1  0
 12 13  1  0
 13 14  2  3
 13 18  1  0
 14 15  1  0
 15 16  1  0
 15 17  2  0
 18 19  2  0
 18 24  1  0
 20 19  1  6
 20 21  2  0
 20 22  1  0
 22 23  2  0
 22 24  1  0
 25 26  1  0
M  CHG  1  26   1
M  END
