
     RDKit          3D

 26 27  0  0  0  0  0  0  0  0999 V2000
   -6.3350    1.8130    1.7160 C   0  0  0  0  0  0  0  0  0  0  0  0
   -6.7250    0.5830    2.1990 O   0  0  0  0  0  0  0  0  0  0  0  0
   -6.8430   -0.3900    1.2550 C   0  0  0  0  0  0  0  0  0  0  0  0
   -5.5180   -0.7940    0.6270 C   0  0  0  0  0  0  0  0  0  0  0  0
   -5.5750   -1.4750   -0.3860 O   0  0  0  0  0  0  0  0  0  0  0  0
   -4.2950   -0.4130    1.1760 N   0  0  0  0  0  0  0  0  0  0  0  0
   -2.9680   -0.6460    0.7830 C   0  0  0  0  0  0  0  0  0  0  0  0
   -2.3190   -1.2410   -0.1440 C   0  0  0  0  0  0  0  0  0  0  0  0
   -2.9540   -1.9550   -1.2160 N   0  0  0  0  0  0  0  0  0  0  0  0
   -0.8550   -1.2030   -0.1270 C   0  0  0  0  0  0  0  0  0  0  0  0
   -0.3460   -0.0800    0.6920 C   0  0  2  0  0  0  0  0  0  0  0  0
   -0.2180    1.0770   -0.1600 N   0  0  0  0  0  0  0  0  0  0  0  0
    0.9260    1.2130   -0.9740 C   0  0  0  0  0  0  0  0  0  0  0  0
    0.8590    1.5800   -2.1690 O   0  0  0  0  0  0  0  0  0  0  0  0
    2.2780    0.9070   -0.3910 C   0  0  2  0  0  0  0  0  0  0  0  0
    2.7360    2.1110    0.3750 C   0  0  0  0  0  0  0  0  0  0  0  0
    3.2500    0.5030   -1.4530 C   0  0  0  0  0  0  0  0  0  0  0  0
    4.5690    0.2360   -0.8350 C   0  0  0  0  0  0  0  0  0  0  0  0
    4.7770    0.4160    0.3800 O   0  0  0  0  0  0  0  0  0  0  0  0
    5.6570   -0.2480   -1.6510 N   0  0  0  0  0  0  0  0  0  0  0  0
    6.9510   -0.5190   -1.0910 C   0  0  0  0  0  0  0  0  0  0  0  0
    7.5570    0.6560   -0.4850 N   0  0  0  0  0  0  0  0  0  0  0  0
    2.1440   -0.2090    0.5540 N   0  0  0  0  0  0  0  0  0  0  0  0
    0.9520   -0.3530    1.3290 C   0  0  0  0  0  0  0  0  0  0  0  0
    1.0740   -0.7090    2.5290 O   0  0  0  0  0  0  0  0  0  0  0  0
   -1.6710    0.0920    1.8930 S   0  0  0  0  0  0  0  0  0  0  0  0
  1  2  1  0
  2  3  1  0
  3  4  1  0
  4  5  2  0
  4  6  1  0
  6  7  1  0
  7  8  2  0
  7 26  1  0
  8  9  1  0
  8 10  1  0
 11 10  1  6
 11 12  1  0
 11 24  1  0
 11 26  1  0
 12 13  1  0
 13 14  2  0
 13 15  1  0
 15 16  1  1
 15 17  1  0
 15 23  1  0
 17 18  1  0
 18 19  2  0
 18 20  1  0
 20 21  1  0
 21 22  1  0
 23 24  1  0
 24 25  2  0
M  CHG  1   9   1
M  END
