
     RDKit          3D

 26 28  0  0  0  0  0  0  0  0999 V2000
    7.0760    1.7150    1.6330 N   0  0  0  0  0  0  0  0  0  0  0  0
    6.0680    0.7560    1.3640 C   0  0  0  0  0  0  0  0  0  0  0  0
    6.1160   -0.4780    1.8930 N   0  0  0  0  0  0  0  0  0  0  0  0
    5.1890   -1.4210    1.6700 C   0  0  0  0  0  0  0  0  0  0  0  0
    4.1550   -1.1160    0.8740 N   0  0  0  0  0  0  0  0  0  0  0  0
    4.0280    0.0820    0.3080 C   0  0  0  0  0  0  0  0  0  0  0  0
    4.9820    1.0440    0.5410 C   0  0  0  0  0  0  0  0  0  0  0  0
    4.6010    2.1300   -0.1460 N   0  0  0  0  0  0  0  0  0  0  0  0
    3.4380    1.8710   -0.7980 C   0  0  0  0  0  0  0  0  0  0  0  0
    3.0910    0.5810   -0.5030 N   0  0  0  0  0  0  0  0  0  0  0  0
    1.9010   -0.0130   -1.0390 C   0  0  2  0  0  0  0  0  0  0  0  0
    0.8100    0.4840   -0.3410 O   0  0  0  0  0  0  0  0  0  0  0  0
   -0.0580   -0.5620   -0.1250 C   0  0  2  0  0  0  0  0  0  0  0  0
   -1.0090   -0.3010    1.0110 C   0  0  0  0  0  0  0  0  0  0  0  0
   -2.0120    1.1500    0.6990 S   0  0  0  0  0  0  0  0  0  0  0  0
   -3.1460    0.9650   -0.6710 C   0  0  0  0  0  0  0  0  0  0  0  0
   -4.2180   -0.0460   -0.4310 C   0  0  0  0  0  0  0  0  0  0  0  0
   -5.0970    0.2490    0.7520 C   0  0  2  0  0  0  0  0  0  0  0  0
   -6.0680   -0.8500    0.8110 N   0  0  0  0  0  0  0  0  0  0  0  0
   -5.7900    1.5480    0.6840 C   0  0  0  0  0  0  0  0  0  0  0  0
   -7.0510    1.5660    0.6500 O   0  0  0  0  0  0  0  0  0  0  0  0
   -5.1530    2.7770    0.6540 O   0  0  0  0  0  0  0  0  0  0  0  0
    0.8800   -1.7170    0.1680 C   0  0  1  0  0  0  0  0  0  0  0  0
    0.1730   -2.8920    0.0230 O   0  0  0  0  0  0  0  0  0  0  0  0
    1.8580   -1.4960   -0.9880 C   0  0  1  0  0  0  0  0  0  0  0  0
    1.1860   -1.9490   -2.1360 O   0  0  0  0  0  0  0  0  0  0  0  0
  1  2  1  0
  2  3  2  0
  2  7  1  0
  3  4  1  0
  4  5  2  0
  5  6  1  0
  6  7  2  0
  6 10  1  0
  7  8  1  0
  8  9  2  0
  9 10  1  0
 11 10  1  1
 11 12  1  0
 11 25  1  0
 12 13  1  0
 13 14  1  1
 13 23  1  0
 14 15  1  0
 15 16  1  0
 16 17  1  0
 17 18  1  0
 18 19  1  6
 18 20  1  0
 20 21  2  0
 20 22  1  0
 23 24  1  6
 23 25  1  0
 25 26  1  6
M  CHG  1  19   1
M  END
