
     RDKit          3D

 35 38  0  0  0  0  0  0  0  0999 V2000
    0.9630   -1.4310   -2.5260 C   0  0  0  0  0  0  0  0  0  0  0  0
    1.2700   -1.5720   -1.0590 C   0  0  2  0  0  0  0  0  0  0  0  0
    2.2890   -2.7420   -1.0060 C   0  0  0  0  0  0  0  0  0  0  0  0
    0.1270   -2.0230   -0.2620 C   0  0  0  0  0  0  0  0  0  0  0  0
   -1.0950   -2.4070   -1.0160 C   0  0  0  0  0  0  0  0  0  0  0  0
   -2.2830   -2.4560   -0.4230 C   0  0  0  0  0  0  0  0  0  0  0  0
   -2.5720   -2.1580    0.9990 C   0  0  0  0  0  0  0  0  0  0  0  0
   -3.3270   -3.1310    1.5790 C   0  0  0  0  0  0  0  0  0  0  0  0
   -3.8020   -4.3300    0.8820 C   0  0  1  0  0  0  0  0  0  0  0  0
   -2.6760   -5.0610    0.5040 F   0  0  0  0  0  0  0  0  0  0  0  0
   -4.6410   -5.0770    1.6680 F   0  0  0  0  0  0  0  0  0  0  0  0
   -2.1450   -1.0350    1.7280 N   0  0  0  0  0  0  0  0  0  0  0  0
   -2.4160    0.3400    1.7590 C   0  0  0  0  0  0  0  0  0  0  0  0
   -2.1650    0.9290    2.9450 O   0  0  0  0  0  0  0  0  0  0  0  0
   -2.9190    1.3120    0.7980 C   0  0  0  0  0  0  0  0  0  0  0  0
   -2.3950    1.6880   -0.3490 C   0  0  0  0  0  0  0  0  0  0  0  0
   -1.1050    1.1210   -0.8900 C   0  0  0  0  0  0  0  0  0  0  0  0
   -0.0570    1.1190    0.0730 N   0  0  0  0  0  0  0  0  0  0  0  0
    1.3260    0.8080   -0.0830 C   0  0  0  0  0  0  0  0  0  0  0  0
    2.3870    1.6720    0.2580 C   0  0  0  0  0  0  0  0  0  0  0  0
    3.5410    1.0500   -0.0310 N   0  0  0  0  0  0  0  0  0  0  0  0
    4.8850    1.6160    0.1670 C   0  0  0  0  0  0  0  0  0  0  0  0
    5.3300    1.2680    1.5410 C   0  0  0  0  0  0  0  0  0  0  0  0
    5.4150   -0.2040    1.7560 C   0  0  0  0  0  0  0  0  0  0  0  0
    6.4250   -0.8460    0.8750 C   0  0  0  0  0  0  0  0  0  0  0  0
    6.2190   -0.7330   -0.4640 F   0  0  0  0  0  0  0  0  0  0  0  0
    3.2440   -0.1290   -0.5220 N   0  0  0  0  0  0  0  0  0  0  0  0
    1.8940   -0.3110   -0.5680 C   0  0  0  0  0  0  0  0  0  0  0  0
   -2.9040    2.7710   -1.1580 N   0  0  0  0  0  0  0  0  0  0  0  0
   -2.6030    3.2390   -2.3480 N   0  0  0  0  0  0  0  0  0  0  0  0
   -3.4280    4.2140   -2.7260 C   0  0  0  0  0  0  0  0  0  0  0  0
   -4.3300    4.3960   -1.7060 C   0  0  0  0  0  0  0  0  0  0  0  0
   -3.9620    3.4710   -0.7430 C   0  0  0  0  0  0  0  0  0  0  0  0
   -4.5140    3.2760    0.5890 C   0  0  0  0  0  0  0  0  0  0  0  0
   -4.2710    1.9130    1.0950 C   0  0  0  0  0  0  0  0  0  0  0  0
  2  1  1  6
  2  3  1  0
  2  4  1  0
  2 28  1  0
  4  5  1  0
  5  6  2  0
  6  7  1  0
  7  8  2  3
  7 12  1  0
  8  9  1  0
  9 10  1  1
  9 11  1  0
 12 13  1  0
 13 14  2  0
 13 15  1  0
 15 16  2  0
 15 35  1  0
 16 17  1  0
 16 29  1  0
 17 18  1  0
 18 19  1  0
 19 20  2  0
 19 28  1  0
 20 21  1  0
 21 22  1  0
 21 27  1  0
 22 23  1  0
 23 24  1  0
 24 25  1  0
 25 26  1  0
 27 28  2  0
 29 30  1  0
 29 33  1  0
 30 31  2  0
 31 32  1  0
 32 33  2  0
 33 34  1  0
 34 35  1  0
M  END
