
     RDKit          3D

 34 38  0  0  0  0  0  0  0  0999 V2000
    6.2310   -3.2330    0.2190 C   0  0  0  0  0  0  0  0  0  0  0  0
    5.0270   -2.3350    0.2350 C   0  0  0  0  0  0  0  0  0  0  0  0
    5.2060   -1.0950   -0.0790 C   0  0  0  0  0  0  0  0  0  0  0  0
    6.5850   -0.7410   -0.4120 C   0  0  0  0  0  0  0  0  0  0  0  0
    7.3370    0.3350   -0.2970 C   0  0  0  0  0  0  0  0  0  0  0  0
    8.9820    0.1450   -0.9000 Cl  0  0  0  0  0  0  0  0  0  0  0  0
    7.0670    1.6950    0.2480 C   0  0  0  0  0  0  0  0  0  0  0  0
    5.7850    2.1760   -0.4040 C   0  0  0  0  0  0  0  0  0  0  0  0
    4.5800    2.0760    0.4900 C   0  0  0  0  0  0  0  0  0  0  0  0
    3.7140    0.9530    0.1590 N   0  0  0  0  0  0  0  0  0  0  0  0
    3.9680   -0.2830   -0.0640 C   0  0  0  0  0  0  0  0  0  0  0  0
    2.8280   -1.0280   -0.4070 N   0  0  0  0  0  0  0  0  0  0  0  0
    1.4830   -0.5950   -0.3690 C   0  0  1  0  0  0  0  0  0  0  0  0
    0.5580   -1.6200   -1.0110 C   0  0  0  0  0  0  0  0  0  0  0  0
   -0.8540   -1.2210   -0.7480 C   0  0  0  0  0  0  0  0  0  0  0  0
   -1.8150   -1.9730   -1.0740 O   0  0  0  0  0  0  0  0  0  0  0  0
   -1.1030    0.0580   -0.1100 C   0  0  0  0  0  0  0  0  0  0  0  0
   -2.0680    1.0040   -0.2750 C   0  0  0  0  0  0  0  0  0  0  0  0
   -3.2580    0.8940   -1.1480 C   0  0  1  0  0  0  0  0  0  0  0  0
   -3.0070    1.4880   -2.4990 C   0  0  0  0  0  0  0  0  0  0  0  0
   -4.0640   -0.2920   -1.0650 N   0  0  0  0  0  0  0  0  0  0  0  0
   -5.3100    0.0870   -1.7530 C   0  0  0  0  0  0  0  0  0  0  0  0
   -6.2760    0.8490   -0.8960 C   0  0  0  0  0  0  0  0  0  0  0  0
   -6.8020   -0.2030    0.0470 C   0  0  0  0  0  0  0  0  0  0  0  0
   -7.9680   -0.6210    0.4510 C   0  0  0  0  0  0  0  0  0  0  0  0
   -7.7400   -1.7320    1.4140 C   0  0  0  0  0  0  0  0  0  0  0  0
   -6.2780   -1.8640    1.4760 C   0  0  0  0  0  0  0  0  0  0  0  0
   -5.7250   -0.9650    0.6740 C   0  0  0  0  0  0  0  0  0  0  0  0
   -4.3400   -0.5780    0.3400 C   0  0  0  0  0  0  0  0  0  0  0  0
   -1.7620    2.0250    0.5840 N   0  0  0  0  0  0  0  0  0  0  0  0
   -0.6500    1.7230    1.2620 N   0  0  0  0  0  0  0  0  0  0  0  0
   -0.0580    2.5240    2.2890 C   0  0  0  0  0  0  0  0  0  0  0  0
   -0.2310    0.5290    0.8450 C   0  0  0  0  0  0  0  0  0  0  0  0
    0.9990   -0.3410    1.0730 C   0  0  0  0  0  0  0  0  0  0  0  0
  1  2  1  0
  2  3  2  3
  3  4  1  0
  3 11  1  0
  4  5  2  0
  5  6  1  0
  5  7  1  0
  7  8  1  0
  8  9  1  0
  9 10  1  0
 10 11  2  0
 11 12  1  0
 13 12  1  1
 13 14  1  0
 13 34  1  0
 14 15  1  0
 15 16  2  0
 15 17  1  0
 17 18  1  0
 17 33  2  0
 18 19  1  0
 18 30  2  0
 19 20  1  6
 19 21  1  0
 21 22  1  0
 21 29  1  0
 22 23  1  0
 23 24  1  0
 24 25  2  0
 24 28  1  0
 25 26  1  0
 26 27  1  0
 27 28  2  0
 28 29  1  0
 30 31  1  0
 31 32  1  0
 31 33  1  0
 33 34  1  0
M  END
