
     RDKit          3D

 34 38  0  0  0  0  0  0  0  0999 V2000
    8.5230   -0.9460    2.2250 O   0  0  0  0  0  0  0  0  0  0  0  0
    8.2960   -0.3350    1.1640 C   0  0  0  0  0  0  0  0  0  0  0  0
    9.3740    0.2240    0.5000 O   0  0  0  0  0  0  0  0  0  0  0  0
    6.9490   -0.2270    0.6660 C   0  0  0  0  0  0  0  0  0  0  0  0
    5.9120   -0.7860    1.3390 C   0  0  0  0  0  0  0  0  0  0  0  0
    4.6230   -0.6590    0.8220 C   0  0  0  0  0  0  0  0  0  0  0  0
    4.3750    0.0070   -0.3340 C   0  0  0  0  0  0  0  0  0  0  0  0
    3.1150    0.1630   -0.8910 N   0  0  0  0  0  0  0  0  0  0  0  0
    1.8740   -0.3140   -0.4020 C   0  0  0  0  0  0  0  0  0  0  0  0
    1.7320   -1.0140    0.7180 N   0  0  0  0  0  0  0  0  0  0  0  0
    0.5840   -1.4900    1.2270 C   0  0  0  0  0  0  0  0  0  0  0  0
   -0.5750   -1.2440    0.5450 C   0  0  0  0  0  0  0  0  0  0  0  0
   -0.4570   -0.5030   -0.6470 C   0  0  0  0  0  0  0  0  0  0  0  0
    0.7150   -0.0620   -1.0930 N   0  0  0  0  0  0  0  0  0  0  0  0
   -1.5810   -0.1840   -1.5030 C   0  0  0  0  0  0  0  0  0  0  0  0
   -1.2010   -0.1230   -2.8150 C   0  0  0  0  0  0  0  0  0  0  0  0
   -2.2230    0.0310   -3.7500 C   0  0  0  0  0  0  0  0  0  0  0  0
   -3.5510    0.1130   -3.3620 C   0  0  0  0  0  0  0  0  0  0  0  0
   -4.8230    0.3090   -4.5540 Cl  0  0  0  0  0  0  0  0  0  0  0  0
   -3.8780    0.0460   -2.0320 C   0  0  0  0  0  0  0  0  0  0  0  0
   -2.9030   -0.0980   -1.0730 C   0  0  0  0  0  0  0  0  0  0  0  0
   -3.4090   -0.1070    0.2810 C   0  0  0  0  0  0  0  0  0  0  0  0
   -4.5420    0.7350    0.5850 C   0  0  0  0  0  0  0  0  0  0  0  0
   -5.0910    1.7290   -0.1280 C   0  0  0  0  0  0  0  0  0  0  0  0
   -4.4240    2.2930   -1.1750 F   0  0  0  0  0  0  0  0  0  0  0  0
   -6.2690    2.3280    0.2350 C   0  0  0  0  0  0  0  0  0  0  0  0
   -6.9560    1.9290    1.3800 C   0  0  0  0  0  0  0  0  0  0  0  0
   -6.4240    0.9170    2.1420 C   0  0  0  0  0  0  0  0  0  0  0  0
   -5.2470    0.3310    1.7590 C   0  0  0  0  0  0  0  0  0  0  0  0
   -4.7150   -0.6680    2.5070 F   0  0  0  0  0  0  0  0  0  0  0  0
   -2.8970   -0.8750    1.2030 N   0  0  0  0  0  0  0  0  0  0  0  0
   -1.7990   -1.8260    1.1740 C   0  0  0  0  0  0  0  0  0  0  0  0
    5.4770    0.5620   -0.9850 C   0  0  0  0  0  0  0  0  0  0  0  0
    6.7510    0.4650   -0.5220 C   0  0  0  0  0  0  0  0  0  0  0  0
  1  2  2  0
  2  3  1  0
  2  4  1  0
  4  5  2  0
  4 34  1  0
  5  6  1  0
  6  7  2  0
  7  8  1  0
  7 33  1  0
  8  9  1  0
  9 10  2  0
  9 14  1  0
 10 11  1  0
 11 12  2  0
 12 13  1  0
 12 32  1  0
 13 14  2  0
 13 15  1  0
 15 16  2  0
 15 21  1  0
 16 17  1  0
 17 18  2  0
 18 19  1  0
 18 20  1  0
 20 21  2  0
 21 22  1  0
 22 23  1  0
 22 31  2  0
 23 24  2  0
 23 29  1  0
 24 25  1  0
 24 26  1  0
 26 27  2  0
 27 28  1  0
 28 29  2  0
 29 30  1  0
 31 32  1  0
 33 34  2  0
M  END
