
     RDKit          3D

 25 26  0  0  0  0  0  0  0  0999 V2000
   -6.9230   -0.2700    1.7800 O   0  0  0  0  0  0  0  0  0  0  0  0
   -5.7960   -0.3040    1.1980 C   0  0  0  0  0  0  0  0  0  0  0  0
   -4.7660    0.5280    1.5650 C   0  0  0  0  0  0  0  0  0  0  0  0
   -3.5770    0.4280    0.8850 C   0  0  0  0  0  0  0  0  0  0  0  0
   -3.3770   -0.4420   -0.1180 N   0  0  0  0  0  0  0  0  0  0  0  0
   -2.1070   -0.5150   -0.8090 C   0  0  2  0  0  0  0  0  0  0  0  0
   -1.1110   -1.0790   -0.0230 O   0  0  0  0  0  0  0  0  0  0  0  0
    0.0710   -0.6170   -0.6170 C   0  0  2  0  0  0  0  0  0  0  0  0
    1.2810   -0.9280    0.2280 C   0  0  0  0  0  0  0  0  0  0  0  0
    2.3940   -0.4430   -0.4240 O   0  0  0  0  0  0  0  0  0  0  0  0
    3.8150   -0.7400    0.4440 P   0  0  1  0  0  0  0  0  0  0  0  0
    3.7490   -0.1900    1.8460 O   0  0  0  0  0  0  0  0  0  0  0  0
    4.1280   -2.4160    0.5200 O   0  0  0  0  0  0  0  0  0  0  0  0
    5.0880   -0.0010   -0.3560 O   0  0  0  0  0  0  0  0  0  0  0  0
    6.2640    0.5830    0.7200 P   0  0  1  0  0  0  0  0  0  0  0  0
    6.7550   -0.4990    1.6350 O   0  0  0  0  0  0  0  0  0  0  0  0
    7.5970    1.0780   -0.2220 O   0  0  0  0  0  0  0  0  0  0  0  0
    5.6720    1.9150    1.5670 O   0  0  0  0  0  0  0  0  0  0  0  0
   -0.2140    0.8840   -0.6580 C   0  0  1  0  0  0  0  0  0  0  0  0
    0.6450    1.5300   -1.5410 O   0  0  0  0  0  0  0  0  0  0  0  0
   -1.6420    0.8860   -1.1630 C   0  0  1  0  0  0  0  0  0  0  0  0
   -1.6360    1.0450   -2.5660 O   0  0  0  0  0  0  0  0  0  0  0  0
   -4.4140   -1.2350   -0.4400 C   0  0  0  0  0  0  0  0  0  0  0  0
   -4.2670   -2.0620   -1.3720 O   0  0  0  0  0  0  0  0  0  0  0  0
   -5.6010   -1.1800    0.1920 N   0  0  0  0  0  0  0  0  0  0  0  0
  1  2  2  0
  2  3  1  0
  2 25  1  0
  3  4  2  0
  4  5  1  0
  6  5  1  1
  5 23  1  0
  6  7  1  0
  6 21  1  0
  7  8  1  0
  8  9  1  1
  8 19  1  0
  9 10  1  0
 10 11  1  0
 11 12  2  0
 11 13  1  1
 11 14  1  0
 14 15  1  0
 15 16  2  0
 15 17  1  6
 15 18  1  0
 19 20  1  6
 19 21  1  0
 21 22  1  6
 23 24  2  0
 23 25  1  0
M  END
