
     RDKit          3D

 24 25  0  0  0  0  0  0  0  0999 V2000
   -3.9930    1.7370   -0.6780 C   0  0  0  0  0  0  0  0  0  0  0  0
   -3.0360    0.6290   -0.2430 C   0  0  0  0  0  0  0  0  0  0  0  0
   -1.7230    1.2880    0.2250 C   0  0  1  0  0  0  0  0  0  0  0  0
   -0.8170    0.3190    0.6370 N   0  0  0  0  0  0  0  0  0  0  0  0
   -0.2340   -0.6340   -0.1710 C   0  0  2  0  0  0  0  0  0  0  0  0
    1.3900   -0.0160   -0.9320 P   0  0  0  0  0  0  0  0  0  0  0  0
    1.9980   -1.2640   -1.9700 O   0  0  0  0  0  0  0  0  0  0  0  0
    2.5630    0.2640    0.3280 O   0  0  0  0  0  0  0  0  0  0  0  0
    3.6530    1.0820    0.0390 C   0  0  0  0  0  0  0  0  0  0  0  0
    3.8150    1.6150   -1.0890 O   0  0  0  0  0  0  0  0  0  0  0  0
    4.6270    1.3550    0.9910 O   0  0  0  0  0  0  0  0  0  0  0  0
    5.9830    2.3890    0.5740 P   0  0  0  0  0  0  0  0  0  0  0  0
   -0.9650   -1.0810   -1.3090 O   0  0  0  0  0  0  0  0  0  0  0  0
   -0.4160   -2.3350   -1.6060 C   0  0  0  0  0  0  0  0  0  0  0  0
   -0.1940   -2.8760   -2.7230 O   0  0  0  0  0  0  0  0  0  0  0  0
   -0.0970   -2.9950   -0.3990 N   0  0  0  0  0  0  0  0  0  0  0  0
    0.1240   -4.1140    0.4460 C   0  0  0  0  0  0  0  0  0  0  0  0
    0.5660   -5.2010    0.0020 O   0  0  0  0  0  0  0  0  0  0  0  0
   -0.2340   -3.7360    1.7550 O   0  0  0  0  0  0  0  0  0  0  0  0
   -0.7200   -2.3680    1.6630 C   0  0  0  0  0  0  0  0  0  0  0  0
    0.1500   -1.8700    0.5540 C   0  0  2  0  0  0  0  0  0  0  0  0
   -1.3330    2.1690   -0.9020 C   0  0  0  0  0  0  0  0  0  0  0  0
   -0.7150    1.6830   -1.8770 O   0  0  0  0  0  0  0  0  0  0  0  0
   -1.6190    3.5280   -0.9340 O   0  0  0  0  0  0  0  0  0  0  0  0
  1  2  1  0
  3  2  1  6
  3  4  1  0
  3 22  1  0
  5  4  1  1
  5  6  1  0
  5 13  1  0
  5 21  1  0
  6  7  1  0
  6  8  1  0
  8  9  1  0
  9 10  2  0
  9 11  1  0
 11 12  1  0
 13 14  1  0
 14 15  2  0
 14 16  1  0
 16 17  1  0
 16 21  1  0
 17 18  2  0
 17 19  1  0
 19 20  1  0
 21 20  1  1
 22 23  2  0
 22 24  1  0
M  END
