
     RDKit          3D

 24 25  0  0  0  0  0  0  0  0999 V2000
    1.3600    3.5310   -1.9930 O   0  0  0  0  0  0  0  0  0  0  0  0
    0.1460    3.2300   -2.1250 C   0  0  0  0  0  0  0  0  0  0  0  0
   -0.7920    4.1550   -2.5730 O   0  0  0  0  0  0  0  0  0  0  0  0
   -0.2030    1.9100   -1.7370 N   0  0  0  0  0  0  0  0  0  0  0  0
    0.5620    1.1600   -0.8150 C   0  0  0  0  0  0  0  0  0  0  0  0
    1.6560    1.5500   -0.5320 O   0  0  0  0  0  0  0  0  0  0  0  0
   -0.0150   -0.0520   -0.1850 C   0  0  1  0  0  0  0  0  0  0  0  0
    0.6120   -1.2390   -0.9310 C   0  0  0  0  0  0  0  0  0  0  0  0
    1.9450   -0.7670   -0.9490 O   0  0  0  0  0  0  0  0  0  0  0  0
    3.0250   -1.8440   -0.2640 P   0  0  0  0  0  0  0  0  0  0  0  0
    3.1680   -3.4120   -0.7780 O   0  0  0  0  0  0  0  0  0  0  0  0
    4.9160   -0.8650    0.3230 P   0  0  0  0  0  0  0  0  0  0  0  0
    5.8010   -0.4210   -1.0970 O   0  0  0  0  0  0  0  0  0  0  0  0
    4.7050    0.4330    1.4120 O   0  0  0  0  0  0  0  0  0  0  0  0
    0.6390   -0.2030    1.1160 O   0  0  0  0  0  0  0  0  0  0  0  0
    0.0220   -1.1100    1.9590 C   0  0  0  0  0  0  0  0  0  0  0  0
    0.5460   -1.3100    3.1110 O   0  0  0  0  0  0  0  0  0  0  0  0
   -1.2140   -1.8190    1.5830 C   0  0  0  0  0  0  0  0  0  0  0  0
   -2.0690   -1.1400    0.6680 N   0  0  0  0  0  0  0  0  0  0  0  0
   -3.2900   -0.7300    1.2960 C   0  0  0  0  0  0  0  0  0  0  0  0
   -3.9960    0.3820    0.5830 C   0  0  0  0  0  0  0  0  0  0  0  0
   -3.2060    1.4880    0.3460 O   0  0  0  0  0  0  0  0  0  0  0  0
   -1.8970    1.2370    0.6260 C   0  0  0  0  0  0  0  0  0  0  0  0
   -1.4700   -0.0740   -0.0620 C   0  0  1  0  0  0  0  0  0  0  0  0
  1  2  2  0
  2  3  1  0
  2  4  1  0
  4  5  1  0
  5  6  2  0
  5  7  1  0
  7  8  1  6
  7 15  1  0
  7 24  1  0
  8  9  1  0
  9 10  1  0
 10 11  1  0
 10 12  1  0
 12 13  1  0
 12 14  1  0
 15 16  1  0
 16 17  2  0
 16 18  1  0
 18 19  1  0
 19 20  1  0
 19 24  1  0
 20 21  1  0
 21 22  1  0
 22 23  1  0
 24 23  1  1
M  END
