
     RDKit          3D

 13 14  0  0  0  0  0  0  0  0999 V2000
   -2.5070   -2.3280   -0.2880 C   0  0  0  0  0  0  0  0  0  0  0  0
   -1.4170   -1.3360   -0.1610 C   0  0  0  0  0  0  0  0  0  0  0  0
   -1.7520    0.0180   -0.1410 C   0  0  0  0  0  0  0  0  0  0  0  0
   -0.7900    0.9930   -0.0250 C   0  0  0  0  0  0  0  0  0  0  0  0
   -1.1610    2.4210   -0.0050 C   0  0  0  0  0  0  0  0  0  0  0  0
    0.5270    0.6340    0.0730 C   0  0  0  0  0  0  0  0  0  0  0  0
    1.5040    1.5850    0.1890 C   0  0  0  0  0  0  0  0  0  0  0  0
    1.2510    2.7980    0.2110 O   0  0  0  0  0  0  0  0  0  0  0  0
    2.8330    1.1620    0.2850 C   0  0  0  0  0  0  0  0  0  0  0  0
    3.1820   -0.1560    0.2670 C   0  0  0  0  0  0  0  0  0  0  0  0
    2.2050   -1.0580    0.1530 N   0  0  0  0  0  0  0  0  0  0  0  0
    0.9040   -0.7200    0.0560 C   0  0  0  0  0  0  0  0  0  0  0  0
   -0.0790   -1.6800   -0.0610 C   0  0  0  0  0  0  0  0  0  0  0  0
  1  2  1  0
  2  3  2  0
  2 13  1  0
  3  4  1  0
  4  5  1  0
  4  6  2  0
  6  7  1  0
  6 12  1  0
  7  8  2  0
  7  9  1  0
  9 10  2  0
 10 11  1  0
 11 12  1  0
 12 13  2  0
M  END
