
     RDKit          3D

 13 14  0  0  0  0  0  0  0  0999 V2000
   -3.4300    0.4740    0.4900 C   0  0  0  0  0  0  0  0  0  0  0  0
   -2.6950    0.2730   -0.8130 C   0  0  0  0  0  0  0  0  0  0  0  0
   -1.3210   -0.1530   -0.5100 C   0  0  0  0  0  0  0  0  0  0  0  0
   -0.3500    0.8370   -0.3540 C   0  0  0  0  0  0  0  0  0  0  0  0
    0.9650    0.5290   -0.0670 C   0  0  0  0  0  0  0  0  0  0  0  0
    1.9460    1.4860    0.0920 C   0  0  0  0  0  0  0  0  0  0  0  0
    3.2470    1.1290    0.3780 C   0  0  0  0  0  0  0  0  0  0  0  0
    3.5580   -0.2180    0.5030 C   0  0  0  0  0  0  0  0  0  0  0  0
    2.5900   -1.1960    0.3470 C   0  0  0  0  0  0  0  0  0  0  0  0
    1.2810   -0.8100    0.0590 C   0  0  0  0  0  0  0  0  0  0  0  0
    0.3210   -1.7970   -0.0960 C   0  0  0  0  0  0  0  0  0  0  0  0
    0.6480   -3.0120    0.0270 O   0  0  0  0  0  0  0  0  0  0  0  0
   -0.9560   -1.4510   -0.3760 N   0  0  0  0  0  0  0  0  0  0  0  0
  1  2  1  0
  2  3  1  0
  3  4  2  0
  3 13  1  0
  4  5  1  0
  5  6  2  0
  5 10  1  0
  6  7  1  0
  7  8  2  0
  8  9  1  0
  9 10  2  0
 10 11  1  0
 11 12  2  0
 11 13  1  0
M  END
