
     RDKit          3D

 13 14  0  0  0  0  0  0  0  0999 V2000
    4.5130    0.0920    0.2350 C   0  0  0  0  0  0  0  0  0  0  0  0
    3.5410   -0.7310    0.4890 C   0  0  0  0  0  0  0  0  0  0  0  0
    2.3500   -0.3270   -0.2170 C   0  0  0  0  0  0  0  0  0  0  0  0
    0.9990   -1.0140   -0.1620 C   0  0  0  0  0  0  0  0  0  0  0  0
    0.0880   -0.2780   -0.9940 N   0  0  0  0  0  0  0  0  0  0  0  0
   -1.2540   -0.7910   -0.8770 C   0  0  0  0  0  0  0  0  0  0  0  0
   -1.7150   -0.4120    0.5480 C   0  0  2  0  0  0  0  0  0  0  0  0
   -3.1960   -0.7610    0.5990 C   0  0  0  0  0  0  0  0  0  0  0  0
   -3.7680    0.5290    0.0350 C   0  0  0  0  0  0  0  0  0  0  0  0
   -2.8460    1.5480    0.6480 C   0  0  0  0  0  0  0  0  0  0  0  0
   -1.6260    0.9410    0.6890 O   0  0  0  0  0  0  0  0  0  0  0  0
    2.6190    0.7720   -0.9180 C   0  0  0  0  0  0  0  0  0  0  0  0
    4.0300    1.1400   -0.6900 C   0  0  0  0  0  0  0  0  0  0  0  0
  1  2  2  0
  1 13  1  0
  2  3  1  0
  3  4  1  0
  3 12  2  0
  4  5  1  0
  5  6  1  0
  7  6  1  6
  7  8  1  0
  7 11  1  0
  8  9  1  0
  9 10  1  0
 10 11  1  0
 12 13  1  0
M  END
