
     RDKit          3D

 13 14  0  0  0  0  0  0  0  0999 V2000
    3.7160    1.4270   -0.4970 C   0  0  0  0  0  0  0  0  0  0  0  0
    3.8170   -0.0350   -0.2120 C   0  0  0  0  0  0  0  0  0  0  0  0
    2.4230   -0.5420    0.0660 C   0  0  0  0  0  0  0  0  0  0  0  0
    2.0590   -1.8300    0.3740 C   0  0  0  0  0  0  0  0  0  0  0  0
    0.6960   -1.8480    0.5490 C   0  0  0  0  0  0  0  0  0  0  0  0
    0.2650   -0.5550    0.3400 C   0  0  0  0  0  0  0  0  0  0  0  0
   -1.1340   -0.0850    0.4200 C   0  0  0  0  0  0  0  0  0  0  0  0
   -1.4410    1.1600    0.2050 C   0  0  0  0  0  0  0  0  0  0  0  0
   -2.8310    1.7010    0.2690 C   0  0  0  0  0  0  0  0  0  0  0  0
   -3.7270    0.7610    0.9250 N   0  0  0  0  0  0  0  0  0  0  0  0
   -3.5170   -0.5260    0.2890 C   0  0  0  0  0  0  0  0  0  0  0  0
   -2.1830   -1.0650    0.7510 C   0  0  0  0  0  0  0  0  0  0  0  0
    1.3250    0.1650    0.0600 O   0  0  0  0  0  0  0  0  0  0  0  0
  1  2  1  0
  2  3  1  0
  3  4  2  0
  3 13  1  0
  4  5  1  0
  5  6  2  0
  6  7  1  0
  6 13  1  0
  7  8  2  0
  7 12  1  0
  8  9  1  0
  9 10  1  0
 10 11  1  0
 11 12  1  0
M  END
