
     RDKit          3D

 25 26  0  0  0  0  0  0  0  0999 V2000
    3.4420   -2.2110   -0.0060 C   0  0  0  0  0  0  0  0  0  0  0  0
    2.7470   -0.9470   -0.4260 C   0  0  2  0  0  0  0  0  0  0  0  0
    3.7050    0.1780   -0.4800 C   0  0  0  0  0  0  0  0  0  0  0  0
    3.9420    0.7900   -1.6120 C   0  0  0  0  0  0  0  0  0  0  0  0
    4.8830    1.8890   -1.6450 C   0  0  0  0  0  0  0  0  0  0  0  0
    5.4660    2.2540   -0.6080 O   0  0  0  0  0  0  0  0  0  0  0  0
    5.1820    2.6060   -2.8890 C   0  0  0  0  0  0  0  0  0  0  0  0
    4.5890    2.2330   -3.9400 O   0  0  0  0  0  0  0  0  0  0  0  0
    6.0710    3.6480   -2.9330 O   0  0  0  0  0  0  0  0  0  0  0  0
    1.6550   -0.5680    0.5260 C   0  0  0  0  0  0  0  0  0  0  0  0
    1.4770   -1.2880    1.4660 O   0  0  0  0  0  0  0  0  0  0  0  0
    0.9110    0.6680    0.1960 C   0  0  0  0  0  0  0  0  0  0  0  0
   -0.1750    1.0260    1.1430 C   0  0  0  0  0  0  0  0  0  0  0  0
   -1.2690   -0.0060    1.2760 C   0  0  1  0  0  0  0  0  0  0  0  0
   -2.2970    0.4600    2.2440 C   0  0  0  0  0  0  0  0  0  0  0  0
   -2.4180    0.0130    3.3550 O   0  0  0  0  0  0  0  0  0  0  0  0
   -3.2110    1.5390    1.7850 C   0  0  0  0  0  0  0  0  0  0  0  0
   -3.9080    1.0110    0.5540 C   0  0  0  0  0  0  0  0  0  0  0  0
   -3.3790   -0.3170    0.0830 C   0  0  2  0  0  0  0  0  0  0  0  0
   -4.0670   -0.6200   -1.2340 C   0  0  0  0  0  0  0  0  0  0  0  0
   -3.6510   -1.4270    1.0290 C   0  0  0  0  0  0  0  0  0  0  0  0
   -4.5480   -1.6070    1.8200 O   0  0  0  0  0  0  0  0  0  0  0  0
   -2.5290   -2.4220    0.8570 C   0  0  0  0  0  0  0  0  0  0  0  0
   -1.6780   -1.8590   -0.2670 C   0  0  0  0  0  0  0  0  0  0  0  0
   -1.8800   -0.3740   -0.0390 C   0  0  2  0  0  0  0  0  0  0  0  0
  2  1  1  1
  2  3  1  0
  2 10  1  0
  3  4  2  3
  4  5  1  0
  5  6  2  0
  5  7  1  0
  7  8  2  0
  7  9  1  0
 10 11  2  0
 10 12  1  0
 12 13  1  0
 14 13  1  6
 14 15  1  0
 14 25  1  0
 15 16  2  0
 15 17  1  0
 17 18  1  0
 18 19  1  0
 19 20  1  6
 19 21  1  0
 19 25  1  0
 21 22  2  0
 21 23  1  0
 23 24  1  0
 25 24  1  1
M  END
