
     RDKit          3D

 13 14  0  0  0  0  0  0  0  0999 V2000
    0.9460   -1.6430   -1.3620 O   0  0  0  0  0  0  0  0  0  0  0  0
    1.3010   -0.6830   -0.6220 C   0  0  0  0  0  0  0  0  0  0  0  0
    0.2680    0.0400    0.0250 N   0  0  0  0  0  0  0  0  0  0  0  0
   -1.1390   -0.2360   -0.0970 C   0  0  2  0  0  0  0  0  0  0  0  0
   -1.9370    0.9610   -0.5440 C   0  0  0  0  0  0  0  0  0  0  0  0
   -3.3510    0.5690   -0.1190 C   0  0  0  0  0  0  0  0  0  0  0  0
   -3.2090   -0.4440    0.9690 C   0  0  0  0  0  0  0  0  0  0  0  0
   -1.7260   -0.4670    1.2980 C   0  0  0  0  0  0  0  0  0  0  0  0
    2.7070   -0.3450   -0.4490 C   0  0  0  0  0  0  0  0  0  0  0  0
    3.1870    0.6430    0.3050 C   0  0  0  0  0  0  0  0  0  0  0  0
    4.6420    0.6540    0.2130 C   0  0  0  0  0  0  0  0  0  0  0  0
    4.9150   -0.3500   -0.6040 C   0  0  0  0  0  0  0  0  0  0  0  0
    3.8680   -0.9870   -1.0400 C   0  0  0  0  0  0  0  0  0  0  0  0
  1  2  2  0
  2  3  1  0
  2  9  1  0
  4  3  1  1
  4  5  1  0
  4  8  1  0
  5  6  1  0
  6  7  1  0
  7  8  1  0
  9 10  2  0
  9 13  1  0
 10 11  1  0
 11 12  2  0
 12 13  2  0
M  END
