
     RDKit          3D

 11 11  0  0  0  0  0  0  0  0999 V2000
    3.1770   -1.0700    0.0590 C   0  0  0  0  0  0  0  0  0  0  0  0
    2.2320   -0.0600    0.2020 O   0  0  0  0  0  0  0  0  0  0  0  0
    1.0850   -0.3660   -0.5230 C   0  0  0  0  0  0  0  0  0  0  0  0
    0.0640    0.7280   -0.3670 C   0  0  2  0  0  0  0  0  0  0  0  0
    0.6070    1.9220   -0.8400 O   0  0  0  0  0  0  0  0  0  0  0  0
   -0.2730    0.8840    1.0970 C   0  0  0  0  0  0  0  0  0  0  0  0
   -0.9630   -0.2080    1.5870 O   0  0  0  0  0  0  0  0  0  0  0  0
   -1.9650   -0.6530    0.7470 C   0  0  0  0  0  0  0  0  0  0  0  0
   -2.2060    0.2680   -0.4240 C   0  0  2  0  0  0  0  0  0  0  0  0
   -3.1420   -0.3540   -1.2580 O   0  0  0  0  0  0  0  0  0  0  0  0
   -1.0300    0.4300   -1.1450 O   0  0  0  0  0  0  0  0  0  0  0  0
  1  2  1  0
  2  3  1  0
  3  4  1  0
  4  5  1  6
  4  6  1  0
  4 11  1  0
  6  7  1  0
  7  8  1  0
  8  9  1  0
  9 10  1  6
  9 11  1  0
M  END
