
     RDKit          3D

 11 11  0  0  0  0  0  0  0  0999 V2000
    2.3110    0.9270    0.9150 O   0  0  0  0  0  0  0  0  0  0  0  0
    1.9940   -0.4290    0.9300 C   0  0  0  0  0  0  0  0  0  0  0  0
    1.2420   -0.8710   -0.2830 C   0  0  2  0  0  0  0  0  0  0  0  0
    2.0290   -0.6410   -1.4430 O   0  0  0  0  0  0  0  0  0  0  0  0
   -0.0540   -0.1900   -0.5170 C   0  0  2  0  0  0  0  0  0  0  0  0
    0.0280    1.1860   -0.7210 O   0  0  0  0  0  0  0  0  0  0  0  0
   -1.1900    1.5520   -1.2910 C   0  0  0  0  0  0  0  0  0  0  0  0
   -2.2800    1.4290   -0.4990 O   0  0  0  0  0  0  0  0  0  0  0  0
   -2.3940    0.2710    0.2270 C   0  0  0  0  0  0  0  0  0  0  0  0
   -1.0870   -0.3860    0.5670 C   0  0  2  0  0  0  0  0  0  0  0  0
   -0.6150    0.0980    1.7870 O   0  0  0  0  0  0  0  0  0  0  0  0
  1  2  1  0
  2  3  1  0
  3  4  1  6
  3  5  1  0
  5  6  1  1
  5 10  1  0
  6  7  1  0
  7  8  1  0
  8  9  1  0
  9 10  1  0
 10 11  1  1
M  END
