
     RDKit          3D

 16 17  0  0  0  0  0  0  0  0999 V2000
   -3.6270   -1.2480   -0.2180 C   0  0  0  0  0  0  0  0  0  0  0  0
   -3.2300    0.0640    0.2710 N   0  0  0  0  0  0  0  0  0  0  0  0
   -3.4310    0.4730    1.6560 C   0  0  0  0  0  0  0  0  0  0  0  0
   -2.6310    1.0020   -0.5730 N   0  0  0  0  0  0  0  0  0  0  0  0
   -1.3430    0.9260   -0.8320 C   0  0  0  0  0  0  0  0  0  0  0  0
   -0.6940    1.9200   -1.7300 C   0  0  0  0  0  0  0  0  0  0  0  0
    0.5630    0.7660   -2.4390 S   0  0  0  0  0  0  0  0  0  0  0  0
    0.5680   -0.2860   -0.9960 C   0  0  0  0  0  0  0  0  0  0  0  0
    1.5730   -1.2030   -0.7000 N   0  0  0  0  0  0  0  0  0  0  0  0
    2.6860   -0.8710   -0.1360 C   0  0  0  0  0  0  0  0  0  0  0  0
    3.0360    0.4790    0.2590 C   0  0  0  0  0  0  0  0  0  0  0  0
    4.2520    0.4060    0.7990 C   0  0  0  0  0  0  0  0  0  0  0  0
    4.7040   -0.9830    0.7610 C   0  0  0  0  0  0  0  0  0  0  0  0
    6.2560   -1.5270    1.3710 Cl  0  0  0  0  0  0  0  0  0  0  0  0
    3.7840   -1.7570    0.2080 C   0  0  0  0  0  0  0  0  0  0  0  0
   -0.4850   -0.0400   -0.3230 N   0  0  0  0  0  0  0  0  0  0  0  0
  1  2  1  0
  2  3  1  0
  2  4  1  0
  4  5  2  3
  5  6  1  0
  5 16  1  0
  6  7  1  0
  7  8  1  0
  8  9  1  0
  8 16  2  0
  9 10  2  3
 10 11  1  0
 10 15  1  0
 11 12  2  0
 12 13  1  0
 13 14  1  0
 13 15  2  0
M  END
