
     RDKit          3D

 16 16  0  0  0  0  0  0  0  0999 V2000
    5.1300    0.3300    0.1440 C   0  0  0  0  0  0  0  0  0  0  0  0
    3.9300   -0.0620    0.8300 O   0  0  0  0  0  0  0  0  0  0  0  0
    2.7120   -0.1390    0.1840 C   0  0  0  0  0  0  0  0  0  0  0  0
    2.6800    0.1510   -1.0470 O   0  0  0  0  0  0  0  0  0  0  0  0
    1.5010   -0.5160    0.7990 N   0  0  0  0  0  0  0  0  0  0  0  0
    0.2280   -0.5850    0.0820 C   0  0  1  0  0  0  0  0  0  0  0  0
   -0.3330   -1.9760    0.0820 C   0  0  0  0  0  0  0  0  0  0  0  0
   -1.4310   -2.0020   -0.7620 O   0  0  0  0  0  0  0  0  0  0  0  0
   -2.0890   -0.8050   -0.8640 C   0  0  0  0  0  0  0  0  0  0  0  0
   -2.1210   -0.0410    0.4660 C   0  0  2  0  0  0  0  0  0  0  0  0
   -2.5410   -0.8940    1.4550 O   0  0  0  0  0  0  0  0  0  0  0  0
   -3.0350    1.0950    0.3500 C   0  0  0  0  0  0  0  0  0  0  0  0
   -2.8680    2.1510   -0.5870 N   0  0  0  0  0  0  0  0  0  0  0  0
   -4.0420    1.1460    1.1310 O   0  0  0  0  0  0  0  0  0  0  0  0
   -0.6850    0.4320    0.6900 C   0  0  2  0  0  0  0  0  0  0  0  0
   -0.5760    1.6480   -0.0160 O   0  0  0  0  0  0  0  0  0  0  0  0
  1  2  1  0
  2  3  1  0
  3  4  2  0
  3  5  1  0
  6  5  1  1
  6  7  1  0
  6 15  1  0
  7  8  1  0
  8  9  1  0
  9 10  1  0
 10 11  1  1
 10 12  1  0
 10 15  1  0
 12 13  1  0
 12 14  2  0
 15 16  1  6
M  END
