
     RDKit          3D

 23 23  0  0  0  0  0  0  0  0999 V2000
    3.0620   -1.2490    0.8070 C   0  0  0  0  0  0  0  0  0  0  0  0
    2.1860   -0.3800   -0.0700 C   0  0  2  0  0  0  0  0  0  0  0  0
    2.7850   -0.3490   -1.3270 O   0  0  0  0  0  0  0  0  0  0  0  0
    2.1790    1.0130    0.4930 C   0  0  0  0  0  0  0  0  0  0  0  0
    3.4060    1.5820    0.6740 O   0  0  0  0  0  0  0  0  0  0  0  0
    4.1980    1.7410   -0.4250 C   0  0  0  0  0  0  0  0  0  0  0  0
    3.6240    2.5390   -1.4180 O   0  0  0  0  0  0  0  0  0  0  0  0
    0.7770   -0.9390   -0.1660 C   0  0  1  0  0  0  0  0  0  0  0  0
    0.9200   -2.4080   -0.5630 C   0  0  0  0  0  0  0  0  0  0  0  0
    0.2550   -0.9290    1.1200 O   0  0  0  0  0  0  0  0  0  0  0  0
   -1.1150   -1.2340    1.0980 C   0  0  1  0  0  0  0  0  0  0  0  0
   -1.6030   -1.4600    2.4380 C   0  0  0  0  0  0  0  0  0  0  0  0
   -2.7910   -1.8050    2.6330 O   0  0  0  0  0  0  0  0  0  0  0  0
   -0.8030   -1.3130    3.5620 O   0  0  0  0  0  0  0  0  0  0  0  0
   -1.7440   -0.0330    0.3660 C   0  0  2  0  0  0  0  0  0  0  0  0
   -1.0700    1.1000    0.8290 O   0  0  0  0  0  0  0  0  0  0  0  0
   -3.1750    0.0830    0.6600 C   0  0  0  0  0  0  0  0  0  0  0  0
   -3.8620    1.2390    0.0120 C   0  0  0  0  0  0  0  0  0  0  0  0
   -3.2790    2.4720    0.3870 O   0  0  0  0  0  0  0  0  0  0  0  0
   -1.3000   -0.2710   -1.0430 C   0  0  2  0  0  0  0  0  0  0  0  0
   -1.7730    0.6820   -2.0870 C   0  0  0  0  0  0  0  0  0  0  0  0
   -1.7220   -1.5740   -1.3920 O   0  0  0  0  0  0  0  0  0  0  0  0
    0.0940   -0.2060   -1.0660 O   0  0  0  0  0  0  0  0  0  0  0  0
  2  1  1  1
  2  3  1  0
  2  4  1  0
  2  8  1  0
  4  5  1  0
  5  6  1  0
  6  7  1  0
  8  9  1  6
  8 10  1  0
  8 23  1  0
 10 11  1  0
 11 12  1  1
 11 15  1  0
 12 13  2  0
 12 14  1  0
 15 16  1  1
 15 17  1  0
 15 20  1  0
 17 18  1  0
 18 19  1  0
 20 21  1  6
 20 22  1  0
 20 23  1  0
M  END
