
     RDKit          3D

 24 24  0  0  0  0  0  0  0  0999 V2000
   -6.5980   -1.0460    0.9810 C   0  0  0  0  0  0  0  0  0  0  0  0
   -5.5010   -1.6070    0.3280 O   0  0  0  0  0  0  0  0  0  0  0  0
   -4.3320   -1.5030    1.0720 C   0  0  1  0  0  0  0  0  0  0  0  0
   -3.8950   -2.8170    1.3090 O   0  0  0  0  0  0  0  0  0  0  0  0
   -3.2830   -0.8520    0.2040 C   0  0  1  0  0  0  0  0  0  0  0  0
   -3.0100   -1.5670   -0.9360 O   0  0  0  0  0  0  0  0  0  0  0  0
   -3.7150    0.5480   -0.2170 C   0  0  0  0  0  0  0  0  0  0  0  0
   -2.4010    1.0610   -0.8200 C   0  0  1  0  0  0  0  0  0  0  0  0
   -2.3330    2.4330   -0.8230 O   0  0  0  0  0  0  0  0  0  0  0  0
   -1.3120    0.4170    0.0130 C   0  0  2  0  0  0  0  0  0  0  0  0
   -0.6440    1.3930    0.7540 O   0  0  0  0  0  0  0  0  0  0  0  0
   -0.4000   -0.2920   -0.7520 O   0  0  0  0  0  0  0  0  0  0  0  0
    0.2970    0.5050   -1.6440 C   0  0  2  0  0  0  0  0  0  0  0  0
    0.1290   -0.0340   -2.9150 O   0  0  0  0  0  0  0  0  0  0  0  0
    1.7610    0.4200   -1.3090 C   0  0  0  0  0  0  0  0  0  0  0  0
    2.5670   -0.0670   -2.1130 O   0  0  0  0  0  0  0  0  0  0  0  0
    2.1210    0.9090   -0.0790 O   0  0  0  0  0  0  0  0  0  0  0  0
    3.4850    0.8750    0.3510 C   0  0  0  0  0  0  0  0  0  0  0  0
    3.9680   -0.5380    0.4560 C   0  0  0  0  0  0  0  0  0  0  0  0
    5.2080   -0.6960    0.8470 O   0  0  0  0  0  0  0  0  0  0  0  0
    6.3120   -0.3890    0.2080 C   0  0  0  0  0  0  0  0  0  0  0  0
    6.5790    1.0160   -0.2240 C   0  0  0  0  0  0  0  0  0  0  0  0
    6.5820    1.8670    0.8650 O   0  0  0  0  0  0  0  0  0  0  0  0
   -2.0030   -0.5700    0.9320 C   0  0  0  0  0  0  0  0  0  0  0  0
  1  2  1  0
  2  3  1  0
  3  4  1  6
  3  5  1  0
  5  6  1  6
  5  7  1  0
  5 24  1  0
  7  8  1  0
  8  9  1  1
  8 10  1  0
 10 11  1  1
 10 12  1  0
 10 24  1  0
 12 13  1  0
 13 14  1  6
 13 15  1  0
 15 16  2  0
 15 17  1  0
 17 18  1  0
 18 19  1  0
 19 20  1  0
 20 21  1  0
 21 22  1  0
 22 23  1  0
M  END
