
     RDKit          3D

 24 24  0  0  0  0  0  0  0  0999 V2000
    5.4660    1.2290    1.5400 O   0  0  0  0  0  0  0  0  0  0  0  0
    6.2220    1.1640    0.3850 C   0  0  0  0  0  0  0  0  0  0  0  0
    5.5660    0.3990   -0.7290 C   0  0  1  0  0  0  0  0  0  0  0  0
    6.4680    0.4710   -1.8450 O   0  0  0  0  0  0  0  0  0  0  0  0
    5.4220   -0.9560   -0.5160 O   0  0  0  0  0  0  0  0  0  0  0  0
    4.1490   -1.3490   -0.8210 C   0  0  0  0  0  0  0  0  0  0  0  0
    3.0550   -0.8070    0.0560 C   0  0  2  0  0  0  0  0  0  0  0  0
    3.2630   -1.3810    1.4370 C   0  0  0  0  0  0  0  0  0  0  0  0
    2.2420   -0.9720    2.2870 O   0  0  0  0  0  0  0  0  0  0  0  0
    1.8590   -1.2410   -0.4970 O   0  0  0  0  0  0  0  0  0  0  0  0
    1.0100   -0.2290   -0.8750 C   0  0  1  0  0  0  0  0  0  0  0  0
    0.8420   -0.3470   -2.2760 O   0  0  0  0  0  0  0  0  0  0  0  0
   -0.3470   -0.5150   -0.2740 C   0  0  2  0  0  0  0  0  0  0  0  0
   -0.7620   -1.7640   -0.7890 O   0  0  0  0  0  0  0  0  0  0  0  0
   -1.3860    0.4860   -0.7260 C   0  0  2  0  0  0  0  0  0  0  0  0
   -1.0590    1.7580   -0.2610 O   0  0  0  0  0  0  0  0  0  0  0  0
   -2.7100    0.0350   -0.0930 C   0  0  0  0  0  0  0  0  0  0  0  0
   -3.7330    0.9290   -0.4360 O   0  0  0  0  0  0  0  0  0  0  0  0
   -4.8950    0.4890    0.1500 C   0  0  1  0  0  0  0  0  0  0  0  0
   -5.5820    1.5370    0.9930 C   0  0  0  0  0  0  0  0  0  0  0  0
   -6.9300    1.3440    0.9080 O   0  0  0  0  0  0  0  0  0  0  0  0
   -7.2040    0.3500    0.0100 C   0  0  0  0  0  0  0  0  0  0  0  0
   -5.9930    0.2390   -0.8930 C   0  0  2  0  0  0  0  0  0  0  0  0
   -5.8630   -0.9850   -1.4910 O   0  0  0  0  0  0  0  0  0  0  0  0
  1  2  1  0
  2  3  1  0
  3  4  1  6
  3  5  1  0
  5  6  1  0
  7  6  1  6
  7  8  1  0
  7 10  1  0
  8  9  1  0
 10 11  1  0
 11 12  1  6
 11 13  1  0
 13 14  1  6
 13 15  1  0
 15 16  1  1
 15 17  1  0
 17 18  1  0
 19 18  1  6
 19 20  1  0
 19 23  1  0
 20 21  1  0
 21 22  1  0
 22 23  1  0
 23 24  1  1
M  END
