
     RDKit          3D

 24 24  0  0  0  0  0  0  0  0999 V2000
    3.1910    0.6600   -1.4590 O   0  0  0  0  0  0  0  0  0  0  0  0
    2.3660    0.2240   -0.6100 C   0  0  0  0  0  0  0  0  0  0  0  0
    2.8690   -0.3730    0.5300 O   0  0  0  0  0  0  0  0  0  0  0  0
    4.2410   -0.5180    0.7850 C   0  0  0  0  0  0  0  0  0  0  0  0
    4.9640   -1.3440   -0.2550 C   0  0  0  0  0  0  0  0  0  0  0  0
    6.3090   -1.4620    0.0330 O   0  0  0  0  0  0  0  0  0  0  0  0
    0.8770    0.3440   -0.8190 C   0  0  1  0  0  0  0  0  0  0  0  0
    0.3060   -1.0160   -0.8270 C   0  0  2  0  0  0  0  0  0  0  0  0
   -0.9020   -1.1120   -1.5410 O   0  0  0  0  0  0  0  0  0  0  0  0
    0.1930   -1.7050    0.4820 C   0  0  0  0  0  0  0  0  0  0  0  0
   -1.1090   -1.6330    1.0310 O   0  0  0  0  0  0  0  0  0  0  0  0
   -1.9060   -2.6820    0.5770 C   0  0  0  0  0  0  0  0  0  0  0  0
   -3.2670   -2.1550    0.1600 C   0  0  1  0  0  0  0  0  0  0  0  0
   -4.2840   -3.0130    0.6390 O   0  0  0  0  0  0  0  0  0  0  0  0
   -3.5100   -0.8820    0.6370 O   0  0  0  0  0  0  0  0  0  0  0  0
   -3.8140    0.0330   -0.3670 C   0  0  0  0  0  0  0  0  0  0  0  0
   -3.1960    1.3790   -0.1090 C   0  0  0  0  0  0  0  0  0  0  0  0
   -2.0030    1.3010    0.5850 O   0  0  0  0  0  0  0  0  0  0  0  0
   -0.9670    1.9200   -0.1520 C   0  0  1  0  0  0  0  0  0  0  0  0
   -1.0020    3.3710    0.2910 C   0  0  0  0  0  0  0  0  0  0  0  0
   -0.0370    4.1420   -0.3400 O   0  0  0  0  0  0  0  0  0  0  0  0
    0.3690    1.3240    0.1670 C   0  0  1  0  0  0  0  0  0  0  0  0
    0.3540    0.8870    1.4740 O   0  0  0  0  0  0  0  0  0  0  0  0
    1.2810    2.3970    0.1380 O   0  0  0  0  0  0  0  0  0  0  0  0
  1  2  2  0
  2  3  1  0
  7  2  1  1
  3  4  1  0
  4  5  1  0
  5  6  1  0
  7  8  1  0
  7 22  1  0
  8  9  1  1
  8 10  1  0
 10 11  1  0
 11 12  1  0
 12 13  1  0
 13 14  1  1
 13 15  1  0
 15 16  1  0
 16 17  1  0
 17 18  1  0
 18 19  1  0
 19 20  1  1
 19 22  1  0
 20 21  1  0
 22 23  1  1
 22 24  1  0
M  END
