
     RDKit          3D

 23 24  0  0  0  0  0  0  0  0999 V2000
    2.2560    0.9760   -2.5680 O   0  0  0  0  0  0  0  0  0  0  0  0
    1.7700    1.1030   -1.3920 C   0  0  0  0  0  0  0  0  0  0  0  0
    1.0090    2.1900   -1.0900 O   0  0  0  0  0  0  0  0  0  0  0  0
    1.0330    2.9440    0.0770 C   0  0  0  0  0  0  0  0  0  0  0  0
   -0.0760    2.7300    0.9000 O   0  0  0  0  0  0  0  0  0  0  0  0
   -1.2080    2.5930    0.1020 C   0  0  0  0  0  0  0  0  0  0  0  0
   -2.3040    1.8610    0.8720 C   0  0  1  0  0  0  0  0  0  0  0  0
   -3.5480    2.0340    0.3160 O   0  0  0  0  0  0  0  0  0  0  0  0
   -1.9300    0.4180    1.0960 C   0  0  0  0  0  0  0  0  0  0  0  0
   -1.9870   -0.4090   -0.1390 C   0  0  2  0  0  0  0  0  0  0  0  0
   -2.5490    0.3670   -1.1800 O   0  0  0  0  0  0  0  0  0  0  0  0
   -2.9460   -1.5950    0.0250 C   0  0  0  0  0  0  0  0  0  0  0  0
   -2.2880   -2.6750    0.5610 O   0  0  0  0  0  0  0  0  0  0  0  0
   -1.3850   -3.1450   -0.3840 C   0  0  1  0  0  0  0  0  0  0  0  0
   -2.0270   -4.1300   -1.1580 O   0  0  0  0  0  0  0  0  0  0  0  0
   -0.9260   -2.1770   -1.2440 O   0  0  0  0  0  0  0  0  0  0  0  0
   -0.6820   -0.9490   -0.6040 C   0  0  2  0  0  0  0  0  0  0  0  0
    0.3280   -1.1580    0.4730 C   0  0  0  0  0  0  0  0  0  0  0  0
    1.2100   -0.0710    0.6130 O   0  0  0  0  0  0  0  0  0  0  0  0
    2.1010    0.0070   -0.4450 C   0  0  2  0  0  0  0  0  0  0  0  0
    3.5210    0.1920   -0.0080 C   0  0  0  0  0  0  0  0  0  0  0  0
    3.9760   -0.8710    0.9650 C   0  0  0  0  0  0  0  0  0  0  0  0
    5.3020   -0.6290    1.3210 O   0  0  0  0  0  0  0  0  0  0  0  0
  1  2  2  0
  2  3  1  0
  2 20  1  0
  3  4  1  0
  4  5  1  0
  5  6  1  0
  6  7  1  0
  7  8  1  6
  7  9  1  0
  9 10  1  0
 10 11  1  6
 10 12  1  0
 10 17  1  0
 12 13  1  0
 13 14  1  0
 14 15  1  6
 14 16  1  0
 16 17  1  0
 17 18  1  1
 18 19  1  0
 19 20  1  0
 20 21  1  1
 21 22  1  0
 22 23  1  0
M  END
