
     RDKit          3D

 30 32  0  0  0  0  0  0  0  0999 V2000
    6.3260   -3.6960   -1.6880 C   0  0  0  0  0  0  0  0  0  0  0  0
    4.9660   -3.2670   -1.6610 C   0  0  0  0  0  0  0  0  0  0  0  0
    4.5730   -1.8740   -1.9630 C   0  0  0  0  0  0  0  0  0  0  0  0
    5.6750   -1.1180   -2.2440 C   0  0  0  0  0  0  0  0  0  0  0  0
    5.9250    0.1840   -2.3060 C   0  0  0  0  0  0  0  0  0  0  0  0
    4.9740    1.2140   -1.9390 C   0  0  2  0  0  0  0  0  0  0  0  0
    4.7730    2.2270   -2.8150 F   0  0  0  0  0  0  0  0  0  0  0  0
    5.5640    1.8410   -0.7430 F   0  0  0  0  0  0  0  0  0  0  0  0
    3.1590   -1.8570   -1.8130 C   0  0  0  0  0  0  0  0  0  0  0  0
    2.1140   -1.2190   -2.0750 C   0  0  0  0  0  0  0  0  0  0  0  0
    2.0480   -0.0020   -2.8950 C   0  0  0  0  0  0  0  0  0  0  0  0
    3.0520    0.2550   -3.5930 O   0  0  0  0  0  0  0  0  0  0  0  0
    0.9250    0.8620   -2.9580 N   0  0  0  0  0  0  0  0  0  0  0  0
   -0.2170    0.5880   -2.2230 C   0  0  0  0  0  0  0  0  0  0  0  0
   -1.2220    1.3760   -2.2780 O   0  0  0  0  0  0  0  0  0  0  0  0
   -0.2470   -0.5790   -1.4140 N   0  0  0  0  0  0  0  0  0  0  0  0
   -1.5180   -0.8020   -0.7410 C   0  0  0  0  0  0  0  0  0  0  0  0
   -1.6230   -0.1540    0.5430 N   0  0  0  0  0  0  0  0  0  0  0  0
   -2.8530    0.4190    1.0040 C   0  0  0  0  0  0  0  0  0  0  0  0
   -3.9710    0.4120    0.2750 C   0  0  0  0  0  0  0  0  0  0  0  0
   -5.1940    0.9130    0.7510 C   0  0  0  0  0  0  0  0  0  0  0  0
   -5.2220    1.4320    2.0820 C   0  0  0  0  0  0  0  0  0  0  0  0
   -4.0920    1.4480    2.8090 C   0  0  0  0  0  0  0  0  0  0  0  0
   -2.9100    0.9470    2.2860 C   0  0  0  0  0  0  0  0  0  0  0  0
   -4.2290    2.0030    4.1900 C   0  0  0  0  0  0  0  0  0  0  0  0
   -5.4970    1.6130    4.8840 C   0  0  0  0  0  0  0  0  0  0  0  0
   -6.6640    1.3600    4.0040 C   0  0  0  0  0  0  0  0  0  0  0  0
   -6.3870    1.9250    2.6740 O   0  0  0  0  0  0  0  0  0  0  0  0
    0.8450   -1.4580   -1.3150 C   0  0  0  0  0  0  0  0  0  0  0  0
    0.8100   -2.4870   -0.6020 O   0  0  0  0  0  0  0  0  0  0  0  0
  1  2  1  0
  2  3  2  3
  3  4  1  0
  3  9  1  0
  4  5  2  3
  5  6  1  0
  6  7  1  6
  6  8  1  0
  9 10  2  3
 10 11  1  0
 10 29  1  0
 11 12  2  0
 11 13  1  0
 13 14  1  0
 14 15  2  0
 14 16  1  0
 16 17  1  0
 16 29  1  0
 17 18  1  0
 18 19  1  0
 19 20  2  0
 19 24  1  0
 20 21  1  0
 21 22  2  0
 22 23  1  0
 22 28  1  0
 23 24  2  0
 23 25  1  0
 25 26  1  0
 26 27  1  0
 27 28  1  0
 29 30  2  0
M  END
