
     RDKit          3D

 31 34  0  0  0  0  0  0  0  0999 V2000
   -4.5130   -2.2100    0.5040 C   0  0  0  0  0  0  0  0  0  0  0  0
   -4.8260   -1.0610   -0.2860 N   0  0  0  0  0  0  0  0  0  0  0  0
   -6.2100   -0.8020   -0.6460 C   0  0  0  0  0  0  0  0  0  0  0  0
   -6.3460    0.2380   -1.7260 C   0  0  0  0  0  0  0  0  0  0  0  0
   -5.1780    0.2120   -2.6950 C   0  0  0  0  0  0  0  0  0  0  0  0
   -3.9480    0.5080   -1.8980 C   0  0  0  0  0  0  0  0  0  0  0  0
   -2.9730    1.3620   -2.3030 C   0  0  0  0  0  0  0  0  0  0  0  0
   -1.8620    1.5320   -1.5110 C   0  0  0  0  0  0  0  0  0  0  0  0
   -1.6800    0.8640   -0.2980 C   0  0  0  0  0  0  0  0  0  0  0  0
   -0.4810    1.0700    0.3980 N   0  0  0  0  0  0  0  0  0  0  0  0
   -0.1200    0.5820    1.6700 C   0  0  0  0  0  0  0  0  0  0  0  0
   -0.9660   -0.1200    2.3090 O   0  0  0  0  0  0  0  0  0  0  0  0
    1.1390    0.7960    2.3510 C   0  0  0  0  0  0  0  0  0  0  0  0
    1.3320    1.2980    3.6410 C   0  0  0  0  0  0  0  0  0  0  0  0
    2.6550    1.3790    3.8560 N   0  0  0  0  0  0  0  0  0  0  0  0
    3.3120    0.9470    2.7520 C   0  0  0  0  0  0  0  0  0  0  0  0
    4.6280    0.7830    2.4330 C   0  0  0  0  0  0  0  0  0  0  0  0
    5.0250    0.2580    1.1950 C   0  0  0  0  0  0  0  0  0  0  0  0
    4.1190   -0.1200    0.2270 C   0  0  0  0  0  0  0  0  0  0  0  0
    4.4480   -0.6580   -1.0570 C   0  0  0  0  0  0  0  0  0  0  0  0
    5.5590   -0.7450   -1.6770 C   0  0  0  0  0  0  0  0  0  0  0  0
    6.9310   -0.4230   -1.5270 C   0  0  0  0  0  0  0  0  0  0  0  0
    7.6470    0.1440   -0.6630 N   0  0  0  0  0  0  0  0  0  0  0  0
    3.2540   -1.2750   -1.8200 C   0  0  2  0  0  0  0  0  0  0  0  0
    2.6050   -2.0990   -0.9400 F   0  0  0  0  0  0  0  0  0  0  0  0
    3.7490   -2.0310   -2.8890 F   0  0  0  0  0  0  0  0  0  0  0  0
    2.4660   -0.2670   -2.2390 F   0  0  0  0  0  0  0  0  0  0  0  0
    2.7700    0.0690    0.5920 C   0  0  0  0  0  0  0  0  0  0  0  0
    2.3880    0.5820    1.8060 C   0  0  0  0  0  0  0  0  0  0  0  0
   -2.7030    0.0210    0.0480 C   0  0  0  0  0  0  0  0  0  0  0  0
   -3.8130   -0.1610   -0.7220 C   0  0  0  0  0  0  0  0  0  0  0  0
  1  2  1  0
  2  3  1  0
  2 31  1  0
  3  4  1  0
  4  5  1  0
  5  6  1  0
  6  7  2  0
  6 31  1  0
  7  8  1  0
  8  9  2  0
  9 10  1  0
  9 30  1  0
 10 11  1  0
 11 12  2  0
 11 13  1  0
 13 14  2  0
 13 29  1  0
 14 15  1  0
 15 16  1  0
 16 17  2  0
 16 29  1  0
 17 18  1  0
 18 19  2  0
 19 20  1  0
 19 28  1  0
 20 21  2  3
 20 24  1  0
 21 22  1  0
 22 23  2  0
 24 25  1  1
 24 26  1  0
 24 27  1  0
 28 29  2  0
 30 31  2  0
M  END
