
     RDKit          3D

 31 34  0  0  0  0  0  0  0  0999 V2000
   -4.0150    4.6060   -0.3960 C   0  0  0  0  0  0  0  0  0  0  0  0
   -4.0770    3.3140    0.3560 C   0  0  0  0  0  0  0  0  0  0  0  0
   -2.9990    2.4590    0.4200 C   0  0  0  0  0  0  0  0  0  0  0  0
   -3.0800    1.2730    1.1210 C   0  0  0  0  0  0  0  0  0  0  0  0
   -4.2260    0.8850    1.7840 C   0  0  0  0  0  0  0  0  0  0  0  0
   -5.3080    1.7260    1.7290 C   0  0  0  0  0  0  0  0  0  0  0  0
   -5.2210    2.9210    1.0220 C   0  0  0  0  0  0  0  0  0  0  0  0
   -6.3200    3.7390    0.9860 F   0  0  0  0  0  0  0  0  0  0  0  0
   -4.4550   -0.3160    2.5500 N   0  0  0  0  0  0  0  0  0  0  0  0
   -3.5890   -1.4140    2.8090 C   0  0  0  0  0  0  0  0  0  0  0  0
   -2.3820   -1.6770    2.2820 C   0  0  0  0  0  0  0  0  0  0  0  0
   -1.6470   -0.8710    1.2850 C   0  0  0  0  0  0  0  0  0  0  0  0
   -0.7560   -1.5090    0.5760 C   0  0  0  0  0  0  0  0  0  0  0  0
    0.0310   -0.8460   -0.4330 C   0  0  0  0  0  0  0  0  0  0  0  0
    0.9720   -1.3260   -1.1900 C   0  0  0  0  0  0  0  0  0  0  0  0
    1.6220   -0.4530   -2.1710 N   0  0  0  0  0  0  0  0  0  0  0  0
    2.7500    0.3440   -1.8090 C   0  0  1  0  0  0  0  0  0  0  0  0
    2.3860    1.3090   -0.6720 C   0  0  0  0  0  0  0  0  0  0  0  0
    3.6590    2.0220   -0.2850 C   0  0  0  0  0  0  0  0  0  0  0  0
    4.6810    1.8210   -1.1830 O   0  0  0  0  0  0  0  0  0  0  0  0
    5.1170    0.5150   -1.2470 C   0  0  0  0  0  0  0  0  0  0  0  0
    3.9470   -0.4470   -1.3330 C   0  0  0  0  0  0  0  0  0  0  0  0
    1.6120   -2.6050   -1.0370 C   0  0  0  0  0  0  0  0  0  0  0  0
    2.0660   -3.2140   -2.2350 C   0  0  0  0  0  0  0  0  0  0  0  0
    1.8080   -2.6370   -3.4480 F   0  0  0  0  0  0  0  0  0  0  0  0
    2.7620   -4.3860   -2.1470 C   0  0  0  0  0  0  0  0  0  0  0  0
    3.0070   -4.9420   -0.9550 N   0  0  0  0  0  0  0  0  0  0  0  0
    2.5910   -4.3860    0.1930 C   0  0  0  0  0  0  0  0  0  0  0  0
    1.8760   -3.1860    0.1670 C   0  0  0  0  0  0  0  0  0  0  0  0
    1.5680   -2.6150    1.3560 F   0  0  0  0  0  0  0  0  0  0  0  0
   -1.8480    0.5100    1.0740 N   0  0  0  0  0  0  0  0  0  0  0  0
  1  2  1  0
  2  3  2  0
  2  7  1  0
  3  4  1  0
  4  5  2  0
  4 31  1  0
  5  6  1  0
  5  9  1  0
  6  7  2  0
  7  8  1  0
  9 10  1  0
 10 11  2  0
 11 12  1  0
 12 13  2  3
 12 31  1  0
 13 14  1  0
 14 15  2  3
 15 16  1  0
 15 23  1  0
 17 16  1  1
 17 18  1  0
 17 22  1  0
 18 19  1  0
 19 20  1  0
 20 21  1  0
 21 22  1  0
 23 24  2  0
 23 29  1  0
 24 25  1  0
 24 26  1  0
 26 27  2  0
 27 28  1  0
 28 29  2  0
 29 30  1  0
M  END
