
     RDKit          3D

 31 34  0  0  0  0  0  0  0  0999 V2000
    4.9950   -0.6210    0.5300 C   0  0  0  0  0  0  0  0  0  0  0  0
    3.6350   -0.2040    0.6710 N   0  0  0  0  0  0  0  0  0  0  0  0
    2.8720    0.1350   -0.4960 C   0  0  0  0  0  0  0  0  0  0  0  0
    3.5460    0.0990   -1.6840 C   0  0  0  0  0  0  0  0  0  0  0  0
    2.8750    0.4860   -2.8210 C   0  0  0  0  0  0  0  0  0  0  0  0
    1.5820    0.8850   -2.6960 C   0  0  0  0  0  0  0  0  0  0  0  0
    0.8630    0.9330   -1.4830 C   0  0  0  0  0  0  0  0  0  0  0  0
   -0.4330    1.4650   -1.5610 C   0  0  0  0  0  0  0  0  0  0  0  0
   -1.0410    1.1140   -2.6450 O   0  0  0  0  0  0  0  0  0  0  0  0
   -1.1110    2.2380   -0.7510 N   0  0  0  0  0  0  0  0  0  0  0  0
   -1.5810    2.1610    0.4880 C   0  0  0  0  0  0  0  0  0  0  0  0
   -1.2040    3.1860    1.3610 C   0  0  0  0  0  0  0  0  0  0  0  0
   -1.6100    3.2440    2.6630 C   0  0  0  0  0  0  0  0  0  0  0  0
   -2.4270    2.2610    3.1650 C   0  0  0  0  0  0  0  0  0  0  0  0
   -2.8120    1.2440    2.3300 C   0  0  0  0  0  0  0  0  0  0  0  0
   -2.4180    1.1460    0.9860 C   0  0  0  0  0  0  0  0  0  0  0  0
   -2.9030    0.1190    0.3170 N   0  0  0  0  0  0  0  0  0  0  0  0
   -2.3990   -0.8180   -0.4660 C   0  0  0  0  0  0  0  0  0  0  0  0
   -3.0770   -1.0780   -1.6550 C   0  0  0  0  0  0  0  0  0  0  0  0
   -2.6760   -2.0550   -2.5480 C   0  0  0  0  0  0  0  0  0  0  0  0
   -1.5780   -2.8120   -2.2870 C   0  0  0  0  0  0  0  0  0  0  0  0
   -1.1970   -3.7690   -3.1760 F   0  0  0  0  0  0  0  0  0  0  0  0
   -0.8700   -2.5820   -1.1030 C   0  0  0  0  0  0  0  0  0  0  0  0
    0.1960   -3.3950   -0.9300 F   0  0  0  0  0  0  0  0  0  0  0  0
   -1.2630   -1.6000   -0.1930 C   0  0  0  0  0  0  0  0  0  0  0  0
   -0.4830   -1.4960    0.9520 C   0  0  0  0  0  0  0  0  0  0  0  0
   -0.3070   -2.7930    1.7060 C   0  0  0  0  0  0  0  0  0  0  0  0
   -1.4460   -3.1670    2.4090 F   0  0  0  0  0  0  0  0  0  0  0  0
    0.1100   -0.3630    1.4520 C   0  0  0  0  0  0  0  0  0  0  0  0
    1.0650    0.4360    0.8980 N   0  0  0  0  0  0  0  0  0  0  0  0
    1.5190    0.5440   -0.3530 C   0  0  0  0  0  0  0  0  0  0  0  0
  1  2  1  0
  2  3  1  0
  3  4  2  0
  3 31  1  0
  4  5  1  0
  5  6  2  0
  6  7  1  0
  7  8  1  0
  7 31  2  0
  8  9  2  0
  8 10  1  0
 10 11  1  0
 11 12  2  0
 11 16  1  0
 12 13  1  0
 13 14  2  0
 14 15  1  0
 15 16  2  0
 16 17  1  0
 17 18  1  0
 18 19  2  0
 18 25  1  0
 19 20  1  0
 20 21  2  0
 21 22  1  0
 21 23  1  0
 23 24  1  0
 23 25  2  0
 25 26  1  0
 26 27  1  0
 26 29  2  0
 27 28  1  0
 29 30  1  0
 30 31  1  0
M  END
