
     RDKit          3D

 30 33  0  0  0  0  0  0  0  0999 V2000
   -7.0210    1.2730   -0.7540 C   0  0  0  0  0  0  0  0  0  0  0  0
   -6.6570   -0.0670   -1.3090 C   0  0  0  0  0  0  0  0  0  0  0  0
   -5.2900   -0.1380   -1.6610 O   0  0  0  0  0  0  0  0  0  0  0  0
   -4.2800    0.0500   -0.7480 C   0  0  0  0  0  0  0  0  0  0  0  0
   -4.5480    0.3140    0.5370 N   0  0  0  0  0  0  0  0  0  0  0  0
   -3.5510    0.5010    1.4380 C   0  0  0  0  0  0  0  0  0  0  0  0
   -3.8690    0.7830    2.7570 C   0  0  0  0  0  0  0  0  0  0  0  0
   -5.5350    0.8850    3.2810 Cl  0  0  0  0  0  0  0  0  0  0  0  0
   -2.8880    0.9920    3.6950 C   0  0  0  0  0  0  0  0  0  0  0  0
   -1.5900    0.9080    3.2610 C   0  0  0  0  0  0  0  0  0  0  0  0
   -1.2690    0.6220    1.9290 C   0  0  0  0  0  0  0  0  0  0  0  0
    0.4050    0.5710    1.4280 Cl  0  0  0  0  0  0  0  0  0  0  0  0
   -2.2510    0.4100    0.9860 C   0  0  0  0  0  0  0  0  0  0  0  0
   -1.9150    0.1400   -0.3230 C   0  0  0  0  0  0  0  0  0  0  0  0
   -0.6240    0.0450   -0.7620 N   0  0  0  0  0  0  0  0  0  0  0  0
   -0.3290   -0.2200   -2.0430 C   0  0  0  0  0  0  0  0  0  0  0  0
    0.9450   -0.3770   -2.6140 N   0  0  0  0  0  0  0  0  0  0  0  0
    2.2100   -0.3470   -1.9910 C   0  0  0  0  0  0  0  0  0  0  0  0
    3.2910    0.2640   -2.6480 C   0  0  0  0  0  0  0  0  0  0  0  0
    4.5590    0.2870   -2.1160 C   0  0  0  0  0  0  0  0  0  0  0  0
    4.8300   -0.3020   -0.8900 C   0  0  0  0  0  0  0  0  0  0  0  0
    6.1530   -0.2700   -0.3780 N   0  0  0  0  0  0  0  0  0  0  0  0
    6.5330   -0.6700    0.9480 C   0  0  0  0  0  0  0  0  0  0  0  0
    5.9750    0.2250    2.0290 C   0  0  0  0  0  0  0  0  0  0  0  0
    6.4400   -0.3080    3.2530 O   0  0  0  0  0  0  0  0  0  0  0  0
    3.7860   -0.9080   -0.2290 C   0  0  0  0  0  0  0  0  0  0  0  0
    2.5180   -0.9200   -0.7810 C   0  0  0  0  0  0  0  0  0  0  0  0
   -1.4000   -0.3890   -2.8790 N   0  0  0  0  0  0  0  0  0  0  0  0
   -2.6710   -0.3100   -2.5070 C   0  0  0  0  0  0  0  0  0  0  0  0
   -2.9690   -0.0390   -1.1920 C   0  0  0  0  0  0  0  0  0  0  0  0
  1  2  1  0
  2  3  1  0
  3  4  1  0
  4  5  2  0
  4 30  1  0
  5  6  1  0
  6  7  2  0
  6 13  1  0
  7  8  1  0
  7  9  1  0
  9 10  2  0
 10 11  1  0
 11 12  1  0
 11 13  2  0
 13 14  1  0
 14 15  2  0
 14 30  1  0
 15 16  1  0
 16 17  1  0
 16 28  2  0
 17 18  1  0
 18 19  2  0
 18 27  1  0
 19 20  1  0
 20 21  2  0
 21 22  1  0
 21 26  1  0
 22 23  1  0
 23 24  1  0
 24 25  1  0
 26 27  2  0
 28 29  1  0
 29 30  2  0
M  END
