
     RDKit          3D

 29 31  0  0  0  0  0  0  0  0999 V2000
    1.6400   -4.1300    2.9420 C   0  0  0  0  0  0  0  0  0  0  0  0
    0.9200   -3.1850    2.3630 C   0  0  0  0  0  0  0  0  0  0  0  0
    1.4860   -2.1810    1.5180 C   0  0  0  0  0  0  0  0  0  0  0  0
    0.8340   -1.2260    0.9190 C   0  0  0  0  0  0  0  0  0  0  0  0
   -0.6010   -0.9220    0.9410 C   0  0  0  0  0  0  0  0  0  0  0  0
   -1.3040   -1.2770    1.9290 O   0  0  0  0  0  0  0  0  0  0  0  0
   -0.8880   -0.2110   -0.3110 C   0  0  2  0  0  0  0  0  0  0  0  0
    0.3880    0.1980   -0.8100 O   0  0  0  0  0  0  0  0  0  0  0  0
    1.3730   -0.1370    0.0200 C   0  0  2  0  0  0  0  0  0  0  0  0
    2.6610   -0.4550   -0.4770 N   0  0  0  0  0  0  0  0  0  0  0  0
    2.9210   -1.7440   -1.1780 C   0  0  0  0  0  0  0  0  0  0  0  0
    3.6830    0.2800   -0.4170 C   0  0  0  0  0  0  0  0  0  0  0  0
    3.6640    1.5550    0.1660 N   0  0  0  0  0  0  0  0  0  0  0  0
    2.8570    2.5480   -0.4590 C   0  0  0  0  0  0  0  0  0  0  0  0
    3.5330    3.6440   -0.8410 C   0  0  0  0  0  0  0  0  0  0  0  0
   -1.5710    1.1050   -0.0730 C   0  0  2  0  0  0  0  0  0  0  0  0
   -1.2760    2.0360   -1.2300 C   0  0  0  0  0  0  0  0  0  0  0  0
   -0.8700    1.7290    1.1480 C   0  0  0  0  0  0  0  0  0  0  0  0
   -3.0180    1.1230    0.3210 C   0  0  1  0  0  0  0  0  0  0  0  0
   -3.2880    1.1960    1.6370 F   0  0  0  0  0  0  0  0  0  0  0  0
   -3.7830    2.0720   -0.4030 N   0  0  0  0  0  0  0  0  0  0  0  0
   -4.8420    2.5910    0.0730 C   0  0  0  0  0  0  0  0  0  0  0  0
   -3.6090   -0.5060   -0.4870 S   0  0  0  0  0  0  0  0  0  0  0  0
   -3.0470   -2.1050    0.0770 C   0  0  0  0  0  0  0  0  0  0  0  0
   -1.9000   -2.4570   -0.8840 C   0  0  0  0  0  0  0  0  0  0  0  0
   -1.6110   -3.6280   -1.1020 O   0  0  0  0  0  0  0  0  0  0  0  0
   -1.3840   -1.1190   -1.3520 C   0  0  2  0  0  0  0  0  0  0  0  0
   -0.2070   -1.5120   -2.6480 Cl  0  0  0  0  0  0  0  0  0  0  0  0
   -2.5810   -0.6370   -2.1340 C   0  0  0  0  0  0  0  0  0  0  0  0
  1  2  2  0
  2  3  1  0
  3  4  2  3
  4  5  1  0
  4  9  1  0
  5  6  2  0
  5  7  1  0
  7  8  1  6
  7 16  1  0
  7 27  1  0
  8  9  1  0
  9 10  1  6
 10 11  1  0
 10 12  2  3
 12 13  1  0
 13 14  1  0
 14 15  2  0
 16 17  1  6
 16 18  1  0
 16 19  1  0
 19 20  1  1
 19 21  1  0
 19 23  1  0
 21 22  2  0
 23 24  2  0
 23 29  1  6
 24 25  1  0
 25 26  2  0
 25 27  1  0
 27 28  1  6
 27 29  1  0
M  CHG  1  10   1
M  END
