
     RDKit          3D

 35 36  0  0  0  0  0  0  0  0999 V2000
   -7.5140    1.3660    2.8560 C   0  0  0  0  0  0  0  0  0  0  0  0
   -6.5750    0.6690    2.5040 C   0  0  0  0  0  0  0  0  0  0  0  0
   -7.5640   -0.8160    3.0360 C   0  0  0  0  0  0  0  0  0  0  0  0
   -5.5050   -0.1620    2.1620 C   0  0  0  0  0  0  0  0  0  0  0  0
   -5.0110   -0.0610    1.0110 C   0  0  0  0  0  0  0  0  0  0  0  0
   -4.7530    0.3070   -0.3550 C   0  0  0  0  0  0  0  0  0  0  0  0
   -3.5730    0.2310   -0.9770 C   0  0  0  0  0  0  0  0  0  0  0  0
   -2.6210   -0.2270   -0.0020 C   0  0  0  0  0  0  0  0  0  0  0  0
   -1.5780   -0.9990   -0.0590 N   0  0  0  0  0  0  0  0  0  0  0  0
   -1.4190   -1.5610   -1.3390 C   0  0  0  0  0  0  0  0  0  0  0  0
   -0.2790   -1.9760   -1.8180 C   0  0  0  0  0  0  0  0  0  0  0  0
    0.8350   -1.8530   -0.9750 O   0  0  0  0  0  0  0  0  0  0  0  0
    1.6270   -0.6900   -1.3050 C   0  0  2  0  0  0  0  0  0  0  0  0
    0.7180    0.5530   -1.3250 C   0  0  0  0  0  0  0  0  0  0  0  0
    2.1740   -0.9490   -2.6050 N   0  0  0  0  0  0  0  0  0  0  0  0
    2.7160   -0.4610   -0.3150 C   0  0  0  0  0  0  0  0  0  0  0  0
    2.6840   -1.0200    0.9180 C   0  0  0  0  0  0  0  0  0  0  0  0
    3.7060   -0.8550    1.8450 C   0  0  0  0  0  0  0  0  0  0  0  0
    4.7830   -0.0760    1.4470 C   0  0  0  0  0  0  0  0  0  0  0  0
    4.7920    0.4910    0.1840 C   0  0  0  0  0  0  0  0  0  0  0  0
    3.7410    0.3020   -0.7280 C   0  0  0  0  0  0  0  0  0  0  0  0
    5.9000    1.2870   -0.3940 C   0  0  0  0  0  0  0  0  0  0  0  0
    5.5540    1.8540   -1.4280 O   0  0  0  0  0  0  0  0  0  0  0  0
    7.1780    1.3970    0.1630 O   0  0  0  0  0  0  0  0  0  0  0  0
    7.7570    0.5080    1.1060 C   0  0  0  0  0  0  0  0  0  0  0  0
    6.9980    0.4750    2.3960 C   0  0  0  0  0  0  0  0  0  0  0  0
    7.6910    0.9980    3.6340 C   0  0  0  0  0  0  0  0  0  0  0  0
    5.7180    0.2090    2.5450 C   0  0  0  0  0  0  0  0  0  0  0  0
   -0.4280   -2.4500   -3.2080 C   0  0  0  0  0  0  0  0  0  0  0  0
    0.5070   -3.0900   -3.6800 O   0  0  0  0  0  0  0  0  0  0  0  0
   -1.5300   -2.2080   -3.8830 O   0  0  0  0  0  0  0  0  0  0  0  0
   -3.6370    0.6850   -2.3620 C   0  0  0  0  0  0  0  0  0  0  0  0
   -3.6790    0.1520   -3.6270 C   0  0  0  0  0  0  0  0  0  0  0  0
   -3.8320    2.1160   -2.3570 C   0  0  0  0  0  0  0  0  0  0  0  0
   -4.7390    3.0070   -2.1010 O   0  0  0  0  0  0  0  0  0  0  0  0
  1  2  2  0
  2  3  1  0
  2  4  1  0
  4  5  2  3
  5  6  1  0
  6  7  2  3
  7  8  1  0
  7 32  1  0
  8  9  2  3
  9 10  1  0
 10 11  2  3
 11 12  1  0
 11 29  1  0
 12 13  1  0
 13 14  1  6
 13 15  1  0
 13 16  1  0
 16 17  2  0
 16 21  1  0
 17 18  1  0
 18 19  2  0
 19 20  1  0
 19 28  1  0
 20 21  2  0
 20 22  1  0
 22 23  2  0
 22 24  1  0
 24 25  1  0
 25 26  1  0
 26 27  1  0
 26 28  2  0
 29 30  2  0
 29 31  1  0
 32 33  1  0
 32 34  2  0
 34 35  2  0
M  END
