
     RDKit          3D

 35 36  0  0  0  0  0  0  0  0999 V2000
    6.3350   -1.8600   -0.0250 C   0  0  0  0  0  0  0  0  0  0  0  0
    6.3930   -0.9450    0.9140 C   0  0  0  0  0  0  0  0  0  0  0  0
    6.4790   -1.4830    2.6530 P   0  0  0  0  0  0  0  0  0  0  0  0
    6.3900    0.4750    0.5780 C   0  0  1  0  0  0  0  0  0  0  0  0
    7.7100    1.0450    1.1400 C   0  0  0  0  0  0  0  0  0  0  0  0
    6.4510    0.7330   -0.7880 O   0  0  0  0  0  0  0  0  0  0  0  0
    5.2950    1.2660    1.1850 C   0  0  0  0  0  0  0  0  0  0  0  0
    3.9040    0.8780    0.8680 C   0  0  0  0  0  0  0  0  0  0  0  0
    3.5040    0.9170   -0.5650 C   0  0  0  0  0  0  0  0  0  0  0  0
    2.1710    0.5480   -0.7890 O   0  0  0  0  0  0  0  0  0  0  0  0
    1.5760   -0.6470   -0.4990 C   0  0  0  0  0  0  0  0  0  0  0  0
    2.3540   -1.5170    0.0410 O   0  0  0  0  0  0  0  0  0  0  0  0
    0.1790   -0.9980   -0.7450 C   0  0  0  0  0  0  0  0  0  0  0  0
   -0.3820   -2.1240   -0.4710 N   0  0  0  0  0  0  0  0  0  0  0  0
   -1.7500   -2.1100   -0.8480 C   0  0  0  0  0  0  0  0  0  0  0  0
   -2.0900   -0.9660   -1.3650 C   0  0  0  0  0  0  0  0  0  0  0  0
   -3.3770   -0.5330   -1.8800 C   0  0  0  0  0  0  0  0  0  0  0  0
   -3.3200   -0.3880   -3.3380 O   0  0  0  0  0  0  0  0  0  0  0  0
   -4.5200   -0.2530   -1.3100 C   0  0  0  0  0  0  0  0  0  0  0  0
   -5.0090   -0.2400    0.0390 C   0  0  0  0  0  0  0  0  0  0  0  0
   -5.3840    1.1560    0.6430 C   0  0  0  0  0  0  0  0  0  0  0  0
   -5.2130   -1.1540    0.8460 N   0  0  0  0  0  0  0  0  0  0  0  0
   -5.1940   -2.4930    1.1500 C   0  0  0  0  0  0  0  0  0  0  0  0
   -5.5850   -3.4640    0.0970 C   0  0  0  0  0  0  0  0  0  0  0  0
   -4.8610   -4.5610   -0.1090 C   0  0  0  0  0  0  0  0  0  0  0  0
   -3.6520   -4.8100    0.7280 C   0  0  0  0  0  0  0  0  0  0  0  0
   -2.6580   -3.8660    0.5260 O   0  0  0  0  0  0  0  0  0  0  0  0
   -2.6680   -3.3160   -0.7180 C   0  0  0  0  0  0  0  0  0  0  0  0
   -0.8330   -0.1470   -1.3380 C   0  0  0  0  0  0  0  0  0  0  0  0
   -0.6390    1.0630   -1.8180 C   0  0  0  0  0  0  0  0  0  0  0  0
   -1.5870    1.9960   -2.4190 C   0  0  0  0  0  0  0  0  0  0  0  0
   -1.3660    3.3340   -1.6450 C   0  0  0  0  0  0  0  0  0  0  0  0
   -1.6300    3.0960   -0.2890 O   0  0  0  0  0  0  0  0  0  0  0  0
   -1.4370    4.2840    0.4090 C   0  0  0  0  0  0  0  0  0  0  0  0
   -1.6980    4.1250    1.8790 C   0  0  0  0  0  0  0  0  0  0  0  0
  1  2  2  0
  2  3  1  0
  2  4  1  0
  4  5  1  1
  4  6  1  0
  4  7  1  0
  7  8  1  0
  8  9  1  0
  9 10  1  0
 10 11  1  0
 11 12  2  0
 11 13  1  0
 13 14  2  0
 13 29  1  0
 14 15  1  0
 15 16  2  0
 15 28  1  0
 16 17  1  0
 16 29  1  0
 17 18  1  0
 17 19  2  0
 19 20  1  0
 20 21  1  0
 20 22  2  0
 22 23  1  0
 23 24  1  0
 24 25  2  0
 25 26  1  0
 26 27  1  0
 27 28  1  0
 29 30  2  3
 30 31  1  0
 31 32  1  0
 32 33  1  0
 33 34  1  0
 34 35  1  0
M  END
