
     RDKit          3D

 35 37  0  0  0  0  0  0  0  0999 V2000
   -3.0260   -4.1730    0.4500 C   0  0  0  0  0  0  0  0  0  0  0  0
   -2.0560   -3.0900    0.8520 C   0  0  0  0  0  0  0  0  0  0  0  0
   -2.1980   -1.9910   -0.0470 N   0  0  0  0  0  0  0  0  0  0  0  0
   -1.7790   -2.2240   -1.3840 C   0  0  0  0  0  0  0  0  0  0  0  0
   -2.1120   -1.0130   -2.2260 C   0  0  0  0  0  0  0  0  0  0  0  0
   -1.5620    0.1470   -1.6440 O   0  0  0  0  0  0  0  0  0  0  0  0
   -2.2380    0.3310   -0.4640 C   0  0  2  0  0  0  0  0  0  0  0  0
   -2.1620    1.6100    0.1170 N   0  0  0  0  0  0  0  0  0  0  0  0
   -1.9120    2.6980   -0.6420 N   0  0  0  0  0  0  0  0  0  0  0  0
   -2.8840    3.7470   -0.6320 C   0  0  0  0  0  0  0  0  0  0  0  0
   -3.8180    3.8150    0.2900 C   0  0  0  0  0  0  0  0  0  0  0  0
   -4.7220    3.6970    1.1370 O   0  0  0  0  0  0  0  0  0  0  0  0
   -2.8910    4.7990   -1.6430 C   0  0  0  0  0  0  0  0  0  0  0  0
   -3.7400    5.7260   -1.6450 O   0  0  0  0  0  0  0  0  0  0  0  0
   -1.9520    4.8440   -2.6770 O   0  0  0  0  0  0  0  0  0  0  0  0
   -1.1690    1.4370    1.6070 P   0  0  0  0  0  0  0  0  0  0  0  0
   -2.1390    0.2910    2.5410 O   0  0  0  0  0  0  0  0  0  0  0  0
   -2.3870   -0.6780    1.7460 O   0  0  0  0  0  0  0  0  0  0  0  0
   -1.7450   -0.7330    0.5290 C   0  0  1  0  0  0  0  0  0  0  0  0
   -0.3650   -0.8090    0.5820 O   0  0  0  0  0  0  0  0  0  0  0  0
    0.2700    0.2920    1.1170 C   0  0  1  0  0  0  0  0  0  0  0  0
    1.1930    0.9270    0.4250 O   0  0  0  0  0  0  0  0  0  0  0  0
    2.3470    0.4780   -0.0310 C   0  0  1  0  0  0  0  0  0  0  0  0
    3.2420    0.0170    0.9500 O   0  0  0  0  0  0  0  0  0  0  0  0
    2.2830   -0.6310   -1.0480 C   0  0  0  0  0  0  0  0  0  0  0  0
    1.7120   -1.7560   -0.4970 O   0  0  0  0  0  0  0  0  0  0  0  0
    3.0840    1.6910   -0.6450 C   0  0  0  0  0  0  0  0  0  0  0  0
    4.3480    1.3470   -1.1750 N   0  0  0  0  0  0  0  0  0  0  0  0
    5.2700    0.8140   -0.3110 N   0  0  0  0  0  0  0  0  0  0  0  0
    4.3800    0.8660   -2.4080 O   0  0  0  0  0  0  0  0  0  0  0  0
    5.5970    0.4890   -2.7250 O   0  0  0  0  0  0  0  0  0  0  0  0
    0.7470   -0.1780    2.4800 C   0  0  0  0  0  0  0  0  0  0  0  0
    1.1830    0.7910    3.3640 O   0  0  0  0  0  0  0  0  0  0  0  0
    0.7640   -1.7540    2.9280 P   0  0  0  0  0  0  0  0  0  0  0  0
    1.3140   -2.3380    4.5100 N   0  0  0  0  0  0  0  0  0  0  0  0
  1  2  1  0
  2  3  1  0
  3  4  1  0
  3 19  1  0
  4  5  1  0
  5  6  1  0
  7  6  1  6
  7  8  1  0
  7 19  1  0
  8  9  1  0
  8 16  1  0
  9 10  1  0
 10 11  2  0
 10 13  1  0
 11 12  2  0
 13 14  2  0
 13 15  1  0
 16 17  1  0
 16 21  1  0
 17 18  1  0
 19 18  1  1
 19 20  1  0
 20 21  1  0
 21 22  1  6
 21 32  1  0
 22 23  1  0
 23 24  1  1
 23 25  1  0
 23 27  1  0
 25 26  1  0
 27 28  1  0
 28 29  1  0
 28 30  1  0
 30 31  1  0
 32 33  1  0
 32 34  2  3
 34 35  1  0
M  END
