
     RDKit          3D

 14 14  0  0  0  0  0  0  0  0999 V2000
   -4.6260   -0.7980    1.6910 N   0  0  0  0  0  0  0  0  0  0  0  0
   -3.3630   -0.6460    1.6830 C   0  0  0  0  0  0  0  0  0  0  0  0
   -2.5500    0.0910    0.7520 C   0  0  0  0  0  0  0  0  0  0  0  0
   -3.0340    0.7430   -0.2720 C   0  0  0  0  0  0  0  0  0  0  0  0
   -4.3680    0.8360   -0.6300 O   0  0  0  0  0  0  0  0  0  0  0  0
   -1.1670    0.1120    0.9550 O   0  0  0  0  0  0  0  0  0  0  0  0
   -0.3350   -0.3570   -0.0950 C   0  0  0  0  0  0  0  0  0  0  0  0
    1.1270   -0.2700    0.2790 C   0  0  2  0  0  0  0  0  0  0  0  0
    1.4320    1.0460    0.5400 O   0  0  0  0  0  0  0  0  0  0  0  0
    2.7670    1.3590    0.4390 C   0  0  0  0  0  0  0  0  0  0  0  0
    3.6920    0.2460    0.2010 C   0  0  0  0  0  0  0  0  0  0  0  0
    3.2500   -0.8000   -0.5400 O   0  0  0  0  0  0  0  0  0  0  0  0
    1.9280   -0.7850   -0.8900 C   0  0  2  0  0  0  0  0  0  0  0  0
    1.6890    0.0020   -2.0800 N   0  0  0  0  0  0  0  0  0  0  0  0
  1  2  2  0
  2  3  1  0
  3  4  2  3
  3  6  1  0
  4  5  1  0
  6  7  1  0
  8  7  1  6
  8  9  1  0
  8 13  1  0
  9 10  1  0
 10 11  1  0
 11 12  1  0
 12 13  1  0
 13 14  1  6
M  END
