
     RDKit          3D

 14 15  0  0  0  0  0  0  0  0999 V2000
    1.6190    1.8040    0.9960 O   0  0  0  0  0  0  0  0  0  0  0  0
    1.1290    1.9150   -0.2910 C   0  0  0  0  0  0  0  0  0  0  0  0
    0.2500    0.7590   -0.6770 C   0  0  2  0  0  0  0  0  0  0  0  0
   -0.9330    0.7170    0.2960 C   0  0  1  0  0  0  0  0  0  0  0  0
   -1.5400    1.9300    0.4400 O   0  0  0  0  0  0  0  0  0  0  0  0
   -1.8350   -0.3670   -0.2470 C   0  0  2  0  0  0  0  0  0  0  0  0
   -3.1360   -0.2500    0.1720 O   0  0  0  0  0  0  0  0  0  0  0  0
   -1.2040   -1.6850    0.1050 C   0  0  2  0  0  0  0  0  0  0  0  0
   -1.4560   -1.9260    1.4550 O   0  0  0  0  0  0  0  0  0  0  0  0
    0.2510   -1.6350   -0.1570 C   0  0  0  0  0  0  0  0  0  0  0  0
    1.1380   -2.6700   -0.0840 N   0  0  0  0  0  0  0  0  0  0  0  0
    2.3610   -2.2160   -0.3940 C   0  0  0  0  0  0  0  0  0  0  0  0
    2.2000   -0.8650   -0.6590 C   0  0  0  0  0  0  0  0  0  0  0  0
    0.9100   -0.5220   -0.5120 N   0  0  0  0  0  0  0  0  0  0  0  0
  1  2  1  0
  3  2  1  1
  3  4  1  0
  3 14  1  0
  4  5  1  6
  4  6  1  0
  6  7  1  1
  6  8  1  0
  8  9  1  1
  8 10  1  0
 10 11  2  0
 10 14  1  0
 11 12  1  0
 12 13  2  0
 13 14  1  0
M  END
