
     RDKit          3D

 14 14  0  0  0  0  0  0  0  0999 V2000
    3.7800   -1.7520   -0.2620 N   0  0  0  0  0  0  0  0  0  0  0  0
    2.9000   -0.7180   -0.6430 C   0  0  0  0  0  0  0  0  0  0  0  0
    2.9960   -0.1460   -1.7800 O   0  0  0  0  0  0  0  0  0  0  0  0
    1.8840   -0.2590    0.1770 O   0  0  0  0  0  0  0  0  0  0  0  0
    0.9950    0.7850   -0.2070 C   0  0  2  0  0  0  0  0  0  0  0  0
    1.1050    1.9670    0.7180 C   0  0  0  0  0  0  0  0  0  0  0  0
    0.2460    2.9550    0.3080 O   0  0  0  0  0  0  0  0  0  0  0  0
   -0.3680    0.1860   -0.2630 C   0  0  2  0  0  0  0  0  0  0  0  0
   -1.4590    1.1010   -0.7210 C   0  0  0  0  0  0  0  0  0  0  0  0
   -2.6490    0.3120   -0.9840 N   0  0  0  0  0  0  0  0  0  0  0  0
   -3.1620   -0.8510   -0.3660 C   0  0  0  0  0  0  0  0  0  0  0  0
   -2.4870   -1.6620    0.4150 C   0  0  0  0  0  0  0  0  0  0  0  0
   -1.0960   -1.6300    0.8640 C   0  0  0  0  0  0  0  0  0  0  0  0
   -0.6850   -0.3100    1.0090 O   0  0  0  0  0  0  0  0  0  0  0  0
  1  2  1  0
  2  3  2  0
  2  4  1  0
  4  5  1  0
  5  6  1  1
  5  8  1  0
  6  7  1  0
  8  9  1  1
  8 14  1  0
  9 10  1  0
 10 11  1  0
 11 12  2  0
 12 13  1  0
 13 14  1  0
M  END
