
     RDKit          3D

 14 14  0  0  0  0  0  0  0  0999 V2000
    3.8920   -0.4830    0.2920 C   0  0  0  0  0  0  0  0  0  0  0  0
    2.6920    0.0930   -0.1390 O   0  0  0  0  0  0  0  0  0  0  0  0
    1.6250    0.4070    0.6810 C   0  0  0  0  0  0  0  0  0  0  0  0
    1.7390    0.1560    1.9040 O   0  0  0  0  0  0  0  0  0  0  0  0
    0.4220    1.0090    0.1040 C   0  0  1  0  0  0  0  0  0  0  0  0
    0.6180    1.1630   -1.3270 N   0  0  0  0  0  0  0  0  0  0  0  0
   -0.8180    0.1800    0.2660 C   0  0  2  0  0  0  0  0  0  0  0  0
   -1.8730    0.8290   -0.3150 O   0  0  0  0  0  0  0  0  0  0  0  0
   -2.1890    2.0650    0.1770 C   0  0  0  0  0  0  0  0  0  0  0  0
   -1.1280   -0.2260    1.6540 C   0  0  0  0  0  0  0  0  0  0  0  0
   -0.5550   -1.4870    1.7720 O   0  0  0  0  0  0  0  0  0  0  0  0
   -1.0740   -2.1230    0.6210 C   0  0  0  0  0  0  0  0  0  0  0  0
   -0.6120   -1.1320   -0.4510 C   0  0  1  0  0  0  0  0  0  0  0  0
   -1.4310   -1.2390   -1.6360 N   0  0  0  0  0  0  0  0  0  0  0  0
  1  2  1  0
  2  3  1  0
  3  4  2  0
  3  5  1  0
  5  6  1  6
  5  7  1  0
  7  8  1  6
  7 10  1  0
  7 13  1  0
  8  9  1  0
 10 11  1  0
 11 12  1  0
 12 13  1  0
 13 14  1  6
M  END
