
     RDKit          3D

 13 13  0  0  0  0  0  0  0  0999 V2000
    4.7410   -0.2010    0.5570 C   0  0  0  0  0  0  0  0  0  0  0  0
    3.5110   -0.9100    0.6840 O   0  0  0  0  0  0  0  0  0  0  0  0
    2.3800   -0.2820    0.1360 C   0  0  0  0  0  0  0  0  0  0  0  0
    2.5000    0.7060   -0.8700 N   0  0  0  0  0  0  0  0  0  0  0  0
    1.1690   -0.6040    0.5530 C   0  0  0  0  0  0  0  0  0  0  0  0
   -0.0200    0.0300    0.0040 C   0  0  0  0  0  0  0  0  0  0  0  0
   -1.2230   -0.2970    0.4260 C   0  0  0  0  0  0  0  0  0  0  0  0
   -1.4830   -1.2620    1.4190 O   0  0  0  0  0  0  0  0  0  0  0  0
   -2.8410   -1.6410    1.2760 C   0  0  0  0  0  0  0  0  0  0  0  0
   -3.4610   -0.4860    0.7870 O   0  0  0  0  0  0  0  0  0  0  0  0
   -2.5210    0.1940    0.0290 C   0  0  0  0  0  0  0  0  0  0  0  0
   -2.7630    1.1140   -0.8800 C   0  0  0  0  0  0  0  0  0  0  0  0
   -4.0840    1.5240   -1.1930 N   0  0  0  0  0  0  0  0  0  0  0  0
  1  2  1  0
  2  3  1  0
  3  4  1  0
  3  5  2  3
  5  6  1  0
  6  7  2  3
  7  8  1  0
  7 11  1  0
  8  9  1  0
  9 10  1  0
 10 11  1  0
 11 12  2  3
 12 13  1  0
M  END
