
     RDKit          3D

 37 41  0  0  0  0  0  0  0  0999 V2000
    2.9160   -0.6600    2.1540 C   0  0  0  0  0  0  0  0  0  0  0  0
    2.5290    0.3090    1.0770 C   0  0  0  0  0  0  0  0  0  0  0  0
    3.4820    1.0740    0.6030 C   0  0  0  0  0  0  0  0  0  0  0  0
    4.8850    1.1030    0.9940 C   0  0  2  0  0  0  0  0  0  0  0  0
    5.8270    0.8010   -0.1640 C   0  0  0  0  0  0  0  0  0  0  0  0
    7.1310    0.5870    0.5880 C   0  0  2  0  0  0  0  0  0  0  0  0
    8.0520   -0.3500   -0.1600 C   0  0  0  0  0  0  0  0  0  0  0  0
    6.6450   -0.0020    1.8590 C   0  0  0  0  0  0  0  0  0  0  0  0
    7.3670   -0.6980    2.6200 O   0  0  0  0  0  0  0  0  0  0  0  0
    5.2940    0.3390    2.0590 O   0  0  0  0  0  0  0  0  0  0  0  0
    3.0330    2.0370   -0.4910 C   0  0  0  0  0  0  0  0  0  0  0  0
    2.3120    1.1610   -1.5050 C   0  0  0  0  0  0  0  0  0  0  0  0
    1.1000    0.5000   -0.9020 C   0  0  2  0  0  0  0  0  0  0  0  0
    0.9140   -0.8690   -1.5330 C   0  0  0  0  0  0  0  0  0  0  0  0
    0.9140   -0.6620   -3.0380 C   0  0  0  0  0  0  0  0  0  0  0  0
   -0.2520    0.2230   -3.4370 C   0  0  0  0  0  0  0  0  0  0  0  0
   -0.5740    1.1710   -2.4510 N   0  0  0  0  0  0  0  0  0  0  0  0
   -0.0600    1.3870   -1.3150 C   0  0  0  0  0  0  0  0  0  0  0  0
   -0.5890    2.4890   -0.5190 C   0  0  0  0  0  0  0  0  0  0  0  0
   -1.9800    2.9050   -1.0960 C   0  0  0  0  0  0  0  0  0  0  0  0
   -3.0840    2.1730   -0.3540 C   0  0  0  0  0  0  0  0  0  0  0  0
   -4.3090    1.8080   -0.5030 C   0  0  0  0  0  0  0  0  0  0  0  0
   -5.3020    2.0050   -1.6670 C   0  0  0  0  0  0  0  0  0  0  0  0
   -5.1900    0.9680    0.4550 C   0  0  2  0  0  0  0  0  0  0  0  0
   -4.6470    0.2100    1.4120 O   0  0  0  0  0  0  0  0  0  0  0  0
   -3.8430   -0.7460    0.7640 C   0  0  1  0  0  0  0  0  0  0  0  0
   -3.6370   -1.9880    1.5880 C   0  0  0  0  0  0  0  0  0  0  0  0
   -2.3650   -2.6980    1.1720 C   0  0  0  0  0  0  0  0  0  0  0  0
   -1.2090   -2.4490    2.1120 C   0  0  2  0  0  0  0  0  0  0  0  0
   -1.6360   -2.0170    3.2930 O   0  0  0  0  0  0  0  0  0  0  0  0
   -0.0440   -1.7420    1.3570 C   0  0  0  0  0  0  0  0  0  0  0  0
    0.6670   -3.0000    0.8420 C   0  0  0  0  0  0  0  0  0  0  0  0
    0.1640   -0.4870    1.2200 C   0  0  0  0  0  0  0  0  0  0  0  0
    1.1760    0.4580    0.5670 C   0  0  1  0  0  0  0  0  0  0  0  0
   -4.6260   -1.0850   -0.5130 C   0  0  0  0  0  0  0  0  0  0  0  0
   -5.8230   -0.2040   -0.3530 C   0  0  1  0  0  0  0  0  0  0  0  0
   -6.8120   -0.8170    0.6350 C   0  0  0  0  0  0  0  0  0  0  0  0
  1  2  1  0
  2  3  2  0
  2 34  1  0
  4  3  1  6
  3 11  1  0
  4  5  1  0
  4 10  1  0
  5  6  1  0
  6  7  1  6
  6  8  1  0
  8  9  2  0
  8 10  1  0
 11 12  1  0
 13 12  1  6
 13 14  1  0
 13 18  1  0
 13 34  1  0
 14 15  1  0
 15 16  1  0
 16 17  1  0
 17 18  2  0
 18 19  1  0
 19 20  1  0
 20 21  1  0
 21 22  2  0
 22 23  1  0
 24 22  1  6
 24 25  1  0
 24 36  1  0
 25 26  1  0
 26 27  1  1
 26 35  1  0
 27 28  1  0
 28 29  1  0
 29 30  1  1
 29 31  1  0
 31 32  1  0
 31 33  2  0
 34 33  1  6
 35 36  1  0
 36 37  1  1
M  END
