
     RDKit          3D

 37 41  0  0  0  0  0  0  0  0999 V2000
   -8.1950    0.6140   -0.6110 C   0  0  0  0  0  0  0  0  0  0  0  0
   -6.7930    0.6270   -0.8200 O   0  0  0  0  0  0  0  0  0  0  0  0
   -5.9430    1.5210   -0.1700 C   0  0  0  0  0  0  0  0  0  0  0  0
   -6.4260    2.4600    0.7080 C   0  0  0  0  0  0  0  0  0  0  0  0
   -5.5870    3.3400    1.3510 C   0  0  0  0  0  0  0  0  0  0  0  0
   -6.0990    4.3490    2.3160 C   0  0  0  0  0  0  0  0  0  0  0  0
   -4.2400    3.2430    1.0770 C   0  0  0  0  0  0  0  0  0  0  0  0
   -3.7480    2.3110    0.2040 C   0  0  0  0  0  0  0  0  0  0  0  0
   -4.5710    1.4060   -0.4610 C   0  0  0  0  0  0  0  0  0  0  0  0
   -4.1790    0.4820   -1.3050 O   0  0  0  0  0  0  0  0  0  0  0  0
   -3.8710   -0.6700   -1.7160 C   0  0  0  0  0  0  0  0  0  0  0  0
   -3.9560   -1.6330   -0.8570 O   0  0  0  0  0  0  0  0  0  0  0  0
   -3.4000   -1.0930   -3.0920 C   0  0  2  0  0  0  0  0  0  0  0  0
   -2.9930   -2.3820   -3.0880 O   0  0  0  0  0  0  0  0  0  0  0  0
   -2.3530   -0.0860   -3.4640 C   0  0  0  0  0  0  0  0  0  0  0  0
   -1.2710   -0.1050   -2.5320 N   0  0  0  0  0  0  0  0  0  0  0  0
   -0.3700   -1.1580   -2.2470 C   0  0  0  0  0  0  0  0  0  0  0  0
   -0.5030   -2.2200   -2.8730 O   0  0  0  0  0  0  0  0  0  0  0  0
    0.6650   -1.0440   -1.2870 N   0  0  0  0  0  0  0  0  0  0  0  0
    1.6080   -2.0620   -0.9410 C   0  0  0  0  0  0  0  0  0  0  0  0
    1.4370   -3.3780   -1.1910 C   0  0  0  0  0  0  0  0  0  0  0  0
    2.4200   -4.3390   -0.8670 C   0  0  0  0  0  0  0  0  0  0  0  0
    3.6110   -3.9480   -0.2720 C   0  0  0  0  0  0  0  0  0  0  0  0
    4.7060   -4.6220    0.1320 N   0  0  0  0  0  0  0  0  0  0  0  0
    5.6060   -3.7430    0.6510 C   0  0  0  0  0  0  0  0  0  0  0  0
    5.0380   -2.4940    0.5580 C   0  0  0  0  0  0  0  0  0  0  0  0
    5.6260   -1.2080    0.9730 C   0  0  0  0  0  0  0  0  0  0  0  0
    6.9300   -1.2180    1.4730 C   0  0  0  0  0  0  0  0  0  0  0  0
    7.5710   -0.0530    1.8690 C   0  0  0  0  0  0  0  0  0  0  0  0
    6.8780    1.1210    1.7540 C   0  0  0  0  0  0  0  0  0  0  0  0
    5.5920    1.1310    1.2620 C   0  0  0  0  0  0  0  0  0  0  0  0
    4.9990   -0.0410    0.8820 N   0  0  0  0  0  0  0  0  0  0  0  0
    5.1410    2.5280    1.2890 C   0  0  0  0  0  0  0  0  0  0  0  0
    6.1600    3.2960    1.7860 O   0  0  0  0  0  0  0  0  0  0  0  0
    7.2500    2.5080    2.0510 C   0  0  0  0  0  0  0  0  0  0  0  0
    3.7760   -2.5970   -0.0210 C   0  0  0  0  0  0  0  0  0  0  0  0
    2.8140   -1.6630   -0.3390 C   0  0  0  0  0  0  0  0  0  0  0  0
  1  2  1  0
  2  3  1  0
  3  4  2  0
  3  9  1  0
  4  5  1  0
  5  6  1  0
  5  7  2  0
  7  8  1  0
  8  9  2  0
  9 10  1  0
 10 11  1  0
 11 12  2  0
 11 13  1  0
 13 14  1  1
 13 15  1  0
 15 16  1  0
 16 17  1  0
 17 18  2  0
 17 19  1  0
 19 20  1  0
 20 21  2  0
 20 37  1  0
 21 22  1  0
 22 23  2  0
 23 24  1  0
 23 36  1  0
 24 25  1  0
 25 26  2  0
 26 27  1  0
 26 36  1  0
 27 28  2  0
 27 32  1  0
 28 29  1  0
 29 30  2  0
 30 31  1  0
 30 35  1  0
 31 32  2  0
 31 33  1  0
 33 34  1  0
 34 35  1  0
 36 37  2  0
M  END
