
     RDKit          3D

 37 41  0  0  0  0  0  0  0  0999 V2000
   -2.4870    0.3150    1.0090 O   0  0  0  0  0  0  0  0  0  0  0  0
   -2.3050    0.2730    2.2340 C   0  0  0  0  0  0  0  0  0  0  0  0
   -3.3480   -0.1220    3.1590 N   0  0  0  0  0  0  0  0  0  0  0  0
   -4.6050   -0.4560    2.4930 C   0  0  0  0  0  0  0  0  0  0  0  0
   -4.4410   -1.4390    1.4790 C   0  0  0  0  0  0  0  0  0  0  0  0
   -4.2990   -2.2120    0.6580 C   0  0  0  0  0  0  0  0  0  0  0  0
   -4.1000   -3.3250   -0.5450 C   0  0  0  0  0  0  0  0  0  0  0  0
   -4.2330   -2.3420   -1.5990 O   0  0  0  0  0  0  0  0  0  0  0  0
   -5.5150   -1.7320   -1.5990 C   0  0  0  0  0  0  0  0  0  0  0  0
   -6.4800   -2.1850   -0.7430 C   0  0  0  0  0  0  0  0  0  0  0  0
   -7.7820   -1.6140   -0.7200 C   0  0  0  0  0  0  0  0  0  0  0  0
   -8.6830   -2.1350    0.1920 O   0  0  0  0  0  0  0  0  0  0  0  0
   -8.0080   -0.5970   -1.5960 C   0  0  0  0  0  0  0  0  0  0  0  0
   -7.0220   -0.1100   -2.4890 C   0  0  0  0  0  0  0  0  0  0  0  0
   -5.7820   -0.6900   -2.4790 C   0  0  0  0  0  0  0  0  0  0  0  0
   -4.9510    0.0030   -3.4890 C   0  0  0  0  0  0  0  0  0  0  0  0
   -5.7040    1.3300   -3.5990 C   0  0  0  0  0  0  0  0  0  0  0  0
   -7.0500    0.9200   -3.4520 O   0  0  0  0  0  0  0  0  0  0  0  0
   -1.0370    0.6090    2.7800 N   0  0  0  0  0  0  0  0  0  0  0  0
    0.0790    0.9230    2.0190 C   0  0  0  0  0  0  0  0  0  0  0  0
    0.1670    0.8740    0.6590 C   0  0  0  0  0  0  0  0  0  0  0  0
    1.3910    1.0650   -0.0170 C   0  0  0  0  0  0  0  0  0  0  0  0
    2.4990    1.3050    0.7240 C   0  0  0  0  0  0  0  0  0  0  0  0
    3.8650    1.4290    0.1220 C   0  0  0  0  0  0  0  0  0  0  0  0
    4.0610    2.0970   -0.8610 O   0  0  0  0  0  0  0  0  0  0  0  0
    4.9230    0.7170    0.7710 N   0  0  0  0  0  0  0  0  0  0  0  0
    6.2480    0.6320    0.3540 C   0  0  0  0  0  0  0  0  0  0  0  0
    7.2130   -0.0020    1.1810 C   0  0  0  0  0  0  0  0  0  0  0  0
    8.4910   -0.1680    0.8020 C   0  0  0  0  0  0  0  0  0  0  0  0
    8.9710    0.2790   -0.4430 C   0  0  0  0  0  0  0  0  0  0  0  0
    8.0160    0.8870   -1.2450 C   0  0  0  0  0  0  0  0  0  0  0  0
    6.7740    1.0230   -0.8150 N   0  0  0  0  0  0  0  0  0  0  0  0
    8.6700    1.2340   -2.4470 O   0  0  0  0  0  0  0  0  0  0  0  0
   10.0340    1.3760   -2.1670 C   0  0  0  0  0  0  0  0  0  0  0  0
   10.3250    0.3690   -1.0380 C   0  0  0  0  0  0  0  0  0  0  0  0
    2.4610    1.3750    2.0790 C   0  0  0  0  0  0  0  0  0  0  0  0
    1.2750    1.1890    2.7510 C   0  0  0  0  0  0  0  0  0  0  0  0
  1  2  2  0
  2  3  1  0
  2 19  1  0
  3  4  1  0
  4  5  1  0
  5  6  3  0
  6  7  1  0
  7  8  1  0
  8  9  1  0
  9 10  2  0
  9 15  1  0
 10 11  1  0
 11 12  1  0
 11 13  2  0
 13 14  1  0
 14 15  2  0
 14 18  1  0
 15 16  1  0
 16 17  1  0
 17 18  1  0
 19 20  1  0
 20 21  2  0
 20 37  1  0
 21 22  1  0
 22 23  2  0
 23 24  1  0
 23 36  1  0
 24 25  2  0
 24 26  1  0
 26 27  1  0
 27 28  2  0
 27 32  1  0
 28 29  1  0
 29 30  2  0
 30 31  1  0
 30 35  1  0
 31 32  2  0
 31 33  1  0
 33 34  1  0
 34 35  1  0
 36 37  2  0
M  END
