
     RDKit          3D

 37 41  0  0  0  0  0  0  0  0999 V2000
   -5.1020   -0.2290   -0.2900 C   0  0  0  0  0  0  0  0  0  0  0  0
   -3.6670   -0.6030   -0.4360 C   0  0  0  0  0  0  0  0  0  0  0  0
   -3.2460   -1.8620   -0.0660 C   0  0  0  0  0  0  0  0  0  0  0  0
   -1.9240   -2.2500   -0.1830 C   0  0  0  0  0  0  0  0  0  0  0  0
   -0.9570   -1.3970   -0.6750 C   0  0  0  0  0  0  0  0  0  0  0  0
    0.4660   -1.8000   -0.8150 C   0  0  1  0  0  0  0  0  0  0  0  0
    1.4020   -0.7820   -0.3780 N   0  0  0  0  0  0  0  0  0  0  0  0
    2.2400   -0.1240   -1.2900 C   0  0  0  0  0  0  0  0  0  0  0  0
    2.1370   -0.4530   -2.5270 O   0  0  0  0  0  0  0  0  0  0  0  0
    3.2290    0.9100   -0.9740 C   0  0  0  0  0  0  0  0  0  0  0  0
    3.8990    1.5880   -1.9140 O   0  0  0  0  0  0  0  0  0  0  0  0
    4.7080    2.4360   -1.3800 C   0  0  0  0  0  0  0  0  0  0  0  0
    4.5960    2.3430   -0.0240 C   0  0  0  0  0  0  0  0  0  0  0  0
    3.6490    1.3660    0.2380 C   0  0  0  0  0  0  0  0  0  0  0  0
    3.2260    0.9360    1.5860 C   0  0  0  0  0  0  0  0  0  0  0  0
    5.5240    3.3160    0.5990 C   0  0  0  0  0  0  0  0  0  0  0  0
    5.7070    4.2320   -0.4300 O   0  0  0  0  0  0  0  0  0  0  0  0
    5.7370    3.4980   -1.6080 C   0  0  0  0  0  0  0  0  0  0  0  0
    0.7030   -3.1230   -0.2130 C   0  0  0  0  0  0  0  0  0  0  0  0
    0.7180   -3.3790    1.1400 C   0  0  0  0  0  0  0  0  0  0  0  0
    0.5020   -2.3380    2.1450 C   0  0  0  0  0  0  0  0  0  0  0  0
    0.9520   -4.6500    1.5890 N   0  0  0  0  0  0  0  0  0  0  0  0
    1.1680   -5.6700    0.7830 N   0  0  0  0  0  0  0  0  0  0  0  0
    1.1670   -5.4920   -0.5390 C   0  0  0  0  0  0  0  0  0  0  0  0
    1.3780   -6.4870   -1.2860 O   0  0  0  0  0  0  0  0  0  0  0  0
    0.9380   -4.2420   -1.0220 C   0  0  0  0  0  0  0  0  0  0  0  0
    0.9340   -4.0610   -2.2530 O   0  0  0  0  0  0  0  0  0  0  0  0
   -1.3820   -0.1350   -1.0450 C   0  0  0  0  0  0  0  0  0  0  0  0
   -2.7180    0.2650   -0.9310 C   0  0  0  0  0  0  0  0  0  0  0  0
   -3.1620    1.5830   -1.3360 C   0  0  0  0  0  0  0  0  0  0  0  0
   -2.9190    1.9740   -2.5140 O   0  0  0  0  0  0  0  0  0  0  0  0
   -3.8820    2.5050   -0.4720 C   0  0  0  0  0  0  0  0  0  0  0  0
   -3.8810    2.4180    0.9030 C   0  0  0  0  0  0  0  0  0  0  0  0
   -4.5960    3.3220    1.6570 C   0  0  0  0  0  0  0  0  0  0  0  0
   -5.3180    4.3200    1.0750 N   0  0  0  0  0  0  0  0  0  0  0  0
   -5.3470    4.4410   -0.2590 C   0  0  0  0  0  0  0  0  0  0  0  0
   -4.6400    3.5490   -1.0190 C   0  0  0  0  0  0  0  0  0  0  0  0
  1  2  1  0
  2  3  2  0
  2 29  1  0
  3  4  1  0
  4  5  2  0
  5  6  1  0
  5 28  1  0
  6  7  1  1
  6 19  1  0
  7  8  1  0
  8  9  2  0
  8 10  1  0
 10 11  1  0
 10 14  2  0
 11 12  1  0
 12 13  2  0
 12 18  1  0
 13 14  1  0
 13 16  1  0
 14 15  1  0
 16 17  1  0
 17 18  1  0
 19 20  2  0
 19 26  1  0
 20 21  1  0
 20 22  1  0
 22 23  1  0
 23 24  1  0
 24 25  2  0
 24 26  1  0
 26 27  2  0
 28 29  2  0
 29 30  1  0
 30 31  2  0
 30 32  1  0
 32 33  2  0
 32 37  1  0
 33 34  1  0
 34 35  2  0
 35 36  1  0
 36 37  2  0
M  END
