
     RDKit          3D

 37 41  0  0  0  0  0  0  0  0999 V2000
   10.2380    1.9230   -0.7810 C   0  0  0  0  0  0  0  0  0  0  0  0
    9.5940    1.0880    0.1620 O   0  0  0  0  0  0  0  0  0  0  0  0
    8.2320    0.8240   -0.0300 C   0  0  0  0  0  0  0  0  0  0  0  0
    7.5310    1.3480   -1.0870 C   0  0  0  0  0  0  0  0  0  0  0  0
    6.2000    1.1080   -1.2990 C   0  0  0  0  0  0  0  0  0  0  0  0
    5.4600    0.2900   -0.4200 C   0  0  0  0  0  0  0  0  0  0  0  0
    4.1090    0.0860   -0.6920 N   0  0  0  0  0  0  0  0  0  0  0  0
    3.1560   -0.6560    0.0590 C   0  0  0  0  0  0  0  0  0  0  0  0
    3.5470   -1.2100    1.1030 O   0  0  0  0  0  0  0  0  0  0  0  0
    1.8140   -0.7850   -0.3270 N   0  0  0  0  0  0  0  0  0  0  0  0
    0.8140   -1.5200    0.3820 C   0  0  0  0  0  0  0  0  0  0  0  0
    1.0420   -2.4180    1.3750 C   0  0  0  0  0  0  0  0  0  0  0  0
    0.0400   -3.0820    2.0360 C   0  0  0  0  0  0  0  0  0  0  0  0
    0.3200   -4.0070    3.0610 O   0  0  0  0  0  0  0  0  0  0  0  0
    1.6840   -4.2110    3.3670 C   0  0  0  0  0  0  0  0  0  0  0  0
   -1.2810   -2.8350    1.6830 C   0  0  0  0  0  0  0  0  0  0  0  0
   -1.5580   -1.9200    0.6680 C   0  0  0  0  0  0  0  0  0  0  0  0
   -2.9740   -1.7540    0.3290 C   0  0  0  0  0  0  0  0  0  0  0  0
   -3.6560   -2.8050    0.3790 O   0  0  0  0  0  0  0  0  0  0  0  0
   -3.5720   -0.4970   -0.0410 C   0  0  0  0  0  0  0  0  0  0  0  0
   -2.8890    0.6920    0.2420 C   0  0  0  0  0  0  0  0  0  0  0  0
   -3.4840    1.9400    0.0210 C   0  0  0  0  0  0  0  0  0  0  0  0
   -4.7630    2.0310   -0.4820 C   0  0  0  0  0  0  0  0  0  0  0  0
   -5.4600    0.8860   -0.7700 C   0  0  0  0  0  0  0  0  0  0  0  0
   -4.8350   -0.3380   -0.5400 C   0  0  0  0  0  0  0  0  0  0  0  0
   -5.3980   -1.6180   -0.8650 N   0  0  0  0  0  0  0  0  0  0  0  0
   -6.7930   -1.9450   -0.7720 C   0  0  0  0  0  0  0  0  0  0  0  0
   -7.0480   -3.1580   -0.5580 O   0  0  0  0  0  0  0  0  0  0  0  0
   -7.8500   -1.0390   -0.8990 O   0  0  0  0  0  0  0  0  0  0  0  0
   -7.8620    0.3190   -0.5390 C   0  0  0  0  0  0  0  0  0  0  0  0
   -6.8410    1.1570   -1.2940 C   0  0  0  0  0  0  0  0  0  0  0  0
   -5.1290    3.4540   -0.6070 C   0  0  0  0  0  0  0  0  0  0  0  0
   -3.8200    4.1840   -0.4580 C   0  0  0  0  0  0  0  0  0  0  0  0
   -2.9700    3.2470    0.2360 N   0  0  0  0  0  0  0  0  0  0  0  0
   -0.5320   -1.2840    0.0390 C   0  0  0  0  0  0  0  0  0  0  0  0
    6.1650   -0.2300    0.6330 C   0  0  0  0  0  0  0  0  0  0  0  0
    7.5290    0.0260    0.8360 C   0  0  0  0  0  0  0  0  0  0  0  0
  1  2  1  0
  2  3  1  0
  3  4  2  0
  3 37  1  0
  4  5  1  0
  5  6  2  0
  6  7  1  0
  6 36  1  0
  7  8  1  0
  8  9  2  0
  8 10  1  0
 10 11  1  0
 11 12  2  0
 11 35  1  0
 12 13  1  0
 13 14  1  0
 13 16  2  0
 14 15  1  0
 16 17  1  0
 17 18  1  0
 17 35  2  0
 18 19  2  0
 18 20  1  0
 20 21  2  0
 20 25  1  0
 21 22  1  0
 22 23  2  0
 22 34  1  0
 23 24  1  0
 23 32  1  0
 24 25  2  0
 24 31  1  0
 25 26  1  0
 26 27  1  0
 27 28  2  0
 27 29  1  0
 29 30  1  0
 30 31  1  0
 32 33  1  0
 33 34  1  0
 36 37  2  0
M  END
