
     RDKit          3D

 37 41  0  0  0  0  0  0  0  0999 V2000
   10.3620    2.7250    0.5340 C   0  0  0  0  0  0  0  0  0  0  0  0
    9.5020    1.4910    0.4890 C   0  0  0  0  0  0  0  0  0  0  0  0
   10.0560    0.3720    0.5220 O   0  0  0  0  0  0  0  0  0  0  0  0
    8.0610    1.6210    0.4080 C   0  0  0  0  0  0  0  0  0  0  0  0
    7.4560    2.8450    0.3720 C   0  0  0  0  0  0  0  0  0  0  0  0
    6.0650    2.9740    0.2940 C   0  0  0  0  0  0  0  0  0  0  0  0
    5.2920    1.8350    0.2530 C   0  0  0  0  0  0  0  0  0  0  0  0
    3.9600    1.5810    0.1790 N   0  0  0  0  0  0  0  0  0  0  0  0
    3.7480    0.2650    0.1700 C   0  0  0  0  0  0  0  0  0  0  0  0
    2.5260   -0.4630    0.1040 N   0  0  0  0  0  0  0  0  0  0  0  0
    1.2540    0.1270    0.0300 C   0  0  0  0  0  0  0  0  0  0  0  0
    1.1990    1.4150    0.0220 O   0  0  0  0  0  0  0  0  0  0  0  0
    0.0070   -0.6280   -0.0370 C   0  0  0  0  0  0  0  0  0  0  0  0
   -1.2070    0.0790   -0.1660 C   0  0  0  0  0  0  0  0  0  0  0  0
   -2.4270   -0.5450   -0.2410 C   0  0  0  0  0  0  0  0  0  0  0  0
   -3.6430    0.2610   -0.3740 C   0  0  0  0  0  0  0  0  0  0  0  0
   -3.5820    1.5240   -0.3830 O   0  0  0  0  0  0  0  0  0  0  0  0
   -4.9390   -0.3020   -0.5000 N   0  0  0  0  0  0  0  0  0  0  0  0
   -6.1490    0.4940   -0.6320 C   0  0  0  0  0  0  0  0  0  0  0  0
   -6.3800    1.3910    0.5350 C   0  0  0  0  0  0  0  0  0  0  0  0
   -7.5230    2.1170    0.3790 O   0  0  0  0  0  0  0  0  0  0  0  0
   -7.5240    2.9330   -0.7150 C   0  0  0  0  0  0  0  0  0  0  0  0
   -8.8780    3.6700   -0.6910 C   0  0  0  0  0  0  0  0  0  0  0  0
   -9.8910    2.7110   -0.7560 O   0  0  0  0  0  0  0  0  0  0  0  0
   -2.4260   -1.9130   -0.1840 C   0  0  0  0  0  0  0  0  0  0  0  0
   -1.2700   -2.6630   -0.0580 C   0  0  0  0  0  0  0  0  0  0  0  0
   -0.0420   -1.9920    0.0150 C   0  0  0  0  0  0  0  0  0  0  0  0
    0.8660   -2.9320    0.1290 O   0  0  0  0  0  0  0  0  0  0  0  0
    0.3440   -4.1320    0.1360 C   0  0  0  0  0  0  0  0  0  0  0  0
    0.9110   -5.3970    0.2350 C   0  0  0  0  0  0  0  0  0  0  0  0
    0.1420   -6.5260    0.2190 C   0  0  0  0  0  0  0  0  0  0  0  0
   -1.2420   -6.4120    0.1000 C   0  0  0  0  0  0  0  0  0  0  0  0
   -1.7930   -5.1420    0.0020 C   0  0  0  0  0  0  0  0  0  0  0  0
   -1.0230   -4.0120    0.0180 C   0  0  0  0  0  0  0  0  0  0  0  0
    4.9550   -0.3000    0.2390 N   0  0  0  0  0  0  0  0  0  0  0  0
    5.9210    0.6160    0.2910 C   0  0  0  0  0  0  0  0  0  0  0  0
    7.2850    0.4830    0.3670 C   0  0  0  0  0  0  0  0  0  0  0  0
  1  2  1  0
  2  3  2  0
  2  4  1  0
  4  5  2  0
  4 37  1  0
  5  6  1  0
  6  7  2  0
  7  8  1  0
  7 36  1  0
  8  9  1  0
  9 10  1  0
  9 35  2  0
 10 11  1  0
 11 12  2  0
 11 13  1  0
 13 14  2  0
 13 27  1  0
 14 15  1  0
 15 16  1  0
 15 25  2  0
 16 17  2  0
 16 18  1  0
 18 19  1  0
 19 20  1  0
 20 21  1  0
 21 22  1  0
 22 23  1  0
 23 24  1  0
 25 26  1  0
 26 27  2  0
 26 34  1  0
 27 28  1  0
 28 29  1  0
 29 30  2  0
 29 34  1  0
 30 31  1  0
 31 32  2  0
 32 33  1  0
 33 34  2  0
 35 36  1  0
 36 37  2  0
M  END
