
     RDKit          3D

 22 24  0  0  0  0  0  0  0  0999 V2000
    5.9430    1.2790   -1.0320 C   0  0  0  0  0  0  0  0  0  0  0  0
    4.5200    0.9480   -0.7690 C   0  0  0  0  0  0  0  0  0  0  0  0
    4.1680   -0.0620    0.0190 C   0  0  0  0  0  0  0  0  0  0  0  0
    4.9810   -0.9710    0.7250 N   0  0  0  0  0  0  0  0  0  0  0  0
    4.2480   -1.8010    1.3740 C   0  0  0  0  0  0  0  0  0  0  0  0
    4.7890   -3.1160    2.3980 Cl  0  0  0  0  0  0  0  0  0  0  0  0
    2.8230   -1.4930    1.1390 C   0  0  0  0  0  0  0  0  0  0  0  0
    2.7670   -0.4570    0.3320 C   0  0  0  0  0  0  0  0  0  0  0  0
    1.6250    0.2550   -0.2190 C   0  0  0  0  0  0  0  0  0  0  0  0
    0.2890   -0.2140    0.1510 C   0  0  0  0  0  0  0  0  0  0  0  0
    0.1140   -1.1870    0.9140 O   0  0  0  0  0  0  0  0  0  0  0  0
   -0.8880    0.4260   -0.3470 N   0  0  0  0  0  0  0  0  0  0  0  0
   -2.2240    0.0850   -0.0710 C   0  0  0  0  0  0  0  0  0  0  0  0
   -2.6400   -0.7890    0.9140 C   0  0  0  0  0  0  0  0  0  0  0  0
   -4.0080   -1.0430    1.0580 C   0  0  0  0  0  0  0  0  0  0  0  0
   -4.9670   -0.4630    0.2640 C   0  0  0  0  0  0  0  0  0  0  0  0
   -6.2760   -0.5240    0.1860 O   0  0  0  0  0  0  0  0  0  0  0  0
   -6.6790    0.2570   -0.7830 C   0  0  0  0  0  0  0  0  0  0  0  0
   -7.8800    0.4660   -1.1660 O   0  0  0  0  0  0  0  0  0  0  0  0
   -5.6450    0.8570   -1.3730 N   0  0  0  0  0  0  0  0  0  0  0  0
   -4.5290    0.4030   -0.7100 C   0  0  0  0  0  0  0  0  0  0  0  0
   -3.1960    0.6770   -0.8810 C   0  0  0  0  0  0  0  0  0  0  0  0
  1  2  1  0
  2  3  2  3
  3  4  1  0
  3  8  1  0
  4  5  2  0
  5  6  1  0
  5  7  1  0
  7  8  2  0
  8  9  1  0
  9 10  1  0
 10 11  2  0
 10 12  1  0
 12 13  1  0
 13 14  2  0
 13 22  1  0
 14 15  1  0
 15 16  2  0
 16 17  1  0
 16 21  1  0
 17 18  1  0
 18 19  2  0
 18 20  1  0
 20 21  1  0
 21 22  2  0
M  END
