
     RDKit          3D

 22 24  0  0  0  0  0  0  0  0999 V2000
    6.7890   -0.5350   -0.1850 C   0  0  0  0  0  0  0  0  0  0  0  0
    5.6190   -1.3460    0.9700 S   0  0  0  0  0  0  0  0  0  0  0  0
    3.9790   -0.9030    0.4530 C   0  0  0  0  0  0  0  0  0  0  0  0
    3.2590   -1.6440   -0.4480 C   0  0  0  0  0  0  0  0  0  0  0  0
    1.9710   -1.2780   -0.8410 C   0  0  0  0  0  0  0  0  0  0  0  0
    1.3950   -0.1420   -0.3160 C   0  0  0  0  0  0  0  0  0  0  0  0
    0.0960    0.2450   -0.6990 O   0  0  0  0  0  0  0  0  0  0  0  0
   -0.4260    1.3690   -0.1550 N   0  0  0  0  0  0  0  0  0  0  0  0
   -1.6650    1.5440    0.1310 C   0  0  0  0  0  0  0  0  0  0  0  0
   -2.2020    2.7660    0.7160 C   0  0  0  0  0  0  0  0  0  0  0  0
   -1.5680    3.8190    1.0300 O   0  0  0  0  0  0  0  0  0  0  0  0
   -3.5980    2.5530    0.8730 N   0  0  0  0  0  0  0  0  0  0  0  0
   -3.9720    1.2510    0.4140 C   0  0  0  0  0  0  0  0  0  0  0  0
   -5.1940    0.5940    0.3620 C   0  0  0  0  0  0  0  0  0  0  0  0
   -5.2520   -0.6830   -0.1420 C   0  0  0  0  0  0  0  0  0  0  0  0
   -6.7810   -1.5680   -0.2330 Cl  0  0  0  0  0  0  0  0  0  0  0  0
   -4.0810   -1.2670   -0.5810 C   0  0  0  0  0  0  0  0  0  0  0  0
   -4.1720   -2.5590   -1.0850 O   0  0  0  0  0  0  0  0  0  0  0  0
   -2.8570   -0.6390   -0.5410 C   0  0  0  0  0  0  0  0  0  0  0  0
   -2.8090    0.6580   -0.0270 C   0  0  0  0  0  0  0  0  0  0  0  0
    2.1230    0.5990    0.5890 C   0  0  0  0  0  0  0  0  0  0  0  0
    3.4090    0.2320    0.9800 C   0  0  0  0  0  0  0  0  0  0  0  0
  1  2  1  0
  2  3  1  0
  3  4  2  0
  3 22  1  0
  4  5  1  0
  5  6  2  0
  6  7  1  0
  6 21  1  0
  7  8  1  0
  8  9  2  3
  9 10  1  0
  9 20  1  0
 10 11  2  0
 10 12  1  0
 12 13  1  0
 13 14  2  0
 13 20  1  0
 14 15  1  0
 15 16  1  0
 15 17  2  0
 17 18  1  0
 17 19  1  0
 19 20  2  0
 21 22  2  0
M  END
