
     RDKit          3D

 22 24  0  0  0  0  0  0  0  0999 V2000
   -1.9120    1.1450   -1.5560 C   0  0  0  0  0  0  0  0  0  0  0  0
   -2.5980    0.9960   -0.2540 C   0  0  0  0  0  0  0  0  0  0  0  0
   -3.8670    1.5030   -0.0730 C   0  0  0  0  0  0  0  0  0  0  0  0
   -4.5090    1.3730    1.1210 C   0  0  0  0  0  0  0  0  0  0  0  0
   -6.1320    2.0230    1.3490 Cl  0  0  0  0  0  0  0  0  0  0  0  0
   -3.8620    0.7260    2.1390 C   0  0  0  0  0  0  0  0  0  0  0  0
   -2.5710    0.2110    1.9510 C   0  0  0  0  0  0  0  0  0  0  0  0
   -1.9070    0.3290    0.7620 C   0  0  0  0  0  0  0  0  0  0  0  0
   -0.5960   -0.1760    0.5200 N   0  0  0  0  0  0  0  0  0  0  0  0
    0.2350   -0.8540    1.3960 C   0  0  0  0  0  0  0  0  0  0  0  0
   -0.2410   -1.0910    2.5570 O   0  0  0  0  0  0  0  0  0  0  0  0
    1.5530   -1.3240    1.1300 C   0  0  0  0  0  0  0  0  0  0  0  0
    2.3170   -2.5360    2.3480 S   0  0  0  0  0  0  0  0  0  0  0  0
    3.8240   -2.7030    1.4720 C   0  0  0  0  0  0  0  0  0  0  0  0
    4.8120   -3.4430    1.8200 O   0  0  0  0  0  0  0  0  0  0  0  0
    3.6720   -1.9290    0.4540 N   0  0  0  0  0  0  0  0  0  0  0  0
    2.5560   -1.2250    0.2540 C   0  0  0  0  0  0  0  0  0  0  0  0
    2.4810   -0.3030   -0.9450 C   0  0  0  0  0  0  0  0  0  0  0  0
    3.0900   -0.5130   -2.1710 C   0  0  0  0  0  0  0  0  0  0  0  0
    2.9230    0.6130   -2.9200 C   0  0  0  0  0  0  0  0  0  0  0  0
    2.2580    1.4640   -2.2140 O   0  0  0  0  0  0  0  0  0  0  0  0
    1.9710    0.9600   -1.0220 C   0  0  0  0  0  0  0  0  0  0  0  0
  1  2  1  0
  2  3  2  0
  2  8  1  0
  3  4  1  0
  4  5  1  0
  4  6  2  0
  6  7  1  0
  7  8  2  0
  8  9  1  0
  9 10  1  0
 10 11  2  0
 10 12  1  0
 12 13  1  0
 12 17  2  0
 13 14  1  0
 14 15  2  0
 14 16  1  0
 16 17  1  0
 17 18  1  0
 18 19  1  0
 18 22  2  0
 19 20  2  0
 20 21  1  0
 21 22  1  0
M  END
