
     RDKit          3D

 22 24  0  0  0  0  0  0  0  0999 V2000
    4.0840   -0.1420    2.5570 C   0  0  0  0  0  0  0  0  0  0  0  0
    3.8640   -0.1550    1.0700 C   0  0  0  0  0  0  0  0  0  0  0  0
    4.3950   -1.0660    0.1800 C   0  0  0  0  0  0  0  0  0  0  0  0
    3.9110   -0.6670   -1.0510 C   0  0  0  0  0  0  0  0  0  0  0  0
    3.1090    0.4610   -0.8770 C   0  0  0  0  0  0  0  0  0  0  0  0
    2.3860    1.2230   -1.9280 C   0  0  0  0  0  0  0  0  0  0  0  0
    0.9790    0.6400   -2.1150 C   0  0  0  0  0  0  0  0  0  0  0  0
    0.7770   -0.3470   -2.9920 C   0  0  0  0  0  0  0  0  0  0  0  0
   -1.0320   -0.6870   -2.8490 S   0  0  0  0  0  0  0  0  0  0  0  0
   -1.1960    0.6580   -1.5410 C   0  0  0  0  0  0  0  0  0  0  0  0
   -2.5650    0.9030   -0.9590 C   0  0  1  0  0  0  0  0  0  0  0  0
   -3.5690    0.8770   -2.0120 N   0  0  0  0  0  0  0  0  0  0  0  0
   -2.8650    0.0250    0.1640 C   0  0  0  0  0  0  0  0  0  0  0  0
   -3.0940    0.5630    1.3530 C   0  0  0  0  0  0  0  0  0  0  0  0
   -3.0220    2.3350    1.5210 Cl  0  0  0  0  0  0  0  0  0  0  0  0
   -3.4260   -0.2450    2.5480 C   0  0  0  0  0  0  0  0  0  0  0  0
   -2.7590   -1.5780    2.4570 C   0  0  0  0  0  0  0  0  0  0  0  0
   -3.1920   -2.1930    1.2320 O   0  0  0  0  0  0  0  0  0  0  0  0
   -2.9150   -1.4290    0.0860 C   0  0  0  0  0  0  0  0  0  0  0  0
   -2.7130   -1.9950   -0.9980 O   0  0  0  0  0  0  0  0  0  0  0  0
   -0.1000    1.0280   -1.4730 N   0  0  0  0  0  0  0  0  0  0  0  0
    3.1300    0.7050    0.4110 O   0  0  0  0  0  0  0  0  0  0  0  0
  1  2  1  0
  2  3  2  0
  2 22  1  0
  3  4  1  0
  4  5  2  0
  5  6  1  0
  5 22  1  0
  6  7  1  0
  7  8  2  0
  7 21  1  0
  8  9  1  0
  9 10  1  0
 10 11  1  0
 10 21  2  0
 11 12  1  6
 11 13  1  0
 13 14  2  0
 13 19  1  0
 14 15  1  0
 14 16  1  0
 16 17  1  0
 17 18  1  0
 18 19  1  0
 19 20  2  0
M  END
