
     RDKit          3D

 13 14  0  0  0  0  0  0  0  0999 V2000
    3.1480   -0.8690    0.0130 N   0  0  0  0  0  0  0  0  0  0  0  0
    1.9970    0.0220   -0.2040 C   0  0  1  0  0  0  0  0  0  0  0  0
    1.0350   -0.7010   -1.0730 C   0  0  0  0  0  0  0  0  0  0  0  0
   -0.3070   -0.2730   -1.0050 N   0  0  0  0  0  0  0  0  0  0  0  0
   -1.2890   -1.2290   -1.3950 C   0  0  0  0  0  0  0  0  0  0  0  0
   -2.6090   -0.6850   -0.8300 C   0  0  0  0  0  0  0  0  0  0  0  0
   -2.1540    0.5110    0.0220 C   0  0  2  0  0  0  0  0  0  0  0  0
   -2.0640    1.5910   -0.8510 O   0  0  0  0  0  0  0  0  0  0  0  0
   -0.7570    0.0670    0.3430 C   0  0  2  0  0  0  0  0  0  0  0  0
    0.1220    1.1230    0.8980 C   0  0  1  0  0  0  0  0  0  0  0  0
   -0.3490    1.6890    2.0600 O   0  0  0  0  0  0  0  0  0  0  0  0
    1.4760    0.4320    1.1280 C   0  0  2  0  0  0  0  0  0  0  0  0
    2.3680    1.2440    1.7790 O   0  0  0  0  0  0  0  0  0  0  0  0
  2  1  1  1
  2  3  1  0
  2 12  1  0
  3  4  1  0
  4  5  1  0
  9  4  1  6
  5  6  1  0
  6  7  1  0
  7  8  1  6
  7  9  1  0
  9 10  1  0
 10 11  1  1
 10 12  1  0
 12 13  1  6
M  END
