
     RDKit          3D

 22 24  0  0  0  0  0  0  0  0999 V2000
    6.5520   -1.0060   -0.3710 C   0  0  0  0  0  0  0  0  0  0  0  0
    5.1220   -0.7870    0.0160 C   0  0  0  0  0  0  0  0  0  0  0  0
    4.7340   -0.4440    1.2860 C   0  0  0  0  0  0  0  0  0  0  0  0
    3.3490   -0.3350    1.2340 C   0  0  0  0  0  0  0  0  0  0  0  0
    2.9640   -0.6100   -0.0370 C   0  0  0  0  0  0  0  0  0  0  0  0
    1.6030   -0.6140   -0.5740 C   0  0  0  0  0  0  0  0  0  0  0  0
    0.7790    0.3820   -0.4070 C   0  0  0  0  0  0  0  0  0  0  0  0
   -0.9130    0.4020   -1.0550 S   0  0  0  0  0  0  0  0  0  0  0  0
   -1.3910    1.8800   -0.1860 C   0  0  0  0  0  0  0  0  0  0  0  0
   -2.5680    2.3260   -0.0840 N   0  0  0  0  0  0  0  0  0  0  0  0
   -3.7020    1.7040   -0.6560 C   0  0  0  0  0  0  0  0  0  0  0  0
   -4.2590    2.3680   -1.6010 O   0  0  0  0  0  0  0  0  0  0  0  0
   -4.2280    0.4180   -0.2380 C   0  0  0  0  0  0  0  0  0  0  0  0
   -5.2870   -0.1650   -0.7660 C   0  0  0  0  0  0  0  0  0  0  0  0
   -6.2480    0.5100   -2.0660 Cl  0  0  0  0  0  0  0  0  0  0  0  0
   -5.5520   -1.4640   -0.1090 C   0  0  0  0  0  0  0  0  0  0  0  0
   -4.4900   -1.5700    0.8900 C   0  0  0  0  0  0  0  0  0  0  0  0
   -3.7480   -0.4840    0.7970 C   0  0  0  0  0  0  0  0  0  0  0  0
   -0.2240    2.4430    0.3430 N   0  0  0  0  0  0  0  0  0  0  0  0
    0.9230    1.6720    0.2350 C   0  0  0  0  0  0  0  0  0  0  0  0
    2.0560    2.0570    0.6670 O   0  0  0  0  0  0  0  0  0  0  0  0
    4.0460   -0.8720   -0.7230 O   0  0  0  0  0  0  0  0  0  0  0  0
  1  2  1  0
  2  3  2  0
  2 22  1  0
  3  4  1  0
  4  5  2  0
  5  6  1  0
  5 22  1  0
  6  7  2  3
  7  8  1  0
  7 20  1  0
  8  9  1  0
  9 10  2  3
  9 19  1  0
 10 11  1  0
 11 12  2  0
 11 13  1  0
 13 14  2  0
 13 18  1  0
 14 15  1  0
 14 16  1  0
 16 17  1  0
 17 18  2  0
 19 20  1  0
 20 21  2  0
M  END
