
     RDKit          3D

 13 13  0  0  0  0  0  0  0  0999 V2000
    2.7790    1.4660   -0.3790 C   0  0  0  0  0  0  0  0  0  0  0  0
    2.7990    0.4860    0.6620 N   0  0  0  0  0  0  0  0  0  0  0  0
    2.0740   -0.7060    0.3890 C   0  0  1  0  0  0  0  0  0  0  0  0
    1.9590   -1.4290    1.5800 O   0  0  0  0  0  0  0  0  0  0  0  0
    0.6970   -0.5030   -0.1550 C   0  0  1  0  0  0  0  0  0  0  0  0
    0.7230    0.2000   -1.3610 O   0  0  0  0  0  0  0  0  0  0  0  0
    0.1370   -1.8860   -0.4760 C   0  0  0  0  0  0  0  0  0  0  0  0
   -1.2050   -1.6170   -1.1170 C   0  0  0  0  0  0  0  0  0  0  0  0
   -2.0710   -1.1050   -0.2180 O   0  0  0  0  0  0  0  0  0  0  0  0
   -1.6770   -0.0560    0.5400 C   0  0  2  0  0  0  0  0  0  0  0  0
   -2.2700    1.2190   -0.0780 C   0  0  0  0  0  0  0  0  0  0  0  0
   -3.7360    1.0980   -0.0800 N   0  0  0  0  0  0  0  0  0  0  0  0
   -0.2420    0.0910    0.8420 C   0  0  0  0  0  0  0  0  0  0  0  0
  1  2  1  0
  2  3  1  0
  3  4  1  1
  3  5  1  0
  5  6  1  6
  5  7  1  0
  5 13  1  0
  7  8  1  0
  8  9  1  0
  9 10  1  0
 10 11  1  6
 10 13  1  0
 11 12  1  0
M  CHG  2   2   1  12   1
M  END
