
     RDKit          3D

 13 13  0  0  0  0  0  0  0  0999 V2000
   -3.6460    0.6260   -0.5700 C   0  0  0  0  0  0  0  0  0  0  0  0
   -2.3330   -0.1320   -0.1780 C   0  0  2  0  0  0  0  0  0  0  0  0
   -2.6700   -0.7210    1.1760 C   0  0  0  0  0  0  0  0  0  0  0  0
   -3.8030   -1.5540    0.9280 O   0  0  0  0  0  0  0  0  0  0  0  0
   -1.2940    0.9270   -0.1680 C   0  0  2  0  0  0  0  0  0  0  0  0
   -1.3320    1.4690   -1.5120 O   0  0  0  0  0  0  0  0  0  0  0  0
    0.1100    0.5700    0.0250 C   0  0  1  0  0  0  0  0  0  0  0  0
    0.5100   -0.0040    1.2850 N   0  0  0  0  0  0  0  0  0  0  0  0
    1.9850    0.0250    1.0190 C   0  0  0  0  0  0  0  0  0  0  0  0
    1.9500   -0.6050   -0.3800 C   0  0  2  0  0  0  0  0  0  0  0  0
    3.0150    0.0230   -1.2480 C   0  0  0  0  0  0  0  0  0  0  0  0
    4.3120   -0.2940   -0.6840 N   0  0  0  0  0  0  0  0  0  0  0  0
    0.6610   -0.3220   -0.8940 O   0  0  0  0  0  0  0  0  0  0  0  0
  2  1  1  1
  2  3  1  0
  2  5  1  0
  3  4  1  0
  5  6  1  6
  5  7  1  0
  7  8  1  1
  7 13  1  0
  8  9  1  0
  9 10  1  0
 10 11  1  6
 10 13  1  0
 11 12  1  0
M  CHG  2   8   1  12   1
M  END
