
     RDKit          3D

 12 13  0  0  0  0  0  0  0  0999 V2000
   -3.2520   -0.7790    0.4660 N   0  0  0  0  0  0  0  0  0  0  0  0
   -2.7580   -0.1130   -0.6980 C   0  0  0  0  0  0  0  0  0  0  0  0
   -1.2680   -0.1480   -0.8350 C   0  0  2  0  0  0  0  0  0  0  0  0
   -0.7280   -1.4040   -0.9150 O   0  0  0  0  0  0  0  0  0  0  0  0
    0.5580   -1.3810   -0.4430 C   0  0  0  0  0  0  0  0  0  0  0  0
    0.8670    0.0320    0.0010 C   0  0  1  0  0  0  0  0  0  0  0  0
    1.7740    0.1140    1.1700 C   0  0  0  0  0  0  0  0  0  0  0  0
    3.1390    0.2930    0.5230 C   0  0  0  0  0  0  0  0  0  0  0  0
    2.7790    0.4400   -0.9410 C   0  0  0  0  0  0  0  0  0  0  0  0
    1.4520    0.7890   -1.0080 O   0  0  0  0  0  0  0  0  0  0  0  0
   -0.5470    0.5140    0.3040 C   0  0  1  0  0  0  0  0  0  0  0  0
   -0.6420    1.9470    0.2930 N   0  0  0  0  0  0  0  0  0  0  0  0
  1  2  1  0
  3  2  1  1
  3  4  1  0
  3 11  1  0
  4  5  1  0
  6  5  1  6
  6  7  1  0
  6 10  1  0
  6 11  1  0
  7  8  1  0
  8  9  1  0
  9 10  1  0
 11 12  1  6
M  CHG  2   1   1  12   1
M  END
