
     RDKit          3D

 27 31  0  0  0  0  0  0  0  0999 V2000
    0.0640    2.1160   -1.1800 N   0  0  0  0  0  0  0  0  0  0  0  0
    0.1160    0.7230   -0.8720 C   0  0  0  0  0  0  0  0  0  0  0  0
   -0.9190    0.0240   -0.2900 C   0  0  0  0  0  0  0  0  0  0  0  0
   -2.2280    0.5290    0.1160 C   0  0  0  0  0  0  0  0  0  0  0  0
   -2.6400    0.5130    1.4350 C   0  0  0  0  0  0  0  0  0  0  0  0
   -3.8680    0.9870    1.8190 C   0  0  0  0  0  0  0  0  0  0  0  0
   -4.7380    1.5010    0.8750 C   0  0  0  0  0  0  0  0  0  0  0  0
   -4.3620    1.5330   -0.4510 C   0  0  0  0  0  0  0  0  0  0  0  0
   -3.1210    1.0520   -0.8220 C   0  0  0  0  0  0  0  0  0  0  0  0
   -0.4950   -1.3030   -0.1470 C   0  0  0  0  0  0  0  0  0  0  0  0
   -1.2480   -2.4070    0.4170 C   0  0  0  0  0  0  0  0  0  0  0  0
   -2.4200   -2.9520   -0.0380 C   0  0  0  0  0  0  0  0  0  0  0  0
   -2.7720   -3.9920    0.8230 C   0  0  0  0  0  0  0  0  0  0  0  0
   -1.8320   -4.0300    1.7290 O   0  0  0  0  0  0  0  0  0  0  0  0
   -0.9120   -3.1210    1.5380 C   0  0  0  0  0  0  0  0  0  0  0  0
    0.7600   -1.3080   -0.6510 N   0  0  0  0  0  0  0  0  0  0  0  0
    1.1310   -0.1330   -1.0780 N   0  0  0  0  0  0  0  0  0  0  0  0
    2.3720    0.2880   -1.6780 C   0  0  0  0  0  0  0  0  0  0  0  0
    2.5800    0.4930   -3.0260 C   0  0  0  0  0  0  0  0  0  0  0  0
    3.8580    0.8770   -3.1670 N   0  0  0  0  0  0  0  0  0  0  0  0
    4.4300    0.9150   -1.9890 N   0  0  0  0  0  0  0  0  0  0  0  0
    3.5540    0.5580   -1.0240 C   0  0  0  0  0  0  0  0  0  0  0  0
    3.8100    0.4780    0.4190 C   0  0  0  0  0  0  0  0  0  0  0  0
    4.4760    1.4300    1.1600 C   0  0  0  0  0  0  0  0  0  0  0  0
    4.5130    0.9820    2.4870 C   0  0  0  0  0  0  0  0  0  0  0  0
    3.9000   -0.1660    2.5040 O   0  0  0  0  0  0  0  0  0  0  0  0
    3.4710   -0.5030    1.3160 C   0  0  0  0  0  0  0  0  0  0  0  0
  1  2  1  0
  2  3  2  0
  2 17  1  0
  3  4  1  0
  3 10  1  0
  4  5  2  0
  4  9  1  0
  5  6  1  0
  6  7  2  0
  7  8  1  0
  8  9  2  0
 10 11  1  0
 10 16  2  0
 11 12  1  0
 11 15  2  0
 12 13  2  0
 13 14  1  0
 14 15  1  0
 16 17  1  0
 17 18  1  0
 18 19  2  0
 18 22  1  0
 19 20  1  0
 20 21  1  0
 21 22  2  0
 22 23  1  0
 23 24  1  0
 23 27  2  0
 24 25  2  0
 25 26  1  0
 26 27  1  0
M  END
