
     RDKit          3D

 28 32  0  0  0  0  0  0  0  0999 V2000
   -4.3760   -0.1600   -2.0570 C   0  0  0  0  0  0  0  0  0  0  0  0
   -4.5680    0.7290   -0.8360 C   0  0  1  0  0  0  0  0  0  0  0  0
   -6.0490    0.9310   -0.6420 C   0  0  0  0  0  0  0  0  0  0  0  0
   -3.9690    0.2150    0.3510 N   0  0  0  0  0  0  0  0  0  0  0  0
   -2.5350    0.0840    0.3620 C   0  0  0  0  0  0  0  0  0  0  0  0
   -1.7400    0.4430   -0.7070 C   0  0  0  0  0  0  0  0  0  0  0  0
   -0.3580    0.3080   -0.6740 C   0  0  0  0  0  0  0  0  0  0  0  0
    0.2030   -0.2000    0.4690 C   0  0  0  0  0  0  0  0  0  0  0  0
    1.6210   -0.3410    0.5080 N   0  0  0  0  0  0  0  0  0  0  0  0
    2.2840   -1.1870    1.3140 C   0  0  0  0  0  0  0  0  0  0  0  0
    3.5770   -1.0350    1.0650 N   0  0  0  0  0  0  0  0  0  0  0  0
    3.7380   -0.0970    0.1060 C   0  0  0  0  0  0  0  0  0  0  0  0
    5.0400    0.3120   -0.4020 C   0  0  0  0  0  0  0  0  0  0  0  0
    6.2140   -0.2340    0.0640 C   0  0  0  0  0  0  0  0  0  0  0  0
    7.4420    0.1790   -0.4440 C   0  0  0  0  0  0  0  0  0  0  0  0
    7.4300    1.1440   -1.4180 C   0  0  0  0  0  0  0  0  0  0  0  0
    8.6510    1.6120   -1.9800 N   0  0  0  0  0  0  0  0  0  0  0  0
    6.2840    1.7010   -1.8960 N   0  0  0  0  0  0  0  0  0  0  0  0
    5.1090    1.2770   -1.3830 C   0  0  0  0  0  0  0  0  0  0  0  0
    2.5190    0.3070   -0.2130 N   0  0  0  0  0  0  0  0  0  0  0  0
   -0.5890   -0.5600    1.5370 C   0  0  0  0  0  0  0  0  0  0  0  0
   -1.9780   -0.4280    1.5140 C   0  0  0  0  0  0  0  0  0  0  0  0
   -2.7440   -0.7990    2.6110 O   0  0  0  0  0  0  0  0  0  0  0  0
   -4.1350   -0.6740    2.6070 C   0  0  0  0  0  0  0  0  0  0  0  0
   -5.1250   -0.9540    3.5250 C   0  0  0  0  0  0  0  0  0  0  0  0
   -6.2700   -0.6330    2.9780 O   0  0  0  0  0  0  0  0  0  0  0  0
   -6.0600   -0.1730    1.7820 N   0  0  0  0  0  0  0  0  0  0  0  0
   -4.7500   -0.1670    1.4770 C   0  0  0  0  0  0  0  0  0  0  0  0
  2  1  1  6
  2  3  1  0
  2  4  1  0
  4  5  1  0
  4 28  1  0
  5  6  2  0
  5 22  1  0
  6  7  1  0
  7  8  2  0
  8  9  1  0
  8 21  1  0
  9 10  1  0
  9 20  1  0
 10 11  2  0
 11 12  1  0
 12 13  1  0
 12 20  2  0
 13 14  2  0
 13 19  1  0
 14 15  1  0
 15 16  2  0
 16 17  1  0
 16 18  1  0
 18 19  2  0
 21 22  2  0
 22 23  1  0
 23 24  1  0
 24 25  2  0
 24 28  1  0
 25 26  1  0
 26 27  1  0
 27 28  2  0
M  END
