
     RDKit          3D

 28 32  0  0  0  0  0  0  0  0999 V2000
   -3.5930   -2.9950    0.1240 N   0  0  0  0  0  0  0  0  0  0  0  0
   -2.2460   -2.5520    0.2130 C   0  0  0  0  0  0  0  0  0  0  0  0
   -1.2930   -3.5550    0.4670 C   0  0  0  0  0  0  0  0  0  0  0  0
    0.0360   -3.2250    0.5700 C   0  0  0  0  0  0  0  0  0  0  0  0
    1.2060   -3.9160    0.8030 C   0  0  0  0  0  0  0  0  0  0  0  0
    2.1930   -3.0050    0.7830 N   0  0  0  0  0  0  0  0  0  0  0  0
    1.7110   -1.7990    0.5530 N   0  0  0  0  0  0  0  0  0  0  0  0
    2.4270   -0.5630    0.4550 C   0  0  0  0  0  0  0  0  0  0  0  0
    3.7030   -0.6280    0.0350 N   0  0  0  0  0  0  0  0  0  0  0  0
    4.4990    0.4410   -0.1070 C   0  0  0  0  0  0  0  0  0  0  0  0
    5.8090    0.3530   -0.5400 C   0  0  0  0  0  0  0  0  0  0  0  0
    6.5950    1.4680   -0.6740 C   0  0  0  0  0  0  0  0  0  0  0  0
    6.0670    2.7210   -0.3680 C   0  0  0  0  0  0  0  0  0  0  0  0
    4.7460    2.8070    0.0680 C   0  0  0  0  0  0  0  0  0  0  0  0
    3.9780    1.6780    0.1950 C   0  0  0  0  0  0  0  0  0  0  0  0
    2.6710    1.7320    0.6230 C   0  0  0  0  0  0  0  0  0  0  0  0
    2.1970    2.8840    0.9000 O   0  0  0  0  0  0  0  0  0  0  0  0
    1.9110    0.6220    0.7490 N   0  0  0  0  0  0  0  0  0  0  0  0
    0.3550   -1.8930    0.4130 C   0  0  0  0  0  0  0  0  0  0  0  0
   -0.5590   -0.9530    0.1720 N   0  0  0  0  0  0  0  0  0  0  0  0
   -1.9050   -1.2370    0.0610 C   0  0  0  0  0  0  0  0  0  0  0  0
   -2.8270   -0.1500   -0.2020 C   0  0  0  0  0  0  0  0  0  0  0  0
   -4.1040   -0.2080   -0.3390 C   0  0  0  0  0  0  0  0  0  0  0  0
   -4.8940    1.0100   -0.6050 C   0  0  0  0  0  0  0  0  0  0  0  0
   -4.3800    2.2760   -0.7310 C   0  0  0  0  0  0  0  0  0  0  0  0
   -5.4440    3.1330   -0.9760 C   0  0  0  0  0  0  0  0  0  0  0  0
   -6.5590    2.3290   -0.9860 C   0  0  0  0  0  0  0  0  0  0  0  0
   -6.1900    1.1050   -0.7660 O   0  0  0  0  0  0  0  0  0  0  0  0
  1  2  1  0
  2  3  2  0
  2 21  1  0
  3  4  1  0
  4  5  1  0
  4 19  2  0
  5  6  2  0
  6  7  1  0
  7  8  1  0
  7 19  1  0
  8  9  2  0
  8 18  1  0
  9 10  1  0
 10 11  2  0
 10 15  1  0
 11 12  1  0
 12 13  2  0
 13 14  1  0
 14 15  2  0
 15 16  1  0
 16 17  2  0
 16 18  1  0
 19 20  1  0
 20 21  2  0
 21 22  1  0
 22 23  2  3
 23 24  1  0
 24 25  2  0
 24 28  1  0
 25 26  1  0
 26 27  2  0
 27 28  1  0
M  END
