
     RDKit          3D

 28 32  0  0  0  0  0  0  0  0999 V2000
    7.9440    1.1820   -1.2150 C   0  0  0  0  0  0  0  0  0  0  0  0
    6.7000    1.9770   -1.1740 C   0  0  0  0  0  0  0  0  0  0  0  0
    5.5330    1.4860   -0.8220 C   0  0  0  0  0  0  0  0  0  0  0  0
    5.3920    0.0910   -0.4410 C   0  0  0  0  0  0  0  0  0  0  0  0
    4.1930   -0.3580   -0.0930 C   0  0  0  0  0  0  0  0  0  0  0  0
    4.1270   -1.7910    0.2830 C   0  0  0  0  0  0  0  0  0  0  0  0
    2.9460   -2.1240    1.1380 C   0  0  0  0  0  0  0  0  0  0  0  0
    1.7480   -1.3200    0.7820 C   0  0  0  0  0  0  0  0  0  0  0  0
    0.5220   -1.8890    1.0630 C   0  0  0  0  0  0  0  0  0  0  0  0
   -0.6750   -1.2500    0.7810 C   0  0  0  0  0  0  0  0  0  0  0  0
   -1.9730   -1.5560    0.9400 N   0  0  0  0  0  0  0  0  0  0  0  0
   -2.7850   -0.5840    0.4980 C   0  0  0  0  0  0  0  0  0  0  0  0
   -4.2460   -0.5690    0.5100 C   0  0  0  0  0  0  0  0  0  0  0  0
   -5.0710    0.3740    0.0810 N   0  0  0  0  0  0  0  0  0  0  0  0
   -6.3220   -0.0670    0.3020 C   0  0  0  0  0  0  0  0  0  0  0  0
   -7.5750    0.6290   -0.0060 C   0  0  0  0  0  0  0  0  0  0  0  0
   -8.8230    0.1940    0.2130 N   0  0  0  0  0  0  0  0  0  0  0  0
   -9.7170    1.0800   -0.1880 N   0  0  0  0  0  0  0  0  0  0  0  0
   -9.0310    2.1140   -0.6790 C   0  0  0  0  0  0  0  0  0  0  0  0
   -9.4810    3.1930   -1.1770 O   0  0  0  0  0  0  0  0  0  0  0  0
   -7.7100    1.8420   -0.5700 N   0  0  0  0  0  0  0  0  0  0  0  0
   -6.2480   -1.2830    0.8690 N   0  0  0  0  0  0  0  0  0  0  0  0
   -4.9730   -1.5530    0.9780 O   0  0  0  0  0  0  0  0  0  0  0  0
   -1.9420    0.4230    0.0180 C   0  0  0  0  0  0  0  0  0  0  0  0
   -0.6460   -0.0000    0.1980 C   0  0  0  0  0  0  0  0  0  0  0  0
    0.5750    0.5640   -0.0800 C   0  0  0  0  0  0  0  0  0  0  0  0
    1.7890   -0.0750    0.2020 C   0  0  0  0  0  0  0  0  0  0  0  0
    3.0650    0.5590   -0.1070 C   0  0  0  0  0  0  0  0  0  0  0  0
  1  2  1  0
  2  3  2  3
  3  4  1  0
  4  5  2  3
  5  6  1  0
  5 28  1  0
  6  7  1  0
  7  8  1  0
  8  9  2  0
  8 27  1  0
  9 10  1  0
 10 11  1  0
 10 25  2  0
 11 12  1  0
 12 13  1  0
 12 24  2  0
 13 14  2  0
 13 23  1  0
 14 15  1  0
 15 16  1  0
 15 22  2  0
 16 17  2  0
 16 21  1  0
 17 18  1  0
 18 19  1  0
 19 20  2  0
 19 21  1  0
 22 23  1  0
 24 25  1  0
 25 26  1  0
 26 27  2  0
 27 28  1  0
M  END
