
     RDKit          3D

 28 32  0  0  0  0  0  0  0  0999 V2000
    6.8170    2.9190   -0.4150 C   0  0  0  0  0  0  0  0  0  0  0  0
    6.4100    1.6970   -0.3760 O   0  0  0  0  0  0  0  0  0  0  0  0
    6.0100    0.4750   -0.3370 C   0  0  0  0  0  0  0  0  0  0  0  0
    6.8560   -0.5670   -0.4430 N   0  0  0  0  0  0  0  0  0  0  0  0
    6.5080   -1.8650   -0.4090 C   0  0  0  0  0  0  0  0  0  0  0  0
    5.1890   -2.2020   -0.2520 C   0  0  0  0  0  0  0  0  0  0  0  0
    4.2810   -1.1870   -0.1440 C   0  0  0  0  0  0  0  0  0  0  0  0
    4.6470    0.0900   -0.1790 C   0  0  0  0  0  0  0  0  0  0  0  0
    3.5540    0.8380   -0.1320 N   0  0  0  0  0  0  0  0  0  0  0  0
    2.4280    0.1120   -0.0670 C   0  0  0  0  0  0  0  0  0  0  0  0
    1.0670    0.3900   -0.0640 C   0  0  0  0  0  0  0  0  0  0  0  0
    0.1750   -0.6670   -0.0680 C   0  0  0  0  0  0  0  0  0  0  0  0
   -1.2340   -0.4800   -0.2760 N   0  0  0  0  0  0  0  0  0  0  0  0
   -2.1950   -1.3820    0.2240 C   0  0  0  0  0  0  0  0  0  0  0  0
   -1.6370   -2.3010    0.9900 O   0  0  0  0  0  0  0  0  0  0  0  0
   -3.6100   -1.4900    0.0400 C   0  0  0  0  0  0  0  0  0  0  0  0
   -4.6470   -0.7220    0.5950 N   0  0  0  0  0  0  0  0  0  0  0  0
   -5.2320   -0.8940    1.7710 N   0  0  0  0  0  0  0  0  0  0  0  0
   -6.2670   -0.0260    1.9620 C   0  0  0  0  0  0  0  0  0  0  0  0
   -6.3060    0.7250    0.8090 C   0  0  0  0  0  0  0  0  0  0  0  0
   -7.1950    1.7360    0.3800 C   0  0  0  0  0  0  0  0  0  0  0  0
   -6.9840    2.2340   -0.8770 C   0  0  0  0  0  0  0  0  0  0  0  0
   -5.9570    1.7910   -1.7040 C   0  0  0  0  0  0  0  0  0  0  0  0
   -5.1440    0.8270   -1.2340 N   0  0  0  0  0  0  0  0  0  0  0  0
   -5.3250    0.3060   -0.0110 C   0  0  0  0  0  0  0  0  0  0  0  0
    0.6630   -1.9870   -0.0690 C   0  0  0  0  0  0  0  0  0  0  0  0
    1.9970   -2.2530   -0.0690 C   0  0  0  0  0  0  0  0  0  0  0  0
    2.8780   -1.2060   -0.0730 C   0  0  0  0  0  0  0  0  0  0  0  0
  1  2  1  0
  2  3  1  0
  3  4  2  0
  3  8  1  0
  4  5  1  0
  5  6  2  0
  6  7  1  0
  7  8  2  0
  7 28  1  0
  8  9  1  0
  9 10  1  0
 10 11  2  0
 10 28  1  0
 11 12  1  0
 12 13  1  0
 12 26  2  0
 13 14  1  0
 14 15  2  0
 14 16  1  0
 16 17  1  0
 17 18  1  0
 17 25  1  0
 18 19  2  0
 19 20  1  0
 20 21  2  0
 20 25  1  0
 21 22  1  0
 22 23  2  0
 23 24  1  0
 24 25  2  0
 26 27  1  0
 27 28  2  0
M  END
