
     RDKit          3D

 17 17  0  0  0  0  0  0  0  0999 V2000
   -2.0820   -1.5470    2.4670 C   0  0  0  0  0  0  0  0  0  0  0  0
   -0.8140   -1.4590    1.7000 C   0  0  0  0  0  0  0  0  0  0  0  0
   -0.6170   -0.4780    0.7820 C   0  0  0  0  0  0  0  0  0  0  0  0
    0.6730   -0.5170    0.1090 C   0  0  0  0  0  0  0  0  0  0  0  0
    1.0720    0.3210   -0.8240 C   0  0  0  0  0  0  0  0  0  0  0  0
    2.3870    0.2550   -1.4850 C   0  0  0  0  0  0  0  0  0  0  0  0
    2.7330    1.1270   -2.4180 C   0  0  0  0  0  0  0  0  0  0  0  0
    3.9390    1.1130   -3.0640 O   0  0  0  0  0  0  0  0  0  0  0  0
    3.2350   -0.7650   -1.0790 O   0  0  0  0  0  0  0  0  0  0  0  0
    2.7100   -1.8650   -0.3530 C   0  0  0  0  0  0  0  0  0  0  0  0
    1.6200   -1.5120    0.4380 O   0  0  0  0  0  0  0  0  0  0  0  0
   -1.7020    0.4720    0.5700 C   0  0  1  0  0  0  0  0  0  0  0  0
   -1.5640    1.8140    1.1980 C   0  0  0  0  0  0  0  0  0  0  0  0
   -0.4830    2.5530    0.8210 O   0  0  0  0  0  0  0  0  0  0  0  0
   -2.1230    0.5160   -0.8330 C   0  0  0  0  0  0  0  0  0  0  0  0
   -2.1910    1.6200   -1.4210 O   0  0  0  0  0  0  0  0  0  0  0  0
   -2.4430   -0.6560   -1.4960 O   0  0  0  0  0  0  0  0  0  0  0  0
  1  2  1  0
  2  3  2  3
  3  4  1  0
  3 12  1  0
  4  5  2  0
  4 11  1  0
  5  6  1  0
  6  7  2  3
  6  9  1  0
  7  8  1  0
  9 10  1  0
 10 11  1  0
 12 13  1  6
 12 15  1  0
 13 14  1  0
 15 16  2  0
 15 17  1  0
M  END
