
     RDKit          3D

 17 17  0  0  0  0  0  0  0  0999 V2000
    4.7220   -0.0120    0.1490 O   0  0  0  0  0  0  0  0  0  0  0  0
    3.6990   -0.7410    0.2130 C   0  0  0  0  0  0  0  0  0  0  0  0
    3.8410   -2.0780   -0.1390 O   0  0  0  0  0  0  0  0  0  0  0  0
    2.3900   -0.2030    0.6460 C   0  0  0  0  0  0  0  0  0  0  0  0
    1.5100   -0.0940   -0.5260 C   0  0  0  0  0  0  0  0  0  0  0  0
    0.1100    0.4440   -0.1830 C   0  0  1  0  0  0  0  0  0  0  0  0
    0.3260    1.8020    0.3760 C   0  0  0  0  0  0  0  0  0  0  0  0
   -0.8860    2.5920    0.7630 C   0  0  0  0  0  0  0  0  0  0  0  0
   -1.7580    2.8860   -0.2520 O   0  0  0  0  0  0  0  0  0  0  0  0
   -0.6970    0.3540   -1.3910 C   0  0  0  0  0  0  0  0  0  0  0  0
   -0.3910    1.1360   -2.3230 O   0  0  0  0  0  0  0  0  0  0  0  0
   -1.7700   -0.4810   -1.6670 O   0  0  0  0  0  0  0  0  0  0  0  0
   -2.1470   -1.7420   -1.1520 C   0  0  0  0  0  0  0  0  0  0  0  0
   -2.6100   -1.6830    0.2880 C   0  0  0  0  0  0  0  0  0  0  0  0
   -2.0080   -0.3830    0.8590 C   0  0  0  0  0  0  0  0  0  0  0  0
   -0.5050   -0.4340    0.8960 C   0  0  1  0  0  0  0  0  0  0  0  0
   -0.1570   -1.7550    0.8330 O   0  0  0  0  0  0  0  0  0  0  0  0
  1  2  2  0
  2  3  1  0
  2  4  1  0
  4  5  1  0
  6  5  1  6
  6  7  1  0
  6 10  1  0
  6 16  1  0
  7  8  1  0
  8  9  1  0
 10 11  2  0
 10 12  1  0
 12 13  1  0
 13 14  1  0
 14 15  1  0
 15 16  1  0
 16 17  1  6
M  END
