
     RDKit          3D

 17 17  0  0  0  0  0  0  0  0999 V2000
    1.4010   -1.8810    0.2360 O   0  0  0  0  0  0  0  0  0  0  0  0
    1.4890   -0.6470    0.0570 C   0  0  0  0  0  0  0  0  0  0  0  0
    2.8360   -0.0400   -0.2470 C   0  0  0  0  0  0  0  0  0  0  0  0
    3.7510   -1.0520   -0.2640 O   0  0  0  0  0  0  0  0  0  0  0  0
    5.0410   -0.7300   -0.5650 C   0  0  0  0  0  0  0  0  0  0  0  0
    5.7120    0.2420    0.3650 C   0  0  0  0  0  0  0  0  0  0  0  0
    5.1080    1.4700    0.4430 O   0  0  0  0  0  0  0  0  0  0  0  0
    0.3690    0.1550    0.1360 O   0  0  0  0  0  0  0  0  0  0  0  0
   -0.8890   -0.4180    0.4210 C   0  0  1  0  0  0  0  0  0  0  0  0
   -1.4680    0.1130    1.7130 C   0  0  0  0  0  0  0  0  0  0  0  0
   -2.7100   -0.6640    1.9980 C   0  0  0  0  0  0  0  0  0  0  0  0
   -3.6440   -0.8020    0.8590 C   0  0  0  0  0  0  0  0  0  0  0  0
   -3.2470   -0.1350   -0.4020 C   0  0  1  0  0  0  0  0  0  0  0  0
   -3.9340   -0.7970   -1.4520 O   0  0  0  0  0  0  0  0  0  0  0  0
   -3.7880    1.3010   -0.4520 C   0  0  0  0  0  0  0  0  0  0  0  0
   -3.4730    1.8020   -1.7260 O   0  0  0  0  0  0  0  0  0  0  0  0
   -1.8050   -0.1860   -0.7400 C   0  0  0  0  0  0  0  0  0  0  0  0
  1  2  2  0
  2  3  1  0
  2  8  1  0
  3  4  1  0
  4  5  1  0
  5  6  1  0
  6  7  1  0
  9  8  1  6
  9 10  1  0
  9 17  1  0
 10 11  1  0
 11 12  1  0
 12 13  1  0
 13 14  1  6
 13 15  1  0
 13 17  1  0
 15 16  1  0
M  END
