
     RDKit          3D

 17 17  0  0  0  0  0  0  0  0999 V2000
   -1.7870    1.5350    1.7350 C   0  0  0  0  0  0  0  0  0  0  0  0
   -1.2000    1.2310    0.3610 C   0  0  1  0  0  0  0  0  0  0  0  0
    0.1830    1.0520    0.3950 O   0  0  0  0  0  0  0  0  0  0  0  0
    1.1130    1.8320   -0.2200 C   0  0  0  0  0  0  0  0  0  0  0  0
    0.6550    2.8190   -0.8890 O   0  0  0  0  0  0  0  0  0  0  0  0
    2.5770    1.6780   -0.2090 C   0  0  0  0  0  0  0  0  0  0  0  0
    3.0760    0.6300    0.5070 O   0  0  0  0  0  0  0  0  0  0  0  0
    2.6600   -0.6260    0.1180 C   0  0  1  0  0  0  0  0  0  0  0  0
    3.7570   -1.3640   -0.4040 O   0  0  0  0  0  0  0  0  0  0  0  0
    2.2250   -1.3840    1.3470 C   0  0  0  0  0  0  0  0  0  0  0  0
    3.3760   -1.4460    2.1720 O   0  0  0  0  0  0  0  0  0  0  0  0
   -1.9140    0.0760   -0.2720 C   0  0  0  0  0  0  0  0  0  0  0  0
   -2.5390    0.2060   -1.4110 C   0  0  0  0  0  0  0  0  0  0  0  0
   -3.2500   -0.8970   -2.0660 C   0  0  0  0  0  0  0  0  0  0  0  0
   -3.1950   -2.0780   -1.3650 O   0  0  0  0  0  0  0  0  0  0  0  0
   -2.5360   -2.2070   -0.1670 C   0  0  0  0  0  0  0  0  0  0  0  0
   -1.8970   -1.1990    0.4130 C   0  0  0  0  0  0  0  0  0  0  0  0
  2  1  1  1
  2  3  1  0
  2 12  1  0
  3  4  1  0
  4  5  2  0
  4  6  1  0
  6  7  1  0
  7  8  1  0
  8  9  1  1
  8 10  1  0
 10 11  1  0
 12 13  2  0
 12 17  1  0
 13 14  1  0
 14 15  1  0
 15 16  1  0
 16 17  2  0
M  END
