
     RDKit          3D

 13 14  0  0  0  0  0  0  0  0999 V2000
   -0.6420    1.9750    0.9760 N   0  0  0  0  0  0  0  0  0  0  0  0
   -1.2100    0.8390    0.3610 C   0  0  0  0  0  0  0  0  0  0  0  0
   -2.5240    0.6930    0.1460 N   0  0  0  0  0  0  0  0  0  0  0  0
   -3.0230   -0.3830   -0.4320 N   0  0  0  0  0  0  0  0  0  0  0  0
   -2.2210   -1.3840   -0.8300 C   0  0  0  0  0  0  0  0  0  0  0  0
   -2.6560   -2.4340   -1.3890 O   0  0  0  0  0  0  0  0  0  0  0  0
   -0.8560   -1.2890   -0.6340 C   0  0  0  0  0  0  0  0  0  0  0  0
   -0.3350   -0.1650   -0.0300 C   0  0  0  0  0  0  0  0  0  0  0  0
    1.1360   -0.0260    0.1990 C   0  0  0  0  0  0  0  0  0  0  0  0
    2.0450   -0.3350   -0.7610 C   0  0  0  0  0  0  0  0  0  0  0  0
    3.2940   -0.1980   -0.5130 C   0  0  0  0  0  0  0  0  0  0  0  0
    3.4190    0.4210    1.2020 S   0  0  0  0  0  0  0  0  0  0  0  0
    1.5670    0.4000    1.3450 C   0  0  0  0  0  0  0  0  0  0  0  0
  1  2  1  0
  2  3  2  0
  2  8  1  0
  3  4  1  0
  4  5  1  0
  5  6  2  0
  5  7  1  0
  7  8  2  0
  8  9  1  0
  9 10  1  0
  9 13  2  0
 10 11  2  0
 11 12  1  0
 12 13  1  0
M  END
