
     RDKit          3D

 24 25  0  0  0  0  0  0  0  0999 V2000
    7.0740   -0.2520    3.3940 C   0  0  0  0  0  0  0  0  0  0  0  0
    6.9540   -0.5790    1.6220 S   0  0  0  0  0  0  0  0  0  0  0  0
    5.2420   -0.6460    1.1110 C   0  0  0  0  0  0  0  0  0  0  0  0
    4.3680   -1.5200    1.6910 C   0  0  0  0  0  0  0  0  0  0  0  0
    3.0760   -1.5990    1.2060 C   0  0  0  0  0  0  0  0  0  0  0  0
    2.7010   -0.7760    0.1440 C   0  0  0  0  0  0  0  0  0  0  0  0
    1.4530   -0.8650   -0.2630 O   0  0  0  0  0  0  0  0  0  0  0  0
    0.5370   -0.3070   -1.1170 C   0  0  0  0  0  0  0  0  0  0  0  0
   -0.7310   -1.0610   -0.8340 C   0  0  0  0  0  0  0  0  0  0  0  0
   -2.0410   -0.5880   -1.2540 C   0  0  0  0  0  0  0  0  0  0  0  0
   -2.3890    0.8080   -0.6910 C   0  0  2  0  0  0  0  0  0  0  0  0
   -2.0960    0.8820    0.7010 O   0  0  0  0  0  0  0  0  0  0  0  0
   -3.9180    0.6720   -0.5590 C   0  0  0  0  0  0  0  0  0  0  0  0
   -4.7720    1.2740   -1.3680 C   0  0  0  0  0  0  0  0  0  0  0  0
   -6.1300    1.0390   -1.1430 C   0  0  0  0  0  0  0  0  0  0  0  0
   -7.1120    1.6810   -2.0450 C   0  0  0  0  0  0  0  0  0  0  0  0
   -6.5130    0.1950   -0.1040 C   0  0  0  0  0  0  0  0  0  0  0  0
   -5.6000   -0.4320    0.7370 C   0  0  0  0  0  0  0  0  0  0  0  0
   -5.9530   -1.3360    1.8440 C   0  0  0  0  0  0  0  0  0  0  0  0
   -4.2790   -0.1730    0.4870 C   0  0  0  0  0  0  0  0  0  0  0  0
    3.5990    0.0950   -0.4280 C   0  0  0  0  0  0  0  0  0  0  0  0
    4.8800    0.1660    0.0580 C   0  0  0  0  0  0  0  0  0  0  0  0
    5.8330    1.2170   -0.3890 C   0  0  0  0  0  0  0  0  0  0  0  0
    6.5310    0.9310   -1.5960 N   0  0  0  0  0  0  0  0  0  0  0  0
  1  2  1  0
  2  3  1  0
  3  4  2  0
  3 22  1  0
  4  5  1  0
  5  6  2  0
  6  7  1  0
  6 21  1  0
  7  8  1  0
  8  9  1  0
  9 10  1  0
 10 11  1  0
 11 12  1  1
 11 13  1  0
 13 14  2  0
 13 20  1  0
 14 15  1  0
 15 16  1  0
 15 17  2  0
 17 18  1  0
 18 19  1  0
 18 20  2  0
 21 22  2  0
 22 23  1  0
 23 24  1  0
M  CHG  1  24   1
M  END
