
     RDKit          3D

 24 25  0  0  0  0  0  0  0  0999 V2000
    3.1710    1.9350   -1.2360 C   0  0  0  0  0  0  0  0  0  0  0  0
    1.7460    1.8970   -0.8480 C   0  0  0  0  0  0  0  0  0  0  0  0
    1.0580    3.0950   -0.8840 C   0  0  0  0  0  0  0  0  0  0  0  0
   -0.2670    3.0710   -0.6540 C   0  0  0  0  0  0  0  0  0  0  0  0
   -0.9210    1.9070   -0.4000 C   0  0  0  0  0  0  0  0  0  0  0  0
   -0.2780    0.6310   -0.3480 C   0  0  0  0  0  0  0  0  0  0  0  0
   -1.0900   -0.5500   -0.3370 C   0  0  1  0  0  0  0  0  0  0  0  0
   -0.9250   -1.2640   -1.6610 N   0  0  0  0  0  0  0  0  0  0  0  0
   -1.2120   -1.5250    0.7380 C   0  0  2  0  0  0  0  0  0  0  0  0
   -0.1660   -2.3140    1.3410 C   0  0  0  0  0  0  0  0  0  0  0  0
   -2.3590   -2.4840    0.3650 C   0  0  1  0  0  0  0  0  0  0  0  0
   -2.5400   -3.4650    1.4990 C   0  0  0  0  0  0  0  0  0  0  0  0
   -3.6700   -1.8510    0.0780 C   0  0  0  0  0  0  0  0  0  0  0  0
    1.0690    0.6770   -0.5760 C   0  0  0  0  0  0  0  0  0  0  0  0
    1.9470   -0.4630   -0.5850 C   0  0  0  0  0  0  0  0  0  0  0  0
    2.7390   -0.5320    0.6910 C   0  0  0  0  0  0  0  0  0  0  0  0
    3.8030   -1.6560    0.6450 C   0  0  0  0  0  0  0  0  0  0  0  0
    4.6860   -1.3610   -0.4000 O   0  0  0  0  0  0  0  0  0  0  0  0
    5.9440   -2.5160   -0.4690 S   0  0  0  0  0  0  0  0  0  0  0  0
    5.4840   -3.9090   -0.1490 O   0  0  0  0  0  0  0  0  0  0  0  0
   -2.3760    1.9030   -0.1120 C   0  0  0  0  0  0  0  0  0  0  0  0
   -2.8990    3.2580    0.3430 C   0  0  0  0  0  0  0  0  0  0  0  0
   -1.8140    4.2460    0.6770 C   0  0  0  0  0  0  0  0  0  0  0  0
   -1.0220    4.3790   -0.6500 C   0  0  0  0  0  0  0  0  0  0  0  0
  1  2  1  0
  2  3  2  0
  2 14  1  0
  3  4  1  0
  4  5  2  0
  4 24  1  0
  5  6  1  0
  5 21  1  0
  6  7  1  0
  6 14  2  0
  7  8  1  6
  7  9  1  0
  9 10  1  6
  9 11  1  0
 11 12  1  1
 11 13  1  0
 14 15  1  0
 15 16  1  0
 16 17  1  0
 17 18  1  0
 18 19  1  0
 19 20  2  0
 21 22  1  0
 22 23  1  0
 23 24  1  0
M  CHG  1   8   1
M  END
