
     RDKit          3D

 24 25  0  0  0  0  0  0  0  0999 V2000
   -3.7910   -3.3510    1.1300 C   0  0  0  0  0  0  0  0  0  0  0  0
   -4.0900   -1.8990    0.9400 C   0  0  0  0  0  0  0  0  0  0  0  0
   -3.1050   -1.0680    0.6800 C   0  0  0  0  0  0  0  0  0  0  0  0
   -1.7200   -1.4800    0.5630 C   0  0  0  0  0  0  0  0  0  0  0  0
   -0.7330   -0.5990    0.2870 C   0  0  0  0  0  0  0  0  0  0  0  0
    0.5940   -1.1520    0.2050 C   0  0  0  0  0  0  0  0  0  0  0  0
    1.8050   -0.8860   -0.0420 C   0  0  0  0  0  0  0  0  0  0  0  0
    2.6350   -2.0940    0.1250 O   0  0  0  0  0  0  0  0  0  0  0  0
    2.4290   -3.1210   -0.8550 C   0  0  0  0  0  0  0  0  0  0  0  0
    2.5550    0.2170   -0.4560 C   0  0  0  0  0  0  0  0  0  0  0  0
    1.7940    1.3500   -1.1340 C   0  0  0  0  0  0  0  0  0  0  0  0
    3.8900    0.3040   -0.5390 C   0  0  0  0  0  0  0  0  0  0  0  0
    4.8550   -0.7600   -0.2150 C   0  0  0  0  0  0  0  0  0  0  0  0
    5.7030   -0.2370    0.8460 O   0  0  0  0  0  0  0  0  0  0  0  0
    4.5610    1.5890   -0.8510 C   0  0  0  0  0  0  0  0  0  0  0  0
    3.9970    2.8460   -1.0520 N   0  0  0  0  0  0  0  0  0  0  0  0
    6.2160    1.5570   -0.9950 S   0  0  0  0  0  0  0  0  0  0  0  0
   -0.9890    0.8340    0.1740 C   0  0  0  0  0  0  0  0  0  0  0  0
   -2.3110    1.3030    0.8280 C   0  0  1  0  0  0  0  0  0  0  0  0
   -2.5670    2.7220    0.5860 C   0  0  0  0  0  0  0  0  0  0  0  0
   -3.9210    3.0160    0.0900 C   0  0  0  0  0  0  0  0  0  0  0  0
   -4.8540    2.1320   -0.1740 C   0  0  0  0  0  0  0  0  0  0  0  0
   -4.5450    0.7260    0.0390 C   0  0  0  0  0  0  0  0  0  0  0  0
   -3.3760    0.3790    0.4830 C   0  0  0  0  0  0  0  0  0  0  0  0
  1  2  1  0
  2  3  2  3
  3  4  1  0
  3 24  1  0
  4  5  2  0
  5  6  1  0
  5 18  1  0
  6  7  2  3
  7  8  1  0
  7 10  1  0
  8  9  1  0
 10 11  1  0
 10 12  2  3
 12 13  1  0
 12 15  1  0
 13 14  1  0
 15 16  1  0
 15 17  2  0
 19 18  1  6
 19 20  1  0
 19 24  1  0
 20 21  1  0
 21 22  2  0
 22 23  1  0
 23 24  2  0
M  END
