
     RDKit          3D

 24 25  0  0  0  0  0  0  0  0999 V2000
   -5.4250    2.0620    0.5690 C   0  0  0  0  0  0  0  0  0  0  0  0
   -4.1380    1.3920    0.2330 C   0  0  0  0  0  0  0  0  0  0  0  0
   -2.9670    2.1200    0.2230 C   0  0  0  0  0  0  0  0  0  0  0  0
   -1.7540    1.5440    0.0060 C   0  0  0  0  0  0  0  0  0  0  0  0
   -0.5610    2.3970    0.0720 C   0  0  0  0  0  0  0  0  0  0  0  0
   -1.6040    0.1650   -0.2240 C   0  0  0  0  0  0  0  0  0  0  0  0
   -0.2850   -0.3610   -0.5520 C   0  0  2  0  0  0  0  0  0  0  0  0
   -0.3100   -0.8980   -1.8800 O   0  0  0  0  0  0  0  0  0  0  0  0
    0.2070   -1.5200    0.2930 C   0  0  2  0  0  0  0  0  0  0  0  0
   -0.5210   -2.7510    0.2690 C   0  0  0  0  0  0  0  0  0  0  0  0
    0.1190   -0.9060    1.6790 N   0  0  0  0  0  0  0  0  0  0  0  0
    1.7370   -1.6340    0.0730 C   0  0  1  0  0  0  0  0  0  0  0  0
    2.2830   -2.2080    1.3990 C   0  0  0  0  0  0  0  0  0  0  0  0
    2.1450   -2.4700   -1.0580 C   0  0  0  0  0  0  0  0  0  0  0  0
    2.2350   -0.3340   -0.0290 O   0  0  0  0  0  0  0  0  0  0  0  0
    3.5720   -0.2830   -0.2240 C   0  0  0  0  0  0  0  0  0  0  0  0
    4.1820    1.0210   -0.4040 C   0  0  0  0  0  0  0  0  0  0  0  0
    3.8000    2.3080   -0.4170 C   0  0  0  0  0  0  0  0  0  0  0  0
    4.6750    3.2800   -0.6450 C   0  0  0  0  0  0  0  0  0  0  0  0
    5.9910    2.9320   -0.8670 C   0  0  0  0  0  0  0  0  0  0  0  0
    5.8850    1.1220   -0.7260 S   0  0  0  0  0  0  0  0  0  0  0  0
   -2.7720   -0.5490   -0.2170 C   0  0  0  0  0  0  0  0  0  0  0  0
   -4.0340    0.0360    0.0050 C   0  0  0  0  0  0  0  0  0  0  0  0
   -5.2820   -0.7570   -0.0930 C   0  0  0  0  0  0  0  0  0  0  0  0
  1  2  1  0
  2  3  2  0
  2 23  1  0
  3  4  1  0
  4  5  1  0
  4  6  2  0
  6  7  1  0
  6 22  1  0
  7  8  1  6
  7  9  1  0
  9 10  1  1
  9 11  1  0
  9 12  1  0
 12 13  1  1
 12 14  1  0
 12 15  1  0
 15 16  1  0
 16 17  1  0
 17 18  2  0
 17 21  1  0
 18 19  1  0
 19 20  2  0
 20 21  1  0
 22 23  2  0
 23 24  1  0
M  CHG  1  11   1
M  END
