
     RDKit          3D

 35 37  0  0  0  0  0  0  0  0999 V2000
   -7.2340    1.0200    0.2060 C   0  0  0  0  0  0  0  0  0  0  0  0
   -6.1930    2.0770    0.0860 C   0  0  0  0  0  0  0  0  0  0  0  0
   -4.9490    1.5690   -0.6690 C   0  0  2  0  0  0  0  0  0  0  0  0
   -5.3540    1.1430   -2.0280 C   0  0  0  0  0  0  0  0  0  0  0  0
   -4.3010    0.4400    0.1680 C   0  0  2  0  0  0  0  0  0  0  0  0
   -3.9880    1.1360    1.3520 O   0  0  0  0  0  0  0  0  0  0  0  0
   -3.1200   -0.0400   -0.5440 C   0  0  0  0  0  0  0  0  0  0  0  0
   -2.5590    0.7620   -1.5580 C   0  0  0  0  0  0  0  0  0  0  0  0
   -1.4290    0.3950   -2.2630 C   0  0  0  0  0  0  0  0  0  0  0  0
   -0.9810    1.2710   -3.2310 O   0  0  0  0  0  0  0  0  0  0  0  0
    0.1360    1.0050   -4.0020 C   0  0  0  0  0  0  0  0  0  0  0  0
    1.3270    0.8580   -3.1250 C   0  0  0  0  0  0  0  0  0  0  0  0
    2.4320    0.1860   -3.5770 C   0  0  0  0  0  0  0  0  0  0  0  0
    3.5320    0.0680   -2.7170 C   0  0  0  0  0  0  0  0  0  0  0  0
    3.5460    0.5960   -1.4510 C   0  0  0  0  0  0  0  0  0  0  0  0
    4.6530    0.4770   -0.6090 N   0  0  0  0  0  0  0  0  0  0  0  0
    5.9560    0.0730   -0.9380 C   0  0  0  0  0  0  0  0  0  0  0  0
    6.2270   -0.2220   -2.1230 O   0  0  0  0  0  0  0  0  0  0  0  0
    7.0120   -0.0120    0.0860 C   0  0  0  0  0  0  0  0  0  0  0  0
    6.9180    0.2610    1.4230 C   0  0  0  0  0  0  0  0  0  0  0  0
    8.1770    0.0300    1.9860 C   0  0  0  0  0  0  0  0  0  0  0  0
    8.5530    0.1940    3.4100 C   0  0  0  0  0  0  0  0  0  0  0  0
    7.3360    0.6900    4.1660 C   0  0  0  0  0  0  0  0  0  0  0  0
    6.9520    1.9120    3.6170 O   0  0  0  0  0  0  0  0  0  0  0  0
    8.9390   -0.3580    0.9870 O   0  0  0  0  0  0  0  0  0  0  0  0
    8.2680   -0.3870   -0.1350 N   0  0  0  0  0  0  0  0  0  0  0  0
    2.3950    1.2710   -1.0400 C   0  0  0  0  0  0  0  0  0  0  0  0
    1.3200    1.3930   -1.8630 C   0  0  0  0  0  0  0  0  0  0  0  0
   -0.8370   -0.7910   -1.9600 C   0  0  0  0  0  0  0  0  0  0  0  0
   -1.3760   -1.5720   -0.9770 C   0  0  0  0  0  0  0  0  0  0  0  0
   -2.5340   -1.2310   -0.2330 C   0  0  0  0  0  0  0  0  0  0  0  0
   -3.0130   -2.1750    0.7600 C   0  0  1  0  0  0  0  0  0  0  0  0
   -2.2380   -3.5000    0.7200 C   0  0  0  0  0  0  0  0  0  0  0  0
   -3.2980   -1.7540    2.1450 C   0  0  0  0  0  0  0  0  0  0  0  0
   -3.7040   -2.9590    2.9380 N   0  0  0  0  0  0  0  0  0  0  0  0
  1  2  1  0
  2  3  1  0
  3  4  1  6
  3  5  1  0
  5  6  1  1
  5  7  1  0
  7  8  2  0
  7 31  1  0
  8  9  1  0
  9 10  1  0
  9 29  2  0
 10 11  1  0
 11 12  1  0
 12 13  2  0
 12 28  1  0
 13 14  1  0
 14 15  2  0
 15 16  1  0
 15 27  1  0
 16 17  1  0
 17 18  2  0
 17 19  1  0
 19 20  1  0
 19 26  2  0
 20 21  2  0
 21 22  1  0
 21 25  1  0
 22 23  1  0
 23 24  1  0
 25 26  1  0
 27 28  2  0
 29 30  1  0
 30 31  2  0
 31 32  1  0
 32 33  1  1
 32 34  1  0
 34 35  1  0
M  CHG  1  35   1
M  END
