
     RDKit          3D

 34 36  0  0  0  0  0  0  0  0999 V2000
   -3.2720    3.4230    0.1910 C   0  0  0  0  0  0  0  0  0  0  0  0
   -4.1840    2.9510   -0.6070 C   0  0  0  0  0  0  0  0  0  0  0  0
   -4.7950    3.8280   -1.4750 F   0  0  0  0  0  0  0  0  0  0  0  0
   -4.6160    1.5740   -0.6570 C   0  0  0  0  0  0  0  0  0  0  0  0
   -4.0270    0.6330    0.2150 O   0  0  0  0  0  0  0  0  0  0  0  0
   -2.9180   -0.0930   -0.2980 C   0  0  0  0  0  0  0  0  0  0  0  0
   -2.1250    0.4360   -1.1250 N   0  0  0  0  0  0  0  0  0  0  0  0
   -1.0060   -0.0240   -1.7660 N   0  0  0  0  0  0  0  0  0  0  0  0
   -0.0730   -1.0290   -1.4320 C   0  0  0  0  0  0  0  0  0  0  0  0
    0.7690   -1.1410   -0.3820 C   0  0  0  0  0  0  0  0  0  0  0  0
    1.4800   -2.3640   -0.5370 C   0  0  0  0  0  0  0  0  0  0  0  0
    2.5180   -2.9330    0.3740 C   0  0  0  0  0  0  0  0  0  0  0  0
    1.0480   -2.9140   -1.6420 N   0  0  0  0  0  0  0  0  0  0  0  0
    0.1390   -2.1610   -2.1940 N   0  0  0  0  0  0  0  0  0  0  0  0
   -0.4750   -2.5540   -3.4650 C   0  0  0  0  0  0  0  0  0  0  0  0
    1.0520   -0.2380    0.7430 C   0  0  1  0  0  0  0  0  0  0  0  0
    2.4880    0.0950    0.7740 N   0  0  0  0  0  0  0  0  0  0  0  0
    2.8780    1.0070   -0.2360 C   0  0  0  0  0  0  0  0  0  0  0  0
    4.3760    1.1490   -0.2390 C   0  0  0  0  0  0  0  0  0  0  0  0
    5.0880    2.2420   -0.0350 C   0  0  0  0  0  0  0  0  0  0  0  0
    6.5330    1.9140   -0.1340 C   0  0  2  0  0  0  0  0  0  0  0  0
    7.0940    2.6480   -1.1850 F   0  0  0  0  0  0  0  0  0  0  0  0
    6.5380    0.5110   -0.4170 N   0  0  0  0  0  0  0  0  0  0  0  0
    5.3470    0.0720   -0.4780 C   0  0  0  0  0  0  0  0  0  0  0  0
    0.2120    0.9050    0.9630 C   0  0  0  0  0  0  0  0  0  0  0  0
    0.2110    1.8530    0.1250 O   0  0  0  0  0  0  0  0  0  0  0  0
   -0.6660    1.1010    2.0820 N   0  0  0  0  0  0  0  0  0  0  0  0
   -1.1190    0.0700    2.9720 C   0  0  0  0  0  0  0  0  0  0  0  0
   -2.4760   -0.5070    2.5370 C   0  0  0  0  0  0  0  0  0  0  0  0
   -2.3370   -1.6340    1.6050 C   0  0  0  0  0  0  0  0  0  0  0  0
   -2.7790   -1.4730    0.2030 C   0  0  0  0  0  0  0  0  0  0  0  0
   -5.5390    1.1490   -1.4820 C   0  0  0  0  0  0  0  0  0  0  0  0
   -5.9050   -0.1450   -1.4850 F   0  0  0  0  0  0  0  0  0  0  0  0
   -6.1180    2.0340   -2.3270 F   0  0  0  0  0  0  0  0  0  0  0  0
  1  2  2  0
  2  3  1  0
  2  4  1  0
  4  5  1  0
  4 32  2  3
  5  6  1  0
  6  7  2  0
  6 31  1  0
  7  8  1  0
  8  9  1  0
  9 10  2  0
  9 14  1  0
 10 11  1  0
 10 16  1  0
 11 12  1  0
 11 13  2  0
 13 14  1  0
 14 15  1  0
 16 17  1  6
 16 25  1  0
 17 18  1  0
 18 19  1  0
 19 20  2  0
 19 24  1  0
 20 21  1  0
 21 22  1  6
 21 23  1  0
 23 24  2  0
 25 26  2  0
 25 27  1  0
 27 28  1  0
 28 29  1  0
 29 30  1  0
 30 31  1  0
 32 33  1  0
 32 34  1  0
M  END
