
     RDKit          3D

 34 36  0  0  0  0  0  0  0  0999 V2000
   -3.4880    3.8340   -3.0560 C   0  0  0  0  0  0  0  0  0  0  0  0
   -2.6640    3.6520   -2.0440 C   0  0  0  0  0  0  0  0  0  0  0  0
   -2.3650    2.3210   -1.5210 C   0  0  0  0  0  0  0  0  0  0  0  0
   -1.5390    2.1370   -0.5060 C   0  0  0  0  0  0  0  0  0  0  0  0
   -1.2880    0.7890   -0.0370 C   0  0  0  0  0  0  0  0  0  0  0  0
   -0.4890    0.6640    0.9680 C   0  0  0  0  0  0  0  0  0  0  0  0
    0.5900    1.2850    1.2540 C   0  0  0  0  0  0  0  0  0  0  0  0
    1.9010    1.0070    0.7090 C   0  0  0  0  0  0  0  0  0  0  0  0
    2.9320    1.1790    1.5160 C   0  0  0  0  0  0  0  0  0  0  0  0
    2.7670    1.6230    2.8780 C   0  0  0  0  0  0  0  0  0  0  0  0
    3.8240    1.7920    3.6730 C   0  0  0  0  0  0  0  0  0  0  0  0
    5.0560    1.5430    3.1900 F   0  0  0  0  0  0  0  0  0  0  0  0
    2.1290    0.5460   -0.6900 C   0  0  0  0  0  0  0  0  0  0  0  0
    3.2020    1.0520   -1.2040 N   0  0  0  0  0  0  0  0  0  0  0  0
    3.7250    0.8720   -2.4240 O   0  0  0  0  0  0  0  0  0  0  0  0
    4.7770   -0.0110   -2.7450 C   0  0  2  0  0  0  0  0  0  0  0  0
    5.0690    0.0420   -4.0930 F   0  0  0  0  0  0  0  0  0  0  0  0
    4.4250   -1.3030   -2.3960 F   0  0  0  0  0  0  0  0  0  0  0  0
    5.9460    0.2920   -2.0760 F   0  0  0  0  0  0  0  0  0  0  0  0
    1.3100   -0.3410   -1.4790 C   0  0  0  0  0  0  0  0  0  0  0  0
    1.0390   -1.6260   -1.3480 C   0  0  0  0  0  0  0  0  0  0  0  0
    1.4650   -2.5860   -0.3780 N   0  0  0  0  0  0  0  0  0  0  0  0
    2.3750   -3.5680   -0.6260 N   0  0  0  0  0  0  0  0  0  0  0  0
    2.5870   -4.2980    0.4280 N   0  0  0  0  0  0  0  0  0  0  0  0
    1.8300   -3.8070    1.3600 N   0  0  0  0  0  0  0  0  0  0  0  0
    1.1170   -2.7360    0.8820 C   0  0  0  0  0  0  0  0  0  0  0  0
    0.1540   -1.9350    1.6240 N   0  0  0  0  0  0  0  0  0  0  0  0
   -1.1600   -1.6200    1.3730 C   0  0  0  0  0  0  0  0  0  0  0  0
   -1.9100   -1.2290    2.3570 O   0  0  0  0  0  0  0  0  0  0  0  0
   -1.9700   -1.6280    0.1320 C   0  0  1  0  0  0  0  0  0  0  0  0
   -3.4220   -1.9370    0.3100 C   0  0  2  0  0  0  0  0  0  0  0  0
   -4.3330   -1.1240    1.1420 C   0  0  0  0  0  0  0  0  0  0  0  0
   -4.0430   -2.5750    1.4560 C   0  0  0  0  0  0  0  0  0  0  0  0
   -1.8820   -0.3940   -0.6130 N   0  0  0  0  0  0  0  0  0  0  0  0
  1  2  2  0
  2  3  1  0
  3  4  2  3
  4  5  1  0
  5  6  2  0
  5 34  1  0
  6  7  2  0
  7  8  1  0
  8  9  2  3
  8 13  1  0
  9 10  1  0
 10 11  2  3
 11 12  1  0
 13 14  2  3
 13 20  1  0
 14 15  1  0
 15 16  1  0
 16 17  1  6
 16 18  1  0
 16 19  1  0
 20 21  2  0
 21 22  1  0
 22 23  1  0
 22 26  1  0
 23 24  2  0
 24 25  1  0
 25 26  2  0
 26 27  1  0
 27 28  1  0
 28 29  2  0
 28 30  1  0
 30 31  1  0
 30 34  1  1
 31 32  1  1
 31 33  1  0
 32 33  1  0
M  END
