
     RDKit          3D

 28 31  0  0  0  0  0  0  0  0999 V2000
    0.9700   -2.7050    1.3250 N   0  0  0  0  0  0  0  0  0  0  0  0
   -0.3200   -2.3820    1.8870 C   0  0  0  0  0  0  0  0  0  0  0  0
   -0.8880   -3.1950    2.8330 C   0  0  0  0  0  0  0  0  0  0  0  0
   -2.0680   -2.9280    3.3480 N   0  0  0  0  0  0  0  0  0  0  0  0
   -2.7450   -1.8450    2.9520 C   0  0  0  0  0  0  0  0  0  0  0  0
   -2.2360   -0.9580    1.9850 C   0  0  0  0  0  0  0  0  0  0  0  0
   -3.0630    0.1650    1.5360 C   0  0  0  0  0  0  0  0  0  0  0  0
   -3.3460    1.0820    2.3070 O   0  0  0  0  0  0  0  0  0  0  0  0
   -3.5600    0.2120    0.1860 N   0  0  0  0  0  0  0  0  0  0  0  0
   -4.3650    1.2920   -0.3290 C   0  0  1  0  0  0  0  0  0  0  0  0
   -4.6630    1.2020   -1.7760 C   0  0  0  0  0  0  0  0  0  0  0  0
   -6.0150    1.8570   -1.9690 C   0  0  0  0  0  0  0  0  0  0  0  0
   -6.6550    1.9140   -0.6020 C   0  0  0  0  0  0  0  0  0  0  0  0
   -5.7950    0.9940    0.2530 C   0  0  0  0  0  0  0  0  0  0  0  0
   -1.0020   -1.2630    1.4680 C   0  0  0  0  0  0  0  0  0  0  0  0
   -0.3680   -0.3340    0.5330 C   0  0  0  0  0  0  0  0  0  0  0  0
   -0.9170    0.6820    0.0830 O   0  0  0  0  0  0  0  0  0  0  0  0
    0.9410   -0.5750    0.1100 O   0  0  0  0  0  0  0  0  0  0  0  0
    1.6440    0.2800   -0.7840 C   0  0  0  0  0  0  0  0  0  0  0  0
    3.0250   -0.2910   -0.9690 C   0  0  0  0  0  0  0  0  0  0  0  0
    3.2400   -1.5570   -1.4380 C   0  0  0  0  0  0  0  0  0  0  0  0
    4.5020   -2.0890   -1.6130 C   0  0  0  0  0  0  0  0  0  0  0  0
    5.5880   -1.2710   -1.2870 C   0  0  0  0  0  0  0  0  0  0  0  0
    5.4140   -0.0290   -0.8280 C   0  0  0  0  0  0  0  0  0  0  0  0
    6.6390    0.7880   -0.5070 C   0  0  1  0  0  0  0  0  0  0  0  0
    6.5380    2.2270   -0.2740 C   0  0  0  0  0  0  0  0  0  0  0  0
    6.6760    1.3530    0.9330 C   0  0  0  0  0  0  0  0  0  0  0  0
    4.1340    0.5040   -0.6520 C   0  0  0  0  0  0  0  0  0  0  0  0
  1  2  1  0
  2  3  2  0
  2 15  1  0
  3  4  1  0
  4  5  2  0
  5  6  1  0
  6  7  1  0
  6 15  2  0
  7  8  2  0
  7  9  1  0
 10  9  1  1
 10 11  1  0
 10 14  1  0
 11 12  1  0
 12 13  1  0
 13 14  1  0
 15 16  1  0
 16 17  2  0
 16 18  1  0
 18 19  1  0
 19 20  1  0
 20 21  2  0
 20 28  1  0
 21 22  1  0
 22 23  2  0
 23 24  1  0
 25 24  1  1
 24 28  2  0
 25 26  1  0
 25 27  1  0
 26 27  1  0
M  END
