
     RDKit          3D

 30 33  0  0  0  0  0  0  0  0999 V2000
   -5.5310   -0.4310   -1.3130 C   0  0  0  0  0  0  0  0  0  0  0  0
   -4.6230    0.0530   -0.2820 C   0  0  0  0  0  0  0  0  0  0  0  0
   -4.9270    0.2810    0.9970 C   0  0  0  0  0  0  0  0  0  0  0  0
   -6.2350    0.0610    1.5040 N   0  0  0  0  0  0  0  0  0  0  0  0
   -6.6360    0.4770    2.8320 C   0  0  0  0  0  0  0  0  0  0  0  0
   -5.5280    0.7240    3.7240 N   0  0  0  0  0  0  0  0  0  0  0  0
   -4.2290    0.9410    3.2120 C   0  0  0  0  0  0  0  0  0  0  0  0
   -2.9800    1.4960    4.2920 Cl  0  0  0  0  0  0  0  0  0  0  0  0
   -3.9170    0.7420    1.9400 C   0  0  0  0  0  0  0  0  0  0  0  0
   -2.5410    0.9820    1.5300 C   0  0  0  0  0  0  0  0  0  0  0  0
   -1.4060    0.5440    2.1500 N   0  0  0  0  0  0  0  0  0  0  0  0
   -0.3710    0.9850    1.5010 O   0  0  0  0  0  0  0  0  0  0  0  0
   -0.7580    1.7070    0.4600 C   0  0  0  0  0  0  0  0  0  0  0  0
    0.1510    2.3510   -0.4810 C   0  0  0  0  0  0  0  0  0  0  0  0
    0.0520    3.5690   -0.9740 C   0  0  0  0  0  0  0  0  0  0  0  0
   -1.0120    4.4580   -0.6310 N   0  0  0  0  0  0  0  0  0  0  0  0
    1.1210    3.8510   -1.8630 N   0  0  0  0  0  0  0  0  0  0  0  0
    1.8880    2.7850   -1.9180 C   0  0  0  0  0  0  0  0  0  0  0  0
    1.3780    1.7370   -1.0720 C   0  0  0  0  0  0  0  0  0  0  0  0
    1.7150    0.5790   -0.7900 N   0  0  0  0  0  0  0  0  0  0  0  0
    2.7280   -0.2980   -1.1140 C   0  0  0  0  0  0  0  0  0  0  0  0
    2.7880   -1.4980   -0.3760 C   0  0  0  0  0  0  0  0  0  0  0  0
    3.7460   -2.4520   -0.6220 C   0  0  0  0  0  0  0  0  0  0  0  0
    4.6940   -2.2780   -1.6040 C   0  0  0  0  0  0  0  0  0  0  0  0
    5.9370   -3.5160   -1.9370 S   0  0  0  0  0  0  0  0  0  0  0  0
    7.3890   -3.1480   -0.8890 C   0  0  0  0  0  0  0  0  0  0  0  0
    8.4660   -4.2060   -1.1210 C   0  0  0  0  0  0  0  0  0  0  0  0
    4.6410   -1.1380   -2.3070 N   0  0  0  0  0  0  0  0  0  0  0  0
    3.6980   -0.1770   -2.0800 C   0  0  0  0  0  0  0  0  0  0  0  0
   -2.0800    1.7050    0.4760 N   0  0  0  0  0  0  0  0  0  0  0  0
  1  2  1  0
  2  3  2  3
  3  4  1  0
  3  9  1  0
  4  5  1  0
  5  6  1  0
  6  7  1  0
  7  8  1  0
  7  9  2  0
  9 10  1  0
 10 11  2  0
 10 30  1  0
 11 12  1  0
 12 13  1  0
 13 14  1  0
 13 30  2  0
 14 15  2  0
 14 19  1  0
 15 16  1  0
 15 17  1  0
 17 18  2  0
 18 19  1  0
 19 20  2  3
 20 21  1  0
 21 22  2  0
 21 29  1  0
 22 23  1  0
 23 24  2  0
 24 25  1  0
 24 28  1  0
 25 26  1  0
 26 27  1  0
 28 29  2  0
M  END
