
     RDKit          3D

 29 30  0  0  0  0  0  0  0  0999 V2000
   -5.0440    4.7170   -1.1440 C   0  0  0  0  0  0  0  0  0  0  0  0
   -4.4620    3.6170   -0.3420 C   0  0  0  0  0  0  0  0  0  0  0  0
   -3.7190    2.6910   -0.9160 C   0  0  0  0  0  0  0  0  0  0  0  0
   -3.4920    2.7690   -2.3660 C   0  0  0  0  0  0  0  0  0  0  0  0
   -3.0740    1.6750   -0.1790 N   0  0  0  0  0  0  0  0  0  0  0  0
   -3.0270    1.6100    1.2850 C   0  0  0  0  0  0  0  0  0  0  0  0
   -2.1990    0.6550   -0.8070 C   0  0  0  0  0  0  0  0  0  0  0  0
   -1.8550   -0.4390    0.1120 C   0  0  0  0  0  0  0  0  0  0  0  0
   -0.5620   -0.6570    0.6030 C   0  0  0  0  0  0  0  0  0  0  0  0
    0.6350    0.1740    0.4110 C   0  0  0  0  0  0  0  0  0  0  0  0
    0.5170    1.2710   -0.2400 O   0  0  0  0  0  0  0  0  0  0  0  0
    1.9160   -0.1510    0.8890 N   0  0  0  0  0  0  0  0  0  0  0  0
    2.1910   -1.2350    1.8110 C   0  0  0  0  0  0  0  0  0  0  0  0
    3.0850    0.4650    0.2990 C   0  0  0  0  0  0  0  0  0  0  0  0
    2.7960    1.5570   -0.3120 O   0  0  0  0  0  0  0  0  0  0  0  0
    4.3920    0.0280    0.3060 N   0  0  0  0  0  0  0  0  0  0  0  0
    5.0280   -1.1780    0.7590 C   0  0  0  0  0  0  0  0  0  0  0  0
    6.1870   -0.5860    1.6060 C   0  0  0  0  0  0  0  0  0  0  0  0
    6.7880    0.2740    0.4640 C   0  0  0  0  0  0  0  0  0  0  0  0
    5.5450    0.7890   -0.2230 C   0  0  1  0  0  0  0  0  0  0  0  0
    5.6170    0.7030   -1.7060 C   0  0  0  0  0  0  0  0  0  0  0  0
    6.8790    1.4030   -2.1840 C   0  0  0  0  0  0  0  0  0  0  0  0
   -0.6450   -1.8190    1.2420 N   0  0  0  0  0  0  0  0  0  0  0  0
   -1.9210   -2.3600    1.1800 C   0  0  0  0  0  0  0  0  0  0  0  0
   -2.2520   -3.6140    1.9550 C   0  0  0  0  0  0  0  0  0  0  0  0
   -2.6890   -1.5130    0.4700 C   0  0  0  0  0  0  0  0  0  0  0  0
   -4.1140   -1.6700    0.0430 C   0  0  0  0  0  0  0  0  0  0  0  0
   -4.6610   -2.9830    0.2730 N   0  0  0  0  0  0  0  0  0  0  0  0
   -5.3160   -3.5520   -0.9320 C   0  0  0  0  0  0  0  0  0  0  0  0
  1  2  1  0
  2  3  2  3
  3  4  1  0
  3  5  1  0
  5  6  1  0
  5  7  1  0
  7  8  1  0
  8  9  2  0
  8 26  1  0
  9 10  1  0
  9 23  1  0
 10 11  2  0
 10 12  1  0
 12 13  1  0
 12 14  1  0
 14 15  2  0
 14 16  1  0
 16 17  1  0
 16 20  1  0
 17 18  1  0
 18 19  1  0
 19 20  1  0
 20 21  1  6
 21 22  1  0
 23 24  1  0
 24 25  1  0
 24 26  2  0
 26 27  1  0
 27 28  1  0
 28 29  1  0
M  CHG  1  28   1
M  END
