
     RDKit          3D

 29 33  0  0  0  0  0  0  0  0999 V2000
   -7.1750    0.2760    1.5700 C   0  0  0  0  0  0  0  0  0  0  0  0
   -5.7260    0.0290    1.5070 N   0  0  0  0  0  0  0  0  0  0  0  0
   -5.5620   -1.3880    1.2810 C   0  0  0  0  0  0  0  0  0  0  0  0
   -4.0650   -1.6810    1.4280 C   0  0  0  0  0  0  0  0  0  0  0  0
   -3.4030   -1.0040    0.2810 C   0  0  0  0  0  0  0  0  0  0  0  0
   -2.3200   -1.3100   -0.4550 N   0  0  0  0  0  0  0  0  0  0  0  0
   -2.1510   -0.3440   -1.3870 C   0  0  0  0  0  0  0  0  0  0  0  0
   -1.0760   -0.2840   -2.4100 C   0  0  0  0  0  0  0  0  0  0  0  0
    0.1020    0.4260   -1.9410 N   0  0  0  0  0  0  0  0  0  0  0  0
    0.1740    1.7500   -2.1400 C   0  0  0  0  0  0  0  0  0  0  0  0
   -0.7350    2.4480   -2.7200 N   0  0  0  0  0  0  0  0  0  0  0  0
    1.2790    2.4070   -1.7040 N   0  0  0  0  0  0  0  0  0  0  0  0
    2.2750    1.7240   -1.0840 C   0  0  0  0  0  0  0  0  0  0  0  0
    3.8160    2.2360   -0.4040 S   0  0  0  0  0  0  0  0  0  0  0  0
    4.3380    0.6140    0.1450 C   0  0  0  0  0  0  0  0  0  0  0  0
    5.5910    0.3290    0.8230 C   0  0  0  0  0  0  0  0  0  0  0  0
    5.8550   -0.9650    1.1850 C   0  0  0  0  0  0  0  0  0  0  0  0
    7.0270   -1.2910    1.8290 C   0  0  0  0  0  0  0  0  0  0  0  0
    7.9260   -0.2750    2.0980 C   0  0  0  0  0  0  0  0  0  0  0  0
    9.1550   -0.5490    2.7610 N   0  0  0  0  0  0  0  0  0  0  0  0
    7.5910    0.9760    1.7080 N   0  0  0  0  0  0  0  0  0  0  0  0
    6.4680    1.2830    1.0920 N   0  0  0  0  0  0  0  0  0  0  0  0
    3.3210   -0.1560   -0.2260 C   0  0  0  0  0  0  0  0  0  0  0  0
    2.2530    0.3880   -0.8570 C   0  0  0  0  0  0  0  0  0  0  0  0
    1.0740   -0.2480   -1.3340 C   0  0  0  0  0  0  0  0  0  0  0  0
    0.9020   -1.4880   -1.1990 O   0  0  0  0  0  0  0  0  0  0  0  0
   -3.1760    0.5860   -1.2070 C   0  0  0  0  0  0  0  0  0  0  0  0
   -3.9650    0.1720   -0.1580 C   0  0  0  0  0  0  0  0  0  0  0  0
   -5.1600    0.7910    0.4280 C   0  0  0  0  0  0  0  0  0  0  0  0
  1  2  1  0
  2  3  1  0
  2 29  1  0
  3  4  1  0
  4  5  1  0
  5  6  1  0
  5 28  2  0
  6  7  1  0
  7  8  1  0
  7 27  2  0
  8  9  1  0
  9 10  1  0
  9 25  1  0
 10 11  2  0
 10 12  1  0
 12 13  1  0
 13 14  1  0
 13 24  2  0
 14 15  1  0
 15 16  1  0
 15 23  2  0
 16 17  2  0
 16 22  1  0
 17 18  1  0
 18 19  2  0
 19 20  1  0
 19 21  1  0
 21 22  2  0
 23 24  1  0
 24 25  1  0
 25 26  2  0
 27 28  1  0
 28 29  1  0
M  END
