
     RDKit          3D

 29 31  0  0  0  0  0  0  0  0999 V2000
    9.0570   -0.2310   -2.3690 C   0  0  0  0  0  0  0  0  0  0  0  0
    7.7670   -0.1470   -1.6410 C   0  0  0  0  0  0  0  0  0  0  0  0
    6.9800   -1.2670   -1.5140 C   0  0  0  0  0  0  0  0  0  0  0  0
    5.8260   -1.1300   -0.8450 N   0  0  0  0  0  0  0  0  0  0  0  0
    5.4060    0.0140   -0.3040 C   0  0  0  0  0  0  0  0  0  0  0  0
    4.1300    0.0830    0.4060 C   0  0  0  0  0  0  0  0  0  0  0  0
    3.3870   -1.0770    0.5060 C   0  0  0  0  0  0  0  0  0  0  0  0
    2.1540   -1.1110    1.1640 C   0  0  0  0  0  0  0  0  0  0  0  0
    1.6980    0.0560    1.7120 C   0  0  0  0  0  0  0  0  0  0  0  0
    0.4560    0.0300    2.3800 O   0  0  0  0  0  0  0  0  0  0  0  0
   -0.2760   -1.1440    2.4550 C   0  0  0  0  0  0  0  0  0  0  0  0
   -0.7680   -1.6610    1.1820 C   0  0  0  0  0  0  0  0  0  0  0  0
   -0.9260   -2.9590    1.1450 O   0  0  0  0  0  0  0  0  0  0  0  0
   -1.0850   -0.9290    0.0260 N   0  0  0  0  0  0  0  0  0  0  0  0
   -1.1150    0.5010   -0.0890 C   0  0  0  0  0  0  0  0  0  0  0  0
   -2.6270    0.9350   -0.2030 C   0  0  0  0  0  0  0  0  0  0  0  0
   -3.3260   -0.3410   -0.4990 C   0  0  1  0  0  0  0  0  0  0  0  0
   -4.7670   -0.3070   -0.5620 N   0  0  0  0  0  0  0  0  0  0  0  0
   -5.2490    0.0560    0.7710 C   0  0  0  0  0  0  0  0  0  0  0  0
   -5.2790    0.5550   -1.5590 C   0  0  0  0  0  0  0  0  0  0  0  0
   -6.7460    0.3810   -1.7760 C   0  0  0  0  0  0  0  0  0  0  0  0
   -7.6300    0.6360   -0.7020 N   0  0  0  0  0  0  0  0  0  0  0  0
   -2.7500   -1.0550   -1.6910 C   0  0  0  0  0  0  0  0  0  0  0  0
   -1.4310   -1.6840   -1.2090 C   0  0  0  0  0  0  0  0  0  0  0  0
    2.4170    1.2390    1.6290 C   0  0  0  0  0  0  0  0  0  0  0  0
    1.8920    2.4920    2.2200 C   0  0  0  0  0  0  0  0  0  0  0  0
    3.6360    1.2220    0.9680 C   0  0  0  0  0  0  0  0  0  0  0  0
    6.1830    1.1030   -0.4340 N   0  0  0  0  0  0  0  0  0  0  0  0
    7.3630    1.0390   -1.0970 C   0  0  0  0  0  0  0  0  0  0  0  0
  1  2  1  0
  2  3  2  0
  2 29  1  0
  3  4  1  0
  4  5  2  0
  5  6  1  0
  5 28  1  0
  6  7  2  0
  6 27  1  0
  7  8  1  0
  8  9  2  0
  9 10  1  0
  9 25  1  0
 10 11  1  0
 11 12  1  0
 12 13  2  0
 12 14  1  0
 14 15  1  0
 14 24  1  0
 15 16  1  0
 16 17  1  0
 17 18  1  6
 17 23  1  0
 18 19  1  0
 18 20  1  0
 20 21  1  0
 21 22  1  0
 23 24  1  0
 25 26  1  0
 25 27  2  0
 28 29  2  0
M  CHG  1  22   1
M  END
