
     RDKit          3D

 15 15  0  0  0  0  0  0  0  0999 V2000
   -4.6500   -0.8850   -0.5930 C   0  0  0  0  0  0  0  0  0  0  0  0
   -3.2110   -0.9240   -0.2480 C   0  0  0  0  0  0  0  0  0  0  0  0
   -2.5460    0.1650   -0.0040 C   0  0  0  0  0  0  0  0  0  0  0  0
   -3.0390    1.5730   -0.0160 C   0  0  0  0  0  0  0  0  0  0  0  0
   -1.8310    2.2970   -0.1490 O   0  0  0  0  0  0  0  0  0  0  0  0
   -0.7560    1.5250    0.2490 C   0  0  0  0  0  0  0  0  0  0  0  0
   -1.1480    0.2540    0.3440 C   0  0  0  0  0  0  0  0  0  0  0  0
   -0.2750   -0.8390    0.7440 C   0  0  0  0  0  0  0  0  0  0  0  0
   -0.6610   -2.0320    0.8260 O   0  0  0  0  0  0  0  0  0  0  0  0
    1.1660   -0.5530    1.0800 C   0  0  0  0  0  0  0  0  0  0  0  0
    1.9540   -0.8470   -0.1880 C   0  0  0  0  0  0  0  0  0  0  0  0
    3.3910   -0.5970    0.0200 C   0  0  0  0  0  0  0  0  0  0  0  0
    4.0890   -1.4550    0.5910 O   0  0  0  0  0  0  0  0  0  0  0  0
    3.9500    0.5830   -0.4170 O   0  0  0  0  0  0  0  0  0  0  0  0
    5.3280    0.8250   -0.2170 C   0  0  0  0  0  0  0  0  0  0  0  0
  1  2  1  0
  2  3  2  3
  3  4  1  0
  3  7  1  0
  4  5  1  0
  5  6  1  0
  6  7  2  0
  7  8  1  0
  8  9  2  0
  8 10  1  0
 10 11  1  0
 11 12  1  0
 12 13  2  0
 12 14  1  0
 14 15  1  0
M  END
