
     RDKit          3D

 15 15  0  0  0  0  0  0  0  0999 V2000
    1.9270    0.0130    1.7410 C   0  0  0  0  0  0  0  0  0  0  0  0
    2.2710    0.3450    0.5120 C   0  0  0  0  0  0  0  0  0  0  0  0
    3.6920    0.6430    0.2310 C   0  0  0  0  0  0  0  0  0  0  0  0
    3.9360    0.9950   -1.1620 C   0  0  0  0  0  0  0  0  0  0  0  0
    2.9590    1.0300   -2.0400 C   0  0  0  0  0  0  0  0  0  0  0  0
    1.5580    0.7250   -1.7100 C   0  0  0  0  0  0  0  0  0  0  0  0
    1.2290    0.3940   -0.4770 C   0  0  0  0  0  0  0  0  0  0  0  0
   -0.0850    0.1070   -0.1660 O   0  0  0  0  0  0  0  0  0  0  0  0
   -0.5850   -1.1900   -0.2590 C   0  0  0  0  0  0  0  0  0  0  0  0
    0.2320   -2.0660   -0.6410 O   0  0  0  0  0  0  0  0  0  0  0  0
   -1.9940   -1.5340    0.0680 C   0  0  0  0  0  0  0  0  0  0  0  0
   -2.7290   -0.3950    0.4740 O   0  0  0  0  0  0  0  0  0  0  0  0
   -4.0590   -0.5890    0.8060 C   0  0  0  0  0  0  0  0  0  0  0  0
   -4.8820    0.5670    1.2390 C   0  0  0  0  0  0  0  0  0  0  0  0
   -4.5800   -1.7410    0.7440 O   0  0  0  0  0  0  0  0  0  0  0  0
  1  2  2  0
  2  3  1  0
  2  7  1  0
  3  4  1  0
  4  5  2  0
  5  6  1  0
  6  7  2  0
  7  8  1  0
  8  9  1  0
  9 10  2  0
  9 11  1  0
 11 12  1  0
 12 13  1  0
 13 14  1  0
 13 15  2  0
M  END
