
     RDKit          3D

 26 29  0  0  0  0  0  0  0  0999 V2000
    3.9730    1.8580    2.4480 C   0  0  0  0  0  0  0  0  0  0  0  0
    4.2300    0.8090    1.5690 O   0  0  0  0  0  0  0  0  0  0  0  0
    3.2560    0.0740    0.9040 C   0  0  0  0  0  0  0  0  0  0  0  0
    1.9010    0.3130    1.0470 C   0  0  0  0  0  0  0  0  0  0  0  0
    0.9390   -0.4200    0.3840 C   0  0  0  0  0  0  0  0  0  0  0  0
    1.3350   -1.4350   -0.4610 C   0  0  0  0  0  0  0  0  0  0  0  0
    2.6910   -1.6760   -0.6060 C   0  0  0  0  0  0  0  0  0  0  0  0
    3.6560   -0.9420    0.0590 C   0  0  0  0  0  0  0  0  0  0  0  0
    5.0130   -1.1870   -0.0890 O   0  0  0  0  0  0  0  0  0  0  0  0
    5.9550   -0.4210   -1.2810 S   0  0  1  0  0  0  0  0  0  0  0  0
    7.5480   -1.0410   -1.2390 N   0  0  0  0  0  0  0  0  0  0  0  0
    5.4010   -0.6240   -2.6490 O   0  0  0  0  0  0  0  0  0  0  0  0
    5.9950    1.0350   -0.9680 O   0  0  0  0  0  0  0  0  0  0  0  0
    0.3370   -2.2700   -1.2120 C   0  0  0  0  0  0  0  0  0  0  0  0
   -0.9480   -2.2890   -0.4060 C   0  0  0  0  0  0  0  0  0  0  0  0
   -1.4090   -0.8630   -0.2970 C   0  0  2  0  0  0  0  0  0  0  0  0
   -0.4670   -0.0750    0.6140 C   0  0  2  0  0  0  0  0  0  0  0  0
   -0.7740    1.3830    0.3700 C   0  0  0  0  0  0  0  0  0  0  0  0
   -2.1930    1.6770    0.7800 C   0  0  0  0  0  0  0  0  0  0  0  0
   -3.1430    0.7900    0.0330 C   0  0  2  0  0  0  0  0  0  0  0  0
   -3.1770    1.1290   -1.4180 C   0  0  0  0  0  0  0  0  0  0  0  0
   -4.5310    0.7610    0.5730 C   0  0  1  0  0  0  0  0  0  0  0  0
   -5.2840    1.8760    0.2200 O   0  0  0  0  0  0  0  0  0  0  0  0
   -5.0830   -0.5040   -0.0900 C   0  0  0  0  0  0  0  0  0  0  0  0
   -3.8750   -1.4000   -0.3340 C   0  0  0  0  0  0  0  0  0  0  0  0
   -2.7540   -0.6780    0.2680 C   0  0  1  0  0  0  0  0  0  0  0  0
  1  2  1  0
  2  3  1  0
  3  4  2  0
  3  8  1  0
  4  5  1  0
  5  6  2  0
  5 17  1  0
  6  7  1  0
  6 14  1  0
  7  8  2  0
  8  9  1  0
  9 10  1  0
 10 11  1  6
 10 12  2  0
 10 13  2  0
 14 15  1  0
 16 15  1  1
 16 17  1  0
 16 26  1  0
 17 18  1  6
 18 19  1  0
 19 20  1  0
 20 21  1  6
 20 22  1  0
 20 26  1  0
 22 23  1  6
 22 24  1  0
 24 25  1  0
 26 25  1  6
M  END
