
     RDKit          3D

 15 16  0  0  0  0  0  0  0  0999 V2000
   -0.8830    3.4840    0.3280 C   0  0  0  0  0  0  0  0  0  0  0  0
   -1.4120    2.2140    0.6380 O   0  0  0  0  0  0  0  0  0  0  0  0
   -0.6630    1.0660    0.4260 C   0  0  0  0  0  0  0  0  0  0  0  0
    0.6060    1.1930   -0.0920 C   0  0  0  0  0  0  0  0  0  0  0  0
    1.3880    0.0540   -0.3180 C   0  0  0  0  0  0  0  0  0  0  0  0
    0.8850   -1.1980   -0.0200 C   0  0  0  0  0  0  0  0  0  0  0  0
   -0.4010   -1.2900    0.5030 C   0  0  0  0  0  0  0  0  0  0  0  0
   -0.9170   -2.5110    0.8040 O   0  0  0  0  0  0  0  0  0  0  0  0
   -1.1980   -0.1620    0.7350 C   0  0  0  0  0  0  0  0  0  0  0  0
   -2.4710   -0.3380    1.2600 O   0  0  0  0  0  0  0  0  0  0  0  0
   -3.5990   -0.5180    0.3880 C   0  0  0  0  0  0  0  0  0  0  0  0
    1.7280   -2.3610   -0.2680 C   0  0  0  0  0  0  0  0  0  0  0  0
    2.9520   -2.2850   -0.7640 C   0  0  0  0  0  0  0  0  0  0  0  0
    3.4280   -1.0280   -1.0520 O   0  0  0  0  0  0  0  0  0  0  0  0
    2.7490    0.1680   -0.8720 C   0  0  0  0  0  0  0  0  0  0  0  0
  1  2  1  0
  2  3  1  0
  3  4  2  0
  3  9  1  0
  4  5  1  0
  5  6  2  0
  5 15  1  0
  6  7  1  0
  6 12  1  0
  7  8  1  0
  7  9  2  0
  9 10  1  0
 10 11  1  0
 12 13  2  0
 13 14  1  0
 14 15  1  0
M  END
