
     RDKit          3D

 15 16  0  0  0  0  0  0  0  0999 V2000
    2.6330    0.4890    0.6060 C   0  0  0  0  0  0  0  0  0  0  0  0
    1.1790    0.3390    0.2880 C   0  0  0  0  0  0  0  0  0  0  0  0
    0.7160   -0.9340    0.0470 C   0  0  0  0  0  0  0  0  0  0  0  0
    1.6410   -2.0950    0.1100 C   0  0  0  0  0  0  0  0  0  0  0  0
   -0.6400   -1.0660   -0.2510 C   0  0  0  0  0  0  0  0  0  0  0  0
   -1.4580    0.0440   -0.2950 C   0  0  0  0  0  0  0  0  0  0  0  0
   -0.9740    1.3340   -0.0470 C   0  0  0  0  0  0  0  0  0  0  0  0
   -1.8770    2.4660   -0.1070 C   0  0  0  0  0  0  0  0  0  0  0  0
   -1.4330    3.6190    0.1170 O   0  0  0  0  0  0  0  0  0  0  0  0
    0.3640    1.4500    0.2450 C   0  0  0  0  0  0  0  0  0  0  0  0
    0.8740    2.7200    0.4960 O   0  0  0  0  0  0  0  0  0  0  0  0
   -2.8220   -0.3810   -0.6280 C   0  0  0  0  0  0  0  0  0  0  0  0
   -2.7240   -1.7750   -0.7670 O   0  0  0  0  0  0  0  0  0  0  0  0
   -1.4420   -2.2440   -0.5530 C   0  0  0  0  0  0  0  0  0  0  0  0
   -1.0490   -3.4400   -0.6070 O   0  0  0  0  0  0  0  0  0  0  0  0
  1  2  1  0
  2  3  2  0
  2 10  1  0
  3  4  1  0
  3  5  1  0
  5  6  2  0
  5 14  1  0
  6  7  1  0
  6 12  1  0
  7  8  1  0
  7 10  2  0
  8  9  2  0
 10 11  1  0
 12 13  1  0
 13 14  1  0
 14 15  2  0
M  END
