
     RDKit          3D

 12 11  0  0  0  0  0  0  0  0999 V2000
   -2.8700    2.0440   -0.1270 N   0  0  0  0  0  0  0  0  0  0  0  0
   -2.3170    1.4660    0.9940 O   0  0  0  0  0  0  0  0  0  0  0  0
   -1.5640    0.2760    0.7510 C   0  0  0  0  0  0  0  0  0  0  0  0
   -0.2660    0.4180    0.7900 C   0  0  0  0  0  0  0  0  0  0  0  0
    0.7400   -0.5890    0.5870 C   0  0  0  0  0  0  0  0  0  0  0  0
    0.3680   -1.8770    0.3130 O   0  0  0  0  0  0  0  0  0  0  0  0
    2.0540   -0.3050    0.6570 C   0  0  0  0  0  0  0  0  0  0  0  0
    3.0020   -1.3300    0.4500 N   0  0  0  0  0  0  0  0  0  0  0  0
    2.5490    0.9940    0.9340 N   0  0  0  0  0  0  0  0  0  0  0  0
    3.5770    1.4500    0.3560 N   0  0  0  0  0  0  0  0  0  0  0  0
   -2.3540   -0.9280    0.4940 C   0  0  0  0  0  0  0  0  0  0  0  0
   -3.1780   -0.7810   -0.6410 O   0  0  0  0  0  0  0  0  0  0  0  0
  1  2  1  0
  2  3  1  0
  3  4  2  3
  3 11  1  0
  4  5  1  0
  5  6  1  0
  5  7  2  3
  7  8  1  0
  7  9  1  0
  9 10  2  0
 11 12  1  0
M  CHG  1  10   1
M  END
