
     RDKit          3D

 12 11  0  0  0  0  0  0  0  0999 V2000
   -2.3050    2.7980    0.6360 N   0  0  0  0  0  0  0  0  0  0  0  0
   -2.1700    1.6540    1.3530 O   0  0  0  0  0  0  0  0  0  0  0  0
   -1.4130    0.5390    0.7640 C   0  0  0  0  0  0  0  0  0  0  0  0
   -0.1460    0.7930    0.7610 C   0  0  0  0  0  0  0  0  0  0  0  0
    1.0130    0.0830    0.3210 C   0  0  0  0  0  0  0  0  0  0  0  0
    0.9870   -1.1860   -0.2620 N   0  0  0  0  0  0  0  0  0  0  0  0
    2.2510    0.6300    0.4550 C   0  0  0  0  0  0  0  0  0  0  0  0
    3.4230   -0.0410    0.0320 N   0  0  0  0  0  0  0  0  0  0  0  0
    4.0580   -0.8020    0.9770 O   0  0  0  0  0  0  0  0  0  0  0  0
   -2.2090   -0.5630    0.3300 C   0  0  0  0  0  0  0  0  0  0  0  0
   -1.8610   -1.7800   -0.2690 N   0  0  0  0  0  0  0  0  0  0  0  0
   -3.5000   -0.4330    0.5160 O   0  0  0  0  0  0  0  0  0  0  0  0
  1  2  1  0
  2  3  1  0
  3  4  2  3
  3 10  1  0
  4  5  1  0
  5  6  1  0
  5  7  2  3
  7  8  1  0
  8  9  1  0
 10 11  1  0
 10 12  2  0
M  CHG  1  11   1
M  END
