
     RDKit          3D

 14 14  0  0  0  0  0  0  0  0999 V2000
    1.8150    0.0290    1.7350 C   0  0  0  0  0  0  0  0  0  0  0  0
    1.9680   -0.2830    0.2690 C   0  0  2  0  0  0  0  0  0  0  0  0
    3.2710    0.2730   -0.2690 C   0  0  0  0  0  0  0  0  0  0  0  0
    3.3840    2.0520   -0.0940 S   0  0  0  0  0  0  0  0  0  0  0  0
    0.8130    0.1400   -0.5530 C   0  0  0  0  0  0  0  0  0  0  0  0
    1.0050    1.0450   -1.3990 O   0  0  0  0  0  0  0  0  0  0  0  0
   -0.4580   -0.4240   -0.4190 N   0  0  0  0  0  0  0  0  0  0  0  0
   -0.8210   -1.4730    0.4950 C   0  0  0  0  0  0  0  0  0  0  0  0
   -2.2930   -1.2460    0.8170 C   0  0  0  0  0  0  0  0  0  0  0  0
   -2.7960   -0.8250   -0.5490 C   0  0  0  0  0  0  0  0  0  0  0  0
   -1.6360   -0.0630   -1.1660 C   0  0  1  0  0  0  0  0  0  0  0  0
   -1.9310    1.3900   -1.0840 C   0  0  0  0  0  0  0  0  0  0  0  0
   -1.1750    2.1300   -0.4040 O   0  0  0  0  0  0  0  0  0  0  0  0
   -2.9990    1.9850   -1.7190 O   0  0  0  0  0  0  0  0  0  0  0  0
  2  1  1  1
  2  3  1  0
  2  5  1  0
  3  4  1  0
  5  6  2  0
  5  7  1  0
  7  8  1  0
  7 11  1  0
  8  9  1  0
  9 10  1  0
 10 11  1  0
 11 12  1  1
 12 13  2  0
 12 14  1  0
M  END
