
     RDKit          3D

 12 11  0  0  0  0  0  0  0  0999 V2000
   -2.2870   -1.5810    0.8360 N   0  0  0  0  0  0  0  0  0  0  0  0
   -1.8750   -0.9820   -0.2940 O   0  0  0  0  0  0  0  0  0  0  0  0
   -1.2720    0.2430   -0.4210 C   0  0  0  0  0  0  0  0  0  0  0  0
    0.0340    0.3960   -0.3450 C   0  0  0  0  0  0  0  0  0  0  0  0
    0.9490   -0.7170   -0.1200 C   0  0  0  0  0  0  0  0  0  0  0  0
    0.4500   -2.0280    0.0260 N   0  0  0  0  0  0  0  0  0  0  0  0
    2.2480   -0.5020   -0.0530 C   0  0  0  0  0  0  0  0  0  0  0  0
    2.7610    0.7790   -0.1940 O   0  0  0  0  0  0  0  0  0  0  0  0
    3.7800    1.2600    0.5600 N   0  0  0  0  0  0  0  0  0  0  0  0
   -2.1240    1.4040   -0.6480 C   0  0  0  0  0  0  0  0  0  0  0  0
   -3.5310    1.3210   -0.7410 N   0  0  0  0  0  0  0  0  0  0  0  0
   -1.6280    2.5750   -0.7750 O   0  0  0  0  0  0  0  0  0  0  0  0
  1  2  1  0
  2  3  1  0
  3  4  2  3
  3 10  1  0
  4  5  1  0
  5  6  1  0
  5  7  2  3
  7  8  1  0
  8  9  1  0
 10 11  1  0
 10 12  2  0
M  CHG  1   9   1
M  END
