
     RDKit          3D

 29 31  0  0  0  0  0  0  0  0999 V2000
    6.7700    1.3370   -1.5620 C   0  0  0  0  0  0  0  0  0  0  0  0
    7.0590    1.3550   -0.1150 C   0  0  0  0  0  0  0  0  0  0  0  0
    8.2490    1.8370    0.4570 C   0  0  0  0  0  0  0  0  0  0  0  0
    8.0910    1.6760    1.8000 C   0  0  0  0  0  0  0  0  0  0  0  0
    9.3410    2.1420    3.0150 S   0  0  0  0  0  0  0  0  0  0  0  0
    6.9290    1.1520    2.0300 O   0  0  0  0  0  0  0  0  0  0  0  0
    6.2540    0.9330    0.8970 C   0  0  0  0  0  0  0  0  0  0  0  0
    4.9330    0.3510    0.9100 C   0  0  0  0  0  0  0  0  0  0  0  0
    4.3930    0.1300    2.0660 O   0  0  0  0  0  0  0  0  0  0  0  0
    4.1750    0.0010   -0.2280 N   0  0  0  0  0  0  0  0  0  0  0  0
    2.8520   -0.5720    0.0230 C   0  0  0  0  0  0  0  0  0  0  0  0
    2.1380   -0.9040   -1.2470 C   0  0  0  0  0  0  0  0  0  0  0  0
    0.8370   -1.4520   -0.8700 N   0  0  0  0  0  0  0  0  0  0  0  0
    0.5760   -2.7510   -0.6620 C   0  0  0  0  0  0  0  0  0  0  0  0
    1.5580   -3.8880   -0.7770 C   0  0  0  0  0  0  0  0  0  0  0  0
   -0.7560   -2.8330   -0.3220 C   0  0  0  0  0  0  0  0  0  0  0  0
   -1.3360   -1.5640   -0.3180 C   0  0  0  0  0  0  0  0  0  0  0  0
   -2.7220   -1.3360    0.0240 C   0  0  0  0  0  0  0  0  0  0  0  0
   -3.5020   -2.3490    0.1290 O   0  0  0  0  0  0  0  0  0  0  0  0
   -3.3390   -0.0920    0.2660 N   0  0  0  0  0  0  0  0  0  0  0  0
   -4.7400    0.0630    0.6030 C   0  0  1  0  0  0  0  0  0  0  0  0
   -4.9110    0.5560    2.0110 C   0  0  0  0  0  0  0  0  0  0  0  0
   -6.1590    0.7550    2.4160 C   0  0  0  0  0  0  0  0  0  0  0  0
   -7.2220    0.4610    1.4140 C   0  0  0  0  0  0  0  0  0  0  0  0
   -6.8560    1.2730    0.1840 C   0  0  2  0  0  0  0  0  0  0  0  0
   -7.9220    1.1300   -0.8780 C   0  0  0  0  0  0  0  0  0  0  0  0
   -5.4720    0.9620   -0.3310 C   0  0  0  0  0  0  0  0  0  0  0  0
   -0.3070   -0.7300   -0.6660 C   0  0  0  0  0  0  0  0  0  0  0  0
   -0.3950    0.7280   -0.8140 C   0  0  0  0  0  0  0  0  0  0  0  0
  1  2  1  0
  2  3  1  0
  2  7  2  0
  3  4  2  0
  4  5  1  0
  4  6  1  0
  6  7  1  0
  7  8  1  0
  8  9  2  0
  8 10  1  0
 10 11  1  0
 11 12  1  0
 12 13  1  0
 13 14  1  0
 13 28  1  0
 14 15  1  0
 14 16  2  0
 16 17  1  0
 17 18  1  0
 17 28  2  0
 18 19  2  0
 18 20  1  0
 21 20  1  6
 21 22  1  0
 21 27  1  0
 22 23  2  0
 23 24  1  0
 24 25  1  0
 25 26  1  6
 25 27  1  0
 28 29  1  0
M  END
