
     RDKit          3D

 29 30  0  0  0  0  0  0  0  0999 V2000
   -3.2930   -1.6000   -2.0050 C   0  0  0  0  0  0  0  0  0  0  0  0
   -2.7510   -0.3650   -1.3230 C   0  0  0  0  0  0  0  0  0  0  0  0
   -1.5120   -0.0530   -1.5630 C   0  0  0  0  0  0  0  0  0  0  0  0
   -0.7810    1.0730   -1.0290 C   0  0  0  0  0  0  0  0  0  0  0  0
    0.4790    1.2690   -1.3640 C   0  0  0  0  0  0  0  0  0  0  0  0
    1.0590    0.2860   -2.2920 C   0  0  0  0  0  0  0  0  0  0  0  0
    2.4310    0.6990   -2.7950 C   0  0  0  0  0  0  0  0  0  0  0  0
    3.3510    0.9250   -1.7200 N   0  0  0  0  0  0  0  0  0  0  0  0
    4.1350   -0.1720   -1.3440 C   0  0  0  0  0  0  0  0  0  0  0  0
    4.0100   -1.2940   -1.9450 O   0  0  0  0  0  0  0  0  0  0  0  0
    5.3040    0.0300   -0.0150 S   0  0  0  0  0  0  0  0  0  0  0  0
    6.2190   -1.4790    0.3370 C   0  0  2  0  0  0  0  0  0  0  0  0
    5.3490   -2.5740    0.8790 C   0  0  0  0  0  0  0  0  0  0  0  0
    7.3300   -1.1020    1.3260 C   0  0  1  0  0  0  0  0  0  0  0  0
    8.2060   -0.0610    0.6580 C   0  0  0  0  0  0  0  0  0  0  0  0
    6.7500   -0.4950    2.5710 C   0  0  0  0  0  0  0  0  0  0  0  0
    3.5650    2.1370   -0.9840 C   0  0  0  0  0  0  0  0  0  0  0  0
    2.3710    2.5840   -0.2130 C   0  0  2  0  0  0  0  0  0  0  0  0
    2.4080    2.0750    1.2300 C   0  0  0  0  0  0  0  0  0  0  0  0
    1.1330    2.3630   -0.8210 O   0  0  0  0  0  0  0  0  0  0  0  0
   -3.6490    0.3500   -0.4740 C   0  0  0  0  0  0  0  0  0  0  0  0
   -3.3240    1.3950    0.1550 O   0  0  0  0  0  0  0  0  0  0  0  0
   -5.0170   -0.0910   -0.2800 N   0  0  0  0  0  0  0  0  0  0  0  0
   -5.8640    0.6830    0.5920 C   0  0  0  0  0  0  0  0  0  0  0  0
   -7.2210    0.0340    0.6320 C   0  0  2  0  0  0  0  0  0  0  0  0
   -8.2000    0.7580    1.5180 C   0  0  0  0  0  0  0  0  0  0  0  0
   -9.2550   -0.3330    1.7310 C   0  0  0  0  0  0  0  0  0  0  0  0
   -8.4000   -1.5710    1.8130 C   0  0  0  0  0  0  0  0  0  0  0  0
   -7.1820   -1.3340    1.1040 N   0  0  0  0  0  0  0  0  0  0  0  0
  1  2  1  0
  2  3  2  3
  2 21  1  0
  3  4  1  0
  4  5  2  3
  5  6  1  0
  5 20  1  0
  6  7  1  0
  7  8  1  0
  8  9  1  0
  8 17  1  0
  9 10  2  0
  9 11  1  0
 11 12  1  0
 12 13  1  1
 12 14  1  0
 14 15  1  6
 14 16  1  0
 17 18  1  0
 18 19  1  1
 18 20  1  0
 21 22  2  0
 21 23  1  0
 23 24  1  0
 25 24  1  1
 25 26  1  0
 25 29  1  0
 26 27  1  0
 27 28  1  0
 28 29  1  0
M  END
