
     RDKit          3D

 29 31  0  0  0  0  0  0  0  0999 V2000
   -0.1340    1.5370    0.2840 C   0  0  0  0  0  0  0  0  0  0  0  0
    0.0260    0.0920    0.0930 C   0  0  1  0  0  0  0  0  0  0  0  0
    1.2620   -0.4130    0.8880 C   0  0  0  0  0  0  0  0  0  0  0  0
    2.4590    0.2580    0.3380 C   0  0  0  0  0  0  0  0  0  0  0  0
    2.3880    0.9690   -0.6860 O   0  0  0  0  0  0  0  0  0  0  0  0
    3.7650    0.1220    0.9490 N   0  0  0  0  0  0  0  0  0  0  0  0
    4.8780    0.8330    0.2860 C   0  0  0  0  0  0  0  0  0  0  0  0
    6.1710    0.5620    1.0240 C   0  0  1  0  0  0  0  0  0  0  0  0
    6.5230   -0.9140    0.9840 C   0  0  0  0  0  0  0  0  0  0  0  0
    8.0310   -0.8400    1.1480 C   0  0  0  0  0  0  0  0  0  0  0  0
    8.3480    0.4350    0.3880 C   0  0  0  0  0  0  0  0  0  0  0  0
    7.1980    1.1970    0.3570 O   0  0  0  0  0  0  0  0  0  0  0  0
   -1.1090   -0.7460    0.2580 N   0  0  0  0  0  0  0  0  0  0  0  0
   -2.0220   -0.4200    1.3900 C   0  0  0  0  0  0  0  0  0  0  0  0
   -2.9060    0.5660    0.9770 C   0  0  0  0  0  0  0  0  0  0  0  0
   -3.6430    1.4190    0.6210 C   0  0  0  0  0  0  0  0  0  0  0  0
   -4.5160    2.4460    0.2200 C   0  0  0  0  0  0  0  0  0  0  0  0
   -3.9020    3.0450   -1.0740 C   0  0  0  0  0  0  0  0  0  0  0  0
   -4.1850    1.9890   -2.1690 C   0  0  0  0  0  0  0  0  0  0  0  0
   -3.2510    0.4940   -1.8470 S   0  0  0  0  0  0  0  0  0  0  0  0
   -4.3090   -0.9600   -1.6760 C   0  0  0  0  0  0  0  0  0  0  0  0
   -5.6440   -0.7560   -2.1130 C   0  0  0  0  0  0  0  0  0  0  0  0
   -6.5890   -1.7470   -1.9560 C   0  0  0  0  0  0  0  0  0  0  0  0
   -6.2320   -2.9410   -1.3730 C   0  0  0  0  0  0  0  0  0  0  0  0
   -4.9350   -3.1310   -0.9540 C   0  0  0  0  0  0  0  0  0  0  0  0
   -3.9600   -2.1430   -1.1030 C   0  0  0  0  0  0  0  0  0  0  0  0
   -2.6110   -2.5220   -0.7550 N   0  0  0  0  0  0  0  0  0  0  0  0
   -1.4360   -1.7700   -0.6620 C   0  0  0  0  0  0  0  0  0  0  0  0
   -0.4730   -2.0150   -1.5230 O   0  0  0  0  0  0  0  0  0  0  0  0
  2  1  1  1
  2  3  1  0
  2 13  1  0
  3  4  1  0
  4  5  2  0
  4  6  1  0
  6  7  1  0
  8  7  1  6
  8  9  1  0
  8 12  1  0
  9 10  1  0
 10 11  1  0
 11 12  1  0
 13 14  1  0
 13 28  1  0
 14 15  1  0
 15 16  3  0
 16 17  1  0
 17 18  1  0
 18 19  1  0
 19 20  1  0
 20 21  1  0
 21 22  2  0
 21 26  1  0
 22 23  1  0
 23 24  2  0
 24 25  1  0
 25 26  2  0
 26 27  1  0
 27 28  1  0
 28 29  2  0
M  END
