
     RDKit          3D

 31 35  0  0  0  0  0  0  0  0999 V2000
    5.3320   -3.5710    0.2120 C   0  0  0  0  0  0  0  0  0  0  0  0
    4.2180   -2.7760   -0.1380 O   0  0  0  0  0  0  0  0  0  0  0  0
    4.4010   -1.4060   -0.2540 C   0  0  0  0  0  0  0  0  0  0  0  0
    5.6280   -0.8190   -0.0370 C   0  0  0  0  0  0  0  0  0  0  0  0
    5.8540    0.5400   -0.1410 C   0  0  0  0  0  0  0  0  0  0  0  0
    4.8120    1.3740   -0.4790 C   0  0  0  0  0  0  0  0  0  0  0  0
    3.5760    0.8040   -0.7000 C   0  0  0  0  0  0  0  0  0  0  0  0
    3.3560   -0.5540   -0.5940 C   0  0  0  0  0  0  0  0  0  0  0  0
    2.0170   -1.1440   -0.8370 C   0  0  0  0  0  0  0  0  0  0  0  0
    1.3420   -1.5190    0.4820 C   0  0  0  0  0  0  0  0  0  0  0  0
    0.0310   -2.0950    0.2360 N   0  0  0  0  0  0  0  0  0  0  0  0
   -0.2480   -3.3970    0.0480 C   0  0  0  0  0  0  0  0  0  0  0  0
    0.5930   -4.3560    0.0530 O   0  0  0  0  0  0  0  0  0  0  0  0
   -1.5740   -3.4680   -0.1410 N   0  0  0  0  0  0  0  0  0  0  0  0
   -2.1450   -2.2450   -0.0790 C   0  0  0  0  0  0  0  0  0  0  0  0
   -3.3910   -1.7650   -0.1930 N   0  0  0  0  0  0  0  0  0  0  0  0
   -3.6910   -0.4590   -0.0830 C   0  0  0  0  0  0  0  0  0  0  0  0
   -5.0350    0.0200   -0.2090 N   0  0  0  0  0  0  0  0  0  0  0  0
   -6.0870   -0.9260   -0.4590 C   0  0  0  0  0  0  0  0  0  0  0  0
   -7.2990   -0.1500   -0.9190 C   0  0  0  0  0  0  0  0  0  0  0  0
   -7.7090    0.8190    0.1580 C   0  0  0  0  0  0  0  0  0  0  0  0
   -6.5970    1.7350    0.5810 C   0  0  2  0  0  0  0  0  0  0  0  0
   -6.9810    3.1480    0.1970 C   0  0  0  0  0  0  0  0  0  0  0  0
   -5.2830    1.4180   -0.0820 C   0  0  0  0  0  0  0  0  0  0  0  0
   -2.6740    0.3890    0.1540 N   0  0  0  0  0  0  0  0  0  0  0  0
   -1.4010   -0.0240    0.2800 C   0  0  0  0  0  0  0  0  0  0  0  0
   -1.1120   -1.3680    0.1640 C   0  0  0  0  0  0  0  0  0  0  0  0
    5.2810    2.7020   -0.5240 O   0  0  0  0  0  0  0  0  0  0  0  0
    6.6930    2.6300   -0.7720 C   0  0  1  0  0  0  0  0  0  0  0  0
    7.4110    3.8620   -0.3250 C   0  0  0  0  0  0  0  0  0  0  0  0
    7.0480    1.4030    0.0380 C   0  0  0  0  0  0  0  0  0  0  0  0
  1  2  1  0
  2  3  1  0
  3  4  2  0
  3  8  1  0
  4  5  1  0
  5  6  2  0
  5 31  1  0
  6  7  1  0
  6 28  1  0
  7  8  2  0
  8  9  1  0
  9 10  1  0
 10 11  1  0
 11 12  1  0
 11 27  1  0
 12 13  2  0
 12 14  1  0
 14 15  1  0
 15 16  2  0
 15 27  1  0
 16 17  1  0
 17 18  1  0
 17 25  2  0
 18 19  1  0
 18 24  1  0
 19 20  1  0
 20 21  1  0
 21 22  1  0
 22 23  1  6
 22 24  1  0
 25 26  1  0
 26 27  2  0
 28 29  1  0
 29 30  1  1
 29 31  1  0
M  END
