
     RDKit          3D

 29 31  0  0  0  0  0  0  0  0999 V2000
   -1.1980    6.8620    1.3830 C   0  0  0  0  0  0  0  0  0  0  0  0
   -0.2000    6.7030    0.2730 C   0  0  0  0  0  0  0  0  0  0  0  0
   -0.2860    5.3310   -0.3650 C   0  0  0  0  0  0  0  0  0  0  0  0
   -0.0110    4.2420    0.6770 C   0  0  0  0  0  0  0  0  0  0  0  0
   -0.1090    2.9470   -0.0040 C   0  0  0  0  0  0  0  0  0  0  0  0
    0.8710    2.0620   -0.0940 C   0  0  0  0  0  0  0  0  0  0  0  0
    0.6770    0.8000   -0.7940 C   0  0  1  0  0  0  0  0  0  0  0  0
    1.8830   -0.0880   -0.6400 C   0  0  0  0  0  0  0  0  0  0  0  0
    2.8100    0.3640    0.0180 O   0  0  0  0  0  0  0  0  0  0  0  0
    1.9490   -1.3520   -1.2080 N   0  0  0  0  0  0  0  0  0  0  0  0
    2.9630   -2.3350   -1.2160 C   0  0  0  0  0  0  0  0  0  0  0  0
    4.1710   -2.3950   -0.7310 C   0  0  0  0  0  0  0  0  0  0  0  0
    4.9160   -1.3670    0.0220 C   0  0  0  0  0  0  0  0  0  0  0  0
    4.9200   -1.6310    1.5040 C   0  0  0  0  0  0  0  0  0  0  0  0
    4.7840   -3.7410   -0.9960 C   0  0  0  0  0  0  0  0  0  0  0  0
    3.8550   -4.4190   -1.8150 N   0  0  0  0  0  0  0  0  0  0  0  0
    2.7020   -3.6260   -1.9310 C   0  0  0  0  0  0  0  0  0  0  0  0
    1.6400   -3.9560   -2.5340 O   0  0  0  0  0  0  0  0  0  0  0  0
   -0.5550    0.0360   -0.3860 C   0  0  0  0  0  0  0  0  0  0  0  0
   -1.7060    0.6330   -0.3470 C   0  0  0  0  0  0  0  0  0  0  0  0
   -2.9550    0.1020    0.0020 C   0  0  0  0  0  0  0  0  0  0  0  0
   -3.9490    0.9550   -0.0550 O   0  0  0  0  0  0  0  0  0  0  0  0
   -3.3260   -1.1630    0.3960 N   0  0  0  0  0  0  0  0  0  0  0  0
   -2.4630   -2.2910    0.5540 C   0  0  0  0  0  0  0  0  0  0  0  0
   -3.2750   -3.4590    1.0930 C   0  0  0  0  0  0  0  0  0  0  0  0
   -4.4170   -3.8140    0.1710 C   0  0  0  0  0  0  0  0  0  0  0  0
   -5.2850   -2.5980   -0.0770 C   0  0  0  0  0  0  0  0  0  0  0  0
   -4.7430   -1.4090    0.6880 C   0  0  0  0  0  0  0  0  0  0  0  0
   -1.6620    2.4250   -0.7950 S   0  0  0  0  0  0  0  0  0  0  0  0
  1  2  1  0
  2  3  1  0
  3  4  1  0
  4  5  1  0
  5  6  2  0
  5 29  1  0
  6  7  1  0
  7  8  1  1
  7 19  1  0
  8  9  2  0
  8 10  1  0
 10 11  1  0
 11 12  2  0
 11 17  1  0
 12 13  1  0
 12 15  1  0
 13 14  1  0
 15 16  1  0
 16 17  1  0
 17 18  2  0
 19 20  2  0
 20 21  1  0
 20 29  1  0
 21 22  2  0
 21 23  1  0
 23 24  1  0
 23 28  1  0
 24 25  1  0
 25 26  1  0
 26 27  1  0
 27 28  1  0
M  END
