
     RDKit          3D

 36 39  0  0  0  0  0  0  0  0999 V2000
   -2.0430    5.5640    1.0510 C   0  0  0  0  0  0  0  0  0  0  0  0
   -2.2500    4.6410    2.2160 C   0  0  0  0  0  0  0  0  0  0  0  0
   -1.4550    3.3650    2.0900 C   0  0  0  0  0  0  0  0  0  0  0  0
   -1.8390    2.6450    0.8930 N   0  0  0  0  0  0  0  0  0  0  0  0
   -1.0600    1.3990    0.7720 C   0  0  0  0  0  0  0  0  0  0  0  0
   -1.5320    0.7450   -0.4810 C   0  0  0  0  0  0  0  0  0  0  0  0
   -0.9190   -0.5050   -0.8140 N   0  0  0  0  0  0  0  0  0  0  0  0
   -1.4420   -1.7830   -0.3450 C   0  0  0  0  0  0  0  0  0  0  0  0
   -2.4410   -2.3500   -1.3200 C   0  0  0  0  0  0  0  0  0  0  0  0
   -2.9800   -3.6500   -0.8550 C   0  0  0  0  0  0  0  0  0  0  0  0
   -2.3500   -4.7800   -1.2140 N   0  0  0  0  0  0  0  0  0  0  0  0
   -2.7830   -5.9740   -0.8300 C   0  0  0  0  0  0  0  0  0  0  0  0
   -3.8990   -6.0790   -0.0480 C   0  0  0  0  0  0  0  0  0  0  0  0
   -4.5650   -4.9330    0.3330 C   0  0  0  0  0  0  0  0  0  0  0  0
   -5.7770   -5.0480    1.1820 C   0  0  0  0  0  0  0  0  0  0  0  0
   -4.0730   -3.7590   -0.0890 N   0  0  0  0  0  0  0  0  0  0  0  0
    0.2460   -0.5610   -1.6290 C   0  0  0  0  0  0  0  0  0  0  0  0
    0.7940   -1.6580   -1.9410 O   0  0  0  0  0  0  0  0  0  0  0  0
    0.8830    0.6360   -2.1600 C   0  0  0  0  0  0  0  0  0  0  0  0
    0.4460    1.1960   -3.3640 C   0  0  0  0  0  0  0  0  0  0  0  0
    1.0740    2.3280   -3.8000 C   0  0  0  0  0  0  0  0  0  0  0  0
    0.5060    3.0210   -5.3260 Cl  0  0  0  0  0  0  0  0  0  0  0  0
    2.0780    2.8970   -3.1090 N   0  0  0  0  0  0  0  0  0  0  0  0
    2.5000    2.3450   -1.9340 C   0  0  0  0  0  0  0  0  0  0  0  0
    1.9070    1.1980   -1.4360 C   0  0  0  0  0  0  0  0  0  0  0  0
    2.2240    0.5140   -0.2580 O   0  0  0  0  0  0  0  0  0  0  0  0
    3.5340    0.3740    0.2390 C   0  0  0  0  0  0  0  0  0  0  0  0
    3.7040   -0.6720    1.0960 C   0  0  0  0  0  0  0  0  0  0  0  0
    4.9400   -0.9240    1.6560 C   0  0  0  0  0  0  0  0  0  0  0  0
    5.1180   -2.0690    2.5920 C   0  0  0  0  0  0  0  0  0  0  0  0
    6.0320   -0.1380    1.3730 C   0  0  0  0  0  0  0  0  0  0  0  0
    7.5770   -0.5140    2.1210 Cl  0  0  0  0  0  0  0  0  0  0  0  0
    5.8840    0.9300    0.5070 C   0  0  0  0  0  0  0  0  0  0  0  0
    4.6450    1.1710   -0.0460 C   0  0  0  0  0  0  0  0  0  0  0  0
    4.6690    2.2670   -0.8850 O   0  0  0  0  0  0  0  0  0  0  0  0
    3.6040    3.0940   -1.3060 C   0  0  0  0  0  0  0  0  0  0  0  0
  1  2  1  0
  2  3  1  0
  3  4  1  0
  4  5  1  0
  5  6  1  0
  6  7  1  0
  7  8  1  0
  7 17  1  0
  8  9  1  0
  9 10  1  0
 10 11  2  0
 10 16  1  0
 11 12  1  0
 12 13  2  0
 13 14  1  0
 14 15  1  0
 14 16  2  0
 17 18  2  0
 17 19  1  0
 19 20  2  0
 19 25  1  0
 20 21  1  0
 21 22  1  0
 21 23  2  0
 23 24  1  0
 24 25  2  0
 24 36  1  0
 25 26  1  0
 26 27  1  0
 27 28  2  0
 27 34  1  0
 28 29  1  0
 29 30  1  0
 29 31  2  0
 31 32  1  0
 31 33  1  0
 33 34  2  0
 34 35  1  0
 35 36  1  0
M  END
