
     RDKit          3D

 35 38  0  0  0  0  0  0  0  0999 V2000
   -5.1410   -2.4610   -0.9430 C   0  0  0  0  0  0  0  0  0  0  0  0
   -5.6390   -2.6500    0.2440 C   0  0  0  0  0  0  0  0  0  0  0  0
   -5.5980   -1.7360    1.4110 C   0  0  0  0  0  0  0  0  0  0  0  0
   -4.8800   -0.5300    1.2700 N   0  0  0  0  0  0  0  0  0  0  0  0
   -5.0980    0.5650    0.3920 C   0  0  0  0  0  0  0  0  0  0  0  0
   -6.3200    1.0270    0.1270 C   0  0  0  0  0  0  0  0  0  0  0  0
   -7.5170    0.4200    0.7520 C   0  0  0  0  0  0  0  0  0  0  0  0
   -8.6440    1.4580    0.7510 C   0  0  0  0  0  0  0  0  0  0  0  0
   -8.8890    2.0690   -0.5890 C   0  0  0  0  0  0  0  0  0  0  0  0
   -7.6640    2.6260   -1.1310 N   0  0  0  0  0  0  0  0  0  0  0  0
   -6.5030    2.1300   -0.7870 C   0  0  0  0  0  0  0  0  0  0  0  0
   -5.3140    2.6730   -1.3610 N   0  0  0  0  0  0  0  0  0  0  0  0
   -4.0420    2.1570   -1.0490 C   0  0  0  0  0  0  0  0  0  0  0  0
   -3.8670    1.1480   -0.2140 C   0  0  0  0  0  0  0  0  0  0  0  0
   -2.4980    0.7000    0.1710 C   0  0  2  0  0  0  0  0  0  0  0  0
   -1.4200    1.7130    0.0270 C   0  0  0  0  0  0  0  0  0  0  0  0
   -0.2560    1.2190   -0.7980 C   0  0  0  0  0  0  0  0  0  0  0  0
    0.1880   -0.0140   -0.1820 N   0  0  0  0  0  0  0  0  0  0  0  0
    1.5040   -0.0820    0.3590 C   0  0  0  0  0  0  0  0  0  0  0  0
    1.9230   -1.1320    0.9040 O   0  0  0  0  0  0  0  0  0  0  0  0
    2.4110    1.0850    0.2920 C   0  0  0  0  0  0  0  0  0  0  0  0
    3.7020    0.7800    0.9160 N   0  0  0  0  0  0  0  0  0  0  0  0
    3.9220    1.0680    2.3200 C   0  0  0  0  0  0  0  0  0  0  0  0
    4.7160    0.2380    0.1160 C   0  0  0  0  0  0  0  0  0  0  0  0
    4.5130    0.0660   -1.1260 O   0  0  0  0  0  0  0  0  0  0  0  0
    6.0200   -0.1390    0.6740 C   0  0  1  0  0  0  0  0  0  0  0  0
    5.9610   -1.5350    1.2920 C   0  0  0  0  0  0  0  0  0  0  0  0
    7.3610   -1.9530    1.6280 C   0  0  0  0  0  0  0  0  0  0  0  0
    7.9680   -2.8760    0.5930 C   0  0  0  0  0  0  0  0  0  0  0  0
    8.1990   -2.2300   -0.7310 C   0  0  0  0  0  0  0  0  0  0  0  0
    7.0620   -1.3160   -1.1430 C   0  0  0  0  0  0  0  0  0  0  0  0
    7.0560   -0.1200   -0.3580 N   0  0  1  0  0  0  0  0  0  0  0  0
    6.9160    1.0910   -1.1570 C   0  0  0  0  0  0  0  0  0  0  0  0
   -0.7340   -1.1080   -0.1470 C   0  0  0  0  0  0  0  0  0  0  0  0
   -2.1330   -0.6740   -0.2350 C   0  0  0  0  0  0  0  0  0  0  0  0
  1  2  2  0
  2  3  1  0
  3  4  1  0
  4  5  1  0
  5  6  2  0
  5 14  1  0
  6  7  1  0
  6 11  1  0
  7  8  1  0
  8  9  1  0
  9 10  1  0
 10 11  2  0
 11 12  1  0
 12 13  1  0
 13 14  2  0
 15 14  1  6
 15 16  1  0
 15 35  1  0
 16 17  1  0
 17 18  1  0
 18 19  1  0
 18 34  1  0
 19 20  2  0
 19 21  1  0
 21 22  1  0
 22 23  1  0
 22 24  1  0
 24 25  2  0
 26 24  1  6
 26 27  1  0
 26 32  1  0
 27 28  1  0
 28 29  1  0
 29 30  1  0
 30 31  1  0
 31 32  1  0
 32 33  1  6
 34 35  1  0
M  CHG  2  10   1  32   1
M  END
