
     RDKit          3D

 36 40  0  0  0  0  0  0  0  0999 V2000
   -7.0070    3.5940   -1.0630 C   0  0  0  0  0  0  0  0  0  0  0  0
   -7.3040    2.2710   -0.4540 C   0  0  0  0  0  0  0  0  0  0  0  0
   -8.6150    1.9550   -0.2070 C   0  0  0  0  0  0  0  0  0  0  0  0
   -8.9410    0.7400    0.3560 C   0  0  0  0  0  0  0  0  0  0  0  0
   -7.9230   -0.1620    0.6720 C   0  0  0  0  0  0  0  0  0  0  0  0
   -8.3940   -1.6890    1.3830 Cl  0  0  0  0  0  0  0  0  0  0  0  0
   -6.6000    0.1340    0.4330 C   0  0  0  0  0  0  0  0  0  0  0  0
   -5.5530   -0.8350    0.7750 C   0  0  0  0  0  0  0  0  0  0  0  0
   -4.2160   -0.4230    0.4850 N   0  0  2  0  0  0  0  0  0  0  0  0
   -3.8930   -0.4020   -0.9050 C   0  0  0  0  0  0  0  0  0  0  0  0
   -3.0280   -1.6060   -1.2050 C   0  0  0  0  0  0  0  0  0  0  0  0
   -2.7540   -2.2690    0.1190 C   0  0  1  0  0  0  0  0  0  0  0  0
   -3.6400   -3.5090    0.2300 C   0  0  0  0  0  0  0  0  0  0  0  0
   -1.3910   -2.6690    0.2770 N   0  0  0  0  0  0  0  0  0  0  0  0
   -0.3300   -1.7000    0.2210 C   0  0  0  0  0  0  0  0  0  0  0  0
   -0.6850   -0.5080    0.0290 O   0  0  0  0  0  0  0  0  0  0  0  0
    1.0220   -2.0940    0.3770 N   0  0  0  0  0  0  0  0  0  0  0  0
    1.3150   -3.4920    0.5980 C   0  0  0  0  0  0  0  0  0  0  0  0
    2.0610   -1.1420    0.3190 C   0  0  0  0  0  0  0  0  0  0  0  0
    1.9330    0.1090    0.8920 C   0  0  0  0  0  0  0  0  0  0  0  0
    2.9630    1.0360    0.8290 C   0  0  0  0  0  0  0  0  0  0  0  0
    4.1520    0.7670    0.2020 C   0  0  0  0  0  0  0  0  0  0  0  0
    4.2960   -0.4830   -0.3780 C   0  0  0  0  0  0  0  0  0  0  0  0
    3.2750   -1.4090   -0.3180 C   0  0  0  0  0  0  0  0  0  0  0  0
    5.4570   -0.9350   -1.0690 N   0  0  0  0  0  0  0  0  0  0  0  0
    6.7650   -0.3830   -1.0140 C   0  0  0  0  0  0  0  0  0  0  0  0
    7.6770   -1.1410   -1.4940 O   0  0  0  0  0  0  0  0  0  0  0  0
    7.2570    0.9200   -0.4960 C   0  0  0  0  0  0  0  0  0  0  0  0
    6.5170    1.8640    0.0400 C   0  0  0  0  0  0  0  0  0  0  0  0
    7.1140    3.1360    0.5280 C   0  0  0  0  0  0  0  0  0  0  0  0
    8.5520    2.8600    0.8830 C   0  0  0  0  0  0  0  0  0  0  0  0
    9.1960    2.3380   -0.3190 N   0  0  0  0  0  0  0  0  0  0  0  0
    8.7120    1.0400   -0.6520 C   0  0  0  0  0  0  0  0  0  0  0  0
    5.0840    1.8410    0.2420 N   0  0  0  0  0  0  0  0  0  0  0  0
   -3.2300   -1.2950    1.1440 C   0  0  0  0  0  0  0  0  0  0  0  0
   -6.3160    1.3540   -0.1290 C   0  0  0  0  0  0  0  0  0  0  0  0
  1  2  1  0
  2  3  2  0
  2 36  1  0
  3  4  1  0
  4  5  2  0
  5  6  1  0
  5  7  1  0
  7  8  1  0
  7 36  2  0
  9  8  1  6
  9 10  1  0
  9 35  1  0
 10 11  1  0
 11 12  1  0
 12 13  1  6
 12 14  1  0
 12 35  1  0
 14 15  1  0
 15 16  2  0
 15 17  1  0
 17 18  1  0
 17 19  1  0
 19 20  2  0
 19 24  1  0
 20 21  1  0
 21 22  2  0
 22 23  1  0
 22 34  1  0
 23 24  2  0
 23 25  1  0
 25 26  1  0
 26 27  2  0
 26 28  1  0
 28 29  2  0
 28 33  1  0
 29 30  1  0
 29 34  1  0
 30 31  1  0
 31 32  1  0
 32 33  1  0
M  CHG  2   9   1  32   1
M  END
