
     RDKit          3D

 30 31  0  0  0  0  0  0  0  0999 V2000
    0.1450   -3.8930    1.1050 N   0  0  0  0  0  0  0  0  0  0  0  0
   -0.5690   -3.1740    0.0810 C   0  0  0  0  0  0  0  0  0  0  0  0
   -0.1100   -3.0620   -1.0820 O   0  0  0  0  0  0  0  0  0  0  0  0
   -1.7920   -2.5740    0.3300 O   0  0  0  0  0  0  0  0  0  0  0  0
   -2.4840   -1.8810   -0.6490 C   0  0  0  0  0  0  0  0  0  0  0  0
   -1.7940   -0.6980   -1.2450 C   0  0  1  0  0  0  0  0  0  0  0  0
   -2.6660   -0.1450   -2.2080 O   0  0  0  0  0  0  0  0  0  0  0  0
   -3.5820    0.6320   -1.5340 C   0  0  0  0  0  0  0  0  0  0  0  0
   -4.7520    0.9790   -1.8910 O   0  0  0  0  0  0  0  0  0  0  0  0
   -3.0170    1.0300   -0.2950 N   0  0  0  0  0  0  0  0  0  0  0  0
   -3.5650    1.8460    0.7510 C   0  0  0  0  0  0  0  0  0  0  0  0
   -3.2670    3.3090    0.5840 C   0  0  0  0  0  0  0  0  0  0  0  0
   -3.8000    3.7940   -0.6330 O   0  0  0  0  0  0  0  0  0  0  0  0
   -3.5230    5.0740   -0.7490 O   0  0  0  0  0  0  0  0  0  0  0  0
   -2.8550    5.3080   -1.8510 O   0  0  0  0  0  0  0  0  0  0  0  0
   -1.7230    0.4500   -0.2670 C   0  0  0  0  0  0  0  0  0  0  0  0
   -0.7400    0.8470    0.4480 N   0  0  0  0  0  0  0  0  0  0  0  0
    0.5370    0.2670    0.4700 C   0  0  0  0  0  0  0  0  0  0  0  0
    1.3250    0.1290   -0.6100 N   0  0  0  0  0  0  0  0  0  0  0  0
    2.5540   -0.4410   -0.5310 C   0  0  0  0  0  0  0  0  0  0  0  0
    3.3040   -0.5680   -1.5790 N   0  0  0  0  0  0  0  0  0  0  0  0
    4.5420   -1.1420   -1.5020 O   0  0  0  0  0  0  0  0  0  0  0  0
    5.5500   -0.7680   -2.3290 O   0  0  0  0  0  0  0  0  0  0  0  0
    3.0370   -0.9030    0.6750 C   0  0  0  0  0  0  0  0  0  0  0  0
    4.2820   -1.4890    0.7970 O   0  0  0  0  0  0  0  0  0  0  0  0
    5.4440   -0.7830    1.0820 C   0  0  0  0  0  0  0  0  0  0  0  0
    5.3590    0.4510    1.2360 O   0  0  0  0  0  0  0  0  0  0  0  0
    6.6730   -1.4060    1.1960 O   0  0  0  0  0  0  0  0  0  0  0  0
    2.2140   -0.7560    1.7810 C   0  0  0  0  0  0  0  0  0  0  0  0
    1.0050   -0.1840    1.6550 N   0  0  0  0  0  0  0  0  0  0  0  0
  1  2  1  0
  2  3  2  0
  2  4  1  0
  4  5  1  0
  6  5  1  1
  6  7  1  0
  6 16  1  0
  7  8  1  0
  8  9  2  0
  8 10  1  0
 10 11  1  0
 10 16  1  0
 11 12  1  0
 12 13  1  0
 13 14  1  0
 14 15  1  0
 16 17  2  3
 17 18  1  0
 18 19  2  0
 18 30  1  0
 19 20  1  0
 20 21  2  3
 20 24  1  0
 21 22  1  0
 22 23  1  0
 24 25  1  0
 24 29  2  0
 25 26  1  0
 26 27  2  0
 26 28  1  0
 29 30  1  0
M  END
