
     RDKit          3D

 31 33  0  0  0  0  0  0  0  0999 V2000
    7.0700   -0.7450   -1.1320 O   0  0  0  0  0  0  0  0  0  0  0  0
    6.1730   -1.3870   -0.5340 C   0  0  0  0  0  0  0  0  0  0  0  0
    5.0900   -0.7470    0.1300 N   0  0  0  0  0  0  0  0  0  0  0  0
    4.1580   -1.6350    0.8060 C   0  0  1  0  0  0  0  0  0  0  0  0
    2.8900   -0.9570    1.1450 C   0  0  0  0  0  0  0  0  0  0  0  0
    2.2750   -1.0670    2.3330 N   0  0  0  0  0  0  0  0  0  0  0  0
    1.1970   -0.3800    2.3620 O   0  0  0  0  0  0  0  0  0  0  0  0
    1.0540    0.2180    1.1860 C   0  0  0  0  0  0  0  0  0  0  0  0
   -0.0710    1.0940    0.8510 C   0  0  1  0  0  0  0  0  0  0  0  0
    0.3140    2.1780   -0.1380 C   0  0  0  0  0  0  0  0  0  0  0  0
   -0.7960    2.9740   -0.4110 O   0  0  0  0  0  0  0  0  0  0  0  0
   -0.4580    4.2320   -1.5200 P   0  0  0  0  0  0  0  0  0  0  0  0
    1.2170    4.6440   -1.3970 O   0  0  0  0  0  0  0  0  0  0  0  0
   -1.4220    5.6280   -1.2110 O   0  0  0  0  0  0  0  0  0  0  0  0
   -1.2790    0.4140    0.4540 N   0  0  0  0  0  0  0  0  0  0  0  0
   -2.4990    0.9320    0.6910 C   0  0  0  0  0  0  0  0  0  0  0  0
   -2.5960    2.0280    1.2690 O   0  0  0  0  0  0  0  0  0  0  0  0
   -3.6520    0.2820    0.3110 C   0  0  0  0  0  0  0  0  0  0  0  0
   -3.5510   -0.9260   -0.3260 C   0  0  0  0  0  0  0  0  0  0  0  0
   -4.7060   -1.6880   -0.7660 C   0  0  0  0  0  0  0  0  0  0  0  0
   -4.5430   -2.8040   -1.3510 O   0  0  0  0  0  0  0  0  0  0  0  0
   -6.0320   -1.2530   -0.5770 N   0  0  0  0  0  0  0  0  0  0  0  0
   -7.0770   -2.0220   -1.0150 O   0  0  0  0  0  0  0  0  0  0  0  0
   -7.5290   -2.7420   -0.0070 O   0  0  0  0  0  0  0  0  0  0  0  0
   -2.3380   -1.3960   -0.5390 O   0  0  0  0  0  0  0  0  0  0  0  0
   -1.2390   -0.7660   -0.1710 C   0  0  0  0  0  0  0  0  0  0  0  0
   -0.1070   -1.2940   -0.4160 O   0  0  0  0  0  0  0  0  0  0  0  0
    2.1220   -0.1440    0.4160 N   0  0  0  0  0  0  0  0  0  0  0  0
    3.9320   -2.8030   -0.1580 C   0  0  0  0  0  0  0  0  0  0  0  0
    5.1050   -3.5130   -0.2320 O   0  0  0  0  0  0  0  0  0  0  0  0
    6.1790   -2.7950   -0.4780 O   0  0  0  0  0  0  0  0  0  0  0  0
  1  2  2  0
  2  3  1  0
  2 31  1  0
  3  4  1  0
  4  5  1  6
  4 29  1  0
  5  6  2  0
  5 28  1  0
  6  7  1  0
  7  8  1  0
  8  9  1  0
  8 28  2  0
  9 10  1  6
  9 15  1  0
 10 11  1  0
 11 12  1  0
 12 13  1  0
 12 14  1  0
 15 16  1  0
 15 26  1  0
 16 17  2  0
 16 18  1  0
 18 19  2  0
 19 20  1  0
 19 25  1  0
 20 21  2  0
 20 22  1  0
 22 23  1  0
 23 24  1  0
 25 26  1  0
 26 27  2  0
 29 30  1  0
 30 31  1  0
M  END
