
     RDKit          3D

 30 31  0  0  0  0  0  0  0  0999 V2000
    3.9990    2.1700   -0.3360 N   0  0  0  0  0  0  0  0  0  0  0  0
    3.1360    2.6920    0.6830 C   0  0  0  0  0  0  0  0  0  0  0  0
    3.4890    3.6530    1.4110 O   0  0  0  0  0  0  0  0  0  0  0  0
    1.7980    2.0890    0.8850 C   0  0  0  0  0  0  0  0  0  0  0  0
    1.6110    0.9810   -0.0830 N   0  0  0  0  0  0  0  0  0  0  0  0
    1.0470    1.2410   -1.3490 C   0  0  0  0  0  0  0  0  0  0  0  0
    1.3330    2.4110   -1.8260 O   0  0  0  0  0  0  0  0  0  0  0  0
    0.2290    0.4380   -2.1760 N   0  0  0  0  0  0  0  0  0  0  0  0
   -1.0240   -0.1410   -1.9200 C   0  0  0  0  0  0  0  0  0  0  0  0
   -1.6600   -0.6740   -2.9040 O   0  0  0  0  0  0  0  0  0  0  0  0
   -1.7310   -0.2170   -0.6070 C   0  0  1  0  0  0  0  0  0  0  0  0
   -2.3830    1.0540   -0.3020 N   0  0  0  0  0  0  0  0  0  0  0  0
   -2.0980    1.7670    0.8590 C   0  0  0  0  0  0  0  0  0  0  0  0
   -1.2530    1.3030    1.6710 O   0  0  0  0  0  0  0  0  0  0  0  0
   -2.7050    2.9930    1.1850 O   0  0  0  0  0  0  0  0  0  0  0  0
   -2.4320    3.6640    2.2850 O   0  0  0  0  0  0  0  0  0  0  0  0
   -3.5350    4.2510    2.6810 O   0  0  0  0  0  0  0  0  0  0  0  0
   -2.8510   -1.2240   -0.6560 C   0  0  0  0  0  0  0  0  0  0  0  0
   -2.4310   -2.6070   -0.2860 C   0  0  0  0  0  0  0  0  0  0  0  0
   -3.2660   -3.4540   -0.1210 O   0  0  0  0  0  0  0  0  0  0  0  0
   -0.9670   -2.8120   -0.1500 C   0  0  0  0  0  0  0  0  0  0  0  0
   -0.5110   -4.1970   -0.1500 C   0  0  0  0  0  0  0  0  0  0  0  0
   -1.3470   -5.1270   -0.2490 O   0  0  0  0  0  0  0  0  0  0  0  0
    0.8240   -4.4720   -0.0430 O   0  0  0  0  0  0  0  0  0  0  0  0
    1.8940   -3.7150   -0.0020 O   0  0  0  0  0  0  0  0  0  0  0  0
    2.1920   -2.4510    0.4470 C   0  0  0  0  0  0  0  0  0  0  0  0
    2.9810   -1.9720    1.4710 C   0  0  0  0  0  0  0  0  0  0  0  0
    2.8710   -0.6360    1.4110 N   0  0  0  0  0  0  0  0  0  0  0  0
    2.0550   -0.2840    0.4010 C   0  0  0  0  0  0  0  0  0  0  0  0
    1.6800   -1.4030   -0.1400 O   0  0  0  0  0  0  0  0  0  0  0  0
  1  2  1  0
  2  3  2  0
  2  4  1  0
  4  5  1  0
  5  6  1  0
  5 29  1  0
  6  7  2  0
  6  8  1  0
  8  9  1  0
  9 10  2  0
  9 11  1  0
 11 12  1  6
 11 18  1  0
 12 13  1  0
 13 14  2  0
 13 15  1  0
 15 16  1  0
 16 17  1  0
 18 19  1  0
 19 20  2  0
 19 21  1  0
 21 22  1  0
 22 23  2  0
 22 24  1  0
 24 25  1  0
 25 26  1  0
 26 27  2  0
 26 30  1  0
 27 28  1  0
 28 29  2  0
 29 30  1  0
M  END
