
     RDKit          3D

 30 30  0  0  0  0  0  0  0  0999 V2000
   -0.8730   -0.2700    0.8520 O   0  0  0  0  0  0  0  0  0  0  0  0
   -1.0100   -0.5960   -0.3540 C   0  0  0  0  0  0  0  0  0  0  0  0
    0.1410   -1.1120   -1.0900 C   0  0  0  0  0  0  0  0  0  0  0  0
    1.3340   -1.1920   -0.3430 N   0  0  0  0  0  0  0  0  0  0  0  0
    2.4500   -1.6860   -1.0330 C   0  0  0  0  0  0  0  0  0  0  0  0
    3.7560   -1.1400   -0.5560 C   0  0  0  0  0  0  0  0  0  0  0  0
    4.7260   -1.1450   -1.3690 O   0  0  0  0  0  0  0  0  0  0  0  0
    4.0840   -0.6010    0.7060 N   0  0  0  0  0  0  0  0  0  0  0  0
    5.2380    0.2140    0.7590 C   0  0  0  0  0  0  0  0  0  0  0  0
    5.6780    0.8090    1.9350 O   0  0  0  0  0  0  0  0  0  0  0  0
    5.9050    0.4120   -0.3170 N   0  0  0  0  0  0  0  0  0  0  0  0
    7.0200    1.1960   -0.2850 O   0  0  0  0  0  0  0  0  0  0  0  0
    8.2080    0.8940   -0.9010 C   0  0  0  0  0  0  0  0  0  0  0  0
    8.3000   -0.1800   -1.5500 O   0  0  0  0  0  0  0  0  0  0  0  0
    9.3360    1.7040   -0.8590 O   0  0  0  0  0  0  0  0  0  0  0  0
    3.3820   -0.7830    1.9520 C   0  0  0  0  0  0  0  0  0  0  0  0
    1.9270   -0.3660    1.6990 C   0  0  0  0  0  0  0  0  0  0  0  0
    1.2650   -1.3240    0.9460 O   0  0  0  0  0  0  0  0  0  0  0  0
   -2.2980   -0.4420   -0.9390 N   0  0  0  0  0  0  0  0  0  0  0  0
   -3.4170    0.0530   -0.2450 C   0  0  0  0  0  0  0  0  0  0  0  0
   -3.2860    0.3830    0.9630 O   0  0  0  0  0  0  0  0  0  0  0  0
   -4.7340    0.1850   -0.9270 C   0  0  2  0  0  0  0  0  0  0  0  0
   -5.7300    0.7300   -0.0250 N   0  0  0  0  0  0  0  0  0  0  0  0
   -6.4430    1.9130   -0.3450 C   0  0  0  0  0  0  0  0  0  0  0  0
   -6.1960    2.4840   -1.4280 O   0  0  0  0  0  0  0  0  0  0  0  0
   -7.4690    2.4970    0.5570 C   0  0  0  0  0  0  0  0  0  0  0  0
   -7.6370    1.7660    1.7120 O   0  0  0  0  0  0  0  0  0  0  0  0
   -5.1660   -1.2070   -1.2920 C   0  0  0  0  0  0  0  0  0  0  0  0
   -6.2040   -1.7350   -0.8550 O   0  0  0  0  0  0  0  0  0  0  0  0
   -4.3410   -1.9040   -2.1600 O   0  0  0  0  0  0  0  0  0  0  0  0
  1  2  2  0
  2  3  1  0
  2 19  1  0
  3  4  1  0
  4  5  1  0
  4 18  1  0
  5  6  1  0
  6  7  2  0
  6  8  1  0
  8  9  1  0
  8 16  1  0
  9 10  1  0
  9 11  2  3
 11 12  1  0
 12 13  1  0
 13 14  2  0
 13 15  1  0
 16 17  1  0
 17 18  1  0
 19 20  1  0
 20 21  2  0
 20 22  1  0
 22 23  1  1
 22 28  1  0
 23 24  1  0
 24 25  2  0
 24 26  1  0
 26 27  1  0
 28 29  2  0
 28 30  1  0
M  END
