
     RDKit          3D

 31 32  0  0  0  0  0  0  0  0999 V2000
   -3.0600   -4.3010   -1.0580 O   0  0  0  0  0  0  0  0  0  0  0  0
   -3.3980   -4.3610    0.1480 C   0  0  0  0  0  0  0  0  0  0  0  0
   -4.5670   -5.0860    0.5040 O   0  0  0  0  0  0  0  0  0  0  0  0
   -2.6400   -3.7320    1.0910 O   0  0  0  0  0  0  0  0  0  0  0  0
   -1.4970   -2.9730    0.9180 C   0  0  0  0  0  0  0  0  0  0  0  0
   -1.5660   -1.6670    0.3240 C   0  0  2  0  0  0  0  0  0  0  0  0
   -2.0250   -1.3670   -1.0690 C   0  0  2  0  0  0  0  0  0  0  0  0
   -1.0230   -1.7960   -2.1050 C   0  0  0  0  0  0  0  0  0  0  0  0
    0.2610   -2.4470   -1.7000 C   0  0  0  0  0  0  0  0  0  0  0  0
    0.7670   -1.6840   -0.4850 C   0  0  0  0  0  0  0  0  0  0  0  0
    1.8860   -1.5910   -0.0220 O   0  0  0  0  0  0  0  0  0  0  0  0
   -0.2600   -0.9920    0.1600 N   0  0  0  0  0  0  0  0  0  0  0  0
   -0.2820    0.3680    0.4750 C   0  0  0  0  0  0  0  0  0  0  0  0
    0.6020    0.9860    0.9600 N   0  0  0  0  0  0  0  0  0  0  0  0
    1.8330    0.6280    1.3360 O   0  0  0  0  0  0  0  0  0  0  0  0
    2.8770    1.3090    0.7090 C   0  0  0  0  0  0  0  0  0  0  0  0
    2.7100    2.1810   -0.1200 O   0  0  0  0  0  0  0  0  0  0  0  0
    4.1530    0.9680    1.0510 N   0  0  0  0  0  0  0  0  0  0  0  0
    5.2060    1.6220    0.4240 C   0  0  0  0  0  0  0  0  0  0  0  0
    5.5830    2.4980   -0.5230 O   0  0  0  0  0  0  0  0  0  0  0  0
    6.2620    1.1330    1.0730 N   0  0  0  0  0  0  0  0  0  0  0  0
    7.4230    1.6430    0.6270 O   0  0  0  0  0  0  0  0  0  0  0  0
   -1.5660    0.9210   -0.0450 N   0  0  0  0  0  0  0  0  0  0  0  0
   -1.9220    2.1150    0.5470 C   0  0  0  0  0  0  0  0  0  0  0  0
   -3.0020    2.6500    0.1460 O   0  0  0  0  0  0  0  0  0  0  0  0
   -1.2410    2.7940    1.5230 O   0  0  0  0  0  0  0  0  0  0  0  0
   -1.7060    3.9710    2.0230 O   0  0  0  0  0  0  0  0  0  0  0  0
   -1.5830    5.1200    1.2670 C   0  0  0  0  0  0  0  0  0  0  0  0
   -1.0410    5.0270    0.1380 O   0  0  0  0  0  0  0  0  0  0  0  0
   -2.0180    6.3740    1.6700 O   0  0  0  0  0  0  0  0  0  0  0  0
   -2.2370    0.1750   -1.0840 C   0  0  0  0  0  0  0  0  0  0  0  0
  1  2  2  0
  2  3  1  0
  2  4  1  0
  4  5  1  0
  6  5  1  6
  6  7  1  0
  6 12  1  0
  7  8  1  6
  7 31  1  0
  8  9  1  0
  9 10  1  0
 10 11  2  0
 10 12  1  0
 12 13  1  0
 13 14  2  3
 13 23  1  0
 14 15  1  0
 15 16  1  0
 16 17  2  0
 16 18  1  0
 18 19  1  0
 19 20  1  0
 19 21  2  3
 21 22  1  0
 23 24  1  0
 23 31  1  0
 24 25  2  0
 24 26  1  0
 26 27  1  0
 27 28  1  0
 28 29  2  0
 28 30  1  0
M  END
