
     RDKit          3D

 13 13  0  0  0  0  0  0  0  0999 V2000
   -1.2710   -0.7980   -0.7920 O   0  0  0  0  0  0  0  0  0  0  0  0
   -1.5070   -0.3640    0.3770 C   0  0  0  0  0  0  0  0  0  0  0  0
   -0.8190   -0.8830    1.5860 C   0  0  0  0  0  0  0  0  0  0  0  0
    0.3610   -2.1740    1.2000 S   0  0  0  0  0  0  0  0  0  0  0  0
    1.7090   -1.5080    0.2400 C   0  0  0  0  0  0  0  0  0  0  0  0
    2.6980   -2.2250   -0.1710 N   0  0  0  0  0  0  0  0  0  0  0  0
    3.7550   -1.6990   -0.9240 N   0  0  0  0  0  0  0  0  0  0  0  0
    3.8240   -0.4620   -1.2660 C   0  0  0  0  0  0  0  0  0  0  0  0
    2.7900    0.4280   -0.8700 N   0  0  0  0  0  0  0  0  0  0  0  0
    1.7330   -0.1260   -0.1100 N   0  0  0  0  0  0  0  0  0  0  0  0
   -2.4600    0.6410    0.4710 O   0  0  0  0  0  0  0  0  0  0  0  0
   -3.1470    1.1740   -0.6470 C   0  0  0  0  0  0  0  0  0  0  0  0
   -4.2780    2.4500   -0.0260 S   0  0  0  0  0  0  0  0  0  0  0  0
  1  2  2  0
  2  3  1  0
  2 11  1  0
  3  4  1  0
  4  5  1  0
  5  6  2  0
  5 10  1  0
  6  7  1  0
  7  8  2  0
  8  9  1  0
  9 10  1  0
 11 12  1  0
 12 13  1  0
M  END
