
     RDKit          3D

 13 13  0  0  0  0  0  0  0  0999 V2000
    3.3580    1.6940   -0.1660 O   0  0  0  0  0  0  0  0  0  0  0  0
    3.6920    0.4020    0.5200 S   0  0  1  0  0  0  0  0  0  0  0  0
    3.9670    0.7090    1.9600 O   0  0  0  0  0  0  0  0  0  0  0  0
    2.3480   -0.7260    0.3940 C   0  0  0  0  0  0  0  0  0  0  0  0
    1.3410   -0.2430   -0.6360 C   0  0  0  0  0  0  0  0  0  0  0  0
    0.1790   -1.1620   -0.7050 N   0  0  0  0  0  0  0  0  0  0  0  0
   -0.8870   -0.5220   -1.4260 C   0  0  0  0  0  0  0  0  0  0  0  0
   -1.9120   -0.0900   -0.3910 C   0  0  0  0  0  0  0  0  0  0  0  0
   -1.7780   -0.3870    0.9370 N   0  0  0  0  0  0  0  0  0  0  0  0
   -2.7610    0.1980    1.5690 N   0  0  0  0  0  0  0  0  0  0  0  0
   -3.4990    0.8340    0.6720 C   0  0  0  0  0  0  0  0  0  0  0  0
   -4.8580    1.7570    0.9500 S   0  0  0  0  0  0  0  0  0  0  0  0
   -2.9740    0.6580   -0.5490 N   0  0  0  0  0  0  0  0  0  0  0  0
  1  2  2  0
  2  3  2  0
  2  4  1  1
  4  5  1  0
  5  6  1  0
  6  7  1  0
  7  8  1  0
  8  9  2  0
  8 13  1  0
  9 10  1  0
 10 11  1  0
 11 12  2  0
 11 13  1  0
M  END
