
     RDKit          3D

 13 13  0  0  0  0  0  0  0  0999 V2000
    3.6960   -0.1910    2.0820 N   0  0  0  0  0  0  0  0  0  0  0  0
    3.1160   -0.1910    0.9490 C   0  0  0  0  0  0  0  0  0  0  0  0
    4.0250    0.3520   -0.4790 S   0  0  0  0  0  0  0  0  0  0  0  0
    1.4290   -0.7180    0.7710 S   0  0  0  0  0  0  0  0  0  0  0  0
    0.9460   -0.5870   -0.9450 C   0  0  0  0  0  0  0  0  0  0  0  0
   -0.4790   -1.0150   -1.1970 C   0  0  0  0  0  0  0  0  0  0  0  0
   -1.4300   -0.2260   -0.4580 N   0  0  0  0  0  0  0  0  0  0  0  0
   -1.8700   -0.5050    0.7580 N   0  0  0  0  0  0  0  0  0  0  0  0
   -2.7530    0.4530    1.1380 C   0  0  0  0  0  0  0  0  0  0  0  0
   -3.3900    0.5500    2.2200 O   0  0  0  0  0  0  0  0  0  0  0  0
   -2.8590    1.3370    0.1400 N   0  0  0  0  0  0  0  0  0  0  0  0
   -2.0420    0.9070   -0.8320 C   0  0  0  0  0  0  0  0  0  0  0  0
   -1.8310    1.4450   -1.9660 O   0  0  0  0  0  0  0  0  0  0  0  0
  1  2  2  0
  2  3  1  0
  2  4  1  0
  4  5  1  0
  5  6  1  0
  6  7  1  0
  7  8  1  0
  7 12  1  0
  8  9  1  0
  9 10  2  0
  9 11  1  0
 11 12  1  0
 12 13  2  0
M  END
