
     RDKit          3D

 42 45  0  0  0  0  0  0  0  0999 V2000
    9.5870   -1.1210   -0.6960 C   0  0  0  0  0  0  0  0  0  0  0  0
    8.4350   -2.1150   -0.7060 C   0  0  0  0  0  0  0  0  0  0  0  0
    7.1210   -1.4010   -0.7780 C   0  0  0  0  0  0  0  0  0  0  0  0
    6.5090   -1.0930   -1.9740 C   0  0  0  0  0  0  0  0  0  0  0  0
    5.3030   -0.4370   -2.0160 C   0  0  0  0  0  0  0  0  0  0  0  0
    4.7530   -0.1630   -3.2240 F   0  0  0  0  0  0  0  0  0  0  0  0
    4.6710   -0.0700   -0.8630 C   0  0  0  0  0  0  0  0  0  0  0  0
    5.2460   -0.3570    0.3510 C   0  0  0  0  0  0  0  0  0  0  0  0
    4.5380    0.0580    1.5840 C   0  0  0  0  0  0  0  0  0  0  0  0
    3.2770    0.7120    1.2880 N   0  0  0  0  0  0  0  0  0  0  0  0
    2.1600   -0.0610    0.9090 C   0  0  0  0  0  0  0  0  0  0  0  0
    2.3020   -1.3050    0.8430 O   0  0  0  0  0  0  0  0  0  0  0  0
    0.8950    0.5830    0.6110 C   0  0  0  0  0  0  0  0  0  0  0  0
    0.8890    1.9250    0.3170 C   0  0  0  0  0  0  0  0  0  0  0  0
   -0.2950    2.5680    0.0380 C   0  0  0  0  0  0  0  0  0  0  0  0
   -1.4680    1.8560    0.0570 C   0  0  0  0  0  0  0  0  0  0  0  0
   -2.6480    2.5340   -0.2290 O   0  0  0  0  0  0  0  0  0  0  0  0
   -2.5910    3.9160   -0.5240 C   0  0  0  0  0  0  0  0  0  0  0  0
   -3.9410    4.4950   -0.8060 C   0  0  0  0  0  0  0  0  0  0  0  0
   -3.8730    5.8410   -1.0870 O   0  0  0  0  0  0  0  0  0  0  0  0
   -3.1150    6.1940   -2.1740 C   0  0  0  0  0  0  0  0  0  0  0  0
   -1.4880    0.4940    0.3520 C   0  0  0  0  0  0  0  0  0  0  0  0
   -2.8130   -0.1830    0.3380 C   0  0  2  0  0  0  0  0  0  0  0  0
   -3.6980    0.3390    1.4120 C   0  0  0  0  0  0  0  0  0  0  0  0
   -5.0890    0.4300    1.2670 C   0  0  0  0  0  0  0  0  0  0  0  0
   -5.8780    0.9310    2.2700 C   0  0  0  0  0  0  0  0  0  0  0  0
   -5.3370    1.3610    3.4470 C   0  0  0  0  0  0  0  0  0  0  0  0
   -6.1300    1.8580    4.4380 F   0  0  0  0  0  0  0  0  0  0  0  0
   -3.9790    1.2880    3.6270 C   0  0  0  0  0  0  0  0  0  0  0  0
   -3.1940    0.7810    2.6080 C   0  0  0  0  0  0  0  0  0  0  0  0
   -2.7660   -1.6420    0.2500 C   0  0  0  0  0  0  0  0  0  0  0  0
   -3.0000   -2.2520   -0.9920 C   0  0  0  0  0  0  0  0  0  0  0  0
   -2.9640   -3.6170   -1.1530 C   0  0  0  0  0  0  0  0  0  0  0  0
   -3.1950   -4.2360   -2.3830 O   0  0  0  0  0  0  0  0  0  0  0  0
   -3.4750   -3.3950   -3.4920 C   0  0  0  0  0  0  0  0  0  0  0  0
   -2.6900   -4.4480   -0.0770 C   0  0  0  0  0  0  0  0  0  0  0  0
   -2.6560   -5.8420   -0.2550 N   0  0  0  0  0  0  0  0  0  0  0  0
   -2.4600   -3.8850    1.1390 C   0  0  0  0  0  0  0  0  0  0  0  0
   -2.4980   -2.4910    1.2990 C   0  0  0  0  0  0  0  0  0  0  0  0
   -2.2640   -1.9270    2.5400 O   0  0  0  0  0  0  0  0  0  0  0  0
   -0.3050   -0.1260    0.6260 C   0  0  0  0  0  0  0  0  0  0  0  0
    6.4530   -1.0140    0.3750 C   0  0  0  0  0  0  0  0  0  0  0  0
  1  2  1  0
  2  3  1  0
  3  4  2  0
  3 42  1  0
  4  5  1  0
  5  6  1  0
  5  7  2  0
  7  8  1  0
  8  9  1  0
  8 42  2  0
  9 10  1  0
 10 11  1  0
 11 12  2  0
 11 13  1  0
 13 14  2  0
 13 41  1  0
 14 15  1  0
 15 16  2  0
 16 17  1  0
 16 22  1  0
 17 18  1  0
 18 19  1  0
 19 20  1  0
 20 21  1  0
 23 22  1  1
 22 41  2  0
 23 24  1  0
 23 31  1  0
 24 25  2  0
 24 30  1  0
 25 26  1  0
 26 27  2  0
 27 28  1  0
 27 29  1  0
 29 30  2  0
 31 32  2  0
 31 39  1  0
 32 33  1  0
 33 34  1  0
 33 36  2  0
 34 35  1  0
 36 37  1  0
 36 38  1  0
 38 39  2  0
 39 40  1  0
M  END
