
     RDKit          3D

 42 45  0  0  0  0  0  0  0  0999 V2000
   -6.9240   -0.8060    1.8540 C   0  0  0  0  0  0  0  0  0  0  0  0
   -7.2400   -0.8610    0.4160 C   0  0  0  0  0  0  0  0  0  0  0  0
   -8.5290   -0.5890   -0.0000 C   0  0  0  0  0  0  0  0  0  0  0  0
   -8.8540   -0.6340   -1.3470 C   0  0  0  0  0  0  0  0  0  0  0  0
   -7.9150   -0.9460   -2.3000 C   0  0  0  0  0  0  0  0  0  0  0  0
   -8.2060   -0.9990   -3.6370 F   0  0  0  0  0  0  0  0  0  0  0  0
   -6.6420   -1.2120   -1.8530 C   0  0  0  0  0  0  0  0  0  0  0  0
   -6.2880   -1.1750   -0.5090 C   0  0  0  0  0  0  0  0  0  0  0  0
   -4.9040   -1.4740   -0.1000 C   0  0  0  0  0  0  0  0  0  0  0  0
   -3.8660   -0.8860   -0.7860 C   0  0  0  0  0  0  0  0  0  0  0  0
   -2.5250   -1.1360   -0.4470 C   0  0  0  0  0  0  0  0  0  0  0  0
   -2.2090   -1.9740    0.5820 C   0  0  0  0  0  0  0  0  0  0  0  0
   -0.8230   -2.2950    0.9250 C   0  0  0  0  0  0  0  0  0  0  0  0
    0.0810   -1.5310    0.1780 O   0  0  0  0  0  0  0  0  0  0  0  0
    0.1660   -0.1400    0.3360 C   0  0  0  0  0  0  0  0  0  0  0  0
   -0.6000    0.5700    1.2310 C   0  0  0  0  0  0  0  0  0  0  0  0
   -0.4610    1.9380    1.3270 C   0  0  0  0  0  0  0  0  0  0  0  0
    0.4260    2.6180    0.5500 C   0  0  0  0  0  0  0  0  0  0  0  0
    0.5680    4.0780    0.6570 C   0  0  0  0  0  0  0  0  0  0  0  0
   -0.4970    4.8870    0.9840 C   0  0  0  0  0  0  0  0  0  0  0  0
   -0.3560    6.2710    1.0840 C   0  0  0  0  0  0  0  0  0  0  0  0
    0.8820    6.8400    0.8480 C   0  0  0  0  0  0  0  0  0  0  0  0
    1.9670    6.0380    0.5170 C   0  0  0  0  0  0  0  0  0  0  0  0
    1.7860    4.6640    0.4270 C   0  0  0  0  0  0  0  0  0  0  0  0
    1.1960    1.9090   -0.3480 C   0  0  0  0  0  0  0  0  0  0  0  0
    1.0770    0.5510   -0.4620 C   0  0  0  0  0  0  0  0  0  0  0  0
    1.8460   -0.1450   -1.3550 O   0  0  0  0  0  0  0  0  0  0  0  0
    2.7850    0.5280   -2.1690 C   0  0  0  0  0  0  0  0  0  0  0  0
    3.4440   -0.5460   -3.0150 C   0  0  1  0  0  0  0  0  0  0  0  0
    4.4000    0.0450   -3.8170 O   0  0  0  0  0  0  0  0  0  0  0  0
    3.9590   -1.6580   -2.1440 C   0  0  0  0  0  0  0  0  0  0  0  0
    4.9710   -1.1580   -1.1990 C   0  0  0  0  0  0  0  0  0  0  0  0
    5.4030   -0.0080   -1.2810 O   0  0  0  0  0  0  0  0  0  0  0  0
    5.4660   -2.0180   -0.1650 N   0  0  0  0  0  0  0  0  0  0  0  0
    6.4490   -1.6330    0.8080 C   0  0  1  0  0  0  0  0  0  0  0  0
    5.7230   -1.5560    2.1630 C   0  0  0  0  0  0  0  0  0  0  0  0
    7.5250   -2.6470    0.8730 C   0  0  0  0  0  0  0  0  0  0  0  0
    7.5160   -3.6690    0.0620 N   0  0  0  0  0  0  0  0  0  0  0  0
    8.5740   -2.5400    1.7980 O   0  0  0  0  0  0  0  0  0  0  0  0
   -3.2810   -2.5650    1.2700 C   0  0  0  0  0  0  0  0  0  0  0  0
   -2.9800   -3.4040    2.2970 F   0  0  0  0  0  0  0  0  0  0  0  0
   -4.5850   -2.3170    0.9330 C   0  0  0  0  0  0  0  0  0  0  0  0
  1  2  1  0
  2  3  2  0
  2  8  1  0
  3  4  1  0
  4  5  2  0
  5  6  1  0
  5  7  1  0
  7  8  2  0
  8  9  1  0
  9 10  2  0
  9 42  1  0
 10 11  1  0
 11 12  2  0
 12 13  1  0
 12 40  1  0
 13 14  1  0
 14 15  1  0
 15 16  2  0
 15 26  1  0
 16 17  1  0
 17 18  2  0
 18 19  1  0
 18 25  1  0
 19 20  2  0
 19 24  1  0
 20 21  1  0
 21 22  2  0
 22 23  1  0
 23 24  2  0
 25 26  2  0
 26 27  1  0
 27 28  1  0
 28 29  1  0
 29 30  1  1
 29 31  1  0
 31 32  1  0
 32 33  2  0
 32 34  1  0
 34 35  1  0
 35 36  1  1
 35 37  1  0
 37 38  2  0
 37 39  1  0
 40 41  1  0
 40 42  2  0
M  END
