
     RDKit          3D

 42 45  0  0  0  0  0  0  0  0999 V2000
   -6.0490    6.7900   -0.4340 C   0  0  0  0  0  0  0  0  0  0  0  0
   -5.3280    5.5130   -0.1460 C   0  0  0  0  0  0  0  0  0  0  0  0
   -5.7900    4.3870   -0.6170 C   0  0  0  0  0  0  0  0  0  0  0  0
   -5.1920    3.0840   -0.4140 C   0  0  0  0  0  0  0  0  0  0  0  0
   -4.0390    2.9240    0.3280 C   0  0  0  0  0  0  0  0  0  0  0  0
   -3.4800    1.6750    0.5140 C   0  0  0  0  0  0  0  0  0  0  0  0
   -4.0240    0.5300   -0.0180 C   0  0  0  0  0  0  0  0  0  0  0  0
   -3.4690   -0.7990    0.1560 C   0  0  0  0  0  0  0  0  0  0  0  0
   -4.0020   -1.7590   -0.4500 O   0  0  0  0  0  0  0  0  0  0  0  0
   -2.3290   -1.0390    1.0000 N   0  0  0  0  0  0  0  0  0  0  0  0
   -1.8600   -2.4060    1.0970 C   0  0  2  0  0  0  0  0  0  0  0  0
   -1.7380   -2.6830    2.6020 C   0  0  0  0  0  0  0  0  0  0  0  0
   -0.4350   -2.5490    0.5890 C   0  0  0  0  0  0  0  0  0  0  0  0
    0.0810   -1.4590    0.0900 C   0  0  0  0  0  0  0  0  0  0  0  0
    1.4310   -1.3360   -0.4780 C   0  0  0  0  0  0  0  0  0  0  0  0
    2.0830   -2.2800   -1.2820 C   0  0  0  0  0  0  0  0  0  0  0  0
    3.3200   -1.7510   -1.5830 C   0  0  0  0  0  0  0  0  0  0  0  0
    3.3920   -0.5220   -0.9670 C   0  0  0  0  0  0  0  0  0  0  0  0
    4.5890    0.3860   -1.0470 C   0  0  0  0  0  0  0  0  0  0  0  0
    4.2780    1.6690   -0.5620 O   0  0  0  0  0  0  0  0  0  0  0  0
    5.2040    2.6880   -0.5270 C   0  0  0  0  0  0  0  0  0  0  0  0
    6.5170    2.5490   -0.9600 C   0  0  0  0  0  0  0  0  0  0  0  0
    7.3770    3.6270   -0.8890 C   0  0  0  0  0  0  0  0  0  0  0  0
    6.9820    4.8550   -0.3980 C   0  0  0  0  0  0  0  0  0  0  0  0
    5.6670    5.0060    0.0380 C   0  0  0  0  0  0  0  0  0  0  0  0
    5.2590    6.2820    0.5460 N   0  0  0  0  0  0  0  0  0  0  0  0
    4.8250    3.9220   -0.0400 C   0  0  0  0  0  0  0  0  0  0  0  0
    2.2750   -0.3480   -0.3510 O   0  0  0  0  0  0  0  0  0  0  0  0
    0.2720   -3.7820    0.8150 C   0  0  0  0  0  0  0  0  0  0  0  0
   -0.3700   -4.9670    0.4550 C   0  0  0  0  0  0  0  0  0  0  0  0
   -1.6020   -4.9390   -0.1640 O   0  0  0  0  0  0  0  0  0  0  0  0
   -2.2440   -6.1270   -0.5250 C   0  0  0  0  0  0  0  0  0  0  0  0
    0.1880   -6.1940    0.6920 C   0  0  0  0  0  0  0  0  0  0  0  0
    1.4100   -6.3110    1.2990 C   0  0  0  0  0  0  0  0  0  0  0  0
    2.0450   -5.1490    1.6600 C   0  0  0  0  0  0  0  0  0  0  0  0
    1.4750   -3.8710    1.4210 C   0  0  0  0  0  0  0  0  0  0  0  0
    2.1870   -2.7410    2.0220 C   0  0  1  0  0  0  0  0  0  0  0  0
    2.3910   -3.0920    3.3900 F   0  0  0  0  0  0  0  0  0  0  0  0
    3.4840   -2.5770    1.5600 F   0  0  0  0  0  0  0  0  0  0  0  0
   -5.1800    0.7090   -0.7600 C   0  0  0  0  0  0  0  0  0  0  0  0
   -5.7600    1.9360   -0.9630 C   0  0  0  0  0  0  0  0  0  0  0  0
   -6.9020    2.0490   -1.7050 O   0  0  0  0  0  0  0  0  0  0  0  0
  1  2  1  0
  2  3  2  3
  3  4  1  0
  4  5  2  0
  4 41  1  0
  5  6  1  0
  6  7  2  0
  7  8  1  0
  7 40  1  0
  8  9  2  0
  8 10  1  0
 10 11  1  0
 11 12  1  1
 11 13  1  0
 13 14  2  3
 13 29  1  0
 14 15  1  0
 15 16  2  0
 15 28  1  0
 16 17  1  0
 17 18  2  0
 18 19  1  0
 18 28  1  0
 19 20  1  0
 20 21  1  0
 21 22  2  0
 21 27  1  0
 22 23  1  0
 23 24  2  0
 24 25  1  0
 25 26  1  0
 25 27  2  0
 29 30  2  0
 29 36  1  0
 30 31  1  0
 30 33  1  0
 31 32  1  0
 33 34  2  0
 34 35  1  0
 35 36  2  0
 36 37  1  0
 37 38  1  1
 37 39  1  0
 40 41  2  0
 41 42  1  0
M  END
