
     RDKit          3D

 42 45  0  0  0  0  0  0  0  0999 V2000
   -9.3230    3.4640    0.9430 C   0  0  0  0  0  0  0  0  0  0  0  0
   -7.9930    2.9820    0.9130 O   0  0  0  0  0  0  0  0  0  0  0  0
   -7.7360    1.6250    0.6570 C   0  0  0  0  0  0  0  0  0  0  0  0
   -8.7450    0.7470    0.4350 C   0  0  0  0  0  0  0  0  0  0  0  0
   -8.4620   -0.5660    0.1890 C   0  0  0  0  0  0  0  0  0  0  0  0
   -7.1370   -0.9730    0.1730 C   0  0  0  0  0  0  0  0  0  0  0  0
   -6.8740   -2.3000   -0.0890 C   0  0  0  0  0  0  0  0  0  0  0  0
   -5.5720   -2.7180   -0.1180 C   0  0  0  0  0  0  0  0  0  0  0  0
   -4.5360   -1.8290    0.1090 C   0  0  0  0  0  0  0  0  0  0  0  0
   -4.7430   -0.4890    0.3740 C   0  0  0  0  0  0  0  0  0  0  0  0
   -3.6860    0.4800    0.5450 C   0  0  0  0  0  0  0  0  0  0  0  0
   -2.4860    0.6290    0.1590 C   0  0  0  0  0  0  0  0  0  0  0  0
   -1.5220   -0.0570   -0.6590 C   0  0  0  0  0  0  0  0  0  0  0  0
   -1.8310   -0.9880   -1.6130 C   0  0  0  0  0  0  0  0  0  0  0  0
   -0.8330   -1.6420   -2.2970 C   0  0  0  0  0  0  0  0  0  0  0  0
    0.4860   -1.3740   -2.0390 C   0  0  0  0  0  0  0  0  0  0  0  0
    0.8600   -0.4510   -1.0950 C   0  0  0  0  0  0  0  0  0  0  0  0
    2.2520   -0.1590   -0.8430 C   0  0  2  0  0  0  0  0  0  0  0  0
    3.0070   -0.2180   -2.0540 O   0  0  0  0  0  0  0  0  0  0  0  0
    3.0190   -0.8180    0.2160 C   0  0  2  0  0  0  0  0  0  0  0  0
    3.1320   -2.3030    0.1530 C   0  0  0  0  0  0  0  0  0  0  0  0
    4.1750   -2.8920   -0.3890 C   0  0  0  0  0  0  0  0  0  0  0  0
    4.5150   -4.2640   -0.5660 C   0  0  0  0  0  0  0  0  0  0  0  0
    3.8320   -5.5030   -0.2000 C   0  0  0  0  0  0  0  0  0  0  0  0
    5.6590   -4.4700   -1.1710 O   0  0  0  0  0  0  0  0  0  0  0  0
    2.0370   -3.1610    0.6970 C   0  0  2  0  0  0  0  0  0  0  0  0
    0.8020   -2.5770    0.7130 F   0  0  0  0  0  0  0  0  0  0  0  0
    2.3540   -3.5100    1.9990 F   0  0  0  0  0  0  0  0  0  0  0  0
    2.5450   -0.4220    1.6250 C   0  0  0  0  0  0  0  0  0  0  0  0
    3.7730   -0.4610    2.5110 C   0  0  0  0  0  0  0  0  0  0  0  0
    4.9690   -0.6920    1.5940 C   0  0  0  0  0  0  0  0  0  0  0  0
    4.4020   -0.2100    0.2620 C   0  0  2  0  0  0  0  0  0  0  0  0
    4.3100    1.2560    0.4340 N   0  0  0  0  0  0  0  0  0  0  0  0
    4.8970    2.1610   -0.4670 C   0  0  0  0  0  0  0  0  0  0  0  0
    5.5240    1.6920   -1.4580 O   0  0  0  0  0  0  0  0  0  0  0  0
    4.8340    3.5690   -0.3420 N   0  0  0  0  0  0  0  0  0  0  0  0
    5.4530    4.4750   -1.2930 C   0  0  0  0  0  0  0  0  0  0  0  0
    5.2460    5.9090   -0.9420 C   0  0  0  0  0  0  0  0  0  0  0  0
    5.7740    6.2150    0.2910 O   0  0  0  0  0  0  0  0  0  0  0  0
   -0.1500    0.1910   -0.4230 C   0  0  0  0  0  0  0  0  0  0  0  0
   -6.0910   -0.0730    0.4020 C   0  0  0  0  0  0  0  0  0  0  0  0
   -6.3900    1.2360    0.6450 C   0  0  0  0  0  0  0  0  0  0  0  0
  1  2  1  0
  2  3  1  0
  3  4  2  0
  3 42  1  0
  4  5  1  0
  5  6  2  0
  6  7  1  0
  6 41  1  0
  7  8  2  0
  8  9  1  0
  9 10  2  0
 10 11  1  0
 10 41  1  0
 11 12  2  3
 12 13  1  0
 13 14  2  0
 13 40  1  0
 14 15  1  0
 15 16  2  0
 16 17  1  0
 17 18  1  0
 17 40  2  0
 18 19  1  6
 18 20  1  0
 20 21  1  6
 20 29  1  0
 20 32  1  0
 21 22  2  3
 21 26  1  0
 22 23  1  0
 23 24  1  0
 23 25  2  0
 26 27  1  1
 26 28  1  0
 29 30  1  0
 30 31  1  0
 31 32  1  0
 32 33  1  1
 33 34  1  0
 34 35  2  0
 34 36  1  0
 36 37  1  0
 37 38  1  0
 38 39  1  0
 41 42  2  0
M  END
