
     RDKit          3D

 19 20  0  0  0  0  0  0  0  0999 V2000
   -3.7860    1.9100   -0.1660 C   0  0  0  0  0  0  0  0  0  0  0  0
   -2.6970    1.7160   -1.1730 C   0  0  0  0  0  0  0  0  0  0  0  0
   -1.3580    1.4240   -0.6060 C   0  0  0  0  0  0  0  0  0  0  0  0
   -1.3420    0.1700    0.1860 C   0  0  0  0  0  0  0  0  0  0  0  0
   -0.7070   -0.9160   -0.2970 C   0  0  0  0  0  0  0  0  0  0  0  0
   -0.1040   -0.7380   -1.5440 O   0  0  0  0  0  0  0  0  0  0  0  0
    1.2090   -1.1760   -1.8100 C   0  0  0  0  0  0  0  0  0  0  0  0
    2.1720   -0.5170   -0.9070 C   0  0  0  0  0  0  0  0  0  0  0  0
    2.9440   -1.2100   -0.0730 C   0  0  0  0  0  0  0  0  0  0  0  0
    3.9250   -0.5690    0.8490 C   0  0  0  0  0  0  0  0  0  0  0  0
    3.3400    1.0490    1.3760 S   0  0  0  0  0  0  0  0  0  0  0  0
    4.4100    2.0960    1.0480 O   0  0  0  0  0  0  0  0  0  0  0  0
    1.9820    1.4210    0.3900 O   0  0  0  0  0  0  0  0  0  0  0  0
    2.3170    0.9690   -0.8960 C   0  0  0  0  0  0  0  0  0  0  0  0
   -0.6320   -2.2070    0.4070 C   0  0  0  0  0  0  0  0  0  0  0  0
   -1.2350   -2.1990    1.7070 N   0  0  0  0  0  0  0  0  0  0  0  0
   -1.8980   -1.0850    2.2310 C   0  0  0  0  0  0  0  0  0  0  0  0
   -2.4500   -1.0970    3.3550 O   0  0  0  0  0  0  0  0  0  0  0  0
   -1.9570    0.1280    1.4600 N   0  0  0  0  0  0  0  0  0  0  0  0
  1  2  1  0
  2  3  1  0
  3  4  1  0
  4  5  2  0
  4 19  1  0
  5  6  1  0
  5 15  1  0
  6  7  1  0
  7  8  1  0
  8  9  2  0
  8 14  1  0
  9 10  1  0
 11 10  1  6
 11 12  2  0
 11 13  1  0
 13 14  1  0
 15 16  1  0
 16 17  1  0
 17 18  2  0
 17 19  1  0
M  END
