
     RDKit          3D

 19 20  0  0  0  0  0  0  0  0999 V2000
    3.0010   -0.4900   -2.4690 O   0  0  0  0  0  0  0  0  0  0  0  0
    1.9310   -0.3510   -1.8320 C   0  0  0  0  0  0  0  0  0  0  0  0
    0.6310   -0.3760   -2.4500 C   0  0  0  0  0  0  0  0  0  0  0  0
   -0.4440   -0.1230   -1.5570 O   0  0  0  0  0  0  0  0  0  0  0  0
   -0.6210    1.0360   -0.8610 C   0  0  0  0  0  0  0  0  0  0  0  0
    0.2230    1.9590   -1.0170 O   0  0  0  0  0  0  0  0  0  0  0  0
   -1.7310    1.3100    0.0750 C   0  0  0  0  0  0  0  0  0  0  0  0
   -2.6930    0.1740    0.2130 C   0  0  1  0  0  0  0  0  0  0  0  0
   -2.1230   -0.9880    0.6760 O   0  0  0  0  0  0  0  0  0  0  0  0
   -3.7580    0.6040    1.2160 C   0  0  0  0  0  0  0  0  0  0  0  0
   -4.6440   -0.6340    1.4130 C   0  0  0  0  0  0  0  0  0  0  0  0
   -4.8260   -1.1430   -0.3450 S   0  0  0  0  0  0  0  0  0  0  0  0
   -3.4810   -0.1010   -1.0480 C   0  0  0  0  0  0  0  0  0  0  0  0
    2.2200   -0.1760   -0.4920 N   0  0  0  0  0  0  0  0  0  0  0  0
    3.5340   -0.2230    0.0730 C   0  0  0  0  0  0  0  0  0  0  0  0
    3.5820    0.4110    1.1590 N   0  0  0  0  0  0  0  0  0  0  0  0
    4.8880    0.3530    1.7210 C   0  0  0  0  0  0  0  0  0  0  0  0
    5.6520   -0.5630    0.8480 C   0  0  0  0  0  0  0  0  0  0  0  0
    4.8130   -0.8540   -0.1080 C   0  0  0  0  0  0  0  0  0  0  0  0
  1  2  2  0
  2  3  1  0
  2 14  1  0
  3  4  1  0
  4  5  1  0
  5  6  2  0
  5  7  1  0
  7  8  1  0
  8  9  1  1
  8 10  1  0
  8 13  1  0
 10 11  1  0
 11 12  1  0
 12 13  1  0
 14 15  1  0
 15 16  2  0
 15 19  1  0
 16 17  1  0
 17 18  1  0
 18 19  2  0
M  END
