
     RDKit          3D

 37 40  0  0  0  0  0  0  0  0999 V2000
    7.9950   -0.0520   -3.0860 C   0  0  0  0  0  0  0  0  0  0  0  0
    6.7900   -0.7040   -3.0690 O   0  0  0  0  0  0  0  0  0  0  0  0
    5.8430   -0.2760   -2.2080 C   0  0  0  0  0  0  0  0  0  0  0  0
    6.0400   -0.4740   -0.7770 C   0  0  0  0  0  0  0  0  0  0  0  0
    7.0870   -1.1910   -0.2820 C   0  0  0  0  0  0  0  0  0  0  0  0
    7.2460   -1.4180    1.0850 C   0  0  0  0  0  0  0  0  0  0  0  0
    8.3860   -2.1870    1.5570 C   0  0  0  0  0  0  0  0  0  0  0  0
    8.5530   -2.3910    2.7990 O   0  0  0  0  0  0  0  0  0  0  0  0
    6.3470   -0.9250    1.9840 C   0  0  0  0  0  0  0  0  0  0  0  0
    6.4440   -1.1210    3.4530 C   0  0  0  0  0  0  0  0  0  0  0  0
    5.2730   -0.1910    1.4710 C   0  0  0  0  0  0  0  0  0  0  0  0
    5.0840    0.0520    0.1380 C   0  0  0  0  0  0  0  0  0  0  0  0
    4.0650    0.7590   -0.4150 O   0  0  0  0  0  0  0  0  0  0  0  0
    2.9870    1.3700    0.1500 C   0  0  0  0  0  0  0  0  0  0  0  0
    1.9850    0.4470    0.8320 C   0  0  2  0  0  0  0  0  0  0  0  0
    1.4720   -0.5020   -0.2250 C   0  0  0  0  0  0  0  0  0  0  0  0
    0.0250   -0.6570    0.1020 C   0  0  0  0  0  0  0  0  0  0  0  0
   -0.3660    0.6270    0.6950 N   0  0  0  0  0  0  0  0  0  0  0  0
   -1.6770    1.1730    0.6680 C   0  0  0  0  0  0  0  0  0  0  0  0
   -1.9200    2.2920    1.2150 O   0  0  0  0  0  0  0  0  0  0  0  0
   -2.7790    0.5330    0.0460 N   0  0  0  0  0  0  0  0  0  0  0  0
   -4.1100    1.1020    0.0250 C   0  0  2  0  0  0  0  0  0  0  0  0
   -5.1820    0.1580    0.3440 C   0  0  0  0  0  0  0  0  0  0  0  0
   -5.3340   -0.9050    1.2410 C   0  0  0  0  0  0  0  0  0  0  0  0
   -6.4870   -1.6390    1.3300 C   0  0  0  0  0  0  0  0  0  0  0  0
   -7.5610   -1.3360    0.5130 C   0  0  0  0  0  0  0  0  0  0  0  0
   -9.0650   -2.2850    0.6210 S   0  0  0  0  0  0  0  0  0  0  0  0
  -10.1170   -1.4980    1.8510 C   0  0  0  0  0  0  0  0  0  0  0  0
   -9.8210   -2.2810   -0.6970 O   0  0  0  0  0  0  0  0  0  0  0  0
   -7.4150   -0.2910   -0.3690 C   0  0  0  0  0  0  0  0  0  0  0  0
   -8.4520    0.0400   -1.1930 F   0  0  0  0  0  0  0  0  0  0  0  0
   -6.2580    0.4510   -0.4650 C   0  0  0  0  0  0  0  0  0  0  0  0
   -5.9140    1.6120   -1.3530 C   0  0  0  0  0  0  0  0  0  0  0  0
   -4.4020    1.4490   -1.4270 C   0  0  1  0  0  0  0  0  0  0  0  0
   -3.7160    2.7040   -1.8630 C   0  0  0  0  0  0  0  0  0  0  0  0
   -4.0450    2.9260   -3.1950 O   0  0  0  0  0  0  0  0  0  0  0  0
    0.7900    1.2270    1.2930 C   0  0  0  0  0  0  0  0  0  0  0  0
  1  2  1  0
  2  3  1  0
  3  4  1  0
  4  5  2  0
  4 12  1  0
  5  6  1  0
  6  7  1  0
  6  9  2  0
  7  8  2  0
  9 10  1  0
  9 11  1  0
 11 12  2  0
 12 13  1  0
 13 14  1  0
 15 14  1  6
 15 16  1  0
 15 37  1  0
 16 17  1  0
 17 18  1  0
 18 19  1  0
 18 37  1  0
 19 20  2  0
 19 21  1  0
 22 21  1  6
 22 23  1  0
 22 34  1  0
 23 24  2  0
 23 32  1  0
 24 25  1  0
 25 26  2  0
 26 27  1  0
 26 30  1  0
 27 28  1  1
 27 29  2  0
 30 31  1  0
 30 32  2  0
 32 33  1  0
 33 34  1  0
 34 35  1  1
 35 36  1  0
M  END
