
     RDKit          3D

 37 40  0  0  0  0  0  0  0  0999 V2000
   -1.5090    5.3470    0.0320 C   0  0  0  0  0  0  0  0  0  0  0  0
   -1.7840    3.8910   -0.2820 C   0  0  0  0  0  0  0  0  0  0  0  0
   -2.8120    3.2910    0.6070 C   0  0  0  0  0  0  0  0  0  0  0  0
   -3.1390    1.8590    0.3980 C   0  0  0  0  0  0  0  0  0  0  0  0
   -2.1300    0.8160    0.6810 C   0  0  1  0  0  0  0  0  0  0  0  0
   -2.6970   -0.5590    0.3450 C   0  0  2  0  0  0  0  0  0  0  0  0
   -2.3530   -1.5100    1.4390 C   0  0  0  0  0  0  0  0  0  0  0  0
   -1.2890   -2.5130    1.1230 C   0  0  0  0  0  0  0  0  0  0  0  0
   -1.3450   -2.9470   -0.3080 C   0  0  0  0  0  0  0  0  0  0  0  0
   -2.3600   -2.4170   -1.0310 O   0  0  0  0  0  0  0  0  0  0  0  0
   -2.4870   -1.0280   -1.0380 C   0  0  1  0  0  0  0  0  0  0  0  0
   -3.6920   -0.8240   -1.9690 C   0  0  0  0  0  0  0  0  0  0  0  0
   -4.9190   -1.5370   -1.5110 C   0  0  0  0  0  0  0  0  0  0  0  0
   -5.9260   -1.2580   -2.4680 O   0  0  0  0  0  0  0  0  0  0  0  0
   -1.3260   -0.3750   -1.7470 C   0  0  0  0  0  0  0  0  0  0  0  0
   -0.3170    0.2010   -0.8190 C   0  0  0  0  0  0  0  0  0  0  0  0
   -0.8110    0.9240    0.2980 N   0  0  0  0  0  0  0  0  0  0  0  0
    0.3450    1.3950    1.4300 S   0  0  1  0  0  0  0  0  0  0  0  0
    1.3650    2.2870    0.7850 O   0  0  0  0  0  0  0  0  0  0  0  0
   -0.2690    2.2430    2.5400 O   0  0  0  0  0  0  0  0  0  0  0  0
    1.2200    0.1200    2.2280 C   0  0  0  0  0  0  0  0  0  0  0  0
    2.2940   -0.4710    1.7600 C   0  0  0  0  0  0  0  0  0  0  0  0
    2.9680   -0.2040    0.5190 C   0  0  0  0  0  0  0  0  0  0  0  0
    4.0480   -0.8280    0.1000 C   0  0  0  0  0  0  0  0  0  0  0  0
    4.8320   -1.8940    0.7090 C   0  0  0  0  0  0  0  0  0  0  0  0
    4.6210   -2.4480    1.7980 O   0  0  0  0  0  0  0  0  0  0  0  0
    5.9140   -2.2100   -0.1720 N   0  0  0  0  0  0  0  0  0  0  0  0
    5.8000   -1.3590   -1.3010 C   0  0  0  0  0  0  0  0  0  0  0  0
    6.6060   -1.2720   -2.4390 C   0  0  0  0  0  0  0  0  0  0  0  0
    6.3120   -0.3600   -3.4310 C   0  0  0  0  0  0  0  0  0  0  0  0
    7.1030   -0.2770   -4.5450 F   0  0  0  0  0  0  0  0  0  0  0  0
    5.2180    0.4820   -3.3180 C   0  0  0  0  0  0  0  0  0  0  0  0
    4.4490    0.3770   -2.1990 C   0  0  0  0  0  0  0  0  0  0  0  0
    4.7110   -0.5310   -1.1720 C   0  0  0  0  0  0  0  0  0  0  0  0
    0.7290   -0.3690    3.5420 C   0  0  0  0  0  0  0  0  0  0  0  0
    1.4050   -1.4680    4.2700 C   0  0  0  0  0  0  0  0  0  0  0  0
   -0.2730    0.1700    4.0230 O   0  0  0  0  0  0  0  0  0  0  0  0
  1  2  1  0
  2  3  1  0
  3  4  1  0
  5  4  1  6
  5  6  1  0
  5 17  1  0
  6  7  1  1
  6 11  1  0
  7  8  1  0
  8  9  1  0
  9 10  1  0
 10 11  1  0
 11 12  1  6
 11 15  1  0
 12 13  1  0
 13 14  1  0
 15 16  1  0
 16 17  1  0
 18 17  1  6
 18 19  2  0
 18 20  2  0
 18 21  1  0
 21 22  2  3
 21 35  1  0
 22 23  1  0
 23 24  2  3
 24 25  1  0
 24 34  1  0
 25 26  2  0
 25 27  1  0
 27 28  1  0
 28 29  2  0
 28 34  1  0
 29 30  1  0
 30 31  1  0
 30 32  2  0
 32 33  1  0
 33 34  2  0
 35 36  1  0
 35 37  2  0
M  END
