
     RDKit          3D

 37 40  0  0  0  0  0  0  0  0999 V2000
   -7.0280   -0.6310    5.6000 C   0  0  0  0  0  0  0  0  0  0  0  0
   -5.7190   -0.9510    5.1930 O   0  0  0  0  0  0  0  0  0  0  0  0
   -5.2400   -0.4800    3.9670 C   0  0  0  0  0  0  0  0  0  0  0  0
   -6.0740    0.2840    3.1970 C   0  0  0  0  0  0  0  0  0  0  0  0
   -5.5840    0.7330    2.0000 C   0  0  0  0  0  0  0  0  0  0  0  0
   -4.2920    0.4680    1.5010 C   0  0  0  0  0  0  0  0  0  0  0  0
   -3.4380   -0.3130    2.2930 C   0  0  0  0  0  0  0  0  0  0  0  0
   -3.9900   -0.7520    3.5180 C   0  0  0  0  0  0  0  0  0  0  0  0
   -2.0580   -0.6370    2.0340 C   0  0  0  0  0  0  0  0  0  0  0  0
   -1.0470   -0.2000    1.3460 C   0  0  0  0  0  0  0  0  0  0  0  0
    0.2120   -1.0240    1.5290 N   0  0  0  0  0  0  0  0  0  0  0  0
    1.3490   -0.4020    2.0940 C   0  0  0  0  0  0  0  0  0  0  0  0
    1.3220    0.8070    2.4420 O   0  0  0  0  0  0  0  0  0  0  0  0
    2.6230   -1.1460    2.3040 C   0  0  2  0  0  0  0  0  0  0  0  0
    3.6340   -0.2130    2.9140 C   0  0  0  0  0  0  0  0  0  0  0  0
    3.1980   -1.9210    0.7990 S   0  0  0  0  0  0  0  0  0  0  0  0
    3.6600   -0.6770   -0.4000 C   0  0  1  0  0  0  0  0  0  0  0  0
    4.8680    0.1370   -0.0200 C   0  0  0  0  0  0  0  0  0  0  0  0
    5.5160    0.5520   -1.3400 C   0  0  0  0  0  0  0  0  0  0  0  0
    4.6640   -0.0410   -2.4200 C   0  0  1  0  0  0  0  0  0  0  0  0
    5.3770   -0.3450   -3.6330 N   0  0  0  0  0  0  0  0  0  0  0  0
    6.3980   -1.3340   -3.4590 C   0  0  0  0  0  0  0  0  0  0  0  0
    6.9950   -1.5030   -4.7160 F   0  0  0  0  0  0  0  0  0  0  0  0
    4.1150   -1.2850   -1.7270 C   0  0  0  0  0  0  0  0  0  0  0  0
   -0.8650    0.9000    0.3990 C   0  0  0  0  0  0  0  0  0  0  0  0
   -0.4780    1.9820    1.0370 O   0  0  0  0  0  0  0  0  0  0  0  0
   -1.0540    0.8160   -0.8950 O   0  0  0  0  0  0  0  0  0  0  0  0
   -0.9690    0.3860   -2.1470 C   0  0  0  0  0  0  0  0  0  0  0  0
   -0.0990   -0.5850   -2.5840 C   0  0  0  0  0  0  0  0  0  0  0  0
   -0.0140   -1.0350   -3.9070 C   0  0  0  0  0  0  0  0  0  0  0  0
   -0.8320   -0.5010   -4.8600 C   0  0  0  0  0  0  0  0  0  0  0  0
   -1.7070    0.4700   -4.4440 C   0  0  0  0  0  0  0  0  0  0  0  0
   -1.8000    0.9170   -3.1610 C   0  0  0  0  0  0  0  0  0  0  0  0
   -2.7300    1.9120   -2.8460 O   0  0  0  0  0  0  0  0  0  0  0  0
   -3.4450    2.0470   -1.6790 C   0  0  0  0  0  0  0  0  0  0  0  0
   -3.8680    0.7060   -1.0360 C   0  0  0  0  0  0  0  0  0  0  0  0
   -3.9130    0.9620    0.2990 O   0  0  0  0  0  0  0  0  0  0  0  0
  1  2  1  0
  2  3  1  0
  3  4  2  0
  3  8  1  0
  4  5  1  0
  5  6  2  0
  6  7  1  0
  6 37  1  0
  7  8  2  0
  7  9  1  0
  9 10  2  0
 10 11  1  0
 10 25  1  0
 11 12  1  0
 12 13  2  0
 12 14  1  0
 14 15  1  6
 14 16  1  0
 17 16  1  1
 17 18  1  0
 17 24  1  0
 18 19  1  0
 19 20  1  0
 20 21  1  6
 20 24  1  0
 21 22  1  0
 22 23  1  0
 25 26  2  0
 25 27  1  0
 27 28  1  0
 28 29  2  0
 28 33  1  0
 29 30  1  0
 30 31  2  0
 31 32  1  0
 32 33  2  0
 33 34  1  0
 34 35  1  0
 35 36  1  0
 36 37  1  0
M  END
