
     RDKit          3D

 37 40  0  0  0  0  0  0  0  0999 V2000
   -4.8730    6.2010    1.5710 C   0  0  0  0  0  0  0  0  0  0  0  0
   -4.4850    4.7540    1.5780 C   0  0  0  0  0  0  0  0  0  0  0  0
   -4.1110    4.2790    0.2760 O   0  0  0  0  0  0  0  0  0  0  0  0
   -3.7400    2.9450    0.1910 C   0  0  0  0  0  0  0  0  0  0  0  0
   -3.7290    2.1080    1.3050 C   0  0  0  0  0  0  0  0  0  0  0  0
   -3.3580    0.7920    1.2020 C   0  0  0  0  0  0  0  0  0  0  0  0
   -2.9890    0.2890   -0.0390 C   0  0  0  0  0  0  0  0  0  0  0  0
   -2.5540   -1.0400   -0.1150 N   0  0  0  0  0  0  0  0  0  0  0  0
   -1.2790   -1.0920   -0.4320 C   0  0  0  0  0  0  0  0  0  0  0  0
   -1.0110   -2.4690   -0.4360 N   0  0  0  0  0  0  0  0  0  0  0  0
    0.2740   -2.9340   -0.1530 C   0  0  0  0  0  0  0  0  0  0  0  0
    1.0200   -2.0130    0.1400 O   0  0  0  0  0  0  0  0  0  0  0  0
    0.5590   -4.3480   -0.2140 C   0  0  0  0  0  0  0  0  0  0  0  0
    1.6210   -4.8650    0.3260 O   0  0  0  0  0  0  0  0  0  0  0  0
    1.6200   -6.1450    0.1250 C   0  0  0  0  0  0  0  0  0  0  0  0
    0.4690   -6.4860   -0.6020 C   0  0  0  0  0  0  0  0  0  0  0  0
   -0.2050   -5.3500   -0.8200 C   0  0  0  0  0  0  0  0  0  0  0  0
   -1.4530   -5.4570   -1.5860 C   0  0  0  0  0  0  0  0  0  0  0  0
   -1.2660   -7.1100   -2.3810 S   0  0  0  0  0  0  0  0  0  0  0  0
   -0.0940   -7.7320   -1.1190 C   0  0  0  0  0  0  0  0  0  0  0  0
   -0.5650    0.3390   -1.1610 S   0  0  0  0  0  0  0  0  0  0  0  0
   -0.1610    1.5560    0.0780 C   0  0  0  0  0  0  0  0  0  0  0  0
    0.9620    1.0010    0.9210 C   0  0  0  0  0  0  0  0  0  0  0  0
    0.7270    0.4330    1.9980 O   0  0  0  0  0  0  0  0  0  0  0  0
    2.3180    1.1220    0.4830 N   0  0  0  0  0  0  0  0  0  0  0  0
    3.4210    0.6040    1.2500 C   0  0  0  0  0  0  0  0  0  0  0  0
    4.7440    0.7850    0.6880 C   0  0  0  0  0  0  0  0  0  0  0  0
    5.0130    1.3750   -0.4430 C   0  0  0  0  0  0  0  0  0  0  0  0
    6.4020    1.5400   -0.9880 C   0  0  0  0  0  0  0  0  0  0  0  0
    7.3800    0.9840   -0.1610 O   0  0  0  0  0  0  0  0  0  0  0  0
    7.1290    0.3570    1.0350 C   0  0  0  0  0  0  0  0  0  0  0  0
    5.8950    0.2580    1.4430 C   0  0  0  0  0  0  0  0  0  0  0  0
    5.6540   -0.3770    2.6500 O   0  0  0  0  0  0  0  0  0  0  0  0
   -3.0070    1.1190   -1.1250 C   0  0  0  0  0  0  0  0  0  0  0  0
   -3.3740    2.4460   -1.0470 C   0  0  0  0  0  0  0  0  0  0  0  0
   -3.3920    3.2840   -2.1260 O   0  0  0  0  0  0  0  0  0  0  0  0
   -3.0630    2.9850   -3.4430 C   0  0  0  0  0  0  0  0  0  0  0  0
  1  2  1  0
  2  3  1  0
  3  4  1  0
  4  5  2  0
  4 35  1  0
  5  6  1  0
  6  7  2  0
  7  8  1  0
  7 34  1  0
  8  9  2  3
  9 10  1  0
  9 21  1  0
 10 11  1  0
 11 12  2  0
 11 13  1  0
 13 14  1  0
 13 17  2  0
 14 15  1  0
 15 16  2  0
 16 17  1  0
 16 20  1  0
 17 18  1  0
 18 19  1  0
 19 20  1  0
 21 22  1  0
 22 23  1  0
 23 24  2  0
 23 25  1  0
 25 26  1  0
 26 27  1  0
 27 28  2  0
 27 32  1  0
 28 29  1  0
 29 30  1  0
 30 31  1  0
 31 32  2  0
 32 33  1  0
 34 35  2  0
 35 36  1  0
 36 37  1  0
M  END
