
     RDKit          3D

 36 41  0  0  0  0  0  0  0  0999 V2000
    5.6110    1.0850    2.7250 C   0  0  0  0  0  0  0  0  0  0  0  0
    5.0170    2.0300    1.7070 C   0  0  0  0  0  0  0  0  0  0  0  0
    4.6510    1.3890    0.5150 O   0  0  0  0  0  0  0  0  0  0  0  0
    5.4720    0.7070   -0.3170 C   0  0  0  0  0  0  0  0  0  0  0  0
    6.6880    0.6250   -0.0120 O   0  0  0  0  0  0  0  0  0  0  0  0
    5.0020    0.0280   -1.6090 C   0  0  1  0  0  0  0  0  0  0  0  0
    6.1710   -0.6660   -2.1890 C   0  0  0  0  0  0  0  0  0  0  0  0
    3.7290   -0.6460   -1.3830 C   0  0  0  0  0  0  0  0  0  0  0  0
    3.4880   -1.9320   -1.5790 C   0  0  0  0  0  0  0  0  0  0  0  0
    4.5230   -2.8620   -2.0650 C   0  0  0  0  0  0  0  0  0  0  0  0
    2.1490   -2.5370   -1.3430 C   0  0  0  0  0  0  0  0  0  0  0  0
    1.8530   -3.7240   -1.5030 O   0  0  0  0  0  0  0  0  0  0  0  0
    1.1620   -1.5990   -0.8890 C   0  0  0  0  0  0  0  0  0  0  0  0
   -0.0520   -2.1260   -0.7040 C   0  0  0  0  0  0  0  0  0  0  0  0
   -0.8160   -3.3470   -0.7880 N   0  0  0  0  0  0  0  0  0  0  0  0
   -2.0140   -3.2380   -0.1420 C   0  0  2  0  0  0  0  0  0  0  0  0
   -3.3450   -3.4050   -0.0920 N   0  0  0  0  0  0  0  0  0  0  0  0
   -4.0530   -2.1990    0.3340 C   0  0  0  0  0  0  0  0  0  0  0  0
   -5.2900   -1.6830    0.7300 C   0  0  0  0  0  0  0  0  0  0  0  0
   -5.4530   -0.3180    1.0400 C   0  0  0  0  0  0  0  0  0  0  0  0
   -6.7710    0.2030    1.4570 C   0  0  0  0  0  0  0  0  0  0  0  0
   -4.4200    0.6620    0.9900 C   0  0  0  0  0  0  0  0  0  0  0  0
   -4.5420    2.0410    1.4120 C   0  0  0  0  0  0  0  0  0  0  0  0
   -5.3180    3.0100    0.6010 C   0  0  0  0  0  0  0  0  0  0  0  0
   -3.2160    0.1670    0.6030 C   0  0  0  0  0  0  0  0  0  0  0  0
   -2.0500    0.9040    0.4470 C   0  0  0  0  0  0  0  0  0  0  0  0
   -2.0010    2.2920    0.5570 C   0  0  0  0  0  0  0  0  0  0  0  0
   -2.4240    2.7820   -0.8650 C   0  0  0  0  0  0  0  0  0  0  0  0
   -0.8780    0.2080    0.0210 C   0  0  0  0  0  0  0  0  0  0  0  0
   -0.9500   -1.1300   -0.2160 C   0  0  0  0  0  0  0  0  0  0  0  0
   -2.0520   -1.7900   -0.0630 C   0  0  0  0  0  0  0  0  0  0  0  0
   -3.1590   -1.1920    0.3240 C   0  0  0  0  0  0  0  0  0  0  0  0
    0.4030    0.8130   -0.2030 C   0  0  0  0  0  0  0  0  0  0  0  0
    0.5760    1.9940   -0.0160 O   0  0  0  0  0  0  0  0  0  0  0  0
    1.4480   -0.1660   -0.6770 C   0  0  0  0  0  0  0  0  0  0  0  0
    2.6380    0.2780   -0.9060 C   0  0  0  0  0  0  0  0  0  0  0  0
  1  2  1  0
  2  3  1  0
  3  4  1  0
  4  5  2  0
  4  6  1  0
  6  7  1  1
  6  8  1  0
  8  9  2  0
  8 36  1  0
  9 10  1  0
  9 11  1  0
 11 12  2  0
 11 13  1  0
 13 14  2  0
 13 35  1  0
 14 15  1  0
 14 30  1  0
 16 15  1  6
 16 17  1  0
 16 31  1  0
 17 18  1  0
 18 19  2  0
 18 32  1  0
 19 20  1  0
 20 21  1  0
 20 22  2  0
 22 23  1  0
 22 25  1  0
 23 24  1  0
 25 26  2  0
 25 32  1  0
 26 27  1  0
 26 29  1  0
 27 28  1  0
 29 30  2  0
 29 33  1  0
 30 31  1  0
 31 32  2  0
 33 34  2  0
 33 35  1  0
 35 36  2  0
M  END
