
     RDKit          3D

 36 40  0  0  0  0  0  0  0  0999 V2000
   -3.1150    4.4670    3.5450 C   0  0  0  0  0  0  0  0  0  0  0  0
   -3.9820    4.3100    2.5810 C   0  0  0  0  0  0  0  0  0  0  0  0
   -3.7620    3.2690    1.5410 C   0  0  0  0  0  0  0  0  0  0  0  0
   -2.6280    2.4340    1.7350 N   0  0  0  0  0  0  0  0  0  0  0  0
   -2.3680    1.5150    2.7760 C   0  0  0  0  0  0  0  0  0  0  0  0
   -3.3080    1.4680    3.6780 O   0  0  0  0  0  0  0  0  0  0  0  0
   -1.2150    0.6530    2.9110 C   0  0  0  0  0  0  0  0  0  0  0  0
   -0.9120    0.2110    4.2180 C   0  0  0  0  0  0  0  0  0  0  0  0
    0.3170   -0.3650    4.4580 C   0  0  0  0  0  0  0  0  0  0  0  0
    1.2550   -0.5090    3.4220 C   0  0  0  0  0  0  0  0  0  0  0  0
    0.9560   -0.0770    2.1230 C   0  0  0  0  0  0  0  0  0  0  0  0
    1.9110   -0.2140    1.0610 C   0  0  1  0  0  0  0  0  0  0  0  0
    2.1790    1.1830    0.4040 C   0  0  0  0  0  0  0  0  0  0  0  0
    3.2890   -0.6960    1.4240 C   0  0  0  0  0  0  0  0  0  0  0  0
    3.8750   -0.7850    0.0290 C   0  0  0  0  0  0  0  0  0  0  0  0
    5.1720   -0.7110   -0.4040 C   0  0  0  0  0  0  0  0  0  0  0  0
    5.4230   -0.8660   -1.7540 C   0  0  0  0  0  0  0  0  0  0  0  0
    4.3900   -1.0880   -2.6240 C   0  0  0  0  0  0  0  0  0  0  0  0
    4.6680   -1.2500   -3.9850 O   0  0  0  0  0  0  0  0  0  0  0  0
    6.0070   -1.1900   -4.4630 C   0  0  0  0  0  0  0  0  0  0  0  0
    6.8830   -2.2810   -3.8970 C   0  0  0  0  0  0  0  0  0  0  0  0
    3.0870   -1.1530   -2.1670 C   0  0  0  0  0  0  0  0  0  0  0  0
    2.7990   -1.0020   -0.8120 C   0  0  0  0  0  0  0  0  0  0  0  0
    1.6150   -1.0150   -0.0480 O   0  0  0  0  0  0  0  0  0  0  0  0
   -0.2770    0.4740    1.9660 C   0  0  0  0  0  0  0  0  0  0  0  0
   -0.6130    0.8930    0.6420 O   0  0  0  0  0  0  0  0  0  0  0  0
   -1.4590   -0.0160   -0.0310 C   0  0  0  0  0  0  0  0  0  0  0  0
   -1.4840   -1.3520    0.0710 C   0  0  0  0  0  0  0  0  0  0  0  0
   -2.3490   -2.2060   -0.6050 C   0  0  0  0  0  0  0  0  0  0  0  0
   -3.2410   -1.6380   -1.4390 C   0  0  0  0  0  0  0  0  0  0  0  0
   -3.2680   -0.2320   -1.5980 C   0  0  0  0  0  0  0  0  0  0  0  0
   -2.4040    0.5660   -0.9190 C   0  0  0  0  0  0  0  0  0  0  0  0
   -4.3270    0.2440   -2.5020 C   0  0  0  0  0  0  0  0  0  0  0  0
   -5.6480   -0.2630   -2.1190 N   0  0  0  0  0  0  0  0  0  0  0  0
   -5.6170   -1.6670   -1.7770 C   0  0  0  0  0  0  0  0  0  0  0  0
   -4.3050   -2.3120   -2.2310 C   0  0  0  0  0  0  0  0  0  0  0  0
  1  2  2  0
  2  3  1  0
  3  4  1  0
  4  5  1  0
  5  6  2  0
  5  7  1  0
  7  8  2  0
  7 25  1  0
  8  9  1  0
  9 10  2  0
 10 11  1  0
 11 12  1  0
 11 25  2  0
 12 13  1  6
 12 14  1  0
 12 24  1  0
 14 15  1  0
 15 16  2  0
 15 23  1  0
 16 17  1  0
 17 18  2  0
 18 19  1  0
 18 22  1  0
 19 20  1  0
 20 21  1  0
 22 23  2  0
 23 24  1  0
 25 26  1  0
 26 27  1  0
 27 28  2  0
 27 32  1  0
 28 29  1  0
 29 30  2  0
 30 31  1  0
 30 36  1  0
 31 32  2  0
 31 33  1  0
 33 34  1  0
 34 35  1  0
 35 36  1  0
M  END
