
     RDKit          3D

 36 40  0  0  0  0  0  0  0  0999 V2000
    5.0100    1.6980    2.0230 C   0  0  0  0  0  0  0  0  0  0  0  0
    4.2070    1.5200    0.7600 C   0  0  0  0  0  0  0  0  0  0  0  0
    3.5250    0.2250    0.6100 C   0  0  2  0  0  0  0  0  0  0  0  0
    4.2530   -1.0520    0.5420 C   0  0  0  0  0  0  0  0  0  0  0  0
    5.4030   -1.2960    1.1870 O   0  0  0  0  0  0  0  0  0  0  0  0
    6.6910   -0.9100    1.1830 C   0  0  0  0  0  0  0  0  0  0  0  0
    7.2970   -0.0170    0.3430 C   0  0  0  0  0  0  0  0  0  0  0  0
    8.6530    0.3170    0.4280 C   0  0  0  0  0  0  0  0  0  0  0  0
    9.4350   -0.2590    1.3840 C   0  0  0  0  0  0  0  0  0  0  0  0
    8.8660   -1.1640    2.2500 C   0  0  0  0  0  0  0  0  0  0  0  0
    7.5360   -1.4800    2.1530 C   0  0  0  0  0  0  0  0  0  0  0  0
    2.4200    0.3030   -0.2260 O   0  0  0  0  0  0  0  0  0  0  0  0
    2.2950    0.4830   -1.5590 C   0  0  0  0  0  0  0  0  0  0  0  0
    3.3540    0.6180   -2.4090 C   0  0  0  0  0  0  0  0  0  0  0  0
    3.1350    0.7990   -3.7510 C   0  0  0  0  0  0  0  0  0  0  0  0
    1.8680    0.8460   -4.2480 C   0  0  0  0  0  0  0  0  0  0  0  0
    0.7590    0.7100   -3.4050 C   0  0  0  0  0  0  0  0  0  0  0  0
    0.9760    0.5300   -2.0660 C   0  0  0  0  0  0  0  0  0  0  0  0
   -0.1180    0.3810   -1.1710 N   0  0  0  0  0  0  0  0  0  0  0  0
   -1.4830    0.4240   -1.4380 C   0  0  0  0  0  0  0  0  0  0  0  0
   -1.8330    0.6210   -2.6480 O   0  0  0  0  0  0  0  0  0  0  0  0
   -2.5720    0.2600   -0.4470 C   0  0  0  0  0  0  0  0  0  0  0  0
   -3.8770    0.1470   -0.9000 C   0  0  0  0  0  0  0  0  0  0  0  0
   -4.9430   -0.0200   -0.0550 C   0  0  0  0  0  0  0  0  0  0  0  0
   -4.6770   -0.0770    1.3060 C   0  0  0  0  0  0  0  0  0  0  0  0
   -3.4240    0.0310    1.7730 N   0  0  0  0  0  0  0  0  0  0  0  0
   -2.3920    0.1970    0.8980 C   0  0  0  0  0  0  0  0  0  0  0  0
   -1.2460    0.2920    1.4020 O   0  0  0  0  0  0  0  0  0  0  0  0
   -5.7000   -0.2920    2.1250 C   0  0  0  0  0  0  0  0  0  0  0  0
   -5.3770   -0.3440    3.5910 C   0  0  0  0  0  0  0  0  0  0  0  0
   -7.0990   -0.5080    1.7400 C   0  0  0  0  0  0  0  0  0  0  0  0
   -7.3930   -0.2550    0.3160 C   0  0  2  0  0  0  0  0  0  0  0  0
   -8.1900   -1.2760   -0.4180 C   0  0  0  0  0  0  0  0  0  0  0  0
   -7.6960   -1.2630   -1.8620 C   0  0  0  0  0  0  0  0  0  0  0  0
   -6.7020   -0.0960   -1.9100 C   0  0  0  0  0  0  0  0  0  0  0  0
   -6.1770   -0.1220   -0.5260 C   0  0  0  0  0  0  0  0  0  0  0  0
  1  2  1  0
  3  2  1  6
  3  4  1  0
  3 12  1  0
  4  5  1  0
  5  6  1  0
  6  7  2  0
  6 11  1  0
  7  8  1  0
  8  9  2  0
  9 10  1  0
 10 11  2  0
 12 13  1  0
 13 14  2  0
 13 18  1  0
 14 15  1  0
 15 16  2  0
 16 17  1  0
 17 18  2  0
 18 19  1  0
 19 20  1  0
 20 21  2  0
 20 22  1  0
 22 23  2  0
 22 27  1  0
 23 24  1  0
 24 25  1  0
 24 36  2  0
 25 26  1  0
 25 29  2  0
 26 27  1  0
 27 28  2  0
 29 30  1  0
 29 31  1  0
 32 31  1  1
 32 33  1  0
 32 36  1  0
 33 34  1  0
 34 35  1  0
 35 36  1  0
M  END
