
     RDKit          3D

 36 40  0  0  0  0  0  0  0  0999 V2000
   -5.7170   -6.2920   -0.0220 C   0  0  0  0  0  0  0  0  0  0  0  0
   -4.9990   -5.0350    0.2220 C   0  0  0  0  0  0  0  0  0  0  0  0
   -3.8630   -5.0240    1.0320 C   0  0  0  0  0  0  0  0  0  0  0  0
   -3.2420   -3.7920    1.2330 C   0  0  0  0  0  0  0  0  0  0  0  0
   -3.6840   -2.6160    0.6870 C   0  0  0  0  0  0  0  0  0  0  0  0
   -3.1060   -1.3240    0.9160 C   0  0  0  0  0  0  0  0  0  0  0  0
   -1.8590   -0.9590    0.9250 C   0  0  0  0  0  0  0  0  0  0  0  0
   -0.5920   -1.7110    0.6980 C   0  0  0  0  0  0  0  0  0  0  0  0
    0.2820   -0.7100    0.0310 C   0  0  2  0  0  0  0  0  0  0  0  0
    1.7510   -0.8640    0.1880 C   0  0  0  0  0  0  0  0  0  0  0  0
    2.4420   -2.0840   -0.3220 C   0  0  0  0  0  0  0  0  0  0  0  0
    3.8150   -1.8670   -0.0360 O   0  0  0  0  0  0  0  0  0  0  0  0
    4.6270   -1.9070   -1.1280 C   0  0  1  0  0  0  0  0  0  0  0  0
    5.5630   -0.7070   -1.1310 C   0  0  0  0  0  0  0  0  0  0  0  0
    6.2510   -0.8990    0.2300 C   0  0  0  0  0  0  0  0  0  0  0  0
    6.4020   -2.4070    0.3410 C   0  0  0  0  0  0  0  0  0  0  0  0
    5.6740   -2.9990   -0.8420 C   0  0  0  0  0  0  0  0  0  0  0  0
   -0.1150    0.5940    0.5930 N   0  0  0  0  0  0  0  0  0  0  0  0
    0.6360    1.7940    0.5480 C   0  0  0  0  0  0  0  0  0  0  0  0
    0.5260    2.8720   -0.4160 C   0  0  1  0  0  0  0  0  0  0  0  0
    0.7320    2.2930   -1.7350 O   0  0  0  0  0  0  0  0  0  0  0  0
   -0.7640    3.5660   -0.5820 C   0  0  0  0  0  0  0  0  0  0  0  0
   -1.8430    3.1360   -1.3070 C   0  0  0  0  0  0  0  0  0  0  0  0
   -2.9170    3.9850   -1.5930 C   0  0  0  0  0  0  0  0  0  0  0  0
   -3.9160    3.5740   -2.2700 O   0  0  0  0  0  0  0  0  0  0  0  0
   -2.8850    5.2500   -1.1430 N   0  0  0  0  0  0  0  0  0  0  0  0
   -1.8730    5.7400   -0.4290 C   0  0  0  0  0  0  0  0  0  0  0  0
   -1.9490    7.0510    0.0770 C   0  0  0  0  0  0  0  0  0  0  0  0
   -0.9130    7.4850    0.8880 C   0  0  0  0  0  0  0  0  0  0  0  0
    0.1640    6.6900    1.2010 C   0  0  0  0  0  0  0  0  0  0  0  0
    0.1920    5.4040    0.6720 C   0  0  0  0  0  0  0  0  0  0  0  0
   -0.8120    4.9140   -0.1430 C   0  0  0  0  0  0  0  0  0  0  0  0
   -1.3490    0.4030    1.2550 C   0  0  0  0  0  0  0  0  0  0  0  0
   -1.9800    1.1900    2.0110 O   0  0  0  0  0  0  0  0  0  0  0  0
   -4.8220   -2.6510   -0.1220 C   0  0  0  0  0  0  0  0  0  0  0  0
   -5.4550   -3.8420   -0.3410 C   0  0  0  0  0  0  0  0  0  0  0  0
  1  2  1  0
  2  3  2  0
  2 36  1  0
  3  4  1  0
  4  5  2  0
  5  6  1  0
  5 35  1  0
  6  7  2  3
  7  8  1  0
  7 33  1  0
  8  9  1  0
  9 10  1  1
  9 18  1  0
 10 11  1  0
 11 12  1  0
 13 12  1  1
 13 14  1  0
 13 17  1  0
 14 15  1  0
 15 16  1  0
 16 17  1  0
 18 19  1  0
 18 33  1  0
 19 20  1  0
 20 21  1  6
 20 22  1  0
 22 23  2  0
 22 32  1  0
 23 24  1  0
 24 25  2  0
 24 26  1  0
 26 27  1  0
 27 28  2  0
 27 32  1  0
 28 29  1  0
 29 30  2  0
 30 31  1  0
 31 32  2  0
 33 34  2  0
 35 36  2  0
M  END
