
     RDKit          3D

 36 40  0  0  0  0  0  0  0  0999 V2000
   -1.5330    4.7590    0.8240 C   0  0  0  0  0  0  0  0  0  0  0  0
   -1.3480    3.5670   -0.0830 C   0  0  0  0  0  0  0  0  0  0  0  0
   -0.7940    3.6830   -1.3120 C   0  0  0  0  0  0  0  0  0  0  0  0
   -0.6300    2.5990   -2.1280 C   0  0  0  0  0  0  0  0  0  0  0  0
   -1.0490    1.3590   -1.6620 C   0  0  0  0  0  0  0  0  0  0  0  0
   -1.6210    1.1720   -0.4180 C   0  0  0  0  0  0  0  0  0  0  0  0
   -2.0110   -0.1130    0.1220 C   0  0  0  0  0  0  0  0  0  0  0  0
   -2.8250   -0.0380    1.2060 C   0  0  0  0  0  0  0  0  0  0  0  0
   -3.3800   -1.1360    1.9570 N   0  0  0  0  0  0  0  0  0  0  0  0
   -3.7400   -2.3990    1.3510 C   0  0  0  0  0  0  0  0  0  0  0  0
   -4.3990   -3.1830    2.2790 C   0  0  0  0  0  0  0  0  0  0  0  0
   -4.8250   -4.4240    1.8630 C   0  0  0  0  0  0  0  0  0  0  0  0
   -4.6090   -4.8810    0.5740 C   0  0  0  0  0  0  0  0  0  0  0  0
   -3.9400   -4.0620   -0.3360 C   0  0  0  0  0  0  0  0  0  0  0  0
   -3.5150   -2.8350    0.0610 C   0  0  0  0  0  0  0  0  0  0  0  0
   -2.7950   -2.0530   -1.0130 C   0  0  0  0  0  0  0  0  0  0  0  0
   -1.5600   -1.4070   -0.4030 C   0  0  1  0  0  0  0  0  0  0  0  0
   -0.3280   -1.5470   -1.1210 C   0  0  0  0  0  0  0  0  0  0  0  0
   -0.2730   -1.9890   -2.4360 C   0  0  0  0  0  0  0  0  0  0  0  0
    0.9300   -2.1450   -3.0810 C   0  0  0  0  0  0  0  0  0  0  0  0
    2.1200   -1.8680   -2.4490 C   0  0  0  0  0  0  0  0  0  0  0  0
    2.0500   -1.4240   -1.1270 C   0  0  0  0  0  0  0  0  0  0  0  0
    0.8620   -1.2600   -0.4590 C   0  0  0  0  0  0  0  0  0  0  0  0
    0.9450   -0.8430    0.9540 C   0  0  0  0  0  0  0  0  0  0  0  0
    2.2920   -0.5980    1.4240 N   0  0  0  0  0  0  0  0  0  0  0  0
    3.1270    0.4630    1.0690 C   0  0  0  0  0  0  0  0  0  0  0  0
    2.7100    1.4580    0.2300 C   0  0  0  0  0  0  0  0  0  0  0  0
    3.5800    2.4840   -0.0730 C   0  0  0  0  0  0  0  0  0  0  0  0
    3.0910    3.7910   -1.1500 S   0  0  2  0  0  0  0  0  0  0  0  0
    2.9130    3.2020   -2.5290 O   0  0  0  0  0  0  0  0  0  0  0  0
    4.2040    4.7820   -1.2410 O   0  0  0  0  0  0  0  0  0  0  0  0
    4.8530    2.5260    0.4490 C   0  0  0  0  0  0  0  0  0  0  0  0
    5.2680    1.5310    1.2870 C   0  0  0  0  0  0  0  0  0  0  0  0
    4.4050    0.5150    1.5860 C   0  0  0  0  0  0  0  0  0  0  0  0
    4.8960   -0.5670    2.5160 C   0  0  0  0  0  0  0  0  0  0  0  0
   -1.7580    2.3020    0.3540 C   0  0  0  0  0  0  0  0  0  0  0  0
  1  2  1  0
  2  3  2  0
  2 36  1  0
  3  4  1  0
  4  5  2  0
  5  6  1  0
  6  7  1  0
  6 36  2  0
  7  8  2  0
  7 17  1  0
  8  9  1  0
  9 10  1  0
 10 11  2  0
 10 15  1  0
 11 12  1  0
 12 13  2  0
 13 14  1  0
 14 15  2  0
 15 16  1  0
 16 17  1  0
 17 18  1  6
 18 19  2  0
 18 23  1  0
 19 20  1  0
 20 21  2  0
 21 22  1  0
 22 23  2  0
 23 24  1  0
 24 25  1  0
 25 26  1  0
 26 27  2  0
 26 34  1  0
 27 28  1  0
 29 28  1  1
 28 32  2  0
 29 30  2  0
 29 31  2  0
 32 33  1  0
 33 34  2  0
 34 35  1  0
M  END
