
     RDKit          3D

 36 40  0  0  0  0  0  0  0  0999 V2000
   -6.8390    1.6240   -1.9320 C   0  0  0  0  0  0  0  0  0  0  0  0
   -6.9720    1.1830   -0.6990 C   0  0  0  0  0  0  0  0  0  0  0  0
   -6.5000   -0.1390   -0.2670 C   0  0  0  0  0  0  0  0  0  0  0  0
   -5.5460   -0.1610    0.8820 C   0  0  0  0  0  0  0  0  0  0  0  0
   -4.2650    0.5430    0.7250 C   0  0  0  0  0  0  0  0  0  0  0  0
   -3.3330    0.1500   -0.3290 C   0  0  0  0  0  0  0  0  0  0  0  0
   -3.3570    0.9580   -1.4840 C   0  0  0  0  0  0  0  0  0  0  0  0
   -2.5350    0.7630   -2.5600 C   0  0  0  0  0  0  0  0  0  0  0  0
   -1.6450   -0.2790   -2.4900 C   0  0  0  0  0  0  0  0  0  0  0  0
   -1.6010   -1.0610   -1.4060 N   0  0  0  0  0  0  0  0  0  0  0  0
   -2.4250   -0.8720   -0.3190 C   0  0  0  0  0  0  0  0  0  0  0  0
   -2.2250   -1.7090    0.8550 C   0  0  0  0  0  0  0  0  0  0  0  0
   -3.0920   -2.7040    1.2350 C   0  0  0  0  0  0  0  0  0  0  0  0
   -2.7530   -3.4860    2.3470 C   0  0  0  0  0  0  0  0  0  0  0  0
   -1.5860   -3.2750    3.0490 C   0  0  0  0  0  0  0  0  0  0  0  0
   -0.7370   -2.2630    2.6340 C   0  0  0  0  0  0  0  0  0  0  0  0
    0.5200   -2.0510    3.4010 C   0  0  0  0  0  0  0  0  0  0  0  0
   -1.0400   -1.4850    1.5560 C   0  0  0  0  0  0  0  0  0  0  0  0
   -0.1810   -0.4630    1.1270 N   0  0  0  0  0  0  0  0  0  0  0  0
    0.9100   -0.7690    0.2820 C   0  0  0  0  0  0  0  0  0  0  0  0
    1.0720   -1.9790   -0.0480 O   0  0  0  0  0  0  0  0  0  0  0  0
    1.8300    0.2670   -0.2010 C   0  0  0  0  0  0  0  0  0  0  0  0
    1.3710    1.4330   -0.7580 C   0  0  0  0  0  0  0  0  0  0  0  0
    2.2420    2.3990   -1.1910 C   0  0  0  0  0  0  0  0  0  0  0  0
    3.6110    2.1740   -1.0570 C   0  0  0  0  0  0  0  0  0  0  0  0
    4.4690    3.1610   -1.4950 C   0  0  0  0  0  0  0  0  0  0  0  0
    5.8110    2.9630   -1.3680 C   0  0  0  0  0  0  0  0  0  0  0  0
    6.3490    1.7950   -0.8090 C   0  0  0  0  0  0  0  0  0  0  0  0
    5.5060    0.7920   -0.3620 C   0  0  0  0  0  0  0  0  0  0  0  0
    4.1070    1.0140   -0.5030 C   0  0  0  0  0  0  0  0  0  0  0  0
    3.1880    0.0810   -0.0850 C   0  0  0  0  0  0  0  0  0  0  0  0
    5.8810   -0.3310    0.1730 C   0  0  0  0  0  0  0  0  0  0  0  0
    7.2660   -0.7870    0.4240 C   0  0  0  0  0  0  0  0  0  0  0  0
    7.5830   -1.9910    0.9970 O   0  0  0  0  0  0  0  0  0  0  0  0
    8.3920    0.2960   -0.0520 S   0  0  0  0  0  0  0  0  0  0  0  0
    7.6720    1.7760   -0.7640 C   0  0  0  0  0  0  0  0  0  0  0  0
  1  2  2  0
  2  3  1  0
  3  4  1  0
  4  5  1  0
  5  6  1  0
  6  7  2  0
  6 11  1  0
  7  8  1  0
  8  9  2  0
  9 10  1  0
 10 11  2  0
 11 12  1  0
 12 13  2  0
 12 18  1  0
 13 14  1  0
 14 15  2  0
 15 16  1  0
 16 17  1  0
 16 18  2  0
 18 19  1  0
 19 20  1  0
 20 21  2  0
 20 22  1  0
 22 23  2  0
 22 31  1  0
 23 24  1  0
 24 25  2  0
 25 26  1  0
 25 30  1  0
 26 27  2  0
 27 28  1  0
 28 29  1  0
 28 36  2  0
 29 30  1  0
 29 32  2  0
 30 31  2  0
 32 33  1  0
 33 34  1  0
 33 35  2  0
 35 36  1  0
M  END
