
     RDKit          3D

 36 40  0  0  0  0  0  0  0  0999 V2000
    3.2390   -2.9110    2.9480 C   0  0  0  0  0  0  0  0  0  0  0  0
    2.5240   -2.3990    1.7500 C   0  0  0  0  0  0  0  0  0  0  0  0
    1.2110   -2.7200    1.4670 C   0  0  0  0  0  0  0  0  0  0  0  0
    0.5830   -2.2240    0.3450 C   0  0  0  0  0  0  0  0  0  0  0  0
    1.3050   -1.4060   -0.4700 C   0  0  0  0  0  0  0  0  0  0  0  0
    2.6310   -1.0460   -0.2340 C   0  0  0  0  0  0  0  0  0  0  0  0
    3.2520   -1.5560    0.9010 C   0  0  0  0  0  0  0  0  0  0  0  0
    3.0870   -0.1600   -1.2850 C   0  0  0  0  0  0  0  0  0  0  0  0
    3.9660    0.7880   -1.2250 C   0  0  0  0  0  0  0  0  0  0  0  0
    4.7390    1.2340   -0.0820 C   0  0  0  0  0  0  0  0  0  0  0  0
    4.1690    1.4630    1.1520 C   0  0  0  0  0  0  0  0  0  0  0  0
    4.9210    1.8820    2.2390 C   0  0  0  0  0  0  0  0  0  0  0  0
    6.2790    2.0900    2.1340 C   0  0  0  0  0  0  0  0  0  0  0  0
    7.1070    2.5390    3.2840 C   0  0  0  0  0  0  0  0  0  0  0  0
    6.8690    1.8670    0.9080 C   0  0  0  0  0  0  0  0  0  0  0  0
    8.3450    2.0940    0.8020 C   0  0  0  0  0  0  0  0  0  0  0  0
    6.1170    1.4500   -0.1680 C   0  0  0  0  0  0  0  0  0  0  0  0
    2.2450   -0.5700   -2.4790 C   0  0  0  0  0  0  0  0  0  0  0  0
    0.9170   -0.7500   -1.7650 C   0  0  1  0  0  0  0  0  0  0  0  0
   -0.0570   -1.5740   -2.5120 C   0  0  0  0  0  0  0  0  0  0  0  0
   -0.5030   -0.9960   -3.8180 C   0  0  0  0  0  0  0  0  0  0  0  0
   -1.1500    0.2700   -3.7130 N   0  0  0  0  0  0  0  0  0  0  0  0
   -2.3260    0.4340   -2.9620 C   0  0  0  0  0  0  0  0  0  0  0  0
   -2.7800   -0.6060   -2.3800 O   0  0  0  0  0  0  0  0  0  0  0  0
   -3.0650    1.7280   -2.8040 C   0  0  0  0  0  0  0  0  0  0  0  0
   -4.2890    1.5070   -1.9060 C   0  0  0  0  0  0  0  0  0  0  0  0
   -3.9630    1.0620   -0.6310 N   0  0  0  0  0  0  0  0  0  0  0  0
   -5.2320    0.7850    0.3860 S   0  0  0  0  0  0  0  0  0  0  0  0
   -5.4560    2.2750    0.2560 O   0  0  0  0  0  0  0  0  0  0  0  0
   -5.0290    0.8970    2.0450 C   0  0  0  0  0  0  0  0  0  0  0  0
   -4.4050   -0.3800    2.6050 C   0  0  0  0  0  0  0  0  0  0  0  0
   -3.8640   -1.1110    1.3770 C   0  0  0  0  0  0  0  0  0  0  0  0
   -4.9630   -0.7470    0.4010 C   0  0  1  0  0  0  0  0  0  0  0  0
   -6.2390   -1.4180    0.9680 C   0  0  0  0  0  0  0  0  0  0  0  0
   -7.1160   -0.9900   -0.2190 C   0  0  0  0  0  0  0  0  0  0  0  0
   -6.7790    0.5060   -0.2650 C   0  0  0  0  0  0  0  0  0  0  0  0
  1  2  1  0
  2  3  2  0
  2  7  1  0
  3  4  1  0
  4  5  2  0
  5  6  1  0
  5 19  1  0
  6  7  2  0
  6  8  1  0
  8  9  2  3
  8 18  1  0
  9 10  1  0
 10 11  2  0
 10 17  1  0
 11 12  1  0
 12 13  2  0
 13 14  1  0
 13 15  1  0
 15 16  1  0
 15 17  2  0
 18 19  1  0
 19 20  1  6
 20 21  1  0
 21 22  1  0
 22 23  1  0
 23 24  2  0
 23 25  1  0
 25 26  1  0
 26 27  1  0
 27 28  1  0
 28 29  2  0
 28 30  1  0
 28 33  1  0
 28 36  1  0
 30 31  1  0
 31 32  1  0
 33 32  1  1
 33 34  1  0
 34 35  1  0
 35 36  1  0
M  END
