
     RDKit          3D

 36 40  0  0  0  0  0  0  0  0999 V2000
   -8.9400    1.1580   -0.2080 C   0  0  0  0  0  0  0  0  0  0  0  0
   -7.9950    0.1060    0.3530 C   0  0  0  0  0  0  0  0  0  0  0  0
   -7.1400   -0.4860   -0.7480 C   0  0  0  0  0  0  0  0  0  0  0  0
   -6.2930    0.5200   -1.4220 C   0  0  1  0  0  0  0  0  0  0  0  0
   -5.3080    1.2090   -0.5680 C   0  0  0  0  0  0  0  0  0  0  0  0
   -4.2490    0.4330    0.0860 C   0  0  0  0  0  0  0  0  0  0  0  0
   -2.9380    0.5250   -0.2690 C   0  0  0  0  0  0  0  0  0  0  0  0
   -2.5000    1.3710   -1.2950 O   0  0  0  0  0  0  0  0  0  0  0  0
   -2.1280   -0.3300    0.5350 C   0  0  0  0  0  0  0  0  0  0  0  0
   -0.6490   -0.4780    0.4240 C   0  0  0  0  0  0  0  0  0  0  0  0
   -0.0750   -0.4680   -0.8500 C   0  0  0  0  0  0  0  0  0  0  0  0
    1.6610   -0.6470   -0.5160 S   0  0  0  0  0  0  0  0  0  0  0  0
    1.5210   -0.7230    1.2590 C   0  0  0  0  0  0  0  0  0  0  0  0
    2.6400   -0.8550    2.2290 C   0  0  0  0  0  0  0  0  0  0  0  0
    3.8590   -0.1950    1.8000 N   0  0  0  0  0  0  0  0  0  0  0  0
    4.6340   -0.5770    0.6800 C   0  0  0  0  0  0  0  0  0  0  0  0
    4.1780   -1.5960    0.0540 O   0  0  0  0  0  0  0  0  0  0  0  0
    5.8540    0.0840    0.2180 C   0  0  0  0  0  0  0  0  0  0  0  0
    6.5030   -0.3920   -0.8730 C   0  0  0  0  0  0  0  0  0  0  0  0
    6.2290   -1.5320   -1.7820 C   0  0  0  0  0  0  0  0  0  0  0  0
    7.2060   -1.6840   -2.8500 C   0  0  0  0  0  0  0  0  0  0  0  0
    8.2220   -0.8800   -2.9820 C   0  0  0  0  0  0  0  0  0  0  0  0
    8.5180    0.2380   -2.1190 C   0  0  0  0  0  0  0  0  0  0  0  0
    7.6650    0.4470   -1.1060 C   0  0  0  0  0  0  0  0  0  0  0  0
    7.6310    1.4470   -0.0560 C   0  0  0  0  0  0  0  0  0  0  0  0
    8.6100    2.5480    0.1440 C   0  0  0  0  0  0  0  0  0  0  0  0
    6.5630    1.2310    0.7230 C   0  0  0  0  0  0  0  0  0  0  0  0
    6.1690    2.0360    1.9100 C   0  0  0  0  0  0  0  0  0  0  0  0
    0.2100   -0.6100    1.4530 C   0  0  0  0  0  0  0  0  0  0  0  0
   -2.8920   -0.9540    1.3870 C   0  0  0  0  0  0  0  0  0  0  0  0
   -2.9540   -1.9200    2.4890 C   0  0  0  0  0  0  0  0  0  0  0  0
   -4.2040   -2.0390    2.8680 C   0  0  0  0  0  0  0  0  0  0  0  0
   -5.0590   -1.1710    2.0580 C   0  0  0  0  0  0  0  0  0  0  0  0
   -4.2950   -0.5240    1.1760 C   0  0  0  0  0  0  0  0  0  0  0  0
   -5.7100   -0.0340   -2.6470 N   0  0  0  0  0  0  0  0  0  0  0  0
   -4.8500   -1.1490   -2.4370 C   0  0  0  0  0  0  0  0  0  0  0  0
  1  2  1  0
  2  3  1  0
  4  3  1  1
  4  5  1  0
  4 35  1  0
  5  6  1  0
  6  7  2  0
  6 34  1  0
  7  8  1  0
  7  9  1  0
  9 10  1  0
  9 30  2  0
 10 11  2  0
 10 29  1  0
 11 12  1  0
 12 13  1  0
 13 14  1  0
 13 29  2  0
 14 15  1  0
 15 16  1  0
 16 17  2  0
 16 18  1  0
 18 19  2  0
 18 27  1  0
 19 20  1  0
 19 24  1  0
 20 21  1  0
 21 22  2  0
 22 23  1  0
 23 24  2  0
 24 25  1  0
 25 26  1  0
 25 27  2  0
 27 28  1  0
 30 31  1  0
 30 34  1  0
 31 32  2  0
 32 33  1  0
 33 34  2  0
 35 36  1  0
M  END
