
     RDKit          3D

 36 40  0  0  0  0  0  0  0  0999 V2000
   -5.6890   -0.7310   -1.3630 C   0  0  0  0  0  0  0  0  0  0  0  0
   -5.0110   -1.9400   -0.8670 C   0  0  0  0  0  0  0  0  0  0  0  0
   -4.3230   -1.9440    0.4270 C   0  0  2  0  0  0  0  0  0  0  0  0
   -5.0980   -1.6520    1.5190 O   0  0  0  0  0  0  0  0  0  0  0  0
   -3.1700   -0.9390    0.4050 C   0  0  0  0  0  0  0  0  0  0  0  0
   -1.9720   -1.4030    0.3090 C   0  0  0  0  0  0  0  0  0  0  0  0
   -0.7260   -0.7250    0.2700 C   0  0  0  0  0  0  0  0  0  0  0  0
    0.4910   -1.2730    0.1860 C   0  0  0  0  0  0  0  0  0  0  0  0
    1.6200   -0.3140    0.1480 C   0  0  0  0  0  0  0  0  0  0  0  0
    1.3350    0.9300    0.1210 O   0  0  0  0  0  0  0  0  0  0  0  0
    2.9610   -0.6910    0.1470 N   0  0  0  0  0  0  0  0  0  0  0  0
    4.0490    0.2040    0.0870 C   0  0  0  0  0  0  0  0  0  0  0  0
    5.2940   -0.2580    0.5130 C   0  0  0  0  0  0  0  0  0  0  0  0
    6.3870    0.5620    0.4540 C   0  0  0  0  0  0  0  0  0  0  0  0
    6.3120    1.8550   -0.0170 C   0  0  0  0  0  0  0  0  0  0  0  0
    5.0960    2.3010   -0.4320 C   0  0  0  0  0  0  0  0  0  0  0  0
    3.9590    1.4730   -0.3810 C   0  0  0  0  0  0  0  0  0  0  0  0
    4.9130    3.6590   -0.9490 C   0  0  0  0  0  0  0  0  0  0  0  0
    6.1130    4.5190   -1.0000 C   0  0  0  0  0  0  0  0  0  0  0  0
    7.3810    3.9540   -0.5320 C   0  0  0  0  0  0  0  0  0  0  0  0
    7.4640    2.7240   -0.0800 C   0  0  0  0  0  0  0  0  0  0  0  0
    0.7360   -2.6710    0.2800 C   0  0  0  0  0  0  0  0  0  0  0  0
    0.0170   -3.4460    1.1830 C   0  0  0  0  0  0  0  0  0  0  0  0
    0.1360   -4.7980    1.2280 C   0  0  0  0  0  0  0  0  0  0  0  0
    0.9920   -5.4380    0.3610 C   0  0  0  0  0  0  0  0  0  0  0  0
    1.0850   -6.9180    0.4540 C   0  0  0  0  0  0  0  0  0  0  0  0
    1.7290   -4.7060   -0.5550 C   0  0  0  0  0  0  0  0  0  0  0  0
    1.5900   -3.3510   -0.5810 C   0  0  0  0  0  0  0  0  0  0  0  0
   -3.5830    0.4730    0.4230 C   0  0  0  0  0  0  0  0  0  0  0  0
   -4.5520    1.0630    0.6060 N   0  0  0  0  0  0  0  0  0  0  0  0
   -4.7700    2.3670    0.5450 C   0  0  0  0  0  0  0  0  0  0  0  0
   -3.7190    3.1080    0.2260 C   0  0  0  0  0  0  0  0  0  0  0  0
   -2.4210    1.8820    0.0200 S   0  0  0  0  0  0  0  0  0  0  0  0
   -4.0390    4.5690    0.1710 C   0  0  0  0  0  0  0  0  0  0  0  0
   -5.5560    4.4930   -0.0820 C   0  0  0  0  0  0  0  0  0  0  0  0
   -5.9290    3.2910    0.7520 C   0  0  0  0  0  0  0  0  0  0  0  0
  1  2  1  0
  2  3  1  0
  3  4  1  1
  3  5  1  0
  5  6  2  3
  5 29  1  0
  6  7  1  0
  7  8  2  3
  8  9  1  0
  8 22  1  0
  9 10  2  0
  9 11  1  0
 11 12  1  0
 12 13  2  0
 12 17  1  0
 13 14  1  0
 14 15  2  0
 15 16  1  0
 15 21  1  0
 16 17  2  0
 16 18  1  0
 18 19  1  0
 19 20  1  0
 20 21  2  0
 22 23  2  0
 22 28  1  0
 23 24  1  0
 24 25  2  0
 25 26  1  0
 25 27  1  0
 27 28  2  0
 29 30  2  0
 29 33  1  0
 30 31  1  0
 31 32  2  0
 31 36  1  0
 32 33  1  0
 32 34  1  0
 34 35  1  0
 35 36  1  0
M  END
