
     RDKit          3D

 38 42  0  0  0  0  0  0  0  0999 V2000
    9.4560   -1.0580    3.6610 C   0  0  0  0  0  0  0  0  0  0  0  0
    8.9940    0.3140    3.5350 N   0  0  0  0  0  0  0  0  0  0  0  0
    9.1750    0.8860    2.2410 C   0  0  0  0  0  0  0  0  0  0  0  0
    8.0650    0.8030    1.2860 C   0  0  0  0  0  0  0  0  0  0  0  0
    6.9260    0.1830    1.4960 C   0  0  0  0  0  0  0  0  0  0  0  0
    5.8530    0.1430    0.5000 C   0  0  0  0  0  0  0  0  0  0  0  0
    4.7030   -0.6290    0.7470 C   0  0  0  0  0  0  0  0  0  0  0  0
    3.6360   -0.6420   -0.1150 C   0  0  0  0  0  0  0  0  0  0  0  0
    3.6290    0.1090   -1.2810 C   0  0  0  0  0  0  0  0  0  0  0  0
    4.7650    0.8560   -1.5160 C   0  0  0  0  0  0  0  0  0  0  0  0
    5.8350    0.8700   -0.6550 C   0  0  0  0  0  0  0  0  0  0  0  0
    4.5710    1.5760   -2.8220 C   0  0  0  0  0  0  0  0  0  0  0  0
    3.3870    0.9190   -3.4210 C   0  0  0  0  0  0  0  0  0  0  0  0
    2.6380    0.3050   -2.2640 N   0  0  0  0  0  0  0  0  0  0  0  0
    1.2760   -0.0160   -2.3270 C   0  0  0  0  0  0  0  0  0  0  0  0
    0.6210    0.6630   -3.2400 O   0  0  0  0  0  0  0  0  0  0  0  0
    0.4240   -0.9480   -1.6100 C   0  0  0  0  0  0  0  0  0  0  0  0
   -0.9930   -0.5140   -1.6930 N   0  0  0  0  0  0  0  0  0  0  0  0
   -1.6380   -0.5200   -2.8700 C   0  0  0  0  0  0  0  0  0  0  0  0
   -2.9010   -0.0380   -2.9400 N   0  0  0  0  0  0  0  0  0  0  0  0
   -3.5380    0.4490   -1.8860 C   0  0  0  0  0  0  0  0  0  0  0  0
   -2.9360    0.4670   -0.6710 C   0  0  0  0  0  0  0  0  0  0  0  0
   -1.6190   -0.0310   -0.6070 C   0  0  0  0  0  0  0  0  0  0  0  0
   -1.0470   -0.0040    0.5090 O   0  0  0  0  0  0  0  0  0  0  0  0
   -3.6460    0.6730    0.5820 N   0  0  0  0  0  0  0  0  0  0  0  0
   -5.0560    0.8420    0.6470 C   0  0  0  0  0  0  0  0  0  0  0  0
   -5.6170    1.0270    1.7850 O   0  0  0  0  0  0  0  0  0  0  0  0
   -5.9630    0.8250   -0.4650 C   0  0  0  0  0  0  0  0  0  0  0  0
   -7.1920    0.4410   -0.5560 C   0  0  0  0  0  0  0  0  0  0  0  0
   -7.7950    0.6080   -1.9660 C   0  0  0  0  0  0  0  0  0  0  0  0
   -8.0980   -0.1590    0.3240 N   0  0  0  0  0  0  0  0  0  0  0  0
   -9.1010    0.5620    1.0760 C   0  0  0  0  0  0  0  0  0  0  0  0
   -8.6340    1.3500    2.1820 C   0  0  0  0  0  0  0  0  0  0  0  0
   -8.2570    2.0010    3.0780 N   0  0  0  0  0  0  0  0  0  0  0  0
   -8.0570   -1.6230    0.4120 C   0  0  1  0  0  0  0  0  0  0  0  0
   -6.7510   -2.2700    0.7080 C   0  0  0  0  0  0  0  0  0  0  0  0
   -7.7960   -2.1900    1.7740 C   0  0  0  0  0  0  0  0  0  0  0  0
   -5.1310    1.2760   -2.0410 S   0  0  0  0  0  0  0  0  0  0  0  0
  1  2  1  0
  2  3  1  0
  3  4  1  0
  4  5  2  3
  5  6  1  0
  6  7  2  0
  6 11  1  0
  7  8  1  0
  8  9  2  0
  9 10  1  0
  9 14  1  0
 10 11  2  0
 10 12  1  0
 12 13  1  0
 13 14  1  0
 14 15  1  0
 15 16  2  0
 15 17  1  0
 17 18  1  0
 18 19  1  0
 18 23  1  0
 19 20  2  0
 20 21  1  0
 21 22  2  0
 21 38  1  0
 22 23  1  0
 22 25  1  0
 23 24  2  0
 25 26  1  0
 26 27  2  0
 26 28  1  0
 28 29  2  3
 28 38  1  0
 29 30  1  0
 29 31  1  0
 31 32  1  0
 35 31  1  1
 32 33  1  0
 33 34  3  0
 35 36  1  0
 35 37  1  0
 36 37  1  0
M  CHG  1   2   1
M  END
