
     RDKit          3D

 38 41  0  0  0  0  0  0  0  0999 V2000
   10.3540    1.5030    1.1360 C   0  0  0  0  0  0  0  0  0  0  0  0
    9.8330    0.5050    1.9960 O   0  0  0  0  0  0  0  0  0  0  0  0
    8.5310    0.0780    1.7770 C   0  0  0  0  0  0  0  0  0  0  0  0
    7.7430   -0.1950    2.8060 C   0  0  0  0  0  0  0  0  0  0  0  0
    8.2860   -0.0390    4.1480 C   0  0  0  0  0  0  0  0  0  0  0  0
    9.6340    0.3880    4.3420 N   0  0  0  0  0  0  0  0  0  0  0  0
    7.5640   -0.2810    5.1330 O   0  0  0  0  0  0  0  0  0  0  0  0
    6.3640   -0.5910    2.6240 N   0  0  0  0  0  0  0  0  0  0  0  0
    5.8970   -0.9580    1.3610 C   0  0  1  0  0  0  0  0  0  0  0  0
    4.6740   -0.4200    0.9060 O   0  0  0  0  0  0  0  0  0  0  0  0
    4.6600   -0.7150   -0.4800 C   0  0  0  0  0  0  0  0  0  0  0  0
    3.4530   -0.9230   -1.2890 C   0  0  0  0  0  0  0  0  0  0  0  0
    3.5670   -1.1830   -2.5220 O   0  0  0  0  0  0  0  0  0  0  0  0
    2.1430   -0.8470   -0.7500 N   0  0  0  0  0  0  0  0  0  0  0  0
    0.9840   -1.0430   -1.5100 N   0  0  0  0  0  0  0  0  0  0  0  0
    0.0830    0.0310   -1.7050 C   0  0  0  0  0  0  0  0  0  0  0  0
    0.3170    1.1530   -1.2050 O   0  0  0  0  0  0  0  0  0  0  0  0
   -1.1200   -0.1880   -2.4930 C   0  0  2  0  0  0  0  0  0  0  0  0
   -1.8920    1.1080   -2.8130 C   0  0  0  0  0  0  0  0  0  0  0  0
   -3.2440    0.8290   -2.9380 N   0  0  0  0  0  0  0  0  0  0  0  0
   -3.7730   -0.0990   -2.2800 C   0  0  0  0  0  0  0  0  0  0  0  0
   -5.1590   -0.5970   -2.2240 C   0  0  0  0  0  0  0  0  0  0  0  0
   -5.8790    0.1450   -1.0970 C   0  0  0  0  0  0  0  0  0  0  0  0
   -7.2290   -0.3410   -1.0400 N   0  0  0  0  0  0  0  0  0  0  0  0
   -8.0900   -0.1790   -2.1480 C   0  0  0  0  0  0  0  0  0  0  0  0
   -7.7280    0.3940   -3.2280 O   0  0  0  0  0  0  0  0  0  0  0  0
   -9.4870   -0.7020   -2.0480 C   0  0  0  0  0  0  0  0  0  0  0  0
  -10.5450    0.4330   -1.1130 S   0  0  0  0  0  0  0  0  0  0  0  0
  -10.0400    0.4840    0.5980 C   0  0  0  0  0  0  0  0  0  0  0  0
  -10.5170   -0.3690    1.5530 N   0  0  0  0  0  0  0  0  0  0  0  0
   -9.9570   -0.0980    2.7210 N   0  0  0  0  0  0  0  0  0  0  0  0
   -9.1090    0.9400    2.5240 C   0  0  0  0  0  0  0  0  0  0  0  0
   -8.4060    1.4670    3.4060 O   0  0  0  0  0  0  0  0  0  0  0  0
   -9.1690    1.2850    1.2270 N   0  0  0  0  0  0  0  0  0  0  0  0
   -2.4170   -0.8140   -1.3060 S   0  0  0  0  0  0  0  0  0  0  0  0
    5.9070   -0.7770   -0.9360 C   0  0  0  0  0  0  0  0  0  0  0  0
    6.7720   -0.5060    0.2200 C   0  0  0  0  0  0  0  0  0  0  0  0
    7.9820   -0.0930    0.4280 C   0  0  0  0  0  0  0  0  0  0  0  0
  1  2  1  0
  2  3  1  0
  3  4  2  0
  3 38  1  0
  4  5  1  0
  4  8  1  0
  5  6  1  0
  5  7  2  0
  9  8  1  1
  9 10  1  0
  9 37  1  0
 10 11  1  0
 11 12  1  0
 11 36  2  0
 12 13  2  0
 12 14  1  0
 14 15  1  0
 15 16  1  0
 16 17  2  0
 18 16  1  1
 18 19  1  0
 18 35  1  0
 19 20  1  0
 20 21  2  0
 21 22  1  0
 21 35  1  0
 22 23  1  0
 23 24  1  0
 24 25  1  0
 25 26  2  0
 25 27  1  0
 27 28  1  0
 28 29  1  0
 29 30  2  0
 29 34  1  0
 30 31  1  0
 31 32  1  0
 32 33  2  0
 32 34  1  0
 36 37  1  0
 37 38  2  0
M  END
