
     RDKit          3D

 38 42  0  0  0  0  0  0  0  0999 V2000
   -7.3160   -1.6950    1.6600 C   0  0  0  0  0  0  0  0  0  0  0  0
   -6.5320   -0.8970    0.6030 C   0  0  0  0  0  0  0  0  0  0  0  0
   -5.4310   -1.6650    0.1350 N   0  0  0  0  0  0  0  0  0  0  0  0
   -4.4300   -0.7660   -0.6470 C   0  0  2  0  0  0  0  0  0  0  0  0
   -5.1250   -0.8090   -2.0090 C   0  0  0  0  0  0  0  0  0  0  0  0
   -3.2030   -1.5980   -0.6010 C   0  0  0  0  0  0  0  0  0  0  0  0
   -3.3310   -2.9820   -0.6520 C   0  0  0  0  0  0  0  0  0  0  0  0
   -2.2640   -3.8500   -0.3840 C   0  0  0  0  0  0  0  0  0  0  0  0
   -1.0660   -3.3220   -0.0720 C   0  0  0  0  0  0  0  0  0  0  0  0
   -0.8390   -1.9400   -0.0010 C   0  0  0  0  0  0  0  0  0  0  0  0
    0.3740   -1.4200    0.2280 N   0  0  0  0  0  0  0  0  0  0  0  0
    0.5970   -0.0670    0.2040 C   0  0  0  0  0  0  0  0  0  0  0  0
    1.6830    0.4090    0.4600 N   0  0  0  0  0  0  0  0  0  0  0  0
    2.9600    0.4210    0.7960 C   0  0  0  0  0  0  0  0  0  0  0  0
    3.5090    1.3950    1.6660 N   0  0  0  0  0  0  0  0  0  0  0  0
    4.7710    1.1320    1.8520 C   0  0  0  0  0  0  0  0  0  0  0  0
    5.1310    0.0370    1.1680 N   0  0  0  0  0  0  0  0  0  0  0  0
    4.0140   -0.4200    0.5030 C   0  0  0  0  0  0  0  0  0  0  0  0
    4.0680   -1.5250   -0.4420 C   0  0  0  0  0  0  0  0  0  0  0  0
    5.0670   -2.6210   -0.2020 C   0  0  0  0  0  0  0  0  0  0  0  0
    3.2840   -1.6630   -1.4550 C   0  0  0  0  0  0  0  0  0  0  0  0
    3.3810   -2.9960   -2.5820 S   0  0  0  0  0  0  0  0  0  0  0  0
    4.2020   -2.6220   -3.8340 O   0  0  0  0  0  0  0  0  0  0  0  0
    6.5130   -0.2290    1.3440 C   0  0  0  0  0  0  0  0  0  0  0  0
    6.7960    0.3650    2.7220 C   0  0  0  0  0  0  0  0  0  0  0  0
    5.9770    1.6580    2.5840 C   0  0  0  0  0  0  0  0  0  0  0  0
   -0.5130    0.7130   -0.0740 N   0  0  0  0  0  0  0  0  0  0  0  0
   -0.3390    2.1180   -0.1700 C   0  0  0  0  0  0  0  0  0  0  0  0
    0.3150    2.9060    0.7100 C   0  0  0  0  0  0  0  0  0  0  0  0
    0.3630    4.2660    0.5420 C   0  0  0  0  0  0  0  0  0  0  0  0
   -0.2550    4.8780   -0.5260 C   0  0  0  0  0  0  0  0  0  0  0  0
   -0.2530    6.2250   -0.7550 O   0  0  0  0  0  0  0  0  0  0  0  0
   -0.8870    6.7880   -1.8580 C   0  0  0  0  0  0  0  0  0  0  0  0
   -0.9080    4.0900   -1.4060 N   0  0  0  0  0  0  0  0  0  0  0  0
   -0.9580    2.7450   -1.2490 C   0  0  0  0  0  0  0  0  0  0  0  0
   -1.7100    0.1810   -0.2960 C   0  0  0  0  0  0  0  0  0  0  0  0
   -2.6510    0.9740   -0.5500 O   0  0  0  0  0  0  0  0  0  0  0  0
   -1.9450   -1.1460   -0.2710 C   0  0  0  0  0  0  0  0  0  0  0  0
  1  2  1  0
  2  3  1  0
  3  4  1  0
  4  5  1  6
  4  6  1  0
  6  7  2  0
  6 38  1  0
  7  8  1  0
  8  9  2  0
  9 10  1  0
 10 11  1  0
 10 38  2  0
 11 12  1  0
 12 13  2  3
 12 27  1  0
 13 14  1  0
 14 15  1  0
 14 18  2  0
 15 16  2  0
 16 17  1  0
 16 26  1  0
 17 18  1  0
 17 24  1  0
 18 19  1  0
 19 20  1  0
 19 21  2  3
 21 22  1  0
 22 23  2  0
 24 25  1  0
 25 26  1  0
 27 28  1  0
 27 36  1  0
 28 29  2  0
 28 35  1  0
 29 30  1  0
 30 31  2  0
 31 32  1  0
 31 34  1  0
 32 33  1  0
 34 35  2  0
 36 37  2  0
 36 38  1  0
M  CHG  1   3   1
M  END
