
     RDKit          3D

 38 42  0  0  0  0  0  0  0  0999 V2000
   -3.4290    2.8220   -1.5100 C   0  0  0  0  0  0  0  0  0  0  0  0
   -4.2930    1.7100   -0.8160 C   0  0  2  0  0  0  0  0  0  0  0  0
   -4.3240    2.1000    0.6240 C   0  0  0  0  0  0  0  0  0  0  0  0
   -3.6030    0.4530   -1.1160 C   0  0  0  0  0  0  0  0  0  0  0  0
   -4.0860   -0.8530   -0.6160 C   0  0  2  0  0  0  0  0  0  0  0  0
   -4.1030   -0.8250    0.7980 O   0  0  0  0  0  0  0  0  0  0  0  0
   -3.0170   -1.8770   -1.0450 C   0  0  0  0  0  0  0  0  0  0  0  0
   -1.6980   -1.5800   -0.6310 N   0  0  0  0  0  0  0  0  0  0  0  0
   -1.2270   -1.5110    0.7080 C   0  0  0  0  0  0  0  0  0  0  0  0
   -2.0160   -1.7400    1.6490 O   0  0  0  0  0  0  0  0  0  0  0  0
    0.1550   -1.1790    0.9740 N   0  0  0  0  0  0  0  0  0  0  0  0
    0.6590   -1.1020    2.3020 C   0  0  0  0  0  0  0  0  0  0  0  0
    0.0230   -1.3010    3.5000 C   0  0  0  0  0  0  0  0  0  0  0  0
    0.9260   -1.1130    4.4920 N   0  0  0  0  0  0  0  0  0  0  0  0
    0.5970   -1.2440    5.9010 C   0  0  0  0  0  0  0  0  0  0  0  0
    2.0870   -0.8080    3.9580 N   0  0  0  0  0  0  0  0  0  0  0  0
    1.9670   -0.7890    2.6040 C   0  0  0  0  0  0  0  0  0  0  0  0
    3.0680   -0.4860    1.6980 C   0  0  0  0  0  0  0  0  0  0  0  0
    4.2910   -0.2020    2.2030 N   0  0  0  0  0  0  0  0  0  0  0  0
    5.3250    0.0820    1.3960 C   0  0  0  0  0  0  0  0  0  0  0  0
    5.2120    0.1020    0.0290 C   0  0  0  0  0  0  0  0  0  0  0  0
    6.3070    0.4010   -0.8030 C   0  0  0  0  0  0  0  0  0  0  0  0
    7.6180    0.7190   -0.6520 C   0  0  0  0  0  0  0  0  0  0  0  0
    8.3870    0.9460   -1.7240 C   0  0  0  0  0  0  0  0  0  0  0  0
    9.7410    1.2790   -1.6670 N   0  0  0  0  0  0  0  0  0  0  0  0
   10.4300    1.4870   -2.7830 C   0  0  0  0  0  0  0  0  0  0  0  0
    9.9240    1.4070   -4.0610 C   0  0  0  0  0  0  0  0  0  0  0  0
    8.5880    1.0800   -4.1470 C   0  0  0  0  0  0  0  0  0  0  0  0
    7.9010    0.8700   -2.9740 C   0  0  0  0  0  0  0  0  0  0  0  0
    6.1680    0.4310   -2.6660 S   0  0  0  0  0  0  0  0  0  0  0  0
    3.9690   -0.1870   -0.4860 C   0  0  0  0  0  0  0  0  0  0  0  0
    2.9540   -0.4670    0.3700 N   0  0  0  0  0  0  0  0  0  0  0  0
   -5.3630   -1.3880   -1.1480 C   0  0  0  0  0  0  0  0  0  0  0  0
   -6.5950   -0.6620   -0.8840 C   0  0  0  0  0  0  0  0  0  0  0  0
   -7.8030   -1.0090   -1.5210 C   0  0  0  0  0  0  0  0  0  0  0  0
   -8.7800   -0.1580   -1.0700 C   0  0  0  0  0  0  0  0  0  0  0  0
   -8.1530    0.6780   -0.1790 C   0  0  0  0  0  0  0  0  0  0  0  0
   -6.8990    0.3310   -0.1220 O   0  0  0  0  0  0  0  0  0  0  0  0
  2  1  1  6
  2  3  1  0
  2  4  1  0
  4  5  1  0
  5  6  1  1
  5  7  1  0
  5 33  1  0
  7  8  1  0
  8  9  1  0
  9 10  2  0
  9 11  1  0
 11 12  1  0
 12 13  2  0
 12 17  1  0
 13 14  1  0
 14 15  1  0
 14 16  1  0
 16 17  2  0
 17 18  1  0
 18 19  2  0
 18 32  1  0
 19 20  1  0
 20 21  2  0
 21 22  1  0
 21 31  1  0
 22 23  2  0
 22 30  1  0
 23 24  1  0
 24 25  2  0
 24 29  1  0
 25 26  1  0
 26 27  2  0
 27 28  1  0
 28 29  2  0
 29 30  1  0
 31 32  2  0
 33 34  1  0
 34 35  2  0
 34 38  1  0
 35 36  1  0
 36 37  2  0
 37 38  1  0
M  CHG  1  16   1
M  END
