
     RDKit          3D

 37 38  0  0  0  0  0  0  0  0999 V2000
   -0.0000    7.4300   -1.9170 C   0  0  0  0  0  0  0  0  0  0  0  0
   -1.0050    6.3130   -1.7540 C   0  0  0  0  0  0  0  0  0  0  0  0
   -0.6950    5.5010   -0.5340 C   0  0  1  0  0  0  0  0  0  0  0  0
   -0.7330    6.3510    0.7290 C   0  0  0  0  0  0  0  0  0  0  0  0
   -1.5250    4.3770   -0.4240 O   0  0  0  0  0  0  0  0  0  0  0  0
   -1.0420    3.0520   -0.3750 C   0  0  0  0  0  0  0  0  0  0  0  0
    0.1780    2.9360   -0.4360 O   0  0  0  0  0  0  0  0  0  0  0  0
   -2.0240    1.9680   -0.2570 C   0  0  0  0  0  0  0  0  0  0  0  0
   -3.3660    2.2870   -0.4410 C   0  0  0  0  0  0  0  0  0  0  0  0
   -4.3900    1.3720   -0.3860 C   0  0  0  0  0  0  0  0  0  0  0  0
   -5.7110    1.7470   -0.5790 O   0  0  0  0  0  0  0  0  0  0  0  0
   -4.0580    0.0390   -0.1290 C   0  0  0  0  0  0  0  0  0  0  0  0
   -5.0170   -0.9320   -0.0530 O   0  0  0  0  0  0  0  0  0  0  0  0
   -4.8450   -2.2890    0.2080 C   0  0  0  0  0  0  0  0  0  0  0  0
   -6.1710   -2.9770    0.2030 C   0  0  0  0  0  0  0  0  0  0  0  0
   -7.1640   -2.3010   -0.0580 O   0  0  0  0  0  0  0  0  0  0  0  0
   -6.3400   -4.4100    0.4950 C   0  0  2  0  0  0  0  0  0  0  0  0
   -5.8400   -4.6750    1.9190 C   0  0  0  0  0  0  0  0  0  0  0  0
   -5.5650   -5.3100   -0.4470 C   0  0  0  0  0  0  0  0  0  0  0  0
   -6.0870   -5.0190   -1.8530 C   0  0  0  0  0  0  0  0  0  0  0  0
   -2.7390   -0.2940    0.0550 C   0  0  0  0  0  0  0  0  0  0  0  0
   -1.7010    0.6550   -0.0050 C   0  0  0  0  0  0  0  0  0  0  0  0
   -0.3200    0.2610    0.2240 C   0  0  0  0  0  0  0  0  0  0  0  0
    0.2280    0.5130    1.5770 C   0  0  0  0  0  0  0  0  0  0  0  0
    1.6710    0.0850    1.6820 C   0  0  0  0  0  0  0  0  0  0  0  0
    2.3030    0.1770    2.7640 O   0  0  0  0  0  0  0  0  0  0  0  0
    2.3440   -0.4200    0.5840 O   0  0  0  0  0  0  0  0  0  0  0  0
    3.6870   -0.8450    0.5690 C   0  0  1  0  0  0  0  0  0  0  0  0
    3.6600   -2.3180    0.1900 C   0  0  0  0  0  0  0  0  0  0  0  0
    4.4840   -0.1370   -0.5080 C   0  0  0  0  0  0  0  0  0  0  0  0
    5.8800   -0.6390   -0.4520 C   0  0  0  0  0  0  0  0  0  0  0  0
    6.3210   -1.7080   -1.1830 C   0  0  0  0  0  0  0  0  0  0  0  0
    7.6240   -2.1500   -1.1080 C   0  0  0  0  0  0  0  0  0  0  0  0
    8.5320   -1.5300   -0.2910 C   0  0  0  0  0  0  0  0  0  0  0  0
    9.9500   -1.9710   -0.1730 C   0  0  0  0  0  0  0  0  0  0  0  0
    8.1240   -0.4550    0.4560 C   0  0  0  0  0  0  0  0  0  0  0  0
    6.8060   -0.0030    0.3830 C   0  0  0  0  0  0  0  0  0  0  0  0
  1  2  1  0
  2  3  1  0
  3  4  1  1
  3  5  1  0
  5  6  1  0
  6  7  2  0
  6  8  1  0
  8  9  2  0
  8 22  1  0
  9 10  1  0
 10 11  1  0
 10 12  2  0
 12 13  1  0
 12 21  1  0
 13 14  1  0
 14 15  1  0
 15 16  2  0
 15 17  1  0
 17 18  1  1
 17 19  1  0
 19 20  1  0
 21 22  2  0
 22 23  1  0
 23 24  1  0
 24 25  1  0
 25 26  2  0
 25 27  1  0
 27 28  1  0
 28 29  1  6
 28 30  1  0
 30 31  1  0
 31 32  2  0
 31 37  1  0
 32 33  1  0
 33 34  2  0
 34 35  1  0
 34 36  1  0
 36 37  2  0
M  END
