
     RDKit          3D

 37 40  0  0  0  0  0  0  0  0999 V2000
    2.8080   -1.7740    1.7830 O   0  0  0  0  0  0  0  0  0  0  0  0
    2.9890   -0.9610    0.8620 C   0  0  0  0  0  0  0  0  0  0  0  0
    4.0800   -1.0570   -0.0240 N   0  0  0  0  0  0  0  0  0  0  0  0
    5.0680   -2.0360    0.0070 C   0  0  0  0  0  0  0  0  0  0  0  0
    6.1010   -1.9580   -0.9340 C   0  0  0  0  0  0  0  0  0  0  0  0
    7.1100   -2.8940   -0.9600 C   0  0  0  0  0  0  0  0  0  0  0  0
    7.1410   -3.9370   -0.0680 C   0  0  0  0  0  0  0  0  0  0  0  0
    8.4300   -5.1420   -0.0950 Cl  0  0  0  0  0  0  0  0  0  0  0  0
    6.1470   -4.0400    0.8610 C   0  0  0  0  0  0  0  0  0  0  0  0
    5.1340   -3.0830    0.8740 C   0  0  0  0  0  0  0  0  0  0  0  0
    2.0040    0.1780    0.6770 C   0  0  1  0  0  0  0  0  0  0  0  0
    2.7030    1.4890    0.8120 C   0  0  0  0  0  0  0  0  0  0  0  0
    2.3420    2.3190   -0.2950 N   0  0  2  0  0  0  0  0  0  0  0  0
    1.6470    3.5010    0.1460 C   0  0  0  0  0  0  0  0  0  0  0  0
    2.6560    4.5840    0.4710 C   0  0  2  0  0  0  0  0  0  0  0  0
    3.4830    4.1360    1.4620 F   0  0  0  0  0  0  0  0  0  0  0  0
    1.9630    5.7380    0.8370 F   0  0  0  0  0  0  0  0  0  0  0  0
    3.3820    4.9060   -0.6540 F   0  0  0  0  0  0  0  0  0  0  0  0
    1.6060    1.5380   -1.2450 C   0  0  0  0  0  0  0  0  0  0  0  0
    1.5720    0.1230   -0.7680 C   0  0  2  0  0  0  0  0  0  0  0  0
    0.1220   -0.3180   -0.7640 C   0  0  0  0  0  0  0  0  0  0  0  0
   -0.2010   -1.3500   -1.3400 O   0  0  0  0  0  0  0  0  0  0  0  0
   -0.7700    0.5120   -0.0830 N   0  0  0  0  0  0  0  0  0  0  0  0
   -2.1480    0.2600    0.0230 C   0  0  0  0  0  0  0  0  0  0  0  0
   -2.7640   -0.8240   -0.5270 C   0  0  0  0  0  0  0  0  0  0  0  0
   -4.1490   -1.0290   -0.3910 C   0  0  0  0  0  0  0  0  0  0  0  0
   -4.9580   -0.1580    0.2990 C   0  0  0  0  0  0  0  0  0  0  0  0
   -6.3560   -0.3700    0.4350 N   0  0  0  0  0  0  0  0  0  0  0  0
   -6.9150   -1.1060    1.4090 C   0  0  0  0  0  0  0  0  0  0  0  0
   -8.2770   -1.2970    1.5210 C   0  0  0  0  0  0  0  0  0  0  0  0
   -9.1090   -0.7140    0.6020 C   0  0  0  0  0  0  0  0  0  0  0  0
   -8.5560    0.0400   -0.3990 C   0  0  0  0  0  0  0  0  0  0  0  0
   -7.1740    0.2010   -0.4660 C   0  0  0  0  0  0  0  0  0  0  0  0
   -6.7410    0.9090   -1.4140 O   0  0  0  0  0  0  0  0  0  0  0  0
   -4.3390    0.9370    0.8570 C   0  0  0  0  0  0  0  0  0  0  0  0
   -2.9870    1.1410    0.7260 C   0  0  0  0  0  0  0  0  0  0  0  0
   -2.3830    2.2310    1.2830 F   0  0  0  0  0  0  0  0  0  0  0  0
  1  2  2  0
  2  3  1  0
 11  2  1  6
  3  4  1  0
  4  5  2  0
  4 10  1  0
  5  6  1  0
  6  7  2  0
  7  8  1  0
  7  9  1  0
  9 10  2  0
 11 12  1  0
 11 20  1  0
 12 13  1  0
 13 14  1  1
 13 19  1  0
 14 15  1  0
 15 16  1  1
 15 17  1  0
 15 18  1  0
 19 20  1  0
 20 21  1  1
 21 22  2  0
 21 23  1  0
 23 24  1  0
 24 25  2  0
 24 36  1  0
 25 26  1  0
 26 27  2  0
 27 28  1  0
 27 35  1  0
 28 29  1  0
 28 33  1  0
 29 30  2  0
 30 31  1  0
 31 32  2  0
 32 33  1  0
 33 34  2  0
 35 36  2  0
 36 37  1  0
M  CHG  1  13   1
M  END
