
     RDKit          3D

 37 38  0  0  0  0  0  0  0  0999 V2000
   -6.6880   -0.5590   -2.4470 C   0  0  0  0  0  0  0  0  0  0  0  0
   -5.9140   -0.1020   -1.5110 C   0  0  0  0  0  0  0  0  0  0  0  0
   -6.4650    0.6320   -0.4630 O   0  0  0  0  0  0  0  0  0  0  0  0
   -7.5070    0.0640    0.3300 C   0  0  0  0  0  0  0  0  0  0  0  0
   -4.4570   -0.3320   -1.5120 C   0  0  0  0  0  0  0  0  0  0  0  0
   -3.8890   -1.1430   -2.6100 C   0  0  0  0  0  0  0  0  0  0  0  0
   -3.7430    0.1660   -0.5310 C   0  0  0  0  0  0  0  0  0  0  0  0
   -2.3010   -0.0320   -0.4890 C   0  0  0  0  0  0  0  0  0  0  0  0
   -1.4700    0.1310   -1.5350 C   0  0  0  0  0  0  0  0  0  0  0  0
   -0.0840   -0.1000   -1.4270 C   0  0  0  0  0  0  0  0  0  0  0  0
    0.6690    0.2720   -2.6170 C   0  0  0  0  0  0  0  0  0  0  0  0
    0.7150    1.7560   -2.8040 C   0  0  0  0  0  0  0  0  0  0  0  0
    1.2980    2.6230   -1.7760 C   0  0  0  0  0  0  0  0  0  0  0  0
    1.1290    4.0560   -2.2480 C   0  0  0  0  0  0  0  0  0  0  0  0
    0.5340    4.2680   -3.3180 O   0  0  0  0  0  0  0  0  0  0  0  0
    1.6190    5.1260   -1.5260 O   0  0  0  0  0  0  0  0  0  0  0  0
    1.4550    6.4670   -1.9810 C   0  0  0  0  0  0  0  0  0  0  0  0
    0.4900   -0.5070   -0.2460 C   0  0  0  0  0  0  0  0  0  0  0  0
    1.8880   -0.8640   -0.1020 C   0  0  0  0  0  0  0  0  0  0  0  0
    2.9280    0.1740   -0.0590 C   0  0  0  0  0  0  0  0  0  0  0  0
    4.3010   -0.4910    0.2180 C   0  0  1  0  0  0  0  0  0  0  0  0
    4.2570   -1.1870    1.5570 C   0  0  0  0  0  0  0  0  0  0  0  0
    4.5750   -1.4470   -0.8810 C   0  0  0  0  0  0  0  0  0  0  0  0
    5.8620   -2.1550   -0.8370 C   0  0  0  0  0  0  0  0  0  0  0  0
    6.8350   -2.0650    0.0130 C   0  0  0  0  0  0  0  0  0  0  0  0
    8.0580   -2.9280   -0.1940 C   0  0  0  0  0  0  0  0  0  0  0  0
   -0.3890   -0.6650    0.8130 C   0  0  0  0  0  0  0  0  0  0  0  0
   -1.7610   -0.4350    0.7110 C   0  0  0  0  0  0  0  0  0  0  0  0
   -2.4950   -0.6350    1.8610 O   0  0  0  0  0  0  0  0  0  0  0  0
   -2.0020   -0.2750    3.1440 C   0  0  1  0  0  0  0  0  0  0  0  0
   -2.8790   -0.8230    4.1890 C   0  0  0  0  0  0  0  0  0  0  0  0
   -3.8940   -1.4770    3.8410 O   0  0  0  0  0  0  0  0  0  0  0  0
   -2.6770   -0.6760    5.5550 O   0  0  0  0  0  0  0  0  0  0  0  0
   -3.5730   -1.2350    6.5150 C   0  0  0  0  0  0  0  0  0  0  0  0
   -0.5620   -0.5950    3.3590 C   0  0  0  0  0  0  0  0  0  0  0  0
    0.0720   -1.1100    2.1000 C   0  0  0  0  0  0  0  0  0  0  0  0
    0.9820   -1.9150    2.2160 O   0  0  0  0  0  0  0  0  0  0  0  0
  1  2  2  0
  2  3  1  0
  2  5  1  0
  3  4  1  0
  5  6  1  0
  5  7  2  3
  7  8  1  0
  8  9  2  0
  8 28  1  0
  9 10  1  0
 10 11  1  0
 10 18  2  0
 11 12  1  0
 12 13  1  0
 13 14  1  0
 14 15  2  0
 14 16  1  0
 16 17  1  0
 18 19  1  0
 18 27  1  0
 19 20  1  0
 20 21  1  0
 21 22  1  1
 21 23  1  0
 23 24  1  0
 24 25  2  3
 25 26  1  0
 27 28  2  0
 27 36  1  0
 28 29  1  0
 29 30  1  0
 30 31  1  1
 30 35  1  0
 31 32  2  0
 31 33  1  0
 33 34  1  0
 35 36  1  0
 36 37  2  0
M  END
