
     RDKit          3D

 37 38  0  0  0  0  0  0  0  0999 V2000
    6.1260    2.6840   -0.8040 C   0  0  0  0  0  0  0  0  0  0  0  0
    6.2330    2.1560    0.6180 C   0  0  0  0  0  0  0  0  0  0  0  0
    4.9760    1.5080    1.0410 C   0  0  0  0  0  0  0  0  0  0  0  0
    3.7860    2.4120    1.2220 C   0  0  0  0  0  0  0  0  0  0  0  0
    4.8930    0.2120    1.3430 C   0  0  0  0  0  0  0  0  0  0  0  0
    6.1460   -0.6100    1.2520 C   0  0  0  0  0  0  0  0  0  0  0  0
    3.6330   -0.4400    1.5950 C   0  0  0  0  0  0  0  0  0  0  0  0
    2.4090    0.2940    1.4010 O   0  0  0  0  0  0  0  0  0  0  0  0
    1.8420    0.0570    0.1410 C   0  0  0  0  0  0  0  0  0  0  0  0
    0.5340    0.7870   -0.0570 C   0  0  0  0  0  0  0  0  0  0  0  0
    0.1480    1.5370    0.8250 O   0  0  0  0  0  0  0  0  0  0  0  0
   -0.1220    0.5650   -1.1860 O   0  0  0  0  0  0  0  0  0  0  0  0
   -1.3700    1.0550   -1.6910 C   0  0  1  0  0  0  0  0  0  0  0  0
   -0.8730    1.9400   -2.8750 C   0  0  0  0  0  0  0  0  0  0  0  0
   -1.9900   -0.1690   -2.2610 C   0  0  0  0  0  0  0  0  0  0  0  0
   -1.3900   -0.6840   -3.4180 C   0  0  0  0  0  0  0  0  0  0  0  0
   -1.7610   -1.8990   -3.9740 C   0  0  0  0  0  0  0  0  0  0  0  0
   -2.7460   -2.6470   -3.3970 C   0  0  0  0  0  0  0  0  0  0  0  0
   -3.1750   -3.9520   -3.8860 C   0  0  0  0  0  0  0  0  0  0  0  0
   -2.5900   -4.4980   -4.9370 C   0  0  0  0  0  0  0  0  0  0  0  0
   -3.0140   -5.8090   -5.4310 C   0  0  0  0  0  0  0  0  0  0  0  0
   -3.9170   -6.4820   -4.8980 O   0  0  0  0  0  0  0  0  0  0  0  0
   -3.3370   -2.1240   -2.2530 C   0  0  0  0  0  0  0  0  0  0  0  0
   -2.9710   -0.8880   -1.6750 C   0  0  0  0  0  0  0  0  0  0  0  0
   -3.7550   -0.4530   -0.5690 C   0  0  0  0  0  0  0  0  0  0  0  0
   -4.6760   -1.2470   -0.1550 O   0  0  0  0  0  0  0  0  0  0  0  0
   -3.6720    0.7140    0.1200 O   0  0  0  0  0  0  0  0  0  0  0  0
   -4.5690    1.0290    1.1740 C   0  0  2  0  0  0  0  0  0  0  0  0
   -5.2330    2.3500    1.1370 C   0  0  0  0  0  0  0  0  0  0  0  0
   -4.9880    2.4950    2.6200 C   0  0  2  0  0  0  0  0  0  0  0  0
   -4.3370    3.6610    2.9950 O   0  0  0  0  0  0  0  0  0  0  0  0
   -3.9390    1.3690    2.4710 C   0  0  2  0  0  0  0  0  0  0  0  0
   -2.5610    1.9240    2.3500 C   0  0  0  0  0  0  0  0  0  0  0  0
   -4.0980    0.3150    3.5610 C   0  0  0  0  0  0  0  0  0  0  0  0
    3.4580   -1.6770    1.9820 C   0  0  0  0  0  0  0  0  0  0  0  0
    4.4070   -2.7430    2.2730 C   0  0  0  0  0  0  0  0  0  0  0  0
    1.9970   -2.0990    2.1980 C   0  0  0  0  0  0  0  0  0  0  0  0
  1  2  1  0
  2  3  1  0
  3  4  1  0
  3  5  2  3
  5  6  1  0
  5  7  1  0
  7  8  1  0
  7 35  2  3
  8  9  1  0
  9 10  1  0
 10 11  2  0
 10 12  1  0
 12 13  1  0
 13 14  1  6
 13 15  1  0
 15 16  2  0
 15 24  1  0
 16 17  1  0
 17 18  2  0
 18 19  1  0
 18 23  1  0
 19 20  2  3
 20 21  1  0
 21 22  2  0
 23 24  2  0
 24 25  1  0
 25 26  2  0
 25 27  1  0
 28 27  1  6
 28 29  1  0
 28 32  1  0
 29 30  1  0
 30 31  1  6
 30 32  1  0
 32 33  1  6
 32 34  1  0
 35 36  1  0
 35 37  1  0
M  END
