
     RDKit          3D

 37 38  0  0  0  0  0  0  0  0999 V2000
    6.7170   -0.8360    2.7770 C   0  0  0  0  0  0  0  0  0  0  0  0
    5.5210   -0.1050    3.3640 C   0  0  0  0  0  0  0  0  0  0  0  0
    4.7220    0.5580    2.2360 C   0  0  2  0  0  0  0  0  0  0  0  0
    4.3050   -0.4840    1.3750 O   0  0  0  0  0  0  0  0  0  0  0  0
    2.9740   -0.7710    1.1390 C   0  0  0  0  0  0  0  0  0  0  0  0
    2.1320   -0.0800    1.7100 O   0  0  0  0  0  0  0  0  0  0  0  0
    2.5860   -1.9100    0.2070 C   0  0  0  0  0  0  0  0  0  0  0  0
    3.6860   -2.5820   -0.3780 C   0  0  0  0  0  0  0  0  0  0  0  0
    4.8730   -2.1440    0.0390 O   0  0  0  0  0  0  0  0  0  0  0  0
    3.8120   -3.6480   -1.3430 C   0  0  1  0  0  0  0  0  0  0  0  0
    3.2750   -3.2250   -2.7090 C   0  0  0  0  0  0  0  0  0  0  0  0
    5.3150   -3.9850   -1.5730 C   0  0  0  0  0  0  0  0  0  0  0  0
    1.3080   -2.1180    0.0470 C   0  0  0  0  0  0  0  0  0  0  0  0
    0.7940   -3.2160   -0.8500 C   0  0  0  0  0  0  0  0  0  0  0  0
    0.3920   -1.4010    0.6440 O   0  0  0  0  0  0  0  0  0  0  0  0
   -0.5120   -0.6780    1.2400 C   0  0  2  0  0  0  0  0  0  0  0  0
   -1.8410   -1.4840    1.2790 C   0  0  0  0  0  0  0  0  0  0  0  0
   -2.4620   -1.1170   -0.0340 C   0  0  0  0  0  0  0  0  0  0  0  0
   -2.1060    0.3070   -0.3210 C   0  0  1  0  0  0  0  0  0  0  0  0
   -1.7310    0.4740   -1.7620 C   0  0  0  0  0  0  0  0  0  0  0  0
   -2.7290    0.1570   -2.7990 C   0  0  1  0  0  0  0  0  0  0  0  0
   -3.2570   -1.2260   -2.8930 C   0  0  0  0  0  0  0  0  0  0  0  0
   -3.8720    1.1870   -2.8240 C   0  0  0  0  0  0  0  0  0  0  0  0
   -3.1910    1.1110   -0.0910 O   0  0  0  0  0  0  0  0  0  0  0  0
   -3.7540    1.1650    1.1300 C   0  0  0  0  0  0  0  0  0  0  0  0
   -4.8890    2.1550    1.0410 C   0  0  0  0  0  0  0  0  0  0  0  0
   -6.0480    1.8750    1.7200 C   0  0  0  0  0  0  0  0  0  0  0  0
   -7.1440    2.7190    1.7010 C   0  0  0  0  0  0  0  0  0  0  0  0
   -7.0740    3.8860    0.9740 C   0  0  0  0  0  0  0  0  0  0  0  0
   -8.2360    4.8280    0.9140 C   0  0  0  0  0  0  0  0  0  0  0  0
   -5.9020    4.1530    0.2970 C   0  0  0  0  0  0  0  0  0  0  0  0
   -4.8030    3.2990    0.3200 C   0  0  0  0  0  0  0  0  0  0  0  0
   -0.9100    0.6240    0.5220 C   0  0  0  0  0  0  0  0  0  0  0  0
    5.6260    1.5290    1.5810 C   0  0  0  0  0  0  0  0  0  0  0  0
    6.0280    2.4910    2.2830 O   0  0  0  0  0  0  0  0  0  0  0  0
    6.0510    1.4550    0.2740 O   0  0  0  0  0  0  0  0  0  0  0  0
    6.9240    2.4620   -0.2320 C   0  0  0  0  0  0  0  0  0  0  0  0
  1  2  1  0
  3  2  1  1
  3  4  1  0
  3 34  1  0
  4  5  1  0
  5  6  2  0
  5  7  1  0
  7  8  1  0
  7 13  2  3
  8  9  2  0
  8 10  1  0
 10 11  1  6
 10 12  1  0
 13 14  1  0
 13 15  1  0
 16 15  1  6
 16 17  1  0
 16 33  1  0
 17 18  1  0
 18 19  1  0
 19 20  1  6
 19 24  1  0
 19 33  1  0
 20 21  1  0
 21 22  1  1
 21 23  1  0
 24 25  1  0
 25 26  1  0
 26 27  2  0
 26 32  1  0
 27 28  1  0
 28 29  2  0
 29 30  1  0
 29 31  1  0
 31 32  2  0
 34 35  2  0
 34 36  1  0
 36 37  1  0
M  END
