
     RDKit          3D

 21 23  0  0  0  0  0  0  0  0999 V2000
   -5.7150   -0.4350    0.1930 C   0  0  0  0  0  0  0  0  0  0  0  0
   -4.2350   -0.3360    0.1630 C   0  0  0  0  0  0  0  0  0  0  0  0
   -3.5740    0.8450    0.4610 C   0  0  0  0  0  0  0  0  0  0  0  0
   -2.2080    0.9530    0.4350 C   0  0  0  0  0  0  0  0  0  0  0  0
   -1.6210    2.2460    0.8870 C   0  0  0  0  0  0  0  0  0  0  0  0
   -1.4180   -0.1460    0.1020 C   0  0  0  0  0  0  0  0  0  0  0  0
   -0.0010    0.1210   -0.1020 C   0  0  1  0  0  0  0  0  0  0  0  0
    0.8190    0.1050    1.1990 C   0  0  0  0  0  0  0  0  0  0  0  0
    2.0310    1.0140    0.7750 C   0  0  0  0  0  0  0  0  0  0  0  0
    2.8200    0.0590   -0.0720 C   0  0  0  0  0  0  0  0  0  0  0  0
    4.1900    0.0530   -0.0760 C   0  0  0  0  0  0  0  0  0  0  0  0
    4.8530    1.0610    0.6510 N   0  0  0  0  0  0  0  0  0  0  0  0
    4.9010   -0.9120   -0.8110 C   0  0  0  0  0  0  0  0  0  0  0  0
    4.1500   -1.8290   -1.5100 C   0  0  0  0  0  0  0  0  0  0  0  0
    4.7550   -2.7380   -2.2000 O   0  0  0  0  0  0  0  0  0  0  0  0
    2.8430   -1.8010   -1.4930 O   0  0  0  0  0  0  0  0  0  0  0  0
    2.1370   -0.8960   -0.8040 C   0  0  0  0  0  0  0  0  0  0  0  0
    0.6670   -1.0190   -0.9040 C   0  0  0  0  0  0  0  0  0  0  0  0
   -2.0510   -1.3310   -0.1940 C   0  0  0  0  0  0  0  0  0  0  0  0
   -3.4530   -1.4390   -0.1710 C   0  0  0  0  0  0  0  0  0  0  0  0
   -4.0960   -2.5950   -0.4790 F   0  0  0  0  0  0  0  0  0  0  0  0
  1  2  1  0
  2  3  2  0
  2 20  1  0
  3  4  1  0
  4  5  1  0
  4  6  2  0
  7  6  1  1
  6 19  1  0
  7  8  1  0
  7 18  1  0
  8  9  1  0
  9 10  1  0
 10 11  1  0
 10 17  2  0
 11 12  1  0
 11 13  2  0
 13 14  1  0
 14 15  2  0
 14 16  1  0
 16 17  1  0
 17 18  1  0
 19 20  2  0
 20 21  1  0
M  END
