
     RDKit          3D

 21 23  0  0  0  0  0  0  0  0999 V2000
   -2.7050    2.1450    0.8050 C   0  0  0  0  0  0  0  0  0  0  0  0
   -2.1570    1.1910   -0.1740 C   0  0  0  0  0  0  0  0  0  0  0  0
   -2.2900   -0.0910   -0.2230 C   0  0  0  0  0  0  0  0  0  0  0  0
   -2.9960   -0.9960    0.6440 C   0  0  0  0  0  0  0  0  0  0  0  0
   -3.1530   -0.9560    1.9440 C   0  0  0  0  0  0  0  0  0  0  0  0
   -2.6220    0.0220    2.6870 F   0  0  0  0  0  0  0  0  0  0  0  0
   -3.5420   -2.0260   -0.1610 O   0  0  0  0  0  0  0  0  0  0  0  0
   -2.9620   -1.9250   -1.4280 C   0  0  0  0  0  0  0  0  0  0  0  0
   -1.7570   -1.0220   -1.2780 C   0  0  2  0  0  0  0  0  0  0  0  0
   -0.6110   -1.8470   -0.7430 C   0  0  0  0  0  0  0  0  0  0  0  0
    0.5250   -1.0080   -0.2860 C   0  0  0  0  0  0  0  0  0  0  0  0
    1.5480   -0.6460   -1.1400 C   0  0  0  0  0  0  0  0  0  0  0  0
    2.6120    0.1340   -0.7300 C   0  0  0  0  0  0  0  0  0  0  0  0
    3.6410    0.5030   -1.5730 C   0  0  0  0  0  0  0  0  0  0  0  0
    4.7040    1.2820   -1.1680 C   0  0  0  0  0  0  0  0  0  0  0  0
    4.7050    1.6920    0.1510 C   0  0  0  0  0  0  0  0  0  0  0  0
    3.7110    1.3610    1.0470 C   0  0  0  0  0  0  0  0  0  0  0  0
    2.6710    0.5770    0.5760 C   0  0  0  0  0  0  0  0  0  0  0  0
    1.6370    0.2030    1.4140 C   0  0  0  0  0  0  0  0  0  0  0  0
    1.7050    0.6150    2.6020 O   0  0  0  0  0  0  0  0  0  0  0  0
    0.6090   -0.5630    0.9790 N   0  0  0  0  0  0  0  0  0  0  0  0
  1  2  1  0
  2  3  2  3
  3  4  1  0
  3  9  1  0
  4  5  2  3
  4  7  1  0
  5  6  1  0
  7  8  1  0
  8  9  1  0
  9 10  1  1
 10 11  1  0
 11 12  2  0
 11 21  1  0
 12 13  1  0
 13 14  2  0
 13 18  1  0
 14 15  1  0
 15 16  2  0
 16 17  1  0
 17 18  2  0
 18 19  1  0
 19 20  2  0
 19 21  1  0
M  END
