
     RDKit          3D

 26 28  0  0  0  0  0  0  0  0999 V2000
    3.1670   -1.9340    4.3030 C   0  0  0  0  0  0  0  0  0  0  0  0
    2.3420   -1.4320    3.1600 C   0  0  0  0  0  0  0  0  0  0  0  0
    2.9240   -0.9550    2.0090 C   0  0  0  0  0  0  0  0  0  0  0  0
    2.1590   -0.4810    0.9280 C   0  0  0  0  0  0  0  0  0  0  0  0
    2.8070    0.0730   -0.1990 N   0  0  0  0  0  0  0  0  0  0  0  0
    4.1650   -0.0570   -0.5650 C   0  0  0  0  0  0  0  0  0  0  0  0
    4.9430   -0.7240    0.1270 O   0  0  0  0  0  0  0  0  0  0  0  0
    4.6820    0.6100   -1.7930 C   0  0  0  0  0  0  0  0  0  0  0  0
    4.1720    1.3560   -2.7160 C   0  0  0  0  0  0  0  0  0  0  0  0
    2.8610    1.8380   -2.9040 O   0  0  0  0  0  0  0  0  0  0  0  0
    5.3950    1.5050   -3.4490 C   0  0  0  0  0  0  0  0  0  0  0  0
    6.0000    0.6570   -2.4100 C   0  0  0  0  0  0  0  0  0  0  0  0
    0.7850   -0.4790    0.9840 C   0  0  0  0  0  0  0  0  0  0  0  0
   -0.1020   -0.0750   -0.0940 C   0  0  0  0  0  0  0  0  0  0  0  0
    0.3550    0.2730   -1.2080 O   0  0  0  0  0  0  0  0  0  0  0  0
   -1.5210   -0.0380    0.0130 N   0  0  0  0  0  0  0  0  0  0  0  0
   -2.3050    0.3880   -1.1500 C   0  0  0  0  0  0  0  0  0  0  0  0
   -3.7420    0.3680   -0.8680 C   0  0  0  0  0  0  0  0  0  0  0  0
   -4.5930   -0.3800   -1.5510 C   0  0  0  0  0  0  0  0  0  0  0  0
   -6.0440   -0.4440   -1.3180 C   0  0  0  0  0  0  0  0  0  0  0  0
   -6.4780    0.1530   -0.0220 C   0  0  0  0  0  0  0  0  0  0  0  0
   -5.3370    0.3790    0.9430 C   0  0  0  0  0  0  0  0  0  0  0  0
   -4.2790    1.2280    0.2410 C   0  0  0  0  0  0  0  0  0  0  0  0
    0.2040   -0.9680    2.1660 C   0  0  0  0  0  0  0  0  0  0  0  0
    0.9750   -1.4260    3.2130 C   0  0  0  0  0  0  0  0  0  0  0  0
    0.2160   -2.0290    4.6720 Cl  0  0  0  0  0  0  0  0  0  0  0  0
  1  2  1  0
  2  3  2  0
  2 25  1  0
  3  4  1  0
  4  5  1  0
  4 13  2  0
  5  6  1  0
  6  7  2  0
  6  8  1  0
  8  9  2  0
  8 12  1  0
  9 10  1  0
  9 11  1  0
 11 12  1  0
 13 14  1  0
 13 24  1  0
 14 15  2  0
 14 16  1  0
 16 17  1  0
 17 18  1  0
 18 19  2  0
 18 23  1  0
 19 20  1  0
 20 21  1  0
 21 22  1  0
 22 23  1  0
 24 25  2  0
 25 26  1  0
M  END
