
     RDKit          3D

 21 23  0  0  0  0  0  0  0  0999 V2000
   -5.2690    0.1820   -0.4800 C   0  0  0  0  0  0  0  0  0  0  0  0
   -3.7870    0.1550   -0.3150 C   0  0  0  0  0  0  0  0  0  0  0  0
   -2.9410   -0.1380   -1.3590 C   0  0  0  0  0  0  0  0  0  0  0  0
   -1.5600   -0.1780   -1.2600 C   0  0  0  0  0  0  0  0  0  0  0  0
   -0.7640   -0.4870   -2.3320 C   0  0  0  0  0  0  0  0  0  0  0  0
   -1.3150   -0.7340   -3.4510 O   0  0  0  0  0  0  0  0  0  0  0  0
    0.5730   -0.5330   -2.2280 N   0  0  0  0  0  0  0  0  0  0  0  0
    1.1500   -0.2700   -1.0390 C   0  0  0  0  0  0  0  0  0  0  0  0
    2.5250   -0.2970   -0.8910 C   0  0  0  0  0  0  0  0  0  0  0  0
    3.1780   -0.0290    0.2900 C   0  0  0  0  0  0  0  0  0  0  0  0
    4.6600   -0.0340    0.3620 C   0  0  2  0  0  0  0  0  0  0  0  0
    5.2120   -0.8200   -0.7930 C   0  0  0  0  0  0  0  0  0  0  0  0
    5.1170   -0.4070    1.6040 O   0  0  0  0  0  0  0  0  0  0  0  0
    2.3840    0.2800    1.3630 C   0  0  0  0  0  0  0  0  0  0  0  0
    2.9600    0.5490    2.5380 F   0  0  0  0  0  0  0  0  0  0  0  0
    0.9960    0.3250    1.2840 C   0  0  0  0  0  0  0  0  0  0  0  0
    0.3930    0.0500    0.0870 C   0  0  0  0  0  0  0  0  0  0  0  0
   -0.9980    0.0940   -0.0330 C   0  0  0  0  0  0  0  0  0  0  0  0
   -1.7960    0.3980    1.0700 C   0  0  0  0  0  0  0  0  0  0  0  0
   -3.1770    0.4210    0.9020 C   0  0  0  0  0  0  0  0  0  0  0  0
   -4.0630    0.7290    2.0540 C   0  0  0  0  0  0  0  0  0  0  0  0
  1  2  1  0
  2  3  2  0
  2 20  1  0
  3  4  1  0
  4  5  1  0
  4 18  2  0
  5  6  2  0
  5  7  1  0
  7  8  1  0
  8  9  2  0
  8 17  1  0
  9 10  1  0
 10 11  1  0
 10 14  2  0
 11 12  1  6
 11 13  1  0
 14 15  1  0
 14 16  1  0
 16 17  2  0
 17 18  1  0
 18 19  1  0
 19 20  2  0
 20 21  1  0
M  END
