
     RDKit          3D

 26 28  0  0  0  0  0  0  0  0999 V2000
   -5.8950   -1.3960   -1.8710 C   0  0  0  0  0  0  0  0  0  0  0  0
   -4.5400   -1.2480   -1.1610 C   0  0  0  0  0  0  0  0  0  0  0  0
   -4.2190    0.1760   -0.8770 C   0  0  1  0  0  0  0  0  0  0  0  0
   -5.2380    0.8230    0.0560 C   0  0  0  0  0  0  0  0  0  0  0  0
   -6.8660    0.8310   -0.6200 Cl  0  0  0  0  0  0  0  0  0  0  0  0
   -2.8440    0.5140   -0.4900 C   0  0  0  0  0  0  0  0  0  0  0  0
   -2.3420    1.8320   -0.4850 C   0  0  0  0  0  0  0  0  0  0  0  0
   -3.1390    3.0080   -0.8880 C   0  0  0  0  0  0  0  0  0  0  0  0
   -1.1210    1.7980   -0.0830 O   0  0  0  0  0  0  0  0  0  0  0  0
   -0.7510    0.5550    0.1860 C   0  0  0  0  0  0  0  0  0  0  0  0
    0.4320    0.0090    0.6360 C   0  0  0  0  0  0  0  0  0  0  0  0
    0.5550   -1.3470    0.8380 C   0  0  0  0  0  0  0  0  0  0  0  0
    1.7490   -1.8920    1.2920 O   0  0  0  0  0  0  0  0  0  0  0  0
    2.8260   -1.0550    1.5430 C   0  0  0  0  0  0  0  0  0  0  0  0
    2.9520   -0.5280    2.8290 C   0  0  0  0  0  0  0  0  0  0  0  0
    3.9910    0.3110    3.1670 C   0  0  0  0  0  0  0  0  0  0  0  0
    4.9000    0.6210    2.2180 N   0  0  0  0  0  0  0  0  0  0  0  0
    4.8070    0.1350    0.9840 C   0  0  0  0  0  0  0  0  0  0  0  0
    5.8240    0.4940   -0.0440 C   0  0  2  0  0  0  0  0  0  0  0  0
    5.0560    1.2090   -1.1560 C   0  0  0  0  0  0  0  0  0  0  0  0
    6.4510   -0.7480   -0.6230 C   0  0  0  0  0  0  0  0  0  0  0  0
    3.7620   -0.7180    0.6180 C   0  0  0  0  0  0  0  0  0  0  0  0
   -0.5200   -2.1670    0.5870 C   0  0  0  0  0  0  0  0  0  0  0  0
   -0.4080   -3.4180    0.7730 O   0  0  0  0  0  0  0  0  0  0  0  0
   -1.6850   -1.6380    0.1450 N   0  0  0  0  0  0  0  0  0  0  0  0
   -1.8230   -0.3180   -0.0590 C   0  0  0  0  0  0  0  0  0  0  0  0
  1  2  1  0
  3  2  1  1
  3  4  1  0
  3  6  1  0
  4  5  1  0
  6  7  2  0
  6 26  1  0
  7  8  1  0
  7  9  1  0
  9 10  1  0
 10 11  1  0
 10 26  2  0
 11 12  2  0
 12 13  1  0
 12 23  1  0
 13 14  1  0
 14 15  2  0
 14 22  1  0
 15 16  1  0
 16 17  2  0
 17 18  1  0
 18 19  1  0
 18 22  2  0
 19 20  1  6
 19 21  1  0
 23 24  2  0
 23 25  1  0
 25 26  1  0
M  END
