
     RDKit          3D

 20 22  0  0  0  0  0  0  0  0999 V2000
   -4.1140    1.9230    2.1040 C   0  0  0  0  0  0  0  0  0  0  0  0
   -2.8430    1.2690    2.0550 O   0  0  0  0  0  0  0  0  0  0  0  0
   -2.5800    0.5000    0.9270 C   0  0  0  0  0  0  0  0  0  0  0  0
   -3.4870    0.3510   -0.1160 C   0  0  0  0  0  0  0  0  0  0  0  0
   -3.1500   -0.4230   -1.1910 C   0  0  0  0  0  0  0  0  0  0  0  0
   -4.0730   -0.6300   -2.3550 C   0  0  0  0  0  0  0  0  0  0  0  0
   -1.9250   -1.0550   -1.2490 C   0  0  0  0  0  0  0  0  0  0  0  0
   -0.9860   -0.9340   -0.2300 C   0  0  0  0  0  0  0  0  0  0  0  0
    0.2860   -1.6220   -0.2640 C   0  0  0  0  0  0  0  0  0  0  0  0
    1.4260   -0.9210   -0.1270 C   0  0  0  0  0  0  0  0  0  0  0  0
    1.4690    0.5170    0.0490 C   0  0  0  0  0  0  0  0  0  0  0  0
    2.6210    1.1510    0.2110 C   0  0  0  0  0  0  0  0  0  0  0  0
    3.8930    0.4410    0.2200 C   0  0  0  0  0  0  0  0  0  0  0  0
    5.1760    0.8450    0.3660 N   0  0  0  0  0  0  0  0  0  0  0  0
    6.0320   -0.1750    0.3080 C   0  0  0  0  0  0  0  0  0  0  0  0
    5.2710   -1.3200    0.1120 C   0  0  0  0  0  0  0  0  0  0  0  0
    3.9440   -0.9300    0.0590 C   0  0  0  0  0  0  0  0  0  0  0  0
    2.7060   -1.6620   -0.1210 C   0  0  0  0  0  0  0  0  0  0  0  0
    2.7440   -2.8940   -0.2660 O   0  0  0  0  0  0  0  0  0  0  0  0
   -1.3630   -0.1410    0.8450 C   0  0  0  0  0  0  0  0  0  0  0  0
  1  2  1  0
  2  3  1  0
  3  4  2  0
  3 20  1  0
  4  5  1  0
  5  6  1  0
  5  7  2  0
  7  8  1  0
  8  9  1  0
  8 20  2  0
  9 10  2  3
 10 11  1  0
 10 18  1  0
 11 12  2  0
 12 13  1  0
 13 14  1  0
 13 17  2  0
 14 15  1  0
 15 16  2  0
 16 17  1  0
 17 18  1  0
 18 19  2  0
M  END
