
     RDKit          3D

 19 21  0  0  0  0  0  0  0  0999 V2000
   -4.5810    0.8430    1.0470 C   0  0  0  0  0  0  0  0  0  0  0  0
   -3.3540    0.1570    0.4870 C   0  0  0  0  0  0  0  0  0  0  0  0
   -2.6690   -0.8240    1.0100 N   0  0  0  0  0  0  0  0  0  0  0  0
   -1.7220   -1.3870    0.6240 C   0  0  0  0  0  0  0  0  0  0  0  0
   -0.7560   -2.5030    0.9730 C   0  0  0  0  0  0  0  0  0  0  0  0
    0.3360   -2.5190    0.1190 O   0  0  0  0  0  0  0  0  0  0  0  0
    1.2520   -1.5410   -0.0770 C   0  0  0  0  0  0  0  0  0  0  0  0
    1.1470   -0.3640    0.6280 C   0  0  0  0  0  0  0  0  0  0  0  0
    2.0440    0.6500    0.4660 C   0  0  0  0  0  0  0  0  0  0  0  0
    3.0810    0.4940   -0.4240 C   0  0  0  0  0  0  0  0  0  0  0  0
    3.2280   -0.6850   -1.1620 C   0  0  0  0  0  0  0  0  0  0  0  0
    2.2950   -1.6780   -0.9620 C   0  0  0  0  0  0  0  0  0  0  0  0
    2.4630   -2.8880   -1.7340 N   0  0  0  0  0  0  0  0  0  0  0  0
    3.8750    1.7510   -0.3690 C   0  0  0  0  0  0  0  0  0  0  0  0
    2.9660    2.6770    0.0880 O   0  0  0  0  0  0  0  0  0  0  0  0
    2.1980    2.0230    1.0670 C   0  0  0  0  0  0  0  0  0  0  0  0
   -1.4360   -0.4650   -1.0170 S   0  0  0  0  0  0  0  0  0  0  0  0
   -2.8680    0.6020   -0.7360 C   0  0  0  0  0  0  0  0  0  0  0  0
   -3.3530    1.6820   -1.6390 C   0  0  0  0  0  0  0  0  0  0  0  0
  1  2  1  0
  2  3  1  0
  2 18  2  0
  3  4  2  0
  4  5  1  0
  4 17  1  0
  5  6  1  0
  6  7  1  0
  7  8  2  0
  7 12  1  0
  8  9  1  0
  9 10  2  0
  9 16  1  0
 10 11  1  0
 10 14  1  0
 11 12  2  0
 12 13  1  0
 14 15  1  0
 15 16  1  0
 17 18  1  0
 18 19  1  0
M  END
