
     RDKit          3D

 19 20  0  0  0  0  0  0  0  0999 V2000
   -5.3940   -1.5500    1.5870 C   0  0  0  0  0  0  0  0  0  0  0  0
   -4.1980   -1.0860    1.2020 C   0  0  0  0  0  0  0  0  0  0  0  0
   -4.0800   -0.3270   -0.0060 C   0  0  0  0  0  0  0  0  0  0  0  0
   -2.9440    0.2070   -0.5250 C   0  0  0  0  0  0  0  0  0  0  0  0
   -1.6830    0.0430    0.1380 C   0  0  0  0  0  0  0  0  0  0  0  0
   -0.4610    0.4000    0.0060 C   0  0  0  0  0  0  0  0  0  0  0  0
    0.6370   -0.2600    1.3280 S   0  0  0  0  0  0  0  0  0  0  0  0
    2.2890   -0.0840    0.7180 C   0  0  0  0  0  0  0  0  0  0  0  0
    3.2870   -0.7340    1.3630 C   0  0  0  0  0  0  0  0  0  0  0  0
    4.6320   -0.5960    1.0340 C   0  0  0  0  0  0  0  0  0  0  0  0
    5.6520   -1.2860    1.7240 N   0  0  0  0  0  0  0  0  0  0  0  0
    4.9190    0.2610   -0.0120 C   0  0  0  0  0  0  0  0  0  0  0  0
    3.8990    0.9140   -0.6610 C   0  0  0  0  0  0  0  0  0  0  0  0
    2.5500    0.7560   -0.3120 C   0  0  0  0  0  0  0  0  0  0  0  0
    1.5950    1.3950   -1.1080 N   0  0  0  0  0  0  0  0  0  0  0  0
    0.1760    1.2230   -0.9420 C   0  0  0  0  0  0  0  0  0  0  0  0
   -0.5340    1.8950   -1.7330 O   0  0  0  0  0  0  0  0  0  0  0  0
   -3.1970    0.8950   -1.8220 C   0  0  0  0  0  0  0  0  0  0  0  0
   -2.4880    0.3330   -2.8530 O   0  0  0  0  0  0  0  0  0  0  0  0
  1  2  2  0
  2  3  1  0
  3  4  2  3
  4  5  1  0
  4 18  1  0
  5  6  2  3
  6  7  1  0
  6 16  1  0
  7  8  1  0
  8  9  2  0
  8 14  1  0
  9 10  1  0
 10 11  1  0
 10 12  2  0
 12 13  1  0
 13 14  2  0
 14 15  1  0
 15 16  1  0
 16 17  2  0
 18 19  1  0
M  END
