
     RDKit          3D

 18 19  0  0  0  0  0  0  0  0999 V2000
    5.3950    0.4000    0.1860 C   0  0  0  0  0  0  0  0  0  0  0  0
    3.8900    0.4140    0.1850 C   0  0  0  0  0  0  0  0  0  0  0  0
    3.2170   -0.7000    0.3960 C   0  0  0  0  0  0  0  0  0  0  0  0
    1.7500   -0.7040    0.3980 C   0  0  0  0  0  0  0  0  0  0  0  0
    0.8270    0.2920    0.2120 C   0  0  0  0  0  0  0  0  0  0  0  0
   -0.4700   -0.0190    0.2730 C   0  0  0  0  0  0  0  0  0  0  0  0
   -0.8150   -1.3280    0.5190 C   0  0  0  0  0  0  0  0  0  0  0  0
    0.6980   -2.1400    0.6700 S   0  0  0  0  0  0  0  0  0  0  0  0
   -2.2600   -1.7480    0.6000 C   0  0  1  0  0  0  0  0  0  0  0  0
   -2.7940   -1.5300    1.8510 O   0  0  0  0  0  0  0  0  0  0  0  0
   -3.0450   -1.1390   -0.5130 C   0  0  2  0  0  0  0  0  0  0  0  0
   -2.9650   -1.9740   -1.6310 O   0  0  0  0  0  0  0  0  0  0  0  0
   -2.5520    0.2170   -0.9370 C   0  0  0  0  0  0  0  0  0  0  0  0
   -1.6820    0.8750    0.1060 C   0  0  1  0  0  0  0  0  0  0  0  0
   -2.3750    1.0100    1.2920 O   0  0  0  0  0  0  0  0  0  0  0  0
   -1.2860    2.2020   -0.4340 C   0  0  0  0  0  0  0  0  0  0  0  0
   -1.5520    3.2830    0.1230 O   0  0  0  0  0  0  0  0  0  0  0  0
   -0.5770    2.2150   -1.6310 O   0  0  0  0  0  0  0  0  0  0  0  0
  1  2  1  0
  2  3  2  3
  3  4  1  0
  4  5  2  0
  4  8  1  0
  5  6  1  0
  6  7  2  0
  6 14  1  0
  7  8  1  0
  7  9  1  0
  9 10  1  1
  9 11  1  0
 11 12  1  6
 11 13  1  0
 13 14  1  0
 14 15  1  1
 14 16  1  0
 16 17  2  0
 16 18  1  0
M  END
