
     RDKit          3D

 19 21  0  0  0  0  0  0  0  0999 V2000
   -1.4940   -3.1800    0.4400 C   0  0  0  0  0  0  0  0  0  0  0  0
   -1.2710   -1.7320    0.2640 C   0  0  0  0  0  0  0  0  0  0  0  0
   -2.3180   -0.8650    0.2130 C   0  0  0  0  0  0  0  0  0  0  0  0
   -2.0670    0.4830    0.0500 C   0  0  0  0  0  0  0  0  0  0  0  0
   -3.0870    1.3660    0.0150 N   0  0  0  0  0  0  0  0  0  0  0  0
   -2.8550    2.6800   -0.1230 C   0  0  0  0  0  0  0  0  0  0  0  0
   -3.8120    3.5220   -0.1580 O   0  0  0  0  0  0  0  0  0  0  0  0
   -1.5690    3.1420   -0.2300 C   0  0  0  0  0  0  0  0  0  0  0  0
   -1.2760    4.3590   -0.3610 O   0  0  0  0  0  0  0  0  0  0  0  0
   -0.5270    2.2800   -0.1990 N   0  0  0  0  0  0  0  0  0  0  0  0
   -0.7800    0.9750   -0.0630 C   0  0  0  0  0  0  0  0  0  0  0  0
    0.2690    0.0490   -0.0070 C   0  0  0  0  0  0  0  0  0  0  0  0
    1.6900    0.4940   -0.2520 C   0  0  0  0  0  0  0  0  0  0  0  0
    2.8400    0.0510    0.2890 C   0  0  0  0  0  0  0  0  0  0  0  0
    4.0030    0.6370   -0.0170 C   0  0  0  0  0  0  0  0  0  0  0  0
    3.9630    1.6960   -0.8960 C   0  0  0  0  0  0  0  0  0  0  0  0
    2.2420    1.7920   -1.2360 S   0  0  0  0  0  0  0  0  0  0  0  0
    0.0320   -1.3000    0.1550 C   0  0  0  0  0  0  0  0  0  0  0  0
    1.1330   -2.2520    0.1580 C   0  0  0  0  0  0  0  0  0  0  0  0
  1  2  1  0
  2  3  2  0
  2 18  1  0
  3  4  1  0
  4  5  1  0
  4 11  2  0
  5  6  1  0
  6  7  2  0
  6  8  1  0
  8  9  2  0
  8 10  1  0
 10 11  1  0
 11 12  1  0
 12 13  1  0
 12 18  2  0
 13 14  2  0
 13 17  1  0
 14 15  1  0
 15 16  2  0
 16 17  1  0
 18 19  1  0
M  END
