
     RDKit          3D

 19 21  0  0  0  0  0  0  0  0999 V2000
    1.5820   -1.3840   -0.5240 O   0  0  0  0  0  0  0  0  0  0  0  0
    1.2960   -0.2630   -0.0430 C   0  0  0  0  0  0  0  0  0  0  0  0
   -0.1250    0.0620    0.1040 C   0  0  0  0  0  0  0  0  0  0  0  0
   -0.9800   -1.0090   -0.3470 N   0  0  0  0  0  0  0  0  0  0  0  0
   -2.3920   -0.8050   -0.2510 C   0  0  0  0  0  0  0  0  0  0  0  0
   -2.9240    0.3540    0.2460 C   0  0  0  0  0  0  0  0  0  0  0  0
   -4.2760    0.5880    0.3550 C   0  0  0  0  0  0  0  0  0  0  0  0
   -5.1170   -0.4160   -0.0680 C   0  0  0  0  0  0  0  0  0  0  0  0
   -6.4930   -0.2980   -0.0090 O   0  0  0  0  0  0  0  0  0  0  0  0
   -4.6060   -1.6070   -0.5790 C   0  0  0  0  0  0  0  0  0  0  0  0
   -3.2520   -1.7900   -0.6660 C   0  0  0  0  0  0  0  0  0  0  0  0
    2.3440    0.7150    0.3670 C   0  0  0  0  0  0  0  0  0  0  0  0
    1.9140    1.9480    0.8960 C   0  0  0  0  0  0  0  0  0  0  0  0
    3.4810    2.8100    1.2540 S   0  0  0  0  0  0  0  0  0  0  0  0
    4.5580    1.4740    0.6770 C   0  0  0  0  0  0  0  0  0  0  0  0
    5.8710    1.0690    0.4960 C   0  0  0  0  0  0  0  0  0  0  0  0
    5.7810   -0.1690   -0.0320 C   0  0  0  0  0  0  0  0  0  0  0  0
    4.4990   -0.5170   -0.1730 N   0  0  0  0  0  0  0  0  0  0  0  0
    3.6610    0.5080    0.2700 C   0  0  0  0  0  0  0  0  0  0  0  0
  1  2  2  0
  2  3  1  0
  2 12  1  0
  3  4  1  0
  4  5  1  0
  5  6  2  0
  5 11  1  0
  6  7  1  0
  7  8  2  0
  8  9  1  0
  8 10  1  0
 10 11  2  0
 12 13  2  0
 12 19  1  0
 13 14  1  0
 14 15  1  0
 15 16  1  0
 15 19  2  0
 16 17  2  0
 17 18  1  0
 18 19  1  0
M  END
