
     RDKit          3D

 17 18  0  0  0  0  0  0  0  0999 V2000
   -2.5600    2.7260    0.5680 O   0  0  0  0  0  0  0  0  0  0  0  0
   -1.8740    2.7410   -0.4630 C   0  0  0  0  0  0  0  0  0  0  0  0
   -1.7720    3.8620   -1.2650 O   0  0  0  0  0  0  0  0  0  0  0  0
   -1.1740    1.6100   -0.8510 O   0  0  0  0  0  0  0  0  0  0  0  0
   -1.1900    0.4000   -0.1250 C   0  0  1  0  0  0  0  0  0  0  0  0
   -1.7900   -0.6550   -1.0490 C   0  0  0  0  0  0  0  0  0  0  0  0
   -2.1480   -1.9040   -0.2560 C   0  0  0  0  0  0  0  0  0  0  0  0
   -1.0750   -2.0570    0.8090 C   0  0  1  0  0  0  0  0  0  0  0  0
   -0.9520   -3.3990    1.1990 O   0  0  0  0  0  0  0  0  0  0  0  0
    0.2270   -1.5480    0.2410 C   0  0  0  0  0  0  0  0  0  0  0  0
    0.2210   -0.0430    0.1770 C   0  0  2  0  0  0  0  0  0  0  0  0
    0.6380    0.4930    1.5080 C   0  0  0  0  0  0  0  0  0  0  0  0
    1.9620    0.2720    1.8070 O   0  0  0  0  0  0  0  0  0  0  0  0
    2.8470    0.6230    0.8240 C   0  0  0  0  0  0  0  0  0  0  0  0
    2.4600    0.2030   -0.5560 C   0  0  2  0  0  0  0  0  0  0  0  0
    3.2290    0.9680   -1.4550 O   0  0  0  0  0  0  0  0  0  0  0  0
    1.0780    0.4690   -0.8730 N   0  0  0  0  0  0  0  0  0  0  0  0
  1  2  2  0
  2  3  1  0
  2  4  1  0
  5  4  1  6
  5  6  1  0
  5 11  1  0
  6  7  1  0
  7  8  1  0
  8  9  1  6
  8 10  1  0
 11 10  1  1
 11 12  1  0
 11 17  1  0
 12 13  1  0
 13 14  1  0
 14 15  1  0
 15 16  1  6
 15 17  1  0
M  CHG  1  17   1
M  END
