
     RDKit          3D

 16 17  0  0  0  0  0  0  0  0999 V2000
    2.4500    0.6940   -1.8300 C   0  0  0  0  0  0  0  0  0  0  0  0
    1.1500    0.3450   -1.4850 O   0  0  0  0  0  0  0  0  0  0  0  0
    1.1270    0.0670   -0.1220 C   0  0  1  0  0  0  0  0  0  0  0  0
    2.1170   -0.9870    0.2720 C   0  0  0  0  0  0  0  0  0  0  0  0
    1.5440    1.2620    0.5150 O   0  0  0  0  0  0  0  0  0  0  0  0
    1.2970    0.9710    1.8680 C   0  0  0  0  0  0  0  0  0  0  0  0
   -0.0450    0.2570    1.8970 C   0  0  0  0  0  0  0  0  0  0  0  0
   -0.2270   -0.0990    0.4400 C   0  0  1  0  0  0  0  0  0  0  0  0
   -1.2190    0.8160   -0.2910 C   0  0  2  0  0  0  0  0  0  0  0  0
   -2.1690    1.3940    0.5220 O   0  0  0  0  0  0  0  0  0  0  0  0
   -2.3090    2.7080    0.2040 N   0  0  0  0  0  0  0  0  0  0  0  0
   -1.7190   -0.4390   -0.9990 C   0  0  1  0  0  0  0  0  0  0  0  0
   -1.1760   -0.6480   -2.2490 O   0  0  0  0  0  0  0  0  0  0  0  0
   -1.0660   -1.2390    0.1090 C   0  0  1  0  0  0  0  0  0  0  0  0
   -0.4740   -2.5160   -0.3470 C   0  0  0  0  0  0  0  0  0  0  0  0
   -2.0360   -1.4790    1.1080 O   0  0  0  0  0  0  0  0  0  0  0  0
  1  2  1  0
  2  3  1  0
  3  4  1  6
  3  5  1  0
  3  8  1  0
  5  6  1  0
  6  7  1  0
  8  7  1  1
  8  9  1  0
  8 14  1  0
  9 10  1  1
  9 12  1  0
 10 11  1  0
 12 13  1  6
 12 14  1  0
 14 15  1  6
 14 16  1  0
M  CHG  1  11   1
M  END
