
     RDKit          3D

 16 17  0  0  0  0  0  0  0  0999 V2000
   -2.2240   -0.4710    2.1740 N   0  0  0  0  0  0  0  0  0  0  0  0
   -2.3140   -0.1780    0.7730 C   0  0  1  0  0  0  0  0  0  0  0  0
   -2.6870    1.2640    0.4980 C   0  0  2  0  0  0  0  0  0  0  0  0
   -3.9830    1.5380    0.9050 O   0  0  0  0  0  0  0  0  0  0  0  0
   -2.5260    1.4600   -1.0130 C   0  0  0  0  0  0  0  0  0  0  0  0
   -2.5580    0.2300   -1.6660 O   0  0  0  0  0  0  0  0  0  0  0  0
   -1.4240   -0.5290   -1.4480 C   0  0  0  0  0  0  0  0  0  0  0  0
   -1.0120   -0.4500    0.0310 C   0  0  2  0  0  0  0  0  0  0  0  0
   -0.3870   -1.5710    0.4530 O   0  0  0  0  0  0  0  0  0  0  0  0
    0.9070   -1.4890    0.8640 C   0  0  0  0  0  0  0  0  0  0  0  0
    1.9230   -1.0760   -0.1600 C   0  0  2  0  0  0  0  0  0  0  0  0
    3.3020   -1.2330    0.4390 C   0  0  0  0  0  0  0  0  0  0  0  0
    3.7780   -0.0630    0.9990 O   0  0  0  0  0  0  0  0  0  0  0  0
    3.7050    1.0310    0.1630 C   0  0  0  0  0  0  0  0  0  0  0  0
    2.8320    0.8540   -1.0270 C   0  0  0  0  0  0  0  0  0  0  0  0
    1.6890    0.1640   -0.6720 O   0  0  0  0  0  0  0  0  0  0  0  0
  2  1  1  1
  2  3  1  0
  2  8  1  0
  3  4  1  6
  3  5  1  0
  5  6  1  0
  6  7  1  0
  7  8  1  0
  8  9  1  1
  9 10  1  0
 11 10  1  1
 11 12  1  0
 11 16  1  0
 12 13  1  0
 13 14  1  0
 14 15  1  0
 15 16  1  0
M  CHG  1   1   1
M  END
