
     RDKit          3D

 16 17  0  0  0  0  0  0  0  0999 V2000
    0.5090    1.6600   -0.4050 C   0  0  0  0  0  0  0  0  0  0  0  0
   -0.0510    0.2460   -0.5540 C   0  0  2  0  0  0  0  0  0  0  0  0
    1.0520   -0.7840   -0.4380 C   0  0  1  0  0  0  0  0  0  0  0  0
    1.9600   -0.5370   -1.4470 O   0  0  0  0  0  0  0  0  0  0  0  0
    3.2720   -0.5560   -1.0580 C   0  0  0  0  0  0  0  0  0  0  0  0
    3.5810    0.2430    0.1660 C   0  0  0  0  0  0  0  0  0  0  0  0
    2.5670    0.2530    1.1080 O   0  0  0  0  0  0  0  0  0  0  0  0
    1.6870   -0.8060    0.9130 C   0  0  2  0  0  0  0  0  0  0  0  0
    2.4760   -1.9790    0.9810 O   0  0  0  0  0  0  0  0  0  0  0  0
   -0.6510    0.1130   -1.8060 O   0  0  0  0  0  0  0  0  0  0  0  0
   -1.6770   -0.8300   -1.8060 C   0  0  0  0  0  0  0  0  0  0  0  0
   -2.8950   -0.3410   -1.0350 C   0  0  0  0  0  0  0  0  0  0  0  0
   -2.3850    0.6840   -0.0440 C   0  0  1  0  0  0  0  0  0  0  0  0
   -3.3460    0.9760    0.9890 N   0  0  0  0  0  0  0  0  0  0  0  0
   -1.0940    0.0930    0.5370 C   0  0  2  0  0  0  0  0  0  0  0  0
   -0.7280    0.8210    1.6690 O   0  0  0  0  0  0  0  0  0  0  0  0
  2  1  1  6
  2  3  1  0
  2 10  1  0
  2 15  1  0
  3  4  1  6
  3  8  1  0
  4  5  1  0
  5  6  1  0
  6  7  1  0
  7  8  1  0
  8  9  1  6
 10 11  1  0
 11 12  1  0
 12 13  1  0
 13 14  1  1
 13 15  1  0
 15 16  1  1
M  CHG  1  14   1
M  END
