
     RDKit          3D

 17 18  0  0  0  0  0  0  0  0999 V2000
    2.9670   -2.4580    0.3400 N   0  0  0  0  0  0  0  0  0  0  0  0
    2.1780   -1.3430    0.5430 O   0  0  0  0  0  0  0  0  0  0  0  0
    1.9690   -0.3860   -0.4370 C   0  0  0  0  0  0  0  0  0  0  0  0
    2.5450   -0.5890   -1.5390 O   0  0  0  0  0  0  0  0  0  0  0  0
    1.1490    0.7950   -0.2620 C   0  0  1  0  0  0  0  0  0  0  0  0
    1.1230    1.5570   -1.4410 O   0  0  0  0  0  0  0  0  0  0  0  0
    0.9100    2.8880   -1.0860 C   0  0  0  0  0  0  0  0  0  0  0  0
    0.2570    2.9960    0.1340 O   0  0  0  0  0  0  0  0  0  0  0  0
   -0.8020    2.0840    0.2340 C   0  0  0  0  0  0  0  0  0  0  0  0
   -0.2240    0.6550    0.2450 C   0  0  2  0  0  0  0  0  0  0  0  0
   -0.1900    0.2810    1.7370 C   0  0  0  0  0  0  0  0  0  0  0  0
   -1.6390   -0.1990    1.8850 C   0  0  0  0  0  0  0  0  0  0  0  0
   -1.7010   -1.1520    0.7100 C   0  0  0  0  0  0  0  0  0  0  0  0
   -1.1660   -0.2620   -0.3930 C   0  0  1  0  0  0  0  0  0  0  0  0
   -2.2890    0.4550   -0.8680 O   0  0  0  0  0  0  0  0  0  0  0  0
   -0.6770   -1.0630   -1.5570 C   0  0  0  0  0  0  0  0  0  0  0  0
   -1.7450   -1.9090   -1.9500 O   0  0  0  0  0  0  0  0  0  0  0  0
  1  2  1  0
  2  3  1  0
  3  4  2  0
  5  3  1  6
  5  6  1  0
  5 10  1  0
  6  7  1  0
  7  8  1  0
  8  9  1  0
 10  9  1  1
 10 11  1  0
 10 14  1  0
 11 12  1  0
 12 13  1  0
 13 14  1  0
 14 15  1  6
 14 16  1  0
 16 17  1  0
M  CHG  1   1   1
M  END
