
     RDKit          3D

 32 33  0  0  0  0  0  0  0  0999 V2000
   -6.2850    2.4910   -1.9240 C   0  0  0  0  0  0  0  0  0  0  0  0
   -5.2920    1.7340   -1.2570 O   0  0  0  0  0  0  0  0  0  0  0  0
   -5.1490    0.3640   -1.4440 C   0  0  0  0  0  0  0  0  0  0  0  0
   -5.9830   -0.1470   -2.2620 O   0  0  0  0  0  0  0  0  0  0  0  0
   -4.1230   -0.4230   -0.7560 C   0  0  2  0  0  0  0  0  0  0  0  0
   -4.2860   -1.8180   -1.2000 N   0  0  0  0  0  0  0  0  0  0  0  0
   -4.3760   -0.4190    0.7130 C   0  0  0  0  0  0  0  0  0  0  0  0
   -4.3060    0.8390    1.2810 O   0  0  0  0  0  0  0  0  0  0  0  0
   -3.1000    1.4780    1.0250 C   0  0  0  0  0  0  0  0  0  0  0  0
   -2.1530    0.6670    0.2180 C   0  0  0  0  0  0  0  0  0  0  0  0
   -0.9010    0.5490    0.6340 C   0  0  0  0  0  0  0  0  0  0  0  0
   -0.5130    1.2340    1.8880 C   0  0  0  0  0  0  0  0  0  0  0  0
    0.0820   -0.1660   -0.1570 C   0  0  0  0  0  0  0  0  0  0  0  0
    0.5600   -1.4930    0.2530 C   0  0  1  0  0  0  0  0  0  0  0  0
   -0.4540   -2.4420    0.3290 F   0  0  0  0  0  0  0  0  0  0  0  0
    1.5800   -1.9220   -0.8240 C   0  0  0  0  0  0  0  0  0  0  0  0
    2.5660   -0.9730   -0.8070 O   0  0  0  0  0  0  0  0  0  0  0  0
    3.5590   -1.1730   -1.6890 N   0  0  0  0  0  0  0  0  0  0  0  0
    3.7690    0.3990   -2.5320 S   0  0  0  0  0  0  0  0  0  0  0  0
    4.9830    1.0840   -1.3270 C   0  0  1  0  0  0  0  0  0  0  0  0
    6.3020    1.1360   -1.8750 N   0  0  0  0  0  0  0  0  0  0  0  0
    4.4650    2.3650   -0.9170 N   0  0  0  0  0  0  0  0  0  0  0  0
    4.2230    2.7290    0.4200 C   0  0  0  0  0  0  0  0  0  0  0  0
    4.4830    1.8630    1.3070 O   0  0  0  0  0  0  0  0  0  0  0  0
    4.8500    0.1240   -0.3090 O   0  0  0  0  0  0  0  0  0  0  0  0
    4.8070   -1.1180   -0.9010 C   0  0  1  0  0  0  0  0  0  0  0  0
    4.8400   -2.0700    0.0870 O   0  0  0  0  0  0  0  0  0  0  0  0
    1.3170   -1.5590    1.5490 C   0  0  2  0  0  0  0  0  0  0  0  0
    1.7800   -2.9950    1.8170 C   0  0  0  0  0  0  0  0  0  0  0  0
    0.4800   -1.2870    2.6590 O   0  0  0  0  0  0  0  0  0  0  0  0
    2.4350   -0.7640    1.5880 F   0  0  0  0  0  0  0  0  0  0  0  0
   -2.7060    0.0430   -1.0120 C   0  0  0  0  0  0  0  0  0  0  0  0
  1  2  1  0
  2  3  1  0
  3  4  2  0
  3  5  1  0
  5  6  1  6
  5  7  1  0
  5 32  1  0
  7  8  1  0
  8  9  1  0
  9 10  1  0
 10 11  2  3
 10 32  1  0
 11 12  1  0
 11 13  1  0
 13 14  1  0
 14 15  1  1
 14 16  1  0
 14 28  1  0
 16 17  1  0
 17 18  1  0
 18 19  1  0
 18 26  1  0
 19 20  1  0
 20 21  1  6
 20 22  1  0
 20 25  1  0
 22 23  1  0
 23 24  2  0
 25 26  1  0
 26 27  1  1
 28 29  1  1
 28 30  1  0
 28 31  1  0
M  CHG  1  30  -1
M  END
