
     RDKit          3D

 32 33  0  0  0  0  0  0  0  0999 V2000
   -3.2920   -1.9150   -2.1270 C   0  0  0  0  0  0  0  0  0  0  0  0
   -2.2380   -1.1820   -1.8980 C   0  0  0  0  0  0  0  0  0  0  0  0
   -2.0240    0.1610   -2.2770 O   0  0  0  0  0  0  0  0  0  0  0  0
   -0.7050    0.2980   -2.3860 O   0  0  0  0  0  0  0  0  0  0  0  0
   -0.0890   -0.7750   -2.0150 O   0  0  0  0  0  0  0  0  0  0  0  0
   -0.9980   -1.5210   -1.2040 C   0  0  1  0  0  0  0  0  0  0  0  0
   -0.8830   -1.0340    0.2280 C   0  0  1  0  0  0  0  0  0  0  0  0
   -1.6420   -1.8970    1.1920 C   0  0  0  0  0  0  0  0  0  0  0  0
   -2.1400   -3.0010    0.8770 N   0  0  0  0  0  0  0  0  0  0  0  0
   -1.7270   -1.4320    2.5470 N   0  0  0  0  0  0  0  0  0  0  0  0
    0.5210   -1.2340    0.5450 N   0  0  0  0  0  0  0  0  0  0  0  0
    1.1820   -0.1770    0.3940 C   0  0  0  0  0  0  0  0  0  0  0  0
    2.6660   -0.1480    0.6480 C   0  0  0  0  0  0  0  0  0  0  0  0
    3.2310   -1.3230    0.9730 C   0  0  0  0  0  0  0  0  0  0  0  0
    2.4740   -2.4840    1.0630 O   0  0  0  0  0  0  0  0  0  0  0  0
    2.9700   -3.6840    0.6960 F   0  0  0  0  0  0  0  0  0  0  0  0
    4.6800   -1.3390    1.2300 C   0  0  2  0  0  0  0  0  0  0  0  0
    4.9550   -1.7730    2.5250 O   0  0  0  0  0  0  0  0  0  0  0  0
    5.2190   -0.0800    1.0810 F   0  0  0  0  0  0  0  0  0  0  0  0
    5.3650   -2.1930    0.2720 N   0  0  0  0  0  0  0  0  0  0  0  0
    5.4510   -1.8640   -1.0630 S   0  0  0  0  0  0  0  0  0  0  0  0
    0.3130    0.9780    0.2430 C   0  0  0  0  0  0  0  0  0  0  0  0
    0.6350    2.1800   -0.1990 C   0  0  0  0  0  0  0  0  0  0  0  0
   -0.3170    3.3380   -0.2950 C   0  0  0  0  0  0  0  0  0  0  0  0
    1.8780    2.4420   -0.9540 C   0  0  0  0  0  0  0  0  0  0  0  0
    2.1810    3.8130   -1.2900 N   0  0  0  0  0  0  0  0  0  0  0  0
    2.6720    1.6070   -1.3370 O   0  0  0  0  0  0  0  0  0  0  0  0
   -1.0690    0.4000    0.4000 C   0  0  0  0  0  0  0  0  0  0  0  0
   -2.1550    1.1100    0.6330 C   0  0  0  0  0  0  0  0  0  0  0  0
   -3.5240    0.6710    0.7800 C   0  0  0  0  0  0  0  0  0  0  0  0
   -3.8910   -0.4990    0.6950 O   0  0  0  0  0  0  0  0  0  0  0  0
   -4.5580    1.6120    1.0430 O   0  0  0  0  0  0  0  0  0  0  0  0
  1  2  2  0
  2  3  1  0
  2  6  1  0
  3  4  1  0
  4  5  1  0
  6  5  1  6
  6  7  1  0
  7  8  1  1
  7 11  1  0
  7 28  1  0
  8  9  2  0
  8 10  1  0
 11 12  2  0
 12 13  1  0
 12 22  1  0
 13 14  2  3
 14 15  1  0
 14 17  1  0
 15 16  1  0
 17 18  1  1
 17 19  1  0
 17 20  1  0
 20 21  2  0
 22 23  2  3
 22 28  1  0
 23 24  1  0
 23 25  1  0
 25 26  1  0
 25 27  2  0
 28 29  2  3
 29 30  1  0
 30 31  2  0
 30 32  1  0
M  CHG  1  18  -1
M  END
