
     RDKit          3D

 22 22  0  0  0  0  0  0  0  0999 V2000
   -3.7540    1.3430    0.8370 C   0  0  0  0  0  0  0  0  0  0  0  0
   -2.7270    0.6870   -0.0190 C   0  0  2  0  0  0  0  0  0  0  0  0
   -3.0120    0.8190   -1.4820 C   0  0  0  0  0  0  0  0  0  0  0  0
   -4.2260    0.2540   -1.8480 O   0  0  0  0  0  0  0  0  0  0  0  0
   -2.4280   -0.7390    0.3940 C   0  0  2  0  0  0  0  0  0  0  0  0
   -2.6830   -0.9660    1.7310 O   0  0  0  0  0  0  0  0  0  0  0  0
   -0.9740   -0.8540    0.0410 C   0  0  2  0  0  0  0  0  0  0  0  0
   -0.8830   -1.8650   -1.1050 C   0  0  0  0  0  0  0  0  0  0  0  0
   -0.1370   -1.3460    1.2170 C   0  0  2  0  0  0  0  0  0  0  0  0
   -0.2400   -0.4620    2.2870 O   0  0  0  0  0  0  0  0  0  0  0  0
    1.2790   -1.4690    0.8790 C   0  0  0  0  0  0  0  0  0  0  0  0
    1.6330   -2.1970   -0.0590 O   0  0  0  0  0  0  0  0  0  0  0  0
    2.2380   -0.7960    1.5790 O   0  0  0  0  0  0  0  0  0  0  0  0
    3.5960   -0.8720    1.3100 C   0  0  0  0  0  0  0  0  0  0  0  0
    4.0490   -0.4400   -0.0350 C   0  0  2  0  0  0  0  0  0  0  0  0
    5.4550   -0.6200   -0.0620 O   0  0  0  0  0  0  0  0  0  0  0  0
    3.7960    1.0410   -0.2130 C   0  0  2  0  0  0  0  0  0  0  0  0
    2.4320    1.3160   -0.1980 O   0  0  0  0  0  0  0  0  0  0  0  0
    4.3160    1.4390   -1.4610 O   0  0  0  0  0  0  0  0  0  0  0  0
   -0.5120    0.3870   -0.3370 O   0  0  0  0  0  0  0  0  0  0  0  0
   -1.3540    1.3130    0.2300 C   0  0  1  0  0  0  0  0  0  0  0  0
   -1.2670    2.5620   -0.3720 O   0  0  0  0  0  0  0  0  0  0  0  0
  2  1  1  1
  2  3  1  0
  2  5  1  0
  2 21  1  0
  3  4  1  0
  5  6  1  1
  5  7  1  0
  7  8  1  6
  7  9  1  0
  7 20  1  0
  9 10  1  1
  9 11  1  0
 11 12  2  0
 11 13  1  0
 13 14  1  0
 14 15  1  0
 15 16  1  1
 15 17  1  0
 17 18  1  6
 17 19  1  0
 20 21  1  0
 21 22  1  6
M  END
