
     RDKit          3D

 28 30  0  0  0  0  0  0  0  0999 V2000
    9.8330   -1.9170   -1.4270 C   0  0  0  0  0  0  0  0  0  0  0  0
    8.4870   -1.3530   -1.1110 C   0  0  0  0  0  0  0  0  0  0  0  0
    7.5470   -2.1960   -0.5710 C   0  0  0  0  0  0  0  0  0  0  0  0
    6.2900   -1.6920   -0.2590 C   0  0  0  0  0  0  0  0  0  0  0  0
    5.9850   -0.3660   -0.4840 C   0  0  0  0  0  0  0  0  0  0  0  0
    4.6750    0.1750   -0.1410 C   0  0  0  0  0  0  0  0  0  0  0  0
    3.9790   -0.3540    0.9550 C   0  0  0  0  0  0  0  0  0  0  0  0
    2.7420    0.1520    1.3010 C   0  0  0  0  0  0  0  0  0  0  0  0
    2.1500    1.1750    0.6050 C   0  0  0  0  0  0  0  0  0  0  0  0
    0.8940    1.6690    0.9890 N   0  0  0  0  0  0  0  0  0  0  0  0
    0.8040    2.2710    2.3290 C   0  0  0  0  0  0  0  0  0  0  0  0
   -0.2340    1.6460    0.1520 C   0  0  0  0  0  0  0  0  0  0  0  0
   -1.4000    0.7700    0.5500 C   0  0  2  0  0  0  0  0  0  0  0  0
   -1.9720    1.1430    1.9150 C   0  0  0  0  0  0  0  0  0  0  0  0
   -1.0030   -0.6530    0.6180 C   0  0  0  0  0  0  0  0  0  0  0  0
   -2.5010    1.1100   -0.4320 C   0  0  0  0  0  0  0  0  0  0  0  0
   -3.7250    0.3930   -0.2350 N   0  0  0  0  0  0  0  0  0  0  0  0
   -4.7180    1.0960   -1.0970 C   0  0  0  0  0  0  0  0  0  0  0  0
   -6.1040    0.6470   -0.7460 C   0  0  0  0  0  0  0  0  0  0  0  0
   -6.0100   -0.8300   -0.3220 C   0  0  2  0  0  0  0  0  0  0  0  0
   -7.3640   -1.5020   -0.6020 C   0  0  0  0  0  0  0  0  0  0  0  0
   -5.6660   -0.8900    1.1350 C   0  0  0  0  0  0  0  0  0  0  0  0
   -4.9760   -1.4700   -1.2150 C   0  0  0  0  0  0  0  0  0  0  0  0
   -3.6100   -0.9650   -0.7700 C   0  0  0  0  0  0  0  0  0  0  0  0
    2.8500    1.6750   -0.4630 C   0  0  0  0  0  0  0  0  0  0  0  0
    4.0890    1.1910   -0.8360 C   0  0  0  0  0  0  0  0  0  0  0  0
    6.9530    0.4440   -1.0260 C   0  0  0  0  0  0  0  0  0  0  0  0
    8.1670   -0.0490   -1.3270 N   0  0  0  0  0  0  0  0  0  0  0  0
  1  2  1  0
  2  3  2  0
  2 28  1  0
  3  4  1  0
  4  5  2  0
  5  6  1  0
  5 27  1  0
  6  7  2  0
  6 26  1  0
  7  8  1  0
  8  9  2  0
  9 10  1  0
  9 25  1  0
 10 11  1  0
 10 12  1  0
 12 13  1  0
 13 14  1  1
 13 15  1  0
 13 16  1  0
 16 17  1  0
 17 18  1  0
 17 24  1  0
 18 19  1  0
 19 20  1  0
 20 21  1  1
 20 22  1  0
 20 23  1  0
 23 24  1  0
 25 26  2  0
 27 28  2  0
M  END
