
     RDKit          3D

 28 30  0  0  0  0  0  0  0  0999 V2000
   -5.9070   -0.5130   -0.6840 C   0  0  0  0  0  0  0  0  0  0  0  0
   -5.5470    0.0840   -1.9410 C   0  0  0  0  0  0  0  0  0  0  0  0
   -4.4830    0.2320   -2.6240 C   0  0  0  0  0  0  0  0  0  0  0  0
   -3.0920   -0.0630   -2.5920 C   0  0  0  0  0  0  0  0  0  0  0  0
   -2.3970    0.0760   -3.8250 C   0  0  0  0  0  0  0  0  0  0  0  0
   -1.0740   -0.1010   -3.9350 N   0  0  0  0  0  0  0  0  0  0  0  0
   -0.3430   -0.4230   -2.8620 C   0  0  0  0  0  0  0  0  0  0  0  0
   -0.9190   -0.5770   -1.6330 C   0  0  0  0  0  0  0  0  0  0  0  0
   -0.1840   -0.9560   -0.4130 C   0  0  0  0  0  0  0  0  0  0  0  0
    1.2430   -1.0580   -0.6650 N   0  0  0  0  0  0  0  0  0  0  0  0
    1.9070   -1.6140    0.5080 C   0  0  0  0  0  0  0  0  0  0  0  0
    3.3920   -1.2320    0.4040 C   0  0  0  0  0  0  0  0  0  0  0  0
    3.4650    0.1520    0.7330 N   0  0  0  0  0  0  0  0  0  0  0  0
    4.6100    0.8710    0.3070 C   0  0  0  0  0  0  0  0  0  0  0  0
    5.9040    0.5300    0.9900 C   0  0  2  0  0  0  0  0  0  0  0  0
    7.0160    1.4160    0.3950 C   0  0  0  0  0  0  0  0  0  0  0  0
    6.3490   -0.8870    0.8550 C   0  0  0  0  0  0  0  0  0  0  0  0
    2.2620    0.8710    0.3800 C   0  0  0  0  0  0  0  0  0  0  0  0
    1.7300    0.3000   -0.9070 C   0  0  0  0  0  0  0  0  0  0  0  0
   -2.3110   -0.3860   -1.5430 C   0  0  0  0  0  0  0  0  0  0  0  0
   -2.8160   -0.5660   -0.2010 C   0  0  0  0  0  0  0  0  0  0  0  0
   -3.0960   -1.8410    0.3020 C   0  0  0  0  0  0  0  0  0  0  0  0
   -3.4700   -1.9310    1.6250 C   0  0  0  0  0  0  0  0  0  0  0  0
   -3.5760   -0.8320    2.4500 C   0  0  0  0  0  0  0  0  0  0  0  0
   -3.2960    0.4120    1.9370 C   0  0  0  0  0  0  0  0  0  0  0  0
   -3.4020    1.5940    2.7970 C   0  0  0  0  0  0  0  0  0  0  0  0
   -2.9180    0.5610    0.6210 C   0  0  0  0  0  0  0  0  0  0  0  0
   -2.6160    1.8730    0.0490 C   0  0  0  0  0  0  0  0  0  0  0  0
  1  2  1  0
  2  3  2  3
  3  4  1  0
  4  5  2  0
  4 20  1  0
  5  6  1  0
  6  7  2  0
  7  8  1  0
  8  9  1  0
  8 20  2  0
  9 10  1  0
 10 11  1  0
 10 19  1  0
 11 12  1  0
 12 13  1  0
 13 14  1  0
 13 18  1  0
 14 15  1  0
 15 16  1  6
 15 17  1  0
 18 19  1  0
 20 21  1  0
 21 22  2  0
 21 27  1  0
 22 23  1  0
 23 24  2  0
 24 25  1  0
 25 26  1  0
 25 27  2  0
 27 28  1  0
M  END
