
     RDKit          3D

 13 14  0  0  0  0  0  0  0  0999 V2000
    3.5800   -1.4480    0.8000 N   0  0  0  0  0  0  0  0  0  0  0  0
    2.6640   -0.5130    0.2770 C   0  0  0  0  0  0  0  0  0  0  0  0
    3.1210    0.6160   -0.3270 N   0  0  0  0  0  0  0  0  0  0  0  0
    2.3080    1.5350   -0.8380 C   0  0  0  0  0  0  0  0  0  0  0  0
    0.9440    1.3510   -0.7620 C   0  0  0  0  0  0  0  0  0  0  0  0
    0.4650    0.2190   -0.1580 C   0  0  0  0  0  0  0  0  0  0  0  0
   -0.9750   -0.0340   -0.0460 C   0  0  0  0  0  0  0  0  0  0  0  0
   -1.9520    0.8010   -0.5150 C   0  0  0  0  0  0  0  0  0  0  0  0
   -3.3030    0.4900   -0.3700 C   0  0  0  0  0  0  0  0  0  0  0  0
   -3.6900   -0.6740    0.2540 C   0  0  0  0  0  0  0  0  0  0  0  0
   -2.7080   -1.4750    0.7050 N   0  0  0  0  0  0  0  0  0  0  0  0
   -1.4020   -1.2060    0.5820 C   0  0  0  0  0  0  0  0  0  0  0  0
    1.3430   -0.6750    0.3420 N   0  0  0  0  0  0  0  0  0  0  0  0
  1  2  1  0
  2  3  2  0
  2 13  1  0
  3  4  1  0
  4  5  2  0
  5  6  1  0
  6  7  1  0
  6 13  2  0
  7  8  2  0
  7 12  1  0
  8  9  1  0
  9 10  2  0
 10 11  1  0
 11 12  2  0
M  END
