
     RDKit          3D

 28 30  0  0  0  0  0  0  0  0999 V2000
   -3.2400    4.5580   -1.9590 C   0  0  0  0  0  0  0  0  0  0  0  0
   -1.9950    4.9920   -1.2810 C   0  0  0  0  0  0  0  0  0  0  0  0
   -1.3270    4.1990   -0.4510 C   0  0  0  0  0  0  0  0  0  0  0  0
   -0.0770    4.6690    0.2160 C   0  0  0  0  0  0  0  0  0  0  0  0
   -1.8530    2.8970   -0.2290 N   0  0  0  0  0  0  0  0  0  0  0  0
   -1.1870    1.8300   -0.5490 C   0  0  0  0  0  0  0  0  0  0  0  0
    0.1550    1.7180   -1.1640 C   0  0  0  0  0  0  0  0  0  0  0  0
    0.5370    0.3870   -0.7680 N   0  0  0  0  0  0  0  0  0  0  0  0
    1.8340   -0.0770   -0.6660 N   0  0  0  0  0  0  0  0  0  0  0  0
    2.6310    0.4860    0.1750 C   0  0  0  0  0  0  0  0  0  0  0  0
    4.0050   -0.0210    0.2690 C   0  0  0  0  0  0  0  0  0  0  0  0
    4.4420   -1.0680   -0.5150 C   0  0  0  0  0  0  0  0  0  0  0  0
    5.7390   -1.5270   -0.4090 C   0  0  0  0  0  0  0  0  0  0  0  0
    6.6420   -0.9650    0.4750 C   0  0  0  0  0  0  0  0  0  0  0  0
    8.0360   -1.4330    0.6120 C   0  0  0  0  0  0  0  0  0  0  0  0
    6.2210    0.0730    1.2570 C   0  0  0  0  0  0  0  0  0  0  0  0
    4.9220    0.5250    1.1430 C   0  0  0  0  0  0  0  0  0  0  0  0
   -0.6300   -0.3960   -0.4920 C   0  0  0  0  0  0  0  0  0  0  0  0
   -0.6080   -1.9090   -0.4010 C   0  0  0  0  0  0  0  0  0  0  0  0
   -1.6440    0.4240   -0.3590 C   0  0  0  0  0  0  0  0  0  0  0  0
   -3.0460    0.1320   -0.0580 C   0  0  0  0  0  0  0  0  0  0  0  0
   -3.4680   -1.2110    0.2240 C   0  0  0  0  0  0  0  0  0  0  0  0
   -3.7680   -2.1840   -0.7130 C   0  0  0  0  0  0  0  0  0  0  0  0
   -4.2020   -3.4480   -0.3850 C   0  0  0  0  0  0  0  0  0  0  0  0
   -4.3620   -3.8050    0.9380 C   0  0  0  0  0  0  0  0  0  0  0  0
   -4.8280   -5.1560    1.3180 C   0  0  0  0  0  0  0  0  0  0  0  0
   -4.0700   -2.8520    1.8920 C   0  0  0  0  0  0  0  0  0  0  0  0
   -3.6350   -1.5860    1.5680 C   0  0  0  0  0  0  0  0  0  0  0  0
  1  2  1  0
  2  3  2  3
  3  4  1  0
  3  5  1  0
  5  6  2  3
  6  7  1  0
  6 20  1  0
  7  8  1  0
  8  9  1  0
  8 18  1  0
  9 10  2  3
 10 11  1  0
 11 12  2  0
 11 17  1  0
 12 13  1  0
 13 14  2  0
 14 15  1  0
 14 16  1  0
 16 17  2  0
 18 19  1  0
 18 20  2  0
 20 21  1  0
 21 22  1  0
 22 23  2  0
 22 28  1  0
 23 24  1  0
 24 25  2  0
 25 26  1  0
 25 27  1  0
 27 28  2  0
M  END
