
     RDKit          3D

 28 30  0  0  0  0  0  0  0  0999 V2000
   -2.0880    6.1650   -0.1100 C   0  0  0  0  0  0  0  0  0  0  0  0
   -1.6950    4.7470    0.0060 C   0  0  0  0  0  0  0  0  0  0  0  0
   -1.0870    4.1010   -0.9930 C   0  0  0  0  0  0  0  0  0  0  0  0
   -0.7730    4.7680   -2.2670 C   0  0  0  0  0  0  0  0  0  0  0  0
   -0.7570    2.6860   -0.7040 C   0  0  0  0  0  0  0  0  0  0  0  0
   -1.3110    1.5930   -1.6070 C   0  0  0  0  0  0  0  0  0  0  0  0
   -1.2260    0.3080   -0.8350 C   0  0  0  0  0  0  0  0  0  0  0  0
   -2.4640   -0.2280   -0.3910 C   0  0  0  0  0  0  0  0  0  0  0  0
   -2.5150   -1.3340    0.4380 C   0  0  0  0  0  0  0  0  0  0  0  0
   -3.7900   -1.7890    0.9540 C   0  0  0  0  0  0  0  0  0  0  0  0
   -4.6500   -2.3010   -0.1590 N   0  0  0  0  0  0  0  0  0  0  0  0
   -5.8440   -2.8210    0.5370 C   0  0  0  0  0  0  0  0  0  0  0  0
   -3.9410   -3.4820   -0.7090 C   0  0  0  0  0  0  0  0  0  0  0  0
   -1.3490   -1.9170    0.8420 C   0  0  0  0  0  0  0  0  0  0  0  0
   -1.3350   -3.1190    1.7510 C   0  0  0  0  0  0  0  0  0  0  0  0
   -0.2110   -1.4050    0.4030 N   0  0  0  0  0  0  0  0  0  0  0  0
   -0.1040   -0.3160   -0.4250 C   0  0  0  0  0  0  0  0  0  0  0  0
    1.2390    0.0230   -0.9640 C   0  0  0  0  0  0  0  0  0  0  0  0
    2.1490   -0.9720   -0.3590 N   0  0  0  0  0  0  0  0  0  0  0  0
    3.1160   -1.4020   -1.2930 C   0  0  0  0  0  0  0  0  0  0  0  0
    4.4700   -0.8330   -1.2520 C   0  0  0  0  0  0  0  0  0  0  0  0
    5.0250   -0.9530    0.1650 C   0  0  0  0  0  0  0  0  0  0  0  0
    6.3350   -1.1810    0.3760 C   0  0  0  0  0  0  0  0  0  0  0  0
    6.7650   -1.2780    1.7120 C   0  0  0  0  0  0  0  0  0  0  0  0
    5.8520   -1.1470    2.7260 C   0  0  0  0  0  0  0  0  0  0  0  0
    4.5170   -0.9120    2.4820 C   0  0  0  0  0  0  0  0  0  0  0  0
    4.0910   -0.8100    1.1510 C   0  0  0  0  0  0  0  0  0  0  0  0
    2.6340   -0.5780    0.9000 C   0  0  0  0  0  0  0  0  0  0  0  0
  1  2  1  0
  2  3  2  3
  3  4  1  0
  3  5  1  0
  5  6  1  0
  6  7  1  0
  7  8  2  0
  7 17  1  0
  8  9  1  0
  9 10  1  0
  9 14  2  0
 10 11  1  0
 11 12  1  0
 11 13  1  0
 14 15  1  0
 14 16  1  0
 16 17  2  0
 17 18  1  0
 18 19  1  0
 19 20  1  0
 19 28  1  0
 20 21  1  0
 21 22  1  0
 22 23  2  0
 22 27  1  0
 23 24  1  0
 24 25  2  0
 25 26  1  0
 26 27  2  0
 27 28  1  0
M  END
