
     RDKit          3D

 16 16  0  0  0  0  0  0  0  0999 V2000
   -3.2410    1.8240   -2.2950 C   0  0  0  0  0  0  0  0  0  0  0  0
   -3.5640    1.1260   -1.0010 C   0  0  0  0  0  0  0  0  0  0  0  0
   -2.6320    0.0700   -0.6420 C   0  0  0  0  0  0  0  0  0  0  0  0
   -3.1540   -1.1400   -0.5180 C   0  0  0  0  0  0  0  0  0  0  0  0
   -2.6520   -2.4770   -0.1850 C   0  0  0  0  0  0  0  0  0  0  0  0
   -1.4380   -2.5450    0.4800 O   0  0  0  0  0  0  0  0  0  0  0  0
   -0.5510   -1.5870    0.9200 C   0  0  0  0  0  0  0  0  0  0  0  0
    0.0910   -1.7970    1.9610 O   0  0  0  0  0  0  0  0  0  0  0  0
   -0.3070   -0.3160    0.2340 C   0  0  0  0  0  0  0  0  0  0  0  0
    1.0140    0.2550    0.2760 C   0  0  0  0  0  0  0  0  0  0  0  0
    1.1450    1.3880   -0.3220 O   0  0  0  0  0  0  0  0  0  0  0  0
    2.1660   -0.2930    0.8950 N   0  0  0  0  0  0  0  0  0  0  0  0
    3.4120    0.4660    0.8160 C   0  0  1  0  0  0  0  0  0  0  0  0
    3.8580    0.8270    2.2010 C   0  0  0  0  0  0  0  0  0  0  0  0
    4.4760   -0.3260    0.0670 C   0  0  0  0  0  0  0  0  0  0  0  0
   -1.2080    0.4030   -0.4420 C   0  0  0  0  0  0  0  0  0  0  0  0
  1  2  1  0
  2  3  1  0
  3  4  2  0
  3 16  1  0
  4  5  1  0
  5  6  1  0
  6  7  1  0
  7  8  2  0
  7  9  1  0
  9 10  1  0
  9 16  2  0
 10 11  2  0
 10 12  1  0
 12 13  1  0
 13 14  1  1
 13 15  1  0
M  END
