
     RDKit          3D

 16 16  0  0  0  0  0  0  0  0999 V2000
   -3.8580   -0.9800    1.3050 C   0  0  0  0  0  0  0  0  0  0  0  0
   -3.8750   -0.4690    0.1180 C   0  0  0  0  0  0  0  0  0  0  0  0
   -5.1660   -0.2920   -0.4420 O   0  0  0  0  0  0  0  0  0  0  0  0
   -2.7080   -0.0850   -0.6400 C   0  0  0  0  0  0  0  0  0  0  0  0
   -2.8910    0.4360   -1.8690 C   0  0  0  0  0  0  0  0  0  0  0  0
   -4.1820    0.6520   -2.5200 C   0  0  0  0  0  0  0  0  0  0  0  0
   -1.3400   -0.2210   -0.1660 C   0  0  0  0  0  0  0  0  0  0  0  0
   -1.1080   -0.6960    0.9650 O   0  0  0  0  0  0  0  0  0  0  0  0
   -0.2430    0.2200   -1.0640 C   0  0  0  0  0  0  0  0  0  0  0  0
    1.0600    0.0790   -0.6200 N   0  0  0  0  0  0  0  0  0  0  0  0
    1.5660    0.8680    0.4800 C   0  0  0  0  0  0  0  0  0  0  0  0
    2.7280   -0.1390    0.4740 C   0  0  1  0  0  0  0  0  0  0  0  0
    3.2710   -0.4320    1.6880 O   0  0  0  0  0  0  0  0  0  0  0  0
    4.6770   -0.3960    1.5370 C   0  0  0  0  0  0  0  0  0  0  0  0
    5.1630    0.9480    1.0910 C   0  0  0  0  0  0  0  0  0  0  0  0
    1.5830   -1.0660    0.0180 C   0  0  0  0  0  0  0  0  0  0  0  0
  1  2  2  0
  2  3  1  0
  2  4  1  0
  4  5  2  3
  4  7  1  0
  5  6  1  0
  7  8  2  0
  7  9  1  0
  9 10  1  0
 10 11  1  0
 10 16  1  0
 11 12  1  0
 12 13  1  1
 12 16  1  0
 13 14  1  0
 14 15  1  0
M  END
