
     RDKit          3D

 16 16  0  0  0  0  0  0  0  0999 V2000
   -5.0330   -1.1770    1.1360 C   0  0  0  0  0  0  0  0  0  0  0  0
   -3.7380   -1.0510    0.4270 C   0  0  0  0  0  0  0  0  0  0  0  0
   -3.0270    0.0580    0.4200 C   0  0  0  0  0  0  0  0  0  0  0  0
   -3.5370    1.2440    1.1530 C   0  0  0  0  0  0  0  0  0  0  0  0
   -1.7360    0.1820   -0.2870 C   0  0  0  0  0  0  0  0  0  0  0  0
   -1.3360   -1.0900   -0.9890 C   0  0  0  0  0  0  0  0  0  0  0  0
   -0.0780   -0.8640   -1.6500 N   0  0  0  0  0  0  0  0  0  0  0  0
    1.1390   -0.5170   -1.0340 C   0  0  0  0  0  0  0  0  0  0  0  0
    1.1490   -0.3910    0.2160 O   0  0  0  0  0  0  0  0  0  0  0  0
    2.3970   -0.2960   -1.7820 C   0  0  0  0  0  0  0  0  0  0  0  0
    3.5410    0.1190   -0.9360 C   0  0  1  0  0  0  0  0  0  0  0  0
    3.3960    1.3900   -0.1820 C   0  0  0  0  0  0  0  0  0  0  0  0
    4.5740    1.2980    0.7990 C   0  0  0  0  0  0  0  0  0  0  0  0
    4.6130   -0.1760    1.0380 C   0  0  0  0  0  0  0  0  0  0  0  0
    5.2580   -0.7960    1.9190 O   0  0  0  0  0  0  0  0  0  0  0  0
    3.7950   -0.8260    0.1080 O   0  0  0  0  0  0  0  0  0  0  0  0
  1  2  1  0
  2  3  2  3
  3  4  1  0
  3  5  1  0
  5  6  1  0
  6  7  1  0
  7  8  1  0
  8  9  2  0
  8 10  1  0
 11 10  1  1
 11 12  1  0
 11 16  1  0
 12 13  1  0
 13 14  1  0
 14 15  2  0
 14 16  1  0
M  END
