
     RDKit          3D

 24 26  0  0  0  0  0  0  0  0999 V2000
   -2.8890   -0.6560    2.8870 C   0  0  0  0  0  0  0  0  0  0  0  0
   -3.6310    0.2920    2.3390 C   0  0  0  0  0  0  0  0  0  0  0  0
   -3.8440    0.4730    0.9170 C   0  0  0  0  0  0  0  0  0  0  0  0
   -4.6100    1.4880    0.5660 C   0  0  0  0  0  0  0  0  0  0  0  0
   -4.9240    1.8070   -0.8520 C   0  0  0  0  0  0  0  0  0  0  0  0
   -3.3190   -0.3700   -0.1590 C   0  0  2  0  0  0  0  0  0  0  0  0
   -3.8930   -1.7660   -0.1210 C   0  0  0  0  0  0  0  0  0  0  0  0
   -2.9250   -2.3630   -1.5910 S   0  0  0  0  0  0  0  0  0  0  0  0
   -1.4780   -1.3650   -1.1020 C   0  0  0  0  0  0  0  0  0  0  0  0
   -0.1880   -1.5660   -1.4230 N   0  0  0  0  0  0  0  0  0  0  0  0
    0.7850   -0.7430   -0.9550 C   0  0  0  0  0  0  0  0  0  0  0  0
    2.0920   -0.9320   -1.2680 C   0  0  0  0  0  0  0  0  0  0  0  0
    2.4600   -2.0700   -2.1460 C   0  0  0  0  0  0  0  0  0  0  0  0
    3.0510   -0.0540   -0.7580 C   0  0  0  0  0  0  0  0  0  0  0  0
    4.3350   -0.2920   -1.1070 O   0  0  0  0  0  0  0  0  0  0  0  0
    5.5350    0.3110   -0.8110 C   0  0  0  0  0  0  0  0  0  0  0  0
    5.9760    0.3010    0.6150 C   0  0  0  0  0  0  0  0  0  0  0  0
    7.2220    0.9610    0.7410 O   0  0  0  0  0  0  0  0  0  0  0  0
    2.5920    0.9770    0.0530 C   0  0  0  0  0  0  0  0  0  0  0  0
    1.2650    1.1680    0.3710 C   0  0  0  0  0  0  0  0  0  0  0  0
    0.3420    0.2830   -0.1480 C   0  0  0  0  0  0  0  0  0  0  0  0
   -0.9810    0.4890    0.1800 C   0  0  0  0  0  0  0  0  0  0  0  0
   -1.3800    1.4070    0.9020 O   0  0  0  0  0  0  0  0  0  0  0  0
   -1.9240   -0.3800   -0.3250 N   0  0  0  0  0  0  0  0  0  0  0  0
  1  2  2  0
  2  3  1  0
  3  4  2  3
  6  3  1  1
  4  5  1  0
  6  7  1  0
  6 24  1  0
  7  8  1  0
  8  9  1  0
  9 10  2  0
  9 24  1  0
 10 11  1  0
 11 12  2  0
 11 21  1  0
 12 13  1  0
 12 14  1  0
 14 15  1  0
 14 19  2  0
 15 16  1  0
 16 17  1  0
 17 18  1  0
 19 20  1  0
 20 21  2  0
 21 22  1  0
 22 23  2  0
 22 24  1  0
M  END
