
     RDKit          3D

 24 26  0  0  0  0  0  0  0  0999 V2000
   -0.5380    0.8710    3.3780 C   0  0  0  0  0  0  0  0  0  0  0  0
   -0.5530    1.4200    1.9610 C   0  0  2  0  0  0  0  0  0  0  0  0
   -1.6700    0.8280    1.3030 O   0  0  0  0  0  0  0  0  0  0  0  0
   -2.6910    1.6450    0.7960 C   0  0  0  0  0  0  0  0  0  0  0  0
   -2.5460    2.8820    0.9650 O   0  0  0  0  0  0  0  0  0  0  0  0
   -3.8900    1.1200    0.0960 C   0  0  0  0  0  0  0  0  0  0  0  0
   -3.8780   -0.2740   -0.0980 N   0  0  0  0  0  0  0  0  0  0  0  0
   -2.9500   -0.8510   -0.9790 C   0  0  0  0  0  0  0  0  0  0  0  0
   -4.6420   -1.0850    0.7540 C   0  0  0  0  0  0  0  0  0  0  0  0
   -6.1350   -0.8670    0.5070 C   0  0  0  0  0  0  0  0  0  0  0  0
   -6.4510   -1.1830   -0.8120 O   0  0  0  0  0  0  0  0  0  0  0  0
    0.7100    1.0480    1.2410 C   0  0  0  0  0  0  0  0  0  0  0  0
    1.7310    1.3860    0.8180 N   0  0  0  0  0  0  0  0  0  0  0  0
    2.6700    0.7390    0.1880 C   0  0  0  0  0  0  0  0  0  0  0  0
    3.8950    1.2090   -0.3030 C   0  0  0  0  0  0  0  0  0  0  0  0
    4.7460    0.3440   -0.9420 C   0  0  0  0  0  0  0  0  0  0  0  0
    5.9640    0.7930   -1.4330 C   0  0  0  0  0  0  0  0  0  0  0  0
    6.8590   -0.0210   -2.0790 C   0  0  0  0  0  0  0  0  0  0  0  0
    6.5590   -1.3510   -2.2640 C   0  0  0  0  0  0  0  0  0  0  0  0
    5.3610   -1.8410   -1.7930 C   0  0  0  0  0  0  0  0  0  0  0  0
    4.4910   -0.9910   -1.1500 C   0  0  0  0  0  0  0  0  0  0  0  0
    3.2940   -1.5010   -0.6830 C   0  0  0  0  0  0  0  0  0  0  0  0
    2.4110   -0.6080   -0.0200 C   0  0  0  0  0  0  0  0  0  0  0  0
    0.7870   -0.8120    0.7370 S   0  0  0  0  0  0  0  0  0  0  0  0
  2  1  1  1
  2  3  1  0
  2 12  1  0
  3  4  1  0
  4  5  2  0
  4  6  1  0
  6  7  1  0
  7  8  1  0
  7  9  1  0
  9 10  1  0
 10 11  1  0
 12 13  2  0
 12 24  1  0
 13 14  1  0
 14 15  2  0
 14 23  1  0
 15 16  1  0
 16 17  2  0
 16 21  1  0
 17 18  1  0
 18 19  2  0
 19 20  1  0
 20 21  2  0
 21 22  1  0
 22 23  2  0
 23 24  1  0
M  END
