
     RDKit          3D

 25 28  0  0  0  0  0  0  0  0999 V2000
   -1.8600    2.9730    1.0750 C   0  0  0  0  0  0  0  0  0  0  0  0
   -1.6850    1.5500    0.7580 C   0  0  0  0  0  0  0  0  0  0  0  0
   -0.4360    1.0880    1.1310 F   0  0  0  0  0  0  0  0  0  0  0  0
   -2.4910    0.7190    0.2010 C   0  0  0  0  0  0  0  0  0  0  0  0
   -3.8300    1.0110   -0.2670 C   0  0  0  0  0  0  0  0  0  0  0  0
   -4.3710    2.1550   -0.1630 N   0  0  0  0  0  0  0  0  0  0  0  0
   -4.6270   -0.0770   -0.9010 C   0  0  0  0  0  0  0  0  0  0  0  0
   -4.1600   -1.2870   -1.0500 C   0  0  0  0  0  0  0  0  0  0  0  0
   -2.8430   -1.5990   -0.5970 C   0  0  0  0  0  0  0  0  0  0  0  0
   -2.0410   -0.6810   -0.0070 C   0  0  0  0  0  0  0  0  0  0  0  0
   -0.7580   -1.2260    0.4010 C   0  0  0  0  0  0  0  0  0  0  0  0
   -0.0890   -1.9500   -0.6950 N   0  0  0  0  0  0  0  0  0  0  0  0
    1.1740   -2.4470   -0.1870 C   0  0  0  0  0  0  0  0  0  0  0  0
    2.0910   -1.4100    0.2860 C   0  0  0  0  0  0  0  0  0  0  0  0
    3.0000   -0.7100   -0.4500 N   0  0  0  0  0  0  0  0  0  0  0  0
    3.6560    0.1550    0.3420 C   0  0  0  0  0  0  0  0  0  0  0  0
    4.7040    1.0790   -0.0770 C   0  0  0  0  0  0  0  0  0  0  0  0
    5.3930    1.9730    0.7050 C   0  0  0  0  0  0  0  0  0  0  0  0
    6.2790    2.6240   -0.1280 C   0  0  0  0  0  0  0  0  0  0  0  0
    6.1450    2.1600   -1.3490 O   0  0  0  0  0  0  0  0  0  0  0  0
    5.2010    1.2230   -1.3540 C   0  0  0  0  0  0  0  0  0  0  0  0
    3.1360   -0.0270    1.5680 N   0  0  0  0  0  0  0  0  0  0  0  0
    2.2220   -0.9490    1.5070 O   0  0  0  0  0  0  0  0  0  0  0  0
   -0.8780   -3.1240   -1.0450 C   0  0  0  0  0  0  0  0  0  0  0  0
   -2.2720   -2.9110   -0.7560 N   0  0  0  0  0  0  0  0  0  0  0  0
  1  2  1  0
  2  3  1  0
  2  4  2  3
  4  5  1  0
  4 10  1  0
  5  6  2  0
  5  7  1  0
  7  8  2  0
  8  9  1  0
  9 10  2  0
  9 25  1  0
 10 11  1  0
 11 12  1  0
 12 13  1  0
 12 24  1  0
 13 14  1  0
 14 15  2  0
 14 23  1  0
 15 16  1  0
 16 17  1  0
 16 22  2  0
 17 18  1  0
 17 21  2  0
 18 19  2  0
 19 20  1  0
 20 21  1  0
 22 23  1  0
 24 25  1  0
M  CHG  1   6   1
M  END
