
     RDKit          3D

 24 26  0  0  0  0  0  0  0  0999 V2000
    6.1950    3.2990    0.1080 C   0  0  0  0  0  0  0  0  0  0  0  0
    5.3000    2.1700   -0.1910 C   0  0  0  0  0  0  0  0  0  0  0  0
    5.0770    1.2500    0.6800 N   0  0  0  0  0  0  0  0  0  0  0  0
    4.2260    0.1520    0.4330 C   0  0  0  0  0  0  0  0  0  0  0  0
    4.8010   -1.0810    0.2350 C   0  0  0  0  0  0  0  0  0  0  0  0
    4.0290   -2.2120   -0.0140 C   0  0  0  0  0  0  0  0  0  0  0  0
    2.6380   -2.0940   -0.0640 C   0  0  0  0  0  0  0  0  0  0  0  0
    2.0570   -0.8600    0.1340 C   0  0  0  0  0  0  0  0  0  0  0  0
    0.6860   -0.6750    0.0970 O   0  0  0  0  0  0  0  0  0  0  0  0
   -0.1410   -1.7860   -0.1520 C   0  0  0  0  0  0  0  0  0  0  0  0
   -1.5610   -1.3370   -0.1430 C   0  0  0  0  0  0  0  0  0  0  0  0
   -1.8100   -0.0110    0.0880 C   0  0  0  0  0  0  0  0  0  0  0  0
   -3.0980    0.4570    0.1050 C   0  0  0  0  0  0  0  0  0  0  0  0
   -3.3360    1.8670    0.3510 C   0  0  0  0  0  0  0  0  0  0  0  0
   -2.3570    2.6400    0.5450 O   0  0  0  0  0  0  0  0  0  0  0  0
   -4.6230    2.4230    0.3850 N   0  0  0  0  0  0  0  0  0  0  0  0
   -4.8540    3.8560    0.6360 C   0  0  0  0  0  0  0  0  0  0  0  0
   -4.1300   -0.4650   -0.1180 C   0  0  0  0  0  0  0  0  0  0  0  0
   -3.8740   -1.7770   -0.3450 C   0  0  0  0  0  0  0  0  0  0  0  0
   -2.5980   -2.2620   -0.3670 C   0  0  0  0  0  0  0  0  0  0  0  0
   -2.4620   -3.5870   -0.6050 O   0  0  0  0  0  0  0  0  0  0  0  0
   -3.5530   -4.4100   -0.2690 C   0  0  0  0  0  0  0  0  0  0  0  0
   -4.9050   -3.1990   -0.6420 S   0  0  0  0  0  0  0  0  0  0  0  0
    2.8530    0.2400    0.3780 C   0  0  0  0  0  0  0  0  0  0  0  0
  1  2  1  0
  2  3  2  3
  3  4  1  0
  4  5  2  0
  4 24  1  0
  5  6  1  0
  6  7  2  0
  7  8  1  0
  8  9  1  0
  8 24  2  0
  9 10  1  0
 10 11  1  0
 11 12  2  0
 11 20  1  0
 12 13  1  0
 13 14  1  0
 13 18  2  0
 14 15  2  0
 14 16  1  0
 16 17  1  0
 18 19  1  0
 19 20  2  0
 19 23  1  0
 20 21  1  0
 21 22  1  0
 22 23  1  0
M  END
