
     RDKit          3D

 22 22  0  0  0  0  0  0  0  0999 V2000
   -2.6520   -1.3350   -0.8140 C   0  0  0  0  0  0  0  0  0  0  0  0
   -2.3170   -0.3320    0.2810 C   0  0  1  0  0  0  0  0  0  0  0  0
   -3.5990    0.3780    0.6570 C   0  0  0  0  0  0  0  0  0  0  0  0
   -4.1620    1.0210   -0.4410 O   0  0  0  0  0  0  0  0  0  0  0  0
   -5.3260    1.6790   -0.1490 C   0  0  2  0  0  0  0  0  0  0  0  0
   -6.4230    1.1610   -0.8400 O   0  0  0  0  0  0  0  0  0  0  0  0
   -5.2280    3.0650   -0.3090 O   0  0  0  0  0  0  0  0  0  0  0  0
   -1.7940   -0.9550    1.4020 O   0  0  0  0  0  0  0  0  0  0  0  0
   -0.5420   -1.4760    1.2190 C   0  0  0  0  0  0  0  0  0  0  0  0
    0.4910   -0.5120    0.7330 C   0  0  1  0  0  0  0  0  0  0  0  0
    0.7490    0.5200    1.6360 O   0  0  0  0  0  0  0  0  0  0  0  0
    1.7920   -1.2380    0.5030 C   0  0  1  0  0  0  0  0  0  0  0  0
    1.6840   -2.2940   -0.3790 O   0  0  0  0  0  0  0  0  0  0  0  0
    2.8410   -0.2560    0.0260 C   0  0  0  0  0  0  0  0  0  0  0  0
    4.1700   -0.9570   -0.2160 C   0  0  2  0  0  0  0  0  0  0  0  0
    4.5710   -1.5260    0.9890 O   0  0  0  0  0  0  0  0  0  0  0  0
    5.2110    0.0150   -0.7170 C   0  0  0  0  0  0  0  0  0  0  0  0
    4.7520    0.5460   -1.9200 O   0  0  0  0  0  0  0  0  0  0  0  0
    5.6410    1.4380   -2.4370 N   0  0  0  0  0  0  0  0  0  0  0  0
   -0.0090    0.1120   -0.5520 C   0  0  0  0  0  0  0  0  0  0  0  0
   -1.3590    0.7160   -0.2430 C   0  0  2  0  0  0  0  0  0  0  0  0
   -1.1860    1.6670    0.7530 O   0  0  0  0  0  0  0  0  0  0  0  0
  2  1  1  6
  2  3  1  0
  2  8  1  0
  2 21  1  0
  3  4  1  0
  4  5  1  0
  5  6  1  6
  5  7  1  0
  8  9  1  0
  9 10  1  0
 10 11  1  1
 10 12  1  0
 10 20  1  0
 12 13  1  6
 12 14  1  0
 14 15  1  0
 15 16  1  1
 15 17  1  0
 17 18  1  0
 18 19  1  0
 20 21  1  0
 21 22  1  1
M  END
