
     RDKit          3D

 21 21  0  0  0  0  0  0  0  0999 V2000
    4.6560   -0.9180    2.1650 N   0  0  0  0  0  0  0  0  0  0  0  0
    4.6600   -1.3650    0.8010 C   0  0  0  0  0  0  0  0  0  0  0  0
    4.0270   -0.3640   -0.1400 C   0  0  2  0  0  0  0  0  0  0  0  0
    4.7370    0.9590   -0.1280 C   0  0  0  0  0  0  0  0  0  0  0  0
    4.1120    1.8460   -0.9650 O   0  0  0  0  0  0  0  0  0  0  0  0
    3.0610    1.3400   -1.6860 C   0  0  0  0  0  0  0  0  0  0  0  0
    1.9580    0.7590   -0.8140 C   0  0  1  0  0  0  0  0  0  0  0  0
    1.2120   -0.0690   -1.5890 O   0  0  0  0  0  0  0  0  0  0  0  0
   -0.1130    0.1710   -1.7420 C   0  0  0  0  0  0  0  0  0  0  0  0
   -0.9240    0.0890   -0.4800 C   0  0  1  0  0  0  0  0  0  0  0  0
   -0.5390    0.9850    0.4770 O   0  0  0  0  0  0  0  0  0  0  0  0
   -2.3960    0.2570   -0.8090 C   0  0  0  0  0  0  0  0  0  0  0  0
   -3.1780    0.0460    0.3420 O   0  0  0  0  0  0  0  0  0  0  0  0
   -4.5280    0.2000    0.0420 C   0  0  2  0  0  0  0  0  0  0  0  0
   -5.0540    1.3190    0.9470 C   0  0  0  0  0  0  0  0  0  0  0  0
   -6.3960    1.5440    0.7180 O   0  0  0  0  0  0  0  0  0  0  0  0
   -5.2250   -1.0990    0.3410 C   0  0  1  0  0  0  0  0  0  0  0  0
   -4.6430   -2.0790   -0.4560 O   0  0  0  0  0  0  0  0  0  0  0  0
   -5.0460   -1.4610    1.6760 O   0  0  0  0  0  0  0  0  0  0  0  0
    2.5930   -0.1210    0.2750 C   0  0  1  0  0  0  0  0  0  0  0  0
    1.9640   -1.3500    0.3620 O   0  0  0  0  0  0  0  0  0  0  0  0
  1  2  1  0
  3  2  1  1
  3  4  1  0
  3 20  1  0
  4  5  1  0
  5  6  1  0
  6  7  1  0
  7  8  1  6
  7 20  1  0
  8  9  1  0
  9 10  1  0
 10 11  1  1
 10 12  1  0
 12 13  1  0
 13 14  1  0
 14 15  1  1
 14 17  1  0
 15 16  1  0
 17 18  1  6
 17 19  1  0
 20 21  1  6
M  CHG  1   1   1
M  END
