
     RDKit          3D

 21 21  0  0  0  0  0  0  0  0999 V2000
    4.3390   -0.0560    1.5700 N   0  0  0  0  0  0  0  0  0  0  0  0
    3.1750    0.3940    0.8320 C   0  0  1  0  0  0  0  0  0  0  0  0
    3.0270    1.8660    1.0690 C   0  0  0  0  0  0  0  0  0  0  0  0
    4.1430    2.5830    0.6400 O   0  0  0  0  0  0  0  0  0  0  0  0
    3.3060    0.0370   -0.6190 C   0  0  2  0  0  0  0  0  0  0  0  0
    4.4690    0.6790   -1.1010 O   0  0  0  0  0  0  0  0  0  0  0  0
    2.1120    0.3950   -1.4370 C   0  0  0  0  0  0  0  0  0  0  0  0
    0.9260   -0.1890   -1.0230 O   0  0  0  0  0  0  0  0  0  0  0  0
    0.9270   -1.5610   -1.0390 C   0  0  0  0  0  0  0  0  0  0  0  0
   -0.2470   -2.1370   -0.6330 O   0  0  0  0  0  0  0  0  0  0  0  0
   -1.3640   -1.8160   -1.3770 C   0  0  1  0  0  0  0  0  0  0  0  0
   -1.7720   -2.9850   -2.0770 O   0  0  0  0  0  0  0  0  0  0  0  0
   -2.5320   -1.4120   -0.5430 C   0  0  1  0  0  0  0  0  0  0  0  0
   -2.8320   -2.5010    0.3000 O   0  0  0  0  0  0  0  0  0  0  0  0
   -2.3260   -0.2150    0.3300 C   0  0  1  0  0  0  0  0  0  0  0  0
   -1.9900    1.0410   -0.3950 C   0  0  0  0  0  0  0  0  0  0  0  0
   -3.0830    2.0570   -0.1410 C   0  0  0  0  0  0  0  0  0  0  0  0
   -4.2950    1.4190   -0.4700 O   0  0  0  0  0  0  0  0  0  0  0  0
   -4.6520    0.6790    0.6550 C   0  0  0  0  0  0  0  0  0  0  0  0
   -3.5250   -0.0940    1.2380 C   0  0  2  0  0  0  0  0  0  0  0  0
   -3.1060    0.5180    2.4170 O   0  0  0  0  0  0  0  0  0  0  0  0
  2  1  1  1
  2  3  1  0
  2  5  1  0
  3  4  1  0
  5  6  1  6
  5  7  1  0
  7  8  1  0
  8  9  1  0
  9 10  1  0
 10 11  1  0
 11 12  1  1
 11 13  1  0
 13 14  1  1
 13 15  1  0
 15 16  1  6
 15 20  1  0
 16 17  1  0
 17 18  1  0
 18 19  1  0
 19 20  1  0
 20 21  1  1
M  CHG  1   1   1
M  END
