
     RDKit          3D

 21 21  0  0  0  0  0  0  0  0999 V2000
   -2.6680    0.0960   -1.7030 C   0  0  0  0  0  0  0  0  0  0  0  0
   -1.7030    0.5110   -0.6720 C   0  0  2  0  0  0  0  0  0  0  0  0
   -2.3600    1.2470    0.3120 O   0  0  0  0  0  0  0  0  0  0  0  0
   -0.9240    1.6680   -1.3860 C   0  0  0  0  0  0  0  0  0  0  0  0
   -1.9270    2.5910   -1.8090 O   0  0  0  0  0  0  0  0  0  0  0  0
   -0.8070   -0.4610   -0.0690 C   0  0  2  0  0  0  0  0  0  0  0  0
   -1.5540   -1.6130    0.5870 C   0  0  0  0  0  0  0  0  0  0  0  0
   -2.4880   -1.3190    1.6760 C   0  0  0  0  0  0  0  0  0  0  0  0
   -3.5950   -0.5410    1.3850 O   0  0  0  0  0  0  0  0  0  0  0  0
   -0.0820    0.2510    1.1070 C   0  0  0  0  0  0  0  0  0  0  0  0
    0.9940    0.9450    0.7660 O   0  0  0  0  0  0  0  0  0  0  0  0
    1.9500    0.4580   -0.0410 C   0  0  1  0  0  0  0  0  0  0  0  0
    2.7030    1.4950   -0.5590 O   0  0  0  0  0  0  0  0  0  0  0  0
    2.8430   -0.4240    0.7980 C   0  0  0  0  0  0  0  0  0  0  0  0
    3.4480    0.1990    1.8700 O   0  0  0  0  0  0  0  0  0  0  0  0
    4.3630    1.2050    1.8940 C   0  0  0  0  0  0  0  0  0  0  0  0
    4.7730    1.6850    0.8190 O   0  0  0  0  0  0  0  0  0  0  0  0
    4.8710    1.7310    3.1030 O   0  0  0  0  0  0  0  0  0  0  0  0
    1.4850   -0.3740   -1.2030 C   0  0  0  0  0  0  0  0  0  0  0  0
    0.2800   -1.1300   -0.8160 C   0  0  2  0  0  0  0  0  0  0  0  0
   -0.1790   -2.0530   -1.8470 N   0  0  0  0  0  0  0  0  0  0  0  0
  2  1  1  6
  2  3  1  0
  2  4  1  0
  2  6  1  0
  4  5  1  0
  6  7  1  1
  6 10  1  0
  6 20  1  0
  7  8  1  0
  8  9  1  0
 10 11  1  0
 11 12  1  0
 12 13  1  6
 12 14  1  0
 12 19  1  0
 14 15  1  0
 15 16  1  0
 16 17  2  0
 16 18  1  0
 19 20  1  0
 20 21  1  6
M  CHG  1  21   1
M  END
