
     RDKit          3D

 37 38  0  0  0  0  0  0  0  0999 V2000
   -1.9170    3.7760   -2.0780 C   0  0  0  0  0  0  0  0  0  0  0  0
   -1.7510    3.3340   -0.3850 S   0  0  2  0  0  0  0  0  0  0  0  0
   -2.1460    4.5930    0.7910 C   0  0  0  0  0  0  0  0  0  0  0  0
   -1.2920    5.7530    0.6170 N   0  0  0  0  0  0  0  0  0  0  0  0
   -0.0390    2.7180   -0.0930 C   0  0  0  0  0  0  0  0  0  0  0  0
   -0.2530    1.5790    0.8580 C   0  0  1  0  0  0  0  0  0  0  0  0
    0.7260    1.3210    1.7430 O   0  0  0  0  0  0  0  0  0  0  0  0
   -1.3400    2.0270    1.7440 F   0  0  0  0  0  0  0  0  0  0  0  0
   -0.8120    0.4170    0.1180 C   0  0  0  0  0  0  0  0  0  0  0  0
   -0.2680   -0.8770   -0.0780 C   0  0  0  0  0  0  0  0  0  0  0  0
   -1.2120   -1.8020   -0.4520 O   0  0  0  0  0  0  0  0  0  0  0  0
    1.0030   -1.4810    0.0120 C   0  0  0  0  0  0  0  0  0  0  0  0
    2.2380   -1.3180    0.1360 C   0  0  0  0  0  0  0  0  0  0  0  0
    3.2680   -0.3710    0.2610 C   0  0  0  0  0  0  0  0  0  0  0  0
    4.5380   -0.8640    0.4340 C   0  0  0  0  0  0  0  0  0  0  0  0
    5.6330    0.0510    0.5680 C   0  0  0  0  0  0  0  0  0  0  0  0
    6.8770   -0.3430    0.7370 C   0  0  0  0  0  0  0  0  0  0  0  0
    7.8770    0.6040    0.8580 O   0  0  0  0  0  0  0  0  0  0  0  0
    9.5830    0.1870    0.7510 P   0  0  0  0  0  0  0  0  0  0  0  0
   10.0510   -0.0430   -0.8910 O   0  0  0  0  0  0  0  0  0  0  0  0
    3.2580    1.4410    0.0680 P   0  0  0  0  0  0  0  0  0  0  0  0
    3.7620    2.1070   -1.2340 O   0  0  0  0  0  0  0  0  0  0  0  0
   -2.1150    0.6630   -0.2720 C   0  0  0  0  0  0  0  0  0  0  0  0
   -2.7700   -0.3250   -0.9610 O   0  0  0  0  0  0  0  0  0  0  0  0
   -4.0190   -0.7080   -0.7570 O   0  0  0  0  0  0  0  0  0  0  0  0
   -4.1710   -1.8830   -1.4200 O   0  0  0  0  0  0  0  0  0  0  0  0
   -4.5290   -2.9860   -0.6720 C   0  0  0  0  0  0  0  0  0  0  0  0
   -4.5010   -2.9800    0.6660 C   0  0  0  0  0  0  0  0  0  0  0  0
   -4.1150   -1.8670    1.2950 F   0  0  0  0  0  0  0  0  0  0  0  0
   -4.8650   -4.1010    1.3790 O   0  0  0  0  0  0  0  0  0  0  0  0
   -5.6780   -5.1010    0.7640 C   0  0  0  0  0  0  0  0  0  0  0  0
   -5.0010   -5.4510   -0.5510 C   0  0  1  0  0  0  0  0  0  0  0  0
   -3.6920   -5.8310   -0.2680 F   0  0  0  0  0  0  0  0  0  0  0  0
   -5.8840   -6.7450   -1.3860 Cl  0  0  0  0  0  0  0  0  0  0  0  0
   -4.9510   -4.2020   -1.3500 C   0  0  0  0  0  0  0  0  0  0  0  0
   -5.2640   -4.2150   -2.5650 O   0  0  0  0  0  0  0  0  0  0  0  0
   -2.7080    1.9040    0.0410 O   0  0  0  0  0  0  0  0  0  0  0  0
  2  1  1  6
  2  3  1  0
  2  5  1  0
  2 37  1  0
  3  4  1  0
  5  6  1  0
  6  7  1  1
  6  8  1  0
  6  9  1  0
  9 10  1  0
  9 23  2  0
 10 11  2  0
 10 12  1  0
 12 13  2  3
 13 14  1  0
 14 15  2  3
 14 21  1  0
 15 16  1  0
 16 17  2  3
 17 18  1  0
 18 19  1  0
 19 20  1  0
 21 22  2  0
 23 24  1  0
 23 37  1  0
 24 25  1  0
 25 26  1  0
 26 27  1  0
 27 28  2  0
 27 35  1  0
 28 29  1  0
 28 30  1  0
 30 31  1  0
 31 32  1  0
 32 33  1  1
 32 34  1  0
 32 35  1  0
 35 36  2  0
M  END
