
     RDKit          3D

 36 38  0  0  0  0  0  0  0  0999 V2000
    4.0750   -4.0180   -0.1520 O   0  0  0  0  0  0  0  0  0  0  0  0
    3.4360   -2.9060   -0.1590 C   0  0  0  0  0  0  0  0  0  0  0  0
    3.1800   -2.3440    1.1890 C   0  0  0  0  0  0  0  0  0  0  0  0
    4.4050   -1.9910    1.8340 O   0  0  0  0  0  0  0  0  0  0  0  0
    4.9680   -0.7570    1.4960 C   0  0  0  0  0  0  0  0  0  0  0  0
    6.1910   -0.5600    1.3490 O   0  0  0  0  0  0  0  0  0  0  0  0
    4.0080    0.3610    1.3110 C   0  0  0  0  0  0  0  0  0  0  0  0
    3.1430    0.4690    2.3970 O   0  0  0  0  0  0  0  0  0  0  0  0
    2.5170    1.5960    2.8740 C   0  0  0  0  0  0  0  0  0  0  0  0
    2.5330    1.7780    4.1350 O   0  0  0  0  0  0  0  0  0  0  0  0
    1.9110    2.4690    2.0200 O   0  0  0  0  0  0  0  0  0  0  0  0
    0.9340    2.2250    1.0510 C   0  0  1  0  0  0  0  0  0  0  0  0
    1.4440    2.0470   -0.2320 O   0  0  0  0  0  0  0  0  0  0  0  0
    1.2250    2.9110   -1.2650 C   0  0  0  0  0  0  0  0  0  0  0  0
    0.5170    3.9480   -1.0730 O   0  0  0  0  0  0  0  0  0  0  0  0
    1.7400    2.7270   -2.5480 O   0  0  0  0  0  0  0  0  0  0  0  0
   -0.0130    1.1370    1.4750 C   0  0  0  0  0  0  0  0  0  0  0  0
    0.1420    0.6340    2.6210 O   0  0  0  0  0  0  0  0  0  0  0  0
   -1.0760    0.6320    0.6720 N   0  0  0  0  0  0  0  0  0  0  0  0
   -2.3600    0.4620    1.2660 C   0  0  0  0  0  0  0  0  0  0  0  0
   -2.5400    0.7440    2.4830 O   0  0  0  0  0  0  0  0  0  0  0  0
   -3.4490   -0.0040    0.5800 O   0  0  0  0  0  0  0  0  0  0  0  0
   -4.7360   -0.1740    1.1790 C   0  0  0  0  0  0  0  0  0  0  0  0
   -5.6420   -0.7060    0.0690 C   0  0  0  0  0  0  0  0  0  0  0  0
   -6.9120   -0.8900    0.5980 O   0  0  0  0  0  0  0  0  0  0  0  0
   -7.6950   -1.3490   -0.3540 O   0  0  0  0  0  0  0  0  0  0  0  0
   -0.9420    0.2830   -0.7070 C   0  0  0  0  0  0  0  0  0  0  0  0
   -1.9530    0.7400   -1.5650 C   0  0  0  0  0  0  0  0  0  0  0  0
   -1.9230    0.4680   -2.9170 C   0  0  0  0  0  0  0  0  0  0  0  0
   -0.8960   -0.2510   -3.3960 N   0  0  0  0  0  0  0  0  0  0  0  0
    0.1000   -0.7180   -2.6270 C   0  0  0  0  0  0  0  0  0  0  0  0
    1.2080   -1.4490   -2.8360 N   0  0  0  0  0  0  0  0  0  0  0  0
    1.8440   -1.6220   -1.6350 C   0  0  0  0  0  0  0  0  0  0  0  0
    1.1160   -0.9900   -0.6900 N   0  0  0  0  0  0  0  0  0  0  0  0
    0.0650   -0.4410   -1.2680 C   0  0  0  0  0  0  0  0  0  0  0  0
    3.0430   -2.3270   -1.3810 N   0  0  0  0  0  0  0  0  0  0  0  0
  1  2  2  0
  2  3  1  0
  2 36  1  0
  3  4  1  0
  4  5  1  0
  5  6  2  0
  5  7  1  0
  7  8  1  0
  8  9  1  0
  9 10  2  0
  9 11  1  0
 11 12  1  0
 12 13  1  6
 12 17  1  0
 13 14  1  0
 14 15  2  0
 14 16  1  0
 17 18  2  0
 17 19  1  0
 19 20  1  0
 19 27  1  0
 20 21  2  0
 20 22  1  0
 22 23  1  0
 23 24  1  0
 24 25  1  0
 25 26  1  0
 27 28  1  0
 27 35  2  0
 28 29  2  0
 29 30  1  0
 30 31  2  0
 31 32  1  0
 31 35  1  0
 32 33  1  0
 33 34  2  0
 33 36  1  0
 34 35  1  0
M  END
