
     RDKit          3D

  6  5  0  0  0  0  0  0  0  0999 V2000
    2.8270   -0.1800   -0.1050 C   0  0  0  0  0  0  0  0  0  0  0  0
    1.4470   -0.3940    0.4960 C   0  0  0  0  0  0  0  0  0  0  0  0
    0.5340    0.1880   -0.3620 O   0  0  0  0  0  0  0  0  0  0  0  0
   -0.7610    0.0260    0.1340 C   0  0  0  0  0  0  0  0  0  0  0  0
   -1.6050    0.6500   -0.8090 O   0  0  0  0  0  0  0  0  0  0  0  0
   -2.9210    0.5220   -0.3680 C   0  0  0  0  0  0  0  0  0  0  0  0
  1  2  1  0
  2  3  1  0
  3  4  1  0
  4  5  1  0
  5  6  1  0
M  END
