
     RDKit          3D

  6  5  0  0  0  0  0  0  0  0999 V2000
   -1.1950   -0.6560   -0.0640 C   0  0  0  0  0  0  0  0  0  0  0  0
    0.0040    0.2350    0.1150 C   0  0  2  0  0  0  0  0  0  0  0  0
    1.1790   -0.6090    0.6290 C   0  0  0  0  0  0  0  0  0  0  0  0
   -0.3380    1.2020    1.0510 O   0  0  0  0  0  0  0  0  0  0  0  0
    0.4410    0.8640   -1.1470 C   0  0  0  0  0  0  0  0  0  0  0  0
    0.4430    2.0720   -1.1970 O   0  0  0  0  0  0  0  0  0  0  0  0
  2  1  1  6
  2  3  1  0
  2  4  1  0
  2  5  1  0
  5  6  2  0
M  END
