
     RDKit          3D

 10 10  0  0  0  0  0  0  0  0999 V2000
   -0.3600    1.4400    1.0010 C   0  0  0  0  0  0  0  0  0  0  0  0
   -0.3520    0.1520    0.2130 C   0  0  1  0  0  0  0  0  0  0  0  0
   -1.6470   -0.5980    0.3080 C   0  0  0  0  0  0  0  0  0  0  0  0
   -2.7540    0.0600   -0.3180 N   0  0  0  0  0  0  0  0  0  0  0  0
    0.0760    0.3850   -1.0710 O   0  0  0  0  0  0  0  0  0  0  0  0
    1.4530    0.6130   -0.9760 C   0  0  0  0  0  0  0  0  0  0  0  0
    1.9810   -0.4100    0.0160 C   0  0  1  0  0  0  0  0  0  0  0  0
    2.8940    0.1340    0.9000 O   0  0  0  0  0  0  0  0  0  0  0  0
    0.7280   -0.7350    0.8030 C   0  0  2  0  0  0  0  0  0  0  0  0
    0.3800   -2.0680    0.6060 O   0  0  0  0  0  0  0  0  0  0  0  0
  2  1  1  1
  2  3  1  0
  2  5  1  0
  2  9  1  0
  3  4  1  0
  5  6  1  0
  6  7  1  0
  7  8  1  1
  7  9  1  0
  9 10  1  6
M  CHG  1   4   1
M  END
