
     RDKit          3D

 10 10  0  0  0  0  0  0  0  0999 V2000
   -0.8390   -1.3910   -0.5280 C   0  0  0  0  0  0  0  0  0  0  0  0
   -0.5500    0.0280   -0.0500 C   0  0  1  0  0  0  0  0  0  0  0  0
    0.9120    0.1900    0.2110 C   0  0  1  0  0  0  0  0  0  0  0  0
    1.3750   -0.8030    1.1640 N   0  0  0  0  0  0  0  0  0  0  0  0
    1.7830    0.1220   -0.9890 C   0  0  0  0  0  0  0  0  0  0  0  0
    3.0940    0.3910   -0.5930 O   0  0  0  0  0  0  0  0  0  0  0  0
   -1.1630    1.0400   -0.9300 C   0  0  0  0  0  0  0  0  0  0  0  0
   -1.9300    1.8450   -0.0560 O   0  0  0  0  0  0  0  0  0  0  0  0
   -2.3920    0.8750    0.8420 C   0  0  0  0  0  0  0  0  0  0  0  0
   -1.2420    0.1860    1.1500 O   0  0  0  0  0  0  0  0  0  0  0  0
  2  1  1  6
  2  3  1  0
  2  7  1  0
  2 10  1  0
  3  4  1  1
  3  5  1  0
  5  6  1  0
  7  8  1  0
  8  9  1  0
  9 10  1  0
M  CHG  1   4   1
M  END
