
     RDKit          3D

 10 10  0  0  0  0  0  0  0  0999 V2000
    2.4670   -0.2140   -0.5510 N   0  0  0  0  0  0  0  0  0  0  0  0
    1.0050   -0.3380   -0.5910 C   0  0  1  0  0  0  0  0  0  0  0  0
    0.6680   -1.7410   -0.1790 C   0  0  0  0  0  0  0  0  0  0  0  0
   -0.2730   -1.7350    0.8010 O   0  0  0  0  0  0  0  0  0  0  0  0
   -0.6530   -0.4270    1.0640 C   0  0  2  0  0  0  0  0  0  0  0  0
   -2.0680   -0.2660    0.6360 C   0  0  0  0  0  0  0  0  0  0  0  0
   -2.2200   -0.5290   -0.7100 O   0  0  0  0  0  0  0  0  0  0  0  0
    0.3480    0.4820    0.4920 C   0  0  2  0  0  0  0  0  0  0  0  0
   -0.0860    1.8090    0.0070 C   0  0  0  0  0  0  0  0  0  0  0  0
   -1.0100    1.7760   -1.0350 O   0  0  0  0  0  0  0  0  0  0  0  0
  2  1  1  1
  2  3  1  0
  2  8  1  0
  3  4  1  0
  4  5  1  0
  5  6  1  6
  5  8  1  0
  6  7  1  0
  8  9  1  6
  9 10  1  0
M  CHG  1   1   1
M  END
