
     RDKit          3D

 21 22  0  0  0  0  0  0  0  0999 V2000
    3.0090    1.1760    0.8450 C   0  0  0  0  0  0  0  0  0  0  0  0
    2.1110    0.1950    0.0820 C   0  0  1  0  0  0  0  0  0  0  0  0
    2.3470    0.2770   -1.3960 C   0  0  0  0  0  0  0  0  0  0  0  0
    3.7830   -0.0530   -1.7290 C   0  0  0  0  0  0  0  0  0  0  0  0
    4.6840    0.8180   -1.1170 O   0  0  0  0  0  0  0  0  0  0  0  0
    2.3480   -1.0790    0.6290 O   0  0  0  0  0  0  0  0  0  0  0  0
    2.0240   -1.2300    1.9650 C   0  0  0  0  0  0  0  0  0  0  0  0
    2.5580   -2.1420    2.6390 O   0  0  0  0  0  0  0  0  0  0  0  0
    1.0650   -0.3230    2.5640 C   0  0  0  0  0  0  0  0  0  0  0  0
    0.5150    0.6250    1.7910 O   0  0  0  0  0  0  0  0  0  0  0  0
    0.6900    0.6080    0.4540 C   0  0  2  0  0  0  0  0  0  0  0  0
   -0.3470   -0.0400   -0.3720 C   0  0  1  0  0  0  0  0  0  0  0  0
   -0.4250   -1.5430   -0.2980 C   0  0  0  0  0  0  0  0  0  0  0  0
   -1.2660   -1.9940   -1.5020 C   0  0  0  0  0  0  0  0  0  0  0  0
   -2.6690   -1.5210   -1.2660 C   0  0  0  0  0  0  0  0  0  0  0  0
   -2.6810   -0.0220   -1.1960 C   0  0  0  0  0  0  0  0  0  0  0  0
   -1.7470    0.5130   -0.1370 C   0  0  2  0  0  0  0  0  0  0  0  0
   -1.6800    1.8910   -0.3320 O   0  0  0  0  0  0  0  0  0  0  0  0
   -2.3020    0.2480    1.2100 C   0  0  0  0  0  0  0  0  0  0  0  0
   -3.6910    0.8300    1.3600 C   0  0  0  0  0  0  0  0  0  0  0  0
   -3.7310    2.2000    1.1540 O   0  0  0  0  0  0  0  0  0  0  0  0
  2  1  1  1
  2  3  1  0
  2  6  1  0
  2 11  1  0
  3  4  1  0
  4  5  1  0
  6  7  1  0
  7  8  2  0
  7  9  1  0
  9 10  1  0
 11 10  1  1
 11 12  1  0
 12 13  1  1
 12 17  1  0
 13 14  1  0
 14 15  1  0
 15 16  1  0
 16 17  1  0
 17 18  1  6
 17 19  1  0
 19 20  1  0
 20 21  1  0
M  END
