
     RDKit          3D

 22 23  0  0  0  0  0  0  0  0999 V2000
    4.5510   -1.6530   -0.1880 C   0  0  0  0  0  0  0  0  0  0  0  0
    4.9050   -0.2120    0.0050 C   0  0  0  0  0  0  0  0  0  0  0  0
    6.1160    0.2700    0.2390 C   0  0  0  0  0  0  0  0  0  0  0  0
    7.2540   -0.5090    0.3400 O   0  0  0  0  0  0  0  0  0  0  0  0
    6.0240    1.7100    0.3630 C   0  0  0  0  0  0  0  0  0  0  0  0
    6.9710    2.5050    0.5850 O   0  0  0  0  0  0  0  0  0  0  0  0
    4.6310    2.0500    0.1800 C   0  0  0  0  0  0  0  0  0  0  0  0
    3.9870    0.9140   -0.0290 C   0  0  0  0  0  0  0  0  0  0  0  0
    2.6320    0.8070   -0.2490 O   0  0  0  0  0  0  0  0  0  0  0  0
    1.7570    0.0200    0.5400 C   0  0  0  0  0  0  0  0  0  0  0  0
    0.3680    0.1960   -0.0560 C   0  0  2  0  0  0  0  0  0  0  0  0
    0.0600    1.5430    0.0140 O   0  0  0  0  0  0  0  0  0  0  0  0
   -0.6440   -0.6840    0.6210 C   0  0  0  0  0  0  0  0  0  0  0  0
   -1.9810   -0.4350   -0.0390 C   0  0  2  0  0  0  0  0  0  0  0  0
   -1.8830   -0.7510   -1.3930 O   0  0  0  0  0  0  0  0  0  0  0  0
   -2.4910    0.9570    0.1670 C   0  0  0  0  0  0  0  0  0  0  0  0
   -4.0020    0.9630    0.2310 C   0  0  0  0  0  0  0  0  0  0  0  0
   -4.6130   -0.2040   -0.5000 C   0  0  2  0  0  0  0  0  0  0  0  0
   -6.1030   -0.1790   -0.2240 C   0  0  0  0  0  0  0  0  0  0  0  0
   -6.3360   -0.3540    1.1220 O   0  0  0  0  0  0  0  0  0  0  0  0
   -4.1320   -1.4270   -0.0910 O   0  0  0  0  0  0  0  0  0  0  0  0
   -2.9800   -1.3760    0.6440 C   0  0  0  0  0  0  0  0  0  0  0  0
  1  2  1  0
  2  3  2  0
  2  8  1  0
  3  4  1  0
  3  5  1  0
  5  6  2  0
  5  7  1  0
  7  8  2  0
  8  9  1  0
  9 10  1  0
 10 11  1  0
 11 12  1  1
 11 13  1  0
 13 14  1  0
 14 15  1  6
 14 16  1  0
 14 22  1  0
 16 17  1  0
 17 18  1  0
 18 19  1  1
 18 21  1  0
 19 20  1  0
 21 22  1  0
M  END
