
     RDKit          3D

 22 22  0  0  0  0  0  0  0  0999 V2000
   -1.7850   -3.8010    1.8740 O   0  0  0  0  0  0  0  0  0  0  0  0
   -1.9950   -3.0120    0.9050 C   0  0  0  0  0  0  0  0  0  0  0  0
   -0.7960   -2.5900    0.1400 C   0  0  0  0  0  0  0  0  0  0  0  0
    0.2350   -1.8850    1.0280 C   0  0  1  0  0  0  0  0  0  0  0  0
    1.0490   -2.8060    1.6820 O   0  0  0  0  0  0  0  0  0  0  0  0
    1.0430   -0.8920    0.2210 C   0  0  2  0  0  0  0  0  0  0  0  0
    2.3910   -1.0210    0.3700 O   0  0  0  0  0  0  0  0  0  0  0  0
    3.0900   -1.2870   -0.7900 C   0  0  0  0  0  0  0  0  0  0  0  0
    4.5550   -1.3940   -0.4150 C   0  0  0  0  0  0  0  0  0  0  0  0
    5.0180   -0.1980    0.1580 O   0  0  0  0  0  0  0  0  0  0  0  0
    0.6480    0.5130    0.6410 C   0  0  0  0  0  0  0  0  0  0  0  0
    0.1520    1.3280   -0.5100 C   0  0  2  0  0  0  0  0  0  0  0  0
   -0.0780    0.5090   -1.6410 O   0  0  0  0  0  0  0  0  0  0  0  0
    1.1180    2.3870   -0.9810 C   0  0  0  0  0  0  0  0  0  0  0  0
    1.4820    3.4020    0.0480 C   0  0  0  0  0  0  0  0  0  0  0  0
    2.3830    4.2950   -0.5770 O   0  0  0  0  0  0  0  0  0  0  0  0
   -1.1740    2.0150   -0.2490 C   0  0  0  0  0  0  0  0  0  0  0  0
   -2.2350    1.0490    0.2340 C   0  0  0  0  0  0  0  0  0  0  0  0
   -3.3010    0.7760   -0.7890 C   0  0  0  0  0  0  0  0  0  0  0  0
   -3.7590   -0.6550   -0.8170 C   0  0  0  0  0  0  0  0  0  0  0  0
   -3.7920   -1.3060    0.5470 C   0  0  0  0  0  0  0  0  0  0  0  0
   -3.2270   -2.5700    0.5710 O   0  0  0  0  0  0  0  0  0  0  0  0
  1  2  2  0
  2  3  1  0
  2 22  1  0
  3  4  1  0
  4  5  1  6
  4  6  1  0
  6  7  1  1
  6 11  1  0
  7  8  1  0
  8  9  1  0
  9 10  1  0
 11 12  1  0
 12 13  1  6
 12 14  1  0
 12 17  1  0
 14 15  1  0
 15 16  1  0
 17 18  1  0
 18 19  1  0
 19 20  1  0
 20 21  1  0
 21 22  1  0
M  END
