
     RDKit          3D

 22 23  0  0  0  0  0  0  0  0999 V2000
    4.2850    2.6510   -0.1030 C   0  0  0  0  0  0  0  0  0  0  0  0
    4.5210    1.3140   -0.3370 O   0  0  0  0  0  0  0  0  0  0  0  0
    3.3870    0.5340   -0.4960 C   0  0  0  0  0  0  0  0  0  0  0  0
    2.5510    0.5790    0.7300 C   0  0  2  0  0  0  0  0  0  0  0  0
    3.2460    0.1450    1.8660 O   0  0  0  0  0  0  0  0  0  0  0  0
    1.2720   -0.2540    0.5980 C   0  0  2  0  0  0  0  0  0  0  0  0
    0.5830    0.0070    1.8150 O   0  0  0  0  0  0  0  0  0  0  0  0
    1.4810   -1.7030    0.5150 C   0  0  0  0  0  0  0  0  0  0  0  0
    0.8810   -2.4330   -0.6140 C   0  0  0  0  0  0  0  0  0  0  0  0
   -0.5540   -2.3990   -0.8470 C   0  0  0  0  0  0  0  0  0  0  0  0
   -1.4040   -1.4520   -0.0330 C   0  0  2  0  0  0  0  0  0  0  0  0
   -2.6830   -1.5360   -0.6460 O   0  0  0  0  0  0  0  0  0  0  0  0
   -0.9690   -0.0640   -0.1650 C   0  0  0  0  0  0  0  0  0  0  0  0
   -1.8430    0.8840   -0.0050 C   0  0  0  0  0  0  0  0  0  0  0  0
   -3.2530    0.7670    0.3050 C   0  0  0  0  0  0  0  0  0  0  0  0
   -3.8530   -0.0300    1.2470 C   0  0  0  0  0  0  0  0  0  0  0  0
   -5.1710    0.1410    1.2210 O   0  0  0  0  0  0  0  0  0  0  0  0
   -5.4800    1.0160    0.3050 C   0  0  0  0  0  0  0  0  0  0  0  0
   -4.3220    1.4450   -0.3020 C   0  0  0  0  0  0  0  0  0  0  0  0
   -4.1890    2.3710   -1.3270 O   0  0  0  0  0  0  0  0  0  0  0  0
    0.4280    0.3650   -0.4650 C   0  0  2  0  0  0  0  0  0  0  0  0
    0.7920    0.0510   -1.7640 O   0  0  0  0  0  0  0  0  0  0  0  0
  1  2  1  0
  2  3  1  0
  3  4  1  0
  4  5  1  1
  4  6  1  0
  6  7  1  1
  6  8  1  0
  6 21  1  0
  8  9  1  0
  9 10  1  0
 10 11  1  0
 11 12  1  6
 11 13  1  0
 13 14  2  3
 13 21  1  0
 14 15  1  0
 15 16  2  0
 15 19  1  0
 16 17  1  0
 17 18  1  0
 18 19  2  0
 19 20  1  0
 21 22  1  6
M  END
