
     RDKit          3D

 22 23  0  0  0  0  0  0  0  0999 V2000
   -3.1030    3.6540   -1.7720 C   0  0  0  0  0  0  0  0  0  0  0  0
   -2.6510    2.3040   -1.2540 C   0  0  0  0  0  0  0  0  0  0  0  0
   -1.5130    2.5130   -0.5110 O   0  0  0  0  0  0  0  0  0  0  0  0
   -0.9900    1.3190    0.0310 C   0  0  2  0  0  0  0  0  0  0  0  0
   -1.1340    1.3950    1.5450 C   0  0  0  0  0  0  0  0  0  0  0  0
   -1.4690    0.1420    2.0400 O   0  0  0  0  0  0  0  0  0  0  0  0
   -2.8370   -0.0550    2.1310 C   0  0  0  0  0  0  0  0  0  0  0  0
   -3.2420   -1.4680    1.7710 C   0  0  0  0  0  0  0  0  0  0  0  0
   -2.3720   -2.0870    0.9170 O   0  0  0  0  0  0  0  0  0  0  0  0
   -1.2150   -2.3870    1.4600 O   0  0  0  0  0  0  0  0  0  0  0  0
   -0.4390   -3.2040    0.6810 C   0  0  0  0  0  0  0  0  0  0  0  0
    0.8190   -2.5220    0.1770 C   0  0  0  0  0  0  0  0  0  0  0  0
    0.5380   -1.2760   -0.6160 C   0  0  2  0  0  0  0  0  0  0  0  0
    0.7850   -1.4720   -1.9900 O   0  0  0  0  0  0  0  0  0  0  0  0
    1.1440   -0.0450   -0.0580 C   0  0  1  0  0  0  0  0  0  0  0  0
    1.0530   -0.1700    1.3530 O   0  0  0  0  0  0  0  0  0  0  0  0
    2.5700    0.1910   -0.3570 C   0  0  1  0  0  0  0  0  0  0  0  0
    3.5160   -0.9130    0.1400 C   0  0  0  0  0  0  0  0  0  0  0  0
    4.7880   -0.3720   -0.5330 C   0  0  0  0  0  0  0  0  0  0  0  0
    4.4230    0.3830   -1.5980 O   0  0  0  0  0  0  0  0  0  0  0  0
    3.0170    0.2920   -1.7580 C   0  0  0  0  0  0  0  0  0  0  0  0
    0.4080    1.2210   -0.4310 C   0  0  0  0  0  0  0  0  0  0  0  0
  1  2  1  0
  2  3  1  0
  4  3  1  6
  4  5  1  0
  4 22  1  0
  5  6  1  0
  6  7  1  0
  7  8  1  0
  8  9  1  0
  9 10  1  0
 10 11  1  0
 11 12  1  0
 12 13  1  0
 13 14  1  6
 13 15  1  0
 15 16  1  1
 15 17  1  0
 15 22  1  0
 17 18  1  6
 17 21  1  0
 18 19  1  0
 19 20  1  0
 20 21  1  0
M  END
