
     RDKit          3D

 18 19  0  0  0  0  0  0  0  0999 V2000
   -4.9090    0.4620    0.3970 C   0  0  0  0  0  0  0  0  0  0  0  0
   -3.6180    0.1480    0.2950 C   0  0  0  0  0  0  0  0  0  0  0  0
   -2.8870   -0.7050    1.1220 O   0  0  0  0  0  0  0  0  0  0  0  0
   -1.6670   -1.0710    0.5080 C   0  0  0  0  0  0  0  0  0  0  0  0
   -1.4090    0.0480   -0.4520 C   0  0  0  0  0  0  0  0  0  0  0  0
   -0.3160    0.4510   -0.9660 N   0  0  0  0  0  0  0  0  0  0  0  0
    0.9520   -0.1210   -0.7120 C   0  0  0  0  0  0  0  0  0  0  0  0
    1.9120    0.6500   -0.0990 C   0  0  0  0  0  0  0  0  0  0  0  0
    1.5970    2.3130    0.3710 Cl  0  0  0  0  0  0  0  0  0  0  0  0
    3.1810    0.1540    0.1810 C   0  0  0  0  0  0  0  0  0  0  0  0
    4.2100    0.9980    0.8450 C   0  0  0  0  0  0  0  0  0  0  0  0
    3.4310   -1.1500   -0.1860 C   0  0  0  0  0  0  0  0  0  0  0  0
    2.4730   -1.8990   -0.7910 N   0  0  0  0  0  0  0  0  0  0  0  0
    1.2480   -1.4200   -1.0610 C   0  0  0  0  0  0  0  0  0  0  0  0
    0.3820   -2.1660   -1.6320 O   0  0  0  0  0  0  0  0  0  0  0  0
   -2.7070    0.6500   -0.7250 C   0  0  0  0  0  0  0  0  0  0  0  0
   -3.0170    1.4920   -1.7040 C   0  0  0  0  0  0  0  0  0  0  0  0
   -1.7870    1.9880   -2.8430 Cl  0  0  0  0  0  0  0  0  0  0  0  0
  1  2  2  0
  2  3  1  0
  2 16  1  0
  3  4  1  0
  4  5  1  0
  5  6  2  3
  5 16  1  0
  6  7  1  0
  7  8  2  0
  7 14  1  0
  8  9  1  0
  8 10  1  0
 10 11  1  0
 10 12  2  0
 12 13  1  0
 13 14  1  0
 14 15  2  0
 16 17  2  3
 17 18  1  0
M  END
