
     RDKit          3D

 17 18  0  0  0  0  0  0  0  0999 V2000
    3.0490   -2.9180   -0.6370 O   0  0  0  0  0  0  0  0  0  0  0  0
    3.4360   -1.7480   -1.0260 C   0  0  0  0  0  0  0  0  0  0  0  0
    4.7640   -1.5800   -1.5710 C   0  0  0  0  0  0  0  0  0  0  0  0
    5.3800   -0.5480   -2.0200 C   0  0  0  0  0  0  0  0  0  0  0  0
    4.7210    1.0450   -2.0930 Cl  0  0  0  0  0  0  0  0  0  0  0  0
    2.4530   -0.7420   -0.8540 N   0  0  0  0  0  0  0  0  0  0  0  0
    1.1870   -1.0500   -0.3040 C   0  0  0  0  0  0  0  0  0  0  0  0
    0.1850   -0.2430   -0.0840 C   0  0  0  0  0  0  0  0  0  0  0  0
   -1.0860   -0.7240    0.5040 C   0  0  0  0  0  0  0  0  0  0  0  0
   -2.1100    0.0600    0.7370 C   0  0  0  0  0  0  0  0  0  0  0  0
   -3.4700   -0.1720    1.3080 C   0  0  0  0  0  0  0  0  0  0  0  0
   -4.2600    0.9270    0.5860 C   0  0  0  0  0  0  0  0  0  0  0  0
   -3.3170    2.1090    0.7810 C   0  0  0  0  0  0  0  0  0  0  0  0
   -2.0090    1.4770    0.4080 C   0  0  0  0  0  0  0  0  0  0  0  0
   -0.9350    1.9660   -0.1060 N   0  0  0  0  0  0  0  0  0  0  0  0
    0.2320    1.1660   -0.3910 C   0  0  0  0  0  0  0  0  0  0  0  0
    1.2300    1.7530   -0.8950 O   0  0  0  0  0  0  0  0  0  0  0  0
  1  2  2  0
  2  3  1  0
  2  6  1  0
  3  4  2  3
  4  5  1  0
  6  7  1  0
  7  8  2  3
  8  9  1  0
  8 16  1  0
  9 10  2  0
 10 11  1  0
 10 14  1  0
 11 12  1  0
 12 13  1  0
 13 14  1  0
 14 15  2  0
 15 16  1  0
 16 17  2  0
M  END
