
     RDKit          3D

 18 18  0  0  0  0  0  0  0  0999 V2000
   -5.6890   -0.3630   -0.6080 C   0  0  0  0  0  0  0  0  0  0  0  0
   -4.6120    0.4050    0.0240 C   0  0  0  0  0  0  0  0  0  0  0  0
   -3.3320    0.1610   -0.1500 C   0  0  0  0  0  0  0  0  0  0  0  0
   -2.9400   -0.9510   -1.0310 C   0  0  0  0  0  0  0  0  0  0  0  0
   -2.2890    0.9460    0.4950 C   0  0  0  0  0  0  0  0  0  0  0  0
   -2.6820    1.8970    1.2470 O   0  0  0  0  0  0  0  0  0  0  0  0
   -0.9070    0.6790    0.3040 N   0  0  0  0  0  0  0  0  0  0  0  0
   -0.0290    0.9440    1.1890 C   0  0  0  0  0  0  0  0  0  0  0  0
    1.4010    0.6510    0.9510 C   0  0  0  0  0  0  0  0  0  0  0  0
    2.3930    0.8820    1.7940 C   0  0  0  0  0  0  0  0  0  0  0  0
    3.6730    0.4760    1.2500 C   0  0  0  0  0  0  0  0  0  0  0  0
    4.8210    0.5450    1.7630 O   0  0  0  0  0  0  0  0  0  0  0  0
    3.3860   -0.0580   -0.0750 C   0  0  0  0  0  0  0  0  0  0  0  0
    4.2590   -0.5480   -0.9390 C   0  0  0  0  0  0  0  0  0  0  0  0
    5.6980   -0.5950   -0.6020 C   0  0  2  0  0  0  0  0  0  0  0  0
    6.3650    1.0720   -0.6410 Cl  0  0  0  0  0  0  0  0  0  0  0  0
    6.5730   -1.6200   -1.7510 Cl  0  0  0  0  0  0  0  0  0  0  0  0
    1.9790    0.0740   -0.2040 N   0  0  0  0  0  0  0  0  0  0  0  0
  1  2  1  0
  2  3  2  3
  3  4  1  0
  3  5  1  0
  5  6  2  0
  5  7  1  0
  7  8  2  3
  8  9  1  0
  9 10  2  0
  9 18  1  0
 10 11  1  0
 11 12  2  0
 11 13  1  0
 13 14  2  3
 13 18  1  0
 14 15  1  0
 15 16  1  6
 15 17  1  0
M  END
