
     RDKit          3D

 18 19  0  0  0  0  0  0  0  0999 V2000
   -5.2150    0.6210   -0.0400 C   0  0  0  0  0  0  0  0  0  0  0  0
   -4.0590   -0.3200    0.0640 C   0  0  0  0  0  0  0  0  0  0  0  0
   -2.7910    0.3700   -0.1250 N   0  0  0  0  0  0  0  0  0  0  0  0
   -1.5760   -0.3680   -0.0590 C   0  0  0  0  0  0  0  0  0  0  0  0
   -1.6640   -1.6440   -0.0110 N   0  0  0  0  0  0  0  0  0  0  0  0
   -0.5130   -2.4490    0.0550 C   0  0  0  0  0  0  0  0  0  0  0  0
   -0.5790   -3.7240    0.1050 O   0  0  0  0  0  0  0  0  0  0  0  0
    0.8100   -1.8470    0.0700 C   0  0  0  0  0  0  0  0  0  0  0  0
    0.8490   -0.3750    0.0120 C   0  0  0  0  0  0  0  0  0  0  0  0
    2.1730    0.2850    0.0240 C   0  0  0  0  0  0  0  0  0  0  0  0
    3.3230   -0.3270    0.0820 C   0  0  0  0  0  0  0  0  0  0  0  0
    4.4400    0.6020    0.0770 C   0  0  0  0  0  0  0  0  0  0  0  0
    5.7960    0.3350    0.1270 O   0  0  0  0  0  0  0  0  0  0  0  0
    3.9210    1.8140    0.0130 C   0  0  0  0  0  0  0  0  0  0  0  0
    2.4410    1.7390   -0.0270 C   0  0  1  0  0  0  0  0  0  0  0  0
    1.9060    2.4660   -1.5500 Cl  0  0  0  0  0  0  0  0  0  0  0  0
    1.7560    2.6070    1.3600 Cl  0  0  0  0  0  0  0  0  0  0  0  0
   -0.2640    0.3130   -0.0490 C   0  0  0  0  0  0  0  0  0  0  0  0
  1  2  1  0
  2  3  1  0
  3  4  1  0
  4  5  2  0
  4 18  1  0
  5  6  1  0
  6  7  2  0
  6  8  1  0
  8  9  1  0
  9 10  1  0
  9 18  2  0
 10 11  2  0
 10 15  1  0
 11 12  1  0
 12 13  1  0
 12 14  2  0
 14 15  1  0
 15 16  1  6
 15 17  1  0
M  END
