
     RDKit          3D

 18 18  0  0  0  0  0  0  0  0999 V2000
    2.5000    1.1750    0.7460 C   0  0  0  0  0  0  0  0  0  0  0  0
    1.4140    0.5340    0.4030 C   0  0  0  0  0  0  0  0  0  0  0  0
    1.5600   -0.9230    0.2250 C   0  0  0  0  0  0  0  0  0  0  0  0
    2.6010   -1.4270   -0.3410 C   0  0  0  0  0  0  0  0  0  0  0  0
    3.7850   -0.7970   -0.9090 C   0  0  0  0  0  0  0  0  0  0  0  0
    2.6230   -3.2110   -0.4340 Cl  0  0  0  0  0  0  0  0  0  0  0  0
    0.4570   -1.8350    0.6420 C   0  0  0  0  0  0  0  0  0  0  0  0
    0.8300   -2.9780    0.9710 O   0  0  0  0  0  0  0  0  0  0  0  0
   -0.9560   -1.5350    0.6970 N   0  0  0  0  0  0  0  0  0  0  0  0
   -1.6000   -0.3750    0.0830 C   0  0  0  0  0  0  0  0  0  0  0  0
   -2.9460   -0.6650   -0.3260 C   0  0  0  0  0  0  0  0  0  0  0  0
   -3.6770    0.1740   -0.8660 O   0  0  0  0  0  0  0  0  0  0  0  0
   -3.5440   -2.0190   -0.1160 C   0  0  0  0  0  0  0  0  0  0  0  0
   -5.1950   -2.0610   -0.7570 Cl  0  0  0  0  0  0  0  0  0  0  0  0
   -1.1040    0.8280   -0.0970 C   0  0  0  0  0  0  0  0  0  0  0  0
   -1.9550    1.8340   -0.7510 C   0  0  0  0  0  0  0  0  0  0  0  0
    0.2180    1.3030    0.2980 N   0  0  0  0  0  0  0  0  0  0  0  0
    0.2500    2.7000    0.6290 C   0  0  0  0  0  0  0  0  0  0  0  0
  1  2  2  0
  2  3  1  0
  2 17  1  0
  3  4  2  3
  3  7  1  0
  4  5  1  0
  4  6  1  0
  7  8  2  0
  7  9  1  0
  9 10  1  0
 10 11  1  0
 10 15  2  0
 11 12  2  0
 11 13  1  0
 13 14  1  0
 15 16  1  0
 15 17  1  0
 17 18  1  0
M  END
