
     RDKit          3D

 18 18  0  0  0  0  0  0  0  0999 V2000
    4.6470    2.3500    0.1920 C   0  0  0  0  0  0  0  0  0  0  0  0
    3.4130    1.8410    0.0420 C   0  0  0  0  0  0  0  0  0  0  0  0
    3.2620    0.4290   -0.1690 C   0  0  0  0  0  0  0  0  0  0  0  0
    2.1400   -0.2510   -0.3370 C   0  0  0  0  0  0  0  0  0  0  0  0
    2.2250   -1.6830   -0.5360 N   0  0  0  0  0  0  0  0  0  0  0  0
    1.0690   -2.4740   -0.7230 C   0  0  0  0  0  0  0  0  0  0  0  0
   -0.1520   -1.9040   -0.7210 C   0  0  0  0  0  0  0  0  0  0  0  0
   -0.3640   -0.5420   -0.5360 N   0  0  0  0  0  0  0  0  0  0  0  0
   -1.6300    0.0700   -0.4050 C   0  0  0  0  0  0  0  0  0  0  0  0
   -1.6180    1.3920   -0.5550 O   0  0  0  0  0  0  0  0  0  0  0  0
   -2.9250   -0.4430   -0.1490 C   0  0  0  0  0  0  0  0  0  0  0  0
   -4.1060    0.4410   -0.3590 C   0  0  0  0  0  0  0  0  0  0  0  0
   -4.1570    1.5460   -1.0190 C   0  0  0  0  0  0  0  0  0  0  0  0
   -3.2010   -1.5040    0.5460 C   0  0  0  0  0  0  0  0  0  0  0  0
   -2.0590   -2.5180    1.3310 Cl  0  0  0  0  0  0  0  0  0  0  0  0
   -4.9190   -1.9970    0.7150 Cl  0  0  0  0  0  0  0  0  0  0  0  0
    0.8090    0.3050   -0.3410 C   0  0  0  0  0  0  0  0  0  0  0  0
    0.6500    1.5190   -0.1780 O   0  0  0  0  0  0  0  0  0  0  0  0
  1  2  2  0
  2  3  1  0
  3  4  2  3
  4  5  1  0
  4 17  1  0
  5  6  1  0
  6  7  2  0
  7  8  1  0
  8  9  1  0
  8 17  1  0
  9 10  2  0
  9 11  1  0
 11 12  1  0
 11 14  2  3
 12 13  2  0
 14 15  1  0
 14 16  1  0
 17 18  2  0
M  END
