
     RDKit          3D

 18 19  0  0  0  0  0  0  0  0999 V2000
   -2.3320    0.4780   -1.8920 C   0  0  0  0  0  0  0  0  0  0  0  0
   -2.1070    0.2070   -0.4520 C   0  0  0  0  0  0  0  0  0  0  0  0
   -0.8550   -0.1340    0.0410 C   0  0  0  0  0  0  0  0  0  0  0  0
    0.4100   -0.3200   -0.4840 C   0  0  0  0  0  0  0  0  0  0  0  0
    0.6440   -0.1010   -2.2050 Cl  0  0  0  0  0  0  0  0  0  0  0  0
    1.4760   -0.6690    0.3180 C   0  0  0  0  0  0  0  0  0  0  0  0
    2.8590   -0.8750   -0.2360 C   0  0  0  0  0  0  0  0  0  0  0  0
    3.4810    0.4790   -0.5260 C   0  0  0  0  0  0  0  0  0  0  0  0
    4.8470    0.3160   -1.0730 C   0  0  0  0  0  0  0  0  0  0  0  0
    5.3070   -0.7980   -1.2300 O   0  0  0  0  0  0  0  0  0  0  0  0
    5.8250    1.7020   -1.5050 Cl  0  0  0  0  0  0  0  0  0  0  0  0
    1.2790   -0.8320    1.6380 N   0  0  0  0  0  0  0  0  0  0  0  0
    0.0570   -0.6640    2.2160 C   0  0  0  0  0  0  0  0  0  0  0  0
   -1.0530   -0.3150    1.4770 C   0  0  0  0  0  0  0  0  0  0  0  0
   -2.3840   -0.0690    1.7030 C   0  0  0  0  0  0  0  0  0  0  0  0
   -2.9050   -0.1360    2.8480 O   0  0  0  0  0  0  0  0  0  0  0  0
   -3.0160    0.2460    0.5370 N   0  0  0  0  0  0  0  0  0  0  0  0
   -4.4340    0.5600    0.4320 C   0  0  0  0  0  0  0  0  0  0  0  0
  1  2  1  0
  2  3  2  0
  2 17  1  0
  3  4  1  0
  3 14  1  0
  4  5  1  0
  4  6  2  0
  6  7  1  0
  6 12  1  0
  7  8  1  0
  8  9  1  0
  9 10  2  0
  9 11  1  0
 12 13  1  0
 13 14  2  0
 14 15  1  0
 15 16  2  0
 15 17  1  0
 17 18  1  0
M  END
