
     RDKit          3D

 24 27  0  0  0  0  0  0  0  0999 V2000
   -3.3070    2.6870    0.0300 C   0  0  0  0  0  0  0  0  0  0  0  0
   -2.4560    1.5740   -0.5220 C   0  0  1  0  0  0  0  0  0  0  0  0
   -1.1010    1.9950   -0.3850 O   0  0  0  0  0  0  0  0  0  0  0  0
   -0.0850    1.0430   -0.5790 C   0  0  0  0  0  0  0  0  0  0  0  0
    1.2270    1.4020   -0.7890 C   0  0  0  0  0  0  0  0  0  0  0  0
    2.2390    0.4750   -0.9820 C   0  0  0  0  0  0  0  0  0  0  0  0
    1.9170   -0.8660   -0.9630 C   0  0  0  0  0  0  0  0  0  0  0  0
    0.6050   -1.2540   -0.7540 C   0  0  0  0  0  0  0  0  0  0  0  0
   -0.3890   -0.3030   -0.5630 C   0  0  0  0  0  0  0  0  0  0  0  0
   -1.7080   -0.6510   -0.3520 O   0  0  0  0  0  0  0  0  0  0  0  0
   -2.5910    0.2890    0.2350 C   0  0  1  0  0  0  0  0  0  0  0  0
   -2.1910    0.4560    1.6740 C   0  0  0  0  0  0  0  0  0  0  0  0
   -3.9700   -0.3000    0.1880 C   0  0  2  0  0  0  0  0  0  0  0  0
   -3.9280   -1.5640    1.0540 C   0  0  0  0  0  0  0  0  0  0  0  0
   -4.3580   -0.7470   -1.2040 C   0  0  0  0  0  0  0  0  0  0  0  0
   -4.9440    0.5140    0.7320 O   0  0  0  0  0  0  0  0  0  0  0  0
    2.9930   -1.8960   -1.1690 C   0  0  0  0  0  0  0  0  0  0  0  0
    4.1900   -1.4160   -0.3840 C   0  0  0  0  0  0  0  0  0  0  0  0
    5.0550   -2.0660    0.3670 C   0  0  0  0  0  0  0  0  0  0  0  0
    6.0230   -1.0790    0.8890 C   0  0  0  0  0  0  0  0  0  0  0  0
    5.5760    0.2150    0.3230 C   0  0  0  0  0  0  0  0  0  0  0  0
    4.5150    0.0000   -0.4110 C   0  0  0  0  0  0  0  0  0  0  0  0
    3.6570    0.9240   -1.2070 C   0  0  2  0  0  0  0  0  0  0  0  0
    3.7880    2.2400   -0.8050 O   0  0  0  0  0  0  0  0  0  0  0  0
  2  1  1  1
  2  3  1  0
  2 11  1  0
  3  4  1  0
  4  5  2  0
  4  9  1  0
  5  6  1  0
  6  7  2  0
  6 23  1  0
  7  8  1  0
  7 17  1  0
  8  9  2  0
  9 10  1  0
 10 11  1  0
 11 12  1  1
 11 13  1  0
 13 14  1  1
 13 15  1  0
 13 16  1  0
 17 18  1  0
 18 19  2  0
 18 22  1  0
 19 20  1  0
 20 21  1  0
 21 22  2  0
 22 23  1  0
 23 24  1  1
M  END
