
     RDKit          3D

 24 27  0  0  0  0  0  0  0  0999 V2000
    4.5260    1.4120   -2.4470 C   0  0  0  0  0  0  0  0  0  0  0  0
    3.6530    0.8170   -1.3760 C   0  0  0  0  0  0  0  0  0  0  0  0
    2.3430    0.5070   -1.6530 C   0  0  0  0  0  0  0  0  0  0  0  0
    1.5090   -0.0490   -0.6690 C   0  0  0  0  0  0  0  0  0  0  0  0
    0.1760   -0.3450   -1.0520 C   0  0  1  0  0  0  0  0  0  0  0  0
    0.2170   -1.1170   -2.2450 O   0  0  0  0  0  0  0  0  0  0  0  0
   -0.8620   -0.8620   -0.1980 C   0  0  1  0  0  0  0  0  0  0  0  0
   -0.6440   -2.1680    0.4810 C   0  0  0  0  0  0  0  0  0  0  0  0
   -1.9240   -2.9900    0.4760 C   0  0  0  0  0  0  0  0  0  0  0  0
   -3.0310   -1.9890    0.8040 C   0  0  0  0  0  0  0  0  0  0  0  0
   -2.4880   -0.8090    1.5840 C   0  0  0  0  0  0  0  0  0  0  0  0
   -1.5750    0.0660    0.7510 C   0  0  1  0  0  0  0  0  0  0  0  0
   -0.7630    0.7910    1.5830 O   0  0  0  0  0  0  0  0  0  0  0  0
   -2.4210    1.0810   -0.0020 C   0  0  2  0  0  0  0  0  0  0  0  0
   -3.1560    1.9620    0.9400 C   0  0  0  0  0  0  0  0  0  0  0  0
   -4.5860    1.8530    0.3930 C   0  0  0  0  0  0  0  0  0  0  0  0
   -4.2550    1.5080   -1.0640 C   0  0  0  0  0  0  0  0  0  0  0  0
   -3.3030    0.5080   -0.8790 O   0  0  0  0  0  0  0  0  0  0  0  0
    2.0910   -0.2490    0.5470 C   0  0  0  0  0  0  0  0  0  0  0  0
    3.3950    0.0520    0.8490 C   0  0  0  0  0  0  0  0  0  0  0  0
    4.2010    0.5970   -0.1260 C   0  0  0  0  0  0  0  0  0  0  0  0
    5.4700    0.8140    0.4110 O   0  0  0  0  0  0  0  0  0  0  0  0
    5.5970    0.0480    1.6130 C   0  0  0  0  0  0  0  0  0  0  0  0
    4.1810   -0.1050    2.1240 C   0  0  0  0  0  0  0  0  0  0  0  0
  1  2  1  0
  2  3  2  0
  2 21  1  0
  3  4  1  0
  4  5  1  0
  4 19  2  0
  5  6  1  6
  5  7  1  0
  7  8  1  1
  7 12  1  0
  8  9  1  0
  9 10  1  0
 10 11  1  0
 11 12  1  0
 12 13  1  1
 12 14  1  0
 14 15  1  1
 14 18  1  0
 15 16  1  0
 16 17  1  0
 17 18  1  0
 19 20  1  0
 20 21  2  0
 20 24  1  0
 21 22  1  0
 22 23  1  0
 23 24  1  0
M  END
