
     RDKit          3D

 23 26  0  0  0  0  0  0  0  0999 V2000
    3.9830    1.4130   -1.9470 O   0  0  0  0  0  0  0  0  0  0  0  0
    4.5580    1.0580   -0.9130 C   0  0  0  0  0  0  0  0  0  0  0  0
    5.9390    1.3810   -0.8180 O   0  0  0  0  0  0  0  0  0  0  0  0
    6.3750    1.6180    0.5140 C   0  0  0  0  0  0  0  0  0  0  0  0
    6.0370    0.3640    1.2670 C   0  0  0  0  0  0  0  0  0  0  0  0
    4.6190    0.0200    1.2060 C   0  0  0  0  0  0  0  0  0  0  0  0
    3.8580    0.3490    0.1380 C   0  0  0  0  0  0  0  0  0  0  0  0
    2.4520   -0.0190    0.1600 C   0  0  0  0  0  0  0  0  0  0  0  0
    1.4480    0.1260   -0.6720 C   0  0  0  0  0  0  0  0  0  0  0  0
    1.3410    0.7440   -2.0050 C   0  0  0  0  0  0  0  0  0  0  0  0
   -0.0920    0.7020   -2.5480 C   0  0  0  0  0  0  0  0  0  0  0  0
   -0.6930   -0.6790   -2.3190 C   0  0  0  0  0  0  0  0  0  0  0  0
   -0.8200   -0.8800   -0.8390 C   0  0  0  0  0  0  0  0  0  0  0  0
   -1.9160   -1.4330   -0.2300 O   0  0  0  0  0  0  0  0  0  0  0  0
   -3.2440   -1.0050   -0.4340 C   0  0  2  0  0  0  0  0  0  0  0  0
   -3.3110    0.4490   -0.0120 C   0  0  0  0  0  0  0  0  0  0  0  0
   -4.7290    0.9720    0.0000 C   0  0  0  0  0  0  0  0  0  0  0  0
   -5.6820    0.0030    0.6620 C   0  0  0  0  0  0  0  0  0  0  0  0
   -4.8980   -1.0350    1.4550 C   0  0  0  0  0  0  0  0  0  0  0  0
   -4.1360   -1.8700    0.4330 C   0  0  0  0  0  0  0  0  0  0  0  0
    0.2100   -0.4830   -0.1290 C   0  0  0  0  0  0  0  0  0  0  0  0
    0.4190   -0.5260    1.3640 C   0  0  0  0  0  0  0  0  0  0  0  0
    1.8950   -0.7200    1.3990 C   0  0  0  0  0  0  0  0  0  0  0  0
  1  2  2  0
  2  3  1  0
  2  7  1  0
  3  4  1  0
  4  5  1  0
  5  6  1  0
  6  7  2  0
  7  8  1  0
  8  9  2  0
  8 23  1  0
  9 10  1  0
  9 21  1  0
 10 11  1  0
 11 12  1  0
 12 13  1  0
 13 14  1  0
 13 21  2  0
 15 14  1  1
 15 16  1  0
 15 20  1  0
 16 17  1  0
 17 18  1  0
 18 19  1  0
 19 20  1  0
 21 22  1  0
 22 23  1  0
M  END
