
     RDKit          3D

 16 17  0  0  0  0  0  0  0  0999 V2000
    4.7730    0.8410   -0.0440 C   0  0  0  0  0  0  0  0  0  0  0  0
    3.5870    0.0450    0.3680 C   0  0  0  0  0  0  0  0  0  0  0  0
    3.7280   -0.8240    1.2360 O   0  0  0  0  0  0  0  0  0  0  0  0
    2.3170    0.2560   -0.2020 N   0  0  0  0  0  0  0  0  0  0  0  0
    1.1310   -0.4770    0.1500 C   0  0  1  0  0  0  0  0  0  0  0  0
    0.1640    0.4750    0.7910 C   0  0  0  0  0  0  0  0  0  0  0  0
   -0.8380    0.9840   -0.0950 N   0  0  2  0  0  0  0  0  0  0  0  0
   -1.7390    1.8150    0.6830 C   0  0  0  0  0  0  0  0  0  0  0  0
   -3.0870    1.1710    0.6420 C   0  0  0  0  0  0  0  0  0  0  0  0
   -2.9150   -0.1650   -0.0370 C   0  0  2  0  0  0  0  0  0  0  0  0
   -2.8480   -1.1910    0.8930 O   0  0  0  0  0  0  0  0  0  0  0  0
   -1.6140    0.0060   -0.7720 C   0  0  2  0  0  0  0  0  0  0  0  0
   -0.9660   -1.3290   -0.9180 C   0  0  1  0  0  0  0  0  0  0  0  0
   -1.4000   -2.0080   -2.0560 O   0  0  0  0  0  0  0  0  0  0  0  0
    0.5430   -1.2550   -0.9910 C   0  0  2  0  0  0  0  0  0  0  0  0
    0.9790   -2.5860   -0.9400 O   0  0  0  0  0  0  0  0  0  0  0  0
  1  2  1  0
  2  3  2  0
  2  4  1  0
  5  4  1  6
  5  6  1  0
  5 15  1  0
  7  6  1  1
  7  8  1  0
  7 12  1  0
  8  9  1  0
  9 10  1  0
 10 11  1  1
 12 10  1  1
 12 13  1  0
 13 14  1  6
 13 15  1  0
 15 16  1  1
M  CHG  1   7   1
M  END
