
     RDKit          3D

  7  7  0  0  0  0  0  0  0  0999 V2000
    1.6000   -0.2640   -0.4540 N   0  0  0  0  0  0  0  0  0  0  0  0
    0.6110   -0.7520    0.4690 C   0  0  2  0  0  0  0  0  0  0  0  0
   -0.6750   -1.0080   -0.3030 C   0  0  0  0  0  0  0  0  0  0  0  0
   -1.1110    0.4130   -0.5310 C   0  0  0  0  0  0  0  0  0  0  0  0
   -1.8060    0.8190   -1.4110 O   0  0  0  0  0  0  0  0  0  0  0  0
   -0.4750    1.1740    0.5890 C   0  0  0  0  0  0  0  0  0  0  0  0
    0.1850    0.2470    1.3540 O   0  0  0  0  0  0  0  0  0  0  0  0
  2  1  1  6
  2  3  1  0
  2  7  1  0
  3  4  1  0
  4  5  2  0
  4  6  1  0
  6  7  1  0
M  END
