
     RDKit          3D

  6  6  0  0  0  0  0  0  0  0999 V2000
    2.0040    0.1890   -0.3160 N   0  0  0  0  0  0  0  0  0  0  0  0
    0.6370    0.0690    0.0960 C   0  0  0  0  0  0  0  0  0  0  0  0
    0.2220   -0.5770    1.1700 C   0  0  0  0  0  0  0  0  0  0  0  0
   -1.1850   -0.4980    1.2760 O   0  0  0  0  0  0  0  0  0  0  0  0
   -1.6330   -0.3310   -0.0860 C   0  0  0  0  0  0  0  0  0  0  0  0
   -0.5660    0.6260   -0.5570 C   0  0  0  0  0  0  0  0  0  0  0  0
  1  2  1  0
  2  3  2  0
  2  6  1  0
  3  4  1  0
  4  5  1  0
  5  6  1  0
M  END
