
     RDKit          3D

  6  6  0  0  0  0  0  0  0  0999 V2000
    1.4860   -0.4140   -0.3020 C   0  0  0  0  0  0  0  0  0  0  0  0
    0.5330    0.6540   -0.4010 N   0  0  0  0  0  0  0  0  0  0  0  0
   -0.7530    0.1940   -0.9530 C   0  0  0  0  0  0  0  0  0  0  0  0
   -1.2540   -0.6340    0.2080 C   0  0  0  0  0  0  0  0  0  0  0  0
   -0.8320    0.0510    1.3270 O   0  0  0  0  0  0  0  0  0  0  0  0
    0.1030    0.9780    0.9650 C   0  0  0  0  0  0  0  0  0  0  0  0
  1  2  1  0
  2  3  1  0
  2  6  1  0
  3  4  1  0
  4  5  1  0
  5  6  1  0
M  END
