
     RDKit          3D

  7  7  0  0  0  0  0  0  0  0999 V2000
    2.1360   -0.6470    0.7450 N   0  0  0  0  0  0  0  0  0  0  0  0
    1.6580   -0.3400   -0.5560 C   0  0  0  0  0  0  0  0  0  0  0  0
    0.3090   -0.4230   -0.7470 O   0  0  0  0  0  0  0  0  0  0  0  0
   -0.4870    0.3670    0.0010 C   0  0  2  0  0  0  0  0  0  0  0  0
   -1.5450   -0.5060    0.6990 C   0  0  0  0  0  0  0  0  0  0  0  0
   -2.2260   -0.4900   -0.5410 O   0  0  0  0  0  0  0  0  0  0  0  0
   -1.7910    0.8320   -0.6460 C   0  0  0  0  0  0  0  0  0  0  0  0
  1  2  1  0
  2  3  1  0
  4  3  1  6
  4  5  1  0
  4  7  1  0
  5  6  1  0
  6  7  1  0
M  END
