
     RDKit          3D

  7  7  0  0  0  0  0  0  0  0999 V2000
    0.2390    2.4060   -0.5260 O   0  0  0  0  0  0  0  0  0  0  0  0
    0.0590    1.2600   -0.1970 C   0  0  0  0  0  0  0  0  0  0  0  0
   -0.3130    0.6650    1.1190 C   0  0  0  0  0  0  0  0  0  0  0  0
    0.0830   -0.7230    1.0600 N   0  0  0  0  0  0  0  0  0  0  0  0
    0.8630   -0.8940   -0.1420 C   0  0  0  0  0  0  0  0  0  0  0  0
    0.1740    0.0780   -1.0990 C   0  0  1  0  0  0  0  0  0  0  0  0
   -1.1240   -0.3400   -1.3820 O   0  0  0  0  0  0  0  0  0  0  0  0
  1  2  2  0
  2  3  1  0
  2  6  1  0
  3  4  1  0
  4  5  1  0
  5  6  1  0
  6  7  1  1
M  END
