
     RDKit          3D

  7  6  0  0  0  0  0  0  0  0999 V2000
   -1.5050    0.8010    0.0040 C   0  0  0  0  0  0  0  0  0  0  0  0
   -0.6880   -0.3300    0.0790 N   0  0  0  0  0  0  0  0  0  0  0  0
   -1.1310   -1.5060    0.6880 C   0  0  0  0  0  0  0  0  0  0  0  0
    0.6000   -0.3090   -0.4800 C   0  0  1  0  0  0  0  0  0  0  0  0
    0.5960    0.0580   -1.8350 O   0  0  0  0  0  0  0  0  0  0  0  0
    1.4170    0.7510    0.2880 C   0  0  0  0  0  0  0  0  0  0  0  0
    2.6720    0.7740   -0.3050 O   0  0  0  0  0  0  0  0  0  0  0  0
  1  2  1  0
  2  3  1  0
  2  4  1  0
  4  5  1  6
  4  6  1  0
  6  7  1  0
M  END
