
     RDKit          3D

 22 25  0  0  0  0  0  0  0  0999 V2000
    4.6990   -1.6130   -1.1060 C   0  0  0  0  0  0  0  0  0  0  0  0
    4.7450   -0.8250   -0.0440 C   0  0  0  0  0  0  0  0  0  0  0  0
    4.3580   -1.2830    1.3210 C   0  0  0  0  0  0  0  0  0  0  0  0
    3.2890   -0.4740    1.7670 O   0  0  0  0  0  0  0  0  0  0  0  0
    2.1090   -0.4730    1.0100 C   0  0  0  0  0  0  0  0  0  0  0  0
    2.1110   -1.1940    0.0040 O   0  0  0  0  0  0  0  0  0  0  0  0
    0.9790    0.3400    1.4220 C   0  0  0  0  0  0  0  0  0  0  0  0
    0.9710    1.1570    2.5710 C   0  0  0  0  0  0  0  0  0  0  0  0
   -0.2200    1.7660    2.6580 N   0  0  0  0  0  0  0  0  0  0  0  0
   -1.0110    1.4030    1.6320 C   0  0  0  0  0  0  0  0  0  0  0  0
   -2.3200    1.7770    1.3090 C   0  0  0  0  0  0  0  0  0  0  0  0
   -2.9130    1.2520    0.1830 C   0  0  0  0  0  0  0  0  0  0  0  0
   -4.2160    1.5600   -0.2280 C   0  0  0  0  0  0  0  0  0  0  0  0
   -4.8990    2.3550    0.4510 O   0  0  0  0  0  0  0  0  0  0  0  0
   -4.7070    0.9850   -1.3580 N   0  0  0  0  0  0  0  0  0  0  0  0
   -3.9550    0.1240   -2.0860 C   0  0  0  0  0  0  0  0  0  0  0  0
   -2.6680   -0.1910   -1.6960 C   0  0  0  0  0  0  0  0  0  0  0  0
   -2.1640    0.3840   -0.5560 C   0  0  0  0  0  0  0  0  0  0  0  0
   -0.8840    0.0010   -0.2650 C   0  0  0  0  0  0  0  0  0  0  0  0
   -0.2570    0.5240    0.8800 C   0  0  0  0  0  0  0  0  0  0  0  0
   -0.4210   -0.9330   -1.2860 C   0  0  0  0  0  0  0  0  0  0  0  0
   -1.6090   -1.0690   -2.2470 C   0  0  0  0  0  0  0  0  0  0  0  0
  1  2  2  0
  2  3  1  0
  3  4  1  0
  4  5  1  0
  5  6  2  0
  5  7  1  0
  7  8  2  0
  7 20  1  0
  8  9  1  0
  9 10  1  0
 10 11  2  0
 10 20  1  0
 11 12  1  0
 12 13  1  0
 12 18  2  0
 13 14  2  0
 13 15  1  0
 15 16  1  0
 16 17  2  0
 17 18  1  0
 17 22  1  0
 18 19  1  0
 19 20  2  0
 19 21  1  0
 21 22  1  0
M  END
