
     RDKit          3D

 22 25  0  0  0  0  0  0  0  0999 V2000
    5.6020    0.0730    1.4190 O   0  0  0  0  0  0  0  0  0  0  0  0
    4.4940    0.4670    0.9150 C   0  0  0  0  0  0  0  0  0  0  0  0
    4.4270    1.7780    0.5980 N   0  0  0  0  0  0  0  0  0  0  0  0
    3.2770    2.2620    0.0580 C   0  0  0  0  0  0  0  0  0  0  0  0
    3.1940    3.4740   -0.2440 O   0  0  0  0  0  0  0  0  0  0  0  0
    2.1930    1.4370   -0.1650 C   0  0  0  0  0  0  0  0  0  0  0  0
    1.0210    1.9110   -0.7120 C   0  0  0  0  0  0  0  0  0  0  0  0
   -0.0670    1.1080   -0.9440 C   0  0  0  0  0  0  0  0  0  0  0  0
    0.0360   -0.2320   -0.6060 C   0  0  0  0  0  0  0  0  0  0  0  0
   -1.0570   -1.0380   -0.8570 C   0  0  0  0  0  0  0  0  0  0  0  0
   -2.3410   -0.5520   -1.3920 C   0  0  0  0  0  0  0  0  0  0  0  0
   -3.2610    0.0150   -0.3990 C   0  0  0  0  0  0  0  0  0  0  0  0
   -4.1420   -0.6700    0.4560 C   0  0  0  0  0  0  0  0  0  0  0  0
   -4.8390    0.2650    1.2140 C   0  0  0  0  0  0  0  0  0  0  0  0
   -4.4160    1.4320    0.8500 O   0  0  0  0  0  0  0  0  0  0  0  0
   -3.4870    1.3250   -0.0970 C   0  0  0  0  0  0  0  0  0  0  0  0
   -0.9000   -2.3900   -0.5190 C   0  0  0  0  0  0  0  0  0  0  0  0
    0.2500   -2.8900    0.0240 C   0  0  0  0  0  0  0  0  0  0  0  0
    1.3140   -2.0460    0.2580 C   0  0  0  0  0  0  0  0  0  0  0  0
    1.2270   -0.7260   -0.0480 C   0  0  0  0  0  0  0  0  0  0  0  0
    2.3280    0.0850    0.1870 C   0  0  0  0  0  0  0  0  0  0  0  0
    3.4630   -0.3650    0.7130 N   0  0  0  0  0  0  0  0  0  0  0  0
  1  2  2  0
  2  3  1  0
  2 22  1  0
  3  4  1  0
  4  5  2  0
  4  6  1  0
  6  7  2  0
  6 21  1  0
  7  8  1  0
  8  9  2  0
  9 10  1  0
  9 20  1  0
 10 11  1  0
 10 17  2  0
 11 12  1  0
 12 13  1  0
 12 16  2  0
 13 14  2  0
 14 15  1  0
 15 16  1  0
 17 18  1  0
 18 19  2  0
 19 20  1  0
 20 21  2  0
 21 22  1  0
M  END
