
     RDKit          3D

 20 21  0  0  0  0  0  0  0  0999 V2000
   -4.5250   -0.6360    0.2690 C   0  0  0  0  0  0  0  0  0  0  0  0
   -3.9930    0.6470   -0.3400 C   0  0  2  0  0  0  0  0  0  0  0  0
   -5.0780    1.6780   -0.2550 C   0  0  0  0  0  0  0  0  0  0  0  0
   -3.6990    0.4380   -1.8080 C   0  0  0  0  0  0  0  0  0  0  0  0
   -2.8550    1.1790    0.4440 C   0  0  0  0  0  0  0  0  0  0  0  0
   -2.7860    2.2680    1.2020 N   0  0  0  0  0  0  0  0  0  0  0  0
   -1.7510    2.3860    1.8610 N   0  0  0  0  0  0  0  0  0  0  0  0
   -0.9440    1.3260    1.5480 N   0  0  0  0  0  0  0  0  0  0  0  0
   -1.6720    0.5720    0.6560 C   0  0  0  0  0  0  0  0  0  0  0  0
   -1.1420   -0.6750    0.0630 C   0  0  0  0  0  0  0  0  0  0  0  0
    0.0760   -0.2760   -0.6370 N   0  0  0  0  0  0  0  0  0  0  0  0
    1.3060   -0.7740   -0.2510 C   0  0  2  0  0  0  0  0  0  0  0  0
    1.2680   -2.1030    0.4500 C   0  0  0  0  0  0  0  0  0  0  0  0
    2.7000   -2.6210    0.3470 C   0  0  0  0  0  0  0  0  0  0  0  0
    3.4970   -1.7560    1.1480 N   0  0  0  0  0  0  0  0  0  0  0  0
    3.5130   -0.3650    0.7840 C   0  0  1  0  0  0  0  0  0  0  0  0
    4.4410   -0.1320   -0.3870 C   0  0  0  0  0  0  0  0  0  0  0  0
    4.6310    1.3270   -0.6530 C   0  0  0  0  0  0  0  0  0  0  0  0
    5.7150    1.4440   -1.5310 O   0  0  0  0  0  0  0  0  0  0  0  0
    2.1230    0.1820    0.5990 C   0  0  0  0  0  0  0  0  0  0  0  0
  2  1  1  1
  2  3  1  0
  2  4  1  0
  2  5  1  0
  5  6  2  0
  5  9  1  0
  6  7  1  0
  7  8  1  0
  8  9  2  0
  9 10  1  0
 10 11  1  0
 12 11  1  1
 12 13  1  0
 12 20  1  0
 13 14  1  0
 14 15  1  0
 15 16  1  0
 16 17  1  6
 16 20  1  0
 17 18  1  0
 18 19  1  0
M  CHG  1  11   1
M  END
