
     RDKit          3D

 20 21  0  0  0  0  0  0  0  0999 V2000
   -2.9310   -2.6100   -0.4270 C   0  0  0  0  0  0  0  0  0  0  0  0
   -2.4850   -1.2370   -0.6350 N   0  0  0  0  0  0  0  0  0  0  0  0
   -2.8700   -0.3590    0.4080 C   0  0  1  0  0  0  0  0  0  0  0  0
   -2.3010   -0.7160    1.7570 C   0  0  0  0  0  0  0  0  0  0  0  0
   -2.6810    1.0670    0.0440 C   0  0  1  0  0  0  0  0  0  0  0  0
   -3.1500    1.9690    1.2050 C   0  0  0  0  0  0  0  0  0  0  0  0
   -1.4000    1.5340   -0.3340 N   0  0  2  0  0  0  0  0  0  0  0  0
   -1.4000    1.8890   -1.7360 C   0  0  0  0  0  0  0  0  0  0  0  0
    0.0210    1.7790   -2.1180 C   0  0  0  0  0  0  0  0  0  0  0  0
    0.6780    2.3220   -3.2700 N   0  0  0  0  0  0  0  0  0  0  0  0
    0.6950    1.0650   -1.2140 C   0  0  0  0  0  0  0  0  0  0  0  0
    2.1050    0.7330   -1.2310 C   0  0  0  0  0  0  0  0  0  0  0  0
    2.6460    0.0090   -0.2790 C   0  0  0  0  0  0  0  0  0  0  0  0
    4.0610   -0.2660   -0.3880 N   0  0  0  0  0  0  0  0  0  0  0  0
    4.7040   -0.9650    0.4820 C   0  0  0  0  0  0  0  0  0  0  0  0
    6.1090   -1.2010    0.3150 N   0  0  0  0  0  0  0  0  0  0  0  0
    3.9680   -1.5130    1.6470 C   0  0  0  0  0  0  0  0  0  0  0  0
    2.4930   -1.6990    1.3700 C   0  0  0  0  0  0  0  0  0  0  0  0
    1.9650   -0.5080    0.8140 O   0  0  0  0  0  0  0  0  0  0  0  0
   -0.2700    0.6920   -0.1570 C   0  0  0  0  0  0  0  0  0  0  0  0
  1  2  1  0
  2  3  1  0
  3  4  1  1
  3  5  1  0
  5  6  1  1
  5  7  1  0
  7  8  1  6
  7 20  1  0
  8  9  1  0
  9 10  1  0
  9 11  2  0
 11 12  1  0
 11 20  1  0
 12 13  2  3
 13 14  1  0
 13 19  1  0
 14 15  2  0
 15 16  1  0
 15 17  1  0
 17 18  1  0
 18 19  1  0
M  CHG  1   7   1
M  END
