
     RDKit          3D

 20 21  0  0  0  0  0  0  0  0999 V2000
   -3.3890   -2.0960    1.7780 C   0  0  0  0  0  0  0  0  0  0  0  0
   -2.5150   -1.2370    1.2800 C   0  0  0  0  0  0  0  0  0  0  0  0
   -1.0930   -1.5780    1.0280 C   0  0  0  0  0  0  0  0  0  0  0  0
   -0.7840   -1.1580   -0.3770 C   0  0  0  0  0  0  0  0  0  0  0  0
   -1.1050    0.2830   -0.6380 C   0  0  2  0  0  0  0  0  0  0  0  0
   -1.3410    0.4080   -2.1350 C   0  0  0  0  0  0  0  0  0  0  0  0
   -0.1800    0.0200   -2.8910 N   0  0  0  0  0  0  0  0  0  0  0  0
    0.0480    1.1000   -0.2830 N   0  0  0  0  0  0  0  0  0  0  0  0
    0.5680    1.1390    1.0320 C   0  0  0  0  0  0  0  0  0  0  0  0
   -0.2430    1.6780    2.0660 N   0  0  0  0  0  0  0  0  0  0  0  0
    1.7800    0.6950    1.3200 C   0  0  0  0  0  0  0  0  0  0  0  0
    2.4020    0.6870    2.6120 N   0  0  0  0  0  0  0  0  0  0  0  0
    3.5700    0.1890    2.5120 C   0  0  0  0  0  0  0  0  0  0  0  0
    3.8700   -0.1970    1.1460 C   0  0  0  0  0  0  0  0  0  0  0  0
    2.7760    0.1150    0.4300 C   0  0  0  0  0  0  0  0  0  0  0  0
    2.6440   -0.0920   -0.9300 O   0  0  0  0  0  0  0  0  0  0  0  0
    3.5430   -0.9790   -1.6050 C   0  0  0  0  0  0  0  0  0  0  0  0
   -2.2920    0.7620    0.0960 C   0  0  0  0  0  0  0  0  0  0  0  0
   -2.7760    2.1350   -0.1950 C   0  0  0  0  0  0  0  0  0  0  0  0
   -2.9350    0.0790    0.9660 N   0  0  0  0  0  0  0  0  0  0  0  0
  1  2  2  0
  2  3  1  0
  2 20  1  0
  3  4  1  0
  4  5  1  0
  5  6  1  6
  5  8  1  0
  5 18  1  0
  6  7  1  0
  8  9  1  0
  9 10  1  0
  9 11  2  3
 11 12  1  0
 11 15  1  0
 12 13  2  0
 13 14  1  0
 14 15  2  0
 15 16  1  0
 16 17  1  0
 18 19  1  0
 18 20  2  0
M  CHG  1   7   1
M  END
