
     RDKit          3D

 20 21  0  0  0  0  0  0  0  0999 V2000
   -0.0040   -0.0920   -1.7550 C   0  0  0  0  0  0  0  0  0  0  0  0
   -0.7150   -0.9010   -0.7040 C   0  0  1  0  0  0  0  0  0  0  0  0
    0.0610   -1.2250    0.4440 N   0  0  0  0  0  0  0  0  0  0  0  0
    0.9280   -0.2240    0.9540 C   0  0  0  0  0  0  0  0  0  0  0  0
    2.2340   -0.0660    0.3690 C   0  0  0  0  0  0  0  0  0  0  0  0
    2.5320    1.1070   -0.1750 C   0  0  0  0  0  0  0  0  0  0  0  0
    3.7930    1.4230   -0.7990 C   0  0  0  0  0  0  0  0  0  0  0  0
    4.0420    2.5930   -1.3210 N   0  0  0  0  0  0  0  0  0  0  0  0
    4.8240    0.3950   -0.8450 C   0  0  0  0  0  0  0  0  0  0  0  0
    5.9670    0.6330   -1.3940 N   0  0  0  0  0  0  0  0  0  0  0  0
    4.4630   -0.8830   -0.2390 C   0  0  0  0  0  0  0  0  0  0  0  0
    3.2780   -1.0770    0.3110 C   0  0  0  0  0  0  0  0  0  0  0  0
    3.0140   -2.3420    0.8730 N   0  0  0  0  0  0  0  0  0  0  0  0
   -2.0210   -0.2220   -0.4040 C   0  0  1  0  0  0  0  0  0  0  0  0
   -3.0040   -1.0480    0.3380 C   0  0  0  0  0  0  0  0  0  0  0  0
   -4.1350   -0.1740    0.6770 N   0  0  0  0  0  0  0  0  0  0  0  0
   -4.0830    0.2600    2.0510 C   0  0  0  0  0  0  0  0  0  0  0  0
   -4.1610    0.9940   -0.1780 C   0  0  0  0  0  0  0  0  0  0  0  0
   -2.9060    1.8270   -0.0650 C   0  0  0  0  0  0  0  0  0  0  0  0
   -1.8370    0.9800    0.2720 O   0  0  0  0  0  0  0  0  0  0  0  0
  2  1  1  6
  2  3  1  0
  2 14  1  0
  3  4  1  0
  4  5  1  0
  5  6  2  0
  5 12  1  0
  6  7  1  0
  7  8  2  0
  7  9  1  0
  9 10  2  0
  9 11  1  0
 11 12  2  0
 12 13  1  0
 14 15  1  1
 14 20  1  0
 15 16  1  0
 16 17  1  0
 16 18  1  0
 18 19  1  0
 19 20  1  0
M  CHG  1   3   1
M  END
