
     RDKit          3D

 20 22  0  0  0  0  0  0  0  0999 V2000
    2.8580   -2.7800    2.1800 C   0  0  0  0  0  0  0  0  0  0  0  0
    1.5260   -2.0970    1.9020 C   0  0  0  0  0  0  0  0  0  0  0  0
    0.6780   -2.2920    2.7880 O   0  0  0  0  0  0  0  0  0  0  0  0
    1.3780   -1.3380    0.7200 N   0  0  0  0  0  0  0  0  0  0  0  0
    0.1520   -0.6900    0.4300 C   0  0  0  0  0  0  0  0  0  0  0  0
    0.0950   -0.0000   -0.6950 C   0  0  0  0  0  0  0  0  0  0  0  0
    1.3260   -0.0110   -1.4860 N   0  0  0  0  0  0  0  0  0  0  0  0
    2.1810    0.9010   -1.1820 N   0  0  0  0  0  0  0  0  0  0  0  0
    3.4430    1.0210   -1.8720 C   0  0  2  0  0  0  0  0  0  0  0  0
    4.6300    0.2680   -1.3950 C   0  0  0  0  0  0  0  0  0  0  0  0
    4.5790    1.7540   -1.2020 C   0  0  0  0  0  0  0  0  0  0  0  0
   -1.0550    0.7670   -1.2080 C   0  0  0  0  0  0  0  0  0  0  0  0
   -2.2730    0.6890   -0.3660 C   0  0  1  0  0  0  0  0  0  0  0  0
   -2.6510    2.0830   -0.0450 N   0  0  0  0  0  0  0  0  0  0  0  0
   -3.4490    0.0830   -1.1180 C   0  0  0  0  0  0  0  0  0  0  0  0
   -4.6260    0.0220   -0.2550 C   0  0  0  0  0  0  0  0  0  0  0  0
   -4.5460   -0.0940    1.0440 C   0  0  0  0  0  0  0  0  0  0  0  0
   -3.2780   -0.1670    1.7260 N   0  0  0  0  0  0  0  0  0  0  0  0
   -2.1150   -0.0970    0.8660 C   0  0  0  0  0  0  0  0  0  0  0  0
   -1.0380   -0.7290    1.2510 C   0  0  0  0  0  0  0  0  0  0  0  0
  1  2  1  0
  2  3  2  0
  2  4  1  0
  4  5  1  0
  5  6  2  0
  5 20  1  0
  6  7  1  0
  6 12  1  0
  7  8  2  3
  9  8  1  1
  9 10  1  0
  9 11  1  0
 10 11  1  0
 12 13  1  0
 13 14  1  1
 13 15  1  0
 13 19  1  0
 15 16  1  0
 16 17  2  0
 17 18  1  0
 18 19  1  0
 19 20  2  0
M  CHG  1  14   1
M  END
