
     RDKit          3D

 20 22  0  0  0  0  0  0  0  0999 V2000
    6.0190    0.4170   -0.2240 N   0  0  0  0  0  0  0  0  0  0  0  0
    4.6260    0.0510   -0.2900 C   0  0  0  0  0  0  0  0  0  0  0  0
    3.9680    0.0240   -1.4980 C   0  0  0  0  0  0  0  0  0  0  0  0
    2.6300   -0.3400   -1.4650 C   0  0  0  0  0  0  0  0  0  0  0  0
    1.9990   -0.6550   -0.2910 C   0  0  0  0  0  0  0  0  0  0  0  0
    0.5830   -1.0350   -0.2910 C   0  0  0  0  0  0  0  0  0  0  0  0
   -0.3150    0.0740   -0.1200 N   0  0  1  0  0  0  0  0  0  0  0  0
   -0.7190    0.7130   -1.3340 C   0  0  0  0  0  0  0  0  0  0  0  0
   -0.5970    2.2090   -1.1540 C   0  0  0  0  0  0  0  0  0  0  0  0
   -1.3900    2.6990    0.0130 C   0  0  0  0  0  0  0  0  0  0  0  0
   -2.5430    1.8880    0.3230 N   0  0  0  0  0  0  0  0  0  0  0  0
   -2.5850    0.6400    0.5580 C   0  0  0  0  0  0  0  0  0  0  0  0
   -3.9190    0.2250    0.8200 N   0  0  0  0  0  0  0  0  0  0  0  0
   -4.3530   -1.1550    0.7190 C   0  0  0  0  0  0  0  0  0  0  0  0
   -3.1630   -2.0510    1.0360 C   0  0  0  0  0  0  0  0  0  0  0  0
   -2.0710   -1.6470    0.0440 C   0  0  0  0  0  0  0  0  0  0  0  0
   -1.4910   -0.3640    0.5890 C   0  0  1  0  0  0  0  0  0  0  0  0
    2.6850   -0.6110    0.8500 N   0  0  0  0  0  0  0  0  0  0  0  0
    4.0010   -0.2630    0.8920 C   0  0  0  0  0  0  0  0  0  0  0  0
    4.6340   -0.2270    1.9760 O   0  0  0  0  0  0  0  0  0  0  0  0
  1  2  1  0
  2  3  2  0
  2 19  1  0
  3  4  1  0
  4  5  2  0
  5  6  1  0
  5 18  1  0
  7  6  1  6
  7  8  1  0
  7 17  1  0
  8  9  1  0
  9 10  1  0
 10 11  1  0
 11 12  2  0
 12 13  1  0
 12 17  1  0
 13 14  1  0
 14 15  1  0
 15 16  1  0
 17 16  1  6
 18 19  1  0
 19 20  2  0
M  CHG  1   7   1
M  END
