
     RDKit          3D

 23 26  0  0  0  0  0  0  0  0999 V2000
   -3.4770    0.0380    1.7060 C   0  0  0  0  0  0  0  0  0  0  0  0
   -3.2150    1.0980    0.6420 C   0  0  2  0  0  0  0  0  0  0  0  0
   -2.6520    2.3190    1.3180 C   0  0  0  0  0  0  0  0  0  0  0  0
   -4.5410    1.4460    0.0210 C   0  0  0  0  0  0  0  0  0  0  0  0
   -4.5370    0.7140   -1.2080 N   0  0  0  0  0  0  0  0  0  0  0  0
   -3.1790    0.3650   -1.5390 C   0  0  0  0  0  0  0  0  0  0  0  0
   -2.5970   -0.1210   -2.6900 C   0  0  0  0  0  0  0  0  0  0  0  0
   -1.2450   -0.3790   -2.7510 C   0  0  0  0  0  0  0  0  0  0  0  0
   -0.6420   -0.8680   -3.9010 O   0  0  0  0  0  0  0  0  0  0  0  0
   -0.4120   -0.1560   -1.6440 C   0  0  0  0  0  0  0  0  0  0  0  0
    0.9910   -0.4170   -1.7680 C   0  0  0  0  0  0  0  0  0  0  0  0
    1.4450   -0.7220   -2.9590 O   0  0  0  0  0  0  0  0  0  0  0  0
    2.0010   -0.4000   -0.7860 N   0  0  0  0  0  0  0  0  0  0  0  0
    1.9500   -0.1490    0.6180 C   0  0  0  0  0  0  0  0  0  0  0  0
    3.2440   -0.6340    1.1590 C   0  0  0  0  0  0  0  0  0  0  0  0
    3.6990   -0.8250    2.4760 C   0  0  0  0  0  0  0  0  0  0  0  0
    4.9720   -1.3030    2.6900 C   0  0  0  0  0  0  0  0  0  0  0  0
    5.8300   -1.6040    1.6490 C   0  0  0  0  0  0  0  0  0  0  0  0
    5.3760   -1.4130    0.3650 C   0  0  0  0  0  0  0  0  0  0  0  0
    4.0800   -0.9270    0.1380 C   0  0  0  0  0  0  0  0  0  0  0  0
    3.4100   -0.6520   -1.1460 C   0  0  0  0  0  0  0  0  0  0  0  0
   -1.0110    0.3240   -0.5200 C   0  0  0  0  0  0  0  0  0  0  0  0
   -2.3810    0.5910   -0.4410 C   0  0  0  0  0  0  0  0  0  0  0  0
  2  1  1  1
  2  3  1  0
  2  4  1  0
  2 23  1  0
  4  5  1  0
  5  6  1  0
  6  7  2  0
  6 23  1  0
  7  8  1  0
  8  9  1  0
  8 10  2  0
 10 11  1  0
 10 22  1  0
 11 12  2  0
 11 13  1  0
 13 14  1  0
 13 21  1  0
 14 15  1  0
 15 16  2  0
 15 20  1  0
 16 17  1  0
 17 18  2  0
 18 19  1  0
 19 20  2  0
 20 21  1  0
 22 23  2  0
M  END
