
     RDKit          3D

 20 22  0  0  0  0  0  0  0  0999 V2000
   -5.2350    1.4950   -0.9220 C   0  0  0  0  0  0  0  0  0  0  0  0
   -4.0580    1.0900   -0.1800 N   0  0  0  0  0  0  0  0  0  0  0  0
   -3.6370   -0.2440   -0.4870 C   0  0  2  0  0  0  0  0  0  0  0  0
   -2.9530   -0.7900    0.7750 C   0  0  0  0  0  0  0  0  0  0  0  0
   -1.7140    0.1220    0.7690 C   0  0  0  0  0  0  0  0  0  0  0  0
   -1.3350    0.2070   -0.7030 C   0  0  1  0  0  0  0  0  0  0  0  0
   -0.1430   -0.5440   -0.9070 N   0  0  0  0  0  0  0  0  0  0  0  0
    1.0660   -0.1590   -0.2920 C   0  0  0  0  0  0  0  0  0  0  0  0
    1.1060    0.9720    0.4930 C   0  0  0  0  0  0  0  0  0  0  0  0
    2.3210    1.3000    1.0800 C   0  0  0  0  0  0  0  0  0  0  0  0
    2.3360    2.4740    1.8870 N   0  0  0  0  0  0  0  0  0  0  0  0
    3.4020    0.5390    0.8820 N   0  0  0  0  0  0  0  0  0  0  0  0
    3.3770   -0.5760    0.1120 C   0  0  0  0  0  0  0  0  0  0  0  0
    4.5790   -1.3800   -0.0780 C   0  0  0  0  0  0  0  0  0  0  0  0
    5.8380   -1.1720    0.4390 C   0  0  0  0  0  0  0  0  0  0  0  0
    6.6660   -2.2040   -0.0180 C   0  0  0  0  0  0  0  0  0  0  0  0
    5.9290   -2.9830   -0.7710 O   0  0  0  0  0  0  0  0  0  0  0  0
    4.6860   -2.5280   -0.8300 C   0  0  0  0  0  0  0  0  0  0  0  0
    2.2060   -0.8960   -0.4550 N   0  0  0  0  0  0  0  0  0  0  0  0
   -2.5120   -0.3150   -1.4830 C   0  0  0  0  0  0  0  0  0  0  0  0
  1  2  1  0
  3  2  1  1
  3  4  1  0
  3 20  1  0
  4  5  1  0
  5  6  1  0
  6  7  1  1
  6 20  1  0
  7  8  1  0
  8  9  2  0
  8 19  1  0
  9 10  1  0
 10 11  1  0
 10 12  2  0
 12 13  1  0
 13 14  1  0
 13 19  2  0
 14 15  1  0
 14 18  2  0
 15 16  2  0
 16 17  1  0
 17 18  1  0
M  CHG  1   2   1
M  END
