
     RDKit          3D

 29 30  0  0  0  0  0  0  0  0999 V2000
   -6.6890    2.3930   -0.1470 C   0  0  0  0  0  0  0  0  0  0  0  0
   -5.3000    1.8970   -0.4640 C   0  0  0  0  0  0  0  0  0  0  0  0
   -4.9930    0.6370    0.2420 C   0  0  0  0  0  0  0  0  0  0  0  0
   -5.9020    0.0400    1.0730 C   0  0  0  0  0  0  0  0  0  0  0  0
   -5.6640   -1.1280    1.7500 C   0  0  0  0  0  0  0  0  0  0  0  0
   -6.6580   -1.7710    2.6520 C   0  0  0  0  0  0  0  0  0  0  0  0
   -4.4360   -1.7090    1.5650 C   0  0  0  0  0  0  0  0  0  0  0  0
   -3.4590   -1.1510    0.7300 C   0  0  0  0  0  0  0  0  0  0  0  0
   -3.7460    0.0350    0.0630 C   0  0  0  0  0  0  0  0  0  0  0  0
   -2.8590    0.6870   -0.7950 N   0  0  0  0  0  0  0  0  0  0  0  0
   -1.5480    0.2120   -1.0890 C   0  0  0  0  0  0  0  0  0  0  0  0
   -1.0460   -0.8240   -0.6240 O   0  0  0  0  0  0  0  0  0  0  0  0
   -0.7030    0.9570   -1.9910 N   0  0  0  0  0  0  0  0  0  0  0  0
    0.6280    0.5330   -2.3210 C   0  0  0  0  0  0  0  0  0  0  0  0
    1.4730    0.4980   -1.0970 C   0  0  0  0  0  0  0  0  0  0  0  0
    2.8030    0.0890   -1.3540 O   0  0  0  0  0  0  0  0  0  0  0  0
    3.6840    0.0150   -0.3080 C   0  0  0  0  0  0  0  0  0  0  0  0
    3.3170    0.3230    0.9610 C   0  0  0  0  0  0  0  0  0  0  0  0
    4.2340    0.2380    1.9970 C   0  0  0  0  0  0  0  0  0  0  0  0
    5.5220   -0.1560    1.7650 C   0  0  0  0  0  0  0  0  0  0  0  0
    6.6610   -0.2560    3.0890 S   0  0  1  0  0  0  0  0  0  0  0  0
    7.5120   -1.4840    2.8400 O   0  0  0  0  0  0  0  0  0  0  0  0
    7.5800    0.9330    3.1060 O   0  0  0  0  0  0  0  0  0  0  0  0
    5.9070   -0.4730    0.4670 C   0  0  0  0  0  0  0  0  0  0  0  0
    5.0050   -0.3910   -0.5610 C   0  0  0  0  0  0  0  0  0  0  0  0
    5.3350   -0.7000   -1.9020 N   0  0  0  0  0  0  0  0  0  0  0  0
    6.6140   -1.1170   -2.2880 C   0  0  0  0  0  0  0  0  0  0  0  0
    6.8010   -1.3960   -3.6900 N   0  0  0  0  0  0  0  0  0  0  0  0
    7.5900   -1.2670   -1.5520 O   0  0  0  0  0  0  0  0  0  0  0  0
  1  2  1  0
  2  3  1  0
  3  4  2  0
  3  9  1  0
  4  5  1  0
  5  6  1  0
  5  7  2  0
  7  8  1  0
  8  9  2  0
  9 10  1  0
 10 11  1  0
 11 12  2  0
 11 13  1  0
 13 14  1  0
 14 15  1  0
 15 16  1  0
 16 17  1  0
 17 18  2  0
 17 25  1  0
 18 19  1  0
 19 20  2  0
 21 20  1  6
 20 24  1  0
 21 22  2  0
 21 23  2  0
 24 25  2  0
 25 26  1  0
 26 27  1  0
 27 28  1  0
 27 29  2  0
M  END
