
     RDKit          3D

 29 31  0  0  0  0  0  0  0  0999 V2000
   -7.4290    0.0670   -2.9580 C   0  0  0  0  0  0  0  0  0  0  0  0
   -6.6690   -0.6320   -1.9610 O   0  0  0  0  0  0  0  0  0  0  0  0
   -5.3420   -0.3160   -1.8550 C   0  0  0  0  0  0  0  0  0  0  0  0
   -4.7840    0.5260   -2.5660 O   0  0  0  0  0  0  0  0  0  0  0  0
   -4.4560   -0.9170   -0.9210 N   0  0  0  0  0  0  0  0  0  0  0  0
   -3.1230   -0.6590   -0.7510 C   0  0  2  0  0  0  0  0  0  0  0  0
   -2.3140   -1.8850   -1.1100 C   0  0  0  0  0  0  0  0  0  0  0  0
   -2.0950   -2.0440    0.3650 C   0  0  2  0  0  0  0  0  0  0  0  0
   -3.0680   -2.8460    0.9710 N   0  0  0  0  0  0  0  0  0  0  0  0
   -2.2790   -0.4970    0.3990 C   0  0  2  0  0  0  0  0  0  0  0  0
   -2.7040   -0.0180    1.7280 C   0  0  0  0  0  0  0  0  0  0  0  0
   -3.3160    1.3430    1.7780 C   0  0  0  0  0  0  0  0  0  0  0  0
   -3.7350    1.6820    3.2310 C   0  0  0  0  0  0  0  0  0  0  0  0
   -4.2990    2.9550    3.2340 O   0  0  0  0  0  0  0  0  0  0  0  0
   -0.8940    0.0170    0.0540 C   0  0  0  0  0  0  0  0  0  0  0  0
   -0.7720    1.3010   -0.6400 C   0  0  0  0  0  0  0  0  0  0  0  0
    0.6530    1.5560   -0.8530 N   0  0  1  0  0  0  0  0  0  0  0  0
    1.4730    1.0700    0.2220 C   0  0  0  0  0  0  0  0  0  0  0  0
    2.8840    1.5820   -0.0510 C   0  0  0  0  0  0  0  0  0  0  0  0
    3.3600    0.7800   -1.2730 C   0  0  2  0  0  0  0  0  0  0  0  0
    4.6790    0.9320   -1.4420 O   0  0  0  0  0  0  0  0  0  0  0  0
    5.5430   -0.0880   -1.3660 C   0  0  0  0  0  0  0  0  0  0  0  0
    5.5640   -0.7270   -0.0020 C   0  0  1  0  0  0  0  0  0  0  0  0
    4.3990   -1.2710    0.4730 O   0  0  0  0  0  0  0  0  0  0  0  0
    6.7180   -1.7130    0.1860 C   0  0  0  0  0  0  0  0  0  0  0  0
    7.0720   -1.0500    1.4890 C   0  0  0  0  0  0  0  0  0  0  0  0
    6.2160    0.1270    1.0740 C   0  0  0  0  0  0  0  0  0  0  0  0
    2.5020    1.2320   -2.4330 C   0  0  0  0  0  0  0  0  0  0  0  0
    1.0610    0.8890   -2.0610 C   0  0  0  0  0  0  0  0  0  0  0  0
  1  2  1  0
  2  3  1  0
  3  4  2  0
  3  5  1  0
  6  5  1  1
  6  7  1  0
  6 10  1  0
  7  8  1  0
  8  9  1  1
  8 10  1  0
 10 11  1  1
 10 15  1  0
 11 12  1  0
 12 13  1  0
 13 14  1  0
 15 16  1  0
 17 16  1  1
 17 18  1  0
 17 29  1  0
 18 19  1  0
 19 20  1  0
 20 21  1  6
 20 28  1  0
 21 22  1  0
 22 23  1  0
 23 24  1  1
 23 25  1  0
 23 27  1  0
 25 26  1  0
 26 27  1  0
 28 29  1  0
M  CHG  2   9   1  17   1
M  END
