
     RDKit          3D

 29 30  0  0  0  0  0  0  0  0999 V2000
    7.2710   -2.0710    0.0510 C   0  0  0  0  0  0  0  0  0  0  0  0
    7.6490   -0.9240    0.9610 C   0  0  0  0  0  0  0  0  0  0  0  0
    6.9690    0.3440    0.4810 C   0  0  0  0  0  0  0  0  0  0  0  0
    5.5730    0.2210    0.4860 O   0  0  0  0  0  0  0  0  0  0  0  0
    4.7030    1.2000    0.1050 C   0  0  0  0  0  0  0  0  0  0  0  0
    5.1840    2.2830   -0.2790 O   0  0  0  0  0  0  0  0  0  0  0  0
    3.2220    1.0030    0.1380 C   0  0  0  0  0  0  0  0  0  0  0  0
    2.7330   -0.1850    0.5580 C   0  0  0  0  0  0  0  0  0  0  0  0
    3.4120   -1.3590    0.9980 N   0  0  0  0  0  0  0  0  0  0  0  0
    0.9800    0.0200    0.4460 S   0  0  0  0  0  0  0  0  0  0  0  0
    1.0240    1.6900   -0.1590 C   0  0  0  0  0  0  0  0  0  0  0  0
   -0.1540    2.5400   -0.4980 C   0  0  0  0  0  0  0  0  0  0  0  0
   -1.3560    1.8800   -0.2730 O   0  0  0  0  0  0  0  0  0  0  0  0
   -1.7310    0.7140   -0.8810 C   0  0  0  0  0  0  0  0  0  0  0  0
   -0.9880    0.1570   -1.7020 O   0  0  0  0  0  0  0  0  0  0  0  0
   -3.0390    0.1350   -0.5400 C   0  0  0  0  0  0  0  0  0  0  0  0
   -3.8060    0.7390    0.3260 C   0  0  0  0  0  0  0  0  0  0  0  0
   -5.1020    0.2690    0.7360 C   0  0  0  0  0  0  0  0  0  0  0  0
   -6.1920    1.1390    0.8930 C   0  0  0  0  0  0  0  0  0  0  0  0
   -7.2560    0.4470    1.2920 N   0  0  0  0  0  0  0  0  0  0  0  0
   -6.9470   -0.8530    1.4160 C   0  0  0  0  0  0  0  0  0  0  0  0
   -7.7920   -1.9880    1.8270 C   0  0  0  0  0  0  0  0  0  0  0  0
   -5.5930   -0.9650    1.0670 C   0  0  0  0  0  0  0  0  0  0  0  0
   -3.3560   -1.0780   -1.2110 N   0  0  0  0  0  0  0  0  0  0  0  0
   -3.4720   -1.1500   -2.6240 C   0  0  0  0  0  0  0  0  0  0  0  0
   -3.7920   -2.4090   -3.2010 N   0  0  0  0  0  0  0  0  0  0  0  0
   -3.3000   -0.1440   -3.3380 O   0  0  0  0  0  0  0  0  0  0  0  0
    2.3620    1.9680   -0.2310 C   0  0  0  0  0  0  0  0  0  0  0  0
    2.7840    3.3540   -0.7230 C   0  0  0  0  0  0  0  0  0  0  0  0
  1  2  1  0
  2  3  1  0
  3  4  1  0
  4  5  1  0
  5  6  2  0
  5  7  1  0
  7  8  2  0
  7 28  1  0
  8  9  1  0
  8 10  1  0
 10 11  1  0
 11 12  1  0
 11 28  2  0
 12 13  1  0
 13 14  1  0
 14 15  2  0
 14 16  1  0
 16 17  2  3
 16 24  1  0
 17 18  1  0
 18 19  2  0
 18 23  1  0
 19 20  1  0
 20 21  1  0
 21 22  1  0
 21 23  2  0
 24 25  1  0
 25 26  1  0
 25 27  2  0
 28 29  1  0
M  END
