
     RDKit          3D

 29 33  0  0  0  0  0  0  0  0999 V2000
   -4.3730    0.6070   -1.8490 C   0  0  0  0  0  0  0  0  0  0  0  0
   -4.2270    0.6730   -0.3520 C   0  0  1  0  0  0  0  0  0  0  0  0
   -4.5400   -0.5640    0.3030 N   0  0  0  0  0  0  0  0  0  0  0  0
   -5.8330   -1.1530    0.1940 C   0  0  0  0  0  0  0  0  0  0  0  0
   -6.2330   -2.3500    0.7940 C   0  0  0  0  0  0  0  0  0  0  0  0
   -7.5460   -2.5220    0.4190 C   0  0  0  0  0  0  0  0  0  0  0  0
   -7.9440   -1.5030   -0.3640 N   0  0  0  0  0  0  0  0  0  0  0  0
   -9.2740   -1.3350   -0.9570 C   0  0  0  0  0  0  0  0  0  0  0  0
   -6.9030   -0.7080   -0.4770 N   0  0  0  0  0  0  0  0  0  0  0  0
   -2.8210    1.1040   -0.0010 C   0  0  0  0  0  0  0  0  0  0  0  0
   -1.7010    0.3050    0.0200 C   0  0  0  0  0  0  0  0  0  0  0  0
   -0.6420    1.1030    0.3920 C   0  0  0  0  0  0  0  0  0  0  0  0
    0.7220    0.8480    0.5800 C   0  0  0  0  0  0  0  0  0  0  0  0
    1.5870    1.8390    0.9600 C   0  0  0  0  0  0  0  0  0  0  0  0
    3.0160    1.6130    1.1480 C   0  0  0  0  0  0  0  0  0  0  0  0
    3.7390    1.9750    2.2600 N   0  0  0  0  0  0  0  0  0  0  0  0
    5.0070    1.6470    2.1110 N   0  0  0  0  0  0  0  0  0  0  0  0
    5.1830    1.0710    0.9330 C   0  0  0  0  0  0  0  0  0  0  0  0
    3.9290    1.0410    0.3030 C   0  0  0  0  0  0  0  0  0  0  0  0
    3.6070    0.5190   -1.0500 C   0  0  0  0  0  0  0  0  0  0  0  0
    4.3080   -0.8170   -1.1840 C   0  0  0  0  0  0  0  0  0  0  0  0
    4.9080   -1.3050    0.0980 C   0  0  0  0  0  0  0  0  0  0  0  0
    6.2650   -0.9140    0.3210 N   0  0  1  0  0  0  0  0  0  0  0  0
    7.2380   -1.5030   -0.5400 C   0  0  0  0  0  0  0  0  0  0  0  0
    6.4400    0.5300    0.3290 C   0  0  0  0  0  0  0  0  0  0  0  0
    1.0330    3.1050    1.1460 C   0  0  0  0  0  0  0  0  0  0  0  0
   -0.2950    3.3940    0.9720 C   0  0  0  0  0  0  0  0  0  0  0  0
   -1.1630    2.3620    0.5820 C   0  0  0  0  0  0  0  0  0  0  0  0
   -2.4310    2.3010    0.3400 O   0  0  0  0  0  0  0  0  0  0  0  0
  2  1  1  6
  2  3  1  0
  2 10  1  0
  3  4  1  0
  4  5  1  0
  4  9  2  0
  5  6  2  0
  6  7  1  0
  7  8  1  0
  7  9  1  0
 10 11  2  0
 10 29  1  0
 11 12  1  0
 12 13  2  0
 12 28  1  0
 13 14  1  0
 14 15  1  0
 14 26  2  0
 15 16  2  0
 15 19  1  0
 16 17  1  0
 17 18  1  0
 18 19  2  0
 18 25  1  0
 19 20  1  0
 20 21  1  0
 21 22  1  0
 22 23  1  0
 23 24  1  6
 23 25  1  0
 26 27  1  0
 27 28  2  0
 28 29  1  0
M  CHG  1  23   1
M  END
