
     RDKit          3D

 29 33  0  0  0  0  0  0  0  0999 V2000
   -2.7350   -2.2620    1.0660 O   0  0  0  0  0  0  0  0  0  0  0  0
   -3.5510   -1.5520    0.4380 C   0  0  0  0  0  0  0  0  0  0  0  0
   -5.0250   -1.7730    0.5480 C   0  0  0  0  0  0  0  0  0  0  0  0
   -5.6100   -0.8390   -0.4310 C   0  0  1  0  0  0  0  0  0  0  0  0
   -6.6250    0.0800    0.1820 C   0  0  0  0  0  0  0  0  0  0  0  0
   -7.0230    0.1970    1.4130 C   0  0  0  0  0  0  0  0  0  0  0  0
   -8.0660    1.2710    1.5210 C   0  0  0  0  0  0  0  0  0  0  0  0
   -8.1540    1.7100    0.1060 C   0  0  0  0  0  0  0  0  0  0  0  0
   -7.3510    1.0410   -0.6140 N   0  0  0  0  0  0  0  0  0  0  0  0
   -4.5110   -0.0550   -1.0690 C   0  0  0  0  0  0  0  0  0  0  0  0
   -3.2780   -0.4710   -0.4420 N   0  0  0  0  0  0  0  0  0  0  0  0
   -1.9900    0.1530   -0.7240 C   0  0  1  0  0  0  0  0  0  0  0  0
   -1.2990    0.6970    0.4680 C   0  0  0  0  0  0  0  0  0  0  0  0
   -0.0740   -0.0820    0.8050 C   0  0  0  0  0  0  0  0  0  0  0  0
    0.8010   -0.1330   -0.3340 N   0  0  0  0  0  0  0  0  0  0  0  0
    2.1790    0.1040   -0.1930 C   0  0  0  0  0  0  0  0  0  0  0  0
    2.7840    1.3260   -0.1080 C   0  0  0  0  0  0  0  0  0  0  0  0
    4.1060    1.0920   -0.0020 N   0  0  0  0  0  0  0  0  0  0  0  0
    4.3710   -0.2210   -0.0150 C   0  0  0  0  0  0  0  0  0  0  0  0
    5.6170   -0.9100    0.0430 N   0  0  0  0  0  0  0  0  0  0  0  0
    6.8680   -0.2910    0.0250 C   0  0  0  0  0  0  0  0  0  0  0  0
    7.9030   -0.8600    0.7590 C   0  0  0  0  0  0  0  0  0  0  0  0
    9.1780   -0.3500    0.7710 C   0  0  0  0  0  0  0  0  0  0  0  0
    9.4180    0.7870    0.0050 C   0  0  0  0  0  0  0  0  0  0  0  0
    8.4270    1.3840   -0.7360 C   0  0  0  0  0  0  0  0  0  0  0  0
    7.1440    0.8220   -0.7120 C   0  0  0  0  0  0  0  0  0  0  0  0
    3.1510   -0.8220   -0.1350 N   0  0  0  0  0  0  0  0  0  0  0  0
    0.2640   -0.4590   -1.6330 C   0  0  0  0  0  0  0  0  0  0  0  0
   -1.1600   -0.9110   -1.4050 C   0  0  0  0  0  0  0  0  0  0  0  0
  1  2  2  0
  2  3  1  0
  2 11  1  0
  3  4  1  0
  4  5  1  1
  4 10  1  0
  5  6  2  0
  5  9  1  0
  6  7  1  0
  7  8  1  0
  8  9  2  0
 10 11  1  0
 12 11  1  1
 12 13  1  0
 12 29  1  0
 13 14  1  0
 14 15  1  0
 15 16  1  0
 15 28  1  0
 16 17  2  0
 16 27  1  0
 17 18  1  0
 18 19  1  0
 19 20  1  0
 19 27  2  0
 20 21  1  0
 21 22  2  0
 21 26  1  0
 22 23  1  0
 23 24  2  0
 24 25  1  0
 25 26  2  0
 28 29  1  0
M  CHG  1  27   1
M  END
