
     RDKit          3D

 29 33  0  0  0  0  0  0  0  0999 V2000
   -6.5260    2.7050    0.5720 C   0  0  0  0  0  0  0  0  0  0  0  0
   -5.5230    1.7240    0.1330 C   0  0  0  0  0  0  0  0  0  0  0  0
   -5.8930    0.4280   -0.1510 C   0  0  0  0  0  0  0  0  0  0  0  0
   -4.9850   -0.5200   -0.5650 C   0  0  0  0  0  0  0  0  0  0  0  0
   -3.6650   -0.1650   -0.7010 C   0  0  0  0  0  0  0  0  0  0  0  0
   -3.2950    1.1420   -0.4140 C   0  0  0  0  0  0  0  0  0  0  0  0
   -4.2020    2.0880   -0.0010 C   0  0  0  0  0  0  0  0  0  0  0  0
   -1.9420    1.7230   -0.4960 C   0  0  0  0  0  0  0  0  0  0  0  0
   -0.8260    1.1090   -0.6980 N   0  0  0  0  0  0  0  0  0  0  0  0
   -0.5380   -0.2620   -0.8990 N   0  0  0  0  0  0  0  0  0  0  0  0
    0.8040   -0.7050   -0.5840 C   0  0  0  0  0  0  0  0  0  0  0  0
    0.9240   -1.1070    0.8400 C   0  0  1  0  0  0  0  0  0  0  0  0
   -0.0170   -2.2590    1.1260 C   0  0  0  0  0  0  0  0  0  0  0  0
    0.4810   -3.5890    0.6550 C   0  0  0  0  0  0  0  0  0  0  0  0
    1.9510   -3.7800    0.6480 C   0  0  0  0  0  0  0  0  0  0  0  0
    2.7610   -2.5230    0.4130 C   0  0  0  0  0  0  0  0  0  0  0  0
    2.2140   -1.5080    1.2920 N   0  0  1  0  0  0  0  0  0  0  0  0
    3.1190   -0.5000    1.6990 C   0  0  0  0  0  0  0  0  0  0  0  0
    3.4150    0.5670    0.7380 C   0  0  0  0  0  0  0  0  0  0  0  0
    4.2580    0.5830   -0.3360 C   0  0  0  0  0  0  0  0  0  0  0  0
    4.2370    1.7820   -0.9470 N   0  0  0  0  0  0  0  0  0  0  0  0
    4.7340    2.5100   -1.9620 C   0  0  0  0  0  0  0  0  0  0  0  0
    4.1840    3.7850   -1.9460 C   0  0  0  0  0  0  0  0  0  0  0  0
    3.3300    3.7860   -0.8660 C   0  0  0  0  0  0  0  0  0  0  0  0
    3.3730    2.5300   -0.2520 C   0  0  0  0  0  0  0  0  0  0  0  0
    2.8600    1.8150    0.7760 N   0  0  0  0  0  0  0  0  0  0  0  0
   -1.4570   -1.2310   -1.3780 C   0  0  0  0  0  0  0  0  0  0  0  0
   -0.9450   -2.1340   -2.0800 O   0  0  0  0  0  0  0  0  0  0  0  0
   -2.8480   -1.2570   -1.1370 N   0  0  0  0  0  0  0  0  0  0  0  0
  1  2  1  0
  2  3  2  0
  2  7  1  0
  3  4  1  0
  4  5  2  0
  5  6  1  0
  5 29  1  0
  6  7  2  0
  6  8  1  0
  8  9  2  0
  9 10  1  0
 10 11  1  0
 10 27  1  0
 12 11  1  6
 12 13  1  0
 12 17  1  0
 13 14  1  0
 14 15  1  0
 15 16  1  0
 16 17  1  0
 17 18  1  6
 18 19  1  0
 19 20  2  0
 19 26  1  0
 20 21  1  0
 21 22  1  0
 21 25  1  0
 22 23  2  0
 23 24  1  0
 24 25  2  0
 25 26  1  0
 27 28  2  0
 27 29  1  0
M  CHG  1  17   1
M  END
