
     RDKit          3D

 29 33  0  0  0  0  0  0  0  0999 V2000
    2.8090    0.7820    0.0300 O   0  0  0  0  0  0  0  0  0  0  0  0
    1.9850    0.2200    0.7700 C   0  0  0  0  0  0  0  0  0  0  0  0
    2.3310   -0.8610    1.5600 N   0  0  0  0  0  0  0  0  0  0  0  0
    3.5790   -1.4760    1.6610 C   0  0  0  0  0  0  0  0  0  0  0  0
    3.7430   -2.5820    2.5330 C   0  0  0  0  0  0  0  0  0  0  0  0
    5.0390   -3.0300    2.4800 C   0  0  0  0  0  0  0  0  0  0  0  0
    5.6530   -2.2460    1.6190 N   0  0  0  0  0  0  0  0  0  0  0  0
    4.7740   -1.3170    1.1330 N   0  0  0  0  0  0  0  0  0  0  0  0
    5.2650   -0.3770    0.1820 C   0  0  0  0  0  0  0  0  0  0  0  0
    5.2170   -0.7030   -1.1850 C   0  0  0  0  0  0  0  0  0  0  0  0
    5.7320    0.1750   -2.1160 C   0  0  0  0  0  0  0  0  0  0  0  0
    6.2970    1.3730   -1.7270 C   0  0  0  0  0  0  0  0  0  0  0  0
    6.3370    1.6750   -0.3860 C   0  0  0  0  0  0  0  0  0  0  0  0
    5.8320    0.8220    0.5570 C   0  0  0  0  0  0  0  0  0  0  0  0
    0.6030    0.8080    0.7340 C   0  0  1  0  0  0  0  0  0  0  0  0
    0.1330    0.7350   -0.7020 C   0  0  0  0  0  0  0  0  0  0  0  0
   -1.2390    0.0450   -0.5690 C   0  0  0  0  0  0  0  0  0  0  0  0
   -1.6140    0.4690    0.8270 C   0  0  1  0  0  0  0  0  0  0  0  0
   -2.7800   -0.2140    1.4200 C   0  0  0  0  0  0  0  0  0  0  0  0
   -4.0330    0.0180    0.6730 C   0  0  0  0  0  0  0  0  0  0  0  0
   -4.3100    0.8930   -0.3500 C   0  0  0  0  0  0  0  0  0  0  0  0
   -5.6000    0.7600   -0.7730 N   0  0  0  0  0  0  0  0  0  0  0  0
   -6.3030    1.3880   -1.7290 C   0  0  0  0  0  0  0  0  0  0  0  0
   -7.6160    1.0770   -1.9780 C   0  0  0  0  0  0  0  0  0  0  0  0
   -8.2100    0.0960   -1.2240 C   0  0  0  0  0  0  0  0  0  0  0  0
   -7.4660   -0.5280   -0.2550 C   0  0  0  0  0  0  0  0  0  0  0  0
   -6.1290   -0.2020   -0.0100 C   0  0  0  0  0  0  0  0  0  0  0  0
   -5.2140   -0.6550    0.8560 N   0  0  0  0  0  0  0  0  0  0  0  0
   -0.3580    0.1090    1.5230 N   0  0  0  0  0  0  0  0  0  0  0  0
  1  2  2  0
  2  3  1  0
 15  2  1  6
  3  4  1  0
  4  5  2  0
  4  8  1  0
  5  6  1  0
  6  7  2  0
  7  8  1  0
  8  9  1  0
  9 10  2  0
  9 14  1  0
 10 11  1  0
 11 12  2  0
 12 13  1  0
 13 14  2  0
 15 16  1  0
 15 29  1  0
 16 17  1  0
 17 18  1  0
 18 19  1  1
 18 29  1  0
 19 20  1  0
 20 21  2  0
 20 28  1  0
 21 22  1  0
 22 23  1  0
 22 27  1  0
 23 24  2  0
 24 25  1  0
 25 26  2  0
 26 27  1  0
 27 28  2  0
M  CHG  1  29   1
M  END
