
     RDKit          3D

 27 29  0  0  0  0  0  0  0  0999 V2000
   -6.6830   -0.3150    2.7670 C   0  0  0  0  0  0  0  0  0  0  0  0
   -6.0930    0.8920    2.0880 C   0  0  0  0  0  0  0  0  0  0  0  0
   -4.8170    0.6710    1.5480 O   0  0  0  0  0  0  0  0  0  0  0  0
   -4.5440   -0.2560    0.5660 C   0  0  0  0  0  0  0  0  0  0  0  0
   -5.5630   -1.0190    0.0600 C   0  0  0  0  0  0  0  0  0  0  0  0
   -5.2830   -1.9410   -0.9170 C   0  0  0  0  0  0  0  0  0  0  0  0
   -4.0030   -2.0850   -1.3700 C   0  0  0  0  0  0  0  0  0  0  0  0
   -3.7520   -3.0250   -2.3580 O   0  0  0  0  0  0  0  0  0  0  0  0
   -2.9450   -1.3160   -0.8680 C   0  0  0  0  0  0  0  0  0  0  0  0
   -1.6760   -1.5580   -1.4150 N   0  0  0  0  0  0  0  0  0  0  0  0
   -0.4600   -0.9080   -1.0690 C   0  0  0  0  0  0  0  0  0  0  0  0
   -0.4600   -0.0190   -0.1920 O   0  0  0  0  0  0  0  0  0  0  0  0
    0.8010   -1.2560   -1.7190 C   0  0  0  0  0  0  0  0  0  0  0  0
    1.9130   -0.6360   -1.3770 C   0  0  0  0  0  0  0  0  0  0  0  0
    3.1960   -0.9270   -1.9750 C   0  0  0  0  0  0  0  0  0  0  0  0
    4.2590   -0.2790   -1.5940 C   0  0  0  0  0  0  0  0  0  0  0  0
    4.3680    1.0250   -0.3340 S   0  0  0  0  0  0  0  0  0  0  0  0
    6.1130    1.2690   -0.5180 C   0  0  0  0  0  0  0  0  0  0  0  0
    6.9330    2.2510    0.2520 C   0  0  0  0  0  0  0  0  0  0  0  0
    6.4570    3.0880    1.1930 C   0  0  0  0  0  0  0  0  0  0  0  0
    7.2530    3.9520    1.8520 C   0  0  0  0  0  0  0  0  0  0  0  0
    8.9070    3.6110    1.1140 S   0  0  0  0  0  0  0  0  0  0  0  0
    8.3220    2.3340   -0.0040 C   0  0  0  0  0  0  0  0  0  0  0  0
    6.5280    0.4810   -1.3960 N   0  0  0  0  0  0  0  0  0  0  0  0
    5.6460   -0.3710   -2.0210 C   0  0  0  0  0  0  0  0  0  0  0  0
    6.0060   -1.2030   -2.9300 O   0  0  0  0  0  0  0  0  0  0  0  0
   -3.2280   -0.4160    0.0880 C   0  0  0  0  0  0  0  0  0  0  0  0
  1  2  1  0
  2  3  1  0
  3  4  1  0
  4  5  2  0
  4 27  1  0
  5  6  1  0
  6  7  2  0
  7  8  1  0
  7  9  1  0
  9 10  1  0
  9 27  2  0
 10 11  1  0
 11 12  2  0
 11 13  1  0
 13 14  2  3
 14 15  1  0
 15 16  2  3
 16 17  1  0
 16 25  1  0
 17 18  1  0
 18 19  1  0
 18 24  2  0
 19 20  1  0
 19 23  2  0
 20 21  2  0
 21 22  1  0
 22 23  1  0
 24 25  1  0
 25 26  2  0
M  END
