
     RDKit          3D

 27 29  0  0  0  0  0  0  0  0999 V2000
    6.6850    1.8740   -0.2870 C   0  0  0  0  0  0  0  0  0  0  0  0
    5.6610    2.6490   -1.0700 C   0  0  0  0  0  0  0  0  0  0  0  0
    4.3110    2.4110   -0.5160 C   0  0  0  0  0  0  0  0  0  0  0  0
    3.7520    3.3810    0.2570 N   0  0  0  0  0  0  0  0  0  0  0  0
    2.5590    3.2990    0.8190 C   0  0  0  0  0  0  0  0  0  0  0  0
    1.8270    2.1260    0.5990 C   0  0  0  0  0  0  0  0  0  0  0  0
    2.3020    1.0800   -0.1700 C   0  0  0  0  0  0  0  0  0  0  0  0
    1.5640   -0.1260   -0.3010 N   0  0  0  0  0  0  0  0  0  0  0  0
    0.1710   -0.2710   -0.0230 C   0  0  0  0  0  0  0  0  0  0  0  0
   -0.4870    0.6910    0.3530 O   0  0  0  0  0  0  0  0  0  0  0  0
   -0.4720   -1.5910   -0.1920 C   0  0  0  0  0  0  0  0  0  0  0  0
    0.0860   -2.6800   -0.6520 O   0  0  0  0  0  0  0  0  0  0  0  0
   -0.7440   -3.6910   -0.6850 C   0  0  0  0  0  0  0  0  0  0  0  0
   -1.9600   -3.2640   -0.2120 C   0  0  0  0  0  0  0  0  0  0  0  0
   -1.7500   -1.9200    0.0940 C   0  0  0  0  0  0  0  0  0  0  0  0
   -2.7940   -1.0200    0.6830 C   0  0  0  0  0  0  0  0  0  0  0  0
   -2.5100   -0.3870    1.8620 C   0  0  0  0  0  0  0  0  0  0  0  0
   -3.9980    0.5800    2.1830 S   0  0  0  0  0  0  0  0  0  0  0  0
   -4.8520    0.0600    0.7380 C   0  0  0  0  0  0  0  0  0  0  0  0
   -6.2360    0.5260    0.3750 C   0  0  0  0  0  0  0  0  0  0  0  0
   -7.1940   -0.4600    1.0120 C   0  0  0  0  0  0  0  0  0  0  0  0
   -6.9180   -2.1430    0.3940 S   0  0  0  0  0  0  0  0  0  0  0  0
   -4.0090   -0.7580    0.1460 C   0  0  0  0  0  0  0  0  0  0  0  0
    3.5750    1.2550   -0.7280 C   0  0  0  0  0  0  0  0  0  0  0  0
    4.1210    0.2470   -1.5930 C   0  0  0  0  0  0  0  0  0  0  0  0
    3.5000   -0.7940   -1.8900 O   0  0  0  0  0  0  0  0  0  0  0  0
    5.4090    0.3690   -2.1680 O   0  0  0  0  0  0  0  0  0  0  0  0
  1  2  1  0
  2  3  1  0
  3  4  2  0
  3 24  1  0
  4  5  1  0
  5  6  2  0
  6  7  1  0
  7  8  1  0
  7 24  2  0
  8  9  1  0
  9 10  2  0
  9 11  1  0
 11 12  1  0
 11 15  2  0
 12 13  1  0
 13 14  2  0
 14 15  1  0
 15 16  1  0
 16 17  2  0
 16 23  1  0
 17 18  1  0
 18 19  1  0
 19 20  1  0
 19 23  2  0
 20 21  1  0
 21 22  1  0
 24 25  1  0
 25 26  2  0
 25 27  1  0
M  END
