
     RDKit          3D

 27 30  0  0  0  0  0  0  0  0999 V2000
    7.4840    0.8980   -1.2030 C   0  0  0  0  0  0  0  0  0  0  0  0
    6.9080    1.3320    0.1240 C   0  0  0  0  0  0  0  0  0  0  0  0
    6.6040    0.2110    1.0420 C   0  0  0  0  0  0  0  0  0  0  0  0
    5.5790   -0.7520    0.4200 C   0  0  0  0  0  0  0  0  0  0  0  0
    6.0430   -1.9480   -0.0960 C   0  0  0  0  0  0  0  0  0  0  0  0
    4.4890   -2.7350   -0.7140 S   0  0  0  0  0  0  0  0  0  0  0  0
    3.4620   -1.4470   -0.2390 C   0  0  0  0  0  0  0  0  0  0  0  0
    2.0760   -1.3400   -0.3940 C   0  0  0  0  0  0  0  0  0  0  0  0
    1.4330   -2.2400   -0.9310 O   0  0  0  0  0  0  0  0  0  0  0  0
    1.4580   -0.2190    0.0630 C   0  0  0  0  0  0  0  0  0  0  0  0
    0.1420    0.1550    0.0480 C   0  0  0  0  0  0  0  0  0  0  0  0
   -1.2520   -0.6520   -0.5540 S   0  0  1  0  0  0  0  0  0  0  0  0
   -1.1540   -1.1200   -1.9540 O   0  0  0  0  0  0  0  0  0  0  0  0
   -1.4610   -1.8970    0.3030 O   0  0  0  0  0  0  0  0  0  0  0  0
   -2.5980    0.3110   -0.2890 O   0  0  0  0  0  0  0  0  0  0  0  0
   -3.7670   -0.4300   -0.1820 C   0  0  1  0  0  0  0  0  0  0  0  0
   -4.4300   -0.0430    1.1230 C   0  0  0  0  0  0  0  0  0  0  0  0
   -5.7250   -0.7820    1.2750 C   0  0  0  0  0  0  0  0  0  0  0  0
   -6.6440   -0.5130    0.1310 C   0  0  1  0  0  0  0  0  0  0  0  0
   -7.2300    0.8770    0.2170 C   0  0  0  0  0  0  0  0  0  0  0  0
   -5.9950   -0.6710   -1.2190 C   0  0  0  0  0  0  0  0  0  0  0  0
   -4.6930    0.0920   -1.2910 C   0  0  0  0  0  0  0  0  0  0  0  0
    0.1430    1.3940    0.6550 C   0  0  0  0  0  0  0  0  0  0  0  0
    1.3990    1.7260    1.0060 N   0  0  0  0  0  0  0  0  0  0  0  0
    2.2600    0.7330    0.6490 C   0  0  0  0  0  0  0  0  0  0  0  0
    3.5890    0.6010    0.7840 N   0  0  0  0  0  0  0  0  0  0  0  0
    4.2620   -0.5170    0.3370 C   0  0  0  0  0  0  0  0  0  0  0  0
  1  2  1  0
  2  3  1  0
  3  4  1  0
  4  5  2  0
  4 27  1  0
  5  6  1  0
  6  7  1  0
  7  8  1  0
  7 27  2  0
  8  9  2  0
  8 10  1  0
 10 11  1  0
 10 25  2  0
 11 12  1  0
 11 23  2  0
 12 13  2  0
 12 14  2  0
 12 15  1  6
 16 15  1  6
 16 17  1  0
 16 22  1  0
 17 18  1  0
 18 19  1  0
 19 20  1  1
 19 21  1  0
 21 22  1  0
 23 24  1  0
 24 25  1  0
 25 26  1  0
 26 27  1  0
M  END
