
     RDKit          3D

 27 29  0  0  0  0  0  0  0  0999 V2000
    8.8200    0.8320   -0.1540 C   0  0  0  0  0  0  0  0  0  0  0  0
    7.8410   -0.3160   -0.3230 C   0  0  0  0  0  0  0  0  0  0  0  0
    6.4390    0.1680   -0.0810 C   0  0  0  0  0  0  0  0  0  0  0  0
    5.4580   -0.8010    0.1110 C   0  0  0  0  0  0  0  0  0  0  0  0
    4.1400   -0.3560    0.2960 C   0  0  0  0  0  0  0  0  0  0  0  0
    3.0300   -1.0820    0.4260 N   0  0  0  0  0  0  0  0  0  0  0  0
    1.9520   -0.7710    0.5220 C   0  0  0  0  0  0  0  0  0  0  0  0
    0.5890   -1.2040    0.7940 N   0  0  0  0  0  0  0  0  0  0  0  0
   -0.4120   -0.4290    0.0920 C   0  0  0  0  0  0  0  0  0  0  0  0
    0.0470    0.4710   -0.6930 O   0  0  0  0  0  0  0  0  0  0  0  0
   -1.8490   -0.5720    0.1540 C   0  0  0  0  0  0  0  0  0  0  0  0
   -2.5120   -1.7590    0.2070 C   0  0  0  0  0  0  0  0  0  0  0  0
   -3.8640   -1.8380    0.1310 C   0  0  0  0  0  0  0  0  0  0  0  0
   -4.5860   -3.1320    0.1230 C   0  0  0  0  0  0  0  0  0  0  0  0
   -4.5800   -0.6420   -0.0210 C   0  0  0  0  0  0  0  0  0  0  0  0
   -6.0370   -0.7840   -0.0990 C   0  0  0  0  0  0  0  0  0  0  0  0
   -6.5330   -0.1040   -1.7390 S   0  0  0  0  0  0  0  0  0  0  0  0
   -5.2520    0.4150   -2.4490 O   0  0  0  0  0  0  0  0  0  0  0  0
   -3.9610    0.5900   -0.0730 C   0  0  0  0  0  0  0  0  0  0  0  0
   -4.7100    1.8550   -0.0210 C   0  0  0  0  0  0  0  0  0  0  0  0
   -3.7490    3.0140    0.3400 C   0  0  0  0  0  0  0  0  0  0  0  0
   -2.5650    0.6130    0.0250 C   0  0  0  0  0  0  0  0  0  0  0  0
    2.2020    1.1740    0.4580 S   0  0  0  0  0  0  0  0  0  0  0  0
    3.9390    0.9900    0.2770 C   0  0  0  0  0  0  0  0  0  0  0  0
    5.0280    1.9270    0.0830 C   0  0  0  0  0  0  0  0  0  0  0  0
    4.7440    3.1310    0.0990 O   0  0  0  0  0  0  0  0  0  0  0  0
    6.2380    1.4470   -0.0890 O   0  0  0  0  0  0  0  0  0  0  0  0
  1  2  1  0
  2  3  1  0
  3  4  2  0
  3 27  1  0
  4  5  1  0
  5  6  1  0
  5 24  2  0
  6  7  2  0
  7  8  1  0
  7 23  1  0
  8  9  1  0
  9 10  2  0
  9 11  1  0
 11 12  2  0
 11 22  1  0
 12 13  1  0
 13 14  1  0
 13 15  2  0
 15 16  1  0
 15 19  1  0
 16 17  1  0
 17 18  2  0
 19 20  1  0
 19 22  2  0
 20 21  1  0
 23 24  1  0
 24 25  1  0
 25 26  2  0
 25 27  1  0
M  END
