
     RDKit          3D

 27 29  0  0  0  0  0  0  0  0999 V2000
   -7.7280    0.1420    0.7020 C   0  0  0  0  0  0  0  0  0  0  0  0
   -6.2340   -0.0020    0.4710 C   0  0  0  0  0  0  0  0  0  0  0  0
   -5.7250   -1.0310    0.9250 O   0  0  0  0  0  0  0  0  0  0  0  0
   -5.5680    0.9920   -0.2070 N   0  0  0  0  0  0  0  0  0  0  0  0
   -6.4200    2.1360   -0.6510 C   0  0  0  0  0  0  0  0  0  0  0  0
   -4.2350    1.0820   -0.5320 C   0  0  0  0  0  0  0  0  0  0  0  0
   -3.8950    2.1550   -1.1860 O   0  0  0  0  0  0  0  0  0  0  0  0
   -3.1290    0.1920   -0.2790 C   0  0  0  0  0  0  0  0  0  0  0  0
   -3.1910   -1.3600    0.5760 S   0  0  0  0  0  0  0  0  0  0  0  0
   -1.4800   -1.7480    0.4320 C   0  0  0  0  0  0  0  0  0  0  0  0
   -0.8100   -2.9760    0.9600 C   0  0  0  0  0  0  0  0  0  0  0  0
   -0.9400   -0.6560   -0.2730 C   0  0  0  0  0  0  0  0  0  0  0  0
    0.5270   -0.6870   -0.5660 C   0  0  0  0  0  0  0  0  0  0  0  0
    1.1710   -1.6960   -0.1490 O   0  0  0  0  0  0  0  0  0  0  0  0
    1.2780    0.3270   -1.2790 C   0  0  0  0  0  0  0  0  0  0  0  0
    2.7570   -0.1090   -1.3420 C   0  0  0  0  0  0  0  0  0  0  0  0
    3.1660   -0.8960   -2.4150 C   0  0  0  0  0  0  0  0  0  0  0  0
    4.9180   -1.1270   -2.0300 S   0  0  0  0  0  0  0  0  0  0  0  0
    4.8340   -0.1270   -0.4770 C   0  0  0  0  0  0  0  0  0  0  0  0
    6.0470    0.0590    0.3400 C   0  0  0  0  0  0  0  0  0  0  0  0
    7.2530   -0.3830    0.1550 C   0  0  0  0  0  0  0  0  0  0  0  0
    8.1100    0.0740    1.2500 C   0  0  0  0  0  0  0  0  0  0  0  0
    7.2180    0.8620    2.1180 C   0  0  0  0  0  0  0  0  0  0  0  0
    6.0170    0.8380    1.5650 C   0  0  0  0  0  0  0  0  0  0  0  0
    3.6630    0.1920   -0.4730 N   0  0  0  0  0  0  0  0  0  0  0  0
   -1.8000    0.3160   -0.6230 C   0  0  0  0  0  0  0  0  0  0  0  0
   -1.4560    1.4930   -1.3320 O   0  0  0  0  0  0  0  0  0  0  0  0
  1  2  1  0
  2  3  2  0
  2  4  1  0
  4  5  1  0
  4  6  1  0
  6  7  2  0
  6  8  1  0
  8  9  1  0
  8 26  2  0
  9 10  1  0
 10 11  1  0
 10 12  2  0
 12 13  1  0
 12 26  1  0
 13 14  2  0
 13 15  1  0
 15 16  1  0
 16 17  2  0
 16 25  1  0
 17 18  1  0
 18 19  1  0
 19 20  1  0
 19 25  2  0
 20 21  2  0
 20 24  1  0
 21 22  1  0
 22 23  1  0
 23 24  2  0
 26 27  1  0
M  END
