
     RDKit          3D

 16 16  0  0  0  0  0  0  0  0999 V2000
    3.2490   -1.8010    0.3440 N   0  0  0  0  0  0  0  0  0  0  0  0
    1.8810   -1.3200    0.2770 C   0  0  0  0  0  0  0  0  0  0  0  0
    0.9810   -1.7260    1.1650 C   0  0  0  0  0  0  0  0  0  0  0  0
   -0.2780   -1.2790    1.0950 O   0  0  0  0  0  0  0  0  0  0  0  0
   -1.4740   -1.5920    0.5410 C   0  0  0  0  0  0  0  0  0  0  0  0
   -2.0280   -0.6900   -0.5260 C   0  0  2  0  0  0  0  0  0  0  0  0
   -1.4550   -0.8840   -1.7720 O   0  0  0  0  0  0  0  0  0  0  0  0
   -2.0250    0.7370   -0.0670 C   0  0  0  0  0  0  0  0  0  0  0  0
   -1.5640    1.6150   -1.0420 O   0  0  0  0  0  0  0  0  0  0  0  0
   -1.1480    2.7290   -0.4050 N   0  0  0  0  0  0  0  0  0  0  0  0
    0.1920    2.9030    0.0310 C   0  0  0  0  0  0  0  0  0  0  0  0
    0.5820    4.1140    0.1500 O   0  0  0  0  0  0  0  0  0  0  0  0
    1.0930    1.7600    0.3350 C   0  0  0  0  0  0  0  0  0  0  0  0
    0.8990    0.7980   -0.6720 O   0  0  0  0  0  0  0  0  0  0  0  0
    1.6050   -0.3820   -0.8080 C   0  0  0  0  0  0  0  0  0  0  0  0
    2.0430   -0.6570   -1.9860 O   0  0  0  0  0  0  0  0  0  0  0  0
  1  2  1  0
  2  3  2  0
  2 15  1  0
  3  4  1  0
  4  5  1  0
  5  6  1  0
  6  7  1  6
  6  8  1  0
  8  9  1  0
  9 10  1  0
 10 11  1  0
 11 12  2  0
 11 13  1  0
 13 14  1  0
 14 15  1  0
 15 16  2  0
M  END
