
     RDKit          3D

 14 15  0  0  0  0  0  0  0  0999 V2000
   -3.2840    0.2540    1.1840 C   0  0  0  0  0  0  0  0  0  0  0  0
   -2.7350    0.9830   -0.0430 C   0  0  0  0  0  0  0  0  0  0  0  0
   -1.5660    0.2070   -0.4700 N   0  0  0  0  0  0  0  0  0  0  0  0
   -0.3600    0.5010    0.0240 N   0  0  0  0  0  0  0  0  0  0  0  0
    0.7290   -0.1930   -0.3490 C   0  0  0  0  0  0  0  0  0  0  0  0
    2.0770   -0.1590   -0.0480 C   0  0  0  0  0  0  0  0  0  0  0  0
    2.6810    0.7510    0.8500 N   0  0  0  0  0  0  0  0  0  0  0  0
    4.1100    0.7050    1.0990 C   0  0  0  0  0  0  0  0  0  0  0  0
    2.7160   -1.1360   -0.7540 N   0  0  0  0  0  0  0  0  0  0  0  0
    1.8060   -1.7660   -1.4750 N   0  0  0  0  0  0  0  0  0  0  0  0
    0.5840   -1.2780   -1.3050 C   0  0  0  0  0  0  0  0  0  0  0  0
   -0.6580   -1.5270   -1.7680 N   0  0  0  0  0  0  0  0  0  0  0  0
   -1.7230   -0.7940   -1.3560 C   0  0  0  0  0  0  0  0  0  0  0  0
   -2.8760   -1.0750   -1.8280 O   0  0  0  0  0  0  0  0  0  0  0  0
  1  2  1  0
  2  3  1  0
  3  4  1  0
  3 13  1  0
  4  5  2  0
  5  6  1  0
  5 11  1  0
  6  7  1  0
  6  9  2  0
  7  8  1  0
  9 10  1  0
 10 11  2  0
 11 12  1  0
 12 13  1  0
 13 14  2  0
M  END
