
     RDKit          3D

 16 16  0  0  0  0  0  0  0  0999 V2000
   -0.3310   -0.7240   -1.8250 N   0  0  0  0  0  0  0  0  0  0  0  0
   -0.5650   -0.6870   -0.3840 C   0  0  1  0  0  0  0  0  0  0  0  0
    0.4650    0.1460    0.3260 C   0  0  0  0  0  0  0  0  0  0  0  0
    1.8420   -0.3580    0.1330 C   0  0  0  0  0  0  0  0  0  0  0  0
    2.0230   -1.3840   -0.5680 O   0  0  0  0  0  0  0  0  0  0  0  0
    2.9690    0.2580    0.7010 N   0  0  0  0  0  0  0  0  0  0  0  0
    4.3010   -0.2100    0.5300 C   0  0  0  0  0  0  0  0  0  0  0  0
    4.5180   -1.2320   -0.1650 O   0  0  0  0  0  0  0  0  0  0  0  0
    5.3430    0.4760    1.1370 O   0  0  0  0  0  0  0  0  0  0  0  0
    6.6220    0.0910    1.0170 O   0  0  0  0  0  0  0  0  0  0  0  0
   -1.9570   -0.2550   -0.1760 C   0  0  1  0  0  0  0  0  0  0  0  0
   -2.8130   -1.1630   -0.7920 O   0  0  0  0  0  0  0  0  0  0  0  0
   -2.4130   -0.1100    1.2470 C   0  0  0  0  0  0  0  0  0  0  0  0
   -3.6870    0.7190    1.0270 C   0  0  0  0  0  0  0  0  0  0  0  0
   -3.6050    1.2530   -0.2310 O   0  0  0  0  0  0  0  0  0  0  0  0
   -2.2980    1.1120   -0.7010 C   0  0  0  0  0  0  0  0  0  0  0  0
  2  1  1  6
  2  3  1  0
  2 11  1  0
  3  4  1  0
  4  5  2  0
  4  6  1  0
  6  7  1  0
  7  8  2  0
  7  9  1  0
  9 10  1  0
 11 12  1  6
 11 13  1  0
 11 16  1  0
 13 14  1  0
 14 15  1  0
 15 16  1  0
M  END
