
     RDKit          3D

 16 16  0  0  0  0  0  0  0  0999 V2000
   -3.1230    2.2750   -0.1960 N   0  0  0  0  0  0  0  0  0  0  0  0
   -1.7670    1.8590   -0.2570 C   0  0  0  0  0  0  0  0  0  0  0  0
   -1.0730    2.3000   -1.1950 O   0  0  0  0  0  0  0  0  0  0  0  0
   -1.2340    0.9200    0.7950 C   0  0  2  0  0  0  0  0  0  0  0  0
    0.0970    0.6810    0.5090 O   0  0  0  0  0  0  0  0  0  0  0  0
    0.8600   -0.3610    0.0740 C   0  0  0  0  0  0  0  0  0  0  0  0
    2.1680    0.0210   -0.4500 C   0  0  0  0  0  0  0  0  0  0  0  0
    2.9910   -1.0110   -0.9120 O   0  0  0  0  0  0  0  0  0  0  0  0
    2.5810    1.2620   -0.5000 C   0  0  0  0  0  0  0  0  0  0  0  0
    1.8010    2.3170   -0.0540 O   0  0  0  0  0  0  0  0  0  0  0  0
    0.5380   -1.6410    0.0820 C   0  0  0  0  0  0  0  0  0  0  0  0
    1.5380   -2.5250   -0.4400 N   0  0  0  0  0  0  0  0  0  0  0  0
   -0.6860   -2.3090    0.5450 C   0  0  0  0  0  0  0  0  0  0  0  0
   -1.8350   -1.5370    0.5850 O   0  0  0  0  0  0  0  0  0  0  0  0
   -2.1150   -0.2260    0.8210 C   0  0  0  0  0  0  0  0  0  0  0  0
   -3.3080    0.0190    1.1030 O   0  0  0  0  0  0  0  0  0  0  0  0
  1  2  1  0
  2  3  2  0
  4  2  1  6
  4  5  1  0
  4 15  1  0
  5  6  1  0
  6  7  1  0
  6 11  2  0
  7  8  1  0
  7  9  2  3
  9 10  1  0
 11 12  1  0
 11 13  1  0
 13 14  1  0
 14 15  1  0
 15 16  2  0
M  END
