
     RDKit          3D

 29 31  0  0  0  0  0  0  0  0999 V2000
    5.0680   -2.9030   -0.5500 C   0  0  0  0  0  0  0  0  0  0  0  0
    6.3550   -2.5100   -0.9030 O   0  0  0  0  0  0  0  0  0  0  0  0
    6.7960   -1.4360   -0.1440 C   0  0  0  0  0  0  0  0  0  0  0  0
    5.9300   -0.2060   -0.2840 C   0  0  0  0  0  0  0  0  0  0  0  0
    5.9360    0.1890   -1.6720 N   0  0  0  0  0  0  0  0  0  0  0  0
    4.9670    1.5960   -1.9370 S   0  0  1  0  0  0  0  0  0  0  0  0
    5.5020    2.7870   -1.1890 O   0  0  0  0  0  0  0  0  0  0  0  0
    5.0940    1.9310   -3.4090 O   0  0  0  0  0  0  0  0  0  0  0  0
    3.2960    1.2980   -1.5180 C   0  0  0  0  0  0  0  0  0  0  0  0
    2.3810    0.8240   -2.4290 C   0  0  0  0  0  0  0  0  0  0  0  0
    1.0680    0.5900   -2.0980 C   0  0  0  0  0  0  0  0  0  0  0  0
    0.5800    0.8220   -0.8040 C   0  0  0  0  0  0  0  0  0  0  0  0
   -0.7820    0.5650   -0.5180 N   0  0  0  0  0  0  0  0  0  0  0  0
   -1.4410    0.7290    0.7050 C   0  0  0  0  0  0  0  0  0  0  0  0
   -0.9170    1.1650    1.8550 N   0  0  0  0  0  0  0  0  0  0  0  0
   -1.5750    1.3110    3.0080 C   0  0  0  0  0  0  0  0  0  0  0  0
   -2.9180    0.9870    3.0280 C   0  0  0  0  0  0  0  0  0  0  0  0
   -3.5030    0.5330    1.8650 C   0  0  0  0  0  0  0  0  0  0  0  0
   -4.9220    0.2000    1.9140 C   0  0  0  0  0  0  0  0  0  0  0  0
   -5.9660    0.3270    3.3330 S   0  0  0  0  0  0  0  0  0  0  0  0
   -7.4490   -0.2580    2.5010 C   0  0  0  0  0  0  0  0  0  0  0  0
   -8.6100   -0.4020    3.0140 O   0  0  0  0  0  0  0  0  0  0  0  0
   -7.0150   -0.4940    1.2290 N   0  0  0  0  0  0  0  0  0  0  0  0
   -7.9850   -1.0060    0.1860 C   0  0  0  0  0  0  0  0  0  0  0  0
   -5.7580   -0.2640    0.9480 C   0  0  0  0  0  0  0  0  0  0  0  0
   -5.1320   -0.4910   -0.4480 C   0  0  0  0  0  0  0  0  0  0  0  0
   -2.7720    0.4200    0.7680 N   0  0  0  0  0  0  0  0  0  0  0  0
    1.4980    1.2960    0.1040 C   0  0  0  0  0  0  0  0  0  0  0  0
    2.8360    1.5310   -0.2450 C   0  0  0  0  0  0  0  0  0  0  0  0
  1  2  1  0
  2  3  1  0
  3  4  1  0
  4  5  1  0
  6  5  1  6
  6  7  2  0
  6  8  2  0
  6  9  1  0
  9 10  2  0
  9 29  1  0
 10 11  1  0
 11 12  2  0
 12 13  1  0
 12 28  1  0
 13 14  1  0
 14 15  2  0
 14 27  1  0
 15 16  1  0
 16 17  2  0
 17 18  1  0
 18 19  1  0
 18 27  2  0
 19 20  1  0
 19 25  2  0
 20 21  1  0
 21 22  2  0
 21 23  1  0
 23 24  1  0
 23 25  1  0
 25 26  1  0
 28 29  2  0
M  END
