
     RDKit          3D

 30 33  0  0  0  0  0  0  0  0999 V2000
   -5.5290   -0.4280    1.3920 C   0  0  0  0  0  0  0  0  0  0  0  0
   -5.3640   -1.0950    0.0220 C   0  0  2  0  0  0  0  0  0  0  0  0
   -6.6780   -0.9870   -0.7590 C   0  0  0  0  0  0  0  0  0  0  0  0
   -7.7610   -1.6270   -0.0800 N   0  0  0  0  0  0  0  0  0  0  0  0
   -5.0720   -2.5400    0.2000 C   0  0  0  0  0  0  0  0  0  0  0  0
   -3.6340   -2.8940    0.3870 C   0  0  0  0  0  0  0  0  0  0  0  0
   -2.8740   -2.2910   -0.8080 C   0  0  0  0  0  0  0  0  0  0  0  0
   -3.0150   -0.8770   -0.6520 N   0  0  0  0  0  0  0  0  0  0  0  0
   -1.9200   -0.0180   -0.4260 C   0  0  0  0  0  0  0  0  0  0  0  0
   -0.6060   -0.4260   -0.3420 C   0  0  0  0  0  0  0  0  0  0  0  0
    0.4640    0.4120   -0.1200 C   0  0  0  0  0  0  0  0  0  0  0  0
    1.7670   -0.0340   -0.0430 C   0  0  0  0  0  0  0  0  0  0  0  0
    2.0930   -1.7740   -0.2410 S   0  0  0  0  0  0  0  0  0  0  0  0
    2.3570   -2.0460   -2.0320 C   0  0  0  0  0  0  0  0  0  0  0  0
    2.6390   -3.4360   -2.3430 C   0  0  0  0  0  0  0  0  0  0  0  0
    2.8760   -4.5230   -2.5750 N   0  0  0  0  0  0  0  0  0  0  0  0
    2.7320    0.8740    0.1770 N   0  0  0  0  0  0  0  0  0  0  0  0
    2.4800    2.1870    0.3240 C   0  0  0  0  0  0  0  0  0  0  0  0
    3.5030    3.1460    0.5570 N   0  0  0  0  0  0  0  0  0  0  0  0
    4.8960    2.8040    0.6580 C   0  0  2  0  0  0  0  0  0  0  0  0
    5.4280    2.1510   -0.6210 C   0  0  0  0  0  0  0  0  0  0  0  0
    6.9240    2.4170   -0.6290 C   0  0  0  0  0  0  0  0  0  0  0  0
    7.4300    2.4030    0.7770 C   0  0  0  0  0  0  0  0  0  0  0  0
    6.6640    1.4870    1.6950 C   0  0  0  0  0  0  0  0  0  0  0  0
    5.1910    1.8270    1.7730 C   0  0  0  0  0  0  0  0  0  0  0  0
    1.2030    2.5950    0.2440 N   0  0  0  0  0  0  0  0  0  0  0  0
    0.1640    1.7710    0.0270 C   0  0  0  0  0  0  0  0  0  0  0  0
   -1.1170    2.1580   -0.0560 N   0  0  0  0  0  0  0  0  0  0  0  0
   -2.1150    1.3270   -0.2700 N   0  0  0  0  0  0  0  0  0  0  0  0
   -4.3400   -0.3160   -0.7320 C   0  0  0  0  0  0  0  0  0  0  0  0
  2  1  1  1
  2  3  1  0
  2  5  1  0
  2 30  1  0
  3  4  1  0
  5  6  1  0
  6  7  1  0
  7  8  1  0
  8  9  1  0
  8 30  1  0
  9 10  2  0
  9 29  1  0
 10 11  1  0
 11 12  2  0
 11 27  1  0
 12 13  1  0
 12 17  1  0
 13 14  1  0
 14 15  1  0
 15 16  3  0
 17 18  2  0
 18 19  1  0
 18 26  1  0
 20 19  1  6
 20 21  1  0
 20 25  1  0
 21 22  1  0
 22 23  1  0
 23 24  1  0
 24 25  1  0
 26 27  2  0
 27 28  1  0
 28 29  2  0
M  CHG  1   4   1
M  END
