
     RDKit          3D

 18 19  0  0  0  0  0  0  0  0999 V2000
   -3.4630    2.5180   -0.6290 C   0  0  0  0  0  0  0  0  0  0  0  0
   -2.7650    1.3140   -0.0660 C   0  0  0  0  0  0  0  0  0  0  0  0
   -3.3920    0.0870   -0.0240 C   0  0  0  0  0  0  0  0  0  0  0  0
   -2.7540   -1.0190    0.4910 C   0  0  0  0  0  0  0  0  0  0  0  0
   -3.4260   -2.3330    0.5360 C   0  0  0  0  0  0  0  0  0  0  0  0
   -1.4700   -0.9040    0.9740 C   0  0  0  0  0  0  0  0  0  0  0  0
   -0.7880    0.3160    0.9560 C   0  0  0  0  0  0  0  0  0  0  0  0
    0.5040    0.3980    1.4510 O   0  0  0  0  0  0  0  0  0  0  0  0
    1.6560    0.0750    0.7630 C   0  0  0  0  0  0  0  0  0  0  0  0
    2.4320   -0.9370    1.3220 C   0  0  0  0  0  0  0  0  0  0  0  0
    3.5960   -1.3150    0.6960 C   0  0  0  0  0  0  0  0  0  0  0  0
    4.0440   -0.7320   -0.4820 C   0  0  0  0  0  0  0  0  0  0  0  0
    5.2830   -1.1640   -1.1100 C   0  0  0  0  0  0  0  0  0  0  0  0
    5.9600   -2.0770   -0.5850 O   0  0  0  0  0  0  0  0  0  0  0  0
    3.2450    0.2600   -0.9920 C   0  0  0  0  0  0  0  0  0  0  0  0
    2.0620    0.6830   -0.4050 C   0  0  0  0  0  0  0  0  0  0  0  0
    1.2750    1.7200   -0.9840 N   0  0  0  0  0  0  0  0  0  0  0  0
   -1.4770    1.3860    0.4290 C   0  0  0  0  0  0  0  0  0  0  0  0
  1  2  1  0
  2  3  2  0
  2 18  1  0
  3  4  1  0
  4  5  1  0
  4  6  2  0
  6  7  1  0
  7  8  1  0
  7 18  2  0
  8  9  1  0
  9 10  2  0
  9 16  1  0
 10 11  1  0
 11 12  2  0
 12 13  1  0
 12 15  1  0
 13 14  2  0
 15 16  2  0
 16 17  1  0
M  END
