
     RDKit          3D

 18 19  0  0  0  0  0  0  0  0999 V2000
   -3.1940    0.9050   -1.2700 C   0  0  0  0  0  0  0  0  0  0  0  0
   -2.4870    0.2190   -0.1810 C   0  0  0  0  0  0  0  0  0  0  0  0
   -3.0560   -0.4860    0.7200 C   0  0  0  0  0  0  0  0  0  0  0  0
   -4.3350   -0.8800    1.0630 N   0  0  0  0  0  0  0  0  0  0  0  0
   -5.5920   -0.6470    0.5340 C   0  0  0  0  0  0  0  0  0  0  0  0
   -5.7950    0.0440   -0.4520 O   0  0  0  0  0  0  0  0  0  0  0  0
   -0.9990    0.3210   -0.1940 C   0  0  0  0  0  0  0  0  0  0  0  0
   -0.4120    1.2870   -0.9620 C   0  0  0  0  0  0  0  0  0  0  0  0
    0.9890    1.3310   -1.0090 C   0  0  0  0  0  0  0  0  0  0  0  0
    1.5870    2.3040   -1.7850 O   0  0  0  0  0  0  0  0  0  0  0  0
    1.7870    0.4500   -0.3180 C   0  0  0  0  0  0  0  0  0  0  0  0
    3.1650    0.4900   -0.3610 C   0  0  0  0  0  0  0  0  0  0  0  0
    3.9410   -0.4130    0.3480 C   0  0  0  0  0  0  0  0  0  0  0  0
    5.4330   -0.3650    0.2980 C   0  0  0  0  0  0  0  0  0  0  0  0
    3.3550   -1.3910    1.1270 C   0  0  0  0  0  0  0  0  0  0  0  0
    1.9650   -1.4260    1.1650 C   0  0  0  0  0  0  0  0  0  0  0  0
    1.2010   -0.5240    0.4580 C   0  0  0  0  0  0  0  0  0  0  0  0
   -0.1970   -0.5600    0.4970 C   0  0  0  0  0  0  0  0  0  0  0  0
  1  2  1  0
  2  3  2  3
  2  7  1  0
  3  4  1  0
  4  5  1  0
  5  6  2  0
  7  8  2  0
  7 18  1  0
  8  9  1  0
  9 10  1  0
  9 11  2  0
 11 12  1  0
 11 17  1  0
 12 13  2  0
 13 14  1  0
 13 15  1  0
 15 16  2  0
 16 17  1  0
 17 18  2  0
M  END
