
     RDKit          3D

 17 18  0  0  0  0  0  0  0  0999 V2000
   -2.6130   -3.0360   -0.7770 C   0  0  0  0  0  0  0  0  0  0  0  0
   -3.2290   -1.7320   -0.3630 C   0  0  0  0  0  0  0  0  0  0  0  0
   -2.1640   -0.6650   -0.0820 C   0  0  0  0  0  0  0  0  0  0  0  0
   -0.9490   -0.9870   -0.2680 C   0  0  0  0  0  0  0  0  0  0  0  0
    0.2650   -0.2470   -0.1120 C   0  0  0  0  0  0  0  0  0  0  0  0
    1.4530   -0.8260   -0.3630 C   0  0  0  0  0  0  0  0  0  0  0  0
    2.6760   -0.0780   -0.2050 C   0  0  0  0  0  0  0  0  0  0  0  0
    2.7840    1.2270    0.1920 C   0  0  0  0  0  0  0  0  0  0  0  0
    4.1270    1.5260    0.2040 C   0  0  0  0  0  0  0  0  0  0  0  0
    4.8030    0.3760   -0.1930 C   0  0  0  0  0  0  0  0  0  0  0  0
    6.2880    0.2830   -0.3110 C   0  0  0  0  0  0  0  0  0  0  0  0
    3.9040   -0.5390   -0.4220 O   0  0  0  0  0  0  0  0  0  0  0  0
   -2.6740    0.5730    0.4670 C   0  0  0  0  0  0  0  0  0  0  0  0
   -2.0400    1.5780    1.0980 C   0  0  0  0  0  0  0  0  0  0  0  0
   -3.0010    2.5630    1.3710 C   0  0  0  0  0  0  0  0  0  0  0  0
   -4.1680    2.1550    0.9170 N   0  0  0  0  0  0  0  0  0  0  0  0
   -4.0170    0.9530    0.3610 C   0  0  0  0  0  0  0  0  0  0  0  0
  1  2  1  0
  2  3  1  0
  3  4  2  3
  3 13  1  0
  4  5  1  0
  5  6  2  3
  6  7  1  0
  7  8  2  0
  7 12  1  0
  8  9  1  0
  9 10  2  0
 10 11  1  0
 10 12  1  0
 13 14  1  0
 13 17  2  0
 14 15  2  0
 15 16  1  0
 16 17  1  0
M  END
