
     RDKit          3D

 18 19  0  0  0  0  0  0  0  0999 V2000
    4.4490    0.5170    0.1100 C   0  0  0  0  0  0  0  0  0  0  0  0
    3.0930    0.1680    0.5670 C   0  0  0  0  0  0  0  0  0  0  0  0
    2.9330   -0.2980    1.8540 C   0  0  0  0  0  0  0  0  0  0  0  0
    1.7110   -0.6420    2.3480 C   0  0  0  0  0  0  0  0  0  0  0  0
    0.5830   -0.5180    1.5260 C   0  0  0  0  0  0  0  0  0  0  0  0
    0.6990   -0.0580    0.2470 C   0  0  0  0  0  0  0  0  0  0  0  0
   -0.4050    0.0110   -0.6110 N   0  0  0  0  0  0  0  0  0  0  0  0
   -1.7750    0.0300   -0.2970 C   0  0  0  0  0  0  0  0  0  0  0  0
   -2.2230    0.5600    0.9120 C   0  0  0  0  0  0  0  0  0  0  0  0
   -3.5550    0.7090    1.2440 C   0  0  0  0  0  0  0  0  0  0  0  0
   -4.5110    0.3160    0.3390 C   0  0  0  0  0  0  0  0  0  0  0  0
   -4.0970   -0.2080   -0.8580 C   0  0  0  0  0  0  0  0  0  0  0  0
   -2.7340   -0.3600   -1.1940 C   0  0  0  0  0  0  0  0  0  0  0  0
   -2.4640   -0.9810   -2.4790 C   0  0  0  0  0  0  0  0  0  0  0  0
   -3.4070   -1.3040   -3.2660 O   0  0  0  0  0  0  0  0  0  0  0  0
   -1.1930   -1.2550   -2.9140 O   0  0  0  0  0  0  0  0  0  0  0  0
    1.9670    0.2720   -0.1930 C   0  0  0  0  0  0  0  0  0  0  0  0
    2.1030    0.7720   -1.5820 C   0  0  0  0  0  0  0  0  0  0  0  0
  1  2  1  0
  2  3  2  0
  2 17  1  0
  3  4  1  0
  4  5  2  0
  5  6  1  0
  6  7  1  0
  6 17  2  0
  7  8  1  0
  8  9  2  0
  8 13  1  0
  9 10  1  0
 10 11  2  0
 11 12  1  0
 12 13  2  0
 13 14  1  0
 14 15  2  0
 14 16  1  0
 17 18  1  0
M  END
