
     RDKit          3D

 18 19  0  0  0  0  0  0  0  0999 V2000
   -1.6340   -2.9380   -0.2750 C   0  0  0  0  0  0  0  0  0  0  0  0
   -2.5030   -1.7100   -0.3070 C   0  0  0  0  0  0  0  0  0  0  0  0
   -3.7680   -1.7700   -0.3380 N   0  0  0  0  0  0  0  0  0  0  0  0
   -4.6720   -0.6710   -0.3700 C   0  0  0  0  0  0  0  0  0  0  0  0
   -3.9660    0.6390   -0.3640 C   0  0  0  0  0  0  0  0  0  0  0  0
   -4.6580    1.7580   -0.3910 C   0  0  0  0  0  0  0  0  0  0  0  0
   -4.0250    2.9800   -0.3860 O   0  0  0  0  0  0  0  0  0  0  0  0
   -2.5090    0.6830   -0.3280 C   0  0  0  0  0  0  0  0  0  0  0  0
   -1.8060   -0.4340   -0.3010 C   0  0  0  0  0  0  0  0  0  0  0  0
   -0.3950   -0.3830   -0.2670 O   0  0  0  0  0  0  0  0  0  0  0  0
    0.2350    0.8670   -0.1050 C   0  0  0  0  0  0  0  0  0  0  0  0
    1.7100    0.6150   -0.1060 C   0  0  0  0  0  0  0  0  0  0  0  0
    2.6290    1.6490    0.0360 C   0  0  0  0  0  0  0  0  0  0  0  0
    3.9880    1.4210    0.0370 C   0  0  0  0  0  0  0  0  0  0  0  0
    4.4540    0.1290   -0.1080 C   0  0  0  0  0  0  0  0  0  0  0  0
    5.9000   -0.1720   -0.1150 C   0  0  0  0  0  0  0  0  0  0  0  0
    3.5800   -0.9240   -0.2510 C   0  0  0  0  0  0  0  0  0  0  0  0
    2.2430   -0.6520   -0.2460 C   0  0  0  0  0  0  0  0  0  0  0  0
  1  2  1  0
  2  3  2  0
  2  9  1  0
  3  4  1  0
  4  5  1  0
  5  6  2  3
  5  8  1  0
  6  7  1  0
  8  9  2  0
  9 10  1  0
 10 11  1  0
 11 12  1  0
 12 13  2  0
 12 18  1  0
 13 14  1  0
 14 15  2  0
 15 16  1  0
 15 17  1  0
 17 18  2  0
M  END
