
     RDKit          3D

 18 19  0  0  0  0  0  0  0  0999 V2000
   -2.3050   -1.7740    1.1340 C   0  0  0  0  0  0  0  0  0  0  0  0
   -2.3020   -1.4090   -0.2340 O   0  0  0  0  0  0  0  0  0  0  0  0
   -2.4760   -0.0670   -0.5260 C   0  0  0  0  0  0  0  0  0  0  0  0
   -3.7360    0.3920   -0.7070 C   0  0  0  0  0  0  0  0  0  0  0  0
   -4.9100   -0.5050   -0.6000 C   0  0  0  0  0  0  0  0  0  0  0  0
   -3.9170    1.7210   -0.9970 C   0  0  0  0  0  0  0  0  0  0  0  0
   -2.8450    2.5690   -1.1010 C   0  0  0  0  0  0  0  0  0  0  0  0
   -1.5610    2.0510   -0.9060 C   0  0  0  0  0  0  0  0  0  0  0  0
   -1.3140    0.7240   -0.6120 C   0  0  0  0  0  0  0  0  0  0  0  0
   -0.1590    0.1110   -0.4050 O   0  0  0  0  0  0  0  0  0  0  0  0
    1.1400    0.1930   -0.3340 C   0  0  0  0  0  0  0  0  0  0  0  0
    1.8840    1.3280   -0.5210 C   0  0  0  0  0  0  0  0  0  0  0  0
    3.2640    1.2550   -0.4120 C   0  0  0  0  0  0  0  0  0  0  0  0
    3.9250    0.1010   -0.1260 C   0  0  0  0  0  0  0  0  0  0  0  0
    5.3970    0.0010   -0.0050 C   0  0  0  0  0  0  0  0  0  0  0  0
    3.2020   -1.0660    0.0680 C   0  0  0  0  0  0  0  0  0  0  0  0
    3.8710   -2.2850    0.3680 N   0  0  0  0  0  0  0  0  0  0  0  0
    1.8510   -0.9910   -0.0390 C   0  0  0  0  0  0  0  0  0  0  0  0
  1  2  1  0
  2  3  1  0
  3  4  2  0
  3  9  1  0
  4  5  1  0
  4  6  1  0
  6  7  2  0
  7  8  1  0
  8  9  2  0
  9 10  1  0
 10 11  1  0
 11 12  2  0
 11 18  1  0
 12 13  1  0
 13 14  2  0
 14 15  1  0
 14 16  1  0
 16 17  1  0
 16 18  2  0
M  END
