
     RDKit          3D

 18 19  0  0  0  0  0  0  0  0999 V2000
    4.0630   -0.4570   -0.9140 C   0  0  0  0  0  0  0  0  0  0  0  0
    3.2270   -1.1610    0.1280 C   0  0  0  0  0  0  0  0  0  0  0  0
    1.8900   -0.8310   -0.0450 O   0  0  0  0  0  0  0  0  0  0  0  0
    1.2950    0.4020    0.0080 C   0  0  0  0  0  0  0  0  0  0  0  0
    2.0190    1.5650    0.2490 C   0  0  0  0  0  0  0  0  0  0  0  0
    1.3850    2.7850    0.2900 C   0  0  0  0  0  0  0  0  0  0  0  0
    0.0110    2.8580    0.0930 C   0  0  0  0  0  0  0  0  0  0  0  0
   -0.6210    4.1310    0.1290 N   0  0  0  0  0  0  0  0  0  0  0  0
   -0.6940    1.6840   -0.1450 C   0  0  0  0  0  0  0  0  0  0  0  0
   -0.0840    0.4530   -0.1930 C   0  0  0  0  0  0  0  0  0  0  0  0
   -0.8510   -0.7570   -0.4660 C   0  0  0  0  0  0  0  0  0  0  0  0
   -0.5720   -1.6560   -1.4560 C   0  0  0  0  0  0  0  0  0  0  0  0
   -1.3300   -2.7770   -1.6980 C   0  0  0  0  0  0  0  0  0  0  0  0
   -2.4480   -3.0150   -0.8960 C   0  0  0  0  0  0  0  0  0  0  0  0
   -2.7680   -2.1300    0.1160 C   0  0  0  0  0  0  0  0  0  0  0  0
   -1.9820   -1.0190    0.3290 C   0  0  0  0  0  0  0  0  0  0  0  0
   -2.2660   -0.1260    1.3240 O   0  0  0  0  0  0  0  0  0  0  0  0
   -3.3300   -0.1920    2.2310 C   0  0  0  0  0  0  0  0  0  0  0  0
  1  2  1  0
  2  3  1  0
  3  4  1  0
  4  5  2  0
  4 10  1  0
  5  6  1  0
  6  7  2  0
  7  8  1  0
  7  9  1  0
  9 10  2  0
 10 11  1  0
 11 12  2  0
 11 16  1  0
 12 13  1  0
 13 14  2  0
 14 15  1  0
 15 16  2  0
 16 17  1  0
 17 18  1  0
M  END
