
     RDKit          3D

 13 12  0  0  0  0  0  0  0  0999 V2000
   -4.0580   -0.1880   -0.0730 N   0  0  0  0  0  0  0  0  0  0  0  0
   -2.6200   -0.2810   -0.0310 C   0  0  0  0  0  0  0  0  0  0  0  0
   -1.9830   -0.9650    1.3020 S   0  0  0  0  0  0  0  0  0  0  0  0
   -1.7740    0.2040   -1.1310 C   0  0  0  0  0  0  0  0  0  0  0  0
   -0.4330    0.0660   -0.7880 O   0  0  0  0  0  0  0  0  0  0  0  0
    0.1000    0.7290    0.2940 C   0  0  0  0  0  0  0  0  0  0  0  0
   -0.6170    1.4750    0.9910 O   0  0  0  0  0  0  0  0  0  0  0  0
    1.4860    0.5550    0.6130 C   0  0  0  0  0  0  0  0  0  0  0  0
    2.2440   -0.2270   -0.1170 C   0  0  0  0  0  0  0  0  0  0  0  0
    1.6460   -1.1120   -1.5160 Cl  0  0  0  0  0  0  0  0  0  0  0  0
    3.9550   -0.4520    0.2630 S   0  0  2  0  0  0  0  0  0  0  0  0
    4.0650   -0.3720    1.7710 O   0  0  0  0  0  0  0  0  0  0  0  0
    4.7770    0.6520   -0.3740 O   0  0  0  0  0  0  0  0  0  0  0  0
  1  2  1  0
  2  3  2  0
  2  4  1  0
  4  5  1  0
  5  6  1  0
  6  7  2  0
  6  8  1  0
  8  9  2  3
  9 10  1  0
 11  9  1  1
 11 12  2  0
 11 13  2  0
M  END
