
     RDKit          3D

 12 11  0  0  0  0  0  0  0  0999 V2000
    1.6070   -0.0390   -1.7300 O   0  0  0  0  0  0  0  0  0  0  0  0
    1.8740   -0.2550   -0.5360 C   0  0  0  0  0  0  0  0  0  0  0  0
    3.2570   -0.5250   -0.1180 C   0  0  0  0  0  0  0  0  0  0  0  0
    4.0900   -0.4890   -1.2100 O   0  0  0  0  0  0  0  0  0  0  0  0
    0.7850   -0.2300    0.4020 N   0  0  0  0  0  0  0  0  0  0  0  0
   -0.5290    0.0350   -0.0600 C   0  0  0  0  0  0  0  0  0  0  0  0
   -0.7370    0.2450   -1.2640 O   0  0  0  0  0  0  0  0  0  0  0  0
   -1.6220    0.0530    0.9330 C   0  0  0  0  0  0  0  0  0  0  0  0
   -1.2850   -0.2520    2.6550 S   0  0  0  0  0  0  0  0  0  0  0  0
   -2.8690    0.2950    0.5660 C   0  0  0  0  0  0  0  0  0  0  0  0
   -3.2780    0.6110   -1.1550 S   0  0  0  0  0  0  0  0  0  0  0  0
   -4.2610    2.0170   -1.2300 O   0  0  0  0  0  0  0  0  0  0  0  0
  1  2  2  0
  2  3  1  0
  2  5  1  0
  3  4  1  0
  5  6  1  0
  6  7  2  0
  6  8  1  0
  8  9  1  0
  8 10  2  3
 10 11  1  0
 11 12  1  0
M  END
