
     RDKit          3D

 23 25  0  0  0  0  0  0  0  0999 V2000
    8.2790    0.7480    0.8680 C   0  0  0  0  0  0  0  0  0  0  0  0
    7.0670    0.2120    0.0950 C   0  0  0  0  0  0  0  0  0  0  0  0
    5.7980    1.5010    0.1630 S   0  0  0  0  0  0  0  0  0  0  0  0
    4.3400    0.9330   -0.7300 C   0  0  0  0  0  0  0  0  0  0  0  0
    3.7250   -0.2560    0.0120 C   0  0  0  0  0  0  0  0  0  0  0  0
    2.5590   -0.6950   -0.7160 N   0  0  0  0  0  0  0  0  0  0  0  0
    2.5280   -1.6030   -1.6840 C   0  0  0  0  0  0  0  0  0  0  0  0
    1.2930   -1.7720   -2.1440 N   0  0  0  0  0  0  0  0  0  0  0  0
    0.4440   -0.9280   -1.4440 C   0  0  0  0  0  0  0  0  0  0  0  0
   -0.9360   -0.8410   -1.6650 N   0  0  0  0  0  0  0  0  0  0  0  0
   -1.8600   -0.0610   -1.0290 N   0  0  0  0  0  0  0  0  0  0  0  0
   -2.7300   -0.5750    0.0080 C   0  0  0  0  0  0  0  0  0  0  0  0
   -2.8980   -1.8730    0.1910 C   0  0  0  0  0  0  0  0  0  0  0  0
   -3.8430   -2.1110    1.3230 C   0  0  0  0  0  0  0  0  0  0  0  0
   -4.6480   -0.8490    1.2470 C   0  0  2  0  0  0  0  0  0  0  0  0
   -5.3610   -0.8240   -0.0800 C   0  0  0  0  0  0  0  0  0  0  0  0
   -5.3650    0.6340   -0.4460 C   0  0  0  0  0  0  0  0  0  0  0  0
   -4.3530    1.2940    0.4650 C   0  0  2  0  0  0  0  0  0  0  0  0
   -3.6970    2.3910   -0.1340 N   0  0  0  0  0  0  0  0  0  0  0  0
   -3.5200    0.1750    0.9730 C   0  0  2  0  0  0  0  0  0  0  0  0
    1.2660   -0.2700   -0.5610 C   0  0  0  0  0  0  0  0  0  0  0  0
    0.9340    0.7320    0.4200 C   0  0  0  0  0  0  0  0  0  0  0  0
   -0.2030    1.1810    0.6300 O   0  0  0  0  0  0  0  0  0  0  0  0
  1  2  1  0
  2  3  1  0
  3  4  1  0
  4  5  1  0
  5  6  1  0
  6  7  1  0
  6 21  1  0
  7  8  2  0
  8  9  1  0
  9 10  1  0
  9 21  2  0
 10 11  1  0
 11 12  1  0
 12 13  2  0
 20 12  1  6
 13 14  1  0
 15 14  1  6
 15 16  1  0
 15 20  1  0
 16 17  1  0
 17 18  1  0
 18 19  1  6
 18 20  1  0
 21 22  1  0
 22 23  2  0
M  CHG  1  19   1
M  END
