
     RDKit          3D

 21 22  0  0  0  0  0  0  0  0999 V2000
    3.4390    2.7800    0.6500 N   0  0  0  0  0  0  0  0  0  0  0  0
    3.6800    1.1890    0.0100 S   0  0  1  0  0  0  0  0  0  0  0  0
    4.4800    1.2430   -1.2700 O   0  0  0  0  0  0  0  0  0  0  0  0
    4.5030    0.4310    1.0070 O   0  0  0  0  0  0  0  0  0  0  0  0
    2.1650    0.3680   -0.2470 C   0  0  0  0  0  0  0  0  0  0  0  0
    1.9320   -0.8090    0.4200 C   0  0  0  0  0  0  0  0  0  0  0  0
    0.7660   -1.5600    0.3030 C   0  0  0  0  0  0  0  0  0  0  0  0
    0.6320   -2.7860    1.0660 C   0  0  0  0  0  0  0  0  0  0  0  0
   -0.3630   -3.5160    1.0360 O   0  0  0  0  0  0  0  0  0  0  0  0
    1.6810   -3.1850    1.8910 O   0  0  0  0  0  0  0  0  0  0  0  0
   -0.2000   -1.0730   -0.5410 C   0  0  0  0  0  0  0  0  0  0  0  0
   -1.4260   -1.7480   -0.7650 N   0  0  0  0  0  0  0  0  0  0  0  0
   -2.4600   -1.1410   -1.6180 C   0  0  0  0  0  0  0  0  0  0  0  0
   -2.9150    0.0960   -0.9450 C   0  0  0  0  0  0  0  0  0  0  0  0
   -2.5640    0.5060    0.3120 C   0  0  0  0  0  0  0  0  0  0  0  0
   -3.2140    1.7040    0.5300 C   0  0  0  0  0  0  0  0  0  0  0  0
   -3.9320    1.9780   -0.5940 C   0  0  0  0  0  0  0  0  0  0  0  0
   -3.7330    1.0040   -1.4500 O   0  0  0  0  0  0  0  0  0  0  0  0
    0.0380    0.1280   -1.2220 C   0  0  0  0  0  0  0  0  0  0  0  0
    1.1950    0.8530   -1.0910 C   0  0  0  0  0  0  0  0  0  0  0  0
    1.4590    2.3510   -1.9580 Cl  0  0  0  0  0  0  0  0  0  0  0  0
  2  1  1  1
  2  3  2  0
  2  4  2  0
  2  5  1  0
  5  6  2  0
  5 20  1  0
  6  7  1  0
  7  8  1  0
  7 11  2  0
  8  9  2  0
  8 10  1  0
 11 12  1  0
 11 19  1  0
 12 13  1  0
 13 14  1  0
 14 15  2  0
 14 18  1  0
 15 16  1  0
 16 17  2  0
 17 18  1  0
 19 20  2  0
 20 21  1  0
M  END
