
     RDKit          3D

 27 30  0  0  0  0  0  0  0  0999 V2000
   -2.3520   -4.4020    0.4830 C   0  0  0  0  0  0  0  0  0  0  0  0
   -1.4690   -4.2720    1.5200 O   0  0  0  0  0  0  0  0  0  0  0  0
   -0.3180   -3.5890    1.2780 C   0  0  0  0  0  0  0  0  0  0  0  0
   -0.5240   -2.1450    0.8920 C   0  0  0  0  0  0  0  0  0  0  0  0
   -1.7050   -1.5250    0.7970 N   0  0  0  0  0  0  0  0  0  0  0  0
   -1.4790   -0.2760    0.4480 N   0  0  0  0  0  0  0  0  0  0  0  0
   -2.5120    0.7180    0.2430 C   0  0  0  0  0  0  0  0  0  0  0  0
   -2.1440    2.2250    0.6600 S   0  0  0  0  0  0  0  0  0  0  0  0
   -3.7440    0.3000   -0.2820 N   0  0  0  0  0  0  0  0  0  0  0  0
   -4.8840    1.0670   -0.5720 C   0  0  0  0  0  0  0  0  0  0  0  0
   -4.9470    2.4310   -0.6550 C   0  0  0  0  0  0  0  0  0  0  0  0
   -6.1260    3.1220   -0.9280 C   0  0  0  0  0  0  0  0  0  0  0  0
   -7.2760    2.4030   -1.1230 C   0  0  0  0  0  0  0  0  0  0  0  0
   -7.2390    1.0620   -1.0470 N   0  0  0  0  0  0  0  0  0  0  0  0
   -6.1000    0.4040   -0.7840 C   0  0  0  0  0  0  0  0  0  0  0  0
   -0.1630   -0.0540    0.3090 C   0  0  0  0  0  0  0  0  0  0  0  0
    0.4760   -1.2390    0.5890 C   0  0  0  0  0  0  0  0  0  0  0  0
    1.9220   -1.4480    0.5580 C   0  0  0  0  0  0  0  0  0  0  0  0
    2.6840   -0.2190    0.5300 N   0  0  0  0  0  0  0  0  0  0  0  0
    4.0060   -0.5660    0.0180 C   0  0  0  0  0  0  0  0  0  0  0  0
    4.9040    0.6020   -0.0660 C   0  0  0  0  0  0  0  0  0  0  0  0
    5.4920    1.0960   -1.1420 C   0  0  0  0  0  0  0  0  0  0  0  0
    6.2810    2.2310   -0.8010 N   0  0  0  0  0  0  0  0  0  0  0  0
    6.1360    2.4090    0.5910 C   0  0  0  0  0  0  0  0  0  0  0  0
    5.3190    1.4470    1.0450 C   0  0  0  0  0  0  0  0  0  0  0  0
    2.0700    0.6810   -0.4160 C   0  0  0  0  0  0  0  0  0  0  0  0
    0.6900    1.1040   -0.0540 C   0  0  0  0  0  0  0  0  0  0  0  0
  1  2  1  0
  2  3  1  0
  3  4  1  0
  4  5  2  0
  4 17  1  0
  5  6  1  0
  6  7  1  0
  6 16  1  0
  7  8  2  0
  7  9  1  0
  9 10  1  0
 10 11  2  0
 10 15  1  0
 11 12  1  0
 12 13  2  0
 13 14  1  0
 14 15  2  0
 16 17  2  0
 16 27  1  0
 17 18  1  0
 18 19  1  0
 19 20  1  0
 19 26  1  0
 20 21  1  0
 21 22  2  0
 21 25  1  0
 22 23  1  0
 23 24  1  0
 24 25  2  0
 26 27  1  0
M  CHG  1  23   1
M  END
