
     RDKit          3D

 27 30  0  0  0  0  0  0  0  0999 V2000
   -1.3220    2.3750    1.1220 C   0  0  0  0  0  0  0  0  0  0  0  0
    0.0110    2.1350    0.8910 C   0  0  0  0  0  0  0  0  0  0  0  0
    0.3490    1.0950    0.0590 C   0  0  0  0  0  0  0  0  0  0  0  0
    1.7250    0.7920   -0.2250 N   0  0  0  0  0  0  0  0  0  0  0  0
    2.7570    1.6010    0.3830 C   0  0  0  0  0  0  0  0  0  0  0  0
    4.0880    1.1250   -0.0390 C   0  0  0  0  0  0  0  0  0  0  0  0
    4.8110    0.1870    0.6070 N   0  0  0  0  0  0  0  0  0  0  0  0
    5.9750   -0.0150   -0.0370 C   0  0  0  0  0  0  0  0  0  0  0  0
    7.0820   -0.9510    0.3080 C   0  0  2  0  0  0  0  0  0  0  0  0
    8.3520   -0.1640    0.3300 C   0  0  0  0  0  0  0  0  0  0  0  0
    9.4730   -1.0400   -0.1220 C   0  0  0  0  0  0  0  0  0  0  0  0
    9.1040   -1.6160   -1.4640 C   0  0  0  0  0  0  0  0  0  0  0  0
    7.3360   -2.0150   -1.1670 S   0  0  0  0  0  0  0  0  0  0  0  0
    5.9430    0.8210   -1.0890 N   0  0  0  0  0  0  0  0  0  0  0  0
    4.8030    1.4850   -1.0590 O   0  0  0  0  0  0  0  0  0  0  0  0
   -0.6340    0.3280   -0.5170 C   0  0  0  0  0  0  0  0  0  0  0  0
   -1.9830    0.5840   -0.2720 C   0  0  0  0  0  0  0  0  0  0  0  0
   -2.9320   -0.2550   -0.9550 N   0  0  0  0  0  0  0  0  0  0  0  0
   -4.2390   -0.3750   -0.4210 C   0  0  0  0  0  0  0  0  0  0  0  0
   -4.2290   -0.4400    0.9040 N   0  0  0  0  0  0  0  0  0  0  0  0
   -5.3520   -0.5670    1.8680 C   0  0  0  0  0  0  0  0  0  0  0  0
   -6.5040   -0.7810    1.0480 C   0  0  0  0  0  0  0  0  0  0  0  0
   -7.7950   -0.9670    0.6370 C   0  0  0  0  0  0  0  0  0  0  0  0
   -7.6850   -1.0380   -0.9290 C   0  0  0  0  0  0  0  0  0  0  0  0
   -6.6830   -0.1190   -1.5080 C   0  0  0  0  0  0  0  0  0  0  0  0
   -5.2730   -0.4190   -1.4370 N   0  0  0  0  0  0  0  0  0  0  0  0
   -2.3190    1.6200    0.5570 C   0  0  0  0  0  0  0  0  0  0  0  0
  1  2  2  0
  1 27  1  0
  2  3  1  0
  3  4  1  0
  3 16  2  0
  4  5  1  0
  5  6  1  0
  6  7  2  0
  6 15  1  0
  7  8  1  0
  9  8  1  6
  8 14  2  0
  9 10  1  0
  9 13  1  0
 10 11  1  0
 11 12  1  0
 12 13  1  0
 14 15  1  0
 16 17  1  0
 17 18  1  0
 17 27  2  0
 18 19  1  0
 19 20  2  0
 19 26  1  0
 20 21  1  0
 21 22  1  0
 22 23  1  0
 23 24  1  0
 24 25  1  0
 25 26  1  0
M  CHG  1  20   1
M  END
