
     RDKit          3D

 40 42  0  0  0  0  0  0  0  0999 V2000
  -10.0040   -0.5910   -0.1600 C   0  0  0  0  0  0  0  0  0  0  0  0
   -8.8120    0.3410    0.0980 C   0  0  1  0  0  0  0  0  0  0  0  0
   -7.6960   -0.1600   -0.6010 O   0  0  0  0  0  0  0  0  0  0  0  0
   -6.5820   -0.5900    0.1060 C   0  0  0  0  0  0  0  0  0  0  0  0
   -6.6340   -0.5060    1.3600 O   0  0  0  0  0  0  0  0  0  0  0  0
   -5.4230   -1.1140   -0.6420 C   0  0  0  0  0  0  0  0  0  0  0  0
   -4.0910   -1.6680    0.4170 S   0  0  0  0  0  0  0  0  0  0  0  0
   -3.2930   -0.3650    1.3190 C   0  0  0  0  0  0  0  0  0  0  0  0
   -3.7170    0.0210    2.5790 C   0  0  0  0  0  0  0  0  0  0  0  0
   -3.0500    1.0340    3.2230 C   0  0  0  0  0  0  0  0  0  0  0  0
   -1.9660    1.6700    2.6340 C   0  0  0  0  0  0  0  0  0  0  0  0
   -1.5680    1.2600    1.3750 C   0  0  0  0  0  0  0  0  0  0  0  0
   -2.2150    0.2520    0.7080 C   0  0  0  0  0  0  0  0  0  0  0  0
   -1.6570   -0.2530   -0.9030 S   0  0  0  0  0  0  0  0  0  0  0  0
   -0.4860   -1.6160   -0.6640 C   0  0  0  0  0  0  0  0  0  0  0  0
    0.6890   -1.0740    0.0650 C   0  0  0  0  0  0  0  0  0  0  0  0
    0.7270   -1.0590    1.4480 C   0  0  0  0  0  0  0  0  0  0  0  0
    1.8460   -0.5520    2.0620 C   0  0  0  0  0  0  0  0  0  0  0  0
    2.9200   -0.0630    1.3410 C   0  0  0  0  0  0  0  0  0  0  0  0
    2.8890   -0.0750   -0.0410 C   0  0  0  0  0  0  0  0  0  0  0  0
    4.0070    0.4290   -0.7920 N   0  0  0  0  0  0  0  0  0  0  0  0
    4.5880    1.7190   -0.7130 C   0  0  0  0  0  0  0  0  0  0  0  0
    4.0590    2.7250   -0.1210 O   0  0  0  0  0  0  0  0  0  0  0  0
    5.8810    1.6790   -1.4220 C   0  0  0  0  0  0  0  0  0  0  0  0
    6.1330    0.2620   -1.8310 C   0  0  1  0  0  0  0  0  0  0  0  0
    6.9280   -0.5160   -0.9320 N   0  0  0  0  0  0  0  0  0  0  0  0
    8.2400   -0.1190   -0.5770 C   0  0  0  0  0  0  0  0  0  0  0  0
    9.3340   -0.3750   -1.4760 C   0  0  0  0  0  0  0  0  0  0  0  0
    9.1640   -0.9680   -2.6240 C   0  0  0  0  0  0  0  0  0  0  0  0
   10.2610   -1.1680   -3.4150 F   0  0  0  0  0  0  0  0  0  0  0  0
    8.4580    0.4860    0.5990 C   0  0  0  0  0  0  0  0  0  0  0  0
    7.4260    0.7150    1.4470 F   0  0  0  0  0  0  0  0  0  0  0  0
    9.7100    0.8460    0.8950 F   0  0  0  0  0  0  0  0  0  0  0  0
    4.7440   -0.2990   -1.7660 C   0  0  0  0  0  0  0  0  0  0  0  0
    4.3090   -1.2520   -2.4580 O   0  0  0  0  0  0  0  0  0  0  0  0
    1.7640   -0.5840   -0.6510 C   0  0  0  0  0  0  0  0  0  0  0  0
   -9.1670    1.7320   -0.3940 C   0  0  1  0  0  0  0  0  0  0  0  0
   -8.1410    2.6280   -0.1950 F   0  0  0  0  0  0  0  0  0  0  0  0
   -9.4900    1.7070   -1.7260 F   0  0  0  0  0  0  0  0  0  0  0  0
  -10.2910    2.1190    0.3210 F   0  0  0  0  0  0  0  0  0  0  0  0
  2  1  1  6
  2  3  1  0
  2 37  1  0
  3  4  1  0
  4  5  2  0
  4  6  1  0
  6  7  1  0
  7  8  1  0
  8  9  2  0
  8 13  1  0
  9 10  1  0
 10 11  2  0
 11 12  1  0
 12 13  2  0
 13 14  1  0
 14 15  1  0
 15 16  1  0
 16 17  2  0
 16 36  1  0
 17 18  1  0
 18 19  2  0
 19 20  1  0
 20 21  1  0
 20 36  2  0
 21 22  1  0
 21 34  1  0
 22 23  2  0
 22 24  1  0
 24 25  1  0
 25 26  1  1
 25 34  1  0
 26 27  1  0
 27 28  1  0
 27 31  2  3
 28 29  2  3
 29 30  1  0
 31 32  1  0
 31 33  1  0
 34 35  2  0
 37 38  1  6
 37 39  1  0
 37 40  1  0
M  END
