
     RDKit          3D

 40 44  0  0  0  0  0  0  0  0999 V2000
    9.3090   -0.9860   -1.0800 N   0  0  0  0  0  0  0  0  0  0  0  0
    8.0190   -0.9400   -0.5130 C   0  0  0  0  0  0  0  0  0  0  0  0
    7.7880   -1.2570    0.7850 N   0  0  0  0  0  0  0  0  0  0  0  0
    6.5360   -1.2000    1.2790 C   0  0  0  0  0  0  0  0  0  0  0  0
    5.4860   -0.8440    0.5540 N   0  0  0  0  0  0  0  0  0  0  0  0
    5.6380   -0.5110   -0.7580 C   0  0  0  0  0  0  0  0  0  0  0  0
    6.9190   -0.5690   -1.2630 C   0  0  0  0  0  0  0  0  0  0  0  0
    6.8220   -0.2010   -2.5650 N   0  0  0  0  0  0  0  0  0  0  0  0
    5.5330    0.0670   -2.8300 C   0  0  0  0  0  0  0  0  0  0  0  0
    4.7960   -0.1210   -1.7230 N   0  0  0  0  0  0  0  0  0  0  0  0
    3.3960    0.0530   -1.6000 C   0  0  2  0  0  0  0  0  0  0  0  0
    2.9870    1.3130   -1.1800 O   0  0  0  0  0  0  0  0  0  0  0  0
    1.5600    1.1520   -1.2750 C   0  0  2  0  0  0  0  0  0  0  0  0
    0.9830    2.2700   -0.5630 C   0  0  1  0  0  0  0  0  0  0  0  0
    1.6850    3.4540   -0.9570 O   0  0  0  0  0  0  0  0  0  0  0  0
   -0.3180    2.6400   -0.4090 N   0  0  0  0  0  0  0  0  0  0  0  0
   -1.1490    2.8240    0.9770 S   0  0  1  0  0  0  0  0  0  0  0  0
   -0.4860    3.8450    1.9240 O   0  0  0  0  0  0  0  0  0  0  0  0
   -2.4430    3.5770    0.6150 O   0  0  0  0  0  0  0  0  0  0  0  0
   -1.4490    1.4880    2.0200 C   0  0  0  0  0  0  0  0  0  0  0  0
   -2.3340    0.3900    1.6620 C   0  0  2  0  0  0  0  0  0  0  0  0
   -2.1550   -0.4390    0.4730 C   0  0  1  0  0  0  0  0  0  0  0  0
   -1.6960   -1.8730    0.7820 C   0  0  0  0  0  0  0  0  0  0  0  0
   -1.6240   -2.6460   -0.3520 O   0  0  0  0  0  0  0  0  0  0  0  0
   -3.4080   -0.6260   -0.1350 O   0  0  0  0  0  0  0  0  0  0  0  0
   -4.2760    0.3160    0.3550 C   0  0  1  0  0  0  0  0  0  0  0  0
   -5.6000   -0.2660    0.3300 N   0  0  0  0  0  0  0  0  0  0  0  0
   -6.5060   -0.0360    1.2890 C   0  0  0  0  0  0  0  0  0  0  0  0
   -7.7460   -0.6110    1.2210 C   0  0  0  0  0  0  0  0  0  0  0  0
   -8.0850   -1.4360    0.1700 C   0  0  0  0  0  0  0  0  0  0  0  0
   -9.2360   -1.9670    0.1140 O   0  0  0  0  0  0  0  0  0  0  0  0
   -7.1590   -1.6530   -0.7800 N   0  0  0  0  0  0  0  0  0  0  0  0
   -5.9410   -1.0840   -0.7070 C   0  0  0  0  0  0  0  0  0  0  0  0
   -5.0680   -1.2950   -1.6110 O   0  0  0  0  0  0  0  0  0  0  0  0
   -3.8070    0.6630    1.7490 C   0  0  2  0  0  0  0  0  0  0  0  0
   -4.1370    1.9270    2.1650 O   0  0  0  0  0  0  0  0  0  0  0  0
    1.3330   -0.2110   -0.6180 C   0  0  1  0  0  0  0  0  0  0  0  0
    0.7350   -1.0970   -1.5230 O   0  0  0  0  0  0  0  0  0  0  0  0
    2.7680   -0.7460   -0.4480 C   0  0  1  0  0  0  0  0  0  0  0  0
    2.8540   -2.1000   -0.6320 O   0  0  0  0  0  0  0  0  0  0  0  0
  1  2  1  0
  2  3  2  0
  2  7  1  0
  3  4  1  0
  4  5  2  0
  5  6  1  0
  6  7  2  0
  6 10  1  0
  7  8  1  0
  8  9  2  0
  9 10  1  0
 11 10  1  1
 11 12  1  0
 11 39  1  0
 13 12  1  1
 13 14  1  0
 13 37  1  0
 14 15  1  6
 14 16  1  0
 16 17  1  0
 17 18  2  0
 17 19  2  0
 17 20  1  1
 21 20  1  6
 21 22  1  0
 21 35  1  0
 22 23  1  1
 22 25  1  0
 23 24  1  0
 25 26  1  0
 26 27  1  1
 26 35  1  0
 27 28  1  0
 27 33  1  0
 28 29  2  0
 29 30  1  0
 30 31  2  0
 30 32  1  0
 32 33  1  0
 33 34  2  0
 35 36  1  6
 37 38  1  6
 37 39  1  0
 39 40  1  6
M  END
