
     RDKit          3D

 40 42  0  0  0  0  0  0  0  0999 V2000
    8.1900   -2.9770   -1.0190 C   0  0  0  0  0  0  0  0  0  0  0  0
    7.9390   -1.5370   -0.7660 C   0  0  0  0  0  0  0  0  0  0  0  0
    8.7260   -0.6360   -1.1390 O   0  0  0  0  0  0  0  0  0  0  0  0
    6.6800   -1.1500   -0.0280 C   0  0  0  0  0  0  0  0  0  0  0  0
    6.7720   -1.0770    1.3430 C   0  0  0  0  0  0  0  0  0  0  0  0
    7.8360   -1.2890    2.3100 C   0  0  0  0  0  0  0  0  0  0  0  0
    5.0350   -0.5880    1.7710 S   0  0  0  0  0  0  0  0  0  0  0  0
    4.4420   -0.5480    0.1060 C   0  0  0  0  0  0  0  0  0  0  0  0
    3.0610   -0.2170   -0.3040 C   0  0  0  0  0  0  0  0  0  0  0  0
    2.7250   -0.2050   -1.5090 O   0  0  0  0  0  0  0  0  0  0  0  0
    2.1100    0.0860    0.6550 O   0  0  0  0  0  0  0  0  0  0  0  0
    0.7640    0.4260    0.3350 C   0  0  0  0  0  0  0  0  0  0  0  0
    0.7680    1.6970   -0.4450 C   0  0  0  0  0  0  0  0  0  0  0  0
    1.9050    2.4640   -0.7520 C   0  0  0  0  0  0  0  0  0  0  0  0
    1.4870    3.5330   -1.4390 N   0  0  0  0  0  0  0  0  0  0  0  0
    0.1650    3.4760   -1.5740 C   0  0  0  0  0  0  0  0  0  0  0  0
   -0.3380    2.3180   -0.9530 C   0  0  0  0  0  0  0  0  0  0  0  0
   -1.7490    1.9890   -0.9320 C   0  0  0  0  0  0  0  0  0  0  0  0
   -2.6000    2.7460   -1.5220 O   0  0  0  0  0  0  0  0  0  0  0  0
   -2.3490    0.8730   -0.3080 N   0  0  0  0  0  0  0  0  0  0  0  0
   -3.7910    0.6390   -0.3560 C   0  0  2  0  0  0  0  0  0  0  0  0
   -4.3680    1.1860    0.9180 C   0  0  0  0  0  0  0  0  0  0  0  0
   -3.9650    0.6430    2.2000 C   0  0  0  0  0  0  0  0  0  0  0  0
   -4.8690    0.0590    2.9930 C   0  0  0  0  0  0  0  0  0  0  0  0
   -6.2950   -0.1250    2.7420 C   0  0  2  0  0  0  0  0  0  0  0  0
   -6.9690    0.1690    3.9450 F   0  0  0  0  0  0  0  0  0  0  0  0
   -6.5760   -1.4480    2.4300 F   0  0  0  0  0  0  0  0  0  0  0  0
   -2.5880    0.7250    2.7350 C   0  0  1  0  0  0  0  0  0  0  0  0
   -1.8800   -0.4450    2.6030 F   0  0  0  0  0  0  0  0  0  0  0  0
   -1.9140    1.8360    2.2340 F   0  0  0  0  0  0  0  0  0  0  0  0
   -2.6200    0.9620    4.1230 F   0  0  0  0  0  0  0  0  0  0  0  0
   -4.1080   -0.7780   -0.6190 C   0  0  0  0  0  0  0  0  0  0  0  0
   -5.5890   -0.9700   -0.7530 C   0  0  0  0  0  0  0  0  0  0  0  0
   -6.6010   -0.1250   -0.9300 C   0  0  0  0  0  0  0  0  0  0  0  0
   -7.8610   -0.5740   -0.9880 C   0  0  0  0  0  0  0  0  0  0  0  0
   -8.0780   -1.9250   -0.8630 C   0  0  0  0  0  0  0  0  0  0  0  0
   -9.2170   -2.6920   -0.8790 F   0  0  0  0  0  0  0  0  0  0  0  0
   -6.3840   -2.5610   -0.6520 S   0  0  0  0  0  0  0  0  0  0  0  0
    5.5400   -0.8920   -0.6530 C   0  0  0  0  0  0  0  0  0  0  0  0
    5.3540   -0.9530   -2.1710 C   0  0  0  0  0  0  0  0  0  0  0  0
  1  2  1  0
  2  3  2  0
  2  4  1  0
  4  5  2  0
  4 39  1  0
  5  6  1  0
  5  7  1  0
  7  8  1  0
  8  9  1  0
  8 39  2  0
  9 10  2  0
  9 11  1  0
 11 12  1  0
 12 13  1  0
 13 14  2  0
 13 17  1  0
 14 15  1  0
 15 16  1  0
 16 17  2  0
 17 18  1  0
 18 19  2  0
 18 20  1  0
 20 21  1  0
 21 22  1  1
 21 32  1  0
 22 23  1  0
 23 24  2  3
 23 28  1  0
 24 25  1  0
 25 26  1  1
 25 27  1  0
 28 29  1  1
 28 30  1  0
 28 31  1  0
 32 33  1  0
 33 34  2  0
 33 38  1  0
 34 35  1  0
 35 36  2  0
 36 37  1  0
 36 38  1  0
 39 40  1  0
M  END
