
     RDKit          3D

 40 41  0  0  0  0  0  0  0  0999 V2000
   -6.9710    3.7100    0.0820 C   0  0  0  0  0  0  0  0  0  0  0  0
   -6.9260    3.8370    1.3820 C   0  0  0  0  0  0  0  0  0  0  0  0
   -6.3410    2.8460    2.3040 C   0  0  0  0  0  0  0  0  0  0  0  0
   -5.8000    1.7130    1.7180 O   0  0  0  0  0  0  0  0  0  0  0  0
   -4.7370    1.5920    0.8850 C   0  0  0  0  0  0  0  0  0  0  0  0
   -4.1300    2.7030    0.6020 O   0  0  0  0  0  0  0  0  0  0  0  0
   -4.2070    0.4000    0.2810 C   0  0  0  0  0  0  0  0  0  0  0  0
   -3.1650    0.6060   -0.6090 F   0  0  0  0  0  0  0  0  0  0  0  0
   -4.6470   -0.8540    0.4330 C   0  0  0  0  0  0  0  0  0  0  0  0
   -5.8150   -1.0490    1.3220 C   0  0  0  0  0  0  0  0  0  0  0  0
   -3.9340   -1.9480   -0.1820 C   0  0  0  0  0  0  0  0  0  0  0  0
   -4.2710   -3.2070   -0.1960 C   0  0  0  0  0  0  0  0  0  0  0  0
   -5.3710   -3.9880    0.3270 C   0  0  1  0  0  0  0  0  0  0  0  0
   -5.4000   -5.2070   -0.4400 F   0  0  0  0  0  0  0  0  0  0  0  0
   -5.1870   -4.4480    1.6380 F   0  0  0  0  0  0  0  0  0  0  0  0
   -6.6350   -3.4950    0.1250 F   0  0  0  0  0  0  0  0  0  0  0  0
   -2.6480   -1.6200   -0.8480 N   0  0  0  0  0  0  0  0  0  0  0  0
   -1.5600   -1.2580   -0.0550 C   0  0  0  0  0  0  0  0  0  0  0  0
   -1.6830   -1.2070    1.2210 O   0  0  0  0  0  0  0  0  0  0  0  0
   -0.2650   -0.9350   -0.6470 C   0  0  2  0  0  0  0  0  0  0  0  0
   -0.2180    0.1440   -1.6530 C   0  0  0  0  0  0  0  0  0  0  0  0
   -1.1850   -0.0430   -3.1290 S   0  0  0  0  0  0  0  0  0  0  0  0
   -0.5260   -1.3660   -4.1590 C   0  0  0  0  0  0  0  0  0  0  0  0
    0.5500   -2.1710   -0.9790 C   0  0  0  0  0  0  0  0  0  0  0  0
    1.9710   -1.8570   -0.9650 C   0  0  0  0  0  0  0  0  0  0  0  0
    2.3490   -0.9290   -0.1320 C   0  0  0  0  0  0  0  0  0  0  0  0
    3.6770   -0.4230    0.0930 C   0  0  0  0  0  0  0  0  0  0  0  0
    3.9440    0.5200    0.9630 C   0  0  0  0  0  0  0  0  0  0  0  0
    5.2760    1.0540    1.2150 C   0  0  0  0  0  0  0  0  0  0  0  0
    5.4150    1.9810    2.0930 O   0  0  0  0  0  0  0  0  0  0  0  0
    6.4460    0.6270    0.5600 N   0  0  0  0  0  0  0  0  0  0  0  0
    7.7630    1.0920    0.7490 C   0  0  0  0  0  0  0  0  0  0  0  0
    8.1750    2.0660    1.6130 C   0  0  0  0  0  0  0  0  0  0  0  0
    9.5210    2.4400    1.7070 C   0  0  0  0  0  0  0  0  0  0  0  0
   10.5020    1.8570    0.9440 C   0  0  0  0  0  0  0  0  0  0  0  0
   11.8020    2.2180    1.0350 F   0  0  0  0  0  0  0  0  0  0  0  0
   10.0990    0.8750    0.0700 C   0  0  0  0  0  0  0  0  0  0  0  0
    8.7750    0.5090   -0.0220 C   0  0  0  0  0  0  0  0  0  0  0  0
    8.4490   -0.4660   -0.9050 F   0  0  0  0  0  0  0  0  0  0  0  0
    0.8870   -0.3410    0.7070 S   0  0  0  0  0  0  0  0  0  0  0  0
  1  2  2  0
  2  3  1  0
  3  4  1  0
  4  5  1  0
  5  6  2  0
  5  7  1  0
  7  8  1  0
  7  9  2  3
  9 10  1  0
  9 11  1  0
 11 12  2  3
 11 17  1  0
 12 13  1  0
 13 14  1  6
 13 15  1  0
 13 16  1  0
 17 18  1  0
 18 19  2  0
 18 20  1  0
 20 21  1  6
 20 24  1  0
 20 40  1  0
 21 22  1  0
 22 23  1  0
 24 25  1  0
 25 26  2  0
 26 27  1  0
 26 40  1  0
 27 28  2  3
 28 29  1  0
 29 30  2  0
 29 31  1  0
 31 32  1  0
 32 33  2  0
 32 38  1  0
 33 34  1  0
 34 35  2  0
 35 36  1  0
 35 37  1  0
 37 38  2  0
 38 39  1  0
M  END
