
     RDKit          3D

 17 18  0  0  0  0  0  0  0  0999 V2000
   -0.1820   -1.2930    1.1880 O   0  0  0  0  0  0  0  0  0  0  0  0
    0.0030   -0.4340    0.3190 C   0  0  0  0  0  0  0  0  0  0  0  0
    1.3660   -0.1240    0.0150 N   0  0  0  0  0  0  0  0  0  0  0  0
    2.4370   -0.7930    0.7020 C   0  0  0  0  0  0  0  0  0  0  0  0
    3.7470   -0.2950    0.2080 C   0  0  0  0  0  0  0  0  0  0  0  0
    4.4270    0.7770    0.7510 C   0  0  0  0  0  0  0  0  0  0  0  0
    5.5860    0.9170    0.0190 C   0  0  0  0  0  0  0  0  0  0  0  0
    5.5660   -0.0770   -0.9410 C   0  0  0  0  0  0  0  0  0  0  0  0
    4.4620   -0.7660   -0.7890 O   0  0  0  0  0  0  0  0  0  0  0  0
   -1.0810    0.1820   -0.3150 N   0  0  0  0  0  0  0  0  0  0  0  0
   -2.4640   -0.0440   -0.0970 C   0  0  0  0  0  0  0  0  0  0  0  0
   -2.9770   -0.8840    0.7500 C   0  0  0  0  0  0  0  0  0  0  0  0
   -4.4390   -1.0610    0.9170 C   0  0  0  0  0  0  0  0  0  0  0  0
   -5.1930   -0.2520    0.0910 O   0  0  0  0  0  0  0  0  0  0  0  0
   -4.6730    0.6410   -0.8100 C   0  0  0  0  0  0  0  0  0  0  0  0
   -5.4930    1.4400   -1.6260 O   0  0  0  0  0  0  0  0  0  0  0  0
   -3.3680    0.7660   -0.9250 C   0  0  0  0  0  0  0  0  0  0  0  0
  1  2  2  0
  2  3  1  0
  2 10  1  0
  3  4  1  0
  4  5  1  0
  5  6  2  0
  5  9  1  0
  6  7  1  0
  7  8  2  0
  8  9  1  0
 10 11  1  0
 11 12  2  0
 11 17  1  0
 12 13  1  0
 13 14  1  0
 14 15  1  0
 15 16  1  0
 15 17  2  0
M  END
