
     RDKit          3D

 17 18  0  0  0  0  0  0  0  0999 V2000
   -2.6140    2.6050    0.3930 N   0  0  0  0  0  0  0  0  0  0  0  0
   -2.6340    1.1790    0.2890 C   0  0  0  0  0  0  0  0  0  0  0  0
   -3.8140    0.4770    0.3260 C   0  0  0  0  0  0  0  0  0  0  0  0
   -3.7830   -0.8580    0.2260 N   0  0  0  0  0  0  0  0  0  0  0  0
   -2.6440   -1.5530    0.0890 C   0  0  0  0  0  0  0  0  0  0  0  0
   -1.4510   -0.8580    0.0500 C   0  0  0  0  0  0  0  0  0  0  0  0
   -1.4200    0.5090    0.1490 C   0  0  0  0  0  0  0  0  0  0  0  0
   -0.2300    1.2220    0.1120 O   0  0  0  0  0  0  0  0  0  0  0  0
    0.9500    0.4830   -0.0310 C   0  0  0  0  0  0  0  0  0  0  0  0
    1.4600    0.2410   -1.2270 C   0  0  0  0  0  0  0  0  0  0  0  0
    2.6860   -0.5250   -1.3960 C   0  0  0  0  0  0  0  0  0  0  0  0
    3.3770   -1.0330   -0.3870 C   0  0  0  0  0  0  0  0  0  0  0  0
    4.5370   -1.7500   -0.6570 O   0  0  0  0  0  0  0  0  0  0  0  0
    2.8930   -0.8190    0.9740 C   0  0  0  0  0  0  0  0  0  0  0  0
    3.5270   -1.2880    1.9540 O   0  0  0  0  0  0  0  0  0  0  0  0
    1.6640   -0.0490    1.1210 C   0  0  0  0  0  0  0  0  0  0  0  0
    1.1890    0.1740    2.2690 O   0  0  0  0  0  0  0  0  0  0  0  0
  1  2  1  0
  2  3  2  0
  2  7  1  0
  3  4  1  0
  4  5  2  0
  5  6  1  0
  6  7  2  0
  7  8  1  0
  8  9  1  0
  9 10  2  0
  9 16  1  0
 10 11  1  0
 11 12  2  0
 12 13  1  0
 12 14  1  0
 14 15  2  0
 14 16  1  0
 16 17  2  0
M  END
