
     RDKit          3D

 17 17  0  0  0  0  0  0  0  0999 V2000
   -3.7610    1.3900    0.0850 C   0  0  0  0  0  0  0  0  0  0  0  0
   -3.8610    0.3840   -0.9960 C   0  0  0  0  0  0  0  0  0  0  0  0
   -3.0550   -0.6590   -1.0370 C   0  0  0  0  0  0  0  0  0  0  0  0
   -3.1460   -1.6240   -2.0690 N   0  0  0  0  0  0  0  0  0  0  0  0
   -2.0470   -0.8230    0.0010 C   0  0  0  0  0  0  0  0  0  0  0  0
   -1.2600   -1.8280   -0.0270 O   0  0  0  0  0  0  0  0  0  0  0  0
   -1.8690    0.0560    1.0520 O   0  0  0  0  0  0  0  0  0  0  0  0
   -0.8950   -0.0960    2.0530 C   0  0  0  0  0  0  0  0  0  0  0  0
    0.4910   -0.0620    1.5940 C   0  0  0  0  0  0  0  0  0  0  0  0
    1.4150   -0.2700    2.4530 O   0  0  0  0  0  0  0  0  0  0  0  0
    0.9450    0.1830    0.2790 N   0  0  0  0  0  0  0  0  0  0  0  0
    2.3190    0.1980   -0.0930 C   0  0  0  0  0  0  0  0  0  0  0  0
    2.8090   -0.6300   -0.9930 C   0  0  0  0  0  0  0  0  0  0  0  0
    4.2390   -0.6340   -1.3980 C   0  0  0  0  0  0  0  0  0  0  0  0
    5.0090    0.3190   -0.7350 O   0  0  0  0  0  0  0  0  0  0  0  0
    4.5210    1.2070    0.2210 C   0  0  0  0  0  0  0  0  0  0  0  0
    3.2480    1.1420    0.5180 C   0  0  0  0  0  0  0  0  0  0  0  0
  1  2  1  0
  2  3  2  3
  3  4  1  0
  3  5  1  0
  5  6  2  0
  5  7  1  0
  7  8  1  0
  8  9  1  0
  9 10  2  0
  9 11  1  0
 11 12  1  0
 12 13  2  0
 12 17  1  0
 13 14  1  0
 14 15  1  0
 15 16  1  0
 16 17  2  0
M  END
