
     RDKit          3D

 17 18  0  0  0  0  0  0  0  0999 V2000
    4.0590    1.3120    1.3290 O   0  0  0  0  0  0  0  0  0  0  0  0
    2.8350    1.4810    1.4270 C   0  0  0  0  0  0  0  0  0  0  0  0
    2.4280    2.5080    2.3120 O   0  0  0  0  0  0  0  0  0  0  0  0
    1.8550    0.7020    0.7030 C   0  0  0  0  0  0  0  0  0  0  0  0
    0.4960    0.8560    0.7820 N   0  0  0  0  0  0  0  0  0  0  0  0
   -0.1130   -0.0260   -0.0180 C   0  0  0  0  0  0  0  0  0  0  0  0
   -1.5700   -0.1870   -0.2200 C   0  0  0  0  0  0  0  0  0  0  0  0
   -2.0770   -1.1260   -1.0650 C   0  0  0  0  0  0  0  0  0  0  0  0
   -3.4580   -1.2210   -1.2060 C   0  0  0  0  0  0  0  0  0  0  0  0
   -4.3090   -0.3870   -0.5090 C   0  0  0  0  0  0  0  0  0  0  0  0
   -3.7860    0.5630    0.3470 C   0  0  0  0  0  0  0  0  0  0  0  0
   -2.4200    0.6460    0.4760 C   0  0  0  0  0  0  0  0  0  0  0  0
    0.8430   -0.7410   -0.6070 N   0  0  0  0  0  0  0  0  0  0  0  0
    2.0810   -0.3110   -0.1780 C   0  0  0  0  0  0  0  0  0  0  0  0
    3.3260   -0.9040   -0.6480 C   0  0  0  0  0  0  0  0  0  0  0  0
    3.2760   -1.8560   -1.4860 O   0  0  0  0  0  0  0  0  0  0  0  0
    4.5610   -0.5080   -0.2490 O   0  0  0  0  0  0  0  0  0  0  0  0
  1  2  2  0
  2  3  1  0
  2  4  1  0
  4  5  1  0
  4 14  2  0
  5  6  2  0
  6  7  1  0
  6 13  1  0
  7  8  2  0
  7 12  1  0
  8  9  1  0
  9 10  2  0
 10 11  1  0
 11 12  2  0
 13 14  1  0
 14 15  1  0
 15 16  2  0
 15 17  1  0
M  END
