
     RDKit          3D

 17 17  0  0  0  0  0  0  0  0999 V2000
    1.5260    0.0510   -1.8160 C   0  0  0  0  0  0  0  0  0  0  0  0
    0.6490    0.6190   -0.6450 C   0  0  2  0  0  0  0  0  0  0  0  0
    0.2290    1.8630   -1.2050 N   0  0  0  0  0  0  0  0  0  0  0  0
    1.5570    0.8080    0.5020 C   0  0  0  0  0  0  0  0  0  0  0  0
    2.1430    1.8840    0.7280 O   0  0  0  0  0  0  0  0  0  0  0  0
    1.8100   -0.2700    1.4280 N   0  0  0  0  0  0  0  0  0  0  0  0
    2.6340   -0.0620    2.4500 O   0  0  0  0  0  0  0  0  0  0  0  0
   -0.4140   -0.2990   -0.3420 C   0  0  0  0  0  0  0  0  0  0  0  0
   -1.4650    0.1180    0.3020 C   0  0  0  0  0  0  0  0  0  0  0  0
   -1.6220    1.4400    0.7350 C   0  0  0  0  0  0  0  0  0  0  0  0
   -0.9690    2.6620    0.7540 N   0  0  0  0  0  0  0  0  0  0  0  0
   -2.7900    1.6310    1.3480 O   0  0  0  0  0  0  0  0  0  0  0  0
   -2.6210   -0.7910    0.6410 C   0  0  0  0  0  0  0  0  0  0  0  0
   -2.7050   -2.0710    0.7120 N   0  0  0  0  0  0  0  0  0  0  0  0
   -1.7060   -3.0470    0.4860 C   0  0  0  0  0  0  0  0  0  0  0  0
   -0.5500   -2.8750   -0.1820 C   0  0  0  0  0  0  0  0  0  0  0  0
   -0.1170   -1.6750   -0.7860 N   0  0  0  0  0  0  0  0  0  0  0  0
  2  1  1  6
  2  3  1  0
  2  4  1  0
  2  8  1  0
  4  5  2  0
  4  6  1  0
  6  7  1  0
  8  9  2  0
  8 17  1  0
  9 10  1  0
  9 13  1  0
 10 11  1  0
 10 12  2  0
 13 14  2  0
 14 15  1  0
 15 16  2  0
 16 17  1  0
M  END
