
     RDKit          3D

 14 15  0  0  0  0  0  0  0  0999 V2000
   -3.7050    0.9460   -0.2340 C   0  0  0  0  0  0  0  0  0  0  0  0
   -3.2310   -0.2130   -1.0890 C   0  0  0  0  0  0  0  0  0  0  0  0
   -2.8310   -1.4160   -0.2940 C   0  0  0  0  0  0  0  0  0  0  0  0
   -1.3230   -1.5040   -0.0780 C   0  0  0  0  0  0  0  0  0  0  0  0
   -0.9270   -0.5190    0.9640 C   0  0  1  0  0  0  0  0  0  0  0  0
    0.5790   -0.4230    1.1570 C   0  0  0  0  0  0  0  0  0  0  0  0
    1.2420   -0.0310   -0.0560 N   0  0  0  0  0  0  0  0  0  0  0  0
    2.5620    0.3670    0.2020 C   0  0  2  0  0  0  0  0  0  0  0  0
    3.4660    0.4410   -1.0460 C   0  0  0  0  0  0  0  0  0  0  0  0
    4.7810    0.7140   -0.2800 C   0  0  0  0  0  0  0  0  0  0  0  0
    4.7390   -0.1150    0.8300 O   0  0  0  0  0  0  0  0  0  0  0  0
    3.4290   -0.5670    1.0120 C   0  0  0  0  0  0  0  0  0  0  0  0
   -1.4700    0.8840    0.6830 C   0  0  0  0  0  0  0  0  0  0  0  0
   -2.9130    0.9820    1.0820 C   0  0  0  0  0  0  0  0  0  0  0  0
  1  2  1  0
  1 14  1  0
  2  3  1  0
  3  4  1  0
  4  5  1  0
  5  6  1  6
  5 13  1  0
  6  7  1  0
  8  7  1  6
  8  9  1  0
  8 12  1  0
  9 10  1  0
 10 11  1  0
 11 12  1  0
 13 14  1  0
M  END
