
     RDKit          3D

 14 15  0  0  0  0  0  0  0  0999 V2000
   -1.4900    2.3280   -0.5250 C   0  0  0  0  0  0  0  0  0  0  0  0
   -1.4420    1.2780    0.5200 C   0  0  0  0  0  0  0  0  0  0  0  0
   -0.9340   -0.0600    0.1410 C   0  0  1  0  0  0  0  0  0  0  0  0
    0.3920   -0.0960   -0.3330 N   0  0  0  0  0  0  0  0  0  0  0  0
    0.7390    0.5420   -1.5510 C   0  0  0  0  0  0  0  0  0  0  0  0
    2.0450   -0.1560   -1.9960 C   0  0  0  0  0  0  0  0  0  0  0  0
    3.0370   -0.0000   -1.0660 O   0  0  0  0  0  0  0  0  0  0  0  0
    2.6760   -0.4190    0.2110 C   0  0  1  0  0  0  0  0  0  0  0  0
    3.7540    0.0360    1.1760 C   0  0  0  0  0  0  0  0  0  0  0  0
    1.3840    0.2300    0.6580 C   0  0  0  0  0  0  0  0  0  0  0  0
   -1.0300   -0.9960    1.3270 C   0  0  0  0  0  0  0  0  0  0  0  0
   -2.1300   -1.9860    1.0420 C   0  0  0  0  0  0  0  0  0  0  0  0
   -2.9490   -1.2860   -0.0000 C   0  0  0  0  0  0  0  0  0  0  0  0
   -1.8930   -0.6430   -0.8730 C   0  0  0  0  0  0  0  0  0  0  0  0
  1  2  1  0
  3  2  1  1
  3  4  1  0
  3 11  1  0
  3 14  1  0
  4  5  1  0
  4 10  1  0
  5  6  1  0
  6  7  1  0
  7  8  1  0
  8  9  1  1
  8 10  1  0
 11 12  1  0
 12 13  1  0
 13 14  1  0
M  END
