
     RDKit          3D

 14 15  0  0  0  0  0  0  0  0999 V2000
    3.3840    0.9260    0.4820 C   0  0  0  0  0  0  0  0  0  0  0  0
    3.1270   -0.0830   -0.6310 C   0  0  0  0  0  0  0  0  0  0  0  0
    2.3600   -1.2810   -0.1750 C   0  0  0  0  0  0  0  0  0  0  0  0
    1.0240   -1.0710    0.3980 C   0  0  0  0  0  0  0  0  0  0  0  0
   -0.0250   -0.4990   -0.4340 C   0  0  0  0  0  0  0  0  0  0  0  0
    0.0290   -0.3060   -1.7930 C   0  0  0  0  0  0  0  0  0  0  0  0
   -1.0660    0.2250   -2.4730 C   0  0  0  0  0  0  0  0  0  0  0  0
   -1.0530    0.4190   -3.7170 O   0  0  0  0  0  0  0  0  0  0  0  0
   -2.1850    0.5510   -1.8110 N   0  0  0  0  0  0  0  0  0  0  0  0
   -2.2840    0.3770   -0.4730 C   0  0  0  0  0  0  0  0  0  0  0  0
   -1.2170   -0.1390    0.1970 C   0  0  0  0  0  0  0  0  0  0  0  0
   -1.5580   -0.2260    1.6590 C   0  0  0  0  0  0  0  0  0  0  0  0
   -2.7260    0.7040    1.8050 C   0  0  0  0  0  0  0  0  0  0  0  0
   -3.4170    0.6310    0.4780 C   0  0  0  0  0  0  0  0  0  0  0  0
  1  2  1  0
  2  3  1  0
  3  4  1  0
  4  5  1  0
  5  6  2  0
  5 11  1  0
  6  7  1  0
  7  8  2  0
  7  9  1  0
  9 10  1  0
 10 11  2  0
 10 14  1  0
 11 12  1  0
 12 13  1  0
 13 14  1  0
M  END
