
     RDKit          3D

 14 15  0  0  0  0  0  0  0  0999 V2000
   -1.2130    1.8960   -1.5420 C   0  0  0  0  0  0  0  0  0  0  0  0
    0.0030    1.0970   -1.1460 C   0  0  0  0  0  0  0  0  0  0  0  0
   -0.2850    0.0630   -0.0830 C   0  0  2  0  0  0  0  0  0  0  0  0
    0.9680   -0.6090    0.1970 N   0  0  0  0  0  0  0  0  0  0  0  0
    1.5310   -1.3920   -0.8150 C   0  0  0  0  0  0  0  0  0  0  0  0
    3.0070   -1.5870   -0.7490 C   0  0  0  0  0  0  0  0  0  0  0  0
    3.6400   -1.1330    0.3760 O   0  0  0  0  0  0  0  0  0  0  0  0
    3.2770    0.2320    0.4640 C   0  0  0  0  0  0  0  0  0  0  0  0
    1.8510    0.1860    0.9900 C   0  0  0  0  0  0  0  0  0  0  0  0
   -1.2900   -0.9530   -0.5630 C   0  0  0  0  0  0  0  0  0  0  0  0
   -2.3420   -1.3360    0.4240 C   0  0  0  0  0  0  0  0  0  0  0  0
   -3.0310   -0.1000    0.8900 C   0  0  0  0  0  0  0  0  0  0  0  0
   -2.0640    0.7440    1.6250 C   0  0  0  0  0  0  0  0  0  0  0  0
   -0.6560    0.7600    1.1920 C   0  0  0  0  0  0  0  0  0  0  0  0
  1  2  1  0
  3  2  1  6
  3  4  1  0
  3 10  1  0
  3 14  1  0
  4  5  1  0
  4  9  1  0
  5  6  1  0
  6  7  1  0
  7  8  1  0
  8  9  1  0
 10 11  1  0
 11 12  1  0
 12 13  1  0
 13 14  1  0
M  END
