
     RDKit          3D

 15 15  0  0  0  0  0  0  0  0999 V2000
    4.9700   -0.0080    0.2870 N   0  0  0  0  0  0  0  0  0  0  0  0
    3.5970   -0.3440    0.3080 C   0  0  0  0  0  0  0  0  0  0  0  0
    3.0090   -0.3680    1.4360 O   0  0  0  0  0  0  0  0  0  0  0  0
    2.8410   -0.6500   -0.7960 O   0  0  0  0  0  0  0  0  0  0  0  0
    1.4890   -0.9840   -0.8000 C   0  0  0  0  0  0  0  0  0  0  0  0
    0.6050    0.1030   -0.2360 C   0  0  1  0  0  0  0  0  0  0  0  0
    0.6850    1.2910   -0.9250 O   0  0  0  0  0  0  0  0  0  0  0  0
    0.0890    2.2760   -0.1320 C   0  0  0  0  0  0  0  0  0  0  0  0
   -1.2270    1.9360    0.2490 O   0  0  0  0  0  0  0  0  0  0  0  0
   -1.7570    0.6510    0.1140 C   0  0  0  0  0  0  0  0  0  0  0  0
   -3.0360    0.4010    0.3050 C   0  0  0  0  0  0  0  0  0  0  0  0
   -3.5490   -0.9830    0.1490 C   0  0  0  0  0  0  0  0  0  0  0  0
   -4.1240   -1.4540    1.3310 O   0  0  0  0  0  0  0  0  0  0  0  0
   -0.8320   -0.4260   -0.2510 C   0  0  1  0  0  0  0  0  0  0  0  0
   -1.0640   -0.8850   -1.5650 O   0  0  0  0  0  0  0  0  0  0  0  0
  1  2  1  0
  2  3  2  0
  2  4  1  0
  4  5  1  0
  6  5  1  6
  6  7  1  0
  6 14  1  0
  7  8  1  0
  8  9  1  0
  9 10  1  0
 10 11  2  3
 10 14  1  0
 11 12  1  0
 12 13  1  0
 14 15  1  6
M  END
