
     RDKit          3D

 15 15  0  0  0  0  0  0  0  0999 V2000
   -3.4360   -0.5940    2.4140 O   0  0  0  0  0  0  0  0  0  0  0  0
   -2.7440   -0.4160    1.3960 C   0  0  0  0  0  0  0  0  0  0  0  0
   -1.7250    0.6490    1.3360 C   0  0  0  0  0  0  0  0  0  0  0  0
   -0.6760    0.1580    0.3350 C   0  0  2  0  0  0  0  0  0  0  0  0
    0.5360    1.0500    0.4200 C   0  0  2  0  0  0  0  0  0  0  0  0
    0.2280    2.3760    0.1230 O   0  0  0  0  0  0  0  0  0  0  0  0
    1.5520    0.5340   -0.3870 O   0  0  0  0  0  0  0  0  0  0  0  0
    2.7510    0.1010    0.1530 C   0  0  0  0  0  0  0  0  0  0  0  0
    2.8980    0.1860    1.3890 O   0  0  0  0  0  0  0  0  0  0  0  0
    3.8460   -0.4520   -0.6920 C   0  0  0  0  0  0  0  0  0  0  0  0
    4.9440   -0.8150    0.0810 O   0  0  0  0  0  0  0  0  0  0  0  0
   -1.3180    0.1650   -1.0140 C   0  0  1  0  0  0  0  0  0  0  0  0
   -0.3960   -0.0940   -2.0340 O   0  0  0  0  0  0  0  0  0  0  0  0
   -2.4540   -0.7990   -1.0520 C   0  0  0  0  0  0  0  0  0  0  0  0
   -2.9040   -1.2270    0.2530 N   0  0  0  0  0  0  0  0  0  0  0  0
  1  2  2  0
  2  3  1  0
  2 15  1  0
  4  3  1  1
  4  5  1  0
  4 12  1  0
  5  6  1  6
  5  7  1  0
  7  8  1  0
  8  9  2  0
  8 10  1  0
 10 11  1  0
 12 13  1  6
 12 14  1  0
 14 15  1  0
M  END
