
     RDKit          3D

 10  9  0  0  0  0  0  0  0  0999 V2000
    3.8720    0.4910   -0.3970 O   0  0  0  0  0  0  0  0  0  0  0  0
    2.5900    0.3880   -0.9440 C   0  0  0  0  0  0  0  0  0  0  0  0
    1.6130   -0.0950    0.1290 C   0  0  1  0  0  0  0  0  0  0  0  0
    1.6470    0.8560    1.1430 O   0  0  0  0  0  0  0  0  0  0  0  0
    0.2510   -0.1440   -0.5380 C   0  0  0  0  0  0  0  0  0  0  0  0
   -0.7110   -0.4700    0.4130 O   0  0  0  0  0  0  0  0  0  0  0  0
   -1.9650   -0.5250   -0.1470 C   0  0  1  0  0  0  0  0  0  0  0  0
   -2.5450   -1.7800    0.0200 O   0  0  0  0  0  0  0  0  0  0  0  0
   -2.8450    0.5600    0.4550 C   0  0  0  0  0  0  0  0  0  0  0  0
   -2.9530    0.3820    1.8070 F   0  0  0  0  0  0  0  0  0  0  0  0
  1  2  1  0
  2  3  1  0
  3  4  1  1
  3  5  1  0
  5  6  1  0
  6  7  1  0
  7  8  1  1
  7  9  1  0
  9 10  1  0
M  END
