
     RDKit          3D

 10  9  0  0  0  0  0  0  0  0999 V2000
    2.8650   -0.9850    1.1670 O   0  0  0  0  0  0  0  0  0  0  0  0
    1.5440   -0.7890    0.8030 C   0  0  0  0  0  0  0  0  0  0  0  0
    1.4230   -0.6920   -0.6880 C   0  0  0  0  0  0  0  0  0  0  0  0
    0.1410   -0.4970   -1.1350 O   0  0  0  0  0  0  0  0  0  0  0  0
   -0.4820    0.6380   -0.6950 C   0  0  1  0  0  0  0  0  0  0  0  0
   -0.8500    1.4580   -1.7670 O   0  0  0  0  0  0  0  0  0  0  0  0
   -1.6940    0.2980    0.1010 C   0  0  0  0  0  0  0  0  0  0  0  0
   -1.5420   -0.4760    1.2600 O   0  0  0  0  0  0  0  0  0  0  0  0
   -2.8780    0.7260   -0.2930 C   0  0  0  0  0  0  0  0  0  0  0  0
   -2.9940    1.4680   -1.4100 F   0  0  0  0  0  0  0  0  0  0  0  0
  1  2  1  0
  2  3  1  0
  3  4  1  0
  4  5  1  0
  5  6  1  6
  5  7  1  0
  7  8  1  0
  7  9  2  3
  9 10  1  0
M  END
