
     RDKit          3D

 10  9  0  0  0  0  0  0  0  0999 V2000
    3.4950   -1.0170   -0.9810 O   0  0  0  0  0  0  0  0  0  0  0  0
    2.4400   -0.5990   -0.1600 C   0  0  0  0  0  0  0  0  0  0  0  0
    1.7380    0.6010   -0.7480 C   0  0  0  0  0  0  0  0  0  0  0  0
    0.7030    1.0030    0.0730 O   0  0  0  0  0  0  0  0  0  0  0  0
   -0.2830    0.0720    0.2570 C   0  0  1  0  0  0  0  0  0  0  0  0
   -0.4260   -0.2670    1.6230 O   0  0  0  0  0  0  0  0  0  0  0  0
   -1.5950    0.7030   -0.1690 C   0  0  1  0  0  0  0  0  0  0  0  0
   -1.5630    1.0800   -1.4840 F   0  0  0  0  0  0  0  0  0  0  0  0
   -2.7180   -0.3300   -0.0410 C   0  0  0  0  0  0  0  0  0  0  0  0
   -2.8220   -0.7590    1.2710 O   0  0  0  0  0  0  0  0  0  0  0  0
  1  2  1  0
  2  3  1  0
  3  4  1  0
  4  5  1  0
  5  6  1  1
  5  7  1  0
  7  8  1  6
  7  9  1  0
  9 10  1  0
M  END
