
     RDKit          3D

 10  9  0  0  0  0  0  0  0  0999 V2000
    1.2560   -0.4460   -2.0410 O   0  0  0  0  0  0  0  0  0  0  0  0
    1.9930    0.3190   -1.1610 C   0  0  0  0  0  0  0  0  0  0  0  0
    1.3940    0.4670    0.1850 C   0  0  1  0  0  0  0  0  0  0  0  0
    2.3090    1.2450    0.9850 O   0  0  0  0  0  0  0  0  0  0  0  0
    0.2110    1.2220    0.1960 O   0  0  0  0  0  0  0  0  0  0  0  0
   -0.7330    0.5890    0.9670 C   0  0  0  0  0  0  0  0  0  0  0  0
   -1.2050   -0.7120    0.4210 C   0  0  1  0  0  0  0  0  0  0  0  0
   -2.0650   -1.3390    1.3730 O   0  0  0  0  0  0  0  0  0  0  0  0
   -2.1400   -0.4140   -0.7580 C   0  0  0  0  0  0  0  0  0  0  0  0
   -1.5640    0.2890   -1.7580 F   0  0  0  0  0  0  0  0  0  0  0  0
  1  2  1  0
  2  3  1  0
  3  4  1  1
  3  5  1  0
  5  6  1  0
  6  7  1  0
  7  8  1  1
  7  9  1  0
  9 10  1  0
M  END
