
     RDKit          3D

 15 15  0  0  0  0  0  0  0  0999 V2000
    2.5210    0.4460   -2.0950 C   0  0  0  0  0  0  0  0  0  0  0  0
    1.4780   -0.3200   -1.8120 O   0  0  0  0  0  0  0  0  0  0  0  0
    1.3160   -1.1780   -0.8310 C   0  0  0  0  0  0  0  0  0  0  0  0
    1.3790   -0.7210    0.5820 C   0  0  1  0  0  0  0  0  0  0  0  0
    1.0340   -1.9080    1.3520 O   0  0  0  0  0  0  0  0  0  0  0  0
    2.7610   -0.3600    1.0430 C   0  0  0  0  0  0  0  0  0  0  0  0
    3.6110   -1.4160    0.7200 O   0  0  0  0  0  0  0  0  0  0  0  0
    0.3250    0.3050    0.8870 C   0  0  0  0  0  0  0  0  0  0  0  0
   -0.8730   -0.1940    0.5170 O   0  0  0  0  0  0  0  0  0  0  0  0
   -1.9960    0.4870    0.6650 C   0  0  2  0  0  0  0  0  0  0  0  0
   -3.1660   -0.1470    1.3210 C   0  0  0  0  0  0  0  0  0  0  0  0
   -3.8560   -0.7080    0.2370 O   0  0  0  0  0  0  0  0  0  0  0  0
   -3.8720    0.2920   -0.6120 O   0  0  0  0  0  0  0  0  0  0  0  0
   -2.5740    0.7600   -0.7320 C   0  0  1  0  0  0  0  0  0  0  0  0
   -2.6120    2.1640   -1.0300 N   0  0  0  0  0  0  0  0  0  0  0  0
  1  2  1  0
  2  3  1  0
  3  4  1  0
  4  5  1  1
  4  6  1  0
  4  8  1  0
  6  7  1  0
  8  9  1  0
 10  9  1  6
 10 11  1  0
 10 14  1  0
 11 12  1  0
 12 13  1  0
 13 14  1  0
 14 15  1  1
M  END
