
     RDKit          3D

 15 15  0  0  0  0  0  0  0  0999 V2000
   -2.2440    1.5680   -0.4370 N   0  0  0  0  0  0  0  0  0  0  0  0
   -1.9550    0.4870    0.4210 C   0  0  2  0  0  0  0  0  0  0  0  0
   -2.7570    0.6600    1.6710 C   0  0  0  0  0  0  0  0  0  0  0  0
   -2.5700    1.6700    2.3970 O   0  0  0  0  0  0  0  0  0  0  0  0
   -3.7150   -0.2550    2.0760 O   0  0  0  0  0  0  0  0  0  0  0  0
   -0.5120    0.3770    0.8420 C   0  0  0  0  0  0  0  0  0  0  0  0
    0.3050   -0.4710   -0.1150 C   0  0  2  0  0  0  0  0  0  0  0  0
    1.5820    0.0550   -0.1380 O   0  0  0  0  0  0  0  0  0  0  0  0
    2.5670   -0.8680    0.1830 C   0  0  0  0  0  0  0  0  0  0  0  0
    3.8980   -0.1110    0.1060 C   0  0  0  0  0  0  0  0  0  0  0  0
    3.8890    0.9450    1.0090 O   0  0  0  0  0  0  0  0  0  0  0  0
   -0.3820   -0.3400   -1.4770 C   0  0  1  0  0  0  0  0  0  0  0  0
    0.3520   -0.9780   -2.4720 O   0  0  0  0  0  0  0  0  0  0  0  0
   -1.7220   -1.0090   -1.3330 C   0  0  0  0  0  0  0  0  0  0  0  0
   -2.3690   -0.6960   -0.1650 O   0  0  0  0  0  0  0  0  0  0  0  0
  2  1  1  6
  2  3  1  0
  2  6  1  0
  2 15  1  0
  3  4  2  0
  3  5  1  0
  6  7  1  0
  7  8  1  6
  7 12  1  0
  8  9  1  0
  9 10  1  0
 10 11  1  0
 12 13  1  6
 12 14  1  0
 14 15  1  0
M  END
