
     RDKit          3D

 15 15  0  0  0  0  0  0  0  0999 V2000
    3.2210   -1.7830   -0.1040 O   0  0  0  0  0  0  0  0  0  0  0  0
    2.1420   -0.9300   -0.4140 C   0  0  1  0  0  0  0  0  0  0  0  0
    0.9000   -1.6080    0.0860 C   0  0  0  0  0  0  0  0  0  0  0  0
   -0.2710   -0.9850   -0.3380 O   0  0  0  0  0  0  0  0  0  0  0  0
   -1.3220   -1.8080    0.0910 C   0  0  0  0  0  0  0  0  0  0  0  0
   -2.6640   -1.1950   -0.0820 C   0  0  2  0  0  0  0  0  0  0  0  0
   -3.4030   -1.8380   -1.0600 O   0  0  0  0  0  0  0  0  0  0  0  0
   -2.6240    0.2940   -0.3540 C   0  0  0  0  0  0  0  0  0  0  0  0
   -1.4770    0.7940    0.2000 O   0  0  0  0  0  0  0  0  0  0  0  0
   -1.2830    2.1450    0.0240 C   0  0  0  0  0  0  0  0  0  0  0  0
    0.2290    2.3800    0.1370 C   0  0  0  0  0  0  0  0  0  0  0  0
    0.8000    1.5460   -0.8450 O   0  0  0  0  0  0  0  0  0  0  0  0
    2.1160    1.4380   -0.6700 N   0  0  0  0  0  0  0  0  0  0  0  0
    2.4210    0.3810    0.2580 C   0  0  2  0  0  0  0  0  0  0  0  0
    3.7920    0.5130    0.5770 O   0  0  0  0  0  0  0  0  0  0  0  0
  2  1  1  1
  2  3  1  0
  2 14  1  0
  3  4  1  0
  4  5  1  0
  5  6  1  0
  6  7  1  6
  6  8  1  0
  8  9  1  0
  9 10  1  0
 10 11  1  0
 11 12  1  0
 12 13  1  0
 13 14  1  0
 14 15  1  6
M  END
