
     RDKit          3D

 17 19  0  0  0  0  0  0  0  0999 V2000
   -1.6320   -2.8990    0.7890 O   0  0  0  0  0  0  0  0  0  0  0  0
   -1.2500   -1.6420    0.4030 C   0  0  0  0  0  0  0  0  0  0  0  0
    0.1010   -1.3810    0.1290 C   0  0  0  0  0  0  0  0  0  0  0  0
    0.5500   -0.1470   -0.2600 C   0  0  0  0  0  0  0  0  0  0  0  0
    1.9570    0.0550   -0.5270 C   0  0  0  0  0  0  0  0  0  0  0  0
    2.9340   -0.8850   -0.4320 C   0  0  0  0  0  0  0  0  0  0  0  0
    4.2490   -0.5710   -0.7150 C   0  0  0  0  0  0  0  0  0  0  0  0
    4.6420    0.6930   -1.1030 C   0  0  0  0  0  0  0  0  0  0  0  0
    3.6640    1.6500   -1.2020 C   0  0  0  0  0  0  0  0  0  0  0  0
    2.3490    1.3420   -0.9220 C   0  0  0  0  0  0  0  0  0  0  0  0
   -0.3640    0.8410   -0.3770 N   0  0  0  0  0  0  0  0  0  0  0  0
   -1.6680    0.6410   -0.1260 C   0  0  0  0  0  0  0  0  0  0  0  0
   -2.5950    1.6510   -0.2470 C   0  0  0  0  0  0  0  0  0  0  0  0
   -3.9360    1.4670    0.0060 C   0  0  0  0  0  0  0  0  0  0  0  0
   -4.3760    0.2390    0.3920 C   0  0  0  0  0  0  0  0  0  0  0  0
   -3.4920   -0.7930    0.5250 C   0  0  0  0  0  0  0  0  0  0  0  0
   -2.1560   -0.6020    0.2720 C   0  0  0  0  0  0  0  0  0  0  0  0
  1  2  1  0
  2  3  2  0
  2 17  1  0
  3  4  1  0
  4  5  1  0
  4 11  2  0
  5  6  2  0
  5 10  1  0
  6  7  1  0
  7  8  2  0
  8  9  1  0
  9 10  2  0
 11 12  1  0
 12 13  2  0
 12 17  1  0
 13 14  1  0
 14 15  2  0
 15 16  1  0
 16 17  2  0
M  END
