
     RDKit          3D

 15 15  0  0  0  0  0  0  0  0999 V2000
    4.2230   -0.6530   -0.2890 N   0  0  0  0  0  0  0  0  0  0  0  0
    3.2060    0.0820    0.0040 C   0  0  0  0  0  0  0  0  0  0  0  0
    3.4220    1.1340    0.8820 O   0  0  0  0  0  0  0  0  0  0  0  0
    1.8850   -0.2240   -0.5960 C   0  0  2  0  0  0  0  0  0  0  0  0
    1.5170    0.9270   -1.3260 O   0  0  0  0  0  0  0  0  0  0  0  0
    0.8940   -0.3930    0.5300 C   0  0  2  0  0  0  0  0  0  0  0  0
    1.2770   -1.5330    1.2350 O   0  0  0  0  0  0  0  0  0  0  0  0
   -0.5340   -0.5040    0.0330 C   0  0  1  0  0  0  0  0  0  0  0  0
   -0.5740   -1.6260   -0.8070 O   0  0  0  0  0  0  0  0  0  0  0  0
   -1.3810   -0.8690    1.2460 C   0  0  0  0  0  0  0  0  0  0  0  0
   -2.2680    0.1860    1.5570 O   0  0  0  0  0  0  0  0  0  0  0  0
   -3.1770    0.1900    0.4730 C   0  0  0  0  0  0  0  0  0  0  0  0
   -2.4800    0.9480   -0.6340 C   0  0  1  0  0  0  0  0  0  0  0  0
   -2.7700    2.2990   -0.4290 O   0  0  0  0  0  0  0  0  0  0  0  0
   -1.0130    0.6830   -0.6930 C   0  0  0  0  0  0  0  0  0  0  0  0
  1  2  2  0
  2  3  1  0
  2  4  1  0
  4  5  1  6
  4  6  1  0
  6  7  1  6
  6  8  1  0
  8  9  1  6
  8 10  1  0
  8 15  1  0
 10 11  1  0
 11 12  1  0
 12 13  1  0
 13 14  1  1
 13 15  1  0
M  END
