
     RDKit          3D

 15 15  0  0  0  0  0  0  0  0999 V2000
   -0.1250   -2.1090    0.0770 C   0  0  0  0  0  0  0  0  0  0  0  0
    0.0410   -0.6090    0.2750 C   0  0  2  0  0  0  0  0  0  0  0  0
   -1.1860    0.0180    0.8260 C   0  0  2  0  0  0  0  0  0  0  0  0
   -1.4480   -0.6790    2.0460 O   0  0  0  0  0  0  0  0  0  0  0  0
   -2.4410   -0.1300    0.0060 C   0  0  1  0  0  0  0  0  0  0  0  0
   -3.4600    0.4540    0.8310 O   0  0  0  0  0  0  0  0  0  0  0  0
   -2.4640    0.7140   -1.2400 C   0  0  0  0  0  0  0  0  0  0  0  0
   -1.5890    0.3240   -2.2130 O   0  0  0  0  0  0  0  0  0  0  0  0
    0.5370   -0.1060   -0.8900 O   0  0  0  0  0  0  0  0  0  0  0  0
    1.8970   -0.4020   -0.8180 C   0  0  0  0  0  0  0  0  0  0  0  0
    2.1810   -0.0110    0.6350 C   0  0  1  0  0  0  0  0  0  0  0  0
    2.3640    1.4500    0.6480 C   0  0  0  0  0  0  0  0  0  0  0  0
    3.4970    2.0230    0.0420 N   0  0  0  0  0  0  0  0  0  0  0  0
    1.5170    2.1760    1.1960 O   0  0  0  0  0  0  0  0  0  0  0  0
    1.0390   -0.4340    1.2590 O   0  0  0  0  0  0  0  0  0  0  0  0
  2  1  1  6
  2  3  1  0
  2  9  1  0
  2 15  1  0
  3  4  1  1
  3  5  1  0
  5  6  1  1
  5  7  1  0
  7  8  1  0
  9 10  1  0
 10 11  1  0
 11 12  1  6
 11 15  1  0
 12 13  1  0
 12 14  2  0
M  END
