
     RDKit          3D

 23 24  0  0  0  0  0  0  0  0999 V2000
   -4.4890   -0.3550    0.0810 O   0  0  0  0  0  0  0  0  0  0  0  0
   -4.0910   -1.4920   -0.3030 C   0  0  0  0  0  0  0  0  0  0  0  0
   -2.6940   -1.7970   -0.4040 N   0  0  0  0  0  0  0  0  0  0  0  0
   -1.7820   -0.8030   -0.0670 N   0  0  0  0  0  0  0  0  0  0  0  0
   -1.6620   -0.3820    1.2660 C   0  0  0  0  0  0  0  0  0  0  0  0
   -0.5580    0.1180    1.8010 C   0  0  0  0  0  0  0  0  0  0  0  0
   -0.4420    0.5550    3.1900 C   0  0  0  0  0  0  0  0  0  0  0  0
    0.8110    0.9780    3.3190 C   0  0  0  0  0  0  0  0  0  0  0  0
    1.5170    0.8290    2.0560 C   0  0  0  0  0  0  0  0  0  0  0  0
    0.7220    0.3180    1.1350 C   0  0  0  0  0  0  0  0  0  0  0  0
    0.9740    0.0110   -0.1860 O   0  0  0  0  0  0  0  0  0  0  0  0
    2.1530    0.3680   -0.7840 C   0  0  0  0  0  0  0  0  0  0  0  0
    2.7630    1.4420   -0.6460 N   0  0  0  0  0  0  0  0  0  0  0  0
    3.9550    1.6860   -1.3080 C   0  0  0  0  0  0  0  0  0  0  0  0
    4.6170    2.8440   -1.1680 C   0  0  0  0  0  0  0  0  0  0  0  0
    4.1740    3.8330   -0.3840 F   0  0  0  0  0  0  0  0  0  0  0  0
    4.3970    0.5980   -2.1440 C   0  0  0  0  0  0  0  0  0  0  0  0
    5.7040    0.4800   -3.0540 S   0  0  0  0  0  0  0  0  0  0  0  0
    3.1310   -0.6350   -1.9350 S   0  0  0  0  0  0  0  0  0  0  0  0
   -5.0760   -2.5180   -0.6540 C   0  0  2  0  0  0  0  0  0  0  0  0
   -6.3700   -2.0050   -0.5230 F   0  0  0  0  0  0  0  0  0  0  0  0
   -4.9410   -3.6620    0.1000 F   0  0  0  0  0  0  0  0  0  0  0  0
   -4.9010   -2.8480   -2.0010 F   0  0  0  0  0  0  0  0  0  0  0  0
  1  2  2  0
  2  3  1  0
  2 20  1  0
  3  4  1  0
  4  5  1  0
  5  6  2  3
  6  7  1  0
  6 10  1  0
  7  8  2  0
  8  9  1  0
  9 10  2  0
 10 11  1  0
 11 12  1  0
 12 13  2  0
 12 19  1  0
 13 14  1  0
 14 15  2  3
 14 17  1  0
 15 16  1  0
 17 18  2  0
 17 19  1  0
 20 21  1  6
 20 22  1  0
 20 23  1  0
M  END
