
     RDKit          3D

 23 24  0  0  0  0  0  0  0  0999 V2000
    1.9350    1.6620   -0.7890 O   0  0  0  0  0  0  0  0  0  0  0  0
    2.0120    0.4880   -0.3090 C   0  0  0  0  0  0  0  0  0  0  0  0
    0.7550   -0.1460    0.0520 N   0  0  0  0  0  0  0  0  0  0  0  0
   -0.4860    0.5890   -0.1550 C   0  0  0  0  0  0  0  0  0  0  0  0
   -0.5440    2.1760   -0.9040 S   0  0  0  0  0  0  0  0  0  0  0  0
   -2.3600    2.3090   -0.8050 C   0  0  0  0  0  0  0  0  0  0  0  0
   -2.7240    1.1510   -0.2210 C   0  0  0  0  0  0  0  0  0  0  0  0
   -1.7670    0.2640    0.1180 C   0  0  0  0  0  0  0  0  0  0  0  0
   -2.0550   -1.0250    0.8210 C   0  0  0  0  0  0  0  0  0  0  0  0
   -0.7840   -1.5140    1.9980 S   0  0  0  0  0  0  0  0  0  0  0  0
   -3.0930   -1.7870    0.7250 N   0  0  0  0  0  0  0  0  0  0  0  0
   -4.2860   -1.6260   -0.0860 C   0  0  0  0  0  0  0  0  0  0  0  0
   -4.8570   -0.3060    0.0700 N   0  0  0  0  0  0  0  0  0  0  0  0
   -4.2170    0.9430   -0.0460 C   0  0  0  0  0  0  0  0  0  0  0  0
   -4.9160    1.9560   -0.0040 O   0  0  0  0  0  0  0  0  0  0  0  0
    3.2150   -0.2670   -0.0910 C   0  0  0  0  0  0  0  0  0  0  0  0
    4.4210    0.1140   -0.3480 C   0  0  0  0  0  0  0  0  0  0  0  0
    4.9460    1.3360   -0.9000 C   0  0  0  0  0  0  0  0  0  0  0  0
    4.0490    2.2740   -1.2190 F   0  0  0  0  0  0  0  0  0  0  0  0
    3.0590   -1.6630    0.5100 C   0  0  2  0  0  0  0  0  0  0  0  0
    2.4980   -1.5150    1.7440 F   0  0  0  0  0  0  0  0  0  0  0  0
    4.3090   -2.2200    0.6370 F   0  0  0  0  0  0  0  0  0  0  0  0
    2.3460   -2.4880   -0.3140 F   0  0  0  0  0  0  0  0  0  0  0  0
  1  2  2  0
  2  3  1  0
  2 16  1  0
  3  4  1  0
  4  5  1  0
  4  8  2  0
  5  6  1  0
  6  7  2  0
  7  8  1  0
  7 14  1  0
  8  9  1  0
  9 10  1  0
  9 11  2  0
 11 12  1  0
 12 13  1  0
 13 14  1  0
 14 15  2  0
 16 17  2  3
 16 20  1  0
 17 18  1  0
 18 19  1  0
 20 21  1  1
 20 22  1  0
 20 23  1  0
M  END
