
     RDKit          3D

 22 23  0  0  0  0  0  0  0  0999 V2000
   -1.3250    2.5330   -1.7700 C   0  0  0  0  0  0  0  0  0  0  0  0
   -2.1310    1.2920   -1.5730 C   0  0  0  0  0  0  0  0  0  0  0  0
   -3.8010    1.0150   -1.9110 S   0  0  0  0  0  0  0  0  0  0  0  0
   -3.8130   -0.6590   -1.2470 C   0  0  0  0  0  0  0  0  0  0  0  0
   -2.6560   -0.8520   -0.8690 C   0  0  0  0  0  0  0  0  0  0  0  0
   -2.1810   -2.1310   -0.3090 O   0  0  0  0  0  0  0  0  0  0  0  0
   -3.0730   -3.1960   -0.1660 C   0  0  1  0  0  0  0  0  0  0  0  0
   -2.3950   -4.4130    0.0810 F   0  0  0  0  0  0  0  0  0  0  0  0
   -3.7860   -2.8980    1.0120 F   0  0  0  0  0  0  0  0  0  0  0  0
   -3.9810   -3.3610   -1.1660 F   0  0  0  0  0  0  0  0  0  0  0  0
   -1.6030    0.0980   -0.9490 C   0  0  0  0  0  0  0  0  0  0  0  0
   -0.2400   -0.0210   -0.5670 N   0  0  0  0  0  0  0  0  0  0  0  0
    0.1520    0.8620    0.7050 C   0  0  0  0  0  0  0  0  0  0  0  0
   -0.9630    1.3600    0.9600 O   0  0  0  0  0  0  0  0  0  0  0  0
    1.3990    0.9040    1.2310 C   0  0  0  0  0  0  0  0  0  0  0  0
    1.4070   -0.9750    0.9950 C   0  0  0  0  0  0  0  0  0  0  0  0
    1.4020   -2.3170    0.8090 N   0  0  0  0  0  0  0  0  0  0  0  0
    2.6200    0.7170    1.4900 C   0  0  0  0  0  0  0  0  0  0  0  0
    3.5720    1.0680    2.2860 N   0  0  0  0  0  0  0  0  0  0  0  0
    4.8330    1.0480    2.4530 C   0  0  0  0  0  0  0  0  0  0  0  0
    5.2760    0.2470    1.1330 C   0  0  0  0  0  0  0  0  0  0  0  0
    3.8320   -0.0850    0.2790 S   0  0  0  0  0  0  0  0  0  0  0  0
  1  2  1  0
  2  3  1  0
  2 11  2  0
  3  4  1  0
  4  5  2  0
  5  6  1  0
  5 11  1  0
  6  7  1  0
  7  8  1  1
  7  9  1  0
  7 10  1  0
 11 12  1  0
 12 13  1  0
 13 14  2  0
 13 15  1  0
 15 16  1  0
 15 18  2  3
 16 17  3  0
 18 19  1  0
 18 22  1  0
 19 20  1  0
 20 21  2  0
 21 22  1  0
M  END
