
     RDKit          3D

 16 17  0  0  0  0  0  0  0  0999 V2000
    1.7460    2.0940   -0.6670 O   0  0  0  0  0  0  0  0  0  0  0  0
    0.9070    1.2080   -0.4240 C   0  0  0  0  0  0  0  0  0  0  0  0
   -0.4950    1.5700   -0.5580 N   0  0  0  0  0  0  0  0  0  0  0  0
   -1.5000    0.6010   -0.2930 C   0  0  0  0  0  0  0  0  0  0  0  0
   -2.8210    0.9690   -0.4270 C   0  0  0  0  0  0  0  0  0  0  0  0
   -3.7940    0.0190   -0.1680 C   0  0  0  0  0  0  0  0  0  0  0  0
   -5.4770    0.4830   -0.3370 Cl  0  0  0  0  0  0  0  0  0  0  0  0
   -3.4230   -1.2320    0.2070 C   0  0  0  0  0  0  0  0  0  0  0  0
   -2.1030   -1.5900    0.3380 C   0  0  0  0  0  0  0  0  0  0  0  0
   -1.6930   -3.2190    0.8250 Cl  0  0  0  0  0  0  0  0  0  0  0  0
   -1.0960   -0.6660    0.0870 C   0  0  0  0  0  0  0  0  0  0  0  0
    0.2200   -1.0120    0.2150 O   0  0  0  0  0  0  0  0  0  0  0  0
    1.2990   -0.1270   -0.0240 C   0  0  0  0  0  0  0  0  0  0  0  0
    2.5160   -0.5210    0.1160 C   0  0  0  0  0  0  0  0  0  0  0  0
    3.7700    0.1870   -0.0680 C   0  0  0  0  0  0  0  0  0  0  0  0
    4.4950    0.2010    1.1300 O   0  0  0  0  0  0  0  0  0  0  0  0
  1  2  2  0
  2  3  1  0
  2 13  1  0
  3  4  1  0
  4  5  2  0
  4 11  1  0
  5  6  1  0
  6  7  1  0
  6  8  2  0
  8  9  1  0
  9 10  1  0
  9 11  2  0
 11 12  1  0
 12 13  1  0
 13 14  2  3
 14 15  1  0
 15 16  1  0
M  END
