
     RDKit          3D

 45 48  0  0  0  0  0  0  0  0999 V2000
   -2.1510    0.6050   -2.7090 C   0  0  0  0  0  0  0  0  0  0  0  0
   -2.5950   -0.4120   -1.8140 O   0  0  0  0  0  0  0  0  0  0  0  0
   -2.4930   -0.2410   -0.4230 C   0  0  0  0  0  0  0  0  0  0  0  0
   -1.9900    0.8560   -0.0700 O   0  0  0  0  0  0  0  0  0  0  0  0
   -2.9370   -1.2620    0.4860 C   0  0  0  0  0  0  0  0  0  0  0  0
   -3.5000   -2.4590    0.1630 C   0  0  0  0  0  0  0  0  0  0  0  0
   -3.8340   -3.0280   -1.4930 S   0  0  0  0  0  0  0  0  0  0  0  0
   -5.4990   -2.5700   -1.9860 C   0  0  0  0  0  0  0  0  0  0  0  0
   -5.7010   -1.1100   -2.1060 C   0  0  0  0  0  0  0  0  0  0  0  0
   -6.1280   -0.3610   -1.0080 C   0  0  0  0  0  0  0  0  0  0  0  0
   -6.3210    1.0030   -1.1060 C   0  0  0  0  0  0  0  0  0  0  0  0
   -6.0990    1.6700   -2.2900 C   0  0  0  0  0  0  0  0  0  0  0  0
   -5.6760    0.8980   -3.3600 C   0  0  0  0  0  0  0  0  0  0  0  0
   -5.4930   -0.4330   -3.2480 N   0  0  0  0  0  0  0  0  0  0  0  0
   -3.7990   -3.1440    1.3020 N   0  0  0  0  0  0  0  0  0  0  0  0
   -3.4190   -2.3650    2.3230 C   0  0  0  0  0  0  0  0  0  0  0  0
   -2.8870   -1.2050    1.8340 N   0  0  0  0  0  0  0  0  0  0  0  0
   -2.3610   -0.1930    2.6690 C   0  0  0  0  0  0  0  0  0  0  0  0
   -1.0390   -0.3500    3.2810 C   0  0  0  0  0  0  0  0  0  0  0  0
    0.1320   -0.5620    2.4960 N   0  0  0  0  0  0  0  0  0  0  0  0
    0.6660   -1.8750    2.3790 C   0  0  0  0  0  0  0  0  0  0  0  0
    0.4210   -2.6510    1.1450 C   0  0  0  0  0  0  0  0  0  0  0  0
    1.0440   -2.0070   -0.0200 C   0  0  0  0  0  0  0  0  0  0  0  0
    0.4200   -1.2520   -0.7780 O   0  0  0  0  0  0  0  0  0  0  0  0
    2.4110   -2.2330   -0.3200 O   0  0  0  0  0  0  0  0  0  0  0  0
    3.0370   -1.6240   -1.4340 C   0  0  0  0  0  0  0  0  0  0  0  0
    4.4490   -2.0510   -1.4850 C   0  0  0  0  0  0  0  0  0  0  0  0
    4.9990   -2.9210   -0.5480 C   0  0  0  0  0  0  0  0  0  0  0  0
    6.3180   -3.3090   -0.6100 C   0  0  0  0  0  0  0  0  0  0  0  0
    7.1480   -2.8430   -1.6160 C   0  0  0  0  0  0  0  0  0  0  0  0
    8.4880   -3.2420   -1.6740 O   0  0  0  0  0  0  0  0  0  0  0  0
    9.3410   -2.7640   -2.6990 C   0  0  0  0  0  0  0  0  0  0  0  0
    6.5940   -1.9830   -2.5380 C   0  0  0  0  0  0  0  0  0  0  0  0
    5.2600   -1.5820   -2.4860 C   0  0  0  0  0  0  0  0  0  0  0  0
    4.7400   -0.7190   -3.4270 O   0  0  0  0  0  0  0  0  0  0  0  0
    0.7940    0.6040    1.9960 C   0  0  0  0  0  0  0  0  0  0  0  0
    1.8410    0.4020    1.3180 O   0  0  0  0  0  0  0  0  0  0  0  0
    0.3380    1.9610    2.2210 C   0  0  0  0  0  0  0  0  0  0  0  0
    1.0370    2.9720    1.7020 C   0  0  0  0  0  0  0  0  0  0  0  0
    0.5860    4.3520    1.9220 C   0  0  0  0  0  0  0  0  0  0  0  0
    1.1900    5.5040    1.4640 C   0  0  0  0  0  0  0  0  0  0  0  0
    0.4590    6.5960    1.8800 C   0  0  0  0  0  0  0  0  0  0  0  0
   -0.5910    6.0510    2.5960 C   0  0  0  0  0  0  0  0  0  0  0  0
   -1.6510    6.8640    3.2430 C   0  0  0  0  0  0  0  0  0  0  0  0
   -0.4700    4.7290    2.5900 O   0  0  0  0  0  0  0  0  0  0  0  0
  1  2  1  0
  2  3  1  0
  3  4  2  0
  3  5  1  0
  5  6  2  0
  5 17  1  0
  6  7  1  0
  6 15  1  0
  7  8  1  0
  8  9  1  0
  9 10  2  0
  9 14  1  0
 10 11  1  0
 11 12  2  0
 12 13  1  0
 13 14  2  0
 15 16  2  0
 16 17  1  0
 17 18  1  0
 18 19  1  0
 19 20  1  0
 20 21  1  0
 20 36  1  0
 21 22  1  0
 22 23  1  0
 23 24  2  0
 23 25  1  0
 25 26  1  0
 26 27  1  0
 27 28  2  0
 27 34  1  0
 28 29  1  0
 29 30  2  0
 30 31  1  0
 30 33  1  0
 31 32  1  0
 33 34  2  0
 34 35  1  0
 36 37  2  0
 36 38  1  0
 38 39  2  3
 39 40  1  0
 40 41  2  0
 40 45  1  0
 41 42  1  0
 42 43  2  0
 43 44  1  0
 43 45  1  0
M  END
