
     RDKit          3D

 45 48  0  0  0  0  0  0  0  0999 V2000
    5.0310   -3.8420    1.4260 C   0  0  0  0  0  0  0  0  0  0  0  0
    3.8170   -3.5360    0.5620 C   0  0  0  0  0  0  0  0  0  0  0  0
    2.6670   -3.6020    1.3170 O   0  0  0  0  0  0  0  0  0  0  0  0
    1.4890   -3.3280    0.6680 C   0  0  0  0  0  0  0  0  0  0  0  0
    1.3510   -1.9340    0.2070 C   0  0  0  0  0  0  0  0  0  0  0  0
    0.1680   -1.4420    0.2240 N   0  0  0  0  0  0  0  0  0  0  0  0
   -0.3330   -0.2110   -0.1190 C   0  0  0  0  0  0  0  0  0  0  0  0
    0.1870    1.0230    0.2080 C   0  0  0  0  0  0  0  0  0  0  0  0
   -0.3920    2.2040   -0.1890 C   0  0  0  0  0  0  0  0  0  0  0  0
    0.1360    3.5310    0.1430 C   0  0  0  0  0  0  0  0  0  0  0  0
    1.2740    3.6960    0.8930 C   0  0  0  0  0  0  0  0  0  0  0  0
    1.7660    4.9690    1.1980 C   0  0  0  0  0  0  0  0  0  0  0  0
    1.0900    6.0720    0.7340 C   0  0  0  0  0  0  0  0  0  0  0  0
    1.5320    7.3520    1.0040 O   0  0  0  0  0  0  0  0  0  0  0  0
    2.7000    7.6000    1.7770 C   0  0  0  0  0  0  0  0  0  0  0  0
   -0.0500    5.9400   -0.0180 C   0  0  0  0  0  0  0  0  0  0  0  0
   -0.7380    7.0720   -0.4890 O   0  0  0  0  0  0  0  0  0  0  0  0
   -1.9210    6.8590   -1.2630 C   0  0  0  0  0  0  0  0  0  0  0  0
   -0.5010    4.6730   -0.2960 C   0  0  0  0  0  0  0  0  0  0  0  0
   -1.5310    2.1630   -0.9390 N   0  0  0  0  0  0  0  0  0  0  0  0
   -2.0880    0.9920   -1.2910 C   0  0  0  0  0  0  0  0  0  0  0  0
   -3.2650    0.9460   -2.0660 O   0  0  0  0  0  0  0  0  0  0  0  0
   -3.8300    2.1780   -2.4540 C   0  0  0  0  0  0  0  0  0  0  0  0
   -1.5000   -0.1790   -0.8870 C   0  0  0  0  0  0  0  0  0  0  0  0
   -2.1070   -1.4090   -1.2340 N   0  0  0  0  0  0  0  0  0  0  0  0
   -3.0900   -1.9620   -0.3910 C   0  0  0  0  0  0  0  0  0  0  0  0
   -3.3870   -1.3120    0.6440 O   0  0  0  0  0  0  0  0  0  0  0  0
   -3.7480   -3.1440   -0.6030 O   0  0  0  0  0  0  0  0  0  0  0  0
   -4.7360   -3.6640    0.2690 C   0  0  1  0  0  0  0  0  0  0  0  0
   -5.9150   -2.7180    0.3760 C   0  0  0  0  0  0  0  0  0  0  0  0
   -6.5870   -2.4640   -0.9490 C   0  0  0  0  0  0  0  0  0  0  0  0
   -5.2740   -4.9760   -0.2590 C   0  0  0  0  0  0  0  0  0  0  0  0
   -4.1730   -5.9860   -0.4850 C   0  0  0  0  0  0  0  0  0  0  0  0
   -3.0270   -6.1120    0.9040 S   0  0  0  0  0  0  0  0  0  0  0  0
   -2.8560   -4.4840    1.6960 C   0  0  0  0  0  0  0  0  0  0  0  0
   -4.1970   -3.8200    1.6780 C   0  0  0  0  0  0  0  0  0  0  0  0
    2.3300   -1.1010   -0.2410 O   0  0  0  0  0  0  0  0  0  0  0  0
    2.5040   -0.5810   -1.5100 C   0  0  0  0  0  0  0  0  0  0  0  0
    3.6760    0.3220   -1.5210 C   0  0  0  0  0  0  0  0  0  0  0  0
    3.9520    0.8130   -2.6620 O   0  0  0  0  0  0  0  0  0  0  0  0
    4.4690    0.6630   -0.4250 N   0  0  0  0  0  0  0  0  0  0  0  0
    5.6480    1.5660   -0.5300 C   0  0  0  0  0  0  0  0  0  0  0  0
    6.6830    0.6620    0.1560 C   0  0  0  0  0  0  0  0  0  0  0  0
    5.9140    0.2150    1.3850 C   0  0  0  0  0  0  0  0  0  0  0  0
    4.4560    0.3430    0.9810 C   0  0  0  0  0  0  0  0  0  0  0  0
  1  2  1  0
  2  3  1  0
  3  4  1  0
  4  5  1  0
  5  6  2  3
  5 37  1  0
  6  7  1  0
  7  8  2  0
  7 24  1  0
  8  9  1  0
  9 10  1  0
  9 20  2  0
 10 11  2  0
 10 19  1  0
 11 12  1  0
 12 13  2  0
 13 14  1  0
 13 16  1  0
 14 15  1  0
 16 17  1  0
 16 19  2  0
 17 18  1  0
 20 21  1  0
 21 22  1  0
 21 24  2  0
 22 23  1  0
 24 25  1  0
 25 26  1  0
 26 27  2  0
 26 28  1  0
 28 29  1  0
 29 30  1  1
 29 32  1  0
 29 36  1  0
 30 31  1  0
 32 33  1  0
 33 34  1  0
 34 35  1  0
 35 36  1  0
 37 38  1  0
 38 39  1  0
 39 40  2  0
 39 41  1  0
 41 42  1  0
 41 45  1  0
 42 43  1  0
 43 44  1  0
 44 45  1  0
M  END
