
     RDKit          3D

 45 48  0  0  0  0  0  0  0  0999 V2000
   -5.5460   -3.9860    1.2410 C   0  0  0  0  0  0  0  0  0  0  0  0
   -4.7320   -4.9150    0.3980 C   0  0  0  0  0  0  0  0  0  0  0  0
   -4.3510   -4.4400   -0.8460 O   0  0  0  0  0  0  0  0  0  0  0  0
   -3.5990   -3.3430   -1.1570 C   0  0  0  0  0  0  0  0  0  0  0  0
   -3.0910   -2.4780   -0.2200 C   0  0  0  0  0  0  0  0  0  0  0  0
   -2.3160   -1.3520   -0.5520 C   0  0  0  0  0  0  0  0  0  0  0  0
   -1.8330   -0.3110    0.7350 S   0  0  0  0  0  0  0  0  0  0  0  0
   -0.4670    0.7410    0.6140 C   0  0  0  0  0  0  0  0  0  0  0  0
   -0.4270    1.7950    1.4490 C   0  0  0  0  0  0  0  0  0  0  0  0
   -1.4960    2.0200    2.3990 C   0  0  0  0  0  0  0  0  0  0  0  0
   -2.4890    1.2630    2.5070 O   0  0  0  0  0  0  0  0  0  0  0  0
   -1.4850    3.1150    3.2610 O   0  0  0  0  0  0  0  0  0  0  0  0
   -2.4910    3.3960    4.2100 C   0  0  0  0  0  0  0  0  0  0  0  0
   -2.1290    4.6480    4.9050 C   0  0  0  0  0  0  0  0  0  0  0  0
   -0.9120    5.3850    4.5260 C   0  0  0  0  0  0  0  0  0  0  0  0
   -2.8400    5.0640    5.7880 O   0  0  0  0  0  0  0  0  0  0  0  0
    0.6990    0.6180   -0.3400 C   0  0  1  0  0  0  0  0  0  0  0  0
    1.5020    1.8420   -0.2190 C   0  0  0  0  0  0  0  0  0  0  0  0
    2.6010    1.8060    0.3620 O   0  0  0  0  0  0  0  0  0  0  0  0
    1.0560    3.1220   -0.7640 C   0  0  0  0  0  0  0  0  0  0  0  0
   -0.1170    3.3880   -1.4490 C   0  0  0  0  0  0  0  0  0  0  0  0
   -0.1270    4.6910   -1.7520 N   0  0  0  0  0  0  0  0  0  0  0  0
    0.9580    5.2890   -1.3110 N   0  0  0  0  0  0  0  0  0  0  0  0
    1.2070    6.6920   -1.4900 C   0  0  0  0  0  0  0  0  0  0  0  0
    1.9510    7.0120   -2.7610 C   0  0  0  0  0  0  0  0  0  0  0  0
    1.7090    4.3570   -0.6990 C   0  0  0  0  0  0  0  0  0  0  0  0
    3.0170    4.5490   -0.0540 C   0  0  0  0  0  0  0  0  0  0  0  0
    1.3740   -0.5700    0.0530 N   0  0  0  0  0  0  0  0  0  0  0  0
    1.9310   -0.6840    1.3190 C   0  0  0  0  0  0  0  0  0  0  0  0
    3.3360   -1.2250    1.3880 C   0  0  0  0  0  0  0  0  0  0  0  0
    3.4120   -2.3580    0.4100 N   0  0  0  0  0  0  0  0  0  0  0  0
    3.7420   -3.5890    0.9180 C   0  0  0  0  0  0  0  0  0  0  0  0
    3.9700   -3.6480    2.2260 O   0  0  0  0  0  0  0  0  0  0  0  0
    3.8990   -4.8890    0.2990 C   0  0  0  0  0  0  0  0  0  0  0  0
    3.7540   -5.2680   -0.9940 C   0  0  0  0  0  0  0  0  0  0  0  0
    4.0210   -6.6500   -1.0720 C   0  0  0  0  0  0  0  0  0  0  0  0
    4.3140   -7.0270    0.1960 C   0  0  0  0  0  0  0  0  0  0  0  0
    4.2370   -5.9890    0.9700 O   0  0  0  0  0  0  0  0  0  0  0  0
    3.1160   -1.9510   -0.9120 C   0  0  0  0  0  0  0  0  0  0  0  0
    1.6130   -1.5720   -0.8860 C   0  0  0  0  0  0  0  0  0  0  0  0
   -2.0720   -1.1330   -1.8730 C   0  0  0  0  0  0  0  0  0  0  0  0
   -2.5750   -1.9970   -2.8710 C   0  0  0  0  0  0  0  0  0  0  0  0
   -3.3290   -3.0860   -2.4990 C   0  0  0  0  0  0  0  0  0  0  0  0
   -3.8390   -3.9530   -3.4430 O   0  0  0  0  0  0  0  0  0  0  0  0
   -3.5680   -3.6890   -4.8140 C   0  0  0  0  0  0  0  0  0  0  0  0
  1  2  1  0
  2  3  1  0
  3  4  1  0
  4  5  2  0
  4 43  1  0
  5  6  1  0
  6  7  1  0
  6 41  2  0
  7  8  1  0
  8  9  2  3
  8 17  1  0
  9 10  1  0
 10 11  2  0
 10 12  1  0
 12 13  1  0
 13 14  1  0
 14 15  1  0
 14 16  2  0
 17 18  1  0
 17 28  1  1
 18 19  2  0
 18 20  1  0
 20 21  1  0
 20 26  2  0
 21 22  2  0
 22 23  1  0
 23 24  1  0
 23 26  1  0
 24 25  1  0
 26 27  1  0
 28 29  1  0
 28 40  1  0
 29 30  1  0
 30 31  1  0
 31 32  1  0
 31 39  1  0
 32 33  2  0
 32 34  1  0
 34 35  2  0
 34 38  1  0
 35 36  1  0
 36 37  2  0
 37 38  1  0
 39 40  1  0
 41 42  1  0
 42 43  2  0
 43 44  1  0
 44 45  1  0
M  END
