
     RDKit          3D

 45 48  0  0  0  0  0  0  0  0999 V2000
   10.1140    0.4240    1.9150 C   0  0  0  0  0  0  0  0  0  0  0  0
   10.0650   -1.0400    2.2430 C   0  0  0  0  0  0  0  0  0  0  0  0
    9.8840   -1.7750    1.0420 O   0  0  0  0  0  0  0  0  0  0  0  0
   10.8400   -1.6540    0.0510 C   0  0  0  0  0  0  0  0  0  0  0  0
   11.8220   -0.9000    0.2630 O   0  0  0  0  0  0  0  0  0  0  0  0
   10.7850   -2.3560   -1.2550 C   0  0  0  0  0  0  0  0  0  0  0  0
   10.2160   -1.4670   -2.3390 C   0  0  0  0  0  0  0  0  0  0  0  0
    8.9060   -1.0470   -2.0460 O   0  0  0  0  0  0  0  0  0  0  0  0
    7.8170   -1.8890   -1.8870 C   0  0  0  0  0  0  0  0  0  0  0  0
    7.9840   -3.1150   -2.0100 O   0  0  0  0  0  0  0  0  0  0  0  0
    6.4800   -1.3700   -1.5780 C   0  0  0  0  0  0  0  0  0  0  0  0
    5.4150   -2.2310   -1.4750 C   0  0  0  0  0  0  0  0  0  0  0  0
    4.1650   -1.7170   -1.1870 C   0  0  0  0  0  0  0  0  0  0  0  0
    3.9430   -0.3560   -0.9960 C   0  0  0  0  0  0  0  0  0  0  0  0
    2.6140    0.1500   -0.7020 C   0  0  0  0  0  0  0  0  0  0  0  0
    2.4180    1.3670   -0.5240 O   0  0  0  0  0  0  0  0  0  0  0  0
    1.5570   -0.7360   -0.6200 O   0  0  0  0  0  0  0  0  0  0  0  0
    0.2690   -0.1860   -0.3290 C   0  0  0  0  0  0  0  0  0  0  0  0
    0.3590    0.4850    0.9890 C   0  0  0  0  0  0  0  0  0  0  0  0
    1.2940    0.2430    1.9590 C   0  0  0  0  0  0  0  0  0  0  0  0
    1.0220    1.0800    3.0080 C   0  0  0  0  0  0  0  0  0  0  0  0
   -0.0520    1.8000    2.6590 N   0  0  0  0  0  0  0  0  0  0  0  0
   -0.4630    1.4470    1.4360 N   0  0  0  0  0  0  0  0  0  0  0  0
   -1.5770    1.9790    0.6850 C   0  0  0  0  0  0  0  0  0  0  0  0
   -2.8080    1.1780    1.0030 C   0  0  1  0  0  0  0  0  0  0  0  0
   -3.0630    1.2980    2.4850 C   0  0  0  0  0  0  0  0  0  0  0  0
   -4.0020    1.6510    0.1950 C   0  0  0  0  0  0  0  0  0  0  0  0
   -5.1770    0.7770    0.5940 C   0  0  0  0  0  0  0  0  0  0  0  0
   -5.0130   -0.1610    1.4030 O   0  0  0  0  0  0  0  0  0  0  0  0
   -6.4600    1.0180    0.0570 N   0  0  0  0  0  0  0  0  0  0  0  0
   -7.6340    0.2920    0.3440 C   0  0  0  0  0  0  0  0  0  0  0  0
   -7.7360   -0.7150    1.2660 C   0  0  0  0  0  0  0  0  0  0  0  0
   -8.9430   -1.3780    1.5310 C   0  0  0  0  0  0  0  0  0  0  0  0
  -10.0590   -1.0130    0.8500 C   0  0  0  0  0  0  0  0  0  0  0  0
   -9.9970    0.0180   -0.1060 C   0  0  0  0  0  0  0  0  0  0  0  0
   -8.8070    0.6440   -0.3430 C   0  0  0  0  0  0  0  0  0  0  0  0
   -8.7710    1.7120   -1.3950 C   0  0  0  0  0  0  0  0  0  0  0  0
  -11.2940    0.3330   -0.7300 C   0  0  0  0  0  0  0  0  0  0  0  0
  -11.9380   -0.9420   -1.2210 C   0  0  0  0  0  0  0  0  0  0  0  0
  -12.0880   -1.9570   -0.1160 C   0  0  0  0  0  0  0  0  0  0  0  0
  -11.3090   -1.5990    1.0260 O   0  0  0  0  0  0  0  0  0  0  0  0
    5.0180    0.4480   -1.1060 N   0  0  0  0  0  0  0  0  0  0  0  0
    6.2520   -0.0260   -1.3870 C   0  0  0  0  0  0  0  0  0  0  0  0
    7.6740    1.0610   -1.5320 S   0  0  0  0  0  0  0  0  0  0  0  0
    7.2200    2.7900   -1.2520 C   0  0  0  0  0  0  0  0  0  0  0  0
  1  2  1  0
  2  3  1  0
  3  4  1  0
  4  5  2  0
  4  6  1  0
  6  7  1  0
  7  8  1  0
  8  9  1  0
  9 10  2  0
  9 11  1  0
 11 12  2  0
 11 43  1  0
 12 13  1  0
 13 14  2  0
 14 15  1  0
 14 42  1  0
 15 16  2  0
 15 17  1  0
 17 18  1  0
 18 19  1  0
 19 20  2  0
 19 23  1  0
 20 21  1  0
 21 22  2  0
 22 23  1  0
 23 24  1  0
 24 25  1  0
 25 26  1  1
 25 27  1  0
 27 28  1  0
 28 29  2  0
 28 30  1  0
 30 31  1  0
 31 32  2  0
 31 36  1  0
 32 33  1  0
 33 34  2  0
 34 35  1  0
 34 41  1  0
 35 36  2  0
 35 38  1  0
 36 37  1  0
 38 39  1  0
 39 40  1  0
 40 41  1  0
 42 43  2  0
 43 44  1  0
 44 45  1  0
M  END
