
     RDKit          3D

 45 48  0  0  0  0  0  0  0  0999 V2000
   -3.4800    6.6620    1.2310 C   0  0  0  0  0  0  0  0  0  0  0  0
   -4.4140    5.6390    1.7880 C   0  0  0  0  0  0  0  0  0  0  0  0
   -3.8490    4.3660    1.9140 O   0  0  0  0  0  0  0  0  0  0  0  0
   -3.3780    3.7150    0.7560 C   0  0  0  0  0  0  0  0  0  0  0  0
   -3.4130    4.1960   -0.5280 C   0  0  0  0  0  0  0  0  0  0  0  0
   -2.8420    3.2080   -1.2940 C   0  0  0  0  0  0  0  0  0  0  0  0
   -2.4940    2.2180   -0.5400 O   0  0  0  0  0  0  0  0  0  0  0  0
   -2.7850    2.4550    0.6950 C   0  0  0  0  0  0  0  0  0  0  0  0
   -2.5340    1.5650    1.8200 C   0  0  0  0  0  0  0  0  0  0  0  0
   -2.9070    2.0760    2.9590 O   0  0  0  0  0  0  0  0  0  0  0  0
   -1.9590    0.2860    1.7980 N   0  0  0  0  0  0  0  0  0  0  0  0
   -1.7840   -0.3490    3.1160 C   0  0  0  0  0  0  0  0  0  0  0  0
   -1.6190   -0.4160    0.5930 C   0  0  1  0  0  0  0  0  0  0  0  0
   -0.1250   -0.4480    0.3930 C   0  0  0  0  0  0  0  0  0  0  0  0
    0.3570   -0.9380   -0.6510 O   0  0  0  0  0  0  0  0  0  0  0  0
    0.7760    0.0690    1.3590 N   0  0  0  0  0  0  0  0  0  0  0  0
    2.1770    0.1120    1.2950 C   0  0  0  0  0  0  0  0  0  0  0  0
    2.8810   -0.0590    0.1420 C   0  0  0  0  0  0  0  0  0  0  0  0
    4.2880   -0.0080    0.1650 C   0  0  0  0  0  0  0  0  0  0  0  0
    5.0060    0.2110    1.3100 C   0  0  0  0  0  0  0  0  0  0  0  0
    6.3540    0.2860    1.4470 O   0  0  0  0  0  0  0  0  0  0  0  0
    7.3900    0.1920    0.5520 C   0  0  0  0  0  0  0  0  0  0  0  0
    7.4590    1.2190   -0.5290 C   0  0  0  0  0  0  0  0  0  0  0  0
    8.6450    0.9150   -1.3440 N   0  0  0  0  0  0  0  0  0  0  0  0
    8.6550    0.0530   -2.5070 C   0  0  0  0  0  0  0  0  0  0  0  0
    9.9460    0.4470   -3.1940 C   0  0  0  0  0  0  0  0  0  0  0  0
   10.7990    0.7050   -2.0750 O   0  0  0  0  0  0  0  0  0  0  0  0
    9.9610    1.3820   -1.1670 C   0  0  0  0  0  0  0  0  0  0  0  0
   10.2950    2.2660   -0.3210 O   0  0  0  0  0  0  0  0  0  0  0  0
    4.2480    0.3830    2.4800 C   0  0  0  0  0  0  0  0  0  0  0  0
    2.8750    0.3370    2.4860 C   0  0  0  0  0  0  0  0  0  0  0  0
   -2.2580   -1.7880    0.5330 C   0  0  1  0  0  0  0  0  0  0  0  0
   -3.7310   -1.6770    0.5620 C   0  0  0  0  0  0  0  0  0  0  0  0
   -4.4220   -0.9350   -0.5190 C   0  0  0  0  0  0  0  0  0  0  0  0
   -5.9370   -0.9840   -0.2450 C   0  0  0  0  0  0  0  0  0  0  0  0
   -6.8260   -1.8710   -0.6540 C   0  0  0  0  0  0  0  0  0  0  0  0
   -8.1210   -1.7350   -0.2940 C   0  0  0  0  0  0  0  0  0  0  0  0
   -8.4650   -0.6740    0.4890 C   0  0  0  0  0  0  0  0  0  0  0  0
   -6.8290    0.1390    0.6930 S   0  0  0  0  0  0  0  0  0  0  0  0
   -1.6110   -2.6140   -0.4930 C   0  0  0  0  0  0  0  0  0  0  0  0
   -2.1820   -4.0090   -0.6250 C   0  0  0  0  0  0  0  0  0  0  0  0
   -3.0740   -4.4220    0.1500 O   0  0  0  0  0  0  0  0  0  0  0  0
   -1.7260   -4.8860   -1.6290 N   0  0  0  0  0  0  0  0  0  0  0  0
   -0.7060   -4.5090   -2.5750 C   0  0  0  0  0  0  0  0  0  0  0  0
   -2.2920   -6.2100   -1.7270 C   0  0  0  0  0  0  0  0  0  0  0  0
  1  2  1  0
  2  3  1  0
  3  4  1  0
  4  5  1  0
  4  8  2  0
  5  6  2  0
  6  7  1  0
  7  8  1  0
  8  9  1  0
  9 10  2  0
  9 11  1  0
 11 12  1  0
 13 11  1  1
 13 14  1  0
 13 32  1  0
 14 15  2  0
 14 16  1  0
 16 17  1  0
 17 18  2  0
 17 31  1  0
 18 19  1  0
 19 20  2  0
 20 21  1  0
 20 30  1  0
 21 22  1  0
 22 23  1  0
 23 24  1  0
 24 25  1  0
 24 28  1  0
 25 26  1  0
 26 27  1  0
 27 28  1  0
 28 29  2  0
 30 31  2  0
 32 33  1  6
 32 40  1  0
 33 34  1  0
 34 35  1  0
 35 36  2  0
 35 39  1  0
 36 37  1  0
 37 38  2  0
 38 39  1  0
 40 41  1  0
 41 42  2  0
 41 43  1  0
 43 44  1  0
 43 45  1  0
M  END
