
     RDKit          3D

 45 48  0  0  0  0  0  0  0  0999 V2000
    4.5210    3.6380    0.5740 C   0  0  0  0  0  0  0  0  0  0  0  0
    4.4530    2.3230   -0.2470 C   0  0  0  0  0  0  0  0  0  0  0  0
    3.0600    1.8320   -0.1460 C   0  0  0  0  0  0  0  0  0  0  0  0
    2.6700    0.5910   -0.8410 C   0  0  0  0  0  0  0  0  0  0  0  0
    3.2220   -0.6620   -0.4920 N   0  0  0  0  0  0  0  0  0  0  0  0
    4.3540   -1.1990   -1.2450 C   0  0  0  0  0  0  0  0  0  0  0  0
    5.6560   -1.0760   -0.5660 C   0  0  0  0  0  0  0  0  0  0  0  0
    5.8570   -0.8770    0.7780 C   0  0  0  0  0  0  0  0  0  0  0  0
    7.1150   -0.7840    1.3430 C   0  0  0  0  0  0  0  0  0  0  0  0
    8.2490   -0.8850    0.5850 C   0  0  0  0  0  0  0  0  0  0  0  0
    9.5240   -0.7950    1.1230 O   0  0  0  0  0  0  0  0  0  0  0  0
    9.6940   -0.5900    2.5130 C   0  0  0  0  0  0  0  0  0  0  0  0
    8.0770   -1.0890   -0.7970 C   0  0  0  0  0  0  0  0  0  0  0  0
    9.2170   -1.1860   -1.5160 O   0  0  0  0  0  0  0  0  0  0  0  0
    9.4260   -1.4130   -2.8490 C   0  0  0  0  0  0  0  0  0  0  0  0
    8.9830   -2.7310   -3.4080 C   0  0  0  0  0  0  0  0  0  0  0  0
    9.8960   -4.0380   -2.5040 S   0  0  0  0  0  0  0  0  0  0  0  0
    6.8200   -1.1790   -1.3440 C   0  0  0  0  0  0  0  0  0  0  0  0
    2.7230   -1.5100    0.5140 C   0  0  0  0  0  0  0  0  0  0  0  0
    3.3600   -2.6810    0.6580 O   0  0  0  0  0  0  0  0  0  0  0  0
    1.6450   -1.4030    1.4710 C   0  0  0  0  0  0  0  0  0  0  0  0
    0.6650   -0.4630    1.4420 O   0  0  0  0  0  0  0  0  0  0  0  0
   -0.3840   -0.2650    0.5920 C   0  0  0  0  0  0  0  0  0  0  0  0
   -0.5250   -1.0670   -0.3550 O   0  0  0  0  0  0  0  0  0  0  0  0
   -1.3450    0.8490    0.7500 C   0  0  0  0  0  0  0  0  0  0  0  0
   -2.4020    1.1240   -0.0270 N   0  0  0  0  0  0  0  0  0  0  0  0
   -2.9990    2.1930    0.4500 N   0  0  0  0  0  0  0  0  0  0  0  0
   -4.1850    2.9060   -0.0210 C   0  0  0  0  0  0  0  0  0  0  0  0
   -5.3540    2.3110    0.6600 C   0  0  0  0  0  0  0  0  0  0  0  0
   -5.6580    2.7370    1.8080 O   0  0  0  0  0  0  0  0  0  0  0  0
   -6.1900    1.2550    0.0910 C   0  0  0  0  0  0  0  0  0  0  0  0
   -5.9570    0.7230   -1.1540 C   0  0  0  0  0  0  0  0  0  0  0  0
   -6.7920   -0.2620   -1.6230 C   0  0  0  0  0  0  0  0  0  0  0  0
   -7.8550   -0.7520   -0.9160 C   0  0  0  0  0  0  0  0  0  0  0  0
   -8.0910   -0.2190    0.3360 C   0  0  0  0  0  0  0  0  0  0  0  0
   -7.2650    0.7670    0.8190 C   0  0  0  0  0  0  0  0  0  0  0  0
   -9.2810   -0.9190    0.8780 C   0  0  0  0  0  0  0  0  0  0  0  0
   -9.9720   -1.3340   -0.4070 C   0  0  1  0  0  0  0  0  0  0  0  0
  -10.8850   -2.5010   -0.2480 C   0  0  0  0  0  0  0  0  0  0  0  0
  -10.5810   -0.1510   -1.1030 C   0  0  0  0  0  0  0  0  0  0  0  0
  -11.6090    0.5600   -0.2620 C   0  0  0  0  0  0  0  0  0  0  0  0
   -8.8270   -1.7320   -1.1820 O   0  0  0  0  0  0  0  0  0  0  0  0
   -2.3270    2.6300    1.5550 C   0  0  0  0  0  0  0  0  0  0  0  0
   -2.6110    3.6350    2.2760 O   0  0  0  0  0  0  0  0  0  0  0  0
   -1.3240    1.7900    1.7110 N   0  0  0  0  0  0  0  0  0  0  0  0
  1  2  1  0
  2  3  1  0
  3  4  1  0
  4  5  1  0
  5  6  1  0
  5 19  1  0
  6  7  1  0
  7  8  2  0
  7 18  1  0
  8  9  1  0
  9 10  2  0
 10 11  1  0
 10 13  1  0
 11 12  1  0
 13 14  1  0
 13 18  2  0
 14 15  1  0
 15 16  1  0
 16 17  1  0
 19 20  2  0
 19 21  1  0
 21 22  1  0
 22 23  1  0
 23 24  2  0
 23 25  1  0
 25 26  2  0
 25 45  1  0
 26 27  1  0
 27 28  1  0
 27 43  1  0
 28 29  1  0
 29 30  2  0
 29 31  1  0
 31 32  2  0
 31 36  1  0
 32 33  1  0
 33 34  2  0
 34 35  1  0
 34 42  1  0
 35 36  2  0
 35 37  1  0
 37 38  1  0
 38 39  1  1
 38 40  1  0
 38 42  1  0
 40 41  1  0
 43 44  2  0
 43 45  1  0
M  END
