
     RDKit          3D

 45 48  0  0  0  0  0  0  0  0999 V2000
    6.3940   -7.4860    1.2780 C   0  0  0  0  0  0  0  0  0  0  0  0
    5.2390   -6.5420    0.9140 C   0  0  0  0  0  0  0  0  0  0  0  0
    5.6790   -5.1210    0.9910 C   0  0  0  0  0  0  0  0  0  0  0  0
    4.7500   -4.1290    0.6690 O   0  0  0  0  0  0  0  0  0  0  0  0
    4.0670   -4.0650   -0.5050 C   0  0  0  0  0  0  0  0  0  0  0  0
    4.2560   -4.9870   -1.3420 O   0  0  0  0  0  0  0  0  0  0  0  0
    3.1350   -3.0140   -0.8940 C   0  0  0  0  0  0  0  0  0  0  0  0
    2.3940   -2.9420   -2.0820 C   0  0  0  0  0  0  0  0  0  0  0  0
    1.6880   -1.8280   -2.2830 C   0  0  0  0  0  0  0  0  0  0  0  0
    1.7220   -0.8360   -1.3410 C   0  0  0  0  0  0  0  0  0  0  0  0
    1.1310    0.5460   -1.4360 C   0  0  1  0  0  0  0  0  0  0  0  0
    0.1740    0.8500   -0.4480 N   0  0  0  0  0  0  0  0  0  0  0  0
   -1.0300    0.1250   -0.2340 C   0  0  0  0  0  0  0  0  0  0  0  0
   -1.1900   -0.8930   -0.9430 O   0  0  0  0  0  0  0  0  0  0  0  0
   -2.0680    0.5140    0.7110 C   0  0  0  0  0  0  0  0  0  0  0  0
   -1.8820    1.8270    1.2420 O   0  0  0  0  0  0  0  0  0  0  0  0
   -2.0560    2.9120    0.3040 C   0  0  0  0  0  0  0  0  0  0  0  0
   -3.0980   -0.1760    1.0840 C   0  0  0  0  0  0  0  0  0  0  0  0
   -4.0080    0.3500    1.9920 O   0  0  0  0  0  0  0  0  0  0  0  0
   -4.7820    1.4730    1.9370 C   0  0  0  0  0  0  0  0  0  0  0  0
   -3.4420   -1.5370    0.6570 C   0  0  0  0  0  0  0  0  0  0  0  0
   -2.5500   -2.5880    0.6550 C   0  0  0  0  0  0  0  0  0  0  0  0
   -3.2530   -3.6850    0.2390 N   0  0  0  0  0  0  0  0  0  0  0  0
   -4.4930   -3.3460   -0.0010 O   0  0  0  0  0  0  0  0  0  0  0  0
   -4.6430   -2.0400    0.2440 C   0  0  0  0  0  0  0  0  0  0  0  0
   -5.9490   -1.3660    0.0540 C   0  0  0  0  0  0  0  0  0  0  0  0
   -6.9700   -2.2870   -0.3260 N   0  0  0  0  0  0  0  0  0  0  0  0
   -7.2320   -3.2750    0.7160 C   0  0  0  0  0  0  0  0  0  0  0  0
   -6.8050   -2.8930   -1.6170 C   0  0  0  0  0  0  0  0  0  0  0  0
    2.2980    1.4550   -1.3850 C   0  0  0  0  0  0  0  0  0  0  0  0
    3.6170    1.0520   -1.3360 N   0  0  0  0  0  0  0  0  0  0  0  0
    4.3990    2.0670   -1.2940 O   0  0  0  0  0  0  0  0  0  0  0  0
    3.7130    3.1860   -1.3110 C   0  0  0  0  0  0  0  0  0  0  0  0
    4.2980    4.5390   -1.2740 C   0  0  0  0  0  0  0  0  0  0  0  0
    4.2770    5.1630    0.0750 C   0  0  0  0  0  0  0  0  0  0  0  0
    2.3860    2.8220   -1.3680 C   0  0  0  0  0  0  0  0  0  0  0  0
    1.2730    3.7410   -1.4420 C   0  0  0  0  0  0  0  0  0  0  0  0
    0.5930    3.7580   -2.5320 O   0  0  0  0  0  0  0  0  0  0  0  0
    0.8600    4.6450   -0.3890 C   0  0  0  0  0  0  0  0  0  0  0  0
    1.1090    4.4850    0.9490 C   0  0  0  0  0  0  0  0  0  0  0  0
    0.7120    5.4010    1.9160 C   0  0  0  0  0  0  0  0  0  0  0  0
    0.0250    6.5440    1.5320 C   0  0  0  0  0  0  0  0  0  0  0  0
   -0.2390    6.7270    0.1930 C   0  0  0  0  0  0  0  0  0  0  0  0
    0.1650    5.8060   -0.7490 C   0  0  0  0  0  0  0  0  0  0  0  0
    2.7720   -1.4980   -0.1370 S   0  0  0  0  0  0  0  0  0  0  0  0
  1  2  1  0
  2  3  1  0
  3  4  1  0
  4  5  1  0
  5  6  2  0
  5  7  1  0
  7  8  2  0
  7 45  1  0
  8  9  1  0
  9 10  2  0
 10 11  1  0
 10 45  1  0
 11 12  1  1
 11 30  1  0
 12 13  1  0
 13 14  2  0
 13 15  1  0
 15 16  1  0
 15 18  2  3
 16 17  1  0
 18 19  1  0
 18 21  1  0
 19 20  1  0
 21 22  1  0
 21 25  2  0
 22 23  2  0
 23 24  1  0
 24 25  1  0
 25 26  1  0
 26 27  1  0
 27 28  1  0
 27 29  1  0
 30 31  2  0
 30 36  1  0
 31 32  1  0
 32 33  1  0
 33 34  1  0
 33 36  2  0
 34 35  1  0
 36 37  1  0
 37 38  2  0
 37 39  1  0
 39 40  2  0
 39 44  1  0
 40 41  1  0
 41 42  2  0
 42 43  1  0
 43 44  2  0
M  END
