
     RDKit          3D

 35 38  0  0  0  0  0  0  0  0999 V2000
   -6.2580   -2.4680    2.1790 C   0  0  0  0  0  0  0  0  0  0  0  0
   -5.4950   -1.8530    1.0090 C   0  0  0  0  0  0  0  0  0  0  0  0
   -4.0190   -1.8170    1.3210 C   0  0  0  0  0  0  0  0  0  0  0  0
   -3.3110   -1.2000    0.1350 C   0  0  1  0  0  0  0  0  0  0  0  0
   -3.7920    0.2310   -0.1590 C   0  0  2  0  0  0  0  0  0  0  0  0
   -4.6770    0.2810   -1.2040 O   0  0  0  0  0  0  0  0  0  0  0  0
   -2.3110    0.4810   -0.5510 C   0  0  1  0  0  0  0  0  0  0  0  0
   -2.2240    0.0410   -2.0030 C   0  0  0  0  0  0  0  0  0  0  0  0
   -1.9720    1.8930   -0.2950 C   0  0  0  0  0  0  0  0  0  0  0  0
   -0.9070    2.2510    0.6610 C   0  0  1  0  0  0  0  0  0  0  0  0
   -0.3700    1.2480    1.4300 O   0  0  0  0  0  0  0  0  0  0  0  0
    0.1470    3.1720    0.0860 C   0  0  0  0  0  0  0  0  0  0  0  0
    1.1070    2.7660   -0.7220 C   0  0  0  0  0  0  0  0  0  0  0  0
    1.2430    1.3360   -1.1490 C   0  0  0  0  0  0  0  0  0  0  0  0
    2.5770    0.7440   -1.0320 C   0  0  0  0  0  0  0  0  0  0  0  0
    2.7240   -0.5550   -0.2960 C   0  0  1  0  0  0  0  0  0  0  0  0
    4.2370   -0.7570   -0.1330 C   0  0  0  0  0  0  0  0  0  0  0  0
    4.6640   -1.1160    1.2390 C   0  0  0  0  0  0  0  0  0  0  0  0
    3.9150   -0.4780    2.3580 C   0  0  0  0  0  0  0  0  0  0  0  0
    2.7280    0.3130    1.8580 C   0  0  0  0  0  0  0  0  0  0  0  0
    2.0940   -0.4580    0.9210 O   0  0  0  0  0  0  0  0  0  0  0  0
    2.2150   -1.7670   -0.9830 C   0  0  2  0  0  0  0  0  0  0  0  0
    2.6660   -3.0040   -0.2200 C   0  0  0  0  0  0  0  0  0  0  0  0
    2.8520   -1.8970   -2.3750 C   0  0  0  0  0  0  0  0  0  0  0  0
    0.7430   -1.8960   -1.1920 C   0  0  1  0  0  0  0  0  0  0  0  0
    0.5630   -3.4230   -2.1600 Cl  0  0  0  0  0  0  0  0  0  0  0  0
   -0.0710   -2.1340    0.0250 C   0  0  0  0  0  0  0  0  0  0  0  0
    0.0690   -3.3210    0.5140 O   0  0  0  0  0  0  0  0  0  0  0  0
   -0.8480   -1.1850    0.5180 O   0  0  0  0  0  0  0  0  0  0  0  0
   -1.9950   -0.5230    0.4910 C   0  0  2  0  0  0  0  0  0  0  0  0
    2.0980    3.7240   -1.2390 C   0  0  0  0  0  0  0  0  0  0  0  0
    3.3870    3.2080   -2.3200 Cl  0  0  0  0  0  0  0  0  0  0  0  0
    2.0270    4.9950   -0.8940 C   0  0  0  0  0  0  0  0  0  0  0  0
    1.0170    5.4140   -0.0460 O   0  0  0  0  0  0  0  0  0  0  0  0
    0.0190    4.6030    0.4950 C   0  0  0  0  0  0  0  0  0  0  0  0
  1  2  1  0
  2  3  1  0
  4  3  1  1
  4  5  1  0
  4 30  1  0
  5  6  1  6
  5  7  1  0
  7  8  1  6
  7  9  1  0
  7 30  1  0
  9 10  1  0
 10 11  1  6
 10 12  1  0
 12 13  2  0
 12 35  1  0
 13 14  1  0
 13 31  1  0
 14 15  1  0
 16 15  1  6
 16 17  1  0
 16 21  1  0
 16 22  1  0
 17 18  1  0
 18 19  1  0
 19 20  1  0
 20 21  1  0
 22 23  1  1
 22 24  1  0
 22 25  1  0
 25 26  1  6
 25 27  1  0
 27 28  2  0
 27 29  1  0
 30 29  1  6
 31 32  1  0
 31 33  2  0
 33 34  1  0
 34 35  1  0
M  END
