
     RDKit          3D

 34 37  0  0  0  0  0  0  0  0999 V2000
   -8.5400    1.6740   -2.1170 C   0  0  0  0  0  0  0  0  0  0  0  0
   -7.6670    0.9690   -1.4340 C   0  0  0  0  0  0  0  0  0  0  0  0
   -7.0670    1.5560   -0.2050 C   0  0  0  0  0  0  0  0  0  0  0  0
   -5.7950    0.8880   -0.0170 N   0  0  1  0  0  0  0  0  0  0  0  0
   -4.9680    1.5030    0.9690 C   0  0  0  0  0  0  0  0  0  0  0  0
   -3.5640    1.5890    0.4250 C   0  0  1  0  0  0  0  0  0  0  0  0
   -2.6010    2.2320    1.4030 C   0  0  0  0  0  0  0  0  0  0  0  0
   -1.3070    2.4000    0.7250 C   0  0  0  0  0  0  0  0  0  0  0  0
   -0.4890    1.1760    0.4400 C   0  0  1  0  0  0  0  0  0  0  0  0
   -0.1060    0.4020    1.6000 C   0  0  0  0  0  0  0  0  0  0  0  0
   -0.6160    0.7330    2.7270 O   0  0  0  0  0  0  0  0  0  0  0  0
    0.7860   -0.7070    1.5920 C   0  0  0  0  0  0  0  0  0  0  0  0
    0.6870   -1.6640    2.6110 C   0  0  0  0  0  0  0  0  0  0  0  0
    1.5050   -2.7730    2.6260 C   0  0  0  0  0  0  0  0  0  0  0  0
    1.3660   -3.7620    3.7250 C   0  0  0  0  0  0  0  0  0  0  0  0
    2.4060   -2.9100    1.6250 N   0  0  0  0  0  0  0  0  0  0  0  0
    2.5300   -2.0470    0.6650 N   0  0  0  0  0  0  0  0  0  0  0  0
    3.4990   -2.2080   -0.3980 C   0  0  0  0  0  0  0  0  0  0  0  0
    4.7670   -1.5320    0.0560 C   0  0  0  0  0  0  0  0  0  0  0  0
    5.8760   -1.6120   -0.9360 C   0  0  1  0  0  0  0  0  0  0  0  0
    5.5320   -0.9750   -2.2430 C   0  0  0  0  0  0  0  0  0  0  0  0
    5.2800    0.5030   -2.0310 C   0  0  0  0  0  0  0  0  0  0  0  0
    6.5170    1.0510   -1.4850 N   0  0  1  0  0  0  0  0  0  0  0  0
    6.4230    2.4820   -1.4060 C   0  0  0  0  0  0  0  0  0  0  0  0
    6.8460    0.5110   -0.1990 C   0  0  0  0  0  0  0  0  0  0  0  0
    7.1010   -0.9750   -0.3080 C   0  0  0  0  0  0  0  0  0  0  0  0
    1.7260   -0.9380    0.6340 C   0  0  0  0  0  0  0  0  0  0  0  0
    1.9080   -0.1430   -0.3270 O   0  0  0  0  0  0  0  0  0  0  0  0
   -1.1790    0.2490   -0.5440 C   0  0  0  0  0  0  0  0  0  0  0  0
   -2.8800   -0.0530    0.0760 S   0  0  0  0  0  0  0  0  0  0  0  0
   -6.0930   -0.4960    0.2960 C   0  0  0  0  0  0  0  0  0  0  0  0
   -6.4800   -1.1780   -0.9800 C   0  0  0  0  0  0  0  0  0  0  0  0
   -7.3080   -0.3750   -1.9010 C   0  0  1  0  0  0  0  0  0  0  0  0
   -8.4890   -1.0570   -2.2000 F   0  0  0  0  0  0  0  0  0  0  0  0
  1  2  2  0
  2  3  1  0
  2 33  1  0
  3  4  1  0
  4  5  1  1
  4 31  1  0
  6  5  1  1
  6  7  1  0
  6 30  1  0
  7  8  1  0
  8  9  1  0
  9 10  1  1
  9 29  1  0
 10 11  2  0
 10 12  1  0
 12 13  2  0
 12 27  1  0
 13 14  1  0
 14 15  1  0
 14 16  2  0
 16 17  1  0
 17 18  1  0
 17 27  1  0
 18 19  1  0
 20 19  1  1
 20 21  1  0
 20 26  1  0
 21 22  1  0
 22 23  1  0
 23 24  1  1
 23 25  1  0
 25 26  1  0
 27 28  2  0
 29 30  1  0
 31 32  1  0
 32 33  1  0
 33 34  1  1
M  CHG  2   4   1  23   1
M  END
