
     RDKit          3D

 34 37  0  0  0  0  0  0  0  0999 V2000
    3.6090   -0.4720    3.9470 C   0  0  0  0  0  0  0  0  0  0  0  0
    3.2580   -0.1740    2.5160 C   0  0  0  0  0  0  0  0  0  0  0  0
    4.2200   -0.2640    1.5800 C   0  0  0  0  0  0  0  0  0  0  0  0
    3.9220    0.0100    0.2300 C   0  0  0  0  0  0  0  0  0  0  0  0
    4.9980   -0.1470   -0.7390 C   0  0  0  0  0  0  0  0  0  0  0  0
    4.8490   -0.0780   -1.9580 O   0  0  0  0  0  0  0  0  0  0  0  0
    6.2930   -0.3930   -0.2820 O   0  0  0  0  0  0  0  0  0  0  0  0
    7.3840   -0.5550   -1.1710 C   0  0  2  0  0  0  0  0  0  0  0  0
    7.9220   -1.9700   -0.9300 C   0  0  0  0  0  0  0  0  0  0  0  0
    8.4940    0.4030   -0.8590 C   0  0  0  0  0  0  0  0  0  0  0  0
    2.6380    0.3690   -0.1080 C   0  0  0  0  0  0  0  0  0  0  0  0
    1.6230    0.4650    0.8490 C   0  0  0  0  0  0  0  0  0  0  0  0
    1.9700    0.1880    2.1480 C   0  0  0  0  0  0  0  0  0  0  0  0
    0.8130    0.2970    3.4310 Cl  0  0  0  0  0  0  0  0  0  0  0  0
    0.2170    0.8100    0.5470 C   0  0  2  0  0  0  0  0  0  0  0  0
   -0.7220   -0.3190    0.7680 C   0  0  0  0  0  0  0  0  0  0  0  0
   -2.1620   -0.1310    0.5210 C   0  0  2  0  0  0  0  0  0  0  0  0
   -2.7100   -1.5570    0.8460 C   0  0  0  0  0  0  0  0  0  0  0  0
   -2.4870    0.2360   -0.8920 C   0  0  0  0  0  0  0  0  0  0  0  0
   -3.9680    0.3940   -1.1610 C   0  0  1  0  0  0  0  0  0  0  0  0
   -4.6790   -0.8470   -1.5850 C   0  0  0  0  0  0  0  0  0  0  0  0
   -5.9370   -1.2100   -0.9580 C   0  0  2  0  0  0  0  0  0  0  0  0
   -6.7750   -1.8140   -1.9370 O   0  0  0  0  0  0  0  0  0  0  0  0
   -6.7120   -0.2210   -0.1450 C   0  0  0  0  0  0  0  0  0  0  0  0
   -6.3750   -0.3210    1.3010 C   0  0  0  0  0  0  0  0  0  0  0  0
   -5.3630    0.5250    1.9070 C   0  0  0  0  0  0  0  0  0  0  0  0
   -4.2910    1.1360    1.0420 C   0  0  2  0  0  0  0  0  0  0  0  0
   -4.6510    1.0440   -0.2280 O   0  0  0  0  0  0  0  0  0  0  0  0
   -2.9100    0.7640    1.4440 C   0  0  2  0  0  0  0  0  0  0  0  0
   -2.1390    1.8750    1.7420 O   0  0  0  0  0  0  0  0  0  0  0  0
    0.1720    0.9600   -0.8720 O   0  0  0  0  0  0  0  0  0  0  0  0
    1.1740    1.7010   -1.3940 C   0  0  2  0  0  0  0  0  0  0  0  0
    0.8030    2.0820   -2.8100 C   0  0  0  0  0  0  0  0  0  0  0  0
    2.3610    0.7090   -1.5300 C   0  0  0  0  0  0  0  0  0  0  0  0
  1  2  1  0
  2  3  2  0
  2 13  1  0
  3  4  1  0
  4  5  1  0
  4 11  2  0
  5  6  2  0
  5  7  1  0
  7  8  1  0
  8  9  1  1
  8 10  1  0
 11 12  1  0
 11 34  1  0
 12 13  2  0
 12 15  1  0
 13 14  1  0
 15 16  1  6
 15 31  1  0
 16 17  1  0
 17 18  1  1
 17 19  1  0
 17 29  1  0
 20 19  1  1
 20 21  1  0
 20 28  1  0
 21 22  1  0
 22 23  1  6
 22 24  1  0
 24 25  1  0
 25 26  1  0
 27 26  1  1
 27 28  1  0
 27 29  1  0
 29 30  1  6
 31 32  1  0
 32 33  1  6
 32 34  1  0
M  END
