
     RDKit          3D

 31 35  0  0  0  0  0  0  0  0999 V2000
   -6.3760    2.1750   -0.7660 C   0  0  0  0  0  0  0  0  0  0  0  0
   -5.4500    1.2350   -0.1530 N   0  0  2  0  0  0  0  0  0  0  0  0
   -6.2140    0.0900    0.2760 C   0  0  0  0  0  0  0  0  0  0  0  0
   -4.8630    1.9220    0.9900 C   0  0  0  0  0  0  0  0  0  0  0  0
   -4.4020    0.8240   -1.0610 C   0  0  0  0  0  0  0  0  0  0  0  0
   -3.3170    0.1780   -0.2320 C   0  0  0  0  0  0  0  0  0  0  0  0
   -2.1540   -0.2980   -1.0870 C   0  0  0  0  0  0  0  0  0  0  0  0
   -1.1920   -0.8920   -0.1780 N   0  0  0  0  0  0  0  0  0  0  0  0
   -0.1270   -0.1530    0.4560 C   0  0  0  0  0  0  0  0  0  0  0  0
   -0.0200    1.0880    0.4480 O   0  0  0  0  0  0  0  0  0  0  0  0
    0.8080   -1.0710    1.1100 C   0  0  1  0  0  0  0  0  0  0  0  0
    0.2300   -2.4660    0.9420 C   0  0  1  0  0  0  0  0  0  0  0  0
   -1.0680   -2.2290    0.2750 C   0  0  0  0  0  0  0  0  0  0  0  0
   -1.9540   -3.1060    0.1280 O   0  0  0  0  0  0  0  0  0  0  0  0
    1.1200   -3.1690   -0.0680 C   0  0  2  0  0  0  0  0  0  0  0  0
    2.2900   -3.8540    0.5530 C   0  0  0  0  0  0  0  0  0  0  0  0
    3.4460   -3.4560   -0.3390 C   0  0  0  0  0  0  0  0  0  0  0  0
    2.8240   -2.6470   -1.4360 C   0  0  0  0  0  0  0  0  0  0  0  0
    1.6880   -2.0300   -0.7830 N   0  0  2  0  0  0  0  0  0  0  0  0
    2.0920   -1.1820    0.3200 C   0  0  1  0  0  0  0  0  0  0  0  0
    2.6390    0.1060   -0.1180 C   0  0  0  0  0  0  0  0  0  0  0  0
    2.1910    0.9530   -1.0510 N   0  0  0  0  0  0  0  0  0  0  0  0
    3.0440    2.0150   -1.0910 C   0  0  0  0  0  0  0  0  0  0  0  0
    4.0090    1.7580   -0.1480 C   0  0  0  0  0  0  0  0  0  0  0  0
    5.1350    2.6410    0.1510 C   0  0  0  0  0  0  0  0  0  0  0  0
    6.1410    2.5200    1.0350 C   0  0  0  0  0  0  0  0  0  0  0  0
    7.0740    3.4680    1.1360 C   0  0  0  0  0  0  0  0  0  0  0  0
    6.9550    4.5590    0.2990 C   0  0  0  0  0  0  0  0  0  0  0  0
    7.9870    6.0150    0.1340 Cl  0  0  0  0  0  0  0  0  0  0  0  0
    5.4650    4.1960   -0.6430 S   0  0  0  0  0  0  0  0  0  0  0  0
    3.7460    0.6310    0.4080 O   0  0  0  0  0  0  0  0  0  0  0  0
  2  1  1  6
  2  3  1  0
  2  4  1  0
  2  5  1  0
  5  6  1  0
  6  7  1  0
  7  8  1  0
  8  9  1  0
  8 13  1  0
  9 10  2  0
 11  9  1  6
 11 12  1  0
 11 20  1  0
 12 13  1  6
 12 15  1  0
 13 14  2  0
 15 16  1  1
 15 19  1  0
 16 17  1  0
 17 18  1  0
 19 18  1  1
 19 20  1  0
 20 21  1  6
 21 22  2  0
 21 31  1  0
 22 23  1  0
 23 24  2  0
 24 25  1  0
 24 31  1  0
 25 26  2  0
 25 30  1  0
 26 27  1  0
 27 28  2  0
 28 29  1  0
 28 30  1  0
M  CHG  2   2   1  19   1
M  END
