
     RDKit          3D

 31 34  0  0  0  0  0  0  0  0999 V2000
   -2.7370    4.4380   -2.6600 C   0  0  0  0  0  0  0  0  0  0  0  0
   -2.7600    3.8070   -1.3060 C   0  0  2  0  0  0  0  0  0  0  0  0
   -4.1610    3.7340   -0.7260 C   0  0  0  0  0  0  0  0  0  0  0  0
   -1.8990    4.5170   -0.2840 C   0  0  0  0  0  0  0  0  0  0  0  0
   -1.5820    3.3910    0.6690 C   0  0  0  0  0  0  0  0  0  0  0  0
   -1.2060    3.0940    1.9260 N   0  0  0  0  0  0  0  0  0  0  0  0
   -1.1190    1.7900    2.0490 N   0  0  0  0  0  0  0  0  0  0  0  0
   -1.4270    1.1750    0.9000 C   0  0  0  0  0  0  0  0  0  0  0  0
   -1.4450   -0.3140    0.6120 C   0  0  2  0  0  0  0  0  0  0  0  0
   -1.2180   -0.9840    1.9080 C   0  0  0  0  0  0  0  0  0  0  0  0
   -1.2070   -2.4360    1.9550 C   0  0  0  0  0  0  0  0  0  0  0  0
   -1.4440   -3.3120    1.0370 C   0  0  0  0  0  0  0  0  0  0  0  0
   -1.3970   -4.7430    1.2190 C   0  0  0  0  0  0  0  0  0  0  0  0
   -1.6690   -5.6300    0.1680 C   0  0  0  0  0  0  0  0  0  0  0  0
   -1.6190   -6.9890    0.3580 C   0  0  0  0  0  0  0  0  0  0  0  0
   -1.3010   -7.5220    1.5810 C   0  0  0  0  0  0  0  0  0  0  0  0
   -1.0410   -6.6860    2.5860 N   0  0  0  0  0  0  0  0  0  0  0  0
   -1.0860   -5.3310    2.4150 C   0  0  0  0  0  0  0  0  0  0  0  0
   -0.2840   -0.4660   -0.3810 C   0  0  0  0  0  0  0  0  0  0  0  0
    0.9360   -0.0310    0.2390 N   0  0  0  0  0  0  0  0  0  0  0  0
    2.1460   -0.0940   -0.5040 C   0  0  0  0  0  0  0  0  0  0  0  0
    2.1380   -0.5240   -1.7030 O   0  0  0  0  0  0  0  0  0  0  0  0
    3.3750    0.3100    0.0510 N   0  0  0  0  0  0  0  0  0  0  0  0
    4.6390    0.2900   -0.5920 C   0  0  0  0  0  0  0  0  0  0  0  0
    4.8930   -0.0920   -1.8120 C   0  0  0  0  0  0  0  0  0  0  0  0
    6.3490    0.0570   -2.0540 C   0  0  0  0  0  0  0  0  0  0  0  0
    6.8780    0.5790   -0.7870 C   0  0  0  0  0  0  0  0  0  0  0  0
    5.8810    0.7110    0.0540 C   0  0  0  0  0  0  0  0  0  0  0  0
    6.0080    1.1850    1.3660 O   0  0  0  0  0  0  0  0  0  0  0  0
   -1.7240    2.1910    0.0140 C   0  0  0  0  0  0  0  0  0  0  0  0
   -2.1520    2.3990   -1.3990 C   0  0  0  0  0  0  0  0  0  0  0  0
  2  1  1  6
  2  3  1  0
  2  4  1  0
  2 31  1  0
  4  5  1  0
  5  6  1  0
  5 30  2  0
  6  7  1  0
  7  8  2  0
  8  9  1  0
  8 30  1  0
  9 10  1  1
  9 19  1  0
 10 11  1  0
 11 12  2  3
 12 13  1  0
 13 14  2  0
 13 18  1  0
 14 15  1  0
 15 16  2  0
 16 17  1  0
 17 18  2  0
 19 20  1  0
 20 21  1  0
 21 22  2  0
 21 23  1  0
 23 24  1  0
 24 25  2  0
 24 28  1  0
 25 26  1  0
 26 27  1  0
 27 28  2  0
 28 29  1  0
 30 31  1  0
M  END
