
     RDKit          3D

 31 34  0  0  0  0  0  0  0  0999 V2000
   -2.2760    1.1220   -3.7640 C   0  0  0  0  0  0  0  0  0  0  0  0
   -0.9910    1.2200   -3.0370 C   0  0  0  0  0  0  0  0  0  0  0  0
    0.1890    1.5300   -3.7250 C   0  0  0  0  0  0  0  0  0  0  0  0
    1.3810    1.6180   -3.0340 C   0  0  0  0  0  0  0  0  0  0  0  0
    1.3940    1.3990   -1.6720 C   0  0  0  0  0  0  0  0  0  0  0  0
    2.6980    1.5060   -0.9840 C   0  0  0  0  0  0  0  0  0  0  0  0
    3.4230    0.1780   -0.9430 C   0  0  2  0  0  0  0  0  0  0  0  0
    2.6270   -0.7300   -0.2610 O   0  0  0  0  0  0  0  0  0  0  0  0
    4.7410    0.3070   -0.2530 C   0  0  0  0  0  0  0  0  0  0  0  0
    5.6370    1.0810   -0.6960 O   0  0  0  0  0  0  0  0  0  0  0  0
    4.9900   -0.4400    0.9040 N   0  0  0  0  0  0  0  0  0  0  0  0
    6.2030   -0.4000    1.6460 C   0  0  0  0  0  0  0  0  0  0  0  0
    7.3270    0.3250    1.4130 C   0  0  0  0  0  0  0  0  0  0  0  0
    8.2170    0.0330    2.3840 N   0  0  0  0  0  0  0  0  0  0  0  0
    7.6870   -0.8500    3.2150 N   0  0  0  0  0  0  0  0  0  0  0  0
    6.4470   -1.1470    2.8000 C   0  0  0  0  0  0  0  0  0  0  0  0
    5.4730   -2.0860    3.4160 C   0  0  0  0  0  0  0  0  0  0  0  0
    0.2120    1.0940   -1.0180 C   0  0  0  0  0  0  0  0  0  0  0  0
   -0.9920    0.9990   -1.6820 C   0  0  0  0  0  0  0  0  0  0  0  0
   -2.1920    0.6900   -1.0210 N   0  0  0  0  0  0  0  0  0  0  0  0
   -2.2950    0.4420    0.3980 C   0  0  0  0  0  0  0  0  0  0  0  0
   -3.7090    0.1500    0.7270 C   0  0  0  0  0  0  0  0  0  0  0  0
   -4.6100    1.1300    1.0740 C   0  0  0  0  0  0  0  0  0  0  0  0
   -5.9270    0.8870    1.3840 C   0  0  0  0  0  0  0  0  0  0  0  0
   -6.3970   -0.4070    1.3530 C   0  0  0  0  0  0  0  0  0  0  0  0
   -7.7260   -0.7130    1.6590 C   0  0  0  0  0  0  0  0  0  0  0  0
   -8.1810   -2.0130    1.6240 C   0  0  0  0  0  0  0  0  0  0  0  0
   -7.3050   -2.9730    1.2870 N   0  0  0  0  0  0  0  0  0  0  0  0
   -6.0180   -2.7070    0.9870 C   0  0  0  0  0  0  0  0  0  0  0  0
   -5.5230   -1.4180    1.0100 C   0  0  0  0  0  0  0  0  0  0  0  0
   -4.2000   -1.1470    0.7020 C   0  0  0  0  0  0  0  0  0  0  0  0
  1  2  1  0
  2  3  2  0
  2 19  1  0
  3  4  1  0
  4  5  2  0
  5  6  1  0
  5 18  1  0
  6  7  1  0
  7  8  1  1
  7  9  1  0
  9 10  2  0
  9 11  1  0
 11 12  1  0
 12 13  2  0
 12 16  1  0
 13 14  1  0
 14 15  1  0
 15 16  2  0
 16 17  1  0
 18 19  2  0
 19 20  1  0
 20 21  1  0
 21 22  1  0
 22 23  2  0
 22 31  1  0
 23 24  1  0
 24 25  2  0
 25 26  1  0
 25 30  1  0
 26 27  2  0
 27 28  1  0
 28 29  2  0
 29 30  1  0
 30 31  2  0
M  END
