
     RDKit          3D

 31 34  0  0  0  0  0  0  0  0999 V2000
    9.5840    2.9440    0.6800 C   0  0  0  0  0  0  0  0  0  0  0  0
    8.2940    2.4240    0.5130 O   0  0  0  0  0  0  0  0  0  0  0  0
    8.0350    1.0770    0.5380 C   0  0  0  0  0  0  0  0  0  0  0  0
    9.0670    0.1670    0.7350 C   0  0  0  0  0  0  0  0  0  0  0  0
    8.7840   -1.1830    0.7570 C   0  0  0  0  0  0  0  0  0  0  0  0
    7.4780   -1.5900    0.5820 C   0  0  0  0  0  0  0  0  0  0  0  0
    6.4480   -0.6850    0.3860 C   0  0  0  0  0  0  0  0  0  0  0  0
    5.1460   -1.0810    0.2120 C   0  0  0  0  0  0  0  0  0  0  0  0
    4.1000   -0.1700    0.0140 C   0  0  0  0  0  0  0  0  0  0  0  0
    2.8040   -0.6860   -0.1630 N   0  0  0  0  0  0  0  0  0  0  0  0
    1.5890    0.0070   -0.1850 C   0  0  0  0  0  0  0  0  0  0  0  0
    1.5780    1.2440   -0.0250 O   0  0  0  0  0  0  0  0  0  0  0  0
    0.3220   -0.6440   -0.3870 N   0  0  0  0  0  0  0  0  0  0  0  0
   -0.8850    0.1470   -0.3930 C   0  0  0  0  0  0  0  0  0  0  0  0
   -2.0230   -0.7830   -0.6640 C   0  0  0  0  0  0  0  0  0  0  0  0
   -3.2920   -0.2500   -0.6020 C   0  0  0  0  0  0  0  0  0  0  0  0
   -4.3770   -1.0620   -0.8460 C   0  0  0  0  0  0  0  0  0  0  0  0
   -5.6980   -0.5860   -0.7890 N   0  0  0  0  0  0  0  0  0  0  0  0
   -6.0240    0.7320   -0.2990 C   0  0  1  0  0  0  0  0  0  0  0  0
   -7.5060    1.0130   -0.4760 C   0  0  0  0  0  0  0  0  0  0  0  0
   -7.9210    2.1100    0.4860 C   0  0  0  0  0  0  0  0  0  0  0  0
   -7.7970    1.6410    1.9220 C   0  0  0  0  0  0  0  0  0  0  0  0
   -6.7260    0.7020    2.0720 N   0  0  0  0  0  0  0  0  0  0  0  0
   -5.6220    0.9010    1.1530 C   0  0  0  0  0  0  0  0  0  0  0  0
   -4.1040   -2.4030   -1.1460 C   0  0  0  0  0  0  0  0  0  0  0  0
   -2.8340   -2.9150   -1.2030 C   0  0  0  0  0  0  0  0  0  0  0  0
   -2.5680   -4.3530   -1.5270 C   0  0  0  0  0  0  0  0  0  0  0  0
   -1.8260   -2.0630   -0.9540 N   0  0  0  0  0  0  0  0  0  0  0  0
    4.4210    1.1540   -0.0010 C   0  0  0  0  0  0  0  0  0  0  0  0
    5.7430    1.6040    0.1730 C   0  0  0  0  0  0  0  0  0  0  0  0
    6.7280    0.6610    0.3640 C   0  0  0  0  0  0  0  0  0  0  0  0
  1  2  1  0
  2  3  1  0
  3  4  2  0
  3 31  1  0
  4  5  1  0
  5  6  2  0
  6  7  1  0
  7  8  2  0
  7 31  1  0
  8  9  1  0
  9 10  1  0
  9 29  2  0
 10 11  1  0
 11 12  2  0
 11 13  1  0
 13 14  1  0
 14 15  1  0
 15 16  2  0
 15 28  1  0
 16 17  1  0
 17 18  1  0
 17 25  2  0
 19 18  1  1
 19 20  1  0
 19 24  1  0
 20 21  1  0
 21 22  1  0
 22 23  1  0
 23 24  1  0
 25 26  1  0
 26 27  1  0
 26 28  2  0
 29 30  1  0
 30 31  2  0
M  END
