
     RDKit          3D

 31 34  0  0  0  0  0  0  0  0999 V2000
  -10.5500   -1.0580    0.0760 C   0  0  0  0  0  0  0  0  0  0  0  0
   -9.2430   -0.8110    0.0620 C   0  0  0  0  0  0  0  0  0  0  0  0
   -8.5370   -0.6350   -1.1930 C   0  0  0  0  0  0  0  0  0  0  0  0
   -7.2540   -0.3900   -1.2860 C   0  0  0  0  0  0  0  0  0  0  0  0
   -6.6750   -0.2320   -2.6660 C   0  0  0  0  0  0  0  0  0  0  0  0
   -6.4090   -0.2720   -0.1240 C   0  0  0  0  0  0  0  0  0  0  0  0
   -5.1080   -0.0240   -0.2390 C   0  0  0  0  0  0  0  0  0  0  0  0
   -4.2380    0.0980    0.9250 C   0  0  0  0  0  0  0  0  0  0  0  0
   -4.5920   -0.0140    2.2510 C   0  0  0  0  0  0  0  0  0  0  0  0
   -3.4730    0.1690    3.0110 N   0  0  0  0  0  0  0  0  0  0  0  0
   -2.4190    0.3940    2.2090 C   0  0  0  0  0  0  0  0  0  0  0  0
   -1.1050    0.6440    2.1050 N   0  0  0  0  0  0  0  0  0  0  0  0
   -0.7470    0.7560    0.8160 C   0  0  0  0  0  0  0  0  0  0  0  0
    0.5470    1.0160    0.3170 N   0  0  0  0  0  0  0  0  0  0  0  0
    1.7180    1.2050    1.1900 C   0  0  0  0  0  0  0  0  0  0  0  0
    2.9040    1.4550    0.3700 C   0  0  0  0  0  0  0  0  0  0  0  0
    4.0120    0.8150    0.2480 C   0  0  0  0  0  0  0  0  0  0  0  0
    4.5180   -0.3880    0.8630 C   0  0  0  0  0  0  0  0  0  0  0  0
    3.7780   -1.1960    1.8410 C   0  0  0  0  0  0  0  0  0  0  0  0
    5.7530   -0.8030    0.5110 C   0  0  0  0  0  0  0  0  0  0  0  0
    6.4780   -1.9400    0.9610 N   0  0  0  0  0  0  0  0  0  0  0  0
    7.7440   -1.9960    0.3290 C   0  0  0  0  0  0  0  0  0  0  0  0
    8.6360   -2.8540    0.4850 O   0  0  0  0  0  0  0  0  0  0  0  0
    7.8250   -0.8530   -0.5520 C   0  0  0  0  0  0  0  0  0  0  0  0
    8.6130   -0.1690   -1.4730 C   0  0  0  0  0  0  0  0  0  0  0  0
    7.9010    0.9090   -1.8860 C   0  0  0  0  0  0  0  0  0  0  0  0
    8.3520    1.9310   -2.8750 C   0  0  0  0  0  0  0  0  0  0  0  0
    6.7710    0.8830   -1.2670 O   0  0  0  0  0  0  0  0  0  0  0  0
    6.6470   -0.1380   -0.4520 C   0  0  0  0  0  0  0  0  0  0  0  0
   -1.8450    0.5760    0.0630 N   0  0  0  0  0  0  0  0  0  0  0  0
   -2.8880    0.3520    0.8910 C   0  0  0  0  0  0  0  0  0  0  0  0
  1  2  2  0
  2  3  1  0
  3  4  2  3
  4  5  1  0
  4  6  1  0
  6  7  2  3
  7  8  1  0
  8  9  2  0
  8 31  1  0
  9 10  1  0
 10 11  1  0
 11 12  1  0
 11 31  2  0
 12 13  1  0
 13 14  1  0
 13 30  2  0
 14 15  1  0
 15 16  1  0
 16 17  2  3
 17 18  1  0
 18 19  1  0
 18 20  2  3
 20 21  1  0
 20 29  1  0
 21 22  1  0
 22 23  2  0
 22 24  1  0
 24 25  1  0
 24 29  2  0
 25 26  2  0
 26 27  1  0
 26 28  1  0
 28 29  1  0
 30 31  1  0
M  END
