
     RDKit          3D

 31 35  0  0  0  0  0  0  0  0999 V2000
   -3.1530   -1.1150    1.1170 C   0  0  0  0  0  0  0  0  0  0  0  0
   -2.3370   -1.8150    0.1450 N   0  0  0  0  0  0  0  0  0  0  0  0
   -1.4870   -1.2680   -0.7370 C   0  0  0  0  0  0  0  0  0  0  0  0
   -1.1630    0.0990   -0.9460 N   0  0  0  0  0  0  0  0  0  0  0  0
   -2.1090    1.1740   -1.1300 C   0  0  0  0  0  0  0  0  0  0  0  0
   -3.2350    1.1110   -1.6940 O   0  0  0  0  0  0  0  0  0  0  0  0
   -1.4970    2.3760   -0.5210 C   0  0  0  0  0  0  0  0  0  0  0  0
   -2.1380    3.4980   -0.3230 C   0  0  0  0  0  0  0  0  0  0  0  0
   -1.5910    4.7160    0.2710 C   0  0  0  0  0  0  0  0  0  0  0  0
   -0.3930    5.3440    0.0200 C   0  0  0  0  0  0  0  0  0  0  0  0
   -0.3290    6.4680    0.8390 C   0  0  0  0  0  0  0  0  0  0  0  0
   -1.5010    6.4510    1.5410 C   0  0  0  0  0  0  0  0  0  0  0  0
   -2.2270    5.4290    1.2040 O   0  0  0  0  0  0  0  0  0  0  0  0
   -0.1180    2.0080   -0.1910 C   0  0  0  0  0  0  0  0  0  0  0  0
    0.1110    0.7550   -1.0420 C   0  0  1  0  0  0  0  0  0  0  0  0
    1.2300   -0.0470   -0.5410 C   0  0  0  0  0  0  0  0  0  0  0  0
    1.0030   -1.1870   -0.0140 O   0  0  0  0  0  0  0  0  0  0  0  0
    2.5830    0.3720   -0.6080 N   0  0  0  0  0  0  0  0  0  0  0  0
    3.6840   -0.3720   -0.1350 C   0  0  0  0  0  0  0  0  0  0  0  0
    4.9470    0.2100   -0.3050 C   0  0  0  0  0  0  0  0  0  0  0  0
    6.1030   -0.4200    0.1150 C   0  0  0  0  0  0  0  0  0  0  0  0
    5.9810   -1.6530    0.7140 C   0  0  0  0  0  0  0  0  0  0  0  0
    4.7190   -2.1850    0.8600 C   0  0  0  0  0  0  0  0  0  0  0  0
    3.6050   -1.5610    0.4460 N   0  0  0  0  0  0  0  0  0  0  0  0
   -0.9670   -2.3110   -1.4170 N   0  0  0  0  0  0  0  0  0  0  0  0
   -1.4740   -3.4830   -0.9800 C   0  0  0  0  0  0  0  0  0  0  0  0
   -1.2920   -4.8050   -1.3150 C   0  0  0  0  0  0  0  0  0  0  0  0
   -1.9980   -5.7740   -0.6340 C   0  0  0  0  0  0  0  0  0  0  0  0
   -2.8840   -5.4790    0.3740 C   0  0  0  0  0  0  0  0  0  0  0  0
   -3.0570   -4.1550    0.7000 C   0  0  0  0  0  0  0  0  0  0  0  0
   -2.3470   -3.1680    0.0170 C   0  0  0  0  0  0  0  0  0  0  0  0
  1  2  1  0
  2  3  1  0
  2 31  1  0
  3  4  1  0
  3 25  2  0
  4  5  1  0
  4 15  1  0
  5  6  2  0
  5  7  1  0
  7  8  2  3
  7 14  1  0
  8  9  1  0
  9 10  2  0
  9 13  1  0
 10 11  1  0
 11 12  2  0
 12 13  1  0
 14 15  1  0
 15 16  1  1
 16 17  2  0
 16 18  1  0
 18 19  1  0
 19 20  2  0
 19 24  1  0
 20 21  1  0
 21 22  2  0
 22 23  1  0
 23 24  2  0
 25 26  1  0
 26 27  2  0
 26 31  1  0
 27 28  1  0
 28 29  2  0
 29 30  1  0
 30 31  2  0
M  END
