
     RDKit          3D

 29 30  0  0  0  0  0  0  0  0999 V2000
    8.9010   -0.7180    0.0850 C   0  0  0  0  0  0  0  0  0  0  0  0
    7.5890   -0.3140    0.7890 C   0  0  0  0  0  0  0  0  0  0  0  0
    7.4930   -1.0490    2.0600 C   0  0  0  0  0  0  0  0  0  0  0  0
    6.3120   -0.8230    2.9440 C   0  0  0  0  0  0  0  0  0  0  0  0
    5.0750   -1.0590    2.5690 O   0  0  0  0  0  0  0  0  0  0  0  0
    4.1070   -0.6840    1.7410 C   0  0  0  0  0  0  0  0  0  0  0  0
    2.8680   -1.3810    1.7330 C   0  0  0  0  0  0  0  0  0  0  0  0
    1.8690   -0.9860    0.8790 C   0  0  0  0  0  0  0  0  0  0  0  0
    1.9820    0.0630    0.0070 C   0  0  0  0  0  0  0  0  0  0  0  0
    0.9720    0.4830   -0.8760 N   0  0  0  0  0  0  0  0  0  0  0  0
   -0.3110   -0.0420   -1.0590 C   0  0  0  0  0  0  0  0  0  0  0  0
   -0.6400   -1.0170   -0.3640 O   0  0  0  0  0  0  0  0  0  0  0  0
   -1.2830    0.5080   -2.0350 C   0  0  1  0  0  0  0  0  0  0  0  0
   -2.6030   -0.1500   -2.0930 C   0  0  1  0  0  0  0  0  0  0  0  0
   -3.2110   -0.7100   -0.8800 C   0  0  0  0  0  0  0  0  0  0  0  0
   -3.4820    0.1290    0.2250 N   0  0  0  0  0  0  0  0  0  0  0  0
   -4.2250   -0.5960    1.2700 C   0  0  0  0  0  0  0  0  0  0  0  0
   -5.6890   -0.2310    1.2170 C   0  0  1  0  0  0  0  0  0  0  0  0
   -6.2710   -0.5470   -0.0070 O   0  0  0  0  0  0  0  0  0  0  0  0
   -6.4670   -0.7930    2.3600 C   0  0  0  0  0  0  0  0  0  0  0  0
   -6.4360   -2.2820    2.4420 C   0  0  0  0  0  0  0  0  0  0  0  0
   -3.4990    0.7240   -2.8420 N   0  0  0  0  0  0  0  0  0  0  0  0
   -2.7470    1.2800   -3.9440 C   0  0  0  0  0  0  0  0  0  0  0  0
   -1.9180    2.4300   -3.3730 C   0  0  0  0  0  0  0  0  0  0  0  0
   -1.3760    2.0230   -2.0150 C   0  0  1  0  0  0  0  0  0  0  0  0
   -2.0790    2.5520   -0.9770 O   0  0  0  0  0  0  0  0  0  0  0  0
    3.2140    0.7220    0.0470 C   0  0  0  0  0  0  0  0  0  0  0  0
    3.3800    1.7900   -0.8150 O   0  0  0  0  0  0  0  0  0  0  0  0
    4.2460    0.3760    0.8750 C   0  0  0  0  0  0  0  0  0  0  0  0
  1  2  1  0
  2  3  1  0
  3  4  1  0
  4  5  1  0
  5  6  1  0
  6  7  2  0
  6 29  1  0
  7  8  1  0
  8  9  2  0
  9 10  1  0
  9 27  1  0
 10 11  1  0
 11 12  2  0
 13 11  1  1
 13 14  1  0
 13 25  1  0
 14 15  1  1
 14 22  1  0
 15 16  1  0
 16 17  1  0
 17 18  1  0
 18 19  1  6
 18 20  1  0
 20 21  1  0
 22 23  1  0
 23 24  1  0
 24 25  1  0
 25 26  1  1
 27 28  1  0
 27 29  2  0
M  CHG  2  16   1  22   1
M  END
