
     RDKit          3D

 31 35  0  0  0  0  0  0  0  0999 V2000
   -6.0530   -2.7620    1.0470 C   0  0  0  0  0  0  0  0  0  0  0  0
   -5.2910   -1.5190    0.7710 C   0  0  0  0  0  0  0  0  0  0  0  0
   -3.9490   -1.5310    0.8400 N   0  0  0  0  0  0  0  0  0  0  0  0
   -3.2780   -0.3860    0.5830 C   0  0  0  0  0  0  0  0  0  0  0  0
   -1.9120   -0.1200    0.5830 C   0  0  0  0  0  0  0  0  0  0  0  0
   -1.7240    1.2030    0.2580 C   0  0  0  0  0  0  0  0  0  0  0  0
   -0.5190    1.9530    0.1270 N   0  0  0  0  0  0  0  0  0  0  0  0
    0.7670    1.4410    0.3200 C   0  0  0  0  0  0  0  0  0  0  0  0
    0.9090    0.2320    0.6330 O   0  0  0  0  0  0  0  0  0  0  0  0
    2.0020    2.2960    0.1650 C   0  0  0  0  0  0  0  0  0  0  0  0
    3.1910    1.5520    0.4110 N   0  0  0  0  0  0  0  0  0  0  0  0
    3.8860    1.3550    1.6340 C   0  0  0  0  0  0  0  0  0  0  0  0
    3.5630    1.8230    2.7750 O   0  0  0  0  0  0  0  0  0  0  0  0
    5.0570    0.5150    1.3910 C   0  0  0  0  0  0  0  0  0  0  0  0
    5.1040    0.1980    0.0900 C   0  0  0  0  0  0  0  0  0  0  0  0
    6.1290   -0.6240   -0.5170 C   0  0  0  0  0  0  0  0  0  0  0  0
    6.1690   -0.9330   -1.8020 C   0  0  0  0  0  0  0  0  0  0  0  0
    7.2840   -1.7880   -2.2880 C   0  0  0  0  0  0  0  0  0  0  0  0
    7.5440   -2.9740   -1.4160 C   0  0  0  0  0  0  0  0  0  0  0  0
    7.2060   -2.7080    0.0320 C   0  0  0  0  0  0  0  0  0  0  0  0
    7.2500   -1.1970    0.2990 C   0  0  0  0  0  0  0  0  0  0  0  0
    3.9610    0.8220   -0.5580 C   0  0  0  0  0  0  0  0  0  0  0  0
    3.6790    0.7450   -1.7710 O   0  0  0  0  0  0  0  0  0  0  0  0
   -2.9720    1.7050    0.0700 N   0  0  0  0  0  0  0  0  0  0  0  0
   -3.8830    0.7690    0.2610 N   0  0  0  0  0  0  0  0  0  0  0  0
   -5.2390    0.7920    0.1890 C   0  0  0  0  0  0  0  0  0  0  0  0
   -5.9540   -0.3580    0.4440 C   0  0  0  0  0  0  0  0  0  0  0  0
   -7.4500   -0.3970    0.3800 C   0  0  0  0  0  0  0  0  0  0  0  0
   -7.9780    0.7500   -0.4480 C   0  0  0  0  0  0  0  0  0  0  0  0
   -7.3560    2.0600   -0.0610 C   0  0  0  0  0  0  0  0  0  0  0  0
   -5.8690    2.0880   -0.1700 C   0  0  0  0  0  0  0  0  0  0  0  0
  1  2  1  0
  2  3  2  0
  2 27  1  0
  3  4  1  0
  4  5  2  0
  4 25  1  0
  5  6  1  0
  6  7  1  0
  6 24  2  0
  7  8  1  0
  8  9  2  0
  8 10  1  0
 10 11  1  0
 11 12  1  0
 11 22  1  0
 12 13  2  0
 12 14  1  0
 14 15  2  0
 15 16  1  0
 15 22  1  0
 16 17  2  0
 16 21  1  0
 17 18  1  0
 18 19  1  0
 19 20  1  0
 20 21  1  0
 22 23  2  0
 24 25  1  0
 25 26  1  0
 26 27  2  0
 26 31  1  0
 27 28  1  0
 28 29  1  0
 29 30  1  0
 30 31  1  0
M  END
