
     RDKit          3D

 31 35  0  0  0  0  0  0  0  0999 V2000
   -4.4550    3.1990    1.7350 C   0  0  0  0  0  0  0  0  0  0  0  0
   -5.1940    2.0890    1.0880 C   0  0  0  0  0  0  0  0  0  0  0  0
   -4.5400    1.3340    0.1790 C   0  0  0  0  0  0  0  0  0  0  0  0
   -3.1400    1.6530   -0.1190 C   0  0  0  0  0  0  0  0  0  0  0  0
   -2.2970    0.5020   -0.0460 N   0  0  0  0  0  0  0  0  0  0  0  0
   -1.2460    0.6680    0.9460 C   0  0  0  0  0  0  0  0  0  0  0  0
    0.0650    0.3660    0.5970 C   0  0  0  0  0  0  0  0  0  0  0  0
    1.1110    0.4950    1.4820 C   0  0  0  0  0  0  0  0  0  0  0  0
    2.4620    0.2110    1.1410 N   0  0  0  0  0  0  0  0  0  0  0  0
    3.6080    0.0940    2.0200 C   0  0  0  0  0  0  0  0  0  0  0  0
    4.6630    0.7690    1.1780 C   0  0  0  0  0  0  0  0  0  0  0  0
    5.5890    1.5340    1.5450 O   0  0  0  0  0  0  0  0  0  0  0  0
    4.3720    0.3400   -0.1570 N   0  0  0  0  0  0  0  0  0  0  0  0
    5.3130    0.2860   -1.2650 C   0  0  0  0  0  0  0  0  0  0  0  0
    6.0300   -1.0130   -1.3280 C   0  0  0  0  0  0  0  0  0  0  0  0
    7.2870   -1.3340   -0.8340 C   0  0  0  0  0  0  0  0  0  0  0  0
    7.5340   -2.6610   -1.1190 C   0  0  0  0  0  0  0  0  0  0  0  0
    6.4780   -3.1210   -1.7560 O   0  0  0  0  0  0  0  0  0  0  0  0
    5.5760   -2.1850   -1.8970 C   0  0  0  0  0  0  0  0  0  0  0  0
    2.9800   -0.0150   -0.1820 C   0  0  0  0  0  0  0  0  0  0  0  0
    2.3580   -0.4380   -1.1820 O   0  0  0  0  0  0  0  0  0  0  0  0
    0.7840    0.9440    2.7490 C   0  0  0  0  0  0  0  0  0  0  0  0
   -0.5310    1.2520    3.1140 C   0  0  0  0  0  0  0  0  0  0  0  0
   -1.4730    1.0940    2.1820 N   0  0  0  0  0  0  0  0  0  0  0  0
   -2.2370   -0.7530   -0.7230 C   0  0  0  0  0  0  0  0  0  0  0  0
   -3.4570   -1.2310   -1.3630 C   0  0  0  0  0  0  0  0  0  0  0  0
   -3.4460   -2.2450   -2.2290 C   0  0  0  0  0  0  0  0  0  0  0  0
   -4.8140   -2.4990   -2.7040 C   0  0  0  0  0  0  0  0  0  0  0  0
   -5.6430   -1.5040   -2.0040 C   0  0  0  0  0  0  0  0  0  0  0  0
   -4.8380   -0.7910   -1.2430 C   0  0  0  0  0  0  0  0  0  0  0  0
   -5.3210    0.2920   -0.4090 N   0  0  0  0  0  0  0  0  0  0  0  0
  1  2  1  0
  2  3  2  3
  3  4  1  0
  3 31  1  0
  4  5  1  0
  5  6  1  0
  5 25  1  0
  6  7  2  0
  6 24  1  0
  7  8  1  0
  8  9  1  0
  8 22  2  0
  9 10  1  0
  9 20  1  0
 10 11  1  0
 11 12  2  0
 11 13  1  0
 13 14  1  0
 13 20  1  0
 14 15  1  0
 15 16  1  0
 15 19  2  0
 16 17  2  0
 17 18  1  0
 18 19  1  0
 20 21  2  0
 22 23  1  0
 23 24  2  0
 25 26  1  0
 26 27  2  0
 26 30  1  0
 27 28  1  0
 28 29  1  0
 29 30  2  0
 30 31  1  0
M  END
