
     RDKit          3D

 33 34  0  0  0  0  0  0  0  0999 V2000
   -4.6910    1.9480   -4.2250 C   0  0  0  0  0  0  0  0  0  0  0  0
   -5.3280    2.3370   -2.9240 C   0  0  0  0  0  0  0  0  0  0  0  0
   -5.1340    1.2970   -1.8290 C   0  0  1  0  0  0  0  0  0  0  0  0
   -5.7630    0.0260   -2.3260 C   0  0  0  0  0  0  0  0  0  0  0  0
   -7.1280    0.3200   -2.5510 O   0  0  0  0  0  0  0  0  0  0  0  0
   -3.6850    1.2050   -1.5570 C   0  0  0  0  0  0  0  0  0  0  0  0
   -3.2870    0.2110   -0.4880 C   0  0  1  0  0  0  0  0  0  0  0  0
   -1.9040    0.2900   -0.4010 O   0  0  0  0  0  0  0  0  0  0  0  0
   -1.0260   -0.7000   -0.7640 C   0  0  0  0  0  0  0  0  0  0  0  0
   -1.5930   -1.7180   -1.1980 O   0  0  0  0  0  0  0  0  0  0  0  0
    0.4200   -0.4740   -0.6160 C   0  0  2  0  0  0  0  0  0  0  0  0
    1.2240   -1.6850   -1.0800 C   0  0  0  0  0  0  0  0  0  0  0  0
    2.6520   -1.1820   -1.2690 C   0  0  0  0  0  0  0  0  0  0  0  0
    3.1270   -0.4940   -0.0260 C   0  0  2  0  0  0  0  0  0  0  0  0
    3.4530    0.9630   -0.2310 C   0  0  0  0  0  0  0  0  0  0  0  0
    4.3490    1.2360    0.9730 C   0  0  0  0  0  0  0  0  0  0  0  0
    4.9100   -0.1320    1.2610 C   0  0  2  0  0  0  0  0  0  0  0  0
    6.3930   -0.1070    1.1350 C   0  0  0  0  0  0  0  0  0  0  0  0
    7.0580    0.6440    1.8910 O   0  0  0  0  0  0  0  0  0  0  0  0
    7.0940   -0.8700    0.2240 O   0  0  0  0  0  0  0  0  0  0  0  0
    8.4790   -0.7950    0.1630 C   0  0  1  0  0  0  0  0  0  0  0  0
    9.1880   -2.0940    0.3420 C   0  0  0  0  0  0  0  0  0  0  0  0
    8.8610   -0.2160   -1.1940 C   0  0  0  0  0  0  0  0  0  0  0  0
    4.3640   -1.0100    0.3560 O   0  0  0  0  0  0  0  0  0  0  0  0
    2.1790   -0.6660    1.1360 C   0  0  0  0  0  0  0  0  0  0  0  0
    0.7910   -0.1620    0.8160 C   0  0  1  0  0  0  0  0  0  0  0  0
    0.6550    1.1940    1.0630 O   0  0  0  0  0  0  0  0  0  0  0  0
   -4.0660    0.3750    0.7660 C   0  0  2  0  0  0  0  0  0  0  0  0
   -3.8920    1.5810    1.4040 O   0  0  0  0  0  0  0  0  0  0  0  0
   -3.9310   -0.8150    1.6950 C   0  0  0  0  0  0  0  0  0  0  0  0
   -4.7340   -0.6220    2.9610 C   0  0  2  0  0  0  0  0  0  0  0  0
   -4.2710    0.6020    3.7190 C   0  0  0  0  0  0  0  0  0  0  0  0
   -4.5840   -1.8120    3.8890 C   0  0  0  0  0  0  0  0  0  0  0  0
  1  2  1  0
  3  2  1  6
  3  4  1  0
  3  6  1  0
  4  5  1  0
  7  6  1  6
  7  8  1  0
  7 28  1  0
  8  9  1  0
  9 10  2  0
 11  9  1  1
 11 12  1  0
 11 26  1  0
 12 13  1  0
 14 13  1  6
 14 15  1  0
 14 24  1  0
 14 25  1  0
 15 16  1  0
 16 17  1  0
 17 18  1  6
 17 24  1  0
 18 19  2  0
 18 20  1  0
 20 21  1  0
 21 22  1  6
 21 23  1  0
 25 26  1  0
 26 27  1  6
 28 29  1  1
 28 30  1  0
 30 31  1  0
 31 32  1  1
 31 33  1  0
M  END
