
     RDKit          3D

 32 34  0  0  0  0  0  0  0  0999 V2000
   -6.7750    4.6500   -0.0150 C   0  0  0  0  0  0  0  0  0  0  0  0
   -5.7880    3.6580   -0.0490 O   0  0  0  0  0  0  0  0  0  0  0  0
   -5.9950    2.3280    0.2850 C   0  0  0  0  0  0  0  0  0  0  0  0
   -7.1450    1.9740    0.6460 O   0  0  0  0  0  0  0  0  0  0  0  0
   -4.9220    1.3380    0.2290 C   0  0  1  0  0  0  0  0  0  0  0  0
   -4.3660    1.1900   -1.1840 C   0  0  0  0  0  0  0  0  0  0  0  0
   -3.7560    1.6510    1.1350 C   0  0  0  0  0  0  0  0  0  0  0  0
   -3.0070    0.3260    1.1540 C   0  0  2  0  0  0  0  0  0  0  0  0
   -1.7850    0.4070    0.3800 N   0  0  0  0  0  0  0  0  0  0  0  0
   -0.5060    0.2320    0.9900 C   0  0  0  0  0  0  0  0  0  0  0  0
   -0.5020    0.0070    2.2260 O   0  0  0  0  0  0  0  0  0  0  0  0
    0.7030    0.3040    0.2610 N   0  0  0  0  0  0  0  0  0  0  0  0
    0.8680    0.5480   -1.1370 C   0  0  0  0  0  0  0  0  0  0  0  0
    2.2590    0.0190   -1.4980 C   0  0  1  0  0  0  0  0  0  0  0  0
    3.0630    1.1070   -1.7430 O   0  0  0  0  0  0  0  0  0  0  0  0
    2.7090   -0.6690   -0.2510 C   0  0  1  0  0  0  0  0  0  0  0  0
    4.2130   -0.6500   -0.0820 C   0  0  0  0  0  0  0  0  0  0  0  0
    4.8100   -1.3230   -1.2140 N   0  0  0  0  0  0  0  0  0  0  0  0
    6.1440   -1.7810   -0.9290 C   0  0  0  0  0  0  0  0  0  0  0  0
    7.1190   -0.6490   -1.1890 C   0  0  2  0  0  0  0  0  0  0  0  0
    8.5350   -1.0460   -0.8530 C   0  0  0  0  0  0  0  0  0  0  0  0
    8.6220   -0.6950    0.6080 C   0  0  0  0  0  0  0  0  0  0  0  0
    7.5370    0.3140    0.7830 C   0  0  0  0  0  0  0  0  0  0  0  0
    6.8770    0.4580   -0.4130 O   0  0  0  0  0  0  0  0  0  0  0  0
    2.0200    0.1350    0.8300 C   0  0  0  0  0  0  0  0  0  0  0  0
   -3.9470   -0.7010    0.6480 C   0  0  0  0  0  0  0  0  0  0  0  0
   -3.6840   -1.9180    0.2400 C   0  0  0  0  0  0  0  0  0  0  0  0
   -2.3010   -2.4560    0.2350 C   0  0  0  0  0  0  0  0  0  0  0  0
   -4.7770   -2.8240   -0.2430 C   0  0  0  0  0  0  0  0  0  0  0  0
   -5.3030   -0.0230    0.7100 C   0  0  1  0  0  0  0  0  0  0  0  0
   -5.7030   -0.0660    2.1660 C   0  0  0  0  0  0  0  0  0  0  0  0
   -6.2120   -0.6690   -0.1060 O   0  0  0  0  0  0  0  0  0  0  0  0
  1  2  1  0
  2  3  1  0
  3  4  2  0
  3  5  1  0
  5  6  1  6
  5  7  1  0
  5 30  1  0
  7  8  1  0
  8  9  1  6
  8 26  1  0
  9 10  1  0
 10 11  2  0
 10 12  1  0
 12 13  1  0
 12 25  1  0
 13 14  1  0
 14 15  1  1
 14 16  1  0
 16 17  1  1
 16 25  1  0
 17 18  1  0
 18 19  1  0
 20 19  1  1
 20 21  1  0
 20 24  1  0
 21 22  1  0
 22 23  1  0
 23 24  1  0
 26 27  2  3
 26 30  1  0
 27 28  1  0
 27 29  1  0
 30 31  1  1
 30 32  1  0
M  CHG  1  18   1
M  END
