
     RDKit          3D

 32 33  0  0  0  0  0  0  0  0999 V2000
   -0.6160    2.5810    0.2900 C   0  0  0  0  0  0  0  0  0  0  0  0
   -1.7480    1.6120    0.5360 C   0  0  1  0  0  0  0  0  0  0  0  0
   -3.0840    2.1200    0.1500 C   0  0  0  0  0  0  0  0  0  0  0  0
   -3.8790    1.2040   -0.7500 C   0  0  2  0  0  0  0  0  0  0  0  0
   -3.5170    1.4350   -2.1750 C   0  0  0  0  0  0  0  0  0  0  0  0
   -5.3520    1.6200   -0.5840 C   0  0  0  0  0  0  0  0  0  0  0  0
   -3.7950   -0.1980   -0.2620 C   0  0  1  0  0  0  0  0  0  0  0  0
   -4.6900   -1.0710   -1.0960 C   0  0  0  0  0  0  0  0  0  0  0  0
   -4.6440   -2.4220   -0.6760 O   0  0  0  0  0  0  0  0  0  0  0  0
   -2.4110   -0.7360   -0.0410 C   0  0  1  0  0  0  0  0  0  0  0  0
   -2.3930   -1.5280    1.2730 C   0  0  0  0  0  0  0  0  0  0  0  0
   -2.1450   -1.7580   -1.1230 C   0  0  0  0  0  0  0  0  0  0  0  0
   -1.3440    0.2970   -0.0900 C   0  0  2  0  0  0  0  0  0  0  0  0
   -0.1330   -0.1550    0.6050 C   0  0  0  0  0  0  0  0  0  0  0  0
   -0.2350   -0.4910    1.8050 O   0  0  0  0  0  0  0  0  0  0  0  0
    1.1190   -0.2310    0.0170 O   0  0  0  0  0  0  0  0  0  0  0  0
    2.2320   -0.6610    0.7210 C   0  0  2  0  0  0  0  0  0  0  0  0
    3.3770    0.2860    0.8550 C   0  0  1  0  0  0  0  0  0  0  0  0
    3.1490    1.7090    0.8600 C   0  0  0  0  0  0  0  0  0  0  0  0
    3.3850    2.3830    1.9070 O   0  0  0  0  0  0  0  0  0  0  0  0
    2.6830    2.4130   -0.2280 O   0  0  0  0  0  0  0  0  0  0  0  0
    2.4870    3.8020   -0.2420 C   0  0  0  0  0  0  0  0  0  0  0  0
    3.7900    4.5590   -0.0270 C   0  0  0  0  0  0  0  0  0  0  0  0
    4.7130    4.2690   -1.0060 O   0  0  0  0  0  0  0  0  0  0  0  0
    4.1390   -0.1300    2.1170 C   0  0  0  0  0  0  0  0  0  0  0  0
    4.6210   -1.5520    2.0070 C   0  0  0  0  0  0  0  0  0  0  0  0
    3.6230   -2.5020    1.4710 C   0  0  0  0  0  0  0  0  0  0  0  0
    2.8590   -1.9530    0.2720 C   0  0  1  0  0  0  0  0  0  0  0  0
    2.0070   -2.9650   -0.3670 C   0  0  1  0  0  0  0  0  0  0  0  0
    0.8680   -3.4870    0.4480 C   0  0  0  0  0  0  0  0  0  0  0  0
    1.6410   -2.5410   -1.7650 C   0  0  0  0  0  0  0  0  0  0  0  0
    2.8590   -4.1070   -0.5670 O   0  0  0  0  0  0  0  0  0  0  0  0
  2  1  1  6
  2  3  1  0
  2 13  1  0
  3  4  1  0
  4  5  1  6
  4  6  1  0
  4  7  1  0
  7  8  1  6
  7 10  1  0
  8  9  1  0
 10 11  1  1
 10 12  1  0
 10 13  1  0
 13 14  1  1
 14 15  2  0
 14 16  1  0
 17 16  1  6
 17 18  1  0
 17 28  1  0
 18 19  1  1
 18 25  1  0
 19 20  2  0
 19 21  1  0
 21 22  1  0
 22 23  1  0
 23 24  1  0
 25 26  1  0
 26 27  1  0
 28 27  1  1
 28 29  1  0
 29 30  1  1
 29 31  1  0
 29 32  1  0
M  END
