
     RDKit          3D

 33 34  0  0  0  0  0  0  0  0999 V2000
    0.4430    5.3120   -0.4170 C   0  0  0  0  0  0  0  0  0  0  0  0
    0.1150    4.1830    0.5350 C   0  0  0  0  0  0  0  0  0  0  0  0
    0.3840    2.8180   -0.1170 C   0  0  2  0  0  0  0  0  0  0  0  0
    1.7640    2.7430   -0.4570 O   0  0  0  0  0  0  0  0  0  0  0  0
   -0.3300    2.9160   -1.3830 C   0  0  0  0  0  0  0  0  0  0  0  0
   -1.7020    3.0220   -1.1830 O   0  0  0  0  0  0  0  0  0  0  0  0
    0.1660    1.7860    0.9040 C   0  0  2  0  0  0  0  0  0  0  0  0
    1.1620    2.1100    2.0040 C   0  0  0  0  0  0  0  0  0  0  0  0
    0.0980    0.3630    0.6630 C   0  0  2  0  0  0  0  0  0  0  0  0
    1.2950   -0.2250   -0.0220 C   0  0  0  0  0  0  0  0  0  0  0  0
    1.2040   -0.3280   -1.2660 O   0  0  0  0  0  0  0  0  0  0  0  0
    2.5750   -0.6980    0.5220 C   0  0  1  0  0  0  0  0  0  0  0  0
    3.7650    0.1820    0.1800 C   0  0  0  0  0  0  0  0  0  0  0  0
    2.5620   -0.7410    1.9350 O   0  0  0  0  0  0  0  0  0  0  0  0
    2.8550   -2.0270    0.2010 O   0  0  0  0  0  0  0  0  0  0  0  0
    2.9860   -2.3890   -1.0860 C   0  0  2  0  0  0  0  0  0  0  0  0
    2.0850   -3.5570   -1.5210 C   0  0  0  0  0  0  0  0  0  0  0  0
    4.4160   -3.0110   -1.1840 C   0  0  0  0  0  0  0  0  0  0  0  0
   -1.1680   -0.4510    0.5610 C   0  0  2  0  0  0  0  0  0  0  0  0
   -2.0580   -0.4160    1.7700 C   0  0  1  0  0  0  0  0  0  0  0  0
   -2.7050    0.8510    2.1790 C   0  0  0  0  0  0  0  0  0  0  0  0
   -3.0950   -1.5080    1.8220 C   0  0  0  0  0  0  0  0  0  0  0  0
   -1.2000   -0.7790    3.0240 C   0  0  0  0  0  0  0  0  0  0  0  0
   -0.7970   -1.9100    0.3120 C   0  0  0  0  0  0  0  0  0  0  0  0
   -1.8190   -2.5040   -0.6430 C   0  0  0  0  0  0  0  0  0  0  0  0
   -2.3080   -1.3850   -1.4410 C   0  0  1  0  0  0  0  0  0  0  0  0
   -1.7360   -1.4800   -2.8800 C   0  0  0  0  0  0  0  0  0  0  0  0
   -2.6790   -2.4470   -3.5090 C   0  0  0  0  0  0  0  0  0  0  0  0
   -2.4590   -3.1730   -4.4940 O   0  0  0  0  0  0  0  0  0  0  0  0
   -3.8730   -2.3830   -2.7710 O   0  0  0  0  0  0  0  0  0  0  0  0
   -3.7350   -1.3870   -1.8220 C   0  0  0  0  0  0  0  0  0  0  0  0
   -4.6780   -0.6670   -1.4120 O   0  0  0  0  0  0  0  0  0  0  0  0
   -1.8480   -0.1730   -0.7290 C   0  0  0  0  0  0  0  0  0  0  0  0
  1  2  1  0
  2  3  1  0
  3  4  1  6
  3  5  1  0
  3  7  1  0
  5  6  1  0
  7  8  1  1
  7  9  1  0
  9 10  1  6
  9 19  1  0
 10 11  2  0
 10 12  1  0
 12 13  1  1
 12 14  1  0
 12 15  1  0
 15 16  1  0
 16 17  1  1
 16 18  1  0
 19 20  1  0
 19 24  1  6
 19 33  1  0
 20 21  1  1
 20 22  1  0
 20 23  1  0
 24 25  1  0
 26 25  1  1
 26 27  1  0
 26 31  1  0
 26 33  1  0
 27 28  1  0
 28 29  2  0
 28 30  1  0
 30 31  1  0
 31 32  2  0
M  END
