
     RDKit          3D

 33 34  0  0  0  0  0  0  0  0999 V2000
   -6.0340    3.1940   -0.4370 C   0  0  0  0  0  0  0  0  0  0  0  0
   -4.6970    2.6050   -0.8620 C   0  0  0  0  0  0  0  0  0  0  0  0
   -3.6690    2.7600    0.2090 C   0  0  0  0  0  0  0  0  0  0  0  0
   -2.3480    2.1820   -0.2090 C   0  0  1  0  0  0  0  0  0  0  0  0
   -1.2490    2.2970    0.8170 C   0  0  1  0  0  0  0  0  0  0  0  0
   -1.6290    2.7000    2.0700 O   0  0  0  0  0  0  0  0  0  0  0  0
   -0.9610    0.8170    0.6620 C   0  0  2  0  0  0  0  0  0  0  0  0
   -1.0080    0.0480    1.9630 C   0  0  0  0  0  0  0  0  0  0  0  0
   -0.0250    0.5180    2.9840 C   0  0  0  0  0  0  0  0  0  0  0  0
    0.1850    0.5770   -0.2510 C   0  0  0  0  0  0  0  0  0  0  0  0
    1.1940   -0.4210    0.1770 C   0  0  2  0  0  0  0  0  0  0  0  0
    2.5570    0.1690    0.4450 C   0  0  0  0  0  0  0  0  0  0  0  0
    3.1470    0.8250   -0.7830 C   0  0  0  0  0  0  0  0  0  0  0  0
    4.5120    1.3850   -0.4610 C   0  0  0  0  0  0  0  0  0  0  0  0
    5.5020    0.6110   -0.2960 O   0  0  0  0  0  0  0  0  0  0  0  0
    4.7360    2.7360   -0.3360 O   0  0  0  0  0  0  0  0  0  0  0  0
    6.0270    3.2660   -0.0320 C   0  0  0  0  0  0  0  0  0  0  0  0
    5.9530    4.7550    0.0420 C   0  0  0  0  0  0  0  0  0  0  0  0
    1.3790   -1.3520   -0.8550 O   0  0  0  0  0  0  0  0  0  0  0  0
    0.4300   -2.3700   -0.8340 C   0  0  0  0  0  0  0  0  0  0  0  0
    0.9770   -3.6240   -0.1890 C   0  0  0  0  0  0  0  0  0  0  0  0
    2.2920   -3.5840   -0.0960 C   0  0  0  0  0  0  0  0  0  0  0  0
    3.0240   -4.7180    0.5110 C   0  0  0  0  0  0  0  0  0  0  0  0
    3.9220   -5.2630   -0.4350 O   0  0  0  0  0  0  0  0  0  0  0  0
    0.1320   -4.7060    0.2400 C   0  0  0  0  0  0  0  0  0  0  0  0
   -1.1870   -4.7570    0.3640 C   0  0  0  0  0  0  0  0  0  0  0  0
   -2.1060   -3.8160    0.1210 O   0  0  0  0  0  0  0  0  0  0  0  0
   -2.8470   -3.3510   -0.9400 C   0  0  0  0  0  0  0  0  0  0  0  0
   -3.5010   -2.0060   -0.6600 C   0  0  0  0  0  0  0  0  0  0  0  0
   -3.0390   -1.0100   -1.6370 C   0  0  0  0  0  0  0  0  0  0  0  0
   -3.4570   -1.0750   -2.8120 O   0  0  0  0  0  0  0  0  0  0  0  0
   -2.1660   -0.0290   -1.2640 O   0  0  0  0  0  0  0  0  0  0  0  0
   -2.2890    0.6910   -0.0540 C   0  0  2  0  0  0  0  0  0  0  0  0
  1  2  1  0
  2  3  1  0
  4  3  1  1
  4  5  1  0
  4 33  1  0
  5  6  1  1
  5  7  1  0
  7  8  1  1
  7 10  1  0
  7 33  1  0
  8  9  1  0
 10 11  1  0
 11 12  1  6
 11 19  1  0
 12 13  1  0
 13 14  1  0
 14 15  2  0
 14 16  1  0
 16 17  1  0
 17 18  1  0
 19 20  1  0
 20 21  1  0
 21 22  2  3
 21 25  1  0
 22 23  1  0
 23 24  1  0
 25 26  2  0
 26 27  1  0
 27 28  1  0
 28 29  1  0
 29 30  1  0
 30 31  2  0
 30 32  1  0
 33 32  1  6
M  END
