
     RDKit          3D

 32 35  0  0  0  0  0  0  0  0999 V2000
   -6.7120    0.9510    1.9450 C   0  0  0  0  0  0  0  0  0  0  0  0
   -6.2150   -0.4790    2.1790 C   0  0  0  0  0  0  0  0  0  0  0  0
   -6.2390   -1.2460    0.8990 C   0  0  0  0  0  0  0  0  0  0  0  0
   -5.4010   -0.6800   -0.1480 N   0  0  0  0  0  0  0  0  0  0  0  0
   -3.9900   -0.6890   -0.0780 C   0  0  0  0  0  0  0  0  0  0  0  0
   -3.3480   -1.4610    0.8740 C   0  0  0  0  0  0  0  0  0  0  0  0
   -1.9400   -1.5230    0.9290 C   0  0  0  0  0  0  0  0  0  0  0  0
   -1.1720   -0.8250    0.0470 C   0  0  0  0  0  0  0  0  0  0  0  0
   -1.7960   -0.0650   -0.8890 C   0  0  0  0  0  0  0  0  0  0  0  0
   -3.1920    0.0030   -0.9510 C   0  0  0  0  0  0  0  0  0  0  0  0
   -3.7490    0.8450   -1.9830 C   0  0  0  0  0  0  0  0  0  0  0  0
   -4.8320    1.4200   -1.7390 O   0  0  0  0  0  0  0  0  0  0  0  0
   -3.1100    1.0620   -3.3000 C   0  0  0  0  0  0  0  0  0  0  0  0
   -1.7060    0.5090   -3.2560 C   0  0  0  0  0  0  0  0  0  0  0  0
   -1.0780    0.7540   -1.8900 C   0  0  2  0  0  0  0  0  0  0  0  0
    0.3660    0.5190   -1.9580 C   0  0  0  0  0  0  0  0  0  0  0  0
    0.8200   -0.7890   -1.3110 C   0  0  1  0  0  0  0  0  0  0  0  0
    2.3110   -0.6970   -1.3810 C   0  0  0  0  0  0  0  0  0  0  0  0
    2.9430   -1.2420   -2.4790 O   0  0  0  0  0  0  0  0  0  0  0  0
    2.9330   -0.0980   -0.3880 C   0  0  0  0  0  0  0  0  0  0  0  0
    4.3880    0.0170   -0.4620 C   0  0  0  0  0  0  0  0  0  0  0  0
    4.9810   -0.4520   -1.4520 O   0  0  0  0  0  0  0  0  0  0  0  0
    5.1620    0.6360    0.5370 N   0  0  0  0  0  0  0  0  0  0  0  0
    6.5870    0.7130    0.4010 C   0  0  0  0  0  0  0  0  0  0  0  0
    7.1070    0.2190   -0.6190 O   0  0  0  0  0  0  0  0  0  0  0  0
    7.3950    1.3590    1.4450 C   0  0  0  0  0  0  0  0  0  0  0  0
    8.7490    1.3520    1.2360 O   0  0  0  0  0  0  0  0  0  0  0  0
    9.3490    0.1220    1.1670 C   0  0  0  0  0  0  0  0  0  0  0  0
    2.2420    0.2620    0.8480 C   0  0  0  0  0  0  0  0  0  0  0  0
    0.9700   -0.0290    1.0210 C   0  0  0  0  0  0  0  0  0  0  0  0
    0.1300    0.5060    2.6630 Br  0  0  0  0  0  0  0  0  0  0  0  0
    0.2970   -0.9020    0.0610 C   0  0  1  0  0  0  0  0  0  0  0  0
  1  2  1  0
  2  3  1  0
  3  4  1  0
  4  5  1  0
  5  6  2  0
  5 10  1  0
  6  7  1  0
  7  8  2  0
  8  9  1  0
  8 32  1  0
  9 10  2  0
  9 15  1  0
 10 11  1  0
 11 12  2  0
 11 13  1  0
 13 14  1  0
 15 14  1  6
 15 16  1  0
 17 16  1  1
 17 18  1  0
 17 32  1  0
 18 19  1  0
 18 20  2  0
 20 21  1  0
 20 29  1  0
 21 22  2  0
 21 23  1  0
 23 24  1  0
 24 25  2  0
 24 26  1  0
 26 27  1  0
 27 28  1  0
 29 30  2  0
 30 31  1  0
 32 30  1  1
M  END
