
     RDKit          3D

 32 35  0  0  0  0  0  0  0  0999 V2000
   -3.4350    3.6980   -1.5750 C   0  0  0  0  0  0  0  0  0  0  0  0
   -2.3600    2.8410   -1.8480 O   0  0  0  0  0  0  0  0  0  0  0  0
   -1.9850    1.7760   -1.0170 C   0  0  0  0  0  0  0  0  0  0  0  0
   -2.6710    1.4950    0.1440 C   0  0  0  0  0  0  0  0  0  0  0  0
   -2.2940    0.4160    0.9720 C   0  0  0  0  0  0  0  0  0  0  0  0
   -1.2260   -0.3780    0.6270 C   0  0  0  0  0  0  0  0  0  0  0  0
   -0.5380   -0.1090   -0.5160 C   0  0  0  0  0  0  0  0  0  0  0  0
   -0.9150    0.9760   -1.3500 C   0  0  0  0  0  0  0  0  0  0  0  0
   -0.2060    1.2000   -2.4600 O   0  0  0  0  0  0  0  0  0  0  0  0
    0.5890    1.2130   -3.4030 C   0  0  0  0  0  0  0  0  0  0  0  0
    2.1080    1.3930   -3.0380 C   0  0  0  0  0  0  0  0  0  0  0  0
    2.4820    0.3270   -2.2260 O   0  0  0  0  0  0  0  0  0  0  0  0
    3.7420    0.2160   -1.6940 C   0  0  0  0  0  0  0  0  0  0  0  0
    4.6810    1.1930   -1.9390 C   0  0  0  0  0  0  0  0  0  0  0  0
    5.9760    1.1160   -1.4160 C   0  0  0  0  0  0  0  0  0  0  0  0
    6.3690    0.0790   -0.6460 C   0  0  0  0  0  0  0  0  0  0  0  0
    7.6730   -0.0520   -0.1080 N   0  0  0  0  0  0  0  0  0  0  0  0
    8.6860    0.9170   -0.1820 C   0  0  0  0  0  0  0  0  0  0  0  0
    8.5660    2.0140   -0.7270 O   0  0  0  0  0  0  0  0  0  0  0  0
    9.9160    0.5820    0.4160 O   0  0  0  0  0  0  0  0  0  0  0  0
    5.4250   -0.9340   -0.3830 C   0  0  0  0  0  0  0  0  0  0  0  0
    5.9600   -2.4090    0.6950 Br  0  0  0  0  0  0  0  0  0  0  0  0
    4.1580   -0.8410   -0.9040 C   0  0  0  0  0  0  0  0  0  0  0  0
   -0.9250   -1.5450    1.5260 C   0  0  0  0  0  0  0  0  0  0  0  0
   -2.3630   -2.1100    1.7790 C   0  0  2  0  0  0  0  0  0  0  0  0
   -2.9770   -2.1100    0.5390 N   0  0  0  0  0  0  0  0  0  0  0  0
   -4.3250   -2.1190    0.2850 C   0  0  0  0  0  0  0  0  0  0  0  0
   -5.3160   -2.2090    1.3650 C   0  0  0  0  0  0  0  0  0  0  0  0
   -4.8380   -2.7480    2.6740 C   0  0  0  0  0  0  0  0  0  0  0  0
   -4.1110   -1.7150    3.4620 C   0  0  0  0  0  0  0  0  0  0  0  0
   -2.8900   -1.1370    2.8070 C   0  0  2  0  0  0  0  0  0  0  0  0
   -3.0830    0.1930    2.2030 C   0  0  0  0  0  0  0  0  0  0  0  0
  1  2  1  0
  2  3  1  0
  3  4  2  0
  3  8  1  0
  4  5  1  0
  5  6  2  0
  5 32  1  0
  6  7  1  0
  6 24  1  0
  7  8  2  0
  8  9  1  0
  9 10  1  0
 10 11  1  0
 11 12  1  0
 12 13  1  0
 13 14  2  0
 13 23  1  0
 14 15  1  0
 15 16  2  0
 16 17  1  0
 16 21  1  0
 17 18  1  0
 18 19  2  0
 18 20  1  0
 21 22  1  0
 21 23  2  0
 25 24  1  6
 25 26  1  0
 25 31  1  0
 26 27  1  0
 27 28  1  0
 28 29  1  0
 29 30  1  0
 31 30  1  6
 31 32  1  0
M  END
