
     RDKit          3D

 32 34  0  0  0  0  0  0  0  0999 V2000
    7.1650    0.4470    2.0270 C   0  0  0  0  0  0  0  0  0  0  0  0
    7.4290   -0.9930    1.6730 C   0  0  0  0  0  0  0  0  0  0  0  0
    6.8230   -1.3490    0.4380 O   0  0  0  0  0  0  0  0  0  0  0  0
    5.4610   -1.2660    0.2350 C   0  0  0  0  0  0  0  0  0  0  0  0
    4.7220   -0.8650    1.1630 O   0  0  0  0  0  0  0  0  0  0  0  0
    4.8700   -1.6470   -1.0700 C   0  0  0  0  0  0  0  0  0  0  0  0
    3.4680   -1.4870   -1.0710 O   0  0  0  0  0  0  0  0  0  0  0  0
    2.8280   -0.2890   -0.8510 C   0  0  0  0  0  0  0  0  0  0  0  0
    3.5440    0.7220   -0.6370 O   0  0  0  0  0  0  0  0  0  0  0  0
    1.3660   -0.1620   -0.8590 C   0  0  0  0  0  0  0  0  0  0  0  0
    0.4760   -1.1470   -1.0710 N   0  0  0  0  0  0  0  0  0  0  0  0
   -0.7960   -0.6780   -1.0080 C   0  0  0  0  0  0  0  0  0  0  0  0
   -1.9960   -1.5260   -1.2440 C   0  0  0  0  0  0  0  0  0  0  0  0
   -2.0650   -2.3150   -2.4690 C   0  0  0  0  0  0  0  0  0  0  0  0
   -0.9510   -2.2140   -3.3670 N   0  0  0  0  0  0  0  0  0  0  0  0
   -2.9820   -3.0650   -2.8220 O   0  0  0  0  0  0  0  0  0  0  0  0
   -2.9690   -1.5520   -0.3600 C   0  0  0  0  0  0  0  0  0  0  0  0
   -2.7490   -0.6960    0.8310 C   0  0  0  0  0  0  0  0  0  0  0  0
   -3.6260   -0.0600    1.6030 C   0  0  0  0  0  0  0  0  0  0  0  0
   -2.9990    0.9670    3.0740 Br  0  0  0  0  0  0  0  0  0  0  0  0
   -5.1190   -0.0700    1.4370 C   0  0  1  0  0  0  0  0  0  0  0  0
   -5.4930    0.7690    0.2600 C   0  0  0  0  0  0  0  0  0  0  0  0
   -5.5880   -1.4820    1.2480 C   0  0  0  0  0  0  0  0  0  0  0  0
   -5.1620   -2.3860    0.4010 C   0  0  0  0  0  0  0  0  0  0  0  0
   -4.1250   -2.4090   -0.6450 C   0  0  0  0  0  0  0  0  0  0  0  0
   -0.7430    0.6670   -0.7450 C   0  0  0  0  0  0  0  0  0  0  0  0
    0.6060    0.9690   -0.6550 C   0  0  0  0  0  0  0  0  0  0  0  0
    0.9610    2.3810   -0.3690 C   0  0  2  0  0  0  0  0  0  0  0  0
    0.7480    2.7330    1.0870 C   0  0  0  0  0  0  0  0  0  0  0  0
    0.1860    3.2490   -1.3060 C   0  0  0  0  0  0  0  0  0  0  0  0
   -1.2480    2.8980   -1.4660 C   0  0  0  0  0  0  0  0  0  0  0  0
   -1.7290    1.7620   -0.5820 C   0  0  0  0  0  0  0  0  0  0  0  0
  1  2  1  0
  2  3  1  0
  3  4  1  0
  4  5  2  0
  4  6  1  0
  6  7  1  0
  7  8  1  0
  8  9  2  0
  8 10  1  0
 10 11  1  0
 10 27  2  0
 11 12  1  0
 12 13  1  0
 12 26  2  0
 13 14  1  0
 13 17  2  3
 14 15  1  0
 14 16  2  0
 17 18  1  0
 17 25  1  0
 18 19  2  0
 19 20  1  0
 19 21  1  0
 21 22  1  6
 21 23  1  0
 23 24  2  0
 24 25  1  0
 26 27  1  0
 26 32  1  0
 27 28  1  0
 28 29  1  1
 28 30  1  0
 30 31  1  0
 31 32  1  0
M  END
