
     RDKit          3D

 32 35  0  0  0  0  0  0  0  0999 V2000
   -0.0010   -0.9310    2.7100 C   0  0  0  0  0  0  0  0  0  0  0  0
    0.5070   -0.8440    1.2830 C   0  0  2  0  0  0  0  0  0  0  0  0
    1.7970   -0.1810    1.1720 C   0  0  0  0  0  0  0  0  0  0  0  0
    1.9390    0.9660    1.6590 O   0  0  0  0  0  0  0  0  0  0  0  0
    2.8840   -0.7900    0.5350 N   0  0  0  0  0  0  0  0  0  0  0  0
    4.1860   -0.2210    0.3720 C   0  0  0  0  0  0  0  0  0  0  0  0
    4.1030    1.0510   -0.4210 C   0  0  2  0  0  0  0  0  0  0  0  0
    3.5630    0.7800   -1.6750 O   0  0  0  0  0  0  0  0  0  0  0  0
    5.4950    1.5850   -0.5360 C   0  0  0  0  0  0  0  0  0  0  0  0
    5.9050    2.6730    0.1980 C   0  0  0  0  0  0  0  0  0  0  0  0
    7.1950    3.1310    0.0620 C   0  0  0  0  0  0  0  0  0  0  0  0
    8.0980    2.5330   -0.7900 C   0  0  0  0  0  0  0  0  0  0  0  0
    7.6440    1.4430   -1.5080 C   0  0  0  0  0  0  0  0  0  0  0  0
    8.8540    0.5620   -2.7140 Br  0  0  0  0  0  0  0  0  0  0  0  0
    6.3720    0.9610   -1.3990 C   0  0  0  0  0  0  0  0  0  0  0  0
   -0.5820   -0.1880    0.4630 C   0  0  0  0  0  0  0  0  0  0  0  0
   -1.5770   -1.2860    0.3990 C   0  0  0  0  0  0  0  0  0  0  0  0
   -2.9500   -1.3170    0.2460 C   0  0  0  0  0  0  0  0  0  0  0  0
   -3.6680   -2.4960    0.2090 C   0  0  0  0  0  0  0  0  0  0  0  0
   -5.1560   -2.4970    0.0430 C   0  0  0  0  0  0  0  0  0  0  0  0
   -5.6890   -1.1730   -0.0220 N   0  0  0  0  0  0  0  0  0  0  0  0
   -5.5660   -0.3740   -1.2080 C   0  0  0  0  0  0  0  0  0  0  0  0
   -4.9830   -0.8500   -2.1920 O   0  0  0  0  0  0  0  0  0  0  0  0
   -6.1140    0.9640   -1.2520 C   0  0  0  0  0  0  0  0  0  0  0  0
   -6.7780    1.5970   -0.2330 C   0  0  0  0  0  0  0  0  0  0  0  0
   -7.1180    2.8380   -0.7030 C   0  0  0  0  0  0  0  0  0  0  0  0
   -6.6470    2.9130   -1.9940 C   0  0  0  0  0  0  0  0  0  0  0  0
   -6.0590    1.7720   -2.2690 O   0  0  0  0  0  0  0  0  0  0  0  0
   -2.9500   -3.6670    0.3340 C   0  0  0  0  0  0  0  0  0  0  0  0
   -1.5760   -3.6320    0.4870 C   0  0  0  0  0  0  0  0  0  0  0  0
   -0.8590   -2.4530    0.5240 C   0  0  0  0  0  0  0  0  0  0  0  0
    0.5080   -2.1460    0.6680 O   0  0  0  0  0  0  0  0  0  0  0  0
  2  1  1  1
  2  3  1  0
  2 16  1  0
  2 32  1  0
  3  4  2  0
  3  5  1  0
  5  6  1  0
  6  7  1  0
  7  8  1  6
  7  9  1  0
  9 10  2  0
  9 15  1  0
 10 11  1  0
 11 12  2  0
 12 13  1  0
 13 14  1  0
 13 15  2  0
 16 17  1  0
 17 18  2  0
 17 31  1  0
 18 19  1  0
 19 20  1  0
 19 29  2  0
 20 21  1  0
 21 22  1  0
 22 23  2  0
 22 24  1  0
 24 25  2  0
 24 28  1  0
 25 26  1  0
 26 27  2  0
 27 28  1  0
 29 30  1  0
 30 31  2  0
 31 32  1  0
M  END
