
     RDKit          3D

 32 35  0  0  0  0  0  0  0  0999 V2000
   -3.8820    3.7780   -0.2620 C   0  0  0  0  0  0  0  0  0  0  0  0
   -3.4160    2.9920   -1.1620 C   0  0  0  0  0  0  0  0  0  0  0  0
   -2.9560    1.6470   -1.2850 C   0  0  0  0  0  0  0  0  0  0  0  0
   -2.5260    1.2050   -2.4460 C   0  0  0  0  0  0  0  0  0  0  0  0
   -2.3600    1.7350   -3.7680 C   0  0  0  0  0  0  0  0  0  0  0  0
   -2.8020    3.5140   -4.2060 Br  0  0  0  0  0  0  0  0  0  0  0  0
   -2.8440    0.7070   -0.1690 C   0  0  0  0  0  0  0  0  0  0  0  0
   -3.2980    1.0090    1.0190 C   0  0  0  0  0  0  0  0  0  0  0  0
   -3.2000    0.0870    2.1180 N   0  0  0  0  0  0  0  0  0  0  0  0
   -2.6120   -1.1700    1.9410 C   0  0  0  0  0  0  0  0  0  0  0  0
   -2.1360   -1.4980    0.7750 C   0  0  0  0  0  0  0  0  0  0  0  0
   -1.5420   -2.8110    0.5800 C   0  0  0  0  0  0  0  0  0  0  0  0
   -1.0540   -3.1200   -0.5590 O   0  0  0  0  0  0  0  0  0  0  0  0
   -1.4980   -3.7960    1.6890 C   0  0  0  0  0  0  0  0  0  0  0  0
   -2.6460   -3.5460    2.6110 C   0  0  0  0  0  0  0  0  0  0  0  0
   -2.5570   -2.1150    3.1130 C   0  0  0  0  0  0  0  0  0  0  0  0
   -2.0650   -0.5400   -0.4000 C   0  0  2  0  0  0  0  0  0  0  0  0
   -0.6590   -0.1970   -0.6230 N   0  0  0  0  0  0  0  0  0  0  0  0
    0.3310   -0.4860    0.3180 C   0  0  0  0  0  0  0  0  0  0  0  0
    0.0730   -1.0280    1.4050 O   0  0  0  0  0  0  0  0  0  0  0  0
    1.7630   -0.1630    0.0810 C   0  0  0  0  0  0  0  0  0  0  0  0
    2.6650   -0.2390    1.1210 C   0  0  0  0  0  0  0  0  0  0  0  0
    3.9910    0.0550    0.9010 C   0  0  0  0  0  0  0  0  0  0  0  0
    4.9190   -0.0130    1.9310 O   0  0  0  0  0  0  0  0  0  0  0  0
    4.5060   -0.3890    3.2250 C   0  0  0  0  0  0  0  0  0  0  0  0
    4.4350    0.4260   -0.3510 C   0  0  0  0  0  0  0  0  0  0  0  0
    3.5670    0.5140   -1.4160 C   0  0  0  0  0  0  0  0  0  0  0  0
    2.2280    0.2080   -1.1570 C   0  0  0  0  0  0  0  0  0  0  0  0
    4.3170    0.9320   -2.6290 C   0  0  2  0  0  0  0  0  0  0  0  0
    4.6160   -0.1420   -3.4560 O   0  0  0  0  0  0  0  0  0  0  0  0
    5.5620    1.5410   -2.0220 C   0  0  0  0  0  0  0  0  0  0  0  0
    5.7120    0.7720   -0.8330 O   0  0  0  0  0  0  0  0  0  0  0  0
  1  2  2  0
  2  3  1  0
  3  4  2  3
  3  7  1  0
  4  5  1  0
  5  6  1  0
  7  8  2  0
  7 17  1  0
  8  9  1  0
  9 10  1  0
 10 11  2  0
 10 16  1  0
 11 12  1  0
 11 17  1  0
 12 13  2  0
 12 14  1  0
 14 15  1  0
 15 16  1  0
 17 18  1  1
 18 19  1  0
 19 20  2  0
 19 21  1  0
 21 22  2  0
 21 28  1  0
 22 23  1  0
 23 24  1  0
 23 26  2  0
 24 25  1  0
 26 27  1  0
 26 32  1  0
 27 28  2  0
 27 29  1  0
 29 30  1  6
 29 31  1  0
 31 32  1  0
M  END
