
     RDKit          3D

 33 36  0  0  0  0  0  0  0  0999 V2000
   -4.6570   -4.4850    0.4040 C   0  0  0  0  0  0  0  0  0  0  0  0
   -3.8490   -3.9470   -0.6950 C   0  0  0  0  0  0  0  0  0  0  0  0
   -3.1120   -2.7310   -0.7620 C   0  0  0  0  0  0  0  0  0  0  0  0
   -2.9220   -1.7480    0.0820 C   0  0  0  0  0  0  0  0  0  0  0  0
   -3.4330   -1.5800    1.4280 C   0  0  0  0  0  0  0  0  0  0  0  0
   -4.1720   -2.3020    2.1370 O   0  0  0  0  0  0  0  0  0  0  0  0
   -2.9100   -0.3150    1.8940 N   0  0  0  0  0  0  0  0  0  0  0  0
   -2.1250    0.2290    0.8530 C   0  0  0  0  0  0  0  0  0  0  0  0
   -1.5030    1.5020    0.9940 N   0  0  0  0  0  0  0  0  0  0  0  0
   -2.0520    2.7320    0.5010 C   0  0  1  0  0  0  0  0  0  0  0  0
   -2.2290    2.7150   -0.9880 C   0  0  0  0  0  0  0  0  0  0  0  0
   -3.3490    3.1030    1.1950 C   0  0  0  0  0  0  0  0  0  0  0  0
   -3.1030    3.3070    2.9790 S   0  0  0  0  0  0  0  0  0  0  0  0
   -2.0940   -0.5350   -0.1940 C   0  0  0  0  0  0  0  0  0  0  0  0
   -1.3760   -0.3410   -1.4220 C   0  0  0  0  0  0  0  0  0  0  0  0
   -2.0140   -0.2920   -2.6330 N   0  0  0  0  0  0  0  0  0  0  0  0
   -1.1090   -0.1240   -3.6090 C   0  0  0  0  0  0  0  0  0  0  0  0
    0.0490   -0.0730   -3.0050 O   0  0  0  0  0  0  0  0  0  0  0  0
   -0.0520   -0.1980   -1.7110 C   0  0  0  0  0  0  0  0  0  0  0  0
    1.0600   -0.1930   -0.7430 C   0  0  0  0  0  0  0  0  0  0  0  0
    0.8100   -0.4840    0.4410 O   0  0  0  0  0  0  0  0  0  0  0  0
    2.3700    0.1230   -1.1060 N   0  0  0  0  0  0  0  0  0  0  0  0
    3.5230    0.1620   -0.2720 C   0  0  0  0  0  0  0  0  0  0  0  0
    3.5470   -0.1570    1.0530 C   0  0  0  0  0  0  0  0  0  0  0  0
    4.7320   -0.0860    1.7960 C   0  0  0  0  0  0  0  0  0  0  0  0
    5.9070    0.3090    1.2060 C   0  0  0  0  0  0  0  0  0  0  0  0
    7.2060    0.4710    1.6760 C   0  0  0  0  0  0  0  0  0  0  0  0
    7.9610    0.8940    0.6050 C   0  0  0  0  0  0  0  0  0  0  0  0
    7.1770    0.9890   -0.4660 N   0  0  0  0  0  0  0  0  0  0  0  0
    5.9150    0.6380   -0.1300 C   0  0  0  0  0  0  0  0  0  0  0  0
    4.7350    0.5560   -0.8240 C   0  0  0  0  0  0  0  0  0  0  0  0
   -3.7860   -4.7030   -1.8070 N   0  0  0  0  0  0  0  0  0  0  0  0
   -3.0630   -4.2580   -2.8380 F   0  0  0  0  0  0  0  0  0  0  0  0
  1  2  1  0
  2  3  1  0
  2 32  2  3
  3  4  2  3
  4  5  1  0
  4 14  1  0
  5  6  2  0
  5  7  1  0
  7  8  1  0
  8  9  1  0
  8 14  2  0
  9 10  1  0
 10 11  1  6
 10 12  1  0
 12 13  1  0
 14 15  1  0
 15 16  1  0
 15 19  2  0
 16 17  2  0
 17 18  1  0
 18 19  1  0
 19 20  1  0
 20 21  2  0
 20 22  1  0
 22 23  1  0
 23 24  2  0
 23 31  1  0
 24 25  1  0
 25 26  2  0
 26 27  1  0
 26 30  1  0
 27 28  2  0
 28 29  1  0
 29 30  1  0
 30 31  2  0
 32 33  1  0
M  END
