
     RDKit          3D

 32 34  0  0  0  0  0  0  0  0999 V2000
   -5.1600   -2.9010    3.2270 N   0  0  0  0  0  0  0  0  0  0  0  0
   -5.3160   -2.3240    1.9600 C   0  0  0  0  0  0  0  0  0  0  0  0
   -4.6770   -2.8390    0.9980 O   0  0  0  0  0  0  0  0  0  0  0  0
   -6.1850   -1.1490    1.6840 C   0  0  0  0  0  0  0  0  0  0  0  0
   -6.1250   -0.7780    0.2190 C   0  0  0  0  0  0  0  0  0  0  0  0
   -4.8030   -0.4360   -0.2220 N   0  0  0  0  0  0  0  0  0  0  0  0
   -4.0550    0.6200    0.3120 C   0  0  0  0  0  0  0  0  0  0  0  0
   -4.5510    1.3170    1.2270 O   0  0  0  0  0  0  0  0  0  0  0  0
   -2.6800    0.9750   -0.1480 C   0  0  2  0  0  0  0  0  0  0  0  0
   -2.7770    1.3100   -1.6330 C   0  0  0  0  0  0  0  0  0  0  0  0
   -3.7070    2.4660   -1.8820 C   0  0  0  0  0  0  0  0  0  0  0  0
   -3.2890    3.6270   -1.2290 O   0  0  0  0  0  0  0  0  0  0  0  0
   -1.8240   -0.2410    0.0040 C   0  0  0  0  0  0  0  0  0  0  0  0
   -0.5820   -0.1000    0.8110 C   0  0  0  0  0  0  0  0  0  0  0  0
    0.0900    1.1310    0.4410 N   0  0  0  0  0  0  0  0  0  0  0  0
    1.4450    1.1880   -0.0120 C   0  0  0  0  0  0  0  0  0  0  0  0
    2.4400    1.3690    1.0920 C   0  0  0  0  0  0  0  0  0  0  0  0
    3.7270    1.4030    0.6130 O   0  0  0  0  0  0  0  0  0  0  0  0
    4.4550    0.4180    0.0240 C   0  0  0  0  0  0  0  0  0  0  0  0
    4.0040   -0.8610   -0.1520 C   0  0  0  0  0  0  0  0  0  0  0  0
    4.7650   -1.8630   -0.7670 C   0  0  0  0  0  0  0  0  0  0  0  0
    6.0250   -1.5710   -1.2200 C   0  0  0  0  0  0  0  0  0  0  0  0
    6.5050   -0.2960   -1.0560 C   0  0  0  0  0  0  0  0  0  0  0  0
    5.7410    0.6710   -0.4500 C   0  0  0  0  0  0  0  0  0  0  0  0
    7.8270    0.0290   -1.5250 N   0  0  0  0  0  0  0  0  0  0  0  0
    8.5880   -0.9630   -2.1370 N   0  0  0  0  0  0  0  0  0  0  0  0
    8.1130   -2.2800   -2.3160 C   0  0  0  0  0  0  0  0  0  0  0  0
    8.8200   -3.1820   -2.8790 O   0  0  0  0  0  0  0  0  0  0  0  0
    6.8130   -2.6030   -1.8550 N   0  0  0  0  0  0  0  0  0  0  0  0
   -0.7250    2.3250    0.5620 C   0  0  0  0  0  0  0  0  0  0  0  0
   -0.1900    3.4430    0.6480 O   0  0  0  0  0  0  0  0  0  0  0  0
   -2.1480    2.0970    0.5730 N   0  0  0  0  0  0  0  0  0  0  0  0
  1  2  1  0
  2  3  2  0
  2  4  1  0
  4  5  1  0
  5  6  1  0
  6  7  1  0
  7  8  2  0
  7  9  1  0
  9 10  1  6
  9 13  1  0
  9 32  1  0
 10 11  1  0
 11 12  1  0
 13 14  1  0
 14 15  1  0
 15 16  1  0
 15 30  1  0
 16 17  1  0
 17 18  1  0
 18 19  1  0
 19 20  2  0
 19 24  1  0
 20 21  1  0
 21 22  2  0
 22 23  1  0
 22 29  1  0
 23 24  2  0
 23 25  1  0
 25 26  1  0
 26 27  1  0
 27 28  2  0
 27 29  1  0
 30 31  2  0
 30 32  1  0
M  END
