
     RDKit          3D

 33 34  0  0  0  0  0  0  0  0999 V2000
   -7.5180    2.8520    0.0630 C   0  0  0  0  0  0  0  0  0  0  0  0
   -6.8330    1.8630    0.6060 C   0  0  0  0  0  0  0  0  0  0  0  0
   -6.5440    1.7530    1.9790 N   0  0  0  0  0  0  0  0  0  0  0  0
   -5.8040    0.5820    2.2000 C   0  0  0  0  0  0  0  0  0  0  0  0
   -5.1790    0.2730    3.2270 O   0  0  0  0  0  0  0  0  0  0  0  0
   -5.8900   -0.2580    0.9680 C   0  0  2  0  0  0  0  0  0  0  0  0
   -6.9600   -1.3010    1.2390 C   0  0  0  0  0  0  0  0  0  0  0  0
   -7.1810   -2.2500    0.1120 C   0  0  0  0  0  0  0  0  0  0  0  0
   -4.6150   -0.8980    0.8280 N   0  0  0  0  0  0  0  0  0  0  0  0
   -3.3830   -0.1980    0.7060 C   0  0  0  0  0  0  0  0  0  0  0  0
   -3.4040    1.0460    0.7210 O   0  0  0  0  0  0  0  0  0  0  0  0
   -2.1450   -0.8610    0.5710 N   0  0  0  0  0  0  0  0  0  0  0  0
   -0.9370   -0.1750    0.4480 N   0  0  0  0  0  0  0  0  0  0  0  0
   -0.0200   -0.6360   -0.5450 C   0  0  0  0  0  0  0  0  0  0  0  0
   -0.3380   -1.6380   -1.2660 O   0  0  0  0  0  0  0  0  0  0  0  0
    1.2470   -0.0510   -0.7940 N   0  0  0  0  0  0  0  0  0  0  0  0
    2.1160   -0.5160   -1.7610 O   0  0  0  0  0  0  0  0  0  0  0  0
    3.3450   -1.0330   -1.3760 C   0  0  0  0  0  0  0  0  0  0  0  0
    4.4400   -0.2280   -1.1470 C   0  0  0  0  0  0  0  0  0  0  0  0
    5.6730   -0.7250   -0.7620 C   0  0  0  0  0  0  0  0  0  0  0  0
    6.8180    0.2000   -0.5300 C   0  0  1  0  0  0  0  0  0  0  0  0
    7.1640    0.9490   -1.7670 C   0  0  0  0  0  0  0  0  0  0  0  0
    6.4490    1.0740    0.6340 C   0  0  0  0  0  0  0  0  0  0  0  0
    7.4950    2.0690    1.0020 C   0  0  0  0  0  0  0  0  0  0  0  0
    8.8100    1.4240    1.3840 C   0  0  0  0  0  0  0  0  0  0  0  0
    8.6890    0.5820    2.4650 O   0  0  0  0  0  0  0  0  0  0  0  0
    5.7690   -2.0630   -0.6160 N   0  0  0  0  0  0  0  0  0  0  0  0
    4.7510   -2.8800   -0.8230 N   0  0  0  0  0  0  0  0  0  0  0  0
    3.5530   -2.3980   -1.1960 C   0  0  0  0  0  0  0  0  0  0  0  0
    2.6230   -3.2210   -1.3790 O   0  0  0  0  0  0  0  0  0  0  0  0
   -6.2450    0.7000   -0.0820 C   0  0  0  0  0  0  0  0  0  0  0  0
   -6.1220    0.6550   -1.3850 C   0  0  0  0  0  0  0  0  0  0  0  0
   -5.5570   -0.4400   -2.1910 C   0  0  0  0  0  0  0  0  0  0  0  0
  1  2  2  0
  2  3  1  0
  2 31  1  0
  3  4  1  0
  4  5  2  0
  4  6  1  0
  6  7  1  1
  6  9  1  0
  6 31  1  0
  7  8  1  0
  9 10  1  0
 10 11  2  0
 10 12  1  0
 12 13  1  0
 13 14  1  0
 14 15  2  0
 14 16  1  0
 16 17  1  0
 17 18  1  0
 18 19  2  0
 18 29  1  0
 19 20  1  0
 20 21  1  0
 20 27  2  0
 21 22  1  6
 21 23  1  0
 23 24  1  0
 24 25  1  0
 25 26  1  0
 27 28  1  0
 28 29  1  0
 29 30  2  0
 31 32  2  3
 32 33  1  0
M  END
