
     RDKit          3D

 33 36  0  0  0  0  0  0  0  0999 V2000
   10.1210    2.2470    2.4300 C   0  0  0  0  0  0  0  0  0  0  0  0
    8.7860    2.7010    2.3030 N   0  0  0  0  0  0  0  0  0  0  0  0
    7.8440    1.9030    1.5780 C   0  0  0  0  0  0  0  0  0  0  0  0
    7.7990    0.8550    0.9700 N   0  0  0  0  0  0  0  0  0  0  0  0
    6.7590    0.3360    0.3760 C   0  0  0  0  0  0  0  0  0  0  0  0
    6.6830   -0.8730   -0.3330 C   0  0  0  0  0  0  0  0  0  0  0  0
    5.5140   -1.2600   -0.8890 C   0  0  0  0  0  0  0  0  0  0  0  0
    4.3180   -0.5460   -0.8290 C   0  0  0  0  0  0  0  0  0  0  0  0
    3.1490   -1.0060   -1.4390 N   0  0  0  0  0  0  0  0  0  0  0  0
    1.8450   -0.4910   -1.3320 C   0  0  0  0  0  0  0  0  0  0  0  0
    1.6440    0.5090   -0.6070 O   0  0  0  0  0  0  0  0  0  0  0  0
    0.6890   -1.1090   -2.0660 C   0  0  2  0  0  0  0  0  0  0  0  0
    1.0410   -1.0730   -3.5510 C   0  0  0  0  0  0  0  0  0  0  0  0
   -0.5270   -0.4020   -1.7910 N   0  0  0  0  0  0  0  0  0  0  0  0
   -1.6360   -1.1520   -1.2370 C   0  0  0  0  0  0  0  0  0  0  0  0
   -1.5160   -2.3770   -1.0130 O   0  0  0  0  0  0  0  0  0  0  0  0
   -2.8630   -0.5200   -0.9410 N   0  0  0  0  0  0  0  0  0  0  0  0
   -4.0330   -1.1110   -0.4110 C   0  0  0  0  0  0  0  0  0  0  0  0
   -4.2390   -2.4550   -0.3300 C   0  0  0  0  0  0  0  0  0  0  0  0
   -5.4310   -2.9090    0.2310 C   0  0  0  0  0  0  0  0  0  0  0  0
   -6.3480   -2.0430    0.6790 N   0  0  0  0  0  0  0  0  0  0  0  0
   -6.1810   -0.7140    0.6150 C   0  0  0  0  0  0  0  0  0  0  0  0
   -7.2030    0.1960    1.1130 C   0  0  0  0  0  0  0  0  0  0  0  0
   -7.1050    1.5070    1.0830 C   0  0  0  0  0  0  0  0  0  0  0  0
   -8.1750    2.3860    1.6030 C   0  0  1  0  0  0  0  0  0  0  0  0
   -8.5830    3.2180    0.5560 F   0  0  0  0  0  0  0  0  0  0  0  0
   -9.2800    1.7100    2.1200 O   0  0  0  0  0  0  0  0  0  0  0  0
   -9.3770    0.3390    2.1490 C   0  0  0  0  0  0  0  0  0  0  0  0
   -8.4200   -0.4340    1.6840 C   0  0  0  0  0  0  0  0  0  0  0  0
   -5.0310   -0.2300    0.0740 C   0  0  0  0  0  0  0  0  0  0  0  0
    4.3900    0.6410   -0.1340 C   0  0  0  0  0  0  0  0  0  0  0  0
    5.6020    1.0400    0.4420 C   0  0  0  0  0  0  0  0  0  0  0  0
    6.0920    2.4650    1.3920 S   0  0  0  0  0  0  0  0  0  0  0  0
  1  2  1  0
  2  3  1  0
  3  4  2  0
  3 33  1  0
  4  5  1  0
  5  6  2  0
  5 32  1  0
  6  7  1  0
  7  8  2  0
  8  9  1  0
  8 31  1  0
  9 10  1  0
 10 11  2  0
 10 12  1  0
 12 13  1  6
 12 14  1  0
 14 15  1  0
 15 16  2  0
 15 17  1  0
 17 18  1  0
 18 19  2  0
 18 30  1  0
 19 20  1  0
 20 21  2  0
 21 22  1  0
 22 23  1  0
 22 30  2  0
 23 24  2  0
 23 29  1  0
 24 25  1  0
 25 26  1  6
 25 27  1  0
 27 28  1  0
 28 29  2  0
 31 32  2  0
 32 33  1  0
M  END
