
     RDKit          3D

 33 37  0  0  0  0  0  0  0  0999 V2000
   -7.5760   -0.2370   -1.5920 C   0  0  0  0  0  0  0  0  0  0  0  0
   -6.5140   -0.8150   -0.8300 N   0  0  2  0  0  0  0  0  0  0  0  0
   -7.0410   -1.9190   -0.0500 C   0  0  0  0  0  0  0  0  0  0  0  0
   -5.9940    0.1590    0.1110 C   0  0  2  0  0  0  0  0  0  0  0  0
   -6.0540    1.5690   -0.4140 C   0  0  0  0  0  0  0  0  0  0  0  0
   -5.0210    2.2440    0.5020 C   0  0  0  0  0  0  0  0  0  0  0  0
   -3.9550    1.1840    0.5170 C   0  0  0  0  0  0  0  0  0  0  0  0
   -2.5880    1.2190    0.7070 C   0  0  0  0  0  0  0  0  0  0  0  0
   -1.8000    0.0890    0.6730 C   0  0  0  0  0  0  0  0  0  0  0  0
   -0.3830    0.1760    0.8750 N   0  0  0  0  0  0  0  0  0  0  0  0
    0.3450    1.4280    0.9140 C   0  0  0  0  0  0  0  0  0  0  0  0
    1.7460    1.0380    1.3000 C   0  0  0  0  0  0  0  0  0  0  0  0
    1.8780   -0.3460    0.6550 C   0  0  2  0  0  0  0  0  0  0  0  0
    1.8560   -0.2670   -0.7710 N   0  0  0  0  0  0  0  0  0  0  0  0
    3.0700   -1.1500   -1.5720 S   0  0  2  0  0  0  0  0  0  0  0  0
    2.9030   -0.9250   -3.0510 O   0  0  0  0  0  0  0  0  0  0  0  0
    2.9430   -2.6250   -1.3160 O   0  0  0  0  0  0  0  0  0  0  0  0
    4.6630   -0.5710   -1.1290 C   0  0  0  0  0  0  0  0  0  0  0  0
    5.2120    0.4430   -1.8820 C   0  0  0  0  0  0  0  0  0  0  0  0
    6.4620    0.9070   -1.5550 C   0  0  0  0  0  0  0  0  0  0  0  0
    7.1790    0.3920   -0.5060 C   0  0  0  0  0  0  0  0  0  0  0  0
    8.4460    0.8590   -0.1750 C   0  0  0  0  0  0  0  0  0  0  0  0
    9.1760    0.3500    0.8750 C   0  0  0  0  0  0  0  0  0  0  0  0
   10.7690    0.9190    1.3110 Cl  0  0  0  0  0  0  0  0  0  0  0  0
    8.6090   -0.6670    1.6180 C   0  0  0  0  0  0  0  0  0  0  0  0
    7.3510   -1.1370    1.2960 C   0  0  0  0  0  0  0  0  0  0  0  0
    6.6380   -0.6160    0.2450 C   0  0  0  0  0  0  0  0  0  0  0  0
    5.3650   -1.0940   -0.0810 C   0  0  0  0  0  0  0  0  0  0  0  0
    0.5310   -0.9040    1.0610 C   0  0  0  0  0  0  0  0  0  0  0  0
    0.2590   -2.0360    1.4670 O   0  0  0  0  0  0  0  0  0  0  0  0
   -2.4000   -1.1320    0.4390 C   0  0  0  0  0  0  0  0  0  0  0  0
   -3.7590   -1.1800    0.2480 C   0  0  0  0  0  0  0  0  0  0  0  0
   -4.5320   -0.0440    0.2850 C   0  0  0  0  0  0  0  0  0  0  0  0
  2  1  1  1
  2  3  1  0
  2  4  1  0
  4  5  1  6
  4 33  1  0
  5  6  1  0
  6  7  1  0
  7  8  2  0
  7 33  1  0
  8  9  1  0
  9 10  1  0
  9 31  2  0
 10 11  1  0
 10 29  1  0
 11 12  1  0
 12 13  1  0
 13 14  1  6
 13 29  1  0
 15 14  1  1
 15 16  2  0
 15 17  2  0
 15 18  1  0
 18 19  2  0
 18 28  1  0
 19 20  1  0
 20 21  2  0
 21 22  1  0
 21 27  1  0
 22 23  2  0
 23 24  1  0
 23 25  1  0
 25 26  2  0
 26 27  1  0
 27 28  2  0
 29 30  2  0
 31 32  1  0
 32 33  2  0
M  CHG  1   2   1
M  END
