
     RDKit          3D

 33 36  0  0  0  0  0  0  0  0999 V2000
    8.9390    1.1030    0.9890 C   0  0  0  0  0  0  0  0  0  0  0  0
    7.9930    0.7430    2.1150 C   0  0  0  0  0  0  0  0  0  0  0  0
    7.4250   -0.6250    1.9670 C   0  0  0  0  0  0  0  0  0  0  0  0
    6.6670   -0.8430    0.7540 N   0  0  0  0  0  0  0  0  0  0  0  0
    5.4080   -0.2270    0.5150 C   0  0  0  0  0  0  0  0  0  0  0  0
    4.8530    1.0380    1.6070 Cl  0  0  0  0  0  0  0  0  0  0  0  0
    4.6430   -0.5440   -0.5030 C   0  0  0  0  0  0  0  0  0  0  0  0
    4.9400   -1.5530   -1.5440 C   0  0  0  0  0  0  0  0  0  0  0  0
    5.9390   -2.3050   -1.6660 O   0  0  0  0  0  0  0  0  0  0  0  0
    3.8200   -1.5020   -2.4200 N   0  0  0  0  0  0  0  0  0  0  0  0
    2.9180   -0.5650   -1.9790 N   0  0  0  0  0  0  0  0  0  0  0  0
    3.3520    0.0100   -0.8760 C   0  0  0  0  0  0  0  0  0  0  0  0
    2.5220    1.0250   -0.1860 C   0  0  2  0  0  0  0  0  0  0  0  0
    1.9340    0.5900    1.1020 C   0  0  0  0  0  0  0  0  0  0  0  0
    0.4230    0.5460    0.8720 C   0  0  0  0  0  0  0  0  0  0  0  0
    0.1850    0.8310   -0.5010 N   0  0  0  0  0  0  0  0  0  0  0  0
   -0.3090   -0.2080   -1.2900 C   0  0  0  0  0  0  0  0  0  0  0  0
   -1.7050   -0.6510   -1.1960 C   0  0  0  0  0  0  0  0  0  0  0  0
   -1.9470   -1.6920   -1.9370 O   0  0  0  0  0  0  0  0  0  0  0  0
   -2.7300   -0.0940   -0.4390 N   0  0  0  0  0  0  0  0  0  0  0  0
   -2.6690    1.1490    0.3120 C   0  0  0  0  0  0  0  0  0  0  0  0
   -3.9950    1.8550    0.4100 C   0  0  0  0  0  0  0  0  0  0  0  0
   -4.9630    1.4100   -0.6270 C   0  0  2  0  0  0  0  0  0  0  0  0
   -6.2270    2.2070   -0.6550 C   0  0  0  0  0  0  0  0  0  0  0  0
   -6.9900    2.1970    0.5510 N   0  0  0  0  0  0  0  0  0  0  0  0
   -5.1610   -0.0510   -0.4960 C   0  0  0  0  0  0  0  0  0  0  0  0
   -6.3860   -0.6650   -0.4700 C   0  0  0  0  0  0  0  0  0  0  0  0
   -6.4130   -2.0490   -0.3670 C   0  0  0  0  0  0  0  0  0  0  0  0
   -5.2640   -2.8180   -0.2910 C   0  0  0  0  0  0  0  0  0  0  0  0
   -5.2840   -4.2900   -0.1820 C   0  0  0  0  0  0  0  0  0  0  0  0
   -4.0430   -2.1780   -0.3180 C   0  0  0  0  0  0  0  0  0  0  0  0
   -3.9980   -0.8060   -0.4200 C   0  0  0  0  0  0  0  0  0  0  0  0
    1.3560    1.4310   -1.0550 C   0  0  0  0  0  0  0  0  0  0  0  0
  1  2  1  0
  2  3  1  0
  3  4  1  0
  4  5  1  0
  5  6  1  0
  5  7  2  3
  7  8  1  0
  7 12  1  0
  8  9  2  0
  8 10  1  0
 10 11  1  0
 11 12  2  0
 13 12  1  6
 13 14  1  0
 13 33  1  0
 14 15  1  0
 15 16  1  0
 16 17  1  0
 16 33  1  0
 17 18  1  0
 18 19  2  0
 18 20  1  0
 20 21  1  0
 20 32  1  0
 21 22  1  0
 22 23  1  0
 23 24  1  1
 23 26  1  0
 24 25  1  0
 26 27  2  0
 26 32  1  0
 27 28  1  0
 28 29  2  0
 29 30  1  0
 29 31  1  0
 31 32  2  0
M  CHG  1  25   1
M  END
