
     RDKit          3D

 31 34  0  0  0  0  0  0  0  0999 V2000
   -4.4030    1.4830    3.4530 C   0  0  0  0  0  0  0  0  0  0  0  0
   -5.2850    0.3730    2.9240 C   0  0  0  0  0  0  0  0  0  0  0  0
   -4.6120   -0.2940    1.7490 C   0  0  0  0  0  0  0  0  0  0  0  0
   -4.3720    0.6200    0.6960 O   0  0  0  0  0  0  0  0  0  0  0  0
   -3.7750    0.2900   -0.4870 C   0  0  0  0  0  0  0  0  0  0  0  0
   -4.5480   -0.1370   -1.5480 C   0  0  0  0  0  0  0  0  0  0  0  0
   -6.2850   -0.2560   -1.3820 Cl  0  0  0  0  0  0  0  0  0  0  0  0
   -3.9570   -0.4710   -2.7460 C   0  0  0  0  0  0  0  0  0  0  0  0
   -4.7780   -0.9350   -3.9030 C   0  0  0  0  0  0  0  0  0  0  0  0
   -2.6090   -0.3810   -2.8830 C   0  0  0  0  0  0  0  0  0  0  0  0
   -1.8310    0.0530   -1.8030 C   0  0  0  0  0  0  0  0  0  0  0  0
   -0.4780    0.2460   -1.6300 C   0  0  0  0  0  0  0  0  0  0  0  0
   -0.2490    0.6890   -0.3520 C   0  0  0  0  0  0  0  0  0  0  0  0
    1.0050    1.0320    0.3080 C   0  0  0  0  0  0  0  0  0  0  0  0
    1.0410    1.4470    1.4940 O   0  0  0  0  0  0  0  0  0  0  0  0
    2.2560    0.9230   -0.3320 O   0  0  0  0  0  0  0  0  0  0  0  0
    3.4090    1.2650    0.3240 C   0  0  0  0  0  0  0  0  0  0  0  0
    3.5130    2.5680    0.6970 N   0  0  0  0  0  0  0  0  0  0  0  0
    4.5730    3.0340    1.3430 C   0  0  0  0  0  0  0  0  0  0  0  0
    5.5890    2.2350    1.6550 N   0  0  0  0  0  0  0  0  0  0  0  0
    5.5270    0.9260    1.3000 C   0  0  0  0  0  0  0  0  0  0  0  0
    6.5340    0.0940    1.5970 N   0  0  0  0  0  0  0  0  0  0  0  0
    6.5130   -1.2030    1.2620 C   0  0  0  0  0  0  0  0  0  0  0  0
    7.4770   -1.9330    1.5640 O   0  0  0  0  0  0  0  0  0  0  0  0
    5.4230   -1.7080    0.5880 C   0  0  0  0  0  0  0  0  0  0  0  0
    4.3270   -0.9020    0.2400 C   0  0  0  0  0  0  0  0  0  0  0  0
    3.1940   -1.4430   -0.5210 C   0  0  0  0  0  0  0  0  0  0  0  0
    3.2650   -1.1040   -1.9960 C   0  0  0  0  0  0  0  0  0  0  0  0
    4.4140    0.4210    0.6170 C   0  0  0  0  0  0  0  0  0  0  0  0
   -1.4450    0.7630    0.2360 O   0  0  0  0  0  0  0  0  0  0  0  0
   -2.3860    0.3960   -0.5900 C   0  0  0  0  0  0  0  0  0  0  0  0
  1  2  1  0
  2  3  1  0
  3  4  1  0
  4  5  1  0
  5  6  2  0
  5 31  1  0
  6  7  1  0
  6  8  1  0
  8  9  1  0
  8 10  2  0
 10 11  1  0
 11 12  1  0
 11 31  2  0
 12 13  2  0
 13 14  1  0
 13 30  1  0
 14 15  2  0
 14 16  1  0
 16 17  1  0
 17 18  2  0
 17 29  1  0
 18 19  1  0
 19 20  2  0
 20 21  1  0
 21 22  1  0
 21 29  2  0
 22 23  1  0
 23 24  2  0
 23 25  1  0
 25 26  2  0
 26 27  1  0
 26 29  1  0
 27 28  1  0
 30 31  1  0
M  END
