
     RDKit          3D

 32 35  0  0  0  0  0  0  0  0999 V2000
    4.6410   -4.4000    0.3280 C   0  0  0  0  0  0  0  0  0  0  0  0
    4.3870   -3.2050   -0.0670 O   0  0  0  0  0  0  0  0  0  0  0  0
    4.1390   -2.0090   -0.4750 C   0  0  0  0  0  0  0  0  0  0  0  0
    3.3900   -1.1000    0.3220 C   0  0  0  0  0  0  0  0  0  0  0  0
    3.1270    0.1640   -0.1050 C   0  0  0  0  0  0  0  0  0  0  0  0
    2.3580    1.0840    0.7230 C   0  0  0  0  0  0  0  0  0  0  0  0
    0.9290    0.9960    0.4950 N   0  0  0  0  0  0  0  0  0  0  0  0
    0.0730    0.1900    1.1100 N   0  0  0  0  0  0  0  0  0  0  0  0
   -1.1740    0.3510    0.6620 C   0  0  0  0  0  0  0  0  0  0  0  0
   -2.3990   -0.3350    1.0680 C   0  0  0  0  0  0  0  0  0  0  0  0
   -3.4950   -0.0540    0.5350 O   0  0  0  0  0  0  0  0  0  0  0  0
   -2.4030   -1.3150    2.0490 O   0  0  0  0  0  0  0  0  0  0  0  0
   -3.5510   -1.9840    2.4560 C   0  0  0  0  0  0  0  0  0  0  0  0
   -4.3140   -1.4760    3.4950 C   0  0  0  0  0  0  0  0  0  0  0  0
   -5.4540   -2.1170    3.9170 C   0  0  0  0  0  0  0  0  0  0  0  0
   -5.8520   -3.2890    3.3000 C   0  0  0  0  0  0  0  0  0  0  0  0
   -5.0800   -3.7930    2.2560 C   0  0  0  0  0  0  0  0  0  0  0  0
   -3.9310   -3.1430    1.8340 C   0  0  0  0  0  0  0  0  0  0  0  0
   -1.1150    1.3400   -0.3200 C   0  0  0  0  0  0  0  0  0  0  0  0
   -2.0610    1.9320   -1.1310 C   0  0  0  0  0  0  0  0  0  0  0  0
   -1.7420    2.9050   -2.0360 C   0  0  0  0  0  0  0  0  0  0  0  0
   -2.9730    3.6520   -3.0690 Cl  0  0  0  0  0  0  0  0  0  0  0  0
   -0.3980    3.3070   -2.1320 C   0  0  0  0  0  0  0  0  0  0  0  0
   -0.0850    4.3160   -3.0720 N   0  0  0  0  0  0  0  0  0  0  0  0
    1.2120    4.8130   -3.2810 C   0  0  0  0  0  0  0  0  0  0  0  0
    2.2360    4.4320   -2.6710 O   0  0  0  0  0  0  0  0  0  0  0  0
    1.3270    5.8280   -4.2710 O   0  0  0  0  0  0  0  0  0  0  0  0
    0.5220    2.7130   -1.3240 C   0  0  0  0  0  0  0  0  0  0  0  0
    0.2100    1.7100   -0.3880 C   0  0  0  0  0  0  0  0  0  0  0  0
    3.6090    0.5370   -1.3360 C   0  0  0  0  0  0  0  0  0  0  0  0
    4.3360   -0.3500   -2.1080 C   0  0  0  0  0  0  0  0  0  0  0  0
    4.5950   -1.5680   -1.7050 N   0  0  0  0  0  0  0  0  0  0  0  0
  1  2  1  0
  2  3  1  0
  3  4  2  0
  3 32  1  0
  4  5  1  0
  5  6  1  0
  5 30  2  0
  6  7  1  0
  7  8  1  0
  7 29  1  0
  8  9  2  0
  9 10  1  0
  9 19  1  0
 10 11  2  0
 10 12  1  0
 12 13  1  0
 13 14  2  0
 13 18  1  0
 14 15  1  0
 15 16  2  0
 16 17  1  0
 17 18  2  0
 19 20  2  0
 19 29  1  0
 20 21  1  0
 21 22  1  0
 21 23  2  0
 23 24  1  0
 23 28  1  0
 24 25  1  0
 25 26  2  0
 25 27  1  0
 28 29  2  0
 30 31  1  0
 31 32  2  0
M  END
