
     RDKit          3D

 38 41  0  0  0  0  0  0  0  0999 V2000
    5.7230   -2.1630    0.3410 N   0  0  0  0  0  0  0  0  0  0  0  0
    5.3500   -0.7940    0.7290 C   0  0  1  0  0  0  0  0  0  0  0  0
    6.6260   -0.0510    0.9540 C   0  0  1  0  0  0  0  0  0  0  0  0
    7.5690   -0.1020   -0.1930 C   0  0  0  0  0  0  0  0  0  0  0  0
    8.2010    1.2630   -0.2270 C   0  0  0  0  0  0  0  0  0  0  0  0
    7.6010    1.9580    0.9470 C   0  0  0  0  0  0  0  0  0  0  0  0
    6.4630    1.2660    1.3300 O   0  0  0  0  0  0  0  0  0  0  0  0
    4.4830   -0.1990   -0.3500 C   0  0  2  0  0  0  0  0  0  0  0  0
    4.2100    1.2470   -0.0640 C   0  0  0  0  0  0  0  0  0  0  0  0
    2.9820    1.6760   -0.6750 O   0  0  0  0  0  0  0  0  0  0  0  0
    1.8760    0.8550   -0.5470 C   0  0  0  0  0  0  0  0  0  0  0  0
    0.5870    1.3340   -0.5150 C   0  0  0  0  0  0  0  0  0  0  0  0
   -0.5220    0.4830   -0.3840 C   0  0  0  0  0  0  0  0  0  0  0  0
   -1.8340    1.0120   -0.3610 N   0  0  0  0  0  0  0  0  0  0  0  0
   -3.0280    0.2260   -0.1460 C   0  0  2  0  0  0  0  0  0  0  0  0
   -2.9360   -0.3690    1.2200 C   0  0  0  0  0  0  0  0  0  0  0  0
   -3.7980    0.2800    2.2470 C   0  0  0  0  0  0  0  0  0  0  0  0
   -4.1210   -0.5370    3.1850 O   0  0  0  0  0  0  0  0  0  0  0  0
   -4.1390    1.5600    2.1230 O   0  0  0  0  0  0  0  0  0  0  0  0
   -5.1600    2.3250    1.6430 C   0  0  1  0  0  0  0  0  0  0  0  0
   -4.7210    3.3270    0.7370 O   0  0  0  0  0  0  0  0  0  0  0  0
   -6.3720    1.6560    1.0990 C   0  0  1  0  0  0  0  0  0  0  0  0
   -7.5270    1.8730    1.8910 O   0  0  0  0  0  0  0  0  0  0  0  0
   -6.7200    2.1800   -0.1610 O   0  0  0  0  0  0  0  0  0  0  0  0
   -6.2280    0.2670    1.0640 O   0  0  0  0  0  0  0  0  0  0  0  0
   -6.8240   -0.1090   -0.0920 O   0  0  0  0  0  0  0  0  0  0  0  0
   -6.1930   -0.7350   -1.1380 C   0  0  0  0  0  0  0  0  0  0  0  0
   -6.2600   -0.1960   -2.2890 O   0  0  0  0  0  0  0  0  0  0  0  0
   -5.4620   -1.9880   -0.9430 C   0  0  2  0  0  0  0  0  0  0  0  0
   -5.7970   -2.5790    0.4180 C   0  0  0  0  0  0  0  0  0  0  0  0
   -7.1900   -2.5950    0.5100 O   0  0  0  0  0  0  0  0  0  0  0  0
   -4.0460   -1.9060   -1.2000 N   0  0  0  0  0  0  0  0  0  0  0  0
   -3.2210   -0.7830   -1.2310 C   0  0  0  0  0  0  0  0  0  0  0  0
   -2.5380   -0.5650   -2.2970 O   0  0  0  0  0  0  0  0  0  0  0  0
   -0.3080   -0.8740   -0.2850 C   0  0  0  0  0  0  0  0  0  0  0  0
    0.9840   -1.3810   -0.3150 C   0  0  0  0  0  0  0  0  0  0  0  0
    2.0670   -0.5110   -0.4450 C   0  0  0  0  0  0  0  0  0  0  0  0
    3.3460   -0.9990   -0.4760 O   0  0  0  0  0  0  0  0  0  0  0  0
  2  1  1  6
  2  3  1  0
  2  8  1  0
  3  4  1  6
  3  7  1  0
  4  5  1  0
  5  6  1  0
  6  7  1  0
  8  9  1  1
  8 38  1  0
  9 10  1  0
 10 11  1  0
 11 12  2  0
 11 37  1  0
 12 13  1  0
 13 14  1  0
 13 35  2  0
 15 14  1  6
 15 16  1  0
 15 33  1  0
 16 17  1  0
 17 18  2  0
 17 19  1  0
 19 20  1  0
 20 21  1  6
 20 22  1  0
 22 23  1  1
 22 24  1  0
 22 25  1  0
 25 26  1  0
 26 27  1  0
 27 28  2  0
 27 29  1  0
 29 30  1  1
 29 32  1  0
 30 31  1  0
 32 33  1  0
 33 34  2  0
 35 36  1  0
 36 37  2  0
 37 38  1  0
M  CHG  2   1   1  23  -1
M  END
