
     RDKit          3D

 38 39  0  0  0  0  0  0  0  0999 V2000
    3.7040   -3.3990   -0.1270 C   0  0  0  0  0  0  0  0  0  0  0  0
    2.8200   -2.2780   -0.7090 C   0  0  1  0  0  0  0  0  0  0  0  0
    1.7710   -3.0070   -1.5070 C   0  0  0  0  0  0  0  0  0  0  0  0
    2.4330   -3.9010   -2.4000 O   0  0  0  0  0  0  0  0  0  0  0  0
    2.2600   -1.4480    0.3870 C   0  0  0  0  0  0  0  0  0  0  0  0
    1.4030   -0.4310    0.0750 O   0  0  0  0  0  0  0  0  0  0  0  0
    0.1290   -0.3780   -0.3850 C   0  0  0  0  0  0  0  0  0  0  0  0
   -0.4760   -1.4520   -0.5770 O   0  0  0  0  0  0  0  0  0  0  0  0
   -0.6180    0.8710   -0.6830 C   0  0  0  0  0  0  0  0  0  0  0  0
   -1.5300    1.2800    0.4590 C   0  0  1  0  0  0  0  0  0  0  0  0
   -2.5330    0.2480    0.7590 C   0  0  0  0  0  0  0  0  0  0  0  0
   -2.5450   -0.3150    1.8820 O   0  0  0  0  0  0  0  0  0  0  0  0
   -3.5100   -0.1770   -0.1310 O   0  0  0  0  0  0  0  0  0  0  0  0
   -4.4570   -1.1720    0.1920 C   0  0  1  0  0  0  0  0  0  0  0  0
   -5.8360   -0.5290    0.1860 C   0  0  0  0  0  0  0  0  0  0  0  0
   -6.9420   -1.4810    0.4860 C   0  0  0  0  0  0  0  0  0  0  0  0
   -6.5460   -2.9360    0.4630 C   0  0  0  0  0  0  0  0  0  0  0  0
   -5.5740   -3.2200   -0.5700 N   0  0  0  0  0  0  0  0  0  0  0  0
   -4.4980   -2.3060   -0.7340 C   0  0  0  0  0  0  0  0  0  0  0  0
   -3.6680   -2.5320   -1.6510 O   0  0  0  0  0  0  0  0  0  0  0  0
   -0.7240    1.5650    1.6860 C   0  0  0  0  0  0  0  0  0  0  0  0
   -1.5330    2.0870    2.8210 C   0  0  0  0  0  0  0  0  0  0  0  0
   -2.5800    3.0900    2.3930 C   0  0  2  0  0  0  0  0  0  0  0  0
   -3.8630    2.5840    2.4410 O   0  0  0  0  0  0  0  0  0  0  0  0
   -2.2270    3.6320    1.0240 C   0  0  1  0  0  0  0  0  0  0  0  0
   -1.0250    4.3340    1.1370 O   0  0  0  0  0  0  0  0  0  0  0  0
   -2.1880    2.5770   -0.0240 C   0  0  1  0  0  0  0  0  0  0  0  0
   -1.6200    3.0800   -1.1680 O   0  0  0  0  0  0  0  0  0  0  0  0
    3.5720   -1.5400   -1.6610 O   0  0  0  0  0  0  0  0  0  0  0  0
    4.7350   -0.9100   -1.2910 C   0  0  0  0  0  0  0  0  0  0  0  0
    5.1200   -0.9950   -0.1260 O   0  0  0  0  0  0  0  0  0  0  0  0
    5.5150   -0.1560   -2.2220 N   0  0  0  0  0  0  0  0  0  0  0  0
    6.6960    0.5670   -1.9750 C   0  0  0  0  0  0  0  0  0  0  0  0
    6.7410    1.8210   -1.2440 C   0  0  0  0  0  0  0  0  0  0  0  0
    6.2420    2.0490    0.1060 C   0  0  0  0  0  0  0  0  0  0  0  0
    4.8370    1.9580    0.3510 N   0  0  0  0  0  0  0  0  0  0  0  0
    4.3920    1.3910    1.3520 O   0  0  0  0  0  0  0  0  0  0  0  0
    3.9030    2.5470   -0.4870 O   0  0  0  0  0  0  0  0  0  0  0  0
  2  1  1  1
  2  3  1  0
  2  5  1  0
  2 29  1  0
  3  4  1  0
  5  6  1  0
  6  7  1  0
  7  8  2  0
  7  9  1  0
 10  9  1  6
 10 11  1  0
 10 21  1  0
 10 27  1  0
 11 12  2  0
 11 13  1  0
 14 13  1  6
 14 15  1  0
 14 19  1  0
 15 16  1  0
 16 17  1  0
 17 18  1  0
 18 19  1  0
 19 20  2  0
 21 22  1  0
 22 23  1  0
 23 24  1  6
 23 25  1  0
 25 26  1  1
 25 27  1  0
 27 28  1  6
 29 30  1  0
 30 31  2  0
 30 32  1  0
 32 33  1  0
 33 34  1  0
 34 35  1  0
 35 36  1  0
 36 37  2  0
 36 38  1  0
M  CHG  2  36   1  38  -1
M  END
