
     RDKit          3D

 19 19  0  0  0  0  0  0  0  0999 V2000
   -0.3980    2.2080   -0.7170 C   0  0  0  0  0  0  0  0  0  0  0  0
    0.0050    0.7930   -1.0890 C   0  0  1  0  0  0  0  0  0  0  0  0
    0.0730    0.8980   -2.5210 O   0  0  0  0  0  0  0  0  0  0  0  0
    1.3930    0.5750   -0.6310 C   0  0  2  0  0  0  0  0  0  0  0  0
    2.0990   -0.6360   -1.1520 C   0  0  0  0  0  0  0  0  0  0  0  0
    3.4700   -0.3940   -0.9550 O   0  0  0  0  0  0  0  0  0  0  0  0
    3.7860   -0.1970    0.3680 C   0  0  2  0  0  0  0  0  0  0  0  0
    4.2350   -1.5060    0.8690 N   0  0  0  0  0  0  0  0  0  0  0  0
    2.7570    0.3580    1.2430 C   0  0  0  0  0  0  0  0  0  0  0  0
    1.4770    0.4530    0.7550 O   0  0  0  0  0  0  0  0  0  0  0  0
   -0.9930   -0.2480   -0.8800 C   0  0  1  0  0  0  0  0  0  0  0  0
   -0.5100   -1.4110   -1.5430 O   0  0  0  0  0  0  0  0  0  0  0  0
   -1.4890   -0.6290    0.4430 C   0  0  2  0  0  0  0  0  0  0  0  0
   -2.5060   -1.7620    0.1860 C   0  0  0  0  0  0  0  0  0  0  0  0
   -3.0740   -2.2220    1.3640 O   0  0  0  0  0  0  0  0  0  0  0  0
   -2.1680    0.3760    1.2900 C   0  0  0  0  0  0  0  0  0  0  0  0
   -3.3900    0.9910    0.7500 C   0  0  0  0  0  0  0  0  0  0  0  0
   -4.4140    0.3580    0.3600 O   0  0  0  0  0  0  0  0  0  0  0  0
   -3.4810    2.3860    0.6330 O   0  0  0  0  0  0  0  0  0  0  0  0
  2  1  1  1
  2  3  1  0
  2  4  1  0
  2 11  1  0
  4  5  1  6
  4 10  1  0
  5  6  1  0
  6  7  1  0
  7  8  1  1
  7  9  1  0
  9 10  1  0
 11 12  1  1
 11 13  1  0
 13 14  1  6
 13 16  1  0
 14 15  1  0
 16 17  1  0
 17 18  2  0
 17 19  1  0
M  END
