
     RDKit          3D

 23 24  0  0  0  0  0  0  0  0999 V2000
   -7.4430   -2.1670    0.5700 C   0  0  0  0  0  0  0  0  0  0  0  0
   -6.7710   -1.0300    0.6680 C   0  0  0  0  0  0  0  0  0  0  0  0
   -6.2900   -0.3640   -0.5740 C   0  0  0  0  0  0  0  0  0  0  0  0
   -4.8950   -0.2180   -0.6100 O   0  0  0  0  0  0  0  0  0  0  0  0
   -4.1620    0.4910    0.3220 C   0  0  0  0  0  0  0  0  0  0  0  0
   -4.7540    1.0520    1.2730 O   0  0  0  0  0  0  0  0  0  0  0  0
   -2.7170    0.6160    0.2440 C   0  0  0  0  0  0  0  0  0  0  0  0
   -1.8820    1.2890    1.1030 C   0  0  0  0  0  0  0  0  0  0  0  0
   -0.5590    1.1600    0.6670 C   0  0  0  0  0  0  0  0  0  0  0  0
    0.6180    1.7330    1.3130 C   0  0  0  0  0  0  0  0  0  0  0  0
    0.4890    2.4140    2.3600 O   0  0  0  0  0  0  0  0  0  0  0  0
    1.8620    1.5350    0.7880 O   0  0  0  0  0  0  0  0  0  0  0  0
    3.0510    2.0640    1.3650 C   0  0  0  0  0  0  0  0  0  0  0  0
    4.1930    1.6130    0.4790 C   0  0  0  0  0  0  0  0  0  0  0  0
    4.1720    0.1910    0.4910 O   0  0  0  0  0  0  0  0  0  0  0  0
    5.1670   -0.5020   -0.2820 C   0  0  0  0  0  0  0  0  0  0  0  0
    4.8670   -1.5050   -1.0140 C   0  0  0  0  0  0  0  0  0  0  0  0
    5.9310   -2.1760   -1.7850 C   0  0  0  0  0  0  0  0  0  0  0  0
    7.2100   -0.8540   -1.7500 S   0  0  0  0  0  0  0  0  0  0  0  0
    6.5770   -0.0580   -0.2420 C   0  0  0  0  0  0  0  0  0  0  0  0
   -0.6260    0.4110   -0.4450 N   0  0  0  0  0  0  0  0  0  0  0  0
   -1.9030    0.0710   -0.7220 C   0  0  0  0  0  0  0  0  0  0  0  0
   -2.3430   -0.7590   -1.8890 C   0  0  0  0  0  0  0  0  0  0  0  0
  1  2  2  0
  2  3  1  0
  3  4  1  0
  4  5  1  0
  5  6  2  0
  5  7  1  0
  7  8  1  0
  7 22  2  0
  8  9  2  0
  9 10  1  0
  9 21  1  0
 10 11  2  0
 10 12  1  0
 12 13  1  0
 13 14  1  0
 14 15  1  0
 15 16  1  0
 16 17  2  0
 16 20  1  0
 17 18  1  0
 18 19  1  0
 19 20  1  0
 21 22  1  0
 22 23  1  0
M  END
