
     RDKit          3D

 20 20  0  0  0  0  0  0  0  0999 V2000
   -0.7990   -0.9390   -1.6120 C   0  0  0  0  0  0  0  0  0  0  0  0
   -0.7990    0.0300   -0.4850 C   0  0  2  0  0  0  0  0  0  0  0  0
   -0.3080    1.2580   -0.9910 O   0  0  0  0  0  0  0  0  0  0  0  0
    0.0650   -0.3530    0.6870 C   0  0  0  0  0  0  0  0  0  0  0  0
    1.4960   -0.4710    0.2140 C   0  0  2  0  0  0  0  0  0  0  0  0
    1.5120   -1.4610   -0.7620 O   0  0  0  0  0  0  0  0  0  0  0  0
    2.3340   -0.8330    1.3970 C   0  0  0  0  0  0  0  0  0  0  0  0
    3.6390   -1.0510    1.2130 O   0  0  0  0  0  0  0  0  0  0  0  0
    4.4270   -0.0710    0.7210 C   0  0  1  0  0  0  0  0  0  0  0  0
    4.4510    1.0930    1.5220 O   0  0  0  0  0  0  0  0  0  0  0  0
    5.7640   -0.5480    0.7870 O   0  0  0  0  0  0  0  0  0  0  0  0
    4.2150    0.3020   -0.6420 N   0  0  0  0  0  0  0  0  0  0  0  0
    4.4060   -0.6760   -1.5210 O   0  0  0  0  0  0  0  0  0  0  0  0
   -2.2270    0.3080   -0.0690 C   0  0  1  0  0  0  0  0  0  0  0  0
   -2.9470    0.7900   -1.3100 C   0  0  0  0  0  0  0  0  0  0  0  0
   -2.8970   -0.9350    0.4850 C   0  0  0  0  0  0  0  0  0  0  0  0
   -4.2800   -0.6460    0.4380 O   0  0  0  0  0  0  0  0  0  0  0  0
   -4.5620    0.4100    1.2570 C   0  0  0  0  0  0  0  0  0  0  0  0
   -3.6050    1.5410    1.2630 C   0  0  0  0  0  0  0  0  0  0  0  0
   -2.3180    1.2820    0.8940 O   0  0  0  0  0  0  0  0  0  0  0  0
  2  1  1  6
  2  3  1  0
  2  4  1  0
  2 14  1  0
  4  5  1  0
  5  6  1  6
  5  7  1  0
  7  8  1  0
  8  9  1  0
  9 10  1  1
  9 11  1  0
  9 12  1  0
 12 13  1  0
 14 15  1  6
 14 16  1  0
 14 20  1  0
 16 17  1  0
 17 18  1  0
 18 19  1  0
 19 20  1  0
M  END
