
     RDKit          3D

 19 19  0  0  0  0  0  0  0  0999 V2000
    5.4220    1.4840   -0.4220 N   0  0  0  0  0  0  0  0  0  0  0  0
    5.5430    0.1580    0.1120 C   0  0  0  0  0  0  0  0  0  0  0  0
    4.1960   -0.5660    0.1710 C   0  0  2  0  0  0  0  0  0  0  0  0
    3.6830   -0.6560   -1.0960 O   0  0  0  0  0  0  0  0  0  0  0  0
    3.3080    0.0590    1.1990 C   0  0  0  0  0  0  0  0  0  0  0  0
    2.0980   -0.5720    1.4400 O   0  0  0  0  0  0  0  0  0  0  0  0
    1.0500   -0.7800    0.5730 C   0  0  0  0  0  0  0  0  0  0  0  0
    1.1960   -0.3400   -0.5940 O   0  0  0  0  0  0  0  0  0  0  0  0
   -0.1870   -1.4860    0.9880 C   0  0  0  0  0  0  0  0  0  0  0  0
   -1.2590   -1.5440   -0.0330 C   0  0  2  0  0  0  0  0  0  0  0  0
   -0.7910   -2.1790   -1.1790 O   0  0  0  0  0  0  0  0  0  0  0  0
   -1.9080   -0.2400   -0.4010 C   0  0  1  0  0  0  0  0  0  0  0  0
   -1.0920    0.6610   -1.0490 O   0  0  0  0  0  0  0  0  0  0  0  0
   -3.1090   -0.6070   -1.2780 C   0  0  0  0  0  0  0  0  0  0  0  0
   -4.2640   -0.1720   -0.4030 C   0  0  0  0  0  0  0  0  0  0  0  0
   -3.6100    1.0200    0.3040 C   0  0  1  0  0  0  0  0  0  0  0  0
   -4.4290    1.5060    1.4460 C   0  0  0  0  0  0  0  0  0  0  0  0
   -3.6700    2.4440    2.1490 O   0  0  0  0  0  0  0  0  0  0  0  0
   -2.4260    0.4180    0.7140 O   0  0  0  0  0  0  0  0  0  0  0  0
  1  2  1  0
  2  3  1  0
  3  4  1  6
  3  5  1  0
  5  6  1  0
  6  7  1  0
  7  8  2  0
  7  9  1  0
  9 10  1  0
 10 11  1  6
 10 12  1  0
 12 13  1  6
 12 14  1  0
 12 19  1  0
 14 15  1  0
 15 16  1  0
 16 17  1  1
 16 19  1  0
 17 18  1  0
M  END
