
     RDKit          3D

 20 20  0  0  0  0  0  0  0  0999 V2000
   -4.1110   -1.0130    0.2120 O   0  0  0  0  0  0  0  0  0  0  0  0
   -4.5100    0.1660    0.2440 C   0  0  0  0  0  0  0  0  0  0  0  0
   -3.6960    1.2140    0.7010 N   0  0  0  0  0  0  0  0  0  0  0  0
   -2.3540    1.1720    1.1650 C   0  0  0  0  0  0  0  0  0  0  0  0
   -1.3140    0.8080    0.1580 C   0  0  1  0  0  0  0  0  0  0  0  0
   -1.3840    1.7180   -0.9520 O   0  0  0  0  0  0  0  0  0  0  0  0
    0.0830    1.1570    0.7410 C   0  0  0  0  0  0  0  0  0  0  0  0
    0.7070   -0.0680    1.3290 C   0  0  0  0  0  0  0  0  0  0  0  0
    0.8480   -1.2190    0.3800 C   0  0  2  0  0  0  0  0  0  0  0  0
    0.0620   -2.2650    0.9890 O   0  0  0  0  0  0  0  0  0  0  0  0
    2.1940   -1.8090    0.2320 C   0  0  0  0  0  0  0  0  0  0  0  0
    3.1900   -1.1300   -0.3550 O   0  0  0  0  0  0  0  0  0  0  0  0
    3.6260    0.0500    0.1470 C   0  0  0  0  0  0  0  0  0  0  0  0
    4.8200    0.5920   -0.6770 C   0  0  0  0  0  0  0  0  0  0  0  0
    5.1910    1.7920   -0.0910 O   0  0  0  0  0  0  0  0  0  0  0  0
    0.1120   -0.8940   -0.8740 C   0  0  2  0  0  0  0  0  0  0  0  0
    0.5490    0.1660   -1.6010 O   0  0  0  0  0  0  0  0  0  0  0  0
   -1.3320   -0.5640   -0.3900 C   0  0  0  0  0  0  0  0  0  0  0  0
   -5.8150    0.4960   -0.1840 O   0  0  0  0  0  0  0  0  0  0  0  0
   -6.5660   -0.5300   -0.6140 O   0  0  0  0  0  0  0  0  0  0  0  0
  1  2  2  0
  2  3  1  0
  2 19  1  0
  3  4  1  0
  4  5  1  0
  5  6  1  6
  5  7  1  0
  5 18  1  0
  7  8  1  0
  8  9  1  0
  9 10  1  1
  9 11  1  0
  9 16  1  0
 11 12  1  0
 12 13  1  0
 13 14  1  0
 14 15  1  0
 16 17  1  1
 16 18  1  0
 19 20  1  0
M  END
