
     RDKit          3D

 22 22  0  0  0  0  0  0  0  0999 V2000
    2.6920    2.4530    0.5910 C   0  0  0  0  0  0  0  0  0  0  0  0
    3.8450    1.7500    0.4000 C   0  0  0  0  0  0  0  0  0  0  0  0
    5.0930    2.5120    0.4980 C   0  0  0  0  0  0  0  0  0  0  0  0
    3.7440    0.3510    0.1250 C   0  0  0  0  0  0  0  0  0  0  0  0
    2.4120   -0.2240    0.0710 O   0  0  0  0  0  0  0  0  0  0  0  0
    1.9190   -0.6570    1.3420 C   0  0  0  0  0  0  0  0  0  0  0  0
    0.5120   -1.2450    1.1670 C   0  0  0  0  0  0  0  0  0  0  0  0
   -0.4000   -0.1660    0.5950 C   0  0  0  0  0  0  0  0  0  0  0  0
   -1.7690   -0.7950    0.4510 C   0  0  2  0  0  0  0  0  0  0  0  0
   -2.1470   -1.1910    1.7450 O   0  0  0  0  0  0  0  0  0  0  0  0
   -1.6110   -2.0260   -0.3760 C   0  0  0  0  0  0  0  0  0  0  0  0
   -2.8600   -2.6130   -0.9330 C   0  0  0  0  0  0  0  0  0  0  0  0
   -3.6250   -1.5750   -1.6790 C   0  0  0  0  0  0  0  0  0  0  0  0
   -2.9920   -0.2110   -1.5670 C   0  0  0  0  0  0  0  0  0  0  0  0
   -2.7780    0.2080   -0.1350 C   0  0  1  0  0  0  0  0  0  0  0  0
   -4.0100    0.0460    0.6810 C   0  0  0  0  0  0  0  0  0  0  0  0
   -5.1880    0.8690    0.3680 C   0  0  0  0  0  0  0  0  0  0  0  0
   -2.1900    1.5880   -0.1400 C   0  0  0  0  0  0  0  0  0  0  0  0
   -3.0410    2.6750   -0.6860 C   0  0  0  0  0  0  0  0  0  0  0  0
    4.7330   -0.4670   -0.0830 C   0  0  0  0  0  0  0  0  0  0  0  0
    4.3790   -1.9430   -0.3610 C   0  0  0  0  0  0  0  0  0  0  0  0
    6.1620   -0.1330   -0.0830 C   0  0  0  0  0  0  0  0  0  0  0  0
  1  2  2  0
  2  3  1  0
  2  4  1  0
  4  5  1  0
  4 20  2  3
  5  6  1  0
  6  7  1  0
  7  8  1  0
  8  9  1  0
  9 10  1  1
  9 11  1  0
  9 15  1  0
 11 12  1  0
 12 13  1  0
 13 14  1  0
 14 15  1  0
 15 16  1  1
 15 18  1  0
 16 17  1  0
 18 19  1  0
 20 21  1  0
 20 22  1  0
M  END
