
     RDKit          3D

 22 23  0  0  0  0  0  0  0  0999 V2000
   -6.1660    0.8170    1.0620 N   0  0  0  0  0  0  0  0  0  0  0  0
   -5.1710   -0.1370    0.6430 C   0  0  0  0  0  0  0  0  0  0  0  0
   -4.0010    0.6390    0.1140 C   0  0  0  0  0  0  0  0  0  0  0  0
   -3.8580    1.9630    0.0260 N   0  0  0  0  0  0  0  0  0  0  0  0
   -2.6780    2.2270   -0.4970 N   0  0  0  0  0  0  0  0  0  0  0  0
   -2.0630    1.0950   -0.7460 N   0  0  0  0  0  0  0  0  0  0  0  0
   -2.8570    0.0720   -0.3780 C   0  0  0  0  0  0  0  0  0  0  0  0
   -2.5730   -1.4070   -0.4740 C   0  0  0  0  0  0  0  0  0  0  0  0
   -1.2610   -1.5280   -1.0490 N   0  0  0  0  0  0  0  0  0  0  0  0
   -0.1100   -0.9600   -0.4040 C   0  0  0  0  0  0  0  0  0  0  0  0
   -0.3010   -0.3610    0.6700 O   0  0  0  0  0  0  0  0  0  0  0  0
    1.1810   -1.0690   -0.9510 N   0  0  0  0  0  0  0  0  0  0  0  0
    2.3560   -0.5460   -0.3950 C   0  0  0  0  0  0  0  0  0  0  0  0
    2.4760    0.2070    0.7340 C   0  0  0  0  0  0  0  0  0  0  0  0
    3.7150    0.6760    1.2020 C   0  0  0  0  0  0  0  0  0  0  0  0
    4.8710    0.3840    0.5240 C   0  0  0  0  0  0  0  0  0  0  0  0
    6.4260    0.9730    1.1120 S   0  0  2  0  0  0  0  0  0  0  0  0
    7.3160    1.1320   -0.0650 O   0  0  0  0  0  0  0  0  0  0  0  0
    6.9590   -0.0820    2.0350 O   0  0  0  0  0  0  0  0  0  0  0  0
    4.7810   -0.3750   -0.6210 C   0  0  0  0  0  0  0  0  0  0  0  0
    6.2470   -0.7530   -1.4950 Cl  0  0  0  0  0  0  0  0  0  0  0  0
    3.5570   -0.8230   -1.0610 C   0  0  0  0  0  0  0  0  0  0  0  0
  1  2  1  0
  2  3  1  0
  3  4  1  0
  3  7  2  0
  4  5  1  0
  5  6  2  0
  6  7  1  0
  7  8  1  0
  8  9  1  0
  9 10  1  0
 10 11  2  0
 10 12  1  0
 12 13  1  0
 13 14  2  0
 13 22  1  0
 14 15  1  0
 15 16  2  0
 17 16  1  6
 16 20  1  0
 17 18  2  0
 17 19  2  0
 20 21  1  0
 20 22  2  0
M  END
