
     RDKit          3D

 22 22  0  0  0  0  0  0  0  0999 V2000
    7.6120   -1.0880   -1.2500 C   0  0  0  0  0  0  0  0  0  0  0  0
    6.9000    0.1080   -0.7580 C   0  0  0  0  0  0  0  0  0  0  0  0
    5.5760    0.0570   -0.6160 C   0  0  0  0  0  0  0  0  0  0  0  0
    4.8650   -1.1420   -0.9380 C   0  0  0  0  0  0  0  0  0  0  0  0
    3.6040   -1.3910   -0.8570 C   0  0  0  0  0  0  0  0  0  0  0  0
    2.5430   -0.5240   -0.4060 C   0  0  0  0  0  0  0  0  0  0  0  0
    1.2990   -0.9490   -0.4390 C   0  0  0  0  0  0  0  0  0  0  0  0
    0.0940   -0.2780   -0.0580 C   0  0  0  0  0  0  0  0  0  0  0  0
    0.0660    1.1300    0.3640 C   0  0  0  0  0  0  0  0  0  0  0  0
   -1.0830   -0.9170   -0.1660 C   0  0  0  0  0  0  0  0  0  0  0  0
   -2.3440   -0.3430    0.1900 C   0  0  0  0  0  0  0  0  0  0  0  0
   -3.3360   -0.1600   -0.7930 C   0  0  0  0  0  0  0  0  0  0  0  0
   -4.5770    0.3460   -0.5170 C   0  0  0  0  0  0  0  0  0  0  0  0
   -5.6280    0.5410   -1.5470 C   0  0  2  0  0  0  0  0  0  0  0  0
   -6.9930    0.6720   -0.8880 C   0  0  0  0  0  0  0  0  0  0  0  0
   -5.6700   -0.6060   -2.3440 O   0  0  0  0  0  0  0  0  0  0  0  0
   -4.8260    0.6790    0.8000 C   0  0  0  0  0  0  0  0  0  0  0  0
   -3.8760    0.5100    1.7820 C   0  0  0  0  0  0  0  0  0  0  0  0
   -2.6190   -0.0050    1.4910 C   0  0  0  0  0  0  0  0  0  0  0  0
   -1.6540   -0.2070    2.6290 C   0  0  0  0  0  0  0  0  0  0  0  0
    2.8160    0.7400    0.0710 O   0  0  0  0  0  0  0  0  0  0  0  0
    3.0750    0.9510    1.4690 C   0  0  0  0  0  0  0  0  0  0  0  0
  1  2  1  0
  2  3  2  3
  3  4  1  0
  4  5  2  3
  5  6  1  0
  6  7  2  3
  6 21  1  0
  7  8  1  0
  8  9  1  0
  8 10  2  3
 10 11  1  0
 11 12  2  0
 11 19  1  0
 12 13  1  0
 13 14  1  0
 13 17  2  0
 14 15  1  1
 14 16  1  0
 17 18  1  0
 18 19  2  0
 19 20  1  0
 21 22  1  0
M  END
