
     RDKit          3D

 22 23  0  0  0  0  0  0  0  0999 V2000
    4.4150    1.1550   -2.2940 C   0  0  0  0  0  0  0  0  0  0  0  0
    4.6410   -0.0090   -1.3870 C   0  0  0  0  0  0  0  0  0  0  0  0
    3.9100   -0.0560   -0.1040 C   0  0  1  0  0  0  0  0  0  0  0  0
    4.4440   -1.3570    0.5940 C   0  0  0  0  0  0  0  0  0  0  0  0
    4.2880    1.0820    0.7630 C   0  0  0  0  0  0  0  0  0  0  0  0
    2.4250   -0.3180   -0.1790 C   0  0  1  0  0  0  0  0  0  0  0  0
    1.8530   -0.3460    1.2180 C   0  0  0  0  0  0  0  0  0  0  0  0
    0.3840   -0.1430    1.3300 C   0  0  0  0  0  0  0  0  0  0  0  0
   -0.3020   -0.3720    0.0380 C   0  0  1  0  0  0  0  0  0  0  0  0
    0.0410   -1.5900   -0.5010 O   0  0  0  0  0  0  0  0  0  0  0  0
   -1.8220   -0.2900    0.1270 C   0  0  1  0  0  0  0  0  0  0  0  0
   -2.2540    1.0660    0.6210 C   0  0  0  0  0  0  0  0  0  0  0  0
   -3.7120    1.3000    0.7620 C   0  0  2  0  0  0  0  0  0  0  0  0
   -3.8380    2.7620    1.2620 C   0  0  0  0  0  0  0  0  0  0  0  0
   -4.4140    0.4760    1.7940 C   0  0  0  0  0  0  0  0  0  0  0  0
   -2.3830   -0.4340   -1.2760 C   0  0  0  0  0  0  0  0  0  0  0  0
   -3.6330   -1.2050   -1.4220 C   0  0  0  0  0  0  0  0  0  0  0  0
   -3.9070   -2.2470   -0.3770 C   0  0  0  0  0  0  0  0  0  0  0  0
   -2.5590   -2.4980    0.3070 C   0  0  0  0  0  0  0  0  0  0  0  0
   -2.2100   -1.3380    0.9440 O   0  0  0  0  0  0  0  0  0  0  0  0
    0.2350    0.7500   -0.8570 C   0  0  0  0  0  0  0  0  0  0  0  0
    1.7140    0.5490   -1.1230 C   0  0  0  0  0  0  0  0  0  0  0  0
  1  2  1  0
  2  3  1  0
  3  4  1  1
  3  5  1  0
  3  6  1  0
  6  7  1  1
  6 22  1  0
  7  8  1  0
  8  9  1  0
  9 10  1  6
  9 11  1  0
  9 21  1  0
 11 12  1  1
 11 16  1  0
 11 20  1  0
 12 13  1  0
 13 14  1  1
 13 15  1  0
 16 17  1  0
 17 18  1  0
 18 19  1  0
 19 20  1  0
 21 22  1  0
M  END
