
     RDKit          3D

 22 23  0  0  0  0  0  0  0  0999 V2000
    4.2270   -1.3790    0.6390 C   0  0  0  0  0  0  0  0  0  0  0  0
    3.9430   -0.1010    0.6610 C   0  0  0  0  0  0  0  0  0  0  0  0
    4.8900    0.8210   -0.0780 C   0  0  0  0  0  0  0  0  0  0  0  0
    2.7590    0.4850    1.3190 C   0  0  0  0  0  0  0  0  0  0  0  0
    1.5810   -0.3960    1.5470 C   0  0  0  0  0  0  0  0  0  0  0  0
    0.7590   -0.8830    0.4500 C   0  0  2  0  0  0  0  0  0  0  0  0
    1.4550   -1.6660   -0.6540 C   0  0  0  0  0  0  0  0  0  0  0  0
    0.3310   -2.0100   -1.6290 C   0  0  0  0  0  0  0  0  0  0  0  0
   -0.5860   -0.8540   -1.4980 C   0  0  0  0  0  0  0  0  0  0  0  0
   -0.3220   -0.1380   -0.1800 C   0  0  1  0  0  0  0  0  0  0  0  0
   -1.5700   -0.1030    0.6670 C   0  0  0  0  0  0  0  0  0  0  0  0
   -2.2820   -1.3030    1.0250 C   0  0  0  0  0  0  0  0  0  0  0  0
   -1.8640   -2.3690    1.9710 C   0  0  0  0  0  0  0  0  0  0  0  0
   -3.5040   -1.4810    0.5310 C   0  0  0  0  0  0  0  0  0  0  0  0
   -4.1980   -0.5530   -0.3510 C   0  0  0  0  0  0  0  0  0  0  0  0
   -4.1670   -2.6690    0.9020 O   0  0  0  0  0  0  0  0  0  0  0  0
   -0.0870    1.3020   -0.5850 C   0  0  2  0  0  0  0  0  0  0  0  0
    1.0300    1.4180   -1.4230 O   0  0  0  0  0  0  0  0  0  0  0  0
   -0.2370    2.3410    0.4330 C   0  0  0  0  0  0  0  0  0  0  0  0
   -0.5920    3.5770   -0.4470 C   0  0  0  0  0  0  0  0  0  0  0  0
   -1.7930    2.9740   -1.1410 C   0  0  0  0  0  0  0  0  0  0  0  0
   -1.2550    1.6300   -1.5520 C   0  0  0  0  0  0  0  0  0  0  0  0
  1  2  2  0
  2  3  1  0
  2  4  1  0
  4  5  1  0
  6  5  1  6
  6  7  1  0
  6 10  1  0
  7  8  1  0
  8  9  1  0
  9 10  1  0
 10 11  1  1
 10 17  1  0
 11 12  1  0
 12 13  1  0
 12 14  2  3
 14 15  1  0
 14 16  1  0
 17 18  1  6
 17 19  1  0
 17 22  1  0
 19 20  1  0
 20 21  1  0
 21 22  1  0
M  END
