
     RDKit          3D

 20 21  0  0  0  0  0  0  0  0999 V2000
    4.7110   -1.6090   -0.8040 C   0  0  0  0  0  0  0  0  0  0  0  0
    3.3400   -1.4070   -0.5190 O   0  0  0  0  0  0  0  0  0  0  0  0
    3.2830   -0.3410    0.3360 C   0  0  0  0  0  0  0  0  0  0  0  0
    1.8740    0.0400    0.7700 C   0  0  1  0  0  0  0  0  0  0  0  0
    2.0830    1.1660    1.7670 C   0  0  0  0  0  0  0  0  0  0  0  0
    2.7760    2.3030    1.2050 N   0  0  0  0  0  0  0  0  0  0  0  0
    1.1030    0.6070   -0.3990 C   0  0  0  0  0  0  0  0  0  0  0  0
    0.2590   -0.3690   -1.1320 C   0  0  2  0  0  0  0  0  0  0  0  0
    0.7480   -0.3220   -2.4780 O   0  0  0  0  0  0  0  0  0  0  0  0
   -1.1970    0.0580   -1.2810 C   0  0  0  0  0  0  0  0  0  0  0  0
   -1.9810    0.0810   -0.1470 N   0  0  0  0  0  0  0  0  0  0  0  0
   -1.8280    0.9990    0.8930 C   0  0  0  0  0  0  0  0  0  0  0  0
   -3.1050    0.9600    1.7460 C   0  0  0  0  0  0  0  0  0  0  0  0
   -3.8010   -0.2700    1.2900 C   0  0  0  0  0  0  0  0  0  0  0  0
   -3.2950   -0.4470   -0.1520 C   0  0  1  0  0  0  0  0  0  0  0  0
   -4.2600    0.3120   -1.0300 C   0  0  0  0  0  0  0  0  0  0  0  0
   -5.5040   -0.3350   -0.9230 O   0  0  0  0  0  0  0  0  0  0  0  0
    0.3470   -1.7800   -0.6960 C   0  0  0  0  0  0  0  0  0  0  0  0
    0.8930   -2.0510    0.6490 C   0  0  0  0  0  0  0  0  0  0  0  0
    1.2160   -0.9610    1.4220 O   0  0  0  0  0  0  0  0  0  0  0  0
  1  2  1  0
  2  3  1  0
  4  3  1  6
  4  5  1  0
  4  7  1  0
  4 20  1  0
  5  6  1  0
  7  8  1  0
  8  9  1  6
  8 10  1  0
  8 18  1  0
 10 11  1  0
 11 12  1  0
 11 15  1  0
 12 13  1  0
 13 14  1  0
 14 15  1  0
 15 16  1  6
 16 17  1  0
 18 19  1  0
 19 20  1  0
M  CHG  1   6   1
M  END
