
     RDKit          3D

 20 20  0  0  0  0  0  0  0  0999 V2000
   -0.7730   -2.0520   -1.1090 C   0  0  0  0  0  0  0  0  0  0  0  0
   -1.8860   -1.0530   -1.1390 C   0  0  2  0  0  0  0  0  0  0  0  0
   -3.2110   -1.8290   -1.1360 C   0  0  0  0  0  0  0  0  0  0  0  0
   -1.8450   -0.3570   -2.4830 C   0  0  0  0  0  0  0  0  0  0  0  0
   -1.9290   -0.1050    0.0040 C   0  0  1  0  0  0  0  0  0  0  0  0
   -2.0750   -0.7340    1.2970 N   0  0  0  0  0  0  0  0  0  0  0  0
   -0.8320    0.9060    0.0690 C   0  0  2  0  0  0  0  0  0  0  0  0
    0.3810    0.3280    0.4250 O   0  0  0  0  0  0  0  0  0  0  0  0
    1.3740    0.6170   -0.5060 C   0  0  0  0  0  0  0  0  0  0  0  0
    2.6700   -0.0140   -0.0560 C   0  0  1  0  0  0  0  0  0  0  0  0
    2.4840   -1.4830    0.1720 C   0  0  0  0  0  0  0  0  0  0  0  0
    3.7920   -2.0700    0.5960 C   0  0  0  0  0  0  0  0  0  0  0  0
    4.8900   -1.0320    0.5300 C   0  0  0  0  0  0  0  0  0  0  0  0
    4.8420   -0.3330   -0.7960 C   0  0  0  0  0  0  0  0  0  0  0  0
    3.6330    0.2840   -0.9900 O   0  0  0  0  0  0  0  0  0  0  0  0
   -1.1590    1.9380    1.0900 C   0  0  0  0  0  0  0  0  0  0  0  0
   -0.3620    2.1150    2.0380 O   0  0  0  0  0  0  0  0  0  0  0  0
   -2.3050    2.7150    1.0430 O   0  0  0  0  0  0  0  0  0  0  0  0
   -2.6150    3.6990    2.0180 C   0  0  0  0  0  0  0  0  0  0  0  0
   -3.8780    4.3160    1.6570 N   0  0  0  0  0  0  0  0  0  0  0  0
  2  1  1  1
  2  3  1  0
  2  4  1  0
  2  5  1  0
  5  6  1  1
  5  7  1  0
  7  8  1  1
  7 16  1  0
  8  9  1  0
 10  9  1  6
 10 11  1  0
 10 15  1  0
 11 12  1  0
 12 13  1  0
 13 14  1  0
 14 15  1  0
 16 17  2  0
 16 18  1  0
 18 19  1  0
 19 20  1  0
M  CHG  1   6   1
M  END
