
     RDKit          3D

 20 20  0  0  0  0  0  0  0  0999 V2000
    5.2840    1.5510    1.0570 C   0  0  0  0  0  0  0  0  0  0  0  0
    5.1480    0.4030    0.0820 C   0  0  2  0  0  0  0  0  0  0  0  0
    6.5060   -0.2930    0.0330 C   0  0  0  0  0  0  0  0  0  0  0  0
    4.8460    0.9730   -1.2780 C   0  0  0  0  0  0  0  0  0  0  0  0
    4.2140   -0.5590    0.4960 O   0  0  0  0  0  0  0  0  0  0  0  0
    2.8820   -0.3100    0.7220 C   0  0  0  0  0  0  0  0  0  0  0  0
    2.4420    0.8350    0.5570 O   0  0  0  0  0  0  0  0  0  0  0  0
    2.0690   -1.4240    1.1450 N   0  0  0  0  0  0  0  0  0  0  0  0
    0.6600   -1.2210    1.3970 C   0  0  0  0  0  0  0  0  0  0  0  0
   -0.0920   -0.7300    0.1840 C   0  0  1  0  0  0  0  0  0  0  0  0
    0.0140   -1.7240   -0.9560 C   0  0  0  0  0  0  0  0  0  0  0  0
   -0.5220   -2.9550   -0.5740 O   0  0  0  0  0  0  0  0  0  0  0  0
   -1.5440   -0.5890    0.5890 C   0  0  0  0  0  0  0  0  0  0  0  0
   -2.3370   -0.1430   -0.4440 O   0  0  0  0  0  0  0  0  0  0  0  0
   -3.6440   -0.0450    0.0210 C   0  0  2  0  0  0  0  0  0  0  0  0
   -4.5930   -0.8780   -0.8170 C   0  0  0  0  0  0  0  0  0  0  0  0
   -5.5350    0.1140   -1.4670 C   0  0  0  0  0  0  0  0  0  0  0  0
   -4.7360    1.4010   -1.4840 C   0  0  0  0  0  0  0  0  0  0  0  0
   -4.0980    1.3920   -0.1140 C   0  0  1  0  0  0  0  0  0  0  0  0
   -5.0400    1.7140    0.9270 N   0  0  0  0  0  0  0  0  0  0  0  0
  2  1  1  1
  2  3  1  0
  2  4  1  0
  2  5  1  0
  5  6  1  0
  6  7  2  0
  6  8  1  0
  8  9  1  0
 10  9  1  1
 10 11  1  0
 10 13  1  0
 11 12  1  0
 13 14  1  0
 15 14  1  6
 15 16  1  0
 15 19  1  0
 16 17  1  0
 17 18  1  0
 18 19  1  0
 19 20  1  1
M  CHG  1  20   1
M  END
