
     RDKit          3D

 19 19  0  0  0  0  0  0  0  0999 V2000
   -3.5050    1.7530    0.1090 C   0  0  0  0  0  0  0  0  0  0  0  0
   -2.6990    0.6060   -0.5110 C   0  0  2  0  0  0  0  0  0  0  0  0
   -3.6760   -0.3600   -1.0870 C   0  0  0  0  0  0  0  0  0  0  0  0
   -1.8360    0.0770    0.5870 C   0  0  2  0  0  0  0  0  0  0  0  0
   -2.6620   -0.4230    1.7120 C   0  0  0  0  0  0  0  0  0  0  0  0
   -1.1780    1.2510    1.1010 O   0  0  0  0  0  0  0  0  0  0  0  0
   -0.7270   -0.8390    0.2290 C   0  0  1  0  0  0  0  0  0  0  0  0
   -0.0940   -1.1930    1.5550 C   0  0  0  0  0  0  0  0  0  0  0  0
   -1.1330   -2.1500   -0.4080 C   0  0  0  0  0  0  0  0  0  0  0  0
   -1.9420   -2.9520    0.3730 O   0  0  0  0  0  0  0  0  0  0  0  0
    0.2520   -0.2120   -0.7380 C   0  0  0  0  0  0  0  0  0  0  0  0
    0.9400    0.9460   -0.3590 N   0  0  0  0  0  0  0  0  0  0  0  0
    1.3590    1.6320   -1.5950 C   0  0  0  0  0  0  0  0  0  0  0  0
    2.7110    1.3420   -2.0870 C   0  0  0  0  0  0  0  0  0  0  0  0
    3.1720    0.0540   -1.9940 O   0  0  0  0  0  0  0  0  0  0  0  0
    3.9040   -0.1660   -0.8240 C   0  0  0  0  0  0  0  0  0  0  0  0
    2.9500   -0.3570    0.3530 C   0  0  1  0  0  0  0  0  0  0  0  0
    3.7950   -0.3940    1.5640 N   0  0  0  0  0  0  0  0  0  0  0  0
    2.1090    0.8590    0.4520 C   0  0  0  0  0  0  0  0  0  0  0  0
  2  1  1  1
  2  3  1  0
  2  4  1  0
  4  5  1  1
  4  6  1  0
  4  7  1  0
  7  8  1  1
  7  9  1  0
  7 11  1  0
  9 10  1  0
 11 12  1  0
 12 13  1  0
 12 19  1  0
 13 14  1  0
 14 15  1  0
 15 16  1  0
 16 17  1  0
 17 18  1  1
 17 19  1  0
M  CHG  1  18   1
M  END
