
     RDKit          3D

 14 13  0  0  0  0  0  0  0  0999 V2000
   -4.4410    2.1210    0.1770 O   0  0  0  0  0  0  0  0  0  0  0  0
   -4.6720    0.8990    0.4220 C   0  0  0  0  0  0  0  0  0  0  0  0
   -3.5780    0.0800    0.6310 O   0  0  0  0  0  0  0  0  0  0  0  0
   -2.2380    0.5980    0.5940 C   0  0  0  0  0  0  0  0  0  0  0  0
   -1.4000   -0.6710    0.4700 C   0  0  1  0  0  0  0  0  0  0  0  0
   -2.0220   -1.3280   -0.6280 O   0  0  0  0  0  0  0  0  0  0  0  0
   -0.0520   -0.2300   -0.0700 C   0  0  0  0  0  0  0  0  0  0  0  0
   -0.0930    0.6410   -0.9390 O   0  0  0  0  0  0  0  0  0  0  0  0
    1.1420   -0.8080    0.3870 O   0  0  0  0  0  0  0  0  0  0  0  0
    2.3040   -0.3370   -0.2950 C   0  0  0  0  0  0  0  0  0  0  0  0
    2.1660    0.4600   -1.2130 O   0  0  0  0  0  0  0  0  0  0  0  0
    3.6720   -0.7360    0.0960 C   0  0  0  0  0  0  0  0  0  0  0  0
    4.5260    0.2300   -0.5560 O   0  0  0  0  0  0  0  0  0  0  0  0
    5.1560    0.8710    0.5340 O   0  0  0  0  0  0  0  0  0  0  0  0
  1  2  2  0
  2  3  1  0
  3  4  1  0
  4  5  1  0
  5  6  1  6
  5  7  1  0
  7  8  2  0
  7  9  1  0
  9 10  1  0
 10 11  2  0
 10 12  1  0
 12 13  1  0
 13 14  1  0
M  END
