
     RDKit          3D

 14 14  0  0  0  0  0  0  0  0999 V2000
    3.3200   -0.9740   -0.2450 C   0  0  0  0  0  0  0  0  0  0  0  0
    2.1240   -0.4250    0.2330 O   0  0  0  0  0  0  0  0  0  0  0  0
    0.9210   -0.4320   -0.4300 C   0  0  0  0  0  0  0  0  0  0  0  0
    0.8680   -0.9710   -1.5630 O   0  0  0  0  0  0  0  0  0  0  0  0
   -0.3280    0.1620    0.1110 C   0  0  1  0  0  0  0  0  0  0  0  0
   -0.0560    1.6750    0.2070 C   0  0  0  0  0  0  0  0  0  0  0  0
   -1.2340    2.2470    0.6990 O   0  0  0  0  0  0  0  0  0  0  0  0
   -1.0680    3.5510    0.8070 O   0  0  0  0  0  0  0  0  0  0  0  0
   -1.3690    0.0220   -0.7390 O   0  0  0  0  0  0  0  0  0  0  0  0
   -2.1710   -1.0580   -0.6210 C   0  0  0  0  0  0  0  0  0  0  0  0
   -2.2750   -1.6240    0.7430 C   0  0  0  0  0  0  0  0  0  0  0  0
   -3.2780   -2.2730    1.1390 O   0  0  0  0  0  0  0  0  0  0  0  0
   -1.1670   -1.3790    1.5610 O   0  0  0  0  0  0  0  0  0  0  0  0
   -0.4880   -0.2720    1.3930 O   0  0  0  0  0  0  0  0  0  0  0  0
  1  2  1  0
  2  3  1  0
  3  4  2  0
  3  5  1  0
  5  6  1  1
  5  9  1  0
  5 14  1  0
  6  7  1  0
  7  8  1  0
  9 10  1  0
 10 11  1  0
 11 12  2  0
 11 13  1  0
 13 14  1  0
M  END
