
     RDKit          3D

 14 14  0  0  0  0  0  0  0  0999 V2000
   -1.4590    0.9680   -0.9990 C   0  0  0  0  0  0  0  0  0  0  0  0
   -1.2550   -0.3880   -0.3700 C   0  0  1  0  0  0  0  0  0  0  0  0
    0.0170   -0.8880   -0.5610 O   0  0  0  0  0  0  0  0  0  0  0  0
    0.9930   -0.0910    0.0330 C   0  0  0  0  0  0  0  0  0  0  0  0
    2.3460   -0.6470   -0.1850 C   0  0  0  0  0  0  0  0  0  0  0  0
    2.5830   -1.7000   -0.8240 O   0  0  0  0  0  0  0  0  0  0  0  0
    3.4220    0.0370    0.3490 O   0  0  0  0  0  0  0  0  0  0  0  0
    4.6850   -0.3830    0.2070 O   0  0  0  0  0  0  0  0  0  0  0  0
    5.4330    0.2590    1.0520 O   0  0  0  0  0  0  0  0  0  0  0  0
   -1.5370   -0.3150    1.0020 O   0  0  0  0  0  0  0  0  0  0  0  0
   -2.9130   -0.5170    1.0960 C   0  0  0  0  0  0  0  0  0  0  0  0
   -3.1030   -1.6110    0.2040 O   0  0  0  0  0  0  0  0  0  0  0  0
   -2.2380   -1.3700   -0.8490 C   0  0  0  0  0  0  0  0  0  0  0  0
   -2.3250   -1.9150   -1.9760 O   0  0  0  0  0  0  0  0  0  0  0  0
  2  1  1  6
  2  3  1  0
  2 10  1  0
  2 13  1  0
  3  4  1  0
  4  5  1  0
  5  6  2  0
  5  7  1  0
  7  8  1  0
  8  9  1  0
 10 11  1  0
 11 12  1  0
 12 13  1  0
 13 14  2  0
M  END
