
     RDKit          3D

 28 29  0  0  0  0  0  0  0  0999 V2000
   -3.6250   -1.5620    0.3800 O   0  0  0  0  0  0  0  0  0  0  0  0
   -4.3170   -0.8100   -0.3610 C   0  0  0  0  0  0  0  0  0  0  0  0
   -5.3970   -1.2830   -1.1380 N   0  0  0  0  0  0  0  0  0  0  0  0
   -6.1080   -0.3480   -1.9370 C   0  0  0  0  0  0  0  0  0  0  0  0
   -7.1950   -0.7420   -2.7380 O   0  0  0  0  0  0  0  0  0  0  0  0
   -5.7980    0.9320   -1.9770 C   0  0  0  0  0  0  0  0  0  0  0  0
   -4.6890    1.4890   -1.1960 C   0  0  0  0  0  0  0  0  0  0  0  0
   -3.9700    0.5450   -0.3880 N   0  0  0  0  0  0  0  0  0  0  0  0
   -2.8690    1.0830    0.3940 C   0  0  1  0  0  0  0  0  0  0  0  0
   -3.2070    0.8030    1.8530 C   0  0  0  0  0  0  0  0  0  0  0  0
   -1.8880    0.2800    2.3870 C   0  0  2  0  0  0  0  0  0  0  0  0
   -1.5930    0.8530    3.6230 O   0  0  0  0  0  0  0  0  0  0  0  0
   -0.9640    0.7560    1.3030 C   0  0  1  0  0  0  0  0  0  0  0  0
    0.4210    0.3430    1.4000 C   0  0  0  0  0  0  0  0  0  0  0  0
    0.6780   -1.0030    1.3730 O   0  0  0  0  0  0  0  0  0  0  0  0
    2.1000   -1.5670    1.4740 P   0  0  0  0  0  0  0  0  0  0  0  0
    1.3910   -3.0030    1.9720 O   0  0  0  0  0  0  0  0  0  0  0  0
    2.5220   -0.4730    2.6680 O   0  0  0  0  0  0  0  0  0  0  0  0
    2.5620   -1.2930   -0.0970 N   0  0  0  0  0  0  0  0  0  0  0  0
    4.1920   -1.0890   -0.4880 P   0  0  0  0  0  0  0  0  0  0  0  0
    4.5960   -2.3830    0.2700 O   0  0  0  0  0  0  0  0  0  0  0  0
    4.7380   -1.6110   -1.9450 O   0  0  0  0  0  0  0  0  0  0  0  0
    3.9720    0.3120   -1.0690 O   0  0  0  0  0  0  0  0  0  0  0  0
    5.0380    1.2910   -1.5560 P   0  0  0  0  0  0  0  0  0  0  0  0
    4.1860    2.4930   -0.7460 O   0  0  0  0  0  0  0  0  0  0  0  0
    6.2600    0.5380   -0.7630 O   0  0  0  0  0  0  0  0  0  0  0  0
    4.7370    1.0630   -3.1360 O   0  0  0  0  0  0  0  0  0  0  0  0
   -1.6610    0.3870    0.1640 O   0  0  0  0  0  0  0  0  0  0  0  0
  1  2  2  0
  2  3  1  0
  2  8  1  0
  3  4  1  0
  4  5  1  0
  4  6  2  0
  6  7  1  0
  7  8  1  0
  9  8  1  6
  9 10  1  0
  9 28  1  0
 10 11  1  0
 11 12  1  1
 11 13  1  0
 13 14  1  1
 13 28  1  0
 14 15  1  0
 15 16  1  0
 16 17  1  0
 16 18  1  0
 16 19  1  0
 19 20  1  0
 20 21  1  0
 20 22  1  0
 20 23  1  0
 23 24  1  0
 24 25  1  0
 24 26  1  0
 24 27  1  0
M  END
