
     RDKit          3D

 20 21  0  0  0  0  0  0  0  0999 V2000
   -6.1240   -1.6350    0.6860 O   0  0  0  0  0  0  0  0  0  0  0  0
   -4.9970   -1.1440    0.3850 C   0  0  0  0  0  0  0  0  0  0  0  0
   -4.8920   -0.3500   -0.7430 C   0  0  0  0  0  0  0  0  0  0  0  0
   -3.6490    0.1630   -1.0320 C   0  0  0  0  0  0  0  0  0  0  0  0
   -2.5620   -0.0830   -0.2630 N   0  0  0  0  0  0  0  0  0  0  0  0
   -1.3230    0.4910   -0.6450 C   0  0  1  0  0  0  0  0  0  0  0  0
   -0.8930    1.6680    0.1890 C   0  0  0  0  0  0  0  0  0  0  0  0
    0.5690    1.7910   -0.2720 C   0  0  2  0  0  0  0  0  0  0  0  0
    0.5850    2.8350   -1.1960 O   0  0  0  0  0  0  0  0  0  0  0  0
    0.7830    0.4730   -0.9330 C   0  0  1  0  0  0  0  0  0  0  0  0
    2.1500   -0.1040   -0.7580 C   0  0  0  0  0  0  0  0  0  0  0  0
    2.4620   -0.3650    0.5300 O   0  0  0  0  0  0  0  0  0  0  0  0
    4.0390   -1.0130    0.5620 P   0  0  0  0  0  0  0  0  0  0  0  0
    4.6840   -0.7500    2.1730 O   0  0  0  0  0  0  0  0  0  0  0  0
    5.0320   -0.1640   -0.5500 O   0  0  0  0  0  0  0  0  0  0  0  0
    4.0820   -2.6850    0.1720 O   0  0  0  0  0  0  0  0  0  0  0  0
   -0.2260   -0.3720   -0.4680 O   0  0  0  0  0  0  0  0  0  0  0  0
   -2.7080   -0.8500    0.8100 C   0  0  0  0  0  0  0  0  0  0  0  0
   -1.7000   -1.0800    1.5240 O   0  0  0  0  0  0  0  0  0  0  0  0
   -3.9030   -1.3760    1.1360 N   0  0  0  0  0  0  0  0  0  0  0  0
  1  2  2  0
  2  3  1  0
  2 20  1  0
  3  4  2  0
  4  5  1  0
  6  5  1  1
  5 18  1  0
  6  7  1  0
  6 17  1  0
  7  8  1  0
  8  9  1  6
  8 10  1  0
 10 11  1  1
 10 17  1  0
 11 12  1  0
 12 13  1  0
 13 14  1  0
 13 15  1  0
 13 16  1  0
 18 19  2  0
 18 20  1  0
M  END
