
     RDKit          3D

 13 13  0  0  0  0  0  0  0  0999 V2000
    1.6840   -0.3660    1.6140 O   0  0  0  0  0  0  0  0  0  0  0  0
    1.1220   -0.3260    0.5020 C   0  0  0  0  0  0  0  0  0  0  0  0
    1.8000   -0.7490   -0.6220 O   0  0  0  0  0  0  0  0  0  0  0  0
    3.1180   -1.2370   -0.6080 C   0  0  0  0  0  0  0  0  0  0  0  0
    3.9890   -0.2630   -0.1150 O   0  0  0  0  0  0  0  0  0  0  0  0
    3.9690    0.8130   -0.8420 O   0  0  0  0  0  0  0  0  0  0  0  0
   -0.2710    0.1800    0.4220 C   0  0  1  0  0  0  0  0  0  0  0  0
   -1.2030   -0.8720   -0.1340 C   0  0  0  0  0  0  0  0  0  0  0  0
   -2.1300   -0.3710   -1.0120 O   0  0  0  0  0  0  0  0  0  0  0  0
   -3.0510    0.4770   -0.4820 C   0  0  0  0  0  0  0  0  0  0  0  0
   -2.5590    1.2990    0.6800 C   0  0  0  0  0  0  0  0  0  0  0  0
   -2.0320    0.5160    1.6960 O   0  0  0  0  0  0  0  0  0  0  0  0
   -0.7280    0.5430    1.6860 O   0  0  0  0  0  0  0  0  0  0  0  0
  1  2  2  0
  2  3  1  0
  7  2  1  1
  3  4  1  0
  4  5  1  0
  5  6  1  0
  7  8  1  0
  7 13  1  0
  8  9  1  0
  9 10  1  0
 10 11  1  0
 11 12  1  0
 12 13  1  0
M  END
