
     RDKit          3D

 13 13  0  0  0  0  0  0  0  0999 V2000
   -2.1930    1.4980    1.3120 O   0  0  0  0  0  0  0  0  0  0  0  0
   -1.4430    0.9660    0.4660 C   0  0  0  0  0  0  0  0  0  0  0  0
   -0.5610    1.6280   -0.3730 O   0  0  0  0  0  0  0  0  0  0  0  0
   -0.0270    0.8070   -1.4290 C   0  0  0  0  0  0  0  0  0  0  0  0
    0.5050   -0.4820   -0.8640 C   0  0  1  0  0  0  0  0  0  0  0  0
    1.9930   -0.2610   -0.6020 C   0  0  0  0  0  0  0  0  0  0  0  0
    2.6130   -1.4410   -0.2070 O   0  0  0  0  0  0  0  0  0  0  0  0
    3.8820   -1.1540   -0.0060 O   0  0  0  0  0  0  0  0  0  0  0  0
    3.9940   -0.7430    1.2590 O   0  0  0  0  0  0  0  0  0  0  0  0
   -0.1480   -0.9330    0.2530 O   0  0  0  0  0  0  0  0  0  0  0  0
   -1.4590   -0.5080    0.3020 C   0  0  1  0  0  0  0  0  0  0  0  0
   -2.2770   -1.1980    1.3450 C   0  0  0  0  0  0  0  0  0  0  0  0
   -3.5740   -0.6700    1.2800 O   0  0  0  0  0  0  0  0  0  0  0  0
  1  2  2  0
  2  3  1  0
  2 11  1  0
  3  4  1  0
  4  5  1  0
  5  6  1  1
  5 10  1  0
  6  7  1  0
  7  8  1  0
  8  9  1  0
 10 11  1  0
 11 12  1  1
 12 13  1  0
M  END
