
     RDKit          3D

 13 13  0  0  0  0  0  0  0  0999 V2000
   -2.5730    2.6940    0.7330 O   0  0  0  0  0  0  0  0  0  0  0  0
   -1.9050    1.8880    0.0530 C   0  0  0  0  0  0  0  0  0  0  0  0
   -1.1960    2.1570   -1.1000 O   0  0  0  0  0  0  0  0  0  0  0  0
   -0.5560    0.9600   -1.5660 C   0  0  0  0  0  0  0  0  0  0  0  0
   -0.3110    0.2610   -0.2210 C   0  0  2  0  0  0  0  0  0  0  0  0
   -0.0490   -1.0420   -0.3150 O   0  0  0  0  0  0  0  0  0  0  0  0
    0.9530   -1.6120    0.3710 C   0  0  0  0  0  0  0  0  0  0  0  0
    2.3420   -1.1360    0.1390 C   0  0  0  0  0  0  0  0  0  0  0  0
    2.5560    0.1940    0.4150 O   0  0  0  0  0  0  0  0  0  0  0  0
    3.8010    0.4940    0.1770 O   0  0  0  0  0  0  0  0  0  0  0  0
   -1.7310    0.4470    0.3500 C   0  0  2  0  0  0  0  0  0  0  0  0
   -2.6580   -0.2470   -0.4220 O   0  0  0  0  0  0  0  0  0  0  0  0
   -3.4010   -1.0630    0.2940 O   0  0  0  0  0  0  0  0  0  0  0  0
  1  2  2  0
  2  3  1  0
  2 11  1  0
  3  4  1  0
  4  5  1  0
  5  6  1  6
  5 11  1  0
  6  7  1  0
  7  8  1  0
  8  9  1  0
  9 10  1  0
 11 12  1  6
 12 13  1  0
M  END
