
     RDKit          3D

 13 14  0  0  0  0  0  0  0  0999 V2000
    2.5210    0.5870   -1.0620 O   0  0  0  0  0  0  0  0  0  0  0  0
    2.5440   -0.3490   -0.2370 C   0  0  0  0  0  0  0  0  0  0  0  0
    1.4480   -0.5100    0.5660 O   0  0  0  0  0  0  0  0  0  0  0  0
    0.3130    0.2950    0.5250 C   0  0  2  0  0  0  0  0  0  0  0  0
   -0.5640   -0.2150    1.5080 O   0  0  0  0  0  0  0  0  0  0  0  0
   -1.0000   -1.4360    0.9840 C   0  0  0  0  0  0  0  0  0  0  0  0
   -2.0190   -1.1530    0.1160 O   0  0  0  0  0  0  0  0  0  0  0  0
   -1.7260   -0.2290   -0.8530 C   0  0  0  0  0  0  0  0  0  0  0  0
   -0.3700    0.3610   -0.8050 C   0  0  1  0  0  0  0  0  0  0  0  0
   -0.4120    1.7090   -1.1590 O   0  0  0  0  0  0  0  0  0  0  0  0
   -0.1770    2.4220   -0.0810 O   0  0  0  0  0  0  0  0  0  0  0  0
    0.5440    1.7060    0.8530 C   0  0  0  0  0  0  0  0  0  0  0  0
    1.2470    2.1530    1.7800 O   0  0  0  0  0  0  0  0  0  0  0  0
  1  2  2  0
  2  3  1  0
  4  3  1  6
  4  5  1  0
  4  9  1  0
  4 12  1  0
  5  6  1  0
  6  7  1  0
  7  8  1  0
  9  8  1  1
  9 10  1  0
 10 11  1  0
 11 12  1  0
 12 13  2  0
M  END
