
     RDKit          3D

 10  9  0  0  0  0  0  0  0  0999 V2000
   -3.0310    0.4730   -0.4550 C   0  0  0  0  0  0  0  0  0  0  0  0
   -2.0270   -0.1080   -1.1760 O   0  0  0  0  0  0  0  0  0  0  0  0
   -1.3260   -1.0870   -0.5170 C   0  0  0  0  0  0  0  0  0  0  0  0
   -0.6260   -0.5790    0.7020 C   0  0  1  0  0  0  0  0  0  0  0  0
    0.0730   -1.5960    1.3690 O   0  0  0  0  0  0  0  0  0  0  0  0
    0.3680    0.5180    0.4150 C   0  0  2  0  0  0  0  0  0  0  0  0
   -0.1570    1.6040   -0.2480 O   0  0  0  0  0  0  0  0  0  0  0  0
    1.5700    0.0250   -0.3440 C   0  0  0  0  0  0  0  0  0  0  0  0
    2.4870    1.1010   -0.3780 O   0  0  0  0  0  0  0  0  0  0  0  0
    3.6000    0.7610   -1.0380 N   0  0  0  0  0  0  0  0  0  0  0  0
  1  2  1  0
  2  3  1  0
  3  4  1  0
  4  5  1  6
  4  6  1  0
  6  7  1  6
  6  8  1  0
  8  9  1  0
  9 10  1  0
M  END
