
     RDKit          3D

  9  8  0  0  0  0  0  0  0  0999 V2000
    3.0520   -0.3320   -0.3530 C   0  0  0  0  0  0  0  0  0  0  0  0
    2.3890    0.8350   -0.6320 O   0  0  0  0  0  0  0  0  0  0  0  0
    1.8180    1.4770    0.4350 C   0  0  0  0  0  0  0  0  0  0  0  0
    0.8040    0.5840    1.0870 C   0  0  0  0  0  0  0  0  0  0  0  0
   -0.1650    0.2830    0.1240 O   0  0  0  0  0  0  0  0  0  0  0  0
   -1.1380   -0.5480    0.6780 C   0  0  0  0  0  0  0  0  0  0  0  0
   -2.1790   -0.8690   -0.3650 C   0  0  2  0  0  0  0  0  0  0  0  0
   -2.8200    0.3300   -0.8490 N   0  0  0  0  0  0  0  0  0  0  0  0
   -3.1390   -1.7300    0.1330 O   0  0  0  0  0  0  0  0  0  0  0  0
  1  2  1  0
  2  3  1  0
  3  4  1  0
  4  5  1  0
  5  6  1  0
  6  7  1  0
  7  8  1  1
  7  9  1  0
M  END
