
     RDKit          3D

 10  9  0  0  0  0  0  0  0  0999 V2000
   -0.3970   -1.1710    0.9640 O   0  0  0  0  0  0  0  0  0  0  0  0
   -0.0410   -0.0990    0.4180 C   0  0  0  0  0  0  0  0  0  0  0  0
   -0.9530    0.9430    0.0910 N   0  0  0  0  0  0  0  0  0  0  0  0
   -2.3700    0.7940    0.3880 C   0  0  0  0  0  0  0  0  0  0  0  0
   -2.9760   -0.3920   -0.3170 C   0  0  0  0  0  0  0  0  0  0  0  0
   -4.3240   -0.4530    0.0250 O   0  0  0  0  0  0  0  0  0  0  0  0
    1.3050    0.0480    0.1330 O   0  0  0  0  0  0  0  0  0  0  0  0
    2.2930   -0.9000    0.4050 C   0  0  0  0  0  0  0  0  0  0  0  0
    3.6100   -0.2820   -0.0900 C   0  0  0  0  0  0  0  0  0  0  0  0
    3.7670    0.8960    0.6410 O   0  0  0  0  0  0  0  0  0  0  0  0
  1  2  2  0
  2  3  1  0
  2  7  1  0
  3  4  1  0
  4  5  1  0
  5  6  1  0
  7  8  1  0
  8  9  1  0
  9 10  1  0
M  END
