
     RDKit          3D

 11 11  0  0  0  0  0  0  0  0999 V2000
   -2.1310    0.4620   -1.0420 N   0  0  0  0  0  0  0  0  0  0  0  0
   -1.0700    0.8590   -0.1360 C   0  0  1  0  0  0  0  0  0  0  0  0
   -1.5710    0.7190    1.2700 C   0  0  0  0  0  0  0  0  0  0  0  0
   -1.9360   -0.5980    1.5370 O   0  0  0  0  0  0  0  0  0  0  0  0
    0.1450    0.0500   -0.4390 C   0  0  2  0  0  0  0  0  0  0  0  0
   -0.0230   -1.4220   -0.2940 C   0  0  0  0  0  0  0  0  0  0  0  0
    1.1570   -2.0180   -0.8010 O   0  0  0  0  0  0  0  0  0  0  0  0
    2.1940   -1.6870   -0.0660 O   0  0  0  0  0  0  0  0  0  0  0  0
    2.5160   -0.3340   -0.2240 C   0  0  2  0  0  0  0  0  0  0  0  0
    3.7070   -0.0350    0.3750 O   0  0  0  0  0  0  0  0  0  0  0  0
    1.3460    0.4400    0.3930 C   0  0  0  0  0  0  0  0  0  0  0  0
  2  1  1  6
  2  3  1  0
  2  5  1  0
  3  4  1  0
  5  6  1  1
  5 11  1  0
  6  7  1  0
  7  8  1  0
  8  9  1  0
  9 10  1  1
  9 11  1  0
M  CHG  1   1   1
M  END
