
     RDKit          3D

  9  8  0  0  0  0  0  0  0  0999 V2000
    3.6450    0.4850    0.4720 N   0  0  0  0  0  0  0  0  0  0  0  0
    2.7680   -0.1990   -0.3010 O   0  0  0  0  0  0  0  0  0  0  0  0
    1.4730   -0.1350    0.2380 C   0  0  0  0  0  0  0  0  0  0  0  0
    0.5900   -0.9160   -0.6830 C   0  0  2  0  0  0  0  0  0  0  0  0
    0.5900   -0.3720   -1.9730 O   0  0  0  0  0  0  0  0  0  0  0  0
   -0.8140   -0.9250   -0.1640 C   0  0  0  0  0  0  0  0  0  0  0  0
   -1.3980    0.4510   -0.0420 C   0  0  0  0  0  0  0  0  0  0  0  0
   -2.8250    0.3940    0.4800 C   0  0  0  0  0  0  0  0  0  0  0  0
   -3.3070    1.6990    0.5690 O   0  0  0  0  0  0  0  0  0  0  0  0
  1  2  1  0
  2  3  1  0
  3  4  1  0
  4  5  1  6
  4  6  1  0
  6  7  1  0
  7  8  1  0
  8  9  1  0
M  END
