
     RDKit          3D

  9  8  0  0  0  0  0  0  0  0999 V2000
   -2.3090   -0.9230    0.3280 C   0  0  0  0  0  0  0  0  0  0  0  0
   -1.7000    0.2410   -0.3750 C   0  0  1  0  0  0  0  0  0  0  0  0
   -1.9350    1.4020    0.3720 O   0  0  0  0  0  0  0  0  0  0  0  0
   -0.2070    0.1260   -0.5440 C   0  0  0  0  0  0  0  0  0  0  0  0
    0.5010    0.0320    0.7000 N   0  0  0  0  0  0  0  0  0  0  0  0
    1.9180   -0.0720    0.3790 C   0  0  1  0  0  0  0  0  0  0  0  0
    2.1230   -1.2110   -0.3980 O   0  0  0  0  0  0  0  0  0  0  0  0
    2.3450    1.0380   -0.3760 O   0  0  0  0  0  0  0  0  0  0  0  0
    2.6970   -0.1780    1.5240 O   0  0  0  0  0  0  0  0  0  0  0  0
  2  1  1  1
  2  3  1  0
  2  4  1  0
  4  5  1  0
  5  6  1  0
  6  7  1  6
  6  8  1  0
  6  9  1  0
M  END
