
     RDKit          3D

 32 33  0  0  0  0  0  0  0  0999 V2000
   -2.4160   -1.5780    2.5860 C   0  0  0  0  0  0  0  0  0  0  0  0
   -2.6260   -2.4960    1.6750 C   0  0  0  0  0  0  0  0  0  0  0  0
   -2.7110   -3.7720    2.2480 F   0  0  0  0  0  0  0  0  0  0  0  0
   -2.7630   -2.4120    0.2750 C   0  0  0  0  0  0  0  0  0  0  0  0
   -2.9880   -3.5380   -0.4380 C   0  0  0  0  0  0  0  0  0  0  0  0
   -3.1170   -4.8900    0.0470 C   0  0  1  0  0  0  0  0  0  0  0  0
   -4.1620   -5.1080    0.9350 F   0  0  0  0  0  0  0  0  0  0  0  0
   -3.4370   -5.7110   -1.0820 F   0  0  0  0  0  0  0  0  0  0  0  0
   -1.6190   -5.6180    0.6720 Cl  0  0  0  0  0  0  0  0  0  0  0  0
   -2.6950   -1.1980   -0.5600 C   0  0  0  0  0  0  0  0  0  0  0  0
   -1.5000   -0.4420   -0.5920 N   0  0  0  0  0  0  0  0  0  0  0  0
   -1.3760    0.8340    0.0750 C   0  0  0  0  0  0  0  0  0  0  0  0
   -1.9240    1.9480   -0.8470 C   0  0  0  0  0  0  0  0  0  0  0  0
   -1.8050    3.2570   -0.2060 C   0  0  0  0  0  0  0  0  0  0  0  0
   -1.3070    3.3360    0.9410 O   0  0  0  0  0  0  0  0  0  0  0  0
   -2.2310    4.4610   -0.8260 N   0  0  0  0  0  0  0  0  0  0  0  0
   -2.0760    5.7220   -0.1180 C   0  0  0  0  0  0  0  0  0  0  0  0
   -0.3740   -0.8370   -1.3960 C   0  0  0  0  0  0  0  0  0  0  0  0
   -0.4750   -1.8960   -2.1080 O   0  0  0  0  0  0  0  0  0  0  0  0
    0.8640   -0.1430   -1.4630 C   0  0  0  0  0  0  0  0  0  0  0  0
    1.1130    0.8040   -2.4190 C   0  0  0  0  0  0  0  0  0  0  0  0
    2.3020    1.4400   -2.4740 N   0  0  0  0  0  0  0  0  0  0  0  0
    3.2890    1.1940   -1.6260 C   0  0  0  0  0  0  0  0  0  0  0  0
    3.1220    0.2390   -0.6170 C   0  0  0  0  0  0  0  0  0  0  0  0
    4.2230    0.0420    0.3280 C   0  0  0  0  0  0  0  0  0  0  0  0
    5.1070    1.0690    0.5690 N   0  0  0  0  0  0  0  0  0  0  0  0
    6.0600    0.6350    1.3930 C   0  0  0  0  0  0  0  0  0  0  0  0
    5.8230   -0.6740    1.7060 C   0  0  0  0  0  0  0  0  0  0  0  0
    4.6730   -0.9930    1.0190 N   0  0  0  0  0  0  0  0  0  0  0  0
    4.1960   -2.2740    1.0780 O   0  0  0  0  0  0  0  0  0  0  0  0
    1.9130   -0.4070   -0.5560 C   0  0  0  0  0  0  0  0  0  0  0  0
    1.5720   -1.3800    0.5010 C   0  0  0  0  0  0  0  0  0  0  0  0
  1  2  2  0
  2  3  1  0
  2  4  1  0
  4  5  2  3
  4 10  1  0
  5  6  1  0
  6  7  1  1
  6  8  1  0
  6  9  1  0
 10 11  1  0
 11 12  1  0
 11 18  1  0
 12 13  1  0
 13 14  1  0
 14 15  2  0
 14 16  1  0
 16 17  1  0
 18 19  2  0
 18 20  1  0
 20 21  2  0
 20 31  1  0
 21 22  1  0
 22 23  2  0
 23 24  1  0
 24 25  1  0
 24 31  2  0
 25 26  1  0
 25 29  2  0
 26 27  1  0
 27 28  2  0
 28 29  1  0
 29 30  1  0
 31 32  1  0
M  CHG  2  29   1  30  -1
M  END
