
     RDKit          3D

 32 34  0  0  0  0  0  0  0  0999 V2000
    0.8280   -3.0570    1.7320 C   0  0  0  0  0  0  0  0  0  0  0  0
    0.6600   -1.8780    0.8310 C   0  0  2  0  0  0  0  0  0  0  0  0
   -0.5930   -2.0240    0.0450 C   0  0  0  0  0  0  0  0  0  0  0  0
   -1.0880   -2.6390   -0.8640 N   0  0  0  0  0  0  0  0  0  0  0  0
   -2.2600   -2.5300   -1.3390 N   0  0  0  0  0  0  0  0  0  0  0  0
   -3.0840   -1.6490   -0.8100 C   0  0  0  0  0  0  0  0  0  0  0  0
   -4.4000   -1.3560   -1.1620 N   0  0  0  0  0  0  0  0  0  0  0  0
   -5.1870   -0.3470   -0.4760 C   0  0  0  0  0  0  0  0  0  0  0  0
   -4.5740    0.2230    0.4480 O   0  0  0  0  0  0  0  0  0  0  0  0
   -6.5140   -0.0870   -0.8720 N   0  0  0  0  0  0  0  0  0  0  0  0
   -7.3220    0.8720   -0.2520 C   0  0  0  0  0  0  0  0  0  0  0  0
   -6.9080    1.6380    0.7950 C   0  0  0  0  0  0  0  0  0  0  0  0
   -7.8190    2.5650    1.3270 C   0  0  0  0  0  0  0  0  0  0  0  0
   -9.0850    2.6980    0.8140 C   0  0  0  0  0  0  0  0  0  0  0  0
   -9.9820    3.6120    1.3400 O   0  0  0  0  0  0  0  0  0  0  0  0
   -9.4970    1.9240   -0.2400 C   0  0  0  0  0  0  0  0  0  0  0  0
   -8.6260    1.0270   -0.7610 C   0  0  0  0  0  0  0  0  0  0  0  0
   -9.1410    0.0270   -2.1140 Cl  0  0  0  0  0  0  0  0  0  0  0  0
   -2.0860   -0.9350    0.4600 S   0  0  0  0  0  0  0  0  0  0  0  0
    1.7430   -1.8490   -0.1010 N   0  0  1  0  0  0  0  0  0  0  0  0
    1.6370   -0.6910   -0.9720 C   0  0  0  0  0  0  0  0  0  0  0  0
    2.8220   -0.5650   -1.8670 C   0  0  0  0  0  0  0  0  0  0  0  0
    4.1400   -0.5760   -1.0900 C   0  0  1  0  0  0  0  0  0  0  0  0
    5.0370    0.5290   -1.5370 C   0  0  0  0  0  0  0  0  0  0  0  0
    6.3590    0.6200   -0.8460 C   0  0  0  0  0  0  0  0  0  0  0  0
    6.3250    0.8630    0.4980 O   0  0  0  0  0  0  0  0  0  0  0  0
    5.7290    2.0610    0.8220 C   0  0  0  0  0  0  0  0  0  0  0  0
    6.4450    3.2500    0.2340 C   0  0  1  0  0  0  0  0  0  0  0  0
    5.7720    4.4080    0.6340 F   0  0  0  0  0  0  0  0  0  0  0  0
    7.7760    3.2850    0.5600 F   0  0  0  0  0  0  0  0  0  0  0  0
    3.7880   -0.5740    0.3710 C   0  0  0  0  0  0  0  0  0  0  0  0
    2.9860   -1.8420    0.6410 C   0  0  0  0  0  0  0  0  0  0  0  0
  2  1  1  1
  2  3  1  0
  2 20  1  0
  3  4  2  0
  3 19  1  0
  4  5  1  0
  5  6  2  0
  6  7  1  0
  6 19  1  0
  7  8  1  0
  8  9  2  0
  8 10  1  0
 10 11  1  0
 11 12  2  0
 11 17  1  0
 12 13  1  0
 13 14  2  0
 14 15  1  0
 14 16  1  0
 16 17  2  0
 17 18  1  0
 20 21  1  1
 20 32  1  0
 21 22  1  0
 22 23  1  0
 23 24  1  1
 23 31  1  0
 24 25  1  0
 25 26  1  0
 26 27  1  0
 27 28  1  0
 28 29  1  1
 28 30  1  0
 31 32  1  0
M  CHG  2  15  -1  20   1
M  END
