
     RDKit          3D

 32 34  0  0  0  0  0  0  0  0999 V2000
   -4.5190    4.8110   -0.1560 C   0  0  0  0  0  0  0  0  0  0  0  0
   -4.6810    3.7170   -1.2000 C   0  0  0  0  0  0  0  0  0  0  0  0
   -3.3960    3.0830   -1.3490 N   0  0  0  0  0  0  0  0  0  0  0  0
   -2.7650    2.4370   -0.1970 C   0  0  0  0  0  0  0  0  0  0  0  0
   -3.4010    2.4760    0.8560 O   0  0  0  0  0  0  0  0  0  0  0  0
   -1.4680    1.8320   -0.4600 C   0  0  0  0  0  0  0  0  0  0  0  0
   -0.5560    2.4150   -1.3600 C   0  0  0  0  0  0  0  0  0  0  0  0
    0.5570    1.6890   -1.3280 N   0  0  0  0  0  0  0  0  0  0  0  0
    0.4340    0.6660   -0.4690 C   0  0  0  0  0  0  0  0  0  0  0  0
    1.0960   -0.4060    0.0980 C   0  0  0  0  0  0  0  0  0  0  0  0
    2.4470   -0.8410   -0.2510 C   0  0  0  0  0  0  0  0  0  0  0  0
    3.1660   -1.6360    0.6070 C   0  0  0  0  0  0  0  0  0  0  0  0
    4.4490   -2.1070    0.3860 C   0  0  0  0  0  0  0  0  0  0  0  0
    5.0610   -1.7420   -0.8050 C   0  0  0  0  0  0  0  0  0  0  0  0
    6.3290   -2.1410   -1.1170 O   0  0  0  0  0  0  0  0  0  0  0  0
    7.0790   -2.9450   -0.1960 C   0  0  0  0  0  0  0  0  0  0  0  0
    7.1600   -2.0840    1.0220 C   0  0  0  0  0  0  0  0  0  0  0  0
    7.2060   -1.4280    1.9650 N   0  0  0  0  0  0  0  0  0  0  0  0
    4.3640   -0.9360   -1.7160 C   0  0  0  0  0  0  0  0  0  0  0  0
    5.1470   -0.5060   -3.2170 Cl  0  0  0  0  0  0  0  0  0  0  0  0
    3.0900   -0.5080   -1.4250 C   0  0  0  0  0  0  0  0  0  0  0  0
    0.2380   -0.9570    0.9550 N   0  0  0  0  0  0  0  0  0  0  0  0
    0.5570   -2.0420    1.7440 O   0  0  0  0  0  0  0  0  0  0  0  0
   -0.9410   -0.2450    0.9220 C   0  0  0  0  0  0  0  0  0  0  0  0
   -2.0880   -0.7110    1.6980 C   0  0  1  0  0  0  0  0  0  0  0  0
   -3.4690   -0.4220    1.2400 C   0  0  0  0  0  0  0  0  0  0  0  0
   -2.0720   -2.2730    1.7130 C   0  0  0  0  0  0  0  0  0  0  0  0
   -2.1630   -2.8680    0.3600 C   0  0  2  0  0  0  0  0  0  0  0  0
   -2.1170   -4.2660    0.4830 F   0  0  0  0  0  0  0  0  0  0  0  0
   -1.2260   -2.4790   -0.5560 F   0  0  0  0  0  0  0  0  0  0  0  0
   -3.3970   -2.6250   -0.2590 F   0  0  0  0  0  0  0  0  0  0  0  0
   -0.8340    0.7690    0.0570 N   0  0  0  0  0  0  0  0  0  0  0  0
  1  2  1  0
  2  3  1  0
  3  4  1  0
  4  5  2  0
  4  6  1  0
  6  7  2  0
  6 32  1  0
  7  8  1  0
  8  9  1  0
  9 10  2  0
  9 32  1  0
 10 11  1  0
 10 22  1  0
 11 12  2  0
 11 21  1  0
 12 13  1  0
 13 14  2  0
 14 15  1  0
 14 19  1  0
 15 16  1  0
 16 17  1  0
 17 18  3  0
 19 20  1  0
 19 21  2  0
 22 23  1  0
 22 24  2  0
 24 25  1  0
 24 32  1  0
 25 26  1  6
 25 27  1  0
 27 28  1  0
 28 29  1  1
 28 30  1  0
 28 31  1  0
M  CHG  2  22   1  23  -1
M  END
