
     RDKit          3D

 32 33  0  0  0  0  0  0  0  0999 V2000
   -5.4320    2.3920    2.5220 C   0  0  0  0  0  0  0  0  0  0  0  0
   -5.1050    1.3140    1.6300 N   0  0  0  0  0  0  0  0  0  0  0  0
   -3.7680    0.9620    1.3650 C   0  0  0  0  0  0  0  0  0  0  0  0
   -2.8790    1.9330    1.3640 C   0  0  0  0  0  0  0  0  0  0  0  0
   -1.4860    1.6370    1.0980 C   0  0  0  0  0  0  0  0  0  0  0  0
   -0.4380    2.6980    1.0840 C   0  0  0  0  0  0  0  0  0  0  0  0
   -1.1450    0.4300    0.8680 N   0  0  0  0  0  0  0  0  0  0  0  0
    0.1670    0.1180    0.6130 N   0  0  0  0  0  0  0  0  0  0  0  0
    0.8170    0.4720   -0.6090 C   0  0  0  0  0  0  0  0  0  0  0  0
    0.1570    1.0900   -1.4700 O   0  0  0  0  0  0  0  0  0  0  0  0
    2.2210    0.1110   -0.8240 C   0  0  0  0  0  0  0  0  0  0  0  0
    3.0110   -0.5450    0.0260 N   0  0  0  0  0  0  0  0  0  0  0  0
    4.2850   -0.7200   -0.5010 C   0  0  0  0  0  0  0  0  0  0  0  0
    5.2110   -1.3280    0.1890 C   0  0  0  0  0  0  0  0  0  0  0  0
    4.7970   -1.8050    1.5820 C   0  0  0  0  0  0  0  0  0  0  0  0
    6.5700   -1.6500   -0.1690 C   0  0  0  0  0  0  0  0  0  0  0  0
    7.4270   -0.6350    0.2040 F   0  0  0  0  0  0  0  0  0  0  0  0
    4.2230   -0.1240   -1.7300 C   0  0  0  0  0  0  0  0  0  0  0  0
    5.1860    0.0420   -2.6040 C   0  0  0  0  0  0  0  0  0  0  0  0
    6.4410   -0.3340   -2.4790 F   0  0  0  0  0  0  0  0  0  0  0  0
    4.9030    0.6720   -3.8070 F   0  0  0  0  0  0  0  0  0  0  0  0
    2.9210    0.4040   -1.9500 C   0  0  0  0  0  0  0  0  0  0  0  0
    2.4100    1.2380   -3.3850 Cl  0  0  0  0  0  0  0  0  0  0  0  0
   -3.3580   -0.3730    1.1050 N   0  0  0  0  0  0  0  0  0  0  0  0
   -2.8830   -1.1680    2.1040 O   0  0  0  0  0  0  0  0  0  0  0  0
   -3.4300   -0.8580   -0.0850 C   0  0  0  0  0  0  0  0  0  0  0  0
   -3.9450   -0.0120   -1.1760 C   0  0  0  0  0  0  0  0  0  0  0  0
   -4.0270   -0.4920   -2.4030 C   0  0  0  0  0  0  0  0  0  0  0  0
   -3.6220   -1.8560   -2.7370 C   0  0  0  0  0  0  0  0  0  0  0  0
   -3.7120   -2.2810   -3.9100 O   0  0  0  0  0  0  0  0  0  0  0  0
   -3.1160   -2.6730   -1.6410 C   0  0  0  0  0  0  0  0  0  0  0  0
   -3.0230   -2.2200   -0.4080 C   0  0  0  0  0  0  0  0  0  0  0  0
  1  2  1  0
  2  3  1  0
  3  4  2  3
  3 24  1  0
  4  5  1  0
  5  6  1  0
  5  7  2  3
  7  8  1  0
  8  9  1  0
  9 10  2  0
  9 11  1  0
 11 12  1  0
 11 22  2  0
 12 13  1  0
 13 14  2  3
 13 18  1  0
 14 15  1  0
 14 16  1  0
 16 17  1  0
 18 19  2  3
 18 22  1  0
 19 20  1  0
 19 21  1  0
 22 23  1  0
 24 25  1  0
 24 26  2  3
 26 27  1  0
 26 32  1  0
 27 28  2  0
 28 29  1  0
 29 30  2  0
 29 31  1  0
 31 32  2  0
M  CHG  2  24   1  25  -1
M  END
