
     RDKit          3D

 22 23  0  0  0  0  0  0  0  0999 V2000
    3.5710    2.4280   -1.7380 C   0  0  0  0  0  0  0  0  0  0  0  0
    4.5730    1.6600   -0.9480 C   0  0  0  0  0  0  0  0  0  0  0  0
    4.2500    0.6460   -0.1830 C   0  0  0  0  0  0  0  0  0  0  0  0
    2.8970    0.1970   -0.0510 N   0  0  0  0  0  0  0  0  0  0  0  0
    2.5230   -0.7820    0.6770 C   0  0  0  0  0  0  0  0  0  0  0  0
    1.1510   -1.1590    0.7460 N   0  0  0  0  0  0  0  0  0  0  0  0
    0.1220   -0.4340    0.0280 C   0  0  0  0  0  0  0  0  0  0  0  0
   -1.2340   -1.0710    0.2330 C   0  0  0  0  0  0  0  0  0  0  0  0
   -2.2750   -0.3730   -0.4720 N   0  0  0  0  0  0  0  0  0  0  0  0
   -3.6380   -0.8520   -0.4270 C   0  0  0  0  0  0  0  0  0  0  0  0
   -3.9710   -2.0630   -0.2000 N   0  0  0  0  0  0  0  0  0  0  0  0
   -5.3860   -2.2980   -0.2050 C   0  0  0  0  0  0  0  0  0  0  0  0
   -5.9410   -0.9560   -0.4990 C   0  0  0  0  0  0  0  0  0  0  0  0
   -7.1760   -0.6660   -0.6090 O   0  0  0  0  0  0  0  0  0  0  0  0
   -4.8150   -0.1070   -0.6220 N   0  0  0  0  0  0  0  0  0  0  0  0
   -4.8630    1.3200   -0.9050 C   0  0  0  0  0  0  0  0  0  0  0  0
   -4.9370    2.1160    0.3820 C   0  0  0  0  0  0  0  0  0  0  0  0
    3.4710   -1.5790    1.4850 C   0  0  0  0  0  0  0  0  0  0  0  0
    4.8270   -1.1570    1.3740 N   0  0  0  0  0  0  0  0  0  0  0  0
    5.2720   -0.0610    0.5640 C   0  0  0  0  0  0  0  0  0  0  0  0
    6.5490    0.2440    0.5360 C   0  0  0  0  0  0  0  0  0  0  0  0
    7.7580   -0.8140    1.5980 Br  0  0  0  0  0  0  0  0  0  0  0  0
  1  2  1  0
  2  3  2  3
  3  4  1  0
  3 20  1  0
  4  5  2  0
  5  6  1  0
  5 18  1  0
  6  7  1  0
  7  8  1  0
  8  9  1  0
  9 10  1  0
 10 11  2  0
 10 15  1  0
 11 12  1  0
 12 13  1  0
 13 14  2  0
 13 15  1  0
 15 16  1  0
 16 17  1  0
 18 19  1  0
 19 20  1  0
 20 21  2  3
 21 22  1  0
M  CHG  1   4   1
M  END
