
     RDKit          3D

 22 23  0  0  0  0  0  0  0  0999 V2000
    5.1130    1.8140    0.0010 C   0  0  0  0  0  0  0  0  0  0  0  0
    4.9080    0.4300   -0.4860 C   0  0  0  0  0  0  0  0  0  0  0  0
    3.6920   -0.0750   -0.3390 C   0  0  0  0  0  0  0  0  0  0  0  0
    2.6910    0.7550    0.2680 N   0  0  0  0  0  0  0  0  0  0  0  0
    1.2580    0.6200   -0.0010 C   0  0  0  0  0  0  0  0  0  0  0  0
    0.9590    0.1430   -1.3650 C   0  0  2  0  0  0  0  0  0  0  0  0
   -0.3240    0.5930   -1.8210 N   0  0  0  0  0  0  0  0  0  0  0  0
   -1.3340    0.8190   -0.8540 C   0  0  0  0  0  0  0  0  0  0  0  0
   -1.9890   -0.4220   -0.2920 C   0  0  0  0  0  0  0  0  0  0  0  0
   -3.0460   -0.0180    0.7040 C   0  0  0  0  0  0  0  0  0  0  0  0
   -3.3440    1.2340    1.0250 N   0  0  0  0  0  0  0  0  0  0  0  0
   -4.3140    1.2460    1.9250 N   0  0  0  0  0  0  0  0  0  0  0  0
   -4.8850    2.4490    2.4980 C   0  0  0  0  0  0  0  0  0  0  0  0
   -4.6140   -0.0440    2.1570 C   0  0  0  0  0  0  0  0  0  0  0  0
   -5.5000   -0.4450    2.9650 O   0  0  0  0  0  0  0  0  0  0  0  0
   -3.8290   -0.8400    1.4000 N   0  0  0  0  0  0  0  0  0  0  0  0
   -3.8460   -2.2790    1.3640 C   0  0  0  0  0  0  0  0  0  0  0  0
    1.0610   -1.3230   -1.6310 C   0  0  0  0  0  0  0  0  0  0  0  0
    2.3950   -1.8680   -1.5820 N   0  0  0  0  0  0  0  0  0  0  0  0
    3.5470   -1.4460   -0.8160 C   0  0  0  0  0  0  0  0  0  0  0  0
    4.4500   -2.3470   -0.5090 C   0  0  0  0  0  0  0  0  0  0  0  0
    5.9690   -1.9790    0.5510 Br  0  0  0  0  0  0  0  0  0  0  0  0
  1  2  1  0
  2  3  2  3
  3  4  1  0
  3 20  1  0
  4  5  1  0
  5  6  1  0
  6  7  1  1
  6 18  1  0
  7  8  1  0
  8  9  1  0
  9 10  1  0
 10 11  2  0
 10 16  1  0
 11 12  1  0
 12 13  1  0
 12 14  1  0
 14 15  2  0
 14 16  1  0
 16 17  1  0
 18 19  1  0
 19 20  1  0
 20 21  2  3
 21 22  1  0
M  CHG  1   7   1
M  END
