
     RDKit          3D

 18 19  0  0  0  0  0  0  0  0999 V2000
    3.8030    1.8170    0.7570 O   0  0  0  0  0  0  0  0  0  0  0  0
    4.0440    1.6390   -0.6130 C   0  0  0  0  0  0  0  0  0  0  0  0
    3.1610    0.5410   -1.1710 C   0  0  2  0  0  0  0  0  0  0  0  0
    1.8280    0.8030   -1.0300 O   0  0  0  0  0  0  0  0  0  0  0  0
    1.3180   -0.0450   -0.0560 C   0  0  1  0  0  0  0  0  0  0  0  0
   -0.0470   -0.1750   -0.1130 O   0  0  0  0  0  0  0  0  0  0  0  0
   -0.5860    0.1990    1.0920 C   0  0  0  0  0  0  0  0  0  0  0  0
   -2.0800    0.1010    1.1530 C   0  0  2  0  0  0  0  0  0  0  0  0
   -2.5810   -1.2200    0.9290 N   0  0  0  0  0  0  0  0  0  0  0  0
   -4.0020   -1.0290    0.7280 C   0  0  0  0  0  0  0  0  0  0  0  0
   -4.2080    0.3620    0.2210 C   0  0  2  0  0  0  0  0  0  0  0  0
   -4.8870    0.4450   -0.9680 O   0  0  0  0  0  0  0  0  0  0  0  0
   -2.7820    0.9190    0.1170 C   0  0  1  0  0  0  0  0  0  0  0  0
   -2.7570    2.2840    0.3820 O   0  0  0  0  0  0  0  0  0  0  0  0
    2.0570   -1.3370   -0.3380 C   0  0  2  0  0  0  0  0  0  0  0  0
    2.0280   -2.2010    0.7490 O   0  0  0  0  0  0  0  0  0  0  0  0
    3.4590   -0.7950   -0.5640 C   0  0  1  0  0  0  0  0  0  0  0  0
    4.1640   -1.6410   -1.4160 O   0  0  0  0  0  0  0  0  0  0  0  0
  1  2  1  0
  3  2  1  1
  3  4  1  0
  3 17  1  0
  4  5  1  0
  5  6  1  6
  5 15  1  0
  6  7  1  0
  8  7  1  6
  8  9  1  0
  8 13  1  0
  9 10  1  0
 10 11  1  0
 11 12  1  6
 11 13  1  0
 13 14  1  1
 15 16  1  1
 15 17  1  0
 17 18  1  6
M  CHG  1   9   1
M  END
