
     RDKit          3D

 33 35  0  0  0  0  0  0  0  0999 V2000
   -2.8610    0.5490    1.1860 C   0  0  0  0  0  0  0  0  0  0  0  0
   -2.2010    0.9320   -0.0850 C   0  0  0  0  0  0  0  0  0  0  0  0
   -2.8610    1.1970   -1.1920 C   0  0  0  0  0  0  0  0  0  0  0  0
   -4.3020    1.1320   -1.2440 C   0  0  0  0  0  0  0  0  0  0  0  0
   -4.9560    1.3840   -2.3000 O   0  0  0  0  0  0  0  0  0  0  0  0
   -5.0160    0.7880   -0.1270 O   0  0  0  0  0  0  0  0  0  0  0  0
   -6.4080    0.7040   -0.1020 C   0  0  0  0  0  0  0  0  0  0  0  0
   -7.2140    1.7770    0.2060 C   0  0  0  0  0  0  0  0  0  0  0  0
   -8.6010    1.6700    0.2250 C   0  0  0  0  0  0  0  0  0  0  0  0
   -9.3830    2.7400    0.5310 F   0  0  0  0  0  0  0  0  0  0  0  0
   -9.1960    0.4700   -0.0690 C   0  0  0  0  0  0  0  0  0  0  0  0
   -8.4110   -0.6220   -0.3810 C   0  0  0  0  0  0  0  0  0  0  0  0
   -7.0200   -0.4970   -0.3950 C   0  0  0  0  0  0  0  0  0  0  0  0
   -6.1530   -1.6600   -0.7280 C   0  0  0  0  0  0  0  0  0  0  0  0
   -0.7590    1.0010   -0.0600 N   0  0  0  0  0  0  0  0  0  0  0  0
   -0.0380   -0.0420    0.0110 C   0  0  0  0  0  0  0  0  0  0  0  0
    1.4060    0.0440    0.0340 N   0  0  0  0  0  0  0  0  0  0  0  0
    2.0470    1.3070   -0.0220 C   0  0  0  0  0  0  0  0  0  0  0  0
    1.6280    2.4270   -0.3580 O   0  0  0  0  0  0  0  0  0  0  0  0
    3.7350    0.9670    0.5340 S   0  0  0  0  0  0  0  0  0  0  0  0
    3.6600   -0.7950    0.1120 C   0  0  0  0  0  0  0  0  0  0  0  0
    4.6660   -1.5950   -0.1270 C   0  0  0  0  0  0  0  0  0  0  0  0
    6.0280   -1.1140   -0.0710 C   0  0  0  0  0  0  0  0  0  0  0  0
    6.4970   -0.2320    0.8720 C   0  0  0  0  0  0  0  0  0  0  0  0
    7.8230    0.2060    0.8710 C   0  0  0  0  0  0  0  0  0  0  0  0
    8.6810   -0.2480   -0.0860 C   0  0  0  0  0  0  0  0  0  0  0  0
   10.1090    0.2220   -0.0890 C   0  0  2  0  0  0  0  0  0  0  0  0
   10.7100   -0.1930    1.0580 F   0  0  0  0  0  0  0  0  0  0  0  0
   10.1800    1.5880   -0.2520 F   0  0  0  0  0  0  0  0  0  0  0  0
    8.2420   -1.1300   -1.0440 C   0  0  0  0  0  0  0  0  0  0  0  0
    6.9330   -1.5520   -1.0290 C   0  0  0  0  0  0  0  0  0  0  0  0
    2.2300   -1.0680    0.1050 C   0  0  0  0  0  0  0  0  0  0  0  0
    1.7960   -2.2830    0.1620 O   0  0  0  0  0  0  0  0  0  0  0  0
  1  2  1  0
  2  3  2  3
  2 15  1  0
  3  4  1  0
  4  5  2  0
  4  6  1  0
  6  7  1  0
  7  8  2  0
  7 13  1  0
  8  9  1  0
  9 10  1  0
  9 11  2  0
 11 12  1  0
 12 13  2  0
 13 14  1  0
 15 16  2  3
 16 17  1  0
 17 18  1  0
 17 32  1  0
 18 19  2  0
 18 20  1  0
 20 21  1  0
 21 22  2  3
 21 32  1  0
 22 23  1  0
 23 24  2  0
 23 31  1  0
 24 25  1  0
 25 26  2  0
 26 27  1  0
 26 30  1  0
 27 28  1  1
 27 29  1  0
 30 31  2  0
 32 33  2  0
M  END
