
     RDKit          3D

 33 35  0  0  0  0  0  0  0  0999 V2000
   -3.9440    4.4430    2.3370 C   0  0  0  0  0  0  0  0  0  0  0  0
   -2.7380    3.5680    2.3820 C   0  0  0  0  0  0  0  0  0  0  0  0
   -3.0180    2.2670    1.7340 C   0  0  0  0  0  0  0  0  0  0  0  0
   -4.1550    2.0850    1.2650 O   0  0  0  0  0  0  0  0  0  0  0  0
   -2.0230    1.2000    1.6250 C   0  0  0  0  0  0  0  0  0  0  0  0
   -2.1990    0.0360    1.0750 C   0  0  0  0  0  0  0  0  0  0  0  0
   -3.4350   -0.5330    0.4180 C   0  0  1  0  0  0  0  0  0  0  0  0
   -3.1690   -0.5960   -0.9800 N   0  0  0  0  0  0  0  0  0  0  0  0
   -2.9310    0.6960   -1.5870 C   0  0  0  0  0  0  0  0  0  0  0  0
   -4.0380   -1.4230   -1.7530 C   0  0  0  0  0  0  0  0  0  0  0  0
   -5.4480   -0.8870   -1.8430 C   0  0  2  0  0  0  0  0  0  0  0  0
   -5.4870    0.3610   -2.4260 F   0  0  0  0  0  0  0  0  0  0  0  0
   -6.0600   -0.8610   -0.5960 F   0  0  0  0  0  0  0  0  0  0  0  0
   -6.1950   -1.7320   -2.6400 F   0  0  0  0  0  0  0  0  0  0  0  0
   -3.3670   -1.9360    1.0130 C   0  0  0  0  0  0  0  0  0  0  0  0
   -1.9310   -2.2870    1.0290 C   0  0  2  0  0  0  0  0  0  0  0  0
   -1.5180   -3.1660   -0.1370 C   0  0  0  0  0  0  0  0  0  0  0  0
   -1.6020   -3.0410    2.2850 C   0  0  0  0  0  0  0  0  0  0  0  0
   -1.2340   -1.0000    0.9500 N   0  0  0  0  0  0  0  0  0  0  0  0
    0.1610   -0.8700    0.7410 C   0  0  0  0  0  0  0  0  0  0  0  0
    0.8600   -1.9310    0.5880 O   0  0  0  0  0  0  0  0  0  0  0  0
    0.9030    0.4040    0.6780 C   0  0  0  0  0  0  0  0  0  0  0  0
    2.2370    0.1730    0.2200 O   0  0  0  0  0  0  0  0  0  0  0  0
    3.1440    1.1700    0.0560 C   0  0  0  0  0  0  0  0  0  0  0  0
    2.8280    2.3480    0.3120 O   0  0  0  0  0  0  0  0  0  0  0  0
    4.5190    0.9240   -0.4230 C   0  0  0  0  0  0  0  0  0  0  0  0
    5.1800   -0.2140   -0.7780 C   0  0  0  0  0  0  0  0  0  0  0  0
    6.4650   -0.0860   -1.1940 C   0  0  0  0  0  0  0  0  0  0  0  0
    7.0160    1.1340   -1.2360 C   0  0  0  0  0  0  0  0  0  0  0  0
    5.7580    2.1940   -0.6890 S   0  0  0  0  0  0  0  0  0  0  0  0
    8.4530    1.0760   -1.7360 C   0  0  0  0  0  0  0  0  0  0  0  0
    8.2950   -0.1650   -2.6360 C   0  0  0  0  0  0  0  0  0  0  0  0
    7.5540   -1.0440   -1.6560 C   0  0  0  0  0  0  0  0  0  0  0  0
  1  2  1  0
  2  3  1  0
  3  4  2  0
  3  5  1  0
  5  6  2  3
  6  7  1  0
  6 19  1  0
  7  8  1  6
  7 15  1  0
  8  9  1  0
  8 10  1  0
 10 11  1  0
 11 12  1  6
 11 13  1  0
 11 14  1  0
 15 16  1  0
 16 17  1  6
 16 18  1  0
 16 19  1  0
 19 20  1  0
 20 21  2  0
 20 22  1  0
 22 23  1  0
 23 24  1  0
 24 25  2  0
 24 26  1  0
 26 27  2  0
 26 30  1  0
 27 28  1  0
 28 29  2  0
 28 33  1  0
 29 30  1  0
 29 31  1  0
 31 32  1  0
 32 33  1  0
M  END
