
     RDKit          3D

 33 34  0  0  0  0  0  0  0  0999 V2000
   -6.2760    1.6400    1.0090 C   0  0  0  0  0  0  0  0  0  0  0  0
   -6.9470    0.8570   -0.0390 C   0  0  0  0  0  0  0  0  0  0  0  0
   -7.7310    1.4590   -0.9960 C   0  0  0  0  0  0  0  0  0  0  0  0
   -8.3830    0.7730   -1.9930 C   0  0  0  0  0  0  0  0  0  0  0  0
   -8.2300   -0.6000   -2.0230 C   0  0  0  0  0  0  0  0  0  0  0  0
   -7.4390   -1.2260   -1.0600 C   0  0  0  0  0  0  0  0  0  0  0  0
   -7.3060   -2.6320   -1.1280 N   0  0  0  0  0  0  0  0  0  0  0  0
   -6.7930   -0.5160   -0.0660 C   0  0  0  0  0  0  0  0  0  0  0  0
   -5.9970   -1.1800    0.9060 N   0  0  0  0  0  0  0  0  0  0  0  0
   -4.6210   -1.4040    0.6440 C   0  0  0  0  0  0  0  0  0  0  0  0
   -4.1230   -1.0260   -0.4230 O   0  0  0  0  0  0  0  0  0  0  0  0
   -3.7550   -2.0970    1.6390 C   0  0  0  0  0  0  0  0  0  0  0  0
   -2.3970   -2.4210    1.1600 C   0  0  0  0  0  0  0  0  0  0  0  0
   -1.6300   -1.2390    0.7650 C   0  0  0  0  0  0  0  0  0  0  0  0
   -1.2700   -0.3190    1.5680 N   0  0  0  0  0  0  0  0  0  0  0  0
   -0.5380    0.7970    1.1760 N   0  0  0  0  0  0  0  0  0  0  0  0
   -1.1250    2.0910    0.9480 C   0  0  0  0  0  0  0  0  0  0  0  0
   -2.1860    2.0960   -0.1040 C   0  0  0  0  0  0  0  0  0  0  0  0
   -1.7380    1.6740   -1.3950 N   0  0  0  0  0  0  0  0  0  0  0  0
    0.8710    0.6240    0.9950 C   0  0  0  0  0  0  0  0  0  0  0  0
    1.3680    0.1240   -0.1820 C   0  0  0  0  0  0  0  0  0  0  0  0
    2.7450   -0.0450   -0.3710 C   0  0  0  0  0  0  0  0  0  0  0  0
    3.6440    0.2850    0.6160 C   0  0  0  0  0  0  0  0  0  0  0  0
    4.9990    0.1710    0.5620 O   0  0  0  0  0  0  0  0  0  0  0  0
    5.7860   -0.2970   -0.4990 C   0  0  2  0  0  0  0  0  0  0  0  0
    6.2620   -1.6880   -0.2290 C   0  0  0  0  0  0  0  0  0  0  0  0
    7.0690   -2.1900   -1.2750 O   0  0  0  0  0  0  0  0  0  0  0  0
    6.7610    0.6690   -1.0520 C   0  0  0  0  0  0  0  0  0  0  0  0
    7.7920    1.2430   -0.1760 C   0  0  0  0  0  0  0  0  0  0  0  0
    8.7670    0.2980    0.4610 C   0  0  0  0  0  0  0  0  0  0  0  0
    9.5290   -0.4450   -0.5110 N   0  0  0  0  0  0  0  0  0  0  0  0
    3.1050    0.7940    1.8050 C   0  0  0  0  0  0  0  0  0  0  0  0
    1.7730    0.9600    1.9940 C   0  0  0  0  0  0  0  0  0  0  0  0
  1  2  1  0
  2  3  2  0
  2  8  1  0
  3  4  1  0
  4  5  2  0
  5  6  1  0
  6  7  1  0
  6  8  2  0
  8  9  1  0
  9 10  1  0
 10 11  2  0
 10 12  1  0
 12 13  1  0
 13 14  1  0
 14 15  2  3
 15 16  1  0
 16 17  1  0
 16 20  1  0
 17 18  1  0
 18 19  1  0
 20 21  2  0
 20 33  1  0
 21 22  1  0
 22 23  2  0
 23 24  1  0
 23 32  1  0
 24 25  1  0
 25 26  1  1
 25 28  1  0
 26 27  1  0
 28 29  1  0
 29 30  1  0
 30 31  1  0
 32 33  2  0
M  CHG  2  19   1  31   1
M  END
