
     RDKit          3D

 33 35  0  0  0  0  0  0  0  0999 V2000
   -7.4340   -2.3570    2.3030 C   0  0  0  0  0  0  0  0  0  0  0  0
   -5.9960   -2.1330    2.0610 C   0  0  0  0  0  0  0  0  0  0  0  0
   -5.3130   -2.5650    1.0360 C   0  0  0  0  0  0  0  0  0  0  0  0
   -3.9370   -2.2860    0.9130 N   0  0  0  0  0  0  0  0  0  0  0  0
   -3.5010   -1.2640    0.2090 C   0  0  0  0  0  0  0  0  0  0  0  0
   -4.5350   -0.1210   -0.6640 S   0  0  0  0  0  0  0  0  0  0  0  0
   -3.2450    0.8190   -1.2640 C   0  0  0  0  0  0  0  0  0  0  0  0
   -2.0960    0.2070   -0.7660 C   0  0  0  0  0  0  0  0  0  0  0  0
   -2.2350   -0.8390   -0.0230 N   0  0  0  0  0  0  0  0  0  0  0  0
   -1.2140   -1.5580    0.6630 C   0  0  0  0  0  0  0  0  0  0  0  0
   -1.4520   -2.6650    1.2530 O   0  0  0  0  0  0  0  0  0  0  0  0
    0.1470   -1.0620    0.7320 C   0  0  0  0  0  0  0  0  0  0  0  0
    0.4720    0.0920    1.4420 C   0  0  0  0  0  0  0  0  0  0  0  0
    1.7760    0.5180    1.4940 C   0  0  0  0  0  0  0  0  0  0  0  0
    2.8080   -0.1460    0.8700 C   0  0  0  0  0  0  0  0  0  0  0  0
    4.1940    0.3390    0.9460 C   0  0  0  0  0  0  0  0  0  0  0  0
    4.4510    1.3680    1.5880 O   0  0  0  0  0  0  0  0  0  0  0  0
    5.2300   -0.3260    0.3170 O   0  0  0  0  0  0  0  0  0  0  0  0
    6.5730    0.0610    0.3360 C   0  0  0  0  0  0  0  0  0  0  0  0
    6.8060    1.4260   -0.2430 C   0  0  1  0  0  0  0  0  0  0  0  0
    8.2790    1.7470   -0.1740 C   0  0  0  0  0  0  0  0  0  0  0  0
    6.3760    1.5490   -1.6520 C   0  0  0  0  0  0  0  0  0  0  0  0
    5.5180    0.8780   -2.1810 O   0  0  0  0  0  0  0  0  0  0  0  0
    2.4800   -1.2870    0.1690 C   0  0  0  0  0  0  0  0  0  0  0  0
    1.1740   -1.7320    0.1050 C   0  0  0  0  0  0  0  0  0  0  0  0
   -0.9200    0.9490   -1.3180 C   0  0  0  0  0  0  0  0  0  0  0  0
   -0.9720    2.4130   -0.8630 C   0  0  0  0  0  0  0  0  0  0  0  0
   -2.2780    3.0410   -1.3200 C   0  0  0  0  0  0  0  0  0  0  0  0
   -3.1170    2.0700   -2.1300 C   0  0  0  0  0  0  0  0  0  0  0  0
   -5.9770   -3.3550   -0.0110 C   0  0  1  0  0  0  0  0  0  0  0  0
   -5.4330   -4.6190   -0.1450 F   0  0  0  0  0  0  0  0  0  0  0  0
   -7.3480   -3.4060    0.0920 F   0  0  0  0  0  0  0  0  0  0  0  0
   -5.7290   -2.6680   -1.2120 F   0  0  0  0  0  0  0  0  0  0  0  0
  1  2  1  0
  2  3  2  3
  3  4  1  0
  3 30  1  0
  4  5  2  3
  5  6  1  0
  5  9  1  0
  6  7  1  0
  7  8  2  0
  7 29  1  0
  8  9  1  0
  8 26  1  0
  9 10  1  0
 10 11  2  0
 10 12  1  0
 12 13  2  0
 12 25  1  0
 13 14  1  0
 14 15  2  0
 15 16  1  0
 15 24  1  0
 16 17  2  0
 16 18  1  0
 18 19  1  0
 19 20  1  0
 20 21  1  6
 20 22  1  0
 22 23  2  0
 24 25  2  0
 26 27  1  0
 27 28  1  0
 28 29  1  0
 30 31  1  6
 30 32  1  0
 30 33  1  0
M  END
