
     RDKit          3D

 33 35  0  0  0  0  0  0  0  0999 V2000
   -6.1640   -4.6570    0.8580 C   0  0  0  0  0  0  0  0  0  0  0  0
   -5.8390   -3.3060    0.3090 C   0  0  0  0  0  0  0  0  0  0  0  0
   -4.8040   -2.5480    1.0440 C   0  0  0  0  0  0  0  0  0  0  0  0
   -3.6780   -2.2720    0.4450 C   0  0  0  0  0  0  0  0  0  0  0  0
   -3.2790   -2.7770   -1.2750 S   0  0  0  0  0  0  0  0  0  0  0  0
   -2.1330   -1.4510   -1.5420 C   0  0  0  0  0  0  0  0  0  0  0  0
   -1.8120   -0.9370   -2.6330 O   0  0  0  0  0  0  0  0  0  0  0  0
   -1.6600   -1.0990   -0.2030 N   0  0  0  0  0  0  0  0  0  0  0  0
   -0.4270   -0.3460   -0.1880 C   0  0  0  0  0  0  0  0  0  0  0  0
    0.8180   -0.9830   -0.3740 C   0  0  0  0  0  0  0  0  0  0  0  0
    1.9860   -0.2750   -0.5190 C   0  0  0  0  0  0  0  0  0  0  0  0
    3.2230   -0.8940   -0.9670 C   0  0  0  0  0  0  0  0  0  0  0  0
    4.1430   -1.4670   -0.2060 N   0  0  0  0  0  0  0  0  0  0  0  0
    4.3410   -2.2830    0.8530 C   0  0  0  0  0  0  0  0  0  0  0  0
    5.8660   -1.9500    1.1270 C   0  0  0  0  0  0  0  0  0  0  0  0
    6.3970   -1.6210   -0.2880 C   0  0  0  0  0  0  0  0  0  0  0  0
    5.2200   -2.0240   -1.1420 C   0  0  0  0  0  0  0  0  0  0  0  0
    1.9080    1.0800   -0.4780 C   0  0  0  0  0  0  0  0  0  0  0  0
    3.1010    1.9560   -0.6090 C   0  0  0  0  0  0  0  0  0  0  0  0
    3.7930    1.9360    0.7350 C   0  0  0  0  0  0  0  0  0  0  0  0
    0.7160    1.7140   -0.2900 C   0  0  0  0  0  0  0  0  0  0  0  0
   -0.4960    1.0000   -0.1410 C   0  0  0  0  0  0  0  0  0  0  0  0
   -1.7110    1.8330   -0.0420 C   0  0  0  0  0  0  0  0  0  0  0  0
   -2.8200    1.3540   -0.2240 O   0  0  0  0  0  0  0  0  0  0  0  0
   -1.5910    3.1510    0.2640 O   0  0  0  0  0  0  0  0  0  0  0  0
   -2.4880    4.1740    0.4290 C   0  0  0  0  0  0  0  0  0  0  0  0
   -3.2740    4.5730   -0.7910 C   0  0  0  0  0  0  0  0  0  0  0  0
   -4.1720    5.7260   -0.3810 C   0  0  2  0  0  0  0  0  0  0  0  0
   -5.0390    5.3790    0.6190 F   0  0  0  0  0  0  0  0  0  0  0  0
   -4.9030    6.0500   -1.5240 F   0  0  0  0  0  0  0  0  0  0  0  0
   -3.4590    6.8380   -0.0370 F   0  0  0  0  0  0  0  0  0  0  0  0
   -2.4740   -1.5320    0.8050 C   0  0  0  0  0  0  0  0  0  0  0  0
   -2.2290   -1.3320    2.0660 O   0  0  0  0  0  0  0  0  0  0  0  0
  1  2  1  0
  2  3  1  0
  3  4  2  3
  4  5  1  0
  4 32  1  0
  5  6  1  0
  6  7  2  0
  6  8  1  0
  8  9  1  0
  8 32  1  0
  9 10  2  0
  9 22  1  0
 10 11  1  0
 11 12  1  0
 11 18  2  0
 12 13  1  0
 13 14  1  0
 13 17  1  0
 14 15  1  0
 15 16  1  0
 16 17  1  0
 18 19  1  0
 18 21  1  0
 19 20  1  0
 21 22  2  0
 22 23  1  0
 23 24  2  0
 23 25  1  0
 25 26  1  0
 26 27  1  0
 27 28  1  0
 28 29  1  1
 28 30  1  0
 28 31  1  0
 32 33  2  0
M  END
