
     RDKit          3D

 31 34  0  0  0  0  0  0  0  0999 V2000
   -5.3430    0.4680   -3.3550 C   0  0  0  0  0  0  0  0  0  0  0  0
   -5.2130    0.2050   -2.0500 C   0  0  0  0  0  0  0  0  0  0  0  0
   -3.8870    0.2570   -1.4570 C   0  0  0  0  0  0  0  0  0  0  0  0
   -3.7260    0.0000   -0.1520 C   0  0  0  0  0  0  0  0  0  0  0  0
   -4.8700   -0.3370    0.7010 C   0  0  0  0  0  0  0  0  0  0  0  0
   -6.0850   -0.3930    0.1900 C   0  0  0  0  0  0  0  0  0  0  0  0
   -6.3830   -0.1310   -1.2260 C   0  0  1  0  0  0  0  0  0  0  0  0
   -7.6210    1.1640   -1.3760 Cl  0  0  0  0  0  0  0  0  0  0  0  0
   -4.5490   -0.6590    2.4220 S   0  0  0  0  0  0  0  0  0  0  0  0
   -2.7740   -0.7950    2.6460 C   0  0  1  0  0  0  0  0  0  0  0  0
   -2.5120   -2.0860    3.4270 C   0  0  0  0  0  0  0  0  0  0  0  0
   -2.0030   -0.9340    1.3470 C   0  0  0  0  0  0  0  0  0  0  0  0
   -2.3890    0.0760    0.3620 N   0  0  0  0  0  0  0  0  0  0  0  0
   -1.4770    1.1010   -0.0880 C   0  0  0  0  0  0  0  0  0  0  0  0
   -1.9130    1.9460   -0.8800 O   0  0  0  0  0  0  0  0  0  0  0  0
   -0.0940    1.1310    0.3840 C   0  0  0  0  0  0  0  0  0  0  0  0
    0.8650    1.9840   -0.3300 C   0  0  0  0  0  0  0  0  0  0  0  0
    1.1850    1.6430   -1.6830 N   0  0  0  0  0  0  0  0  0  0  0  0
    0.5800    2.2200   -2.8750 C   0  0  0  0  0  0  0  0  0  0  0  0
    1.3170    3.4970   -3.2770 C   0  0  0  0  0  0  0  0  0  0  0  0
    2.2370    0.7210   -1.9590 C   0  0  0  0  0  0  0  0  0  0  0  0
    2.5220    0.3800   -3.1600 O   0  0  0  0  0  0  0  0  0  0  0  0
    3.0310    0.1290   -0.9080 C   0  0  0  0  0  0  0  0  0  0  0  0
    4.0860   -0.7920   -1.1060 C   0  0  0  0  0  0  0  0  0  0  0  0
    4.6290   -1.1510    0.0980 C   0  0  0  0  0  0  0  0  0  0  0  0
    3.9280   -0.4690    1.0170 N   0  0  0  0  0  0  0  0  0  0  0  0
    3.0070    0.2680    0.4220 N   0  0  0  0  0  0  0  0  0  0  0  0
    4.1660   -0.5460    2.4520 C   0  0  0  0  0  0  0  0  0  0  0  0
    5.2920   -1.4560    2.7930 C   0  0  0  0  0  0  0  0  0  0  0  0
    5.3290   -2.6530    1.8390 C   0  0  0  0  0  0  0  0  0  0  0  0
    5.7350   -2.0640    0.4960 C   0  0  0  0  0  0  0  0  0  0  0  0
  1  2  2  0
  2  3  1  0
  2  7  1  0
  3  4  2  0
  4  5  1  0
  4 13  1  0
  5  6  2  0
  5  9  1  0
  6  7  1  0
  7  8  1  1
  9 10  1  0
 10 11  1  1
 10 12  1  0
 12 13  1  0
 13 14  1  0
 14 15  2  0
 14 16  1  0
 16 17  1  0
 17 18  1  0
 18 19  1  0
 18 21  1  0
 19 20  1  0
 21 22  2  0
 21 23  1  0
 23 24  1  0
 23 27  2  0
 24 25  2  0
 25 26  1  0
 25 31  1  0
 26 27  1  0
 26 28  1  0
 28 29  1  0
 29 30  1  0
 30 31  1  0
M  END
