
     RDKit          3D

 31 35  0  0  0  0  0  0  0  0999 V2000
    7.3590    1.4150   -1.4790 C   0  0  0  0  0  0  0  0  0  0  0  0
    5.9990    1.8590   -0.9030 C   0  0  0  0  0  0  0  0  0  0  0  0
    5.7600    0.8770    0.1920 C   0  0  0  0  0  0  0  0  0  0  0  0
    6.5030    0.8640    1.3290 N   0  0  0  0  0  0  0  0  0  0  0  0
    6.1910   -0.1660    2.0000 O   0  0  0  0  0  0  0  0  0  0  0  0
    5.2370   -0.9150    1.3980 C   0  0  0  0  0  0  0  0  0  0  0  0
    4.7540   -2.1850    2.0080 C   0  0  0  0  0  0  0  0  0  0  0  0
    4.9620   -0.2580    0.2470 C   0  0  0  0  0  0  0  0  0  0  0  0
    4.0840   -0.6030   -0.8900 C   0  0  0  0  0  0  0  0  0  0  0  0
    2.6930   -0.4760   -0.7190 N   0  0  1  0  0  0  0  0  0  0  0  0
    1.9300   -1.2890   -1.6060 C   0  0  0  0  0  0  0  0  0  0  0  0
    0.4770   -0.7060   -1.6720 C   0  0  0  0  0  0  0  0  0  0  0  0
    0.2350    0.2200   -0.7180 N   0  0  0  0  0  0  0  0  0  0  0  0
   -0.7430    1.2020   -0.5330 C   0  0  0  0  0  0  0  0  0  0  0  0
   -2.1060    0.6100   -0.5580 C   0  0  0  0  0  0  0  0  0  0  0  0
   -2.4500   -0.3200   -1.5510 C   0  0  0  0  0  0  0  0  0  0  0  0
   -3.7460   -0.8640   -1.5080 C   0  0  0  0  0  0  0  0  0  0  0  0
   -4.0700   -1.8240   -2.3940 N   0  0  0  0  0  0  0  0  0  0  0  0
   -5.2570   -2.4550   -2.3290 C   0  0  0  0  0  0  0  0  0  0  0  0
   -6.1640   -2.1320   -1.3530 C   0  0  0  0  0  0  0  0  0  0  0  0
   -5.8500   -1.1140   -0.4210 C   0  0  0  0  0  0  0  0  0  0  0  0
   -4.6440   -0.4930   -0.5370 C   0  0  0  0  0  0  0  0  0  0  0  0
   -4.2780    0.4860    0.4460 C   0  0  0  0  0  0  0  0  0  0  0  0
   -2.9690    0.9950    0.3810 C   0  0  0  0  0  0  0  0  0  0  0  0
   -2.5910    1.9740    1.4410 C   0  0  0  0  0  0  0  0  0  0  0  0
   -3.3540    1.5740    2.6240 N   0  0  0  0  0  0  0  0  0  0  0  0
   -4.7460    1.7190    2.4690 C   0  0  0  0  0  0  0  0  0  0  0  0
   -5.2430    1.0200    1.2780 N   0  0  0  0  0  0  0  0  0  0  0  0
   -6.6300    0.9860    0.9810 C   0  0  0  0  0  0  0  0  0  0  0  0
    0.7060   -0.2060    0.6320 C   0  0  0  0  0  0  0  0  0  0  0  0
    2.1940   -0.5470    0.6020 C   0  0  0  0  0  0  0  0  0  0  0  0
  1  2  1  0
  2  3  1  0
  3  4  2  0
  3  8  1  0
  4  5  1  0
  5  6  1  0
  6  7  1  0
  6  8  2  0
  8  9  1  0
 10  9  1  1
 10 11  1  0
 10 31  1  0
 11 12  1  0
 12 13  1  0
 13 14  1  0
 13 30  1  0
 14 15  1  0
 15 16  2  0
 15 24  1  0
 16 17  1  0
 17 18  2  0
 17 22  1  0
 18 19  1  0
 19 20  2  0
 20 21  1  0
 21 22  2  0
 22 23  1  0
 23 24  2  0
 23 28  1  0
 24 25  1  0
 25 26  1  0
 26 27  1  0
 27 28  1  0
 28 29  1  0
 30 31  1  0
M  CHG  2  10   1  18   1
M  END
