
     RDKit          3D

 31 34  0  0  0  0  0  0  0  0999 V2000
   -3.6970    0.6720   -2.8170 C   0  0  0  0  0  0  0  0  0  0  0  0
   -2.9830    0.1380   -1.6120 C   0  0  0  0  0  0  0  0  0  0  0  0
   -2.5120   -1.0840   -1.5810 C   0  0  0  0  0  0  0  0  0  0  0  0
   -2.7530   -2.0730   -3.0370 Cl  0  0  0  0  0  0  0  0  0  0  0  0
   -1.8450   -1.7670   -0.4570 C   0  0  2  0  0  0  0  0  0  0  0  0
   -2.7740   -2.8660   -0.0270 C   0  0  0  0  0  0  0  0  0  0  0  0
   -4.0140   -3.0770   -0.5060 C   0  0  0  0  0  0  0  0  0  0  0  0
   -4.5780   -4.2400    0.1730 C   0  0  0  0  0  0  0  0  0  0  0  0
   -5.6450   -5.0260   -0.2090 O   0  0  0  0  0  0  0  0  0  0  0  0
   -3.7980   -4.3400    1.2460 C   0  0  0  0  0  0  0  0  0  0  0  0
   -2.5720   -3.9100    0.9680 C   0  0  0  0  0  0  0  0  0  0  0  0
   -1.4960   -0.8790    0.6090 N   0  0  0  0  0  0  0  0  0  0  0  0
   -0.6300   -1.2280    1.6870 C   0  0  0  0  0  0  0  0  0  0  0  0
    0.8120   -0.9210    1.3310 C   0  0  0  0  0  0  0  0  0  0  0  0
    1.7640   -1.4360    0.8240 N   0  0  0  0  0  0  0  0  0  0  0  0
    2.9440   -0.9050    0.6390 C   0  0  0  0  0  0  0  0  0  0  0  0
    3.1110    0.3770    1.0680 C   0  0  0  0  0  0  0  0  0  0  0  0
    1.5240    0.7500    1.7290 S   0  0  0  0  0  0  0  0  0  0  0  0
    4.3720    1.1320    0.9400 C   0  0  0  0  0  0  0  0  0  0  0  0
    4.9890    0.8430   -0.3750 C   0  0  1  0  0  0  0  0  0  0  0  0
    4.4230    1.8550   -1.3800 C   0  0  0  0  0  0  0  0  0  0  0  0
    6.4800    1.1930   -0.2670 C   0  0  0  0  0  0  0  0  0  0  0  0
    4.7680   -0.5090   -0.9280 C   0  0  0  0  0  0  0  0  0  0  0  0
    4.1820   -1.5120    0.0040 C   0  0  0  0  0  0  0  0  0  0  0  0
   -2.0060    0.4740    0.6340 C   0  0  0  0  0  0  0  0  0  0  0  0
   -1.8020    1.2070    1.6270 O   0  0  0  0  0  0  0  0  0  0  0  0
   -2.7630    1.0260   -0.4780 C   0  0  0  0  0  0  0  0  0  0  0  0
   -3.2190    2.2400   -0.4640 N   0  0  0  0  0  0  0  0  0  0  0  0
   -2.9770    3.0360    0.6450 N   0  0  0  0  0  0  0  0  0  0  0  0
   -3.8220    3.0830    1.8170 C   0  0  0  0  0  0  0  0  0  0  0  0
   -1.7970    3.8790    0.6350 C   0  0  0  0  0  0  0  0  0  0  0  0
  1  2  1  0
  2  3  2  0
  2 27  1  0
  3  4  1  0
  3  5  1  0
  5  6  1  1
  5 12  1  0
  6  7  2  0
  6 11  1  0
  7  8  1  0
  8  9  1  0
  8 10  2  0
 10 11  2  0
 12 13  1  0
 12 25  1  0
 13 14  1  0
 14 15  2  0
 14 18  1  0
 15 16  1  0
 16 17  2  0
 16 24  1  0
 17 18  1  0
 17 19  1  0
 19 20  1  0
 20 21  1  6
 20 22  1  0
 20 23  1  0
 23 24  1  0
 25 26  2  0
 25 27  1  0
 27 28  2  3
 28 29  1  0
 29 30  1  0
 29 31  1  0
M  END
