
     RDKit          3D

 31 35  0  0  0  0  0  0  0  0999 V2000
   -7.4210   -2.1820   -1.7280 C   0  0  0  0  0  0  0  0  0  0  0  0
   -7.3380   -0.6670   -1.4930 C   0  0  1  0  0  0  0  0  0  0  0  0
   -8.1720   -0.3430   -0.3510 N   0  0  0  0  0  0  0  0  0  0  0  0
   -7.3130   -0.2190    0.7860 C   0  0  0  0  0  0  0  0  0  0  0  0
   -5.9080   -0.2600    0.2910 C   0  0  0  0  0  0  0  0  0  0  0  0
   -5.9900   -0.3730   -1.1300 N   0  0  0  0  0  0  0  0  0  0  0  0
   -5.3950    0.7140   -1.8540 C   0  0  0  0  0  0  0  0  0  0  0  0
   -3.9620    0.7730   -1.4920 C   0  0  0  0  0  0  0  0  0  0  0  0
   -3.3660    1.4680   -0.4810 N   0  0  0  0  0  0  0  0  0  0  0  0
   -2.0640    1.2430   -0.5100 C   0  0  0  0  0  0  0  0  0  0  0  0
   -0.9970    1.7500    0.3540 C   0  0  0  0  0  0  0  0  0  0  0  0
   -1.2930    2.6060    1.3930 C   0  0  0  0  0  0  0  0  0  0  0  0
   -0.3270    3.1110    2.2340 C   0  0  0  0  0  0  0  0  0  0  0  0
    0.9810    2.7310    2.0070 C   0  0  0  0  0  0  0  0  0  0  0  0
    1.3400    1.8720    0.9760 C   0  0  0  0  0  0  0  0  0  0  0  0
    2.7380    1.4790    0.7500 C   0  0  0  0  0  0  0  0  0  0  0  0
    3.7750    2.3260    1.0340 C   0  0  0  0  0  0  0  0  0  0  0  0
    5.0650    1.8980    0.7990 C   0  0  0  0  0  0  0  0  0  0  0  0
    5.3430    0.6480    0.2890 C   0  0  0  0  0  0  0  0  0  0  0  0
    6.6710    0.2640    0.0330 N   0  0  0  0  0  0  0  0  0  0  0  0
    7.0600   -1.0870    0.0690 C   0  0  0  0  0  0  0  0  0  0  0  0
    8.1540   -1.4770   -0.6850 C   0  0  0  0  0  0  0  0  0  0  0  0
    8.6150   -2.7820   -0.6750 C   0  0  0  0  0  0  0  0  0  0  0  0
    7.9980   -3.7070    0.0770 N   0  0  0  0  0  0  0  0  0  0  0  0
    6.9350   -3.3670    0.8200 C   0  0  0  0  0  0  0  0  0  0  0  0
    6.4510   -2.0530    0.8270 C   0  0  0  0  0  0  0  0  0  0  0  0
    4.3080   -0.2020    0.0030 C   0  0  0  0  0  0  0  0  0  0  0  0
    2.9960    0.2240    0.2390 C   0  0  0  0  0  0  0  0  0  0  0  0
    0.3220    1.4020    0.1700 C   0  0  0  0  0  0  0  0  0  0  0  0
   -1.8460    0.4030   -1.5460 N   0  0  0  0  0  0  0  0  0  0  0  0
   -2.9960    0.1420   -2.1100 O   0  0  0  0  0  0  0  0  0  0  0  0
  2  1  1  1
  2  3  1  0
  2  6  1  0
  3  4  1  0
  4  5  1  0
  5  6  1  0
  6  7  1  0
  7  8  1  0
  8  9  2  0
  8 31  1  0
  9 10  1  0
 10 11  1  0
 10 30  2  0
 11 12  2  0
 11 29  1  0
 12 13  1  0
 13 14  2  0
 14 15  1  0
 15 16  1  0
 15 29  2  0
 16 17  2  0
 16 28  1  0
 17 18  1  0
 18 19  2  0
 19 20  1  0
 19 27  1  0
 20 21  1  0
 21 22  2  0
 21 26  1  0
 22 23  1  0
 23 24  2  0
 24 25  1  0
 25 26  2  0
 27 28  2  0
 30 31  1  0
M  CHG  1  24   1
M  END
