
     RDKit          3D

 33 35  0  0  0  0  0  0  0  0999 V2000
   -7.3510   -3.3610   -0.7970 C   0  0  0  0  0  0  0  0  0  0  0  0
   -5.9840   -3.0420   -0.3270 C   0  0  0  0  0  0  0  0  0  0  0  0
   -5.0130   -2.5780   -1.0760 C   0  0  0  0  0  0  0  0  0  0  0  0
   -3.7590   -2.3080   -0.5370 N   0  0  0  0  0  0  0  0  0  0  0  0
   -3.4050   -1.0830   -0.2240 C   0  0  0  0  0  0  0  0  0  0  0  0
   -4.4130    0.4110   -0.4190 S   0  0  0  0  0  0  0  0  0  0  0  0
   -3.2750    1.4860    0.1860 C   0  0  0  0  0  0  0  0  0  0  0  0
   -2.1550    0.6740    0.5230 C   0  0  0  0  0  0  0  0  0  0  0  0
   -2.2490   -0.6020    0.3050 N   0  0  0  0  0  0  0  0  0  0  0  0
   -1.1410   -1.5580    0.5200 C   0  0  0  0  0  0  0  0  0  0  0  0
   -1.3940   -2.8120    0.3900 O   0  0  0  0  0  0  0  0  0  0  0  0
    0.1960   -1.2270    0.8580 C   0  0  0  0  0  0  0  0  0  0  0  0
    0.7690   -1.5670    2.0580 C   0  0  0  0  0  0  0  0  0  0  0  0
    2.1090   -1.2810    2.3340 C   0  0  0  0  0  0  0  0  0  0  0  0
    2.8970   -0.6430    1.3970 C   0  0  0  0  0  0  0  0  0  0  0  0
    4.3010   -0.3360    1.6730 C   0  0  0  0  0  0  0  0  0  0  0  0
    4.8260   -0.6350    2.7620 O   0  0  0  0  0  0  0  0  0  0  0  0
    5.0430    0.2920    0.7090 O   0  0  0  0  0  0  0  0  0  0  0  0
    6.4120    0.6290    0.8920 C   0  0  0  0  0  0  0  0  0  0  0  0
    6.9460    1.3030   -0.3500 C   0  0  1  0  0  0  0  0  0  0  0  0
    6.8330    0.3860   -1.5610 C   0  0  0  0  0  0  0  0  0  0  0  0
    6.2010    2.5450   -0.6060 C   0  0  0  0  0  0  0  0  0  0  0  0
    6.2770    3.4880    0.1750 O   0  0  0  0  0  0  0  0  0  0  0  0
    2.3330   -0.2970    0.1900 C   0  0  0  0  0  0  0  0  0  0  0  0
    1.0150   -0.5820   -0.0710 C   0  0  0  0  0  0  0  0  0  0  0  0
   -1.0930    1.5620    1.1420 C   0  0  0  0  0  0  0  0  0  0  0  0
   -0.7030    2.5250    0.0530 C   0  0  0  0  0  0  0  0  0  0  0  0
   -1.8870    3.4080   -0.2850 C   0  0  0  0  0  0  0  0  0  0  0  0
   -3.1550    2.9810    0.4230 C   0  0  0  0  0  0  0  0  0  0  0  0
   -5.2500   -2.3390   -2.5140 C   0  0  2  0  0  0  0  0  0  0  0  0
   -5.0690   -0.9900   -2.7560 F   0  0  0  0  0  0  0  0  0  0  0  0
   -6.4240   -2.8290   -2.9950 F   0  0  0  0  0  0  0  0  0  0  0  0
   -4.1710   -2.9690   -3.1610 F   0  0  0  0  0  0  0  0  0  0  0  0
  1  2  1  0
  2  3  2  3
  3  4  1  0
  3 30  1  0
  4  5  2  3
  5  6  1  0
  5  9  1  0
  6  7  1  0
  7  8  2  0
  7 29  1  0
  8  9  1  0
  8 26  1  0
  9 10  1  0
 10 11  2  0
 10 12  1  0
 12 13  2  0
 12 25  1  0
 13 14  1  0
 14 15  2  0
 15 16  1  0
 15 24  1  0
 16 17  2  0
 16 18  1  0
 18 19  1  0
 19 20  1  0
 20 21  1  6
 20 22  1  0
 22 23  2  0
 24 25  2  0
 26 27  1  0
 27 28  1  0
 28 29  1  0
 30 31  1  1
 30 32  1  0
 30 33  1  0
M  END
