
     RDKit          3D

 33 34  0  0  0  0  0  0  0  0999 V2000
    4.7530    3.7870    2.6640 C   0  0  0  0  0  0  0  0  0  0  0  0
    3.8690    3.0630    1.7620 N   0  0  0  0  0  0  0  0  0  0  0  0
    4.3920    2.3860    0.5870 C   0  0  0  0  0  0  0  0  0  0  0  0
    5.6280    2.4930    0.4500 O   0  0  0  0  0  0  0  0  0  0  0  0
    3.5000    1.6750   -0.2980 C   0  0  0  0  0  0  0  0  0  0  0  0
    2.2500    1.7050    0.0630 O   0  0  0  0  0  0  0  0  0  0  0  0
    3.8420    0.9650   -1.4950 C   0  0  0  0  0  0  0  0  0  0  0  0
    2.8810    0.3840   -2.2450 C   0  0  0  0  0  0  0  0  0  0  0  0
    1.4660    0.3860   -2.0000 C   0  0  0  0  0  0  0  0  0  0  0  0
    0.7270    1.5580   -1.9960 C   0  0  0  0  0  0  0  0  0  0  0  0
   -0.6270    1.5730   -1.7390 C   0  0  0  0  0  0  0  0  0  0  0  0
   -1.4050    2.8580   -1.7390 C   0  0  0  0  0  0  0  0  0  0  0  0
   -1.2180    0.3540   -1.4850 C   0  0  0  0  0  0  0  0  0  0  0  0
   -2.6690    0.2770   -1.1900 C   0  0  0  0  0  0  0  0  0  0  0  0
   -3.0100    0.7010    0.2090 C   0  0  0  0  0  0  0  0  0  0  0  0
   -4.4820    0.5900    0.4170 C   0  0  2  0  0  0  0  0  0  0  0  0
   -5.3110    1.4370   -0.5010 C   0  0  0  0  0  0  0  0  0  0  0  0
   -6.7180    1.1920   -0.1440 N   0  0  0  0  0  0  0  0  0  0  0  0
   -4.8920    0.9100    1.8470 C   0  0  0  0  0  0  0  0  0  0  0  0
   -4.2290   -0.0350    2.8270 C   0  0  0  0  0  0  0  0  0  0  0  0
   -4.6090   -1.4120    2.5410 N   0  0  0  0  0  0  0  0  0  0  0  0
   -0.4900   -0.7810   -1.4930 N   0  0  0  0  0  0  0  0  0  0  0  0
    0.8250   -0.8360   -1.7380 C   0  0  0  0  0  0  0  0  0  0  0  0
    1.5520   -2.0580   -1.7380 N   0  0  0  0  0  0  0  0  0  0  0  0
    1.6720   -2.7900   -3.0090 C   0  0  0  0  0  0  0  0  0  0  0  0
    2.1840   -2.6480   -0.6090 C   0  0  2  0  0  0  0  0  0  0  0  0
    1.5450   -4.0310   -0.4170 C   0  0  0  0  0  0  0  0  0  0  0  0
    2.1470   -4.4060    0.9350 C   0  0  0  0  0  0  0  0  0  0  0  0
    2.2990   -3.0930    1.6870 C   0  0  0  0  0  0  0  0  0  0  0  0
    1.8260   -2.0080    0.7070 C   0  0  0  0  0  0  0  0  0  0  0  0
    5.2180    0.8320   -1.9480 C   0  0  0  0  0  0  0  0  0  0  0  0
    5.4390    0.0780   -3.1850 N   0  0  0  0  0  0  0  0  0  0  0  0
    6.2270    1.2670   -1.4330 O   0  0  0  0  0  0  0  0  0  0  0  0
  1  2  1  0
  2  3  1  0
  3  4  2  0
  3  5  1  0
  5  6  2  0
  5  7  1  0
  7  8  2  3
  7 31  1  0
  8  9  1  0
  9 10  2  0
  9 23  1  0
 10 11  1  0
 11 12  1  0
 11 13  2  0
 13 14  1  0
 13 22  1  0
 14 15  1  0
 16 15  1  1
 16 17  1  0
 16 19  1  0
 17 18  1  0
 19 20  1  0
 20 21  1  0
 22 23  2  0
 23 24  1  0
 24 25  1  0
 26 24  1  6
 26 27  1  0
 26 30  1  0
 27 28  1  0
 28 29  1  0
 29 30  1  0
 31 32  1  0
 31 33  2  0
M  CHG  2  18   1  22   1
M  END
