
     RDKit          3D

 32 34  0  0  0  0  0  0  0  0999 V2000
    4.1580    1.1030   -0.9810 C   0  0  0  0  0  0  0  0  0  0  0  0
    3.8110   -0.3390   -0.6830 C   0  0  0  0  0  0  0  0  0  0  0  0
    3.0860   -0.5170    0.5390 N   0  0  0  0  0  0  0  0  0  0  0  0
    3.6970   -0.7420    1.7980 C   0  0  0  0  0  0  0  0  0  0  0  0
    5.1740   -0.8070    1.8500 C   0  0  0  0  0  0  0  0  0  0  0  0
    3.0600   -0.8890    2.8660 O   0  0  0  0  0  0  0  0  0  0  0  0
    1.6490   -0.4580    0.4570 C   0  0  0  0  0  0  0  0  0  0  0  0
    0.9380   -1.5760    0.0730 C   0  0  0  0  0  0  0  0  0  0  0  0
    1.6130   -2.8560   -0.2610 C   0  0  0  0  0  0  0  0  0  0  0  0
   -0.4380   -1.4770    0.0070 C   0  0  0  0  0  0  0  0  0  0  0  0
   -1.2290   -2.6580   -0.4010 C   0  0  0  0  0  0  0  0  0  0  0  0
   -1.5740   -2.9450   -1.7940 C   0  0  0  0  0  0  0  0  0  0  0  0
   -1.6110   -3.4380    0.5120 O   0  0  0  0  0  0  0  0  0  0  0  0
   -1.1050   -0.3090    0.3100 C   0  0  0  0  0  0  0  0  0  0  0  0
   -2.5630   -0.2070    0.2390 C   0  0  0  0  0  0  0  0  0  0  0  0
   -3.2480   -0.5200    1.3960 C   0  0  0  0  0  0  0  0  0  0  0  0
   -4.6210   -0.4670    1.4740 C   0  0  0  0  0  0  0  0  0  0  0  0
   -5.3150   -0.0900    0.3630 C   0  0  0  0  0  0  0  0  0  0  0  0
   -6.6800   -0.0280    0.4140 F   0  0  0  0  0  0  0  0  0  0  0  0
   -4.6460    0.2270   -0.8020 C   0  0  0  0  0  0  0  0  0  0  0  0
   -5.3920    0.5970   -1.8810 F   0  0  0  0  0  0  0  0  0  0  0  0
   -3.2670    0.1680   -0.8650 C   0  0  0  0  0  0  0  0  0  0  0  0
   -0.3470    0.7570    0.6810 N   0  0  0  0  0  0  0  0  0  0  0  0
   -1.0580    1.9420    0.9870 C   0  0  0  0  0  0  0  0  0  0  0  0
   -1.2960    2.8840    0.0960 C   0  0  0  0  0  0  0  0  0  0  0  0
   -2.0020    4.1460    0.2440 C   0  0  0  0  0  0  0  0  0  0  0  0
   -1.9950    4.7790   -0.9350 C   0  0  0  0  0  0  0  0  0  0  0  0
   -1.3160    4.0090   -1.8830 O   0  0  0  0  0  0  0  0  0  0  0  0
   -0.8720    2.8410   -1.2940 C   0  0  0  0  0  0  0  0  0  0  0  0
   -0.0370    1.6730   -2.0580 S   0  0  0  0  0  0  0  0  0  0  0  0
    0.9960    0.7170    0.7620 C   0  0  0  0  0  0  0  0  0  0  0  0
    1.6510    1.7580    1.1190 O   0  0  0  0  0  0  0  0  0  0  0  0
  1  2  1  0
  2  3  1  0
  3  4  1  0
  3  7  1  0
  4  5  1  0
  4  6  2  0
  7  8  2  0
  7 31  1  0
  8  9  1  0
  8 10  1  0
 10 11  1  0
 10 14  2  0
 11 12  1  0
 11 13  2  0
 14 15  1  0
 14 23  1  0
 15 16  2  0
 15 22  1  0
 16 17  1  0
 17 18  2  0
 18 19  1  0
 18 20  1  0
 20 21  1  0
 20 22  2  0
 23 24  1  0
 23 31  1  0
 24 25  2  3
 25 26  1  0
 25 29  1  0
 26 27  2  0
 27 28  1  0
 28 29  1  0
 29 30  2  0
 31 32  2  0
M  END
