
     RDKit          3D

 33 35  0  0  0  0  0  0  0  0999 V2000
   -0.8840   -3.6230    0.4760 C   0  0  0  0  0  0  0  0  0  0  0  0
   -0.8500   -2.2280    0.7700 O   0  0  0  0  0  0  0  0  0  0  0  0
    0.1040   -1.3780    0.2580 C   0  0  0  0  0  0  0  0  0  0  0  0
    0.9670   -1.9340   -0.5060 O   0  0  0  0  0  0  0  0  0  0  0  0
    0.2240    0.0680    0.4940 C   0  0  2  0  0  0  0  0  0  0  0  0
    0.2170    0.3690    1.9930 C   0  0  0  0  0  0  0  0  0  0  0  0
   -0.8710    0.8600   -0.1540 C   0  0  0  0  0  0  0  0  0  0  0  0
   -2.2240    0.5520    0.2840 C   0  0  0  0  0  0  0  0  0  0  0  0
   -2.4280   -0.2240    1.2420 O   0  0  0  0  0  0  0  0  0  0  0  0
   -3.3350    1.1270   -0.3770 N   0  0  0  0  0  0  0  0  0  0  0  0
   -4.6910    0.8420    0.0150 C   0  0  0  0  0  0  0  0  0  0  0  0
   -5.0780    1.2520    1.2100 C   0  0  0  0  0  0  0  0  0  0  0  0
   -6.6870    1.0200    1.9160 S   0  0  0  0  0  0  0  0  0  0  0  0
   -7.6460    0.1310    0.6840 C   0  0  0  0  0  0  0  0  0  0  0  0
   -6.8760   -0.1600   -0.5260 C   0  0  0  0  0  0  0  0  0  0  0  0
   -5.6440    0.1300   -0.8190 C   0  0  0  0  0  0  0  0  0  0  0  0
   -5.1140   -0.3590   -2.1540 C   0  0  0  0  0  0  0  0  0  0  0  0
   -3.1390    2.0640   -1.4580 C   0  0  2  0  0  0  0  0  0  0  0  0
   -4.3450    2.7070   -1.7640 F   0  0  0  0  0  0  0  0  0  0  0  0
   -2.5860    1.4430   -2.5400 F   0  0  0  0  0  0  0  0  0  0  0  0
   -2.2790    3.0980   -1.0280 F   0  0  0  0  0  0  0  0  0  0  0  0
    1.5290    0.5150   -0.1000 C   0  0  0  0  0  0  0  0  0  0  0  0
    1.4520    1.3460   -1.0590 O   0  0  0  0  0  0  0  0  0  0  0  0
    2.7570    0.0350    0.3820 N   0  0  0  0  0  0  0  0  0  0  0  0
    3.0790   -0.8550    1.4770 C   0  0  0  0  0  0  0  0  0  0  0  0
    4.2720   -1.6200    0.9260 C   0  0  0  0  0  0  0  0  0  0  0  0
    4.9450   -0.5720    0.1100 C   0  0  0  0  0  0  0  0  0  0  0  0
    6.2450   -0.4280   -0.3520 C   0  0  0  0  0  0  0  0  0  0  0  0
    6.6850    0.6290   -1.1040 C   0  0  0  0  0  0  0  0  0  0  0  0
    8.0920    0.7230   -1.5710 C   0  0  0  0  0  0  0  0  0  0  0  0
    5.7420    1.6070   -1.4090 C   0  0  0  0  0  0  0  0  0  0  0  0
    4.4330    1.4830   -0.9570 C   0  0  0  0  0  0  0  0  0  0  0  0
    4.0300    0.3990   -0.2000 C   0  0  0  0  0  0  0  0  0  0  0  0
  1  2  1  0
  2  3  1  0
  3  4  2  0
  3  5  1  0
  5  6  1  1
  5  7  1  0
  5 22  1  0
  7  8  1  0
  8  9  2  0
  8 10  1  0
 10 11  1  0
 10 18  1  0
 11 12  2  0
 11 16  1  0
 12 13  1  0
 13 14  1  0
 14 15  1  0
 15 16  2  0
 16 17  1  0
 18 19  1  6
 18 20  1  0
 18 21  1  0
 22 23  2  0
 22 24  1  0
 24 25  1  0
 24 33  1  0
 25 26  1  0
 26 27  1  0
 27 28  2  0
 27 33  1  0
 28 29  1  0
 29 30  1  0
 29 31  2  0
 31 32  1  0
 32 33  2  0
M  END
