
     RDKit          3D

 33 34  0  0  0  0  0  0  0  0999 V2000
   -8.3210    1.2140    1.4650 C   0  0  0  0  0  0  0  0  0  0  0  0
   -8.1420    0.2400    0.3560 C   0  0  0  0  0  0  0  0  0  0  0  0
   -9.0590    0.1510   -0.6900 C   0  0  0  0  0  0  0  0  0  0  0  0
   -8.8950   -0.7520   -1.7200 C   0  0  0  0  0  0  0  0  0  0  0  0
   -7.7820   -1.5650   -1.6730 C   0  0  0  0  0  0  0  0  0  0  0  0
   -6.8610   -1.4860   -0.6390 C   0  0  0  0  0  0  0  0  0  0  0  0
   -5.7270   -2.3350   -0.6180 N   0  0  0  0  0  0  0  0  0  0  0  0
   -7.0320   -0.5790    0.3900 C   0  0  0  0  0  0  0  0  0  0  0  0
   -6.0590   -0.5390    1.4260 N   0  0  0  0  0  0  0  0  0  0  0  0
   -4.9160    0.3020    1.3630 C   0  0  0  0  0  0  0  0  0  0  0  0
   -4.8080    1.0220    0.3250 O   0  0  0  0  0  0  0  0  0  0  0  0
   -3.8980    0.3440    2.4460 C   0  0  0  0  0  0  0  0  0  0  0  0
   -2.7950    1.3060    2.1510 C   0  0  0  0  0  0  0  0  0  0  0  0
   -2.0370    1.0270    0.9320 C   0  0  0  0  0  0  0  0  0  0  0  0
   -1.2320    0.0270    0.8920 N   0  0  0  0  0  0  0  0  0  0  0  0
   -0.4710   -0.3090   -0.2320 N   0  0  0  0  0  0  0  0  0  0  0  0
   -1.1180   -1.0570   -1.2900 C   0  0  0  0  0  0  0  0  0  0  0  0
   -1.6340   -2.3920   -0.7810 C   0  0  0  0  0  0  0  0  0  0  0  0
   -0.5080   -3.1540   -0.2760 N   0  0  0  0  0  0  0  0  0  0  0  0
    0.8900    0.0910   -0.2970 C   0  0  0  0  0  0  0  0  0  0  0  0
    1.9390   -0.6660    0.1500 C   0  0  0  0  0  0  0  0  0  0  0  0
    3.2720   -0.2220    0.0630 C   0  0  0  0  0  0  0  0  0  0  0  0
    3.5790    0.9890   -0.4730 C   0  0  0  0  0  0  0  0  0  0  0  0
    4.8240    1.5050   -0.6020 O   0  0  0  0  0  0  0  0  0  0  0  0
    6.0290    0.8120   -0.1740 C   0  0  2  0  0  0  0  0  0  0  0  0
    6.5150    1.7510    0.9490 C   0  0  0  0  0  0  0  0  0  0  0  0
    6.8610    2.9840    0.4450 O   0  0  0  0  0  0  0  0  0  0  0  0
    6.9130    0.8120   -1.3630 C   0  0  0  0  0  0  0  0  0  0  0  0
    8.2030    0.1860   -1.4700 C   0  0  0  0  0  0  0  0  0  0  0  0
    9.3770    0.4890   -0.6450 C   0  0  0  0  0  0  0  0  0  0  0  0
    9.3330    0.1950    0.7540 N   0  0  0  0  0  0  0  0  0  0  0  0
    2.5000    1.7730   -0.9360 C   0  0  0  0  0  0  0  0  0  0  0  0
    1.2160    1.3220   -0.8420 C   0  0  0  0  0  0  0  0  0  0  0  0
  1  2  1  0
  2  3  2  0
  2  8  1  0
  3  4  1  0
  4  5  2  0
  5  6  1  0
  6  7  1  0
  6  8  2  0
  8  9  1  0
  9 10  1  0
 10 11  2  0
 10 12  1  0
 12 13  1  0
 13 14  1  0
 14 15  2  3
 15 16  1  0
 16 17  1  0
 16 20  1  0
 17 18  1  0
 18 19  1  0
 20 21  2  0
 20 33  1  0
 21 22  1  0
 22 23  2  0
 23 24  1  0
 23 32  1  0
 24 25  1  0
 25 26  1  1
 25 28  1  0
 26 27  1  0
 28 29  1  0
 29 30  1  0
 30 31  1  0
 32 33  2  0
M  CHG  2  19   1  31   1
M  END
