
     RDKit          3D

 33 35  0  0  0  0  0  0  0  0999 V2000
   -2.9250   -1.7410   -0.0480 C   0  0  0  0  0  0  0  0  0  0  0  0
   -2.0090   -1.1690    0.9610 C   0  0  0  0  0  0  0  0  0  0  0  0
   -2.3450   -0.0850    1.6070 C   0  0  0  0  0  0  0  0  0  0  0  0
   -3.6170    0.6100    1.3770 C   0  0  0  0  0  0  0  0  0  0  0  0
   -3.9260    1.6530    2.0080 O   0  0  0  0  0  0  0  0  0  0  0  0
   -4.5160    0.1410    0.4620 O   0  0  0  0  0  0  0  0  0  0  0  0
   -5.7410    0.6800    0.1420 C   0  0  0  0  0  0  0  0  0  0  0  0
   -6.8670    0.2650    0.8240 C   0  0  0  0  0  0  0  0  0  0  0  0
   -8.1290    0.7830    0.5330 C   0  0  0  0  0  0  0  0  0  0  0  0
   -9.2260    0.3600    1.2180 F   0  0  0  0  0  0  0  0  0  0  0  0
   -8.2780    1.7310   -0.4530 C   0  0  0  0  0  0  0  0  0  0  0  0
   -7.1500    2.1400   -1.1300 C   0  0  0  0  0  0  0  0  0  0  0  0
   -5.8840    1.6210   -0.8390 C   0  0  0  0  0  0  0  0  0  0  0  0
   -4.6950    2.0910   -1.5910 C   0  0  0  0  0  0  0  0  0  0  0  0
   -0.7820   -1.8030    1.2180 N   0  0  0  0  0  0  0  0  0  0  0  0
    0.3420   -1.2180    1.0080 C   0  0  0  0  0  0  0  0  0  0  0  0
    1.5910   -1.9040    1.2840 N   0  0  0  0  0  0  0  0  0  0  0  0
    1.6000   -3.2310    1.7940 C   0  0  0  0  0  0  0  0  0  0  0  0
    0.6330   -4.0560    1.8270 O   0  0  0  0  0  0  0  0  0  0  0  0
    3.2880   -3.4690    2.3780 S   0  0  0  0  0  0  0  0  0  0  0  0
    3.9820   -2.1530    1.3870 C   0  0  0  0  0  0  0  0  0  0  0  0
    5.2330   -2.0100    1.0820 C   0  0  0  0  0  0  0  0  0  0  0  0
    5.8490   -0.9800    0.2890 C   0  0  0  0  0  0  0  0  0  0  0  0
    5.3280   -0.6520   -0.9350 C   0  0  0  0  0  0  0  0  0  0  0  0
    5.8710    0.3540   -1.7240 C   0  0  0  0  0  0  0  0  0  0  0  0
    6.9720    1.0170   -1.2190 C   0  0  0  0  0  0  0  0  0  0  0  0
    7.5940    2.1030   -2.0160 C   0  0  1  0  0  0  0  0  0  0  0  0
    8.0140    1.5600   -3.2130 F   0  0  0  0  0  0  0  0  0  0  0  0
    6.6760    3.0970   -2.2570 F   0  0  0  0  0  0  0  0  0  0  0  0
    7.5110    0.7020    0.0080 C   0  0  0  0  0  0  0  0  0  0  0  0
    6.9420   -0.3050    0.7640 C   0  0  0  0  0  0  0  0  0  0  0  0
    2.8490   -1.3290    1.0680 C   0  0  0  0  0  0  0  0  0  0  0  0
    2.9990   -0.1340    0.6140 O   0  0  0  0  0  0  0  0  0  0  0  0
  1  2  1  0
  2  3  2  3
  2 15  1  0
  3  4  1  0
  4  5  2  0
  4  6  1  0
  6  7  1  0
  7  8  2  0
  7 13  1  0
  8  9  1  0
  9 10  1  0
  9 11  2  0
 11 12  1  0
 12 13  2  0
 13 14  1  0
 15 16  2  3
 16 17  1  0
 17 18  1  0
 17 32  1  0
 18 19  2  0
 18 20  1  0
 20 21  1  0
 21 22  2  3
 21 32  1  0
 22 23  1  0
 23 24  2  0
 23 31  1  0
 24 25  1  0
 25 26  2  0
 26 27  1  0
 26 30  1  0
 27 28  1  6
 27 29  1  0
 30 31  2  0
 32 33  2  0
M  END
