
     RDKit          3D

 32 36  0  0  0  0  0  0  0  0999 V2000
   -3.1820   -4.1960   -0.0400 C   0  0  0  0  0  0  0  0  0  0  0  0
   -2.3330   -3.3650   -0.9070 C   0  0  0  0  0  0  0  0  0  0  0  0
   -1.8850   -3.6410   -2.1740 N   0  0  0  0  0  0  0  0  0  0  0  0
   -1.1860   -2.5870   -2.6470 N   0  0  0  0  0  0  0  0  0  0  0  0
   -1.1640   -1.6390   -1.7330 C   0  0  0  0  0  0  0  0  0  0  0  0
   -1.8710   -2.1400   -0.6750 N   0  0  0  0  0  0  0  0  0  0  0  0
   -2.0710   -1.4360    0.5400 C   0  0  0  0  0  0  0  0  0  0  0  0
   -2.0410   -2.2740    1.6110 C   0  0  0  0  0  0  0  0  0  0  0  0
   -2.1850   -1.6540    2.8610 C   0  0  0  0  0  0  0  0  0  0  0  0
   -2.3420   -0.2740    2.9640 C   0  0  0  0  0  0  0  0  0  0  0  0
   -2.3610    0.5270    1.8530 C   0  0  0  0  0  0  0  0  0  0  0  0
   -2.2290   -0.0600    0.6310 C   0  0  0  0  0  0  0  0  0  0  0  0
   -2.2680    0.9050   -0.4600 C   0  0  0  0  0  0  0  0  0  0  0  0
   -3.1120    2.0590   -0.3660 C   0  0  0  0  0  0  0  0  0  0  0  0
   -2.9450    3.0550   -1.3320 C   0  0  0  0  0  0  0  0  0  0  0  0
   -3.7810    4.1360   -1.4080 C   0  0  0  0  0  0  0  0  0  0  0  0
   -4.8210    4.2580   -0.5120 C   0  0  0  0  0  0  0  0  0  0  0  0
   -5.0270    3.3040    0.4550 C   0  0  0  0  0  0  0  0  0  0  0  0
   -4.1480    2.2260    0.4840 C   0  0  0  0  0  0  0  0  0  0  0  0
   -1.5040    0.7520   -1.5220 N   0  0  0  0  0  0  0  0  0  0  0  0
   -0.5350   -0.2970   -1.8660 C   0  0  1  0  0  0  0  0  0  0  0  0
    0.6360   -0.2680   -1.0180 N   0  0  0  0  0  0  0  0  0  0  0  0
    1.9470   -0.0720   -1.5030 C   0  0  0  0  0  0  0  0  0  0  0  0
    2.0760    0.0840   -2.7540 O   0  0  0  0  0  0  0  0  0  0  0  0
    3.0770   -0.0370   -0.7400 O   0  0  0  0  0  0  0  0  0  0  0  0
    4.3830    0.1650   -1.2800 C   0  0  0  0  0  0  0  0  0  0  0  0
    5.4170    0.1580   -0.2440 C   0  0  0  0  0  0  0  0  0  0  0  0
    6.7320    0.3410   -0.6090 C   0  0  0  0  0  0  0  0  0  0  0  0
    7.7430    0.3430    0.3240 C   0  0  0  0  0  0  0  0  0  0  0  0
    7.4800    0.1630    1.6610 C   0  0  0  0  0  0  0  0  0  0  0  0
    6.1690   -0.0210    2.0430 C   0  0  0  0  0  0  0  0  0  0  0  0
    5.1460   -0.0220    1.0880 C   0  0  0  0  0  0  0  0  0  0  0  0
  1  2  1  0
  2  3  2  0
  2  6  1  0
  3  4  1  0
  4  5  2  0
  5  6  1  0
  5 21  1  0
  6  7  1  0
  7  8  2  0
  7 12  1  0
  8  9  1  0
  9 10  2  0
 10 11  1  0
 11 12  2  0
 12 13  1  0
 13 14  1  0
 13 20  2  0
 14 15  2  0
 14 19  1  0
 15 16  1  0
 16 17  2  0
 17 18  1  0
 18 19  2  0
 20 21  1  0
 21 22  1  1
 22 23  1  0
 23 24  2  0
 23 25  1  0
 25 26  1  0
 26 27  1  0
 27 28  2  0
 27 32  1  0
 28 29  1  0
 29 30  2  0
 30 31  1  0
 31 32  2  0
M  END
