
     RDKit          3D

  8  7  0  0  0  0  0  0  0  0999 V2000
    2.6670   -0.7130    0.0670 C   0  0  0  0  0  0  0  0  0  0  0  0
    1.3900   -0.5520   -0.4350 O   0  0  0  0  0  0  0  0  0  0  0  0
    0.8810    0.7240   -0.1800 C   0  0  0  0  0  0  0  0  0  0  0  0
   -0.5050    0.7710   -0.7730 C   0  0  2  0  0  0  0  0  0  0  0  0
   -1.0780    2.0020   -0.5640 O   0  0  0  0  0  0  0  0  0  0  0  0
   -1.3140   -0.3410   -0.1270 C   0  0  0  0  0  0  0  0  0  0  0  0
   -2.6120   -0.3790   -0.6550 O   0  0  0  0  0  0  0  0  0  0  0  0
   -3.2490   -1.3580   -0.0540 O   0  0  0  0  0  0  0  0  0  0  0  0
  1  2  1  0
  2  3  1  0
  3  4  1  0
  4  5  1  1
  4  6  1  0
  6  7  1  0
  7  8  1  0
M  END
