
     RDKit          3D

  9  8  0  0  0  0  0  0  0  0999 V2000
    2.9010   -0.3880    1.1620 O   0  0  0  0  0  0  0  0  0  0  0  0
    1.9790   -0.4500    0.1030 C   0  0  0  0  0  0  0  0  0  0  0  0
    0.7730    0.0380    0.5980 O   0  0  0  0  0  0  0  0  0  0  0  0
   -0.2230    0.0240   -0.3740 C   0  0  2  0  0  0  0  0  0  0  0  0
   -0.6420    1.4430   -0.6570 C   0  0  0  0  0  0  0  0  0  0  0  0
   -1.1370    2.0950    0.4450 O   0  0  0  0  0  0  0  0  0  0  0  0
   -1.3510   -0.8670    0.0250 C   0  0  1  0  0  0  0  0  0  0  0  0
   -0.8120   -2.1570    0.1830 O   0  0  0  0  0  0  0  0  0  0  0  0
   -1.9910   -0.4920    1.1820 O   0  0  0  0  0  0  0  0  0  0  0  0
  1  2  1  0
  2  3  1  0
  3  4  1  0
  4  5  1  1
  4  7  1  0
  5  6  1  0
  7  8  1  1
  7  9  1  0
M  END
