
     RDKit          3D

  7  7  0  0  0  0  0  0  0  0999 V2000
    2.5720    0.0680   -0.1880 C   0  0  0  0  0  0  0  0  0  0  0  0
    1.4630    0.8460   -0.5680 O   0  0  0  0  0  0  0  0  0  0  0  0
    0.1720    0.4070   -0.2430 C   0  0  0  0  0  0  0  0  0  0  0  0
   -0.9080    1.1690   -0.1830 C   0  0  0  0  0  0  0  0  0  0  0  0
   -2.0880    0.3550    0.1910 C   0  0  0  0  0  0  0  0  0  0  0  0
   -1.5340   -1.0010    0.3420 C   0  0  0  0  0  0  0  0  0  0  0  0
   -0.2410   -0.9380    0.0870 C   0  0  0  0  0  0  0  0  0  0  0  0
  1  2  1  0
  2  3  1  0
  3  4  2  0
  3  7  1  0
  4  5  1  0
  5  6  1  0
  6  7  2  0
M  END
