
     RDKit          3D

  8  7  0  0  0  0  0  0  0  0999 V2000
   -2.7540    0.3370    0.2290 C   0  0  0  0  0  0  0  0  0  0  0  0
   -1.6610   -0.4690    0.4920 O   0  0  0  0  0  0  0  0  0  0  0  0
   -0.5630   -0.1650   -0.3020 C   0  0  2  0  0  0  0  0  0  0  0  0
   -0.2750   -1.3430   -1.0310 O   0  0  0  0  0  0  0  0  0  0  0  0
    0.6230    0.0490    0.6160 C   0  0  0  0  0  0  0  0  0  0  0  0
    1.8670    0.3890   -0.2070 C   0  0  1  0  0  0  0  0  0  0  0  0
    2.9280    0.5760    0.6740 O   0  0  0  0  0  0  0  0  0  0  0  0
    2.1420   -0.6990   -1.0270 O   0  0  0  0  0  0  0  0  0  0  0  0
  1  2  1  0
  2  3  1  0
  3  4  1  6
  3  5  1  0
  5  6  1  0
  6  7  1  1
  6  8  1  0
M  END
