
     RDKit          3D

  8  7  0  0  0  0  0  0  0  0999 V2000
   -3.0850   -0.3120   -1.3970 O   0  0  0  0  0  0  0  0  0  0  0  0
   -2.3450   -0.1000   -0.2360 C   0  0  0  0  0  0  0  0  0  0  0  0
   -0.9970   -0.4020   -0.4610 O   0  0  0  0  0  0  0  0  0  0  0  0
   -0.3340   -0.1640    0.7440 C   0  0  0  0  0  0  0  0  0  0  0  0
    1.1470   -0.4550    0.6340 C   0  0  0  0  0  0  0  0  0  0  0  0
    1.8140    0.3970   -0.4100 C   0  0  2  0  0  0  0  0  0  0  0  0
    3.1670    0.0630   -0.4410 O   0  0  0  0  0  0  0  0  0  0  0  0
    1.7070    1.7540   -0.0710 O   0  0  0  0  0  0  0  0  0  0  0  0
  1  2  1  0
  2  3  1  0
  3  4  1  0
  4  5  1  0
  5  6  1  0
  6  7  1  1
  6  8  1  0
M  END
