
     RDKit          3D

 30 33  0  0  0  0  0  0  0  0999 V2000
    0.5110   -5.3280    0.0250 C   0  0  0  0  0  0  0  0  0  0  0  0
    0.8590   -3.8730   -0.0760 C   0  0  0  0  0  0  0  0  0  0  0  0
    2.1850   -3.5310   -0.1830 C   0  0  0  0  0  0  0  0  0  0  0  0
    2.4910   -2.1640   -0.2770 C   0  0  0  0  0  0  0  0  0  0  0  0
    1.5330   -1.1780   -0.2660 C   0  0  0  0  0  0  0  0  0  0  0  0
    1.8540    0.1570   -0.3590 C   0  0  0  0  0  0  0  0  0  0  0  0
    3.0130    0.6180   -0.4610 N   0  0  0  0  0  0  0  0  0  0  0  0
    4.2690    0.2060   -0.5240 N   0  0  0  0  0  0  0  0  0  0  0  0
    5.2710    0.1900    0.8890 S   0  0  1  0  0  0  0  0  0  0  0  0
    4.4280    0.0590    2.1260 O   0  0  0  0  0  0  0  0  0  0  0  0
    6.2420   -0.9360    0.7610 O   0  0  0  0  0  0  0  0  0  0  0  0
    6.0760    1.7540    0.9520 C   0  0  0  0  0  0  0  0  0  0  0  0
    5.6590    2.9080    1.5610 C   0  0  0  0  0  0  0  0  0  0  0  0
    6.6010    3.8420    1.3420 N   0  0  0  0  0  0  0  0  0  0  0  0
    7.5890    3.3580    0.6340 N   0  0  0  0  0  0  0  0  0  0  0  0
    7.3090    2.0710    0.3700 C   0  0  0  0  0  0  0  0  0  0  0  0
    0.7920    1.0510   -0.3350 N   0  0  0  0  0  0  0  0  0  0  0  0
   -0.4750    0.6840   -0.2310 C   0  0  0  0  0  0  0  0  0  0  0  0
   -1.5850    1.6910   -0.2100 C   0  0  0  0  0  0  0  0  0  0  0  0
   -2.8700    1.0460   -0.0970 N   0  0  0  0  0  0  0  0  0  0  0  0
   -3.8720    2.0960   -0.0850 C   0  0  0  0  0  0  0  0  0  0  0  0
   -5.2420    1.4880    0.0330 C   0  0  0  0  0  0  0  0  0  0  0  0
   -5.4330    0.1250    0.1230 C   0  0  0  0  0  0  0  0  0  0  0  0
   -6.6940   -0.4430    0.2310 C   0  0  0  0  0  0  0  0  0  0  0  0
   -7.8020    0.3590    0.2510 C   0  0  0  0  0  0  0  0  0  0  0  0
   -7.6330    1.7110    0.1630 C   0  0  0  0  0  0  0  0  0  0  0  0
   -6.3720    2.2750    0.0550 C   0  0  0  0  0  0  0  0  0  0  0  0
   -0.7480   -0.6200   -0.1420 N   0  0  0  0  0  0  0  0  0  0  0  0
    0.2060   -1.5710   -0.1550 C   0  0  0  0  0  0  0  0  0  0  0  0
   -0.1150   -2.9070   -0.0620 C   0  0  0  0  0  0  0  0  0  0  0  0
  1  2  1  0
  2  3  2  0
  2 30  1  0
  3  4  1  0
  4  5  2  0
  5  6  1  0
  5 29  1  0
  6  7  2  3
  6 17  1  0
  7  8  1  0
  9  8  1  6
  9 10  2  0
  9 11  2  0
  9 12  1  0
 12 13  1  0
 12 16  2  0
 13 14  2  0
 14 15  1  0
 15 16  1  0
 17 18  2  0
 18 19  1  0
 18 28  1  0
 19 20  1  0
 20 21  1  0
 21 22  1  0
 22 23  2  0
 22 27  1  0
 23 24  1  0
 24 25  2  0
 25 26  1  0
 26 27  2  0
 28 29  1  0
 29 30  2  0
M  END
