
     RDKit          3D

 29 30  0  0  0  0  0  0  0  0999 V2000
   -5.7030    1.4640    2.1640 C   0  0  0  0  0  0  0  0  0  0  0  0
   -4.6310    0.7580    1.4270 C   0  0  0  0  0  0  0  0  0  0  0  0
   -3.0830    1.4640    0.9090 S   0  0  0  0  0  0  0  0  0  0  0  0
   -2.4670   -0.0510    0.1400 C   0  0  0  0  0  0  0  0  0  0  0  0
   -1.1790   -0.1250   -0.4930 N   0  0  0  0  0  0  0  0  0  0  0  0
    0.0090    0.0210    0.3270 C   0  0  0  0  0  0  0  0  0  0  0  0
    1.0510    0.8900   -0.2850 C   0  0  1  0  0  0  0  0  0  0  0  0
    2.4080    0.3210   -0.1830 N   0  0  0  0  0  0  0  0  0  0  0  0
    3.4890    1.0330    0.3530 C   0  0  0  0  0  0  0  0  0  0  0  0
    3.1600    2.2210    0.7330 O   0  0  0  0  0  0  0  0  0  0  0  0
    4.8620    0.6190    0.5260 C   0  0  0  0  0  0  0  0  0  0  0  0
    5.7870    1.6090    1.1180 C   0  0  0  0  0  0  0  0  0  0  0  0
    5.5320    2.8030    1.4780 C   0  0  0  0  0  0  0  0  0  0  0  0
    6.5900    3.5790    2.0290 F   0  0  0  0  0  0  0  0  0  0  0  0
    5.4060   -0.5410    0.2460 C   0  0  0  0  0  0  0  0  0  0  0  0
    4.9190   -1.7910   -0.3030 C   0  0  2  0  0  0  0  0  0  0  0  0
    5.9870   -2.7410   -0.3600 F   0  0  0  0  0  0  0  0  0  0  0  0
    4.4540   -1.7500   -1.5900 F   0  0  0  0  0  0  0  0  0  0  0  0
    3.9620   -2.3320    0.5620 F   0  0  0  0  0  0  0  0  0  0  0  0
    0.8580    1.1720   -1.7590 C   0  0  0  0  0  0  0  0  0  0  0  0
    0.3850   -0.1370   -2.4140 C   0  0  0  0  0  0  0  0  0  0  0  0
   -0.9940   -0.3190   -1.8820 C   0  0  0  0  0  0  0  0  0  0  0  0
   -1.9050   -0.6280   -2.6680 O   0  0  0  0  0  0  0  0  0  0  0  0
   -3.4620   -0.9450    0.3370 C   0  0  0  0  0  0  0  0  0  0  0  0
   -3.3240   -2.3440   -0.1620 C   0  0  0  0  0  0  0  0  0  0  0  0
   -2.8080   -3.2420    0.5570 O   0  0  0  0  0  0  0  0  0  0  0  0
   -3.7490   -2.7300   -1.4180 O   0  0  0  0  0  0  0  0  0  0  0  0
   -4.5680   -0.5360    0.9920 C   0  0  0  0  0  0  0  0  0  0  0  0
   -5.7700   -1.4530    1.2710 C   0  0  0  0  0  0  0  0  0  0  0  0
  1  2  1  0
  2  3  1  0
  2 28  2  0
  3  4  1  0
  4  5  1  0
  4 24  2  0
  5  6  1  0
  5 22  1  0
  6  7  1  0
  7  8  1  6
  7 20  1  0
  8  9  1  0
  9 10  2  0
  9 11  1  0
 11 12  1  0
 11 15  2  3
 12 13  2  3
 13 14  1  0
 15 16  1  0
 16 17  1  6
 16 18  1  0
 16 19  1  0
 20 21  1  0
 21 22  1  0
 22 23  2  0
 24 25  1  0
 24 28  1  0
 25 26  2  0
 25 27  1  0
 28 29  1  0
M  END
