
     RDKit          3D

 30 33  0  0  0  0  0  0  0  0999 V2000
    7.0490   -1.3170   -0.1130 C   0  0  0  0  0  0  0  0  0  0  0  0
    6.8330   -1.8130    1.3010 C   0  0  0  0  0  0  0  0  0  0  0  0
    5.3310   -1.8120    1.5420 C   0  0  0  0  0  0  0  0  0  0  0  0
    4.7220   -2.7390    0.5210 C   0  0  0  0  0  0  0  0  0  0  0  0
    3.3040   -2.8530    0.6110 N   0  0  0  0  0  0  0  0  0  0  0  0
    2.4130   -1.7570    0.4660 C   0  0  0  0  0  0  0  0  0  0  0  0
    2.9370   -0.6320    0.2460 O   0  0  0  0  0  0  0  0  0  0  0  0
    1.0180   -1.8570    0.5520 N   0  0  0  0  0  0  0  0  0  0  0  0
    0.1440   -0.7330    0.4010 C   0  0  0  0  0  0  0  0  0  0  0  0
   -1.1820   -0.8730    0.4910 N   0  0  0  0  0  0  0  0  0  0  0  0
   -2.0750    0.1440    0.3600 C   0  0  0  0  0  0  0  0  0  0  0  0
   -3.4570   -0.0740    0.4660 N   0  0  0  0  0  0  0  0  0  0  0  0
   -3.9310   -1.4270    0.7220 C   0  0  1  0  0  0  0  0  0  0  0  0
   -5.3880   -1.5140    0.8090 C   0  0  0  0  0  0  0  0  0  0  0  0
   -5.7950   -2.2570   -0.1330 N   0  0  0  0  0  0  0  0  0  0  0  0
   -4.7470   -2.7380   -0.9270 C   0  0  0  0  0  0  0  0  0  0  0  0
   -4.8970   -3.6050   -2.0720 N   0  0  0  0  0  0  0  0  0  0  0  0
   -5.8670   -3.1540   -3.4520 S   0  0  0  0  0  0  0  0  0  0  0  0
   -4.9670   -2.4000   -4.4230 O   0  0  0  0  0  0  0  0  0  0  0  0
   -3.6050   -2.2690   -0.4560 C   0  0  0  0  0  0  0  0  0  0  0  0
   -1.6020    1.4140    0.1180 C   0  0  0  0  0  0  0  0  0  0  0  0
   -2.4040    2.5220   -0.0340 C   0  0  0  0  0  0  0  0  0  0  0  0
   -1.8370    3.7600   -0.2750 C   0  0  0  0  0  0  0  0  0  0  0  0
   -0.4750    3.9150   -0.3690 C   0  0  0  0  0  0  0  0  0  0  0  0
    0.3280    2.8020   -0.2170 C   0  0  0  0  0  0  0  0  0  0  0  0
   -0.2250    1.5710    0.0230 C   0  0  0  0  0  0  0  0  0  0  0  0
    0.6140    0.4990    0.1660 N   0  0  0  0  0  0  0  0  0  0  0  0
   -0.1880    5.3600   -0.6260 C   0  0  0  0  0  0  0  0  0  0  0  0
   -1.4430    5.8190   -1.3200 C   0  0  0  0  0  0  0  0  0  0  0  0
   -2.5030    5.0990   -0.4790 C   0  0  0  0  0  0  0  0  0  0  0  0
  1  2  1  0
  2  3  1  0
  3  4  1  0
  4  5  1  0
  5  6  1  0
  6  7  2  0
  6  8  1  0
  8  9  1  0
  9 10  2  0
  9 27  1  0
 10 11  1  0
 11 12  1  0
 11 21  2  0
 13 12  1  6
 13 14  1  0
 13 20  1  0
 14 15  2  0
 15 16  1  0
 16 17  1  0
 16 20  2  0
 17 18  1  0
 18 19  2  0
 21 22  1  0
 21 26  1  0
 22 23  2  0
 23 24  1  0
 23 30  1  0
 24 25  2  0
 24 28  1  0
 25 26  1  0
 26 27  2  0
 28 29  1  0
 29 30  1  0
M  END
