
     RDKit          3D

 29 32  0  0  0  0  0  0  0  0999 V2000
   -2.9310   -2.8880   -1.5160 C   0  0  0  0  0  0  0  0  0  0  0  0
   -2.8120   -1.7070   -0.7140 N   0  0  0  0  0  0  0  0  0  0  0  0
   -1.6980   -1.8970    0.2210 C   0  0  2  0  0  0  0  0  0  0  0  0
   -2.0930   -3.0840    1.1050 C   0  0  0  0  0  0  0  0  0  0  0  0
   -1.5560   -0.7190    1.1400 C   0  0  0  0  0  0  0  0  0  0  0  0
   -1.2910    0.5620    0.4690 C   0  0  0  0  0  0  0  0  0  0  0  0
   -0.1550    1.0960   -0.0660 C   0  0  0  0  0  0  0  0  0  0  0  0
    1.2000    0.5640   -0.1240 C   0  0  0  0  0  0  0  0  0  0  0  0
    2.0650    1.2950   -0.7050 O   0  0  0  0  0  0  0  0  0  0  0  0
    1.6540   -0.6610    0.3890 N   0  0  0  0  0  0  0  0  0  0  0  0
    2.9790   -1.1580    0.3290 C   0  0  0  0  0  0  0  0  0  0  0  0
    3.1960   -2.5090    0.6490 C   0  0  0  0  0  0  0  0  0  0  0  0
    4.4390   -3.0910    0.6400 C   0  0  0  0  0  0  0  0  0  0  0  0
    5.5320   -2.3190    0.3030 C   0  0  0  0  0  0  0  0  0  0  0  0
    6.8290   -2.5900    0.2080 O   0  0  0  0  0  0  0  0  0  0  0  0
    7.4740   -1.5160   -0.1500 N   0  0  0  0  0  0  0  0  0  0  0  0
    6.6380   -0.4830   -0.3100 C   0  0  0  0  0  0  0  0  0  0  0  0
    6.9430    0.9130   -0.7070 C   0  0  0  0  0  0  0  0  0  0  0  0
    5.3850   -0.9950   -0.0190 C   0  0  0  0  0  0  0  0  0  0  0  0
    4.1070   -0.4570    0.0050 C   0  0  0  0  0  0  0  0  0  0  0  0
   -0.4520    2.3270   -0.5940 N   0  0  0  0  0  0  0  0  0  0  0  0
   -1.7420    2.5870   -0.4090 C   0  0  0  0  0  0  0  0  0  0  0  0
   -2.4880    3.6980   -0.7700 C   0  0  0  0  0  0  0  0  0  0  0  0
   -3.8330    3.6940   -0.4440 C   0  0  0  0  0  0  0  0  0  0  0  0
   -4.5910    4.8510   -0.8250 N   0  0  0  0  0  0  0  0  0  0  0  0
   -4.4130    2.6390    0.2120 C   0  0  0  0  0  0  0  0  0  0  0  0
   -5.8570    2.6580    0.5510 C   0  0  0  0  0  0  0  0  0  0  0  0
   -3.6410    1.5420    0.5600 C   0  0  0  0  0  0  0  0  0  0  0  0
   -2.2980    1.5240    0.2450 C   0  0  0  0  0  0  0  0  0  0  0  0
  1  2  1  0
  2  3  1  0
  3  4  1  1
  3  5  1  0
  5  6  1  0
  6  7  2  0
  6 29  1  0
  7  8  1  0
  7 21  1  0
  8  9  2  0
  8 10  1  0
 10 11  1  0
 11 12  2  0
 11 20  1  0
 12 13  1  0
 13 14  2  0
 14 15  1  0
 14 19  1  0
 15 16  1  0
 16 17  2  0
 17 18  1  0
 17 19  1  0
 19 20  2  0
 21 22  1  0
 22 23  2  0
 22 29  1  0
 23 24  1  0
 24 25  1  0
 24 26  2  0
 26 27  1  0
 26 28  1  0
 28 29  2  0
M  CHG  1  16   1
M  END
