
     RDKit          3D

 29 32  0  0  0  0  0  0  0  0999 V2000
   -7.9790   -0.2800   -0.9580 N   0  0  0  0  0  0  0  0  0  0  0  0
   -6.8540   -0.3300   -0.0690 C   0  0  0  0  0  0  0  0  0  0  0  0
   -7.1390    0.0150    1.1760 C   0  0  0  0  0  0  0  0  0  0  0  0
   -6.3870    0.1310    2.4260 C   0  0  0  0  0  0  0  0  0  0  0  0
   -5.0750    0.2570    2.6740 C   0  0  0  0  0  0  0  0  0  0  0  0
   -3.8960    0.3250    1.8240 C   0  0  0  0  0  0  0  0  0  0  0  0
   -3.6000   -0.0220    0.5900 C   0  0  0  0  0  0  0  0  0  0  0  0
   -4.3200   -0.6510   -0.5250 C   0  0  0  0  0  0  0  0  0  0  0  0
   -5.6430   -0.7590   -0.7620 C   0  0  0  0  0  0  0  0  0  0  0  0
   -3.3450   -1.2280   -1.4660 C   0  0  0  0  0  0  0  0  0  0  0  0
   -1.9920   -0.7520   -1.0310 C   0  0  0  0  0  0  0  0  0  0  0  0
   -2.2580    0.2120    0.0600 C   0  0  0  0  0  0  0  0  0  0  0  0
   -1.4730    1.1850    0.5130 C   0  0  0  0  0  0  0  0  0  0  0  0
   -0.1240    1.3540   -0.0710 C   0  0  0  0  0  0  0  0  0  0  0  0
    0.3250    2.6060   -0.4210 C   0  0  0  0  0  0  0  0  0  0  0  0
    1.6070    2.7180   -0.9110 C   0  0  0  0  0  0  0  0  0  0  0  0
    2.4390    1.6080   -1.0550 C   0  0  0  0  0  0  0  0  0  0  0  0
    1.9550    0.3760   -0.6940 C   0  0  0  0  0  0  0  0  0  0  0  0
    2.7570   -0.8700   -0.7790 C   0  0  0  0  0  0  0  0  0  0  0  0
    4.0900   -0.6710   -1.2330 N   0  0  0  0  0  0  0  0  0  0  0  0
    4.8700   -0.0100   -0.2350 C   0  0  0  0  0  0  0  0  0  0  0  0
    5.7500   -1.0220    0.4920 C   0  0  2  0  0  0  0  0  0  0  0  0
    6.5000   -0.2350    1.4770 N   0  0  0  0  0  0  0  0  0  0  0  0
    7.6870    0.1520    0.8570 C   0  0  0  0  0  0  0  0  0  0  0  0
    8.4770    1.0720    1.2420 O   0  0  0  0  0  0  0  0  0  0  0  0
    7.8820   -0.6620   -0.3060 N   0  0  0  0  0  0  0  0  0  0  0  0
    6.8010   -1.5570   -0.4020 C   0  0  0  0  0  0  0  0  0  0  0  0
    6.7530   -2.5840   -1.0990 O   0  0  0  0  0  0  0  0  0  0  0  0
    0.6970    0.2990   -0.2200 N   0  0  0  0  0  0  0  0  0  0  0  0
  1  2  1  0
  2  3  2  0
  2  9  1  0
  3  4  1  0
  4  5  2  0
  5  6  1  0
  6  7  2  0
  7  8  1  0
  7 12  1  0
  8  9  2  0
  8 10  1  0
 10 11  1  0
 11 12  1  0
 12 13  2  3
 13 14  1  0
 14 15  2  0
 14 29  1  0
 15 16  1  0
 16 17  2  0
 17 18  1  0
 18 19  1  0
 18 29  2  0
 19 20  1  0
 20 21  1  0
 22 21  1  6
 22 23  1  0
 22 27  1  0
 23 24  1  0
 24 25  2  0
 24 26  1  0
 26 27  1  0
 27 28  2  0
M  CHG  1  20   1
M  END
