
     RDKit          3D

 31 34  0  0  0  0  0  0  0  0999 V2000
    2.6150   -3.2600   -0.4190 C   0  0  0  0  0  0  0  0  0  0  0  0
    3.0890   -2.0020    0.1720 N   0  0  0  0  0  0  0  0  0  0  0  0
    4.1030   -1.2660   -0.4990 C   0  0  0  0  0  0  0  0  0  0  0  0
    4.4850   -1.7090   -1.6170 O   0  0  0  0  0  0  0  0  0  0  0  0
    4.7070   -0.0920   -0.0070 N   0  0  0  0  0  0  0  0  0  0  0  0
    5.7230    0.6710   -0.6100 C   0  0  0  0  0  0  0  0  0  0  0  0
    5.9930    1.9470   -0.0960 C   0  0  0  0  0  0  0  0  0  0  0  0
    6.9890    2.7480   -0.6180 C   0  0  0  0  0  0  0  0  0  0  0  0
    7.7700    2.3350   -1.6690 C   0  0  0  0  0  0  0  0  0  0  0  0
    7.5280    1.0940   -2.1890 C   0  0  0  0  0  0  0  0  0  0  0  0
    6.5250    0.2940   -1.6590 C   0  0  0  0  0  0  0  0  0  0  0  0
    2.6070   -1.5180    1.4150 C   0  0  0  0  0  0  0  0  0  0  0  0
    3.5140   -1.5140    2.4920 C   0  0  0  0  0  0  0  0  0  0  0  0
    3.1050   -1.0980    3.7350 C   0  0  0  0  0  0  0  0  0  0  0  0
    1.7900   -0.6850    3.9130 C   0  0  0  0  0  0  0  0  0  0  0  0
    0.8950   -0.6820    2.8790 C   0  0  0  0  0  0  0  0  0  0  0  0
    1.3130   -1.1040    1.6110 C   0  0  0  0  0  0  0  0  0  0  0  0
    0.3690   -1.0590    0.4900 C   0  0  0  0  0  0  0  0  0  0  0  0
    0.5970   -1.3110   -0.6850 O   0  0  0  0  0  0  0  0  0  0  0  0
   -0.9590   -0.6890    0.7940 O   0  0  0  0  0  0  0  0  0  0  0  0
   -1.9800   -0.6030   -0.1690 C   0  0  0  0  0  0  0  0  0  0  0  0
   -3.2510   -0.2010    0.5900 C   0  0  0  0  0  0  0  0  0  0  0  0
   -4.3940   -0.0750   -0.2660 N   0  0  0  0  0  0  0  0  0  0  0  0
   -4.3330    1.0210   -1.1670 C   0  0  0  0  0  0  0  0  0  0  0  0
   -5.3750    2.1060   -0.8900 C   0  0  0  0  0  0  0  0  0  0  0  0
   -6.6970    1.4310   -1.0110 C   0  0  0  0  0  0  0  0  0  0  0  0
   -7.8430    1.6640   -1.6240 C   0  0  0  0  0  0  0  0  0  0  0  0
   -8.7940    0.5570   -1.3240 C   0  0  0  0  0  0  0  0  0  0  0  0
   -8.0000   -0.3020   -0.4660 N   0  0  0  0  0  0  0  0  0  0  0  0
   -6.8220    0.1690   -0.2770 C   0  0  0  0  0  0  0  0  0  0  0  0
   -5.5960   -0.2400    0.4780 C   0  0  0  0  0  0  0  0  0  0  0  0
  1  2  1  0
  2  3  1  0
  2 12  1  0
  3  4  2  0
  3  5  1  0
  5  6  1  0
  6  7  2  0
  6 11  1  0
  7  8  1  0
  8  9  2  0
  9 10  1  0
 10 11  2  0
 12 13  2  0
 12 17  1  0
 13 14  1  0
 14 15  2  0
 15 16  1  0
 16 17  2  0
 17 18  1  0
 18 19  2  0
 18 20  1  0
 20 21  1  0
 21 22  1  0
 22 23  1  0
 23 24  1  0
 23 31  1  0
 24 25  1  0
 25 26  1  0
 26 27  2  0
 26 30  1  0
 27 28  1  0
 28 29  1  0
 29 30  2  0
 30 31  1  0
M  END
