
     RDKit          3D

 29 32  0  0  0  0  0  0  0  0999 V2000
   -4.0670   -0.4900    2.2450 C   0  0  0  0  0  0  0  0  0  0  0  0
   -4.6420   -1.8060    1.8110 C   0  0  1  0  0  0  0  0  0  0  0  0
   -6.1510   -1.6550    1.6430 C   0  0  0  0  0  0  0  0  0  0  0  0
   -6.4670   -0.5340    0.6930 C   0  0  0  0  0  0  0  0  0  0  0  0
   -5.7400   -0.6770   -0.6000 C   0  0  0  0  0  0  0  0  0  0  0  0
   -4.8250   -1.8740   -0.6360 C   0  0  0  0  0  0  0  0  0  0  0  0
   -4.6940   -2.4830   -1.7360 O   0  0  0  0  0  0  0  0  0  0  0  0
   -4.1540   -2.2680    0.5410 N   0  0  0  0  0  0  0  0  0  0  0  0
   -3.0060   -3.1180    0.4550 C   0  0  0  0  0  0  0  0  0  0  0  0
   -1.7380   -2.3470    0.3240 C   0  0  0  0  0  0  0  0  0  0  0  0
   -1.8400   -1.1040    0.3080 O   0  0  0  0  0  0  0  0  0  0  0  0
   -0.4770   -2.9420    0.2220 N   0  0  0  0  0  0  0  0  0  0  0  0
    0.7750   -2.3030    0.0930 C   0  0  0  0  0  0  0  0  0  0  0  0
    1.9330   -3.0850    0.0680 C   0  0  0  0  0  0  0  0  0  0  0  0
    3.1920   -2.5510   -0.0580 C   0  0  0  0  0  0  0  0  0  0  0  0
    3.3820   -1.1880   -0.1700 C   0  0  0  0  0  0  0  0  0  0  0  0
    2.2640   -0.3880   -0.1490 C   0  0  0  0  0  0  0  0  0  0  0  0
    0.9830   -0.9560   -0.0180 C   0  0  0  0  0  0  0  0  0  0  0  0
    2.3780    1.0630   -0.2620 C   0  0  0  0  0  0  0  0  0  0  0  0
    3.5590    1.6870   -0.3900 C   0  0  0  0  0  0  0  0  0  0  0  0
    4.7230    0.8350   -0.4090 C   0  0  0  0  0  0  0  0  0  0  0  0
    5.9390    1.3450   -0.5030 C   0  0  0  0  0  0  0  0  0  0  0  0
    6.0800    2.7920   -0.5870 C   0  0  0  0  0  0  0  0  0  0  0  0
    5.0350    3.6250   -0.5750 C   0  0  0  0  0  0  0  0  0  0  0  0
    5.3210    5.0530   -0.6580 C   0  0  0  0  0  0  0  0  0  0  0  0
    4.3910    5.9080   -0.6300 N   0  0  0  0  0  0  0  0  0  0  0  0
    3.6340    3.1570   -0.5300 C   0  0  1  0  0  0  0  0  0  0  0  0
    2.9470    3.5730   -1.7570 N   0  0  0  0  0  0  0  0  0  0  0  0
    4.6430   -0.5910   -0.3010 N   0  0  0  0  0  0  0  0  0  0  0  0
  2  1  1  6
  2  3  1  0
  2  8  1  0
  3  4  1  0
  4  5  1  0
  5  6  1  0
  6  7  2  0
  6  8  1  0
  8  9  1  0
  9 10  1  0
 10 11  2  0
 10 12  1  0
 12 13  1  0
 13 14  2  0
 13 18  1  0
 14 15  1  0
 15 16  2  0
 16 17  1  0
 16 29  1  0
 17 18  2  0
 17 19  1  0
 19 20  2  0
 20 21  1  0
 20 27  1  0
 21 22  2  0
 21 29  1  0
 22 23  1  0
 23 24  2  0
 24 25  1  0
 24 27  1  0
 25 26  2  0
 27 28  1  6
M  CHG  1  28   1
M  END
