
     RDKit          3D

 31 34  0  0  0  0  0  0  0  0999 V2000
   -4.3790   -2.3640    1.6610 C   0  0  0  0  0  0  0  0  0  0  0  0
   -5.3820   -1.5640    1.6030 C   0  0  0  0  0  0  0  0  0  0  0  0
   -5.7050   -0.4620    0.7680 C   0  0  0  0  0  0  0  0  0  0  0  0
   -6.9250    0.0940    0.9300 C   0  0  0  0  0  0  0  0  0  0  0  0
   -7.6270    1.2170    0.2700 C   0  0  0  0  0  0  0  0  0  0  0  0
   -7.5600    1.7000   -0.9760 C   0  0  0  0  0  0  0  0  0  0  0  0
   -6.7760    1.3270   -2.1810 C   0  0  0  0  0  0  0  0  0  0  0  0
   -5.5510    0.8140   -2.3640 C   0  0  0  0  0  0  0  0  0  0  0  0
   -4.5350    0.4340   -1.3810 C   0  0  0  0  0  0  0  0  0  0  0  0
   -3.3320    0.7430   -1.9760 C   0  0  0  0  0  0  0  0  0  0  0  0
   -2.1910    0.5830   -1.1960 C   0  0  0  0  0  0  0  0  0  0  0  0
   -0.9530    0.8630   -1.7250 C   0  0  0  0  0  0  0  0  0  0  0  0
    0.1550    0.6810   -0.9080 C   0  0  0  0  0  0  0  0  0  0  0  0
    0.1130    0.2490    0.3700 C   0  0  0  0  0  0  0  0  0  0  0  0
    1.2210    0.0500    1.2200 N   0  0  0  0  0  0  0  0  0  0  0  0
    2.5560    0.2610    0.8690 C   0  0  0  0  0  0  0  0  0  0  0  0
    2.8750    0.6540   -0.2700 O   0  0  0  0  0  0  0  0  0  0  0  0
    3.6320    0.0060    1.8960 C   0  0  0  0  0  0  0  0  0  0  0  0
    4.9890    0.1470    1.3140 C   0  0  0  0  0  0  0  0  0  0  0  0
    5.2520   -0.8520    0.2300 C   0  0  0  0  0  0  0  0  0  0  0  0
    6.6020   -0.6830   -0.3160 N   0  0  0  0  0  0  0  0  0  0  0  0
    6.9880    0.1400   -1.4030 C   0  0  0  0  0  0  0  0  0  0  0  0
    6.2360    0.7110   -2.2300 O   0  0  0  0  0  0  0  0  0  0  0  0
    8.4800    0.2250   -1.4100 C   0  0  0  0  0  0  0  0  0  0  0  0
    8.8680   -0.9140   -0.6070 N   0  0  0  0  0  0  0  0  0  0  0  0
    7.7520   -1.3420    0.1870 C   0  0  0  0  0  0  0  0  0  0  0  0
    7.8700   -2.1570    1.1370 O   0  0  0  0  0  0  0  0  0  0  0  0
   -1.1320   -0.0210    0.8690 N   0  0  0  0  0  0  0  0  0  0  0  0
   -2.2250    0.1380    0.1240 C   0  0  0  0  0  0  0  0  0  0  0  0
   -3.4770   -0.1530    0.6520 C   0  0  0  0  0  0  0  0  0  0  0  0
   -4.6190   -0.0140   -0.0890 C   0  0  0  0  0  0  0  0  0  0  0  0
  1  2  2  0
  2  3  1  0
  3  4  2  0
  3 31  1  0
  4  5  1  0
  5  6  2  0
  6  7  1  0
  7  8  2  0
  8  9  1  0
  9 10  2  0
  9 31  1  0
 10 11  1  0
 11 12  2  0
 11 29  1  0
 12 13  1  0
 13 14  2  0
 14 15  1  0
 14 28  1  0
 15 16  1  0
 16 17  2  0
 16 18  1  0
 18 19  1  0
 19 20  1  0
 20 21  1  0
 21 22  1  0
 21 26  1  0
 22 23  2  0
 22 24  1  0
 24 25  1  0
 25 26  1  0
 26 27  2  0
 28 29  2  0
 29 30  1  0
 30 31  2  0
M  END
