
     RDKit          3D

 40 41  0  0  0  0  0  0  0  0999 V2000
   -6.9720    0.8810    0.6800 C   0  0  0  0  0  0  0  0  0  0  0  0
   -5.7680    0.1660    0.9440 O   0  0  0  0  0  0  0  0  0  0  0  0
   -4.5400    0.8780    0.8390 C   0  0  0  0  0  0  0  0  0  0  0  0
   -3.7320    0.7540   -0.2350 C   0  0  0  0  0  0  0  0  0  0  0  0
   -4.2880   -0.2620   -1.1580 C   0  0  0  0  0  0  0  0  0  0  0  0
   -3.7110   -1.6640   -1.0220 C   0  0  2  0  0  0  0  0  0  0  0  0
   -4.7760   -2.7180   -0.7950 C   0  0  0  0  0  0  0  0  0  0  0  0
   -2.7060   -1.8030    0.0680 C   0  0  0  0  0  0  0  0  0  0  0  0
   -1.5310   -2.6840   -0.3960 C   0  0  2  0  0  0  0  0  0  0  0  0
   -1.7120   -4.0060    0.0990 O   0  0  0  0  0  0  0  0  0  0  0  0
   -1.8610   -4.9410   -0.8900 C   0  0  0  0  0  0  0  0  0  0  0  0
   -0.2440   -2.1160    0.0540 C   0  0  2  0  0  0  0  0  0  0  0  0
   -0.3570   -0.8900    0.6650 O   0  0  0  0  0  0  0  0  0  0  0  0
    0.8900   -2.1340   -0.9730 C   0  0  1  0  0  0  0  0  0  0  0  0
    0.3590   -1.4260   -2.2310 C   0  0  0  0  0  0  0  0  0  0  0  0
    2.0520   -1.3310   -0.4520 C   0  0  0  0  0  0  0  0  0  0  0  0
    3.3390   -1.3300   -0.3710 C   0  0  0  0  0  0  0  0  0  0  0  0
    4.3710   -2.3500   -0.8820 C   0  0  0  0  0  0  0  0  0  0  0  0
    4.2610   -0.3140    0.3240 C   0  0  2  0  0  0  0  0  0  0  0  0
    4.3070   -0.3300    1.6940 O   0  0  0  0  0  0  0  0  0  0  0  0
    5.3430   -0.5910    2.5410 C   0  0  0  0  0  0  0  0  0  0  0  0
    5.1490   -0.5550    3.9450 N   0  0  0  0  0  0  0  0  0  0  0  0
    6.4580   -0.8610    2.0130 O   0  0  0  0  0  0  0  0  0  0  0  0
    4.2120    1.0920   -0.1970 C   0  0  1  0  0  0  0  0  0  0  0  0
    5.4260    1.7240   -0.0470 O   0  0  0  0  0  0  0  0  0  0  0  0
    5.4180    2.7680    0.8530 C   0  0  0  0  0  0  0  0  0  0  0  0
    3.6240    1.2100   -1.5460 C   0  0  0  0  0  0  0  0  0  0  0  0
    2.4760    1.7670   -1.8690 C   0  0  0  0  0  0  0  0  0  0  0  0
    1.4610    2.4330   -1.0120 C   0  0  0  0  0  0  0  0  0  0  0  0
    1.1980    3.5490   -0.4490 C   0  0  0  0  0  0  0  0  0  0  0  0
    1.9870    4.8920   -0.4590 C   0  0  0  0  0  0  0  0  0  0  0  0
   -0.0240    3.9400    0.4080 C   0  0  0  0  0  0  0  0  0  0  0  0
   -0.1960    5.2610    0.4920 O   0  0  0  0  0  0  0  0  0  0  0  0
   -0.9860    3.2090    1.1150 N   0  0  0  0  0  0  0  0  0  0  0  0
   -2.1450    2.3870    0.8220 C   0  0  0  0  0  0  0  0  0  0  0  0
   -3.0170    2.4590    1.8820 C   0  0  0  0  0  0  0  0  0  0  0  0
   -4.2560    1.7280    1.9740 C   0  0  0  0  0  0  0  0  0  0  0  0
   -5.0300    1.8230    2.9640 O   0  0  0  0  0  0  0  0  0  0  0  0
   -2.4720    1.5240   -0.2970 C   0  0  0  0  0  0  0  0  0  0  0  0
   -1.6940    1.4030   -1.3660 O   0  0  0  0  0  0  0  0  0  0  0  0
  1  2  1  0
  2  3  1  0
  3  4  2  0
  3 37  1  0
  4  5  1  0
  4 39  1  0
  5  6  1  0
  6  7  1  1
  6  8  1  0
  8  9  1  0
  9 10  1  1
  9 12  1  0
 10 11  1  0
 12 13  1  6
 12 14  1  0
 14 15  1  6
 14 16  1  0
 16 17  2  0
 17 18  1  0
 17 19  1  0
 19 20  1  1
 19 24  1  0
 20 21  1  0
 21 22  1  0
 21 23  2  0
 24 25  1  6
 24 27  1  0
 25 26  1  0
 27 28  2  0
 28 29  1  0
 29 30  2  0
 30 31  1  0
 30 32  1  0
 32 33  2  0
 32 34  1  0
 34 35  1  0
 35 36  2  0
 35 39  1  0
 36 37  1  0
 37 38  2  0
 39 40  2  0
M  END
