
     RDKit          3D

 40 42  0  0  0  0  0  0  0  0999 V2000
    1.9790   -5.4570    2.1960 C   0  0  0  0  0  0  0  0  0  0  0  0
    1.6750   -4.3410    1.2620 C   0  0  0  0  0  0  0  0  0  0  0  0
    1.2680   -4.5350   -0.0250 C   0  0  0  0  0  0  0  0  0  0  0  0
    1.0140   -3.4280   -0.7930 C   0  0  0  0  0  0  0  0  0  0  0  0
    0.6160   -3.7950   -2.2070 C   0  0  0  0  0  0  0  0  0  0  0  0
    1.1370   -2.0910   -0.3640 C   0  0  0  0  0  0  0  0  0  0  0  0
    1.5570   -1.9000    0.9560 C   0  0  0  0  0  0  0  0  0  0  0  0
    1.8050   -3.0530    1.7030 C   0  0  0  0  0  0  0  0  0  0  0  0
    1.8200   -0.5710    1.6160 C   0  0  1  0  0  0  0  0  0  0  0  0
    1.6820   -0.9190    3.0470 O   0  0  0  0  0  0  0  0  0  0  0  0
    3.2280   -0.1660    1.5550 C   0  0  0  0  0  0  0  0  0  0  0  0
    3.9710    0.0500    0.3020 C   0  0  2  0  0  0  0  0  0  0  0  0
    5.4180    0.4040    0.7570 C   0  0  0  0  0  0  0  0  0  0  0  0
    3.4050    1.1630   -0.5040 C   0  0  0  0  0  0  0  0  0  0  0  0
    4.0920    1.4670   -1.8010 C   0  0  2  0  0  0  0  0  0  0  0  0
    4.0960    0.2860   -2.7530 C   0  0  0  0  0  0  0  0  0  0  0  0
    5.4130    2.1590   -1.6860 C   0  0  0  0  0  0  0  0  0  0  0  0
    0.7360    0.4240    1.5580 C   0  0  1  0  0  0  0  0  0  0  0  0
   -0.4620   -0.3250    1.7090 O   0  0  0  0  0  0  0  0  0  0  0  0
    0.7220    1.3200    2.8200 C   0  0  0  0  0  0  0  0  0  0  0  0
   -0.6130    1.4160    3.4230 C   0  0  0  0  0  0  0  0  0  0  0  0
   -0.7600    1.0860    4.6270 O   0  0  0  0  0  0  0  0  0  0  0  0
   -1.7390    1.8630    2.7050 N   0  0  0  0  0  0  0  0  0  0  0  0
   -1.7570    2.9150    1.8490 O   0  0  0  0  0  0  0  0  0  0  0  0
   -3.0360    3.4490    1.7490 C   0  0  0  0  0  0  0  0  0  0  0  0
   -3.6460    3.3340    0.3750 C   0  0  0  0  0  0  0  0  0  0  0  0
   -4.8360    2.4490    0.2910 C   0  0  1  0  0  0  0  0  0  0  0  0
   -5.5520    2.4410    1.6520 C   0  0  0  0  0  0  0  0  0  0  0  0
   -5.7930    3.0790   -0.5570 O   0  0  0  0  0  0  0  0  0  0  0  0
   -4.6510    1.0790   -0.1590 C   0  0  0  0  0  0  0  0  0  0  0  0
   -5.4440    0.2040    0.3610 O   0  0  0  0  0  0  0  0  0  0  0  0
   -3.7350    0.5360   -1.0860 N   0  0  0  0  0  0  0  0  0  0  0  0
   -2.2980    0.7390   -1.0820 C   0  0  0  0  0  0  0  0  0  0  0  0
   -1.5360   -0.5560   -1.4020 C   0  0  2  0  0  0  0  0  0  0  0  0
   -0.1000   -0.2260   -1.6440 C   0  0  0  0  0  0  0  0  0  0  0  0
    0.8510   -1.1080   -1.2290 O   0  0  0  0  0  0  0  0  0  0  0  0
   -2.0570   -1.1580   -2.5440 O   0  0  0  0  0  0  0  0  0  0  0  0
   -3.3770   -1.5550   -2.3590 C   0  0  0  0  0  0  0  0  0  0  0  0
   -4.2070   -0.3280   -2.1910 C   0  0  2  0  0  0  0  0  0  0  0  0
   -4.1860    0.5430   -3.4300 C   0  0  0  0  0  0  0  0  0  0  0  0
  1  2  1  0
  2  3  2  0
  2  8  1  0
  3  4  1  0
  4  5  1  0
  4  6  2  0
  6  7  1  0
  6 36  1  0
  7  8  2  0
  7  9  1  0
  9 10  1  1
  9 11  1  0
  9 18  1  0
 11 12  1  0
 12 13  1  1
 12 14  1  0
 14 15  1  0
 15 16  1  1
 15 17  1  0
 18 19  1  1
 18 20  1  0
 20 21  1  0
 21 22  2  0
 21 23  1  0
 23 24  1  0
 24 25  1  0
 25 26  1  0
 26 27  1  0
 27 28  1  1
 27 29  1  0
 27 30  1  0
 30 31  2  0
 30 32  1  0
 32 33  1  0
 32 39  1  0
 33 34  1  0
 34 35  1  6
 34 37  1  0
 35 36  1  0
 37 38  1  0
 38 39  1  0
 39 40  1  6
M  END
