
     RDKit          3D

 40 42  0  0  0  0  0  0  0  0999 V2000
   -1.8180   -4.2400    2.3230 C   0  0  0  0  0  0  0  0  0  0  0  0
   -2.9090   -3.5190    1.6570 C   0  0  0  0  0  0  0  0  0  0  0  0
   -2.5780   -2.3900    0.7240 C   0  0  1  0  0  0  0  0  0  0  0  0
   -1.7990   -1.3990    1.5720 C   0  0  0  0  0  0  0  0  0  0  0  0
   -1.8220   -2.6810   -0.4970 C   0  0  0  0  0  0  0  0  0  0  0  0
   -0.8890   -3.8140   -0.5930 C   0  0  0  0  0  0  0  0  0  0  0  0
    0.5450   -3.4000   -0.3320 C   0  0  0  0  0  0  0  0  0  0  0  0
    1.4420   -3.4620   -1.5190 C   0  0  2  0  0  0  0  0  0  0  0  0
    2.0470   -4.7350   -1.6040 O   0  0  0  0  0  0  0  0  0  0  0  0
    2.5340   -2.3880   -1.3950 C   0  0  0  0  0  0  0  0  0  0  0  0
    2.4030   -1.7560   -0.1720 O   0  0  0  0  0  0  0  0  0  0  0  0
    3.3200   -1.3300    0.7280 C   0  0  0  0  0  0  0  0  0  0  0  0
    3.5010   -1.7490    1.9030 O   0  0  0  0  0  0  0  0  0  0  0  0
    4.2470   -0.2360    0.3300 C   0  0  1  0  0  0  0  0  0  0  0  0
    5.6400   -0.6940    0.7190 C   0  0  2  0  0  0  0  0  0  0  0  0
    6.6760    0.3460    0.3600 C   0  0  0  0  0  0  0  0  0  0  0  0
    5.9780   -2.0480    0.1370 C   0  0  0  0  0  0  0  0  0  0  0  0
    4.1510    0.1450   -1.0380 N   0  0  0  0  0  0  0  0  0  0  0  0
    3.2670    1.1170   -1.5780 C   0  0  0  0  0  0  0  0  0  0  0  0
    3.7170    1.8170   -2.5500 O   0  0  0  0  0  0  0  0  0  0  0  0
    1.8900    1.3460   -1.0770 C   0  0  0  0  0  0  0  0  0  0  0  0
    1.8120    1.6300    0.2660 O   0  0  0  0  0  0  0  0  0  0  0  0
    1.7410    2.9730    0.5630 C   0  0  0  0  0  0  0  0  0  0  0  0
    0.3990    3.6010    0.2720 C   0  0  2  0  0  0  0  0  0  0  0  0
    0.4690    5.0480    0.7440 C   0  0  0  0  0  0  0  0  0  0  0  0
   -0.8860    5.7200    0.6330 C   0  0  0  0  0  0  0  0  0  0  0  0
   -1.9520    4.9720    1.4050 C   0  0  0  0  0  0  0  0  0  0  0  0
   -1.9190    3.5910    0.9310 N   0  0  0  0  0  0  0  0  0  0  0  0
   -0.6460    2.9280    1.1370 C   0  0  0  0  0  0  0  0  0  0  0  0
   -3.0610    3.0300    0.3380 C   0  0  0  0  0  0  0  0  0  0  0  0
   -4.1610    3.6620    0.5070 O   0  0  0  0  0  0  0  0  0  0  0  0
   -3.1130    1.7790   -0.4620 C   0  0  2  0  0  0  0  0  0  0  0  0
   -1.8630    1.3930   -0.8450 O   0  0  0  0  0  0  0  0  0  0  0  0
   -4.0000    2.0240   -1.6750 C   0  0  0  0  0  0  0  0  0  0  0  0
   -4.3950    0.7760   -2.3740 C   0  0  0  0  0  0  0  0  0  0  0  0
   -3.7580   -0.4640   -1.8110 C   0  0  0  0  0  0  0  0  0  0  0  0
   -4.1670   -0.5150   -0.3290 C   0  0  2  0  0  0  0  0  0  0  0  0
   -3.8520    0.7420    0.3990 C   0  0  0  0  0  0  0  0  0  0  0  0
   -3.9040   -1.7910    0.3010 C   0  0  0  0  0  0  0  0  0  0  0  0
   -4.8490   -2.5250    0.5470 O   0  0  0  0  0  0  0  0  0  0  0  0
  1  2  1  0
  2  3  1  0
  3  4  1  1
  3  5  1  0
  3 39  1  0
  5  6  1  0
  6  7  1  0
  7  8  1  0
  8  9  1  1
  8 10  1  0
 10 11  1  0
 11 12  1  0
 12 13  2  0
 12 14  1  0
 14 15  1  0
 14 18  1  6
 15 16  1  6
 15 17  1  0
 18 19  1  0
 19 20  2  0
 19 21  1  0
 21 22  1  0
 22 23  1  0
 24 23  1  1
 24 25  1  0
 24 29  1  0
 25 26  1  0
 26 27  1  0
 27 28  1  0
 28 29  1  0
 28 30  1  0
 30 31  2  0
 30 32  1  0
 32 33  1  6
 32 34  1  0
 32 38  1  0
 34 35  1  0
 35 36  1  0
 37 36  1  6
 37 38  1  0
 37 39  1  0
 39 40  2  0
M  END
