
     RDKit          3D

 40 46  0  0  0  0  0  0  0  0999 V2000
    9.1000    0.9930   -2.1880 C   0  0  0  0  0  0  0  0  0  0  0  0
    8.7620    1.7560   -0.9810 C   0  0  0  0  0  0  0  0  0  0  0  0
    9.7320    2.5000   -0.3690 C   0  0  0  0  0  0  0  0  0  0  0  0
    9.4260    3.2110    0.7550 C   0  0  0  0  0  0  0  0  0  0  0  0
    8.1570    3.1840    1.2740 C   0  0  0  0  0  0  0  0  0  0  0  0
    7.1470    2.4390    0.6760 C   0  0  0  0  0  0  0  0  0  0  0  0
    5.8770    2.4100    1.1960 C   0  0  0  0  0  0  0  0  0  0  0  0
    4.9240    1.6360    0.5370 C   0  0  0  0  0  0  0  0  0  0  0  0
    5.2200    0.9230   -0.5840 C   0  0  0  0  0  0  0  0  0  0  0  0
    4.3500    0.0430   -1.2990 C   0  0  0  0  0  0  0  0  0  0  0  0
    3.2580   -0.5720   -0.9770 C   0  0  0  0  0  0  0  0  0  0  0  0
    2.6000   -0.5180    0.3190 C   0  0  0  0  0  0  0  0  0  0  0  0
    2.0380   -1.8860    0.7320 C   0  0  1  0  0  0  0  0  0  0  0  0
    1.0600   -2.4220   -0.1320 N   0  0  0  0  0  0  0  0  0  0  0  0
   -0.2100   -1.6790   -0.1030 C   0  0  1  0  0  0  0  0  0  0  0  0
   -0.8200   -1.7500   -1.4590 C   0  0  0  0  0  0  0  0  0  0  0  0
   -2.2960   -1.3440   -1.5040 C   0  0  0  0  0  0  0  0  0  0  0  0
   -3.0180   -2.0840   -0.5440 N   0  0  0  0  0  0  0  0  0  0  0  0
   -4.3250   -2.4700   -0.6650 C   0  0  0  0  0  0  0  0  0  0  0  0
   -5.2960   -1.3720   -0.4570 C   0  0  0  0  0  0  0  0  0  0  0  0
   -6.2220   -0.7860   -1.2310 C   0  0  0  0  0  0  0  0  0  0  0  0
   -7.0090    0.1760   -0.6920 C   0  0  0  0  0  0  0  0  0  0  0  0
   -8.0520    0.8720   -1.3500 C   0  0  0  0  0  0  0  0  0  0  0  0
   -8.7860    1.8020   -0.6640 C   0  0  0  0  0  0  0  0  0  0  0  0
   -8.5970    2.1360    0.6500 C   0  0  0  0  0  0  0  0  0  0  0  0
   -7.5710    1.4560    1.3060 C   0  0  0  0  0  0  0  0  0  0  0  0
   -6.8340    0.5120    0.5950 C   0  0  0  0  0  0  0  0  0  0  0  0
   -5.4840   -0.5780    1.1020 S   0  0  0  0  0  0  0  0  0  0  0  0
   -9.5460    3.1730    1.0950 C   0  0  0  0  0  0  0  0  0  0  0  0
   -9.9470    3.8000   -0.2300 C   0  0  0  0  0  0  0  0  0  0  0  0
   -9.9430    2.6170   -1.1590 C   0  0  0  0  0  0  0  0  0  0  0  0
   -2.5130   -1.8650    0.7930 C   0  0  0  0  0  0  0  0  0  0  0  0
   -1.0860   -2.2330    0.9560 C   0  0  0  0  0  0  0  0  0  0  0  0
    3.1180   -2.8640    1.0270 C   0  0  0  0  0  0  0  0  0  0  0  0
    2.9500   -4.1730    1.3090 N   0  0  0  0  0  0  0  0  0  0  0  0
    4.1440   -4.7130    1.5450 C   0  0  0  0  0  0  0  0  0  0  0  0
    5.0840   -3.7160    1.4060 C   0  0  0  0  0  0  0  0  0  0  0  0
    4.4310   -2.5920    1.0900 N   0  0  0  0  0  0  0  0  0  0  0  0
    6.5090    1.0130   -1.0270 N   0  0  0  0  0  0  0  0  0  0  0  0
    7.4680    1.7320   -0.4500 C   0  0  0  0  0  0  0  0  0  0  0  0
  1  2  1  0
  2  3  2  0
  2 40  1  0
  3  4  1  0
  4  5  2  0
  5  6  1  0
  6  7  2  0
  6 40  1  0
  7  8  1  0
  8  9  2  0
  9 10  1  0
  9 39  1  0
 10 11  2  3
 11 12  1  0
 13 12  1  6
 13 14  1  0
 13 34  1  0
 15 14  1  6
 15 16  1  0
 15 33  1  0
 16 17  1  0
 17 18  1  0
 18 19  1  0
 18 32  1  0
 19 20  1  0
 20 21  2  0
 20 28  1  0
 21 22  1  0
 22 23  2  0
 22 27  1  0
 23 24  1  0
 24 25  2  0
 24 31  1  0
 25 26  1  0
 25 29  1  0
 26 27  2  0
 27 28  1  0
 29 30  1  0
 30 31  1  0
 32 33  1  0
 34 35  2  0
 34 38  1  0
 35 36  1  0
 36 37  2  0
 37 38  1  0
 39 40  2  0
M  END
