
     RDKit          3D

 40 45  0  0  0  0  0  0  0  0999 V2000
   -9.6640   -2.7460    2.8900 C   0  0  0  0  0  0  0  0  0  0  0  0
   -9.1370   -1.9410    1.7480 C   0  0  0  0  0  0  0  0  0  0  0  0
   -9.8750   -1.9880    0.5830 C   0  0  0  0  0  0  0  0  0  0  0  0
   -9.4500   -1.3250   -0.5480 C   0  0  0  0  0  0  0  0  0  0  0  0
   -8.2660   -0.6140   -0.4650 C   0  0  0  0  0  0  0  0  0  0  0  0
   -7.7750    0.1310   -1.6360 C   0  0  0  0  0  0  0  0  0  0  0  0
   -7.4840   -0.5300    0.6830 C   0  0  0  0  0  0  0  0  0  0  0  0
   -6.1700    0.1280    0.6810 C   0  0  0  0  0  0  0  0  0  0  0  0
   -6.2020    1.5310    0.3330 N   0  0  0  0  0  0  0  0  0  0  0  0
   -5.0080    2.0010   -0.3770 C   0  0  0  0  0  0  0  0  0  0  0  0
   -5.0700    2.9440   -1.3810 C   0  0  0  0  0  0  0  0  0  0  0  0
   -3.9280    3.3250   -2.0680 C   0  0  0  0  0  0  0  0  0  0  0  0
   -2.6750    2.7650   -1.7650 C   0  0  0  0  0  0  0  0  0  0  0  0
   -1.4760    3.1520   -2.5470 C   0  0  0  0  0  0  0  0  0  0  0  0
   -2.6240    1.8360   -0.7740 C   0  0  0  0  0  0  0  0  0  0  0  0
   -1.3920    1.1950   -0.3370 C   0  0  0  0  0  0  0  0  0  0  0  0
   -1.4170   -0.2170   -0.1420 C   0  0  0  0  0  0  0  0  0  0  0  0
   -0.2940   -0.8160    0.3810 C   0  0  0  0  0  0  0  0  0  0  0  0
    0.8360   -0.1370    0.7250 C   0  0  0  0  0  0  0  0  0  0  0  0
    1.9780   -0.8390    1.3370 C   0  0  0  0  0  0  0  0  0  0  0  0
    2.7830   -1.4430    0.3510 N   0  0  0  0  0  0  0  0  0  0  0  0
    3.8080   -2.2340    0.9300 C   0  0  0  0  0  0  0  0  0  0  0  0
    5.0810   -1.4160    1.0980 C   0  0  0  0  0  0  0  0  0  0  0  0
    5.4710   -0.9820   -0.2820 C   0  0  2  0  0  0  0  0  0  0  0  0
    6.7580   -0.6250   -0.5970 N   0  0  0  0  0  0  0  0  0  0  0  0
    7.8570   -1.4770   -0.6390 C   0  0  2  0  0  0  0  0  0  0  0  0
    8.2840   -2.0700    0.6640 C   0  0  0  0  0  0  0  0  0  0  0  0
    8.5540   -0.6580    1.7910 S   0  0  0  0  0  0  0  0  0  0  0  0
    8.9610    0.7620    0.7640 C   0  0  0  0  0  0  0  0  0  0  0  0
    9.1030    2.0290    1.0590 N   0  0  0  0  0  0  0  0  0  0  0  0
    9.4350    2.7100   -0.0470 C   0  0  0  0  0  0  0  0  0  0  0  0
    9.4910    1.7770   -1.0530 C   0  0  0  0  0  0  0  0  0  0  0  0
    9.1900    0.5490   -0.5390 N   0  0  0  0  0  0  0  0  0  0  0  0
    9.1120   -0.7390   -1.1740 C   0  0  0  0  0  0  0  0  0  0  0  0
    4.4160    0.0860   -0.6630 C   0  0  0  0  0  0  0  0  0  0  0  0
    3.1290   -0.6550   -0.7930 C   0  0  0  0  0  0  0  0  0  0  0  0
    0.8890    1.2510    0.5420 C   0  0  0  0  0  0  0  0  0  0  0  0
   -0.2680    1.8270    0.0040 C   0  0  0  0  0  0  0  0  0  0  0  0
   -3.7940    1.4460   -0.0680 C   0  0  0  0  0  0  0  0  0  0  0  0
   -7.9590   -1.2210    1.7860 C   0  0  0  0  0  0  0  0  0  0  0  0
  1  2  1  0
  2  3  2  0
  2 40  1  0
  3  4  1  0
  4  5  2  0
  5  6  1  0
  5  7  1  0
  7  8  1  0
  7 40  2  0
  8  9  1  0
  9 10  1  0
 10 11  2  0
 10 39  1  0
 11 12  1  0
 12 13  2  0
 13 14  1  0
 13 15  1  0
 15 16  1  0
 15 39  2  0
 16 17  2  0
 16 38  1  0
 17 18  1  0
 18 19  2  0
 19 20  1  0
 19 37  1  0
 20 21  1  0
 21 22  1  0
 21 36  1  0
 22 23  1  0
 23 24  1  0
 24 25  1  1
 24 35  1  0
 26 25  1  1
 26 27  1  0
 26 34  1  0
 27 28  1  0
 28 29  1  0
 29 30  2  0
 29 33  1  0
 30 31  1  0
 31 32  2  0
 32 33  1  0
 33 34  1  0
 35 36  1  0
 37 38  2  0
M  END
