
     RDKit          3D

 40 41  0  0  0  0  0  0  0  0999 V2000
   -3.3950    3.2280   -2.9600 C   0  0  0  0  0  0  0  0  0  0  0  0
   -2.8880    2.7420   -1.7640 O   0  0  0  0  0  0  0  0  0  0  0  0
   -2.7290    1.3260   -1.8840 C   0  0  1  0  0  0  0  0  0  0  0  0
   -1.2410    1.1460   -1.7000 C   0  0  0  0  0  0  0  0  0  0  0  0
   -0.7570    2.0030   -0.5360 C   0  0  0  0  0  0  0  0  0  0  0  0
   -0.0530    3.2510   -1.0630 C   0  0  0  0  0  0  0  0  0  0  0  0
    1.3100    3.4520   -0.4000 C   0  0  2  0  0  0  0  0  0  0  0  0
    1.3890    4.8160    0.2790 C   0  0  0  0  0  0  0  0  0  0  0  0
    2.3240    3.3170   -1.4760 C   0  0  0  0  0  0  0  0  0  0  0  0
    2.3460    4.3150   -2.2820 O   0  0  0  0  0  0  0  0  0  0  0  0
    3.1860    2.1960   -1.6010 N   0  0  0  0  0  0  0  0  0  0  0  0
    3.8530    1.4510   -0.6190 C   0  0  0  0  0  0  0  0  0  0  0  0
    4.9870    0.8130   -1.0800 C   0  0  0  0  0  0  0  0  0  0  0  0
    5.4420   -0.3730   -0.3500 C   0  0  0  0  0  0  0  0  0  0  0  0
    6.4550   -1.0040   -0.7780 O   0  0  0  0  0  0  0  0  0  0  0  0
    4.7700   -0.8730    0.8680 C   0  0  1  0  0  0  0  0  0  0  0  0
    5.4720   -0.4010    1.9700 O   0  0  0  0  0  0  0  0  0  0  0  0
    5.8830   -1.4830    2.7370 C   0  0  0  0  0  0  0  0  0  0  0  0
    3.3510   -0.3140    1.0000 C   0  0  2  0  0  0  0  0  0  0  0  0
    2.4060   -0.8360   -0.0280 C   0  0  0  0  0  0  0  0  0  0  0  0
    2.0240   -2.2590    0.2990 C   0  0  2  0  0  0  0  0  0  0  0  0
    2.8820   -3.1580   -0.6000 C   0  0  0  0  0  0  0  0  0  0  0  0
    0.5950   -2.6010    0.0450 C   0  0  0  0  0  0  0  0  0  0  0  0
   -0.2940   -2.5390    1.2350 C   0  0  2  0  0  0  0  0  0  0  0  0
    0.3470   -2.8080    2.4380 O   0  0  0  0  0  0  0  0  0  0  0  0
    0.3330   -1.7850    3.3460 C   0  0  0  0  0  0  0  0  0  0  0  0
   -1.4760   -3.3740    0.9770 C   0  0  2  0  0  0  0  0  0  0  0  0
   -1.3250   -4.0760   -0.2150 O   0  0  0  0  0  0  0  0  0  0  0  0
   -2.8420   -2.8030    1.1260 C   0  0  1  0  0  0  0  0  0  0  0  0
   -3.2410   -2.8180    2.5580 C   0  0  0  0  0  0  0  0  0  0  0  0
   -3.0750   -1.4970    0.3750 C   0  0  0  0  0  0  0  0  0  0  0  0
   -3.3480   -0.7470   -0.5500 C   0  0  0  0  0  0  0  0  0  0  0  0
   -3.7440   -1.1540   -2.0260 C   0  0  0  0  0  0  0  0  0  0  0  0
   -3.5170    0.7670   -0.7470 C   0  0  2  0  0  0  0  0  0  0  0  0
   -4.9360    0.9920   -0.9630 O   0  0  0  0  0  0  0  0  0  0  0  0
   -5.6970    1.8730   -0.2660 C   0  0  0  0  0  0  0  0  0  0  0  0
   -7.0710    2.0380   -0.5450 N   0  0  0  0  0  0  0  0  0  0  0  0
   -5.1870    2.5550    0.6380 O   0  0  0  0  0  0  0  0  0  0  0  0
    3.5930    1.1860    0.7570 C   0  0  0  0  0  0  0  0  0  0  0  0
    3.5140    1.8410    1.8140 O   0  0  0  0  0  0  0  0  0  0  0  0
  1  2  1  0
  3  2  1  1
  3  4  1  0
  3 34  1  0
  4  5  1  0
  5  6  1  0
  6  7  1  0
  7  8  1  6
  7  9  1  0
  9 10  2  0
  9 11  1  0
 11 12  1  0
 12 13  2  0
 12 39  1  0
 13 14  1  0
 14 15  2  0
 14 16  1  0
 16 17  1  1
 16 19  1  0
 17 18  1  0
 19 20  1  6
 19 39  1  0
 20 21  1  0
 21 22  1  6
 21 23  1  0
 23 24  1  0
 24 25  1  1
 24 27  1  0
 25 26  1  0
 27 28  1  6
 27 29  1  0
 29 30  1  1
 29 31  1  0
 31 32  2  0
 32 33  1  0
 32 34  1  0
 34 35  1  6
 35 36  1  0
 36 37  1  0
 36 38  2  0
 39 40  2  0
M  END
