
     RDKit          3D

 39 44  0  0  0  0  0  0  0  0999 V2000
    3.1740   -1.6920   -1.5040 C   0  0  0  0  0  0  0  0  0  0  0  0
    3.0890   -0.4270   -1.5480 N   0  0  0  0  0  0  0  0  0  0  0  0
    2.0230    0.4010   -1.6640 N   0  0  0  0  0  0  0  0  0  0  0  0
    0.9460    0.4440   -0.7100 C   0  0  1  0  0  0  0  0  0  0  0  0
    0.0190    1.6040   -1.0230 C   0  0  0  0  0  0  0  0  0  0  0  0
   -0.6850    2.1670    0.1600 C   0  0  0  0  0  0  0  0  0  0  0  0
   -1.1820    1.1840    1.1620 C   0  0  0  0  0  0  0  0  0  0  0  0
   -1.7440   -0.0200    0.5910 N   0  0  0  0  0  0  0  0  0  0  0  0
   -2.8130   -0.5620    1.3350 C   0  0  0  0  0  0  0  0  0  0  0  0
   -2.5310   -1.7290    2.0440 C   0  0  0  0  0  0  0  0  0  0  0  0
   -3.5160   -2.3010    2.8150 C   0  0  0  0  0  0  0  0  0  0  0  0
   -4.7610   -1.7090    2.8690 C   0  0  0  0  0  0  0  0  0  0  0  0
   -4.9980   -0.5510    2.1490 C   0  0  0  0  0  0  0  0  0  0  0  0
   -4.0260    0.0390    1.3700 C   0  0  0  0  0  0  0  0  0  0  0  0
   -4.3060    1.1980    0.6450 N   0  0  0  0  0  0  0  0  0  0  0  0
   -5.5730    1.8790    0.6230 C   0  0  0  0  0  0  0  0  0  0  0  0
   -6.6500    1.1150   -0.0710 C   0  0  0  0  0  0  0  0  0  0  0  0
   -6.4370   -0.0930   -0.6610 C   0  0  0  0  0  0  0  0  0  0  0  0
   -7.4550   -0.7500   -1.2990 C   0  0  0  0  0  0  0  0  0  0  0  0
   -8.7240   -0.2140   -1.3650 C   0  0  0  0  0  0  0  0  0  0  0  0
   -8.8920    1.0050   -0.7580 C   0  0  0  0  0  0  0  0  0  0  0  0
   -7.9220    1.7140   -0.1060 C   0  0  0  0  0  0  0  0  0  0  0  0
   -8.3510    3.0090    0.4490 C   0  0  0  0  0  0  0  0  0  0  0  0
   -9.7970    2.9940    0.7960 C   0  0  0  0  0  0  0  0  0  0  0  0
  -10.4030    1.9750   -0.6270 S   0  0  0  0  0  0  0  0  0  0  0  0
   -1.3260   -0.6880   -0.6170 C   0  0  0  0  0  0  0  0  0  0  0  0
    0.1440   -0.8060   -0.8070 C   0  0  0  0  0  0  0  0  0  0  0  0
    4.4980   -2.2830   -1.3740 C   0  0  0  0  0  0  0  0  0  0  0  0
    4.6170   -3.6440   -1.2910 C   0  0  0  0  0  0  0  0  0  0  0  0
    5.8930   -4.1760   -1.1870 C   0  0  0  0  0  0  0  0  0  0  0  0
    6.9990   -3.3790   -1.1680 C   0  0  0  0  0  0  0  0  0  0  0  0
    6.8960   -2.0090   -1.2510 C   0  0  0  0  0  0  0  0  0  0  0  0
    8.0570   -1.1110   -1.2510 C   0  0  0  0  0  0  0  0  0  0  0  0
    8.5200   -0.8620    0.0970 N   0  0  0  0  0  0  0  0  0  0  0  0
    9.6780    0.0250    0.0130 C   0  0  0  0  0  0  0  0  0  0  0  0
    9.1170    1.3260   -0.4920 C   0  0  0  0  0  0  0  0  0  0  0  0
    7.7080    1.3610    0.0980 C   0  0  0  0  0  0  0  0  0  0  0  0
    7.5720    0.0010    0.7790 C   0  0  0  0  0  0  0  0  0  0  0  0
    5.6050   -1.4790   -1.3550 C   0  0  0  0  0  0  0  0  0  0  0  0
  1  2  2  3
  1 28  1  0
  2  3  1  0
  4  3  1  6
  4  5  1  0
  4 27  1  0
  5  6  1  0
  6  7  1  0
  7  8  1  0
  8  9  1  0
  8 26  1  0
  9 10  2  0
  9 14  1  0
 10 11  1  0
 11 12  2  0
 12 13  1  0
 13 14  2  0
 14 15  1  0
 15 16  1  0
 16 17  1  0
 17 18  2  0
 17 22  1  0
 18 19  1  0
 19 20  2  0
 20 21  1  0
 21 22  2  0
 21 25  1  0
 22 23  1  0
 23 24  1  0
 24 25  1  0
 26 27  1  0
 28 29  2  0
 28 39  1  0
 29 30  1  0
 30 31  2  0
 31 32  1  0
 32 33  1  0
 32 39  2  0
 33 34  1  0
 34 35  1  0
 34 38  1  0
 35 36  1  0
 36 37  1  0
 37 38  1  0
M  END
