
     RDKit          3D

 22 23  0  0  0  0  0  0  0  0999 V2000
   -2.5980   -3.8850    0.7970 C   0  0  0  0  0  0  0  0  0  0  0  0
   -1.2850   -4.0680    1.4320 C   0  0  0  0  0  0  0  0  0  0  0  0
   -0.3230   -3.1390    1.2100 C   0  0  0  0  0  0  0  0  0  0  0  0
   -0.6500   -2.0290    0.3630 C   0  0  0  0  0  0  0  0  0  0  0  0
    0.2060   -1.0720    0.0740 C   0  0  0  0  0  0  0  0  0  0  0  0
    1.5580   -1.1450    0.6440 C   0  0  0  0  0  0  0  0  0  0  0  0
    2.0020   -0.1390    1.6040 C   0  0  0  0  0  0  0  0  0  0  0  0
    2.1510    1.2790    1.2390 C   0  0  0  0  0  0  0  0  0  0  0  0
    3.1050    1.5620    0.1850 N   0  0  0  0  0  0  0  0  0  0  0  0
    2.9680    1.6840   -1.1240 C   0  0  0  0  0  0  0  0  0  0  0  0
    4.1760    1.9290   -1.6990 N   0  0  0  0  0  0  0  0  0  0  0  0
    5.0870    1.9620   -0.7360 C   0  0  0  0  0  0  0  0  0  0  0  0
    6.5430    2.2070   -0.9700 C   0  0  0  0  0  0  0  0  0  0  0  0
    4.4380    1.7350    0.4450 C   0  0  0  0  0  0  0  0  0  0  0  0
   -0.1770   -0.0020   -0.8640 C   0  0  0  0  0  0  0  0  0  0  0  0
   -1.5180   -0.1770   -1.3530 N   0  0  0  0  0  0  0  0  0  0  0  0
   -2.4640    0.3260   -0.3810 C   0  0  2  0  0  0  0  0  0  0  0  0
   -3.8220   -0.2520   -0.7100 C   0  0  0  0  0  0  0  0  0  0  0  0
   -4.8000    0.8170   -0.2820 C   0  0  0  0  0  0  0  0  0  0  0  0
   -4.1200    2.0710   -0.7360 C   0  0  0  0  0  0  0  0  0  0  0  0
   -2.6350    1.8320   -0.6410 C   0  0  1  0  0  0  0  0  0  0  0  0
   -1.9960    2.7160    0.7770 Cl  0  0  0  0  0  0  0  0  0  0  0  0
  1  2  1  0
  2  3  2  3
  3  4  1  0
  4  5  2  3
  5  6  1  0
  5 15  1  0
  6  7  1  0
  7  8  1  0
  8  9  1  0
  9 10  1  0
  9 14  1  0
 10 11  2  0
 11 12  1  0
 12 13  1  0
 12 14  2  0
 15 16  1  0
 17 16  1  6
 17 18  1  0
 17 21  1  0
 18 19  1  0
 19 20  1  0
 20 21  1  0
 21 22  1  1
M  CHG  1  16   1
M  END
