
     RDKit          3D

 22 22  0  0  0  0  0  0  0  0999 V2000
    6.1540   -0.6740    0.2780 C   0  0  0  0  0  0  0  0  0  0  0  0
    4.8480   -0.6490    0.2370 C   0  0  0  0  0  0  0  0  0  0  0  0
    4.0900   -0.4290   -1.0160 C   0  0  0  0  0  0  0  0  0  0  0  0
    3.2520    0.7220   -0.9710 N   0  0  0  0  0  0  0  0  0  0  0  0
    3.9290    2.0080   -0.8950 C   0  0  0  0  0  0  0  0  0  0  0  0
    1.8020    0.6700   -1.0170 C   0  0  0  0  0  0  0  0  0  0  0  0
    1.1410    1.3600   -1.8900 N   0  0  0  0  0  0  0  0  0  0  0  0
   -0.2760    1.1870   -1.7880 C   0  0  0  0  0  0  0  0  0  0  0  0
   -0.4580    0.4880   -0.4640 C   0  0  1  0  0  0  0  0  0  0  0  0
   -0.7480    1.3720    0.6870 C   0  0  0  0  0  0  0  0  0  0  0  0
   -1.3550   -0.6270   -0.6960 C   0  0  0  0  0  0  0  0  0  0  0  0
   -0.8020   -1.7950   -1.5280 C   0  0  0  0  0  0  0  0  0  0  0  0
   -2.6030   -0.7370   -0.3660 C   0  0  0  0  0  0  0  0  0  0  0  0
   -3.4060   -2.2940   -0.8110 Cl  0  0  0  0  0  0  0  0  0  0  0  0
   -3.4950    0.2340    0.2270 C   0  0  0  0  0  0  0  0  0  0  0  0
   -4.7430    0.0640    0.5590 C   0  0  0  0  0  0  0  0  0  0  0  0
   -5.4790    1.2340    1.1670 C   0  0  0  0  0  0  0  0  0  0  0  0
   -5.4810   -1.1860    0.3910 C   0  0  0  0  0  0  0  0  0  0  0  0
    0.9260   -0.0410   -0.2190 N   0  0  0  0  0  0  0  0  0  0  0  0
    1.1860   -1.0760    0.7200 C   0  0  0  0  0  0  0  0  0  0  0  0
    1.0050   -0.6430    2.1360 C   0  0  0  0  0  0  0  0  0  0  0  0
    0.1400   -1.2330    2.9120 C   0  0  0  0  0  0  0  0  0  0  0  0
  1  2  2  0
  2  3  1  0
  3  4  1  0
  4  5  1  0
  4  6  1  0
  6  7  2  0
  6 19  1  0
  7  8  1  0
  8  9  1  0
  9 10  1  1
  9 11  1  0
  9 19  1  0
 11 12  1  0
 11 13  2  3
 13 14  1  0
 13 15  1  0
 15 16  2  3
 16 17  1  0
 16 18  1  0
 19 20  1  0
 20 21  1  0
 21 22  2  0
M  CHG  1   7   1
M  END
