
     RDKit          3D

 15 15  0  0  0  0  0  0  0  0999 V2000
    4.0640    0.7020    0.3040 C   0  0  0  0  0  0  0  0  0  0  0  0
    3.0440   -0.3460    0.0790 C   0  0  0  0  0  0  0  0  0  0  0  0
    3.4260   -1.5300   -0.0340 O   0  0  0  0  0  0  0  0  0  0  0  0
    1.6770    0.0020   -0.0040 N   0  0  0  0  0  0  0  0  0  0  0  0
    0.6430   -0.9900   -0.2230 C   0  0  2  0  0  0  0  0  0  0  0  0
   -0.1670   -0.6550   -1.4540 C   0  0  1  0  0  0  0  0  0  0  0  0
    0.2600   -1.5520   -2.4570 O   0  0  0  0  0  0  0  0  0  0  0  0
   -1.5200   -0.9030   -1.2950 O   0  0  0  0  0  0  0  0  0  0  0  0
   -2.1420   -0.1430   -0.3520 C   0  0  2  0  0  0  0  0  0  0  0  0
   -2.8280    1.0790   -0.9110 C   0  0  0  0  0  0  0  0  0  0  0  0
   -3.4470    1.8300    0.0510 O   0  0  0  0  0  0  0  0  0  0  0  0
   -1.2130    0.1940    0.7930 C   0  0  1  0  0  0  0  0  0  0  0  0
   -1.9350    0.4540    1.9560 O   0  0  0  0  0  0  0  0  0  0  0  0
   -0.3060   -1.0090    0.9580 C   0  0  2  0  0  0  0  0  0  0  0  0
    0.3540   -1.0230    2.1690 O   0  0  0  0  0  0  0  0  0  0  0  0
  1  2  1  0
  2  3  2  0
  2  4  1  0
  5  4  1  1
  5  6  1  0
  5 14  1  0
  6  7  1  6
  6  8  1  0
  8  9  1  0
  9 10  1  6
  9 12  1  0
 10 11  1  0
 12 13  1  1
 12 14  1  0
 14 15  1  1
M  END
