
     RDKit          3D

 22 23  0  0  0  0  0  0  0  0999 V2000
    0.5920   -0.1440   -1.5400 C   0  0  0  0  0  0  0  0  0  0  0  0
    0.6370    0.9060   -0.4550 C   0  0  2  0  0  0  0  0  0  0  0  0
   -0.6140    1.6070   -0.2380 C   0  0  0  0  0  0  0  0  0  0  0  0
   -1.8690    0.9900    0.1610 C   0  0  1  0  0  0  0  0  0  0  0  0
   -2.4400   -0.0020   -0.7300 N   0  0  0  0  0  0  0  0  0  0  0  0
   -3.9010    0.1290   -0.7820 C   0  0  0  0  0  0  0  0  0  0  0  0
   -4.6150   -0.7150    0.2150 C   0  0  0  0  0  0  0  0  0  0  0  0
   -4.5350   -0.1450    1.6240 C   0  0  0  0  0  0  0  0  0  0  0  0
   -3.1360   -0.1290    2.0800 N   0  0  0  0  0  0  0  0  0  0  0  0
   -1.9720    0.4390    1.5150 C   0  0  0  0  0  0  0  0  0  0  0  0
   -1.0070    0.4250    2.3100 O   0  0  0  0  0  0  0  0  0  0  0  0
    1.7040    1.8430   -0.8420 N   0  0  0  0  0  0  0  0  0  0  0  0
    3.0890    1.7840    0.1080 S   0  0  2  0  0  0  0  0  0  0  0  0
    2.8830    2.0380    1.5510 O   0  0  0  0  0  0  0  0  0  0  0  0
    4.0750    2.7840   -0.4040 O   0  0  0  0  0  0  0  0  0  0  0  0
    3.7900    0.1520   -0.0360 C   0  0  0  0  0  0  0  0  0  0  0  0
    3.4980   -0.8390    0.7580 C   0  0  0  0  0  0  0  0  0  0  0  0
    4.3300   -2.3200    0.3880 S   0  0  1  0  0  0  0  0  0  0  0  0
    4.8230   -3.0300    1.5950 O   0  0  0  0  0  0  0  0  0  0  0  0
    3.4580   -3.2570   -0.4010 O   0  0  0  0  0  0  0  0  0  0  0  0
    5.6860   -1.8070   -0.6720 C   0  0  0  0  0  0  0  0  0  0  0  0
    4.9750   -0.2650   -1.3040 S   0  0  0  0  0  0  0  0  0  0  0  0
  2  1  1  6
  2  3  1  0
  2 12  1  0
  4  3  1  6
  4  5  1  0
  4 10  1  0
  5  6  1  0
  6  7  1  0
  7  8  1  0
  8  9  1  0
  9 10  1  0
 10 11  2  0
 13 12  1  6
 13 14  2  0
 13 15  2  0
 13 16  1  0
 16 17  2  0
 16 22  1  0
 17 18  1  0
 18 19  2  0
 18 20  2  0
 18 21  1  6
 21 22  1  0
M  CHG  1   5   1
M  END
