
     RDKit          3D

 22 22  0  0  0  0  0  0  0  0999 V2000
   -2.8390   -2.7850    1.9980 C   0  0  0  0  0  0  0  0  0  0  0  0
   -2.9930   -2.9340    0.5120 C   0  0  0  0  0  0  0  0  0  0  0  0
   -1.7050   -2.1120   -0.4270 S   0  0  0  0  0  0  0  0  0  0  0  0
   -1.7720   -0.3130   -0.2570 C   0  0  0  0  0  0  0  0  0  0  0  0
   -2.6960    0.0840    0.4810 O   0  0  0  0  0  0  0  0  0  0  0  0
   -0.7900    0.4870   -0.9610 C   0  0  0  0  0  0  0  0  0  0  0  0
   -0.7650    1.8000   -0.8950 C   0  0  0  0  0  0  0  0  0  0  0  0
   -1.6770    2.5760   -0.1410 N   0  0  0  0  0  0  0  0  0  0  0  0
   -1.5840    4.0120   -0.1200 C   0  0  0  0  0  0  0  0  0  0  0  0
   -0.6750    4.5390   -0.7860 O   0  0  0  0  0  0  0  0  0  0  0  0
   -2.6970    5.0410    0.8060 S   0  0  0  0  0  0  0  0  0  0  0  0
    0.5120    2.6980   -1.8380 S   0  0  0  0  0  0  0  0  0  0  0  0
    0.6610    1.7070   -3.3030 N   0  0  0  0  0  0  0  0  0  0  0  0
    0.1950    0.3710   -3.1570 C   0  0  0  0  0  0  0  0  0  0  0  0
   -0.2290   -0.3000   -4.1500 O   0  0  0  0  0  0  0  0  0  0  0  0
    0.2320   -0.1960   -1.7800 C   0  0  1  0  0  0  0  0  0  0  0  0
    1.5650   -0.0720   -1.2710 N   0  0  0  0  0  0  0  0  0  0  0  0
    1.6580    0.0430    0.1520 C   0  0  0  0  0  0  0  0  0  0  0  0
    2.8830   -0.6380    0.6860 C   0  0  0  0  0  0  0  0  0  0  0  0
    3.6790   -1.2220   -0.1200 O   0  0  0  0  0  0  0  0  0  0  0  0
    3.2040   -0.6710    2.0240 O   0  0  0  0  0  0  0  0  0  0  0  0
    4.3770   -1.3240    2.5160 C   0  0  0  0  0  0  0  0  0  0  0  0
  1  2  1  0
  2  3  1  0
  3  4  1  0
  4  5  2  0
  4  6  1  0
  6  7  2  0
  6 16  1  0
  7  8  1  0
  7 12  1  0
  8  9  1  0
  9 10  2  0
  9 11  1  0
 12 13  1  0
 13 14  1  0
 14 15  2  0
 14 16  1  0
 16 17  1  1
 17 18  1  0
 18 19  1  0
 19 20  2  0
 19 21  1  0
 21 22  1  0
M  CHG  1  17   1
M  END
