
     RDKit          3D

 22 22  0  0  0  0  0  0  0  0999 V2000
    7.1220    1.5940   -1.1440 C   0  0  0  0  0  0  0  0  0  0  0  0
    6.0300    1.5930   -0.1540 C   0  0  0  0  0  0  0  0  0  0  0  0
    5.6570    2.6500    0.3950 O   0  0  0  0  0  0  0  0  0  0  0  0
    5.3450    0.3910    0.2240 N   0  0  0  0  0  0  0  0  0  0  0  0
    4.3070    0.3640    1.1580 N   0  0  0  0  0  0  0  0  0  0  0  0
    2.9760    0.0660    0.6850 C   0  0  0  0  0  0  0  0  0  0  0  0
    2.8620   -0.1430   -0.5460 O   0  0  0  0  0  0  0  0  0  0  0  0
    1.8420    0.0260    1.6500 C   0  0  0  0  0  0  0  0  0  0  0  0
    0.6650   -0.2590    0.9440 O   0  0  0  0  0  0  0  0  0  0  0  0
    0.4770   -1.3700    0.1580 C   0  0  0  0  0  0  0  0  0  0  0  0
    1.3860   -2.2080    0.0260 O   0  0  0  0  0  0  0  0  0  0  0  0
   -0.8190   -1.5590   -0.5340 C   0  0  1  0  0  0  0  0  0  0  0  0
   -1.1780   -3.0300   -0.5210 C   0  0  0  0  0  0  0  0  0  0  0  0
   -1.7930   -0.7020    0.0740 N   0  0  0  0  0  0  0  0  0  0  0  0
   -3.1490   -1.1530   -0.1140 C   0  0  0  0  0  0  0  0  0  0  0  0
   -4.1640   -0.1210    0.2530 C   0  0  0  0  0  0  0  0  0  0  0  0
   -5.0490    0.3600   -0.5750 C   0  0  0  0  0  0  0  0  0  0  0  0
   -6.1110    1.5430    0.0980 S   0  0  2  0  0  0  0  0  0  0  0  0
   -7.3740    0.9620    0.6790 O   0  0  0  0  0  0  0  0  0  0  0  0
   -6.4600    2.8050   -0.9960 S   0  0  0  0  0  0  0  0  0  0  0  0
   -5.1540    2.1660    1.4810 C   0  0  0  0  0  0  0  0  0  0  0  0
   -4.2810    0.5980    1.8820 S   0  0  0  0  0  0  0  0  0  0  0  0
  1  2  1  0
  2  3  2  0
  2  4  1  0
  4  5  1  0
  5  6  1  0
  6  7  2  0
  6  8  1  0
  8  9  1  0
  9 10  1  0
 10 11  2  0
 10 12  1  0
 12 13  1  1
 12 14  1  0
 14 15  1  0
 15 16  1  0
 16 17  2  0
 16 22  1  0
 17 18  1  0
 18 19  2  0
 18 20  2  0
 18 21  1  1
 21 22  1  0
M  CHG  1  14   1
M  END
