
     RDKit          3D

 22 24  0  0  0  0  0  0  0  0999 V2000
    4.8970    1.6240   -0.3930 C   0  0  0  0  0  0  0  0  0  0  0  0
    3.8350    1.7420    0.5310 O   0  0  0  0  0  0  0  0  0  0  0  0
    2.8550    0.7590    0.5230 C   0  0  0  0  0  0  0  0  0  0  0  0
    2.8910   -0.3120   -0.3510 C   0  0  0  0  0  0  0  0  0  0  0  0
    1.9030   -1.2740   -0.3370 C   0  0  0  0  0  0  0  0  0  0  0  0
    0.8500   -1.1610    0.5760 C   0  0  0  0  0  0  0  0  0  0  0  0
   -0.2010   -2.1860    0.5910 C   0  0  0  0  0  0  0  0  0  0  0  0
    0.0280   -3.8680    0.9310 S   0  0  0  0  0  0  0  0  0  0  0  0
   -1.8100   -4.2550    0.7100 N   0  0  0  0  0  0  0  0  0  0  0  0
   -2.1880   -3.2420    0.4670 N   0  0  0  0  0  0  0  0  0  0  0  0
   -1.5540   -2.0790    0.3570 C   0  0  0  0  0  0  0  0  0  0  0  0
   -2.1530   -0.7770    0.0240 C   0  0  0  0  0  0  0  0  0  0  0  0
   -3.0350   -0.2100    0.9160 C   0  0  0  0  0  0  0  0  0  0  0  0
   -3.6420    1.0090    0.6780 C   0  0  0  0  0  0  0  0  0  0  0  0
   -4.7690    1.7120    1.8410 Cl  0  0  0  0  0  0  0  0  0  0  0  0
   -3.3580    1.6830   -0.4910 C   0  0  0  0  0  0  0  0  0  0  0  0
   -3.9720    2.9230   -0.7390 O   0  0  0  0  0  0  0  0  0  0  0  0
   -2.4790    1.1380   -1.4020 C   0  0  0  0  0  0  0  0  0  0  0  0
   -1.8850   -0.0870   -1.1360 C   0  0  0  0  0  0  0  0  0  0  0  0
   -1.0160   -0.6140   -2.0510 O   0  0  0  0  0  0  0  0  0  0  0  0
    0.7990   -0.1080    1.4470 C   0  0  0  0  0  0  0  0  0  0  0  0
    1.8010    0.8410    1.4130 C   0  0  0  0  0  0  0  0  0  0  0  0
  1  2  1  0
  2  3  1  0
  3  4  2  0
  3 22  1  0
  4  5  1  0
  5  6  2  0
  6  7  1  0
  6 21  1  0
  7  8  1  0
  7 11  2  0
  8  9  1  0
  9 10  2  0
 10 11  1  0
 11 12  1  0
 12 13  2  0
 12 19  1  0
 13 14  1  0
 14 15  1  0
 14 16  2  0
 16 17  1  0
 16 18  1  0
 18 19  2  0
 19 20  1  0
 21 22  2  0
M  END
