
     RDKit          3D

 23 25  0  0  0  0  0  0  0  0999 V2000
   -5.7750   -2.2750    0.0800 C   0  0  0  0  0  0  0  0  0  0  0  0
   -4.6130   -1.3760    0.2470 C   0  0  0  0  0  0  0  0  0  0  0  0
   -3.9250   -1.3430    1.4390 C   0  0  0  0  0  0  0  0  0  0  0  0
   -2.8240   -0.4890    1.5920 C   0  0  0  0  0  0  0  0  0  0  0  0
   -1.9840   -0.4850    3.1270 Cl  0  0  0  0  0  0  0  0  0  0  0  0
   -2.4330    0.3160    0.5470 C   0  0  0  0  0  0  0  0  0  0  0  0
   -1.3200    1.1680    0.7290 N   0  0  0  0  0  0  0  0  0  0  0  0
    0.0090    0.6820    0.4030 C   0  0  0  0  0  0  0  0  0  0  0  0
    0.1370   -0.4710   -0.0280 O   0  0  0  0  0  0  0  0  0  0  0  0
    1.1460    1.5000    0.5710 N   0  0  0  0  0  0  0  0  0  0  0  0
    2.4920    1.1480    0.2950 C   0  0  0  0  0  0  0  0  0  0  0  0
    3.4190    2.1970    0.3940 C   0  0  0  0  0  0  0  0  0  0  0  0
    4.7610    2.0110    0.1630 C   0  0  0  0  0  0  0  0  0  0  0  0
    5.1750    0.7530   -0.1730 C   0  0  0  0  0  0  0  0  0  0  0  0
    4.3250   -0.3210   -0.2880 C   0  0  0  0  0  0  0  0  0  0  0  0
    2.9570   -0.0800   -0.0410 C   0  0  0  0  0  0  0  0  0  0  0  0
    4.8870   -1.5010   -0.6270 O   0  0  0  0  0  0  0  0  0  0  0  0
    6.0840   -1.4450   -1.3640 C   0  0  0  0  0  0  0  0  0  0  0  0
    6.7890    0.0720   -0.5710 S   0  0  0  0  0  0  0  0  0  0  0  0
   -3.1210    0.2810   -0.6400 C   0  0  0  0  0  0  0  0  0  0  0  0
   -2.7460    1.1130   -1.7740 C   0  0  0  0  0  0  0  0  0  0  0  0
   -1.7460    1.8980   -1.6550 O   0  0  0  0  0  0  0  0  0  0  0  0
   -4.2170   -0.5680   -0.7950 C   0  0  0  0  0  0  0  0  0  0  0  0
  1  2  1  0
  2  3  2  0
  2 23  1  0
  3  4  1  0
  4  5  1  0
  4  6  2  0
  6  7  1  0
  6 20  1  0
  7  8  1  0
  8  9  2  0
  8 10  1  0
 10 11  1  0
 11 12  2  0
 11 16  1  0
 12 13  1  0
 13 14  2  0
 14 15  1  0
 14 19  1  0
 15 16  2  0
 15 17  1  0
 17 18  1  0
 18 19  1  0
 20 21  1  0
 20 23  2  0
 21 22  2  0
M  END
