
     RDKit          3D

 23 25  0  0  0  0  0  0  0  0999 V2000
   -1.2230   -0.6130    3.4660 C   0  0  0  0  0  0  0  0  0  0  0  0
   -1.7400   -0.5440    2.0650 N   0  0  0  0  0  0  0  0  0  0  0  0
   -1.2540   -1.5680    1.1830 C   0  0  0  0  0  0  0  0  0  0  0  0
    0.0200   -1.1210    0.5410 C   0  0  0  0  0  0  0  0  0  0  0  0
    0.5150    0.1130    0.8570 C   0  0  0  0  0  0  0  0  0  0  0  0
    1.6810    0.6000    0.3100 C   0  0  0  0  0  0  0  0  0  0  0  0
    2.1390    1.7290    0.5960 O   0  0  0  0  0  0  0  0  0  0  0  0
    2.3530   -0.1940   -0.5770 C   0  0  0  0  0  0  0  0  0  0  0  0
    3.5860    0.3020   -1.1640 C   0  0  0  0  0  0  0  0  0  0  0  0
    4.3590   -0.4160   -2.0810 C   0  0  0  0  0  0  0  0  0  0  0  0
    5.4330    0.3760   -2.4010 C   0  0  0  0  0  0  0  0  0  0  0  0
    5.2940    1.5380   -1.6850 C   0  0  0  0  0  0  0  0  0  0  0  0
    6.4090    2.8810   -1.7400 Cl  0  0  0  0  0  0  0  0  0  0  0  0
    4.2040    1.4310   -0.9900 O   0  0  0  0  0  0  0  0  0  0  0  0
    1.8490   -1.4340   -0.8900 C   0  0  0  0  0  0  0  0  0  0  0  0
    0.6890   -1.8950   -0.3340 N   0  0  0  0  0  0  0  0  0  0  0  0
   -2.6140    0.4850    1.7500 C   0  0  0  0  0  0  0  0  0  0  0  0
   -2.8560    1.2750    2.7730 O   0  0  0  0  0  0  0  0  0  0  0  0
   -3.2930    0.8100    0.4810 C   0  0  0  0  0  0  0  0  0  0  0  0
   -4.1100    1.8560    0.4570 C   0  0  0  0  0  0  0  0  0  0  0  0
   -4.7620    1.9780   -1.1940 S   0  0  0  0  0  0  0  0  0  0  0  0
   -3.5380    0.8960   -1.9740 C   0  0  0  0  0  0  0  0  0  0  0  0
   -3.1390    0.0740   -0.7480 C   0  0  0  0  0  0  0  0  0  0  0  0
  1  2  1  0
  2  3  1  0
  2 17  1  0
  3  4  1  0
  4  5  2  0
  4 16  1  0
  5  6  1  0
  6  7  2  0
  6  8  1  0
  8  9  1  0
  8 15  2  0
  9 10  2  0
  9 14  1  0
 10 11  1  0
 11 12  2  0
 12 13  1  0
 12 14  1  0
 15 16  1  0
 17 18  2  0
 17 19  1  0
 19 20  2  0
 19 23  1  0
 20 21  1  0
 21 22  1  0
 22 23  1  0
M  END
