
     RDKit          3D

 22 24  0  0  0  0  0  0  0  0999 V2000
   -5.9840   -1.6400    0.0560 C   0  0  0  0  0  0  0  0  0  0  0  0
   -5.1450   -0.5530    0.7650 C   0  0  0  0  0  0  0  0  0  0  0  0
   -4.8490    0.4520   -0.2470 C   0  0  0  0  0  0  0  0  0  0  0  0
   -3.6730    0.8980   -0.6560 C   0  0  0  0  0  0  0  0  0  0  0  0
   -3.6230    1.9680   -1.7530 C   0  0  0  0  0  0  0  0  0  0  0  0
   -2.2760    1.1230   -2.7280 S   0  0  0  0  0  0  0  0  0  0  0  0
   -1.3940    0.5580   -1.2660 C   0  0  0  0  0  0  0  0  0  0  0  0
   -2.3310    0.5640   -0.2580 C   0  0  0  0  0  0  0  0  0  0  0  0
   -1.8720    0.2220    0.9880 N   0  0  0  0  0  0  0  0  0  0  0  0
   -0.5860   -0.1030    1.2100 C   0  0  0  0  0  0  0  0  0  0  0  0
    0.3600   -0.1100    0.1850 C   0  0  0  0  0  0  0  0  0  0  0  0
    1.7380   -0.4730    0.4030 C   0  0  0  0  0  0  0  0  0  0  0  0
    2.8020    0.1270   -0.0610 C   0  0  0  0  0  0  0  0  0  0  0  0
    2.6870    1.2400   -0.8560 O   0  0  0  0  0  0  0  0  0  0  0  0
    4.1380   -0.3760    0.2560 C   0  0  0  0  0  0  0  0  0  0  0  0
    5.3110    0.1700   -0.1690 C   0  0  0  0  0  0  0  0  0  0  0  0
    6.3160   -0.6290    0.3680 C   0  0  0  0  0  0  0  0  0  0  0  0
    7.7780   -0.4190    0.1740 C   0  0  0  0  0  0  0  0  0  0  0  0
    5.7520   -1.5850    1.0670 O   0  0  0  0  0  0  0  0  0  0  0  0
    4.4680   -1.4520    1.0120 N   0  0  0  0  0  0  0  0  0  0  0  0
   -0.0700    0.2310   -1.0800 C   0  0  0  0  0  0  0  0  0  0  0  0
    0.6640    0.2660   -2.0940 O   0  0  0  0  0  0  0  0  0  0  0  0
  1  2  1  0
  2  3  1  0
  3  4  2  3
  4  5  1  0
  4  8  1  0
  5  6  1  0
  6  7  1  0
  7  8  2  0
  7 21  1  0
  8  9  1  0
  9 10  1  0
 10 11  2  0
 11 12  1  0
 11 21  1  0
 12 13  2  3
 13 14  1  0
 13 15  1  0
 15 16  1  0
 15 20  2  0
 16 17  2  0
 17 18  1  0
 17 19  1  0
 19 20  1  0
 21 22  2  0
M  END
