
     RDKit          3D

 17 18  0  0  0  0  0  0  0  0999 V2000
   -4.1690   -1.6410    0.6240 C   0  0  0  0  0  0  0  0  0  0  0  0
   -3.2170   -0.7530    1.1810 O   0  0  0  0  0  0  0  0  0  0  0  0
   -1.8860   -0.7510    0.6880 C   0  0  0  0  0  0  0  0  0  0  0  0
   -1.3330    0.3570    0.2530 C   0  0  0  0  0  0  0  0  0  0  0  0
   -2.2800    1.5360    0.3510 C   0  0  0  0  0  0  0  0  0  0  0  0
    0.0130    0.5380   -0.1970 C   0  0  0  0  0  0  0  0  0  0  0  0
    0.5070    1.6160   -0.9330 C   0  0  0  0  0  0  0  0  0  0  0  0
   -0.3370    2.7230   -1.4440 C   0  0  0  0  0  0  0  0  0  0  0  0
    1.8270    1.4470   -1.0960 N   0  0  0  0  0  0  0  0  0  0  0  0
    2.2500    0.3370   -0.5220 C   0  0  0  0  0  0  0  0  0  0  0  0
    3.5060   -0.2000   -0.4380 C   0  0  0  0  0  0  0  0  0  0  0  0
    3.6800   -1.3640    0.2370 C   0  0  0  0  0  0  0  0  0  0  0  0
    4.9470   -1.9170    0.3280 O   0  0  0  0  0  0  0  0  0  0  0  0
    2.5970   -1.9700    0.8170 C   0  0  0  0  0  0  0  0  0  0  0  0
    2.7360   -3.0540    1.4510 O   0  0  0  0  0  0  0  0  0  0  0  0
    1.3590   -1.4050    0.7110 N   0  0  0  0  0  0  0  0  0  0  0  0
    1.1230   -0.2610    0.0580 C   0  0  0  0  0  0  0  0  0  0  0  0
  1  2  1  0
  2  3  1  0
  3  4  2  3
  4  5  1  0
  4  6  1  0
  6  7  2  0
  6 17  1  0
  7  8  1  0
  7  9  1  0
  9 10  1  0
 10 11  1  0
 10 17  2  0
 11 12  2  0
 12 13  1  0
 12 14  1  0
 14 15  2  0
 14 16  1  0
 16 17  1  0
M  END
