
     RDKit          3D

 26 28  0  0  0  0  0  0  0  0999 V2000
   -7.3080   -0.3430    0.2160 C   0  0  0  0  0  0  0  0  0  0  0  0
   -6.8100   -1.7430   -0.1820 C   0  0  0  0  0  0  0  0  0  0  0  0
   -5.4070   -1.8930   -0.1440 N   0  0  0  0  0  0  0  0  0  0  0  0
   -4.4320   -1.0960   -0.8470 C   0  0  0  0  0  0  0  0  0  0  0  0
   -4.8950   -0.2060   -1.5670 O   0  0  0  0  0  0  0  0  0  0  0  0
   -3.0850   -1.2950   -0.7040 N   0  0  0  0  0  0  0  0  0  0  0  0
   -1.9030   -0.5510   -1.1060 C   0  0  0  0  0  0  0  0  0  0  0  0
   -2.0010    0.7420   -0.3220 C   0  0  0  0  0  0  0  0  0  0  0  0
   -2.9680    1.6920   -0.5800 C   0  0  0  0  0  0  0  0  0  0  0  0
   -3.0970    2.8300    0.2320 C   0  0  0  0  0  0  0  0  0  0  0  0
   -2.2280    2.9610    1.2890 C   0  0  0  0  0  0  0  0  0  0  0  0
   -1.2440    2.0150    1.5640 C   0  0  0  0  0  0  0  0  0  0  0  0
   -1.1350    0.8950    0.7340 C   0  0  0  0  0  0  0  0  0  0  0  0
    0.1140   -0.3240    1.0870 S   0  0  0  0  0  0  0  0  0  0  0  0
    1.7590    0.3450    1.0270 C   0  0  0  0  0  0  0  0  0  0  0  0
    1.9800    1.4840    1.8100 C   0  0  0  0  0  0  0  0  0  0  0  0
    3.2430    2.0090    1.8500 C   0  0  0  0  0  0  0  0  0  0  0  0
    4.2830    1.4550    1.1520 C   0  0  0  0  0  0  0  0  0  0  0  0
    5.5910    1.8520    1.1020 N   0  0  0  0  0  0  0  0  0  0  0  0
    6.2210    1.0130    0.3170 N   0  0  0  0  0  0  0  0  0  0  0  0
    5.2840    0.0890   -0.1190 C   0  0  0  0  0  0  0  0  0  0  0  0
    5.6560   -1.0410   -0.9950 C   0  0  1  0  0  0  0  0  0  0  0  0
    7.1810   -1.0020   -1.2150 C   0  0  0  0  0  0  0  0  0  0  0  0
    5.3920   -2.3390   -0.2470 C   0  0  0  0  0  0  0  0  0  0  0  0
    4.0930    0.3570    0.3870 N   0  0  0  0  0  0  0  0  0  0  0  0
    2.8370   -0.1730    0.3410 C   0  0  0  0  0  0  0  0  0  0  0  0
  1  2  1  0
  2  3  1  0
  3  4  1  0
  4  5  2  0
  4  6  1  0
  6  7  1  0
  7  8  1  0
  8  9  2  0
  8 13  1  0
  9 10  1  0
 10 11  2  0
 11 12  1  0
 12 13  2  0
 13 14  1  0
 14 15  1  0
 15 16  1  0
 15 26  2  0
 16 17  2  0
 17 18  1  0
 18 19  2  0
 18 25  1  0
 19 20  1  0
 20 21  2  0
 21 22  1  0
 21 25  1  0
 22 23  1  1
 22 24  1  0
 25 26  1  0
M  END
