
     RDKit          3D

 17 18  0  0  0  0  0  0  0  0999 V2000
   -1.9200   -0.1740   -0.6280 O   0  0  0  0  0  0  0  0  0  0  0  0
   -0.8550    0.2330   -0.4390 C   0  0  0  0  0  0  0  0  0  0  0  0
    0.4220    0.5180   -0.4340 N   0  0  0  0  0  0  0  0  0  0  0  0
    0.9150   -0.9630   -1.2720 C   0  0  0  0  0  0  0  0  0  0  0  0
    0.0330   -1.4370   -1.8910 O   0  0  0  0  0  0  0  0  0  0  0  0
    2.2420   -1.2700   -1.0100 C   0  0  0  0  0  0  0  0  0  0  0  0
    2.7650   -2.4300   -1.5900 C   0  0  0  0  0  0  0  0  0  0  0  0
    4.1300   -2.8110   -1.3630 C   0  0  0  0  0  0  0  0  0  0  0  0
    4.9090   -2.0980   -0.6240 C   0  0  0  0  0  0  0  0  0  0  0  0
    4.4750   -0.8630    0.0310 C   0  0  0  0  0  0  0  0  0  0  0  0
    3.1750   -0.5890   -0.2610 O   0  0  0  0  0  0  0  0  0  0  0  0
   -1.3520    1.4230    0.6550 N   0  0  0  0  0  0  0  0  0  0  0  0
   -2.6680    1.5690    0.8360 C   0  0  0  0  0  0  0  0  0  0  0  0
   -3.1950    2.0730    1.9780 C   0  0  0  0  0  0  0  0  0  0  0  0
   -4.6860    2.1340    1.9180 C   0  0  0  0  0  0  0  0  0  0  0  0
   -4.9290    1.5020    0.5360 C   0  0  0  0  0  0  0  0  0  0  0  0
   -3.8230    1.2510    0.0290 C   0  0  0  0  0  0  0  0  0  0  0  0
  1  2  2  0
  2  3  1  0
  2 12  1  0
  3  4  1  0
  4  5  2  0
  4  6  1  0
  6  7  2  0
  6 11  1  0
  7  8  1  0
  8  9  2  0
  9 10  1  0
 10 11  1  0
 12 13  1  0
 13 14  2  0
 13 17  1  0
 14 15  1  0
 15 16  1  0
 16 17  2  0
M  END
