
     RDKit          3D

 13 13  0  0  0  0  0  0  0  0999 V2000
    3.4460   -0.8420    1.7000 C   0  0  0  0  0  0  0  0  0  0  0  0
    2.2170   -0.3400    1.4600 C   0  0  0  0  0  0  0  0  0  0  0  0
    2.0910    0.8190    0.5520 C   0  0  0  0  0  0  0  0  0  0  0  0
    1.3130    0.6240   -0.5770 O   0  0  0  0  0  0  0  0  0  0  0  0
   -0.0310    0.3580   -0.6220 C   0  0  0  0  0  0  0  0  0  0  0  0
   -0.8530    0.2630    0.4740 C   0  0  0  0  0  0  0  0  0  0  0  0
   -2.2000   -0.0060    0.3700 C   0  0  0  0  0  0  0  0  0  0  0  0
   -3.2130   -0.1180    1.8240 Cl  0  0  0  0  0  0  0  0  0  0  0  0
   -2.7900   -0.1920   -0.8590 C   0  0  0  0  0  0  0  0  0  0  0  0
   -4.1330   -0.4600   -0.9640 O   0  0  0  0  0  0  0  0  0  0  0  0
   -1.9860   -0.1010   -1.9780 C   0  0  0  0  0  0  0  0  0  0  0  0
   -0.6560    0.1640   -1.8710 C   0  0  0  0  0  0  0  0  0  0  0  0
    0.3210    0.2700   -3.3120 Cl  0  0  0  0  0  0  0  0  0  0  0  0
  1  2  2  0
  2  3  1  0
  3  4  1  0
  4  5  1  0
  5  6  2  0
  5 12  1  0
  6  7  1  0
  7  8  1  0
  7  9  2  0
  9 10  1  0
  9 11  1  0
 11 12  2  0
 12 13  1  0
M  END
