
     RDKit          3D

 13 13  0  0  0  0  0  0  0  0999 V2000
   -2.3730   -0.8460    1.2160 C   0  0  0  0  0  0  0  0  0  0  0  0
   -1.2100   -0.2810    0.4000 C   0  0  1  0  0  0  0  0  0  0  0  0
   -1.1380   -1.0930   -0.8660 C   0  0  0  0  0  0  0  0  0  0  0  0
   -1.6060    1.1450    0.0760 C   0  0  0  0  0  0  0  0  0  0  0  0
   -0.0840   -0.3330    1.1870 O   0  0  0  0  0  0  0  0  0  0  0  0
    1.1940    0.0580    0.8950 C   0  0  0  0  0  0  0  0  0  0  0  0
    1.7390    1.2530    1.0660 C   0  0  0  0  0  0  0  0  0  0  0  0
    0.9350    2.6560    1.7250 Cl  0  0  0  0  0  0  0  0  0  0  0  0
    3.1350    1.2450    0.6210 C   0  0  0  0  0  0  0  0  0  0  0  0
    3.9690    2.1960    0.6300 O   0  0  0  0  0  0  0  0  0  0  0  0
    3.3690   -0.1110    0.1560 C   0  0  0  0  0  0  0  0  0  0  0  0
    2.2470   -0.7700    0.3220 C   0  0  0  0  0  0  0  0  0  0  0  0
    2.0250   -2.4730   -0.0980 Cl  0  0  0  0  0  0  0  0  0  0  0  0
  2  1  1  1
  2  3  1  0
  2  4  1  0
  2  5  1  0
  5  6  1  0
  6  7  2  0
  6 12  1  0
  7  8  1  0
  7  9  1  0
  9 10  2  0
  9 11  1  0
 11 12  2  0
 12 13  1  0
M  END
