
     RDKit          3D

 13 13  0  0  0  0  0  0  0  0999 V2000
    3.7650    0.0390   -0.0960 C   0  0  0  0  0  0  0  0  0  0  0  0
    2.3140    0.2710   -0.1230 C   0  0  0  0  0  0  0  0  0  0  0  0
    1.8830    1.2240   -0.8320 O   0  0  0  0  0  0  0  0  0  0  0  0
    1.4310   -0.5400    0.6160 O   0  0  0  0  0  0  0  0  0  0  0  0
    0.0870   -0.2170    0.5060 C   0  0  0  0  0  0  0  0  0  0  0  0
   -0.4890    0.6420    1.3300 C   0  0  0  0  0  0  0  0  0  0  0  0
   -1.9290    0.9140    1.1230 C   0  0  0  0  0  0  0  0  0  0  0  0
   -2.3380    0.9720   -0.3110 C   0  0  0  0  0  0  0  0  0  0  0  0
   -1.9250   -0.2360   -1.1080 C   0  0  0  0  0  0  0  0  0  0  0  0
   -0.6780   -0.8580   -0.5560 C   0  0  0  0  0  0  0  0  0  0  0  0
   -0.2300   -2.0070   -1.0110 C   0  0  0  0  0  0  0  0  0  0  0  0
    1.2060   -2.7590   -0.3990 Cl  0  0  0  0  0  0  0  0  0  0  0  0
   -1.1260   -2.8000   -2.2830 Cl  0  0  0  0  0  0  0  0  0  0  0  0
  1  2  1  0
  2  3  2  0
  2  4  1  0
  4  5  1  0
  5  6  2  0
  5 10  1  0
  6  7  1  0
  7  8  1  0
  8  9  1  0
  9 10  1  0
 10 11  2  3
 11 12  1  0
 11 13  1  0
M  END
