
     RDKit          3D

 13 13  0  0  0  0  0  0  0  0999 V2000
    3.3130   -1.2130   -0.5700 C   0  0  0  0  0  0  0  0  0  0  0  0
    2.5930    0.0650   -0.4460 C   0  0  0  0  0  0  0  0  0  0  0  0
    1.2170    0.0680   -0.4330 O   0  0  0  0  0  0  0  0  0  0  0  0
    0.5600    0.0120    0.7970 C   0  0  0  0  0  0  0  0  0  0  0  0
   -0.9320    0.0220    0.6530 C   0  0  2  0  0  0  0  0  0  0  0  0
   -1.5380   -0.0350    1.8970 O   0  0  0  0  0  0  0  0  0  0  0  0
   -1.4520   -1.1470   -0.1560 C   0  0  0  0  0  0  0  0  0  0  0  0
   -2.9170   -0.7340   -0.3440 C   0  0  0  0  0  0  0  0  0  0  0  0
   -2.9150    0.7770   -0.3210 C   0  0  0  0  0  0  0  0  0  0  0  0
   -1.4480    1.1860   -0.1340 C   0  0  0  0  0  0  0  0  0  0  0  0
    3.2470    1.1950   -0.3480 C   0  0  0  0  0  0  0  0  0  0  0  0
    2.4400    2.7510   -0.1980 Cl  0  0  0  0  0  0  0  0  0  0  0  0
    4.9930    1.1990   -0.3640 Cl  0  0  0  0  0  0  0  0  0  0  0  0
  1  2  1  0
  2  3  1  0
  2 11  2  3
  3  4  1  0
  4  5  1  0
  5  6  1  1
  5  7  1  0
  5 10  1  0
  7  8  1  0
  8  9  1  0
  9 10  1  0
 11 12  1  0
 11 13  1  0
M  END
