
     RDKit          3D

 12 12  0  0  0  0  0  0  0  0999 V2000
   -4.4230    0.8920    0.2200 C   0  0  0  0  0  0  0  0  0  0  0  0
   -3.0740    0.6110    0.4240 O   0  0  0  0  0  0  0  0  0  0  0  0
   -2.7140   -0.6190   -0.1190 C   0  0  0  0  0  0  0  0  0  0  0  0
   -1.2530   -0.8440    0.1420 C   0  0  0  0  0  0  0  0  0  0  0  0
   -0.4640    0.1850   -0.4570 O   0  0  0  0  0  0  0  0  0  0  0  0
    0.9230    0.1540   -0.3260 C   0  0  0  0  0  0  0  0  0  0  0  0
    1.6990   -0.2480   -1.2960 C   0  0  0  0  0  0  0  0  0  0  0  0
    3.1450   -0.2930   -1.1920 C   0  0  0  0  0  0  0  0  0  0  0  0
    3.7190    0.1410    0.0860 C   0  0  0  0  0  0  0  0  0  0  0  0
    2.7890    0.5750    1.1120 C   0  0  0  0  0  0  0  0  0  0  0  0
    1.4890    0.5910    0.9500 C   0  0  0  0  0  0  0  0  0  0  0  0
    0.3970    1.1260    2.2280 Cl  0  0  0  0  0  0  0  0  0  0  0  0
  1  2  1  0
  2  3  1  0
  3  4  1  0
  4  5  1  0
  5  6  1  0
  6  7  2  0
  6 11  1  0
  7  8  1  0
  8  9  1  0
  9 10  1  0
 10 11  2  0
 11 12  1  0
M  END
