
     RDKit          3D

 46 47  0  0  0  0  0  0  0  0999 V2000
    6.6010    6.8400   -1.2880 C   0  0  0  0  0  0  0  0  0  0  0  0
    7.2990    5.7870   -1.3840 C   0  0  0  0  0  0  0  0  0  0  0  0
    8.0990    4.5820   -1.4800 C   0  0  0  0  0  0  0  0  0  0  0  0
    7.8920    3.7530   -0.3270 N   0  0  0  0  0  0  0  0  0  0  0  0
    6.6240    3.1210   -0.1040 C   0  0  0  0  0  0  0  0  0  0  0  0
    5.6820    3.2420   -0.9350 O   0  0  0  0  0  0  0  0  0  0  0  0
    6.4380    2.3450    1.0570 N   0  0  0  0  0  0  0  0  0  0  0  0
    5.2620    1.5610    1.2900 C   0  0  0  0  0  0  0  0  0  0  0  0
    5.3040    0.4010    0.3070 C   0  0  1  0  0  0  0  0  0  0  0  0
    6.6520   -0.3340    0.4880 C   0  0  0  0  0  0  0  0  0  0  0  0
    4.2030   -0.4060    0.4780 O   0  0  0  0  0  0  0  0  0  0  0  0
    3.8160   -1.6180   -0.0400 C   0  0  0  0  0  0  0  0  0  0  0  0
    4.6450   -2.4290   -0.7470 C   0  0  0  0  0  0  0  0  0  0  0  0
    4.2470   -3.6240   -1.2750 C   0  0  0  0  0  0  0  0  0  0  0  0
    5.1990   -4.4250   -2.0250 C   0  0  0  0  0  0  0  0  0  0  0  0
    4.8620   -5.6510   -2.6390 N   0  0  0  0  0  0  0  0  0  0  0  0
    6.3910   -4.0460   -2.1590 O   0  0  0  0  0  0  0  0  0  0  0  0
    2.9320   -4.0400   -1.0820 C   0  0  0  0  0  0  0  0  0  0  0  0
    2.0960   -3.2100   -0.3590 C   0  0  0  0  0  0  0  0  0  0  0  0
    2.4640   -2.0010    0.1840 C   0  0  0  0  0  0  0  0  0  0  0  0
    1.5600   -1.1810    0.9050 N   0  0  0  0  0  0  0  0  0  0  0  0
    1.4690    0.1910    0.4350 C   0  0  0  0  0  0  0  0  0  0  0  0
    2.1880    0.6090   -0.7260 N   0  0  0  0  0  0  0  0  0  0  0  0
    0.7460    1.0070    1.0590 O   0  0  0  0  0  0  0  0  0  0  0  0
    0.7580   -1.6260    1.9990 C   0  0  1  0  0  0  0  0  0  0  0  0
    1.1700   -1.0680    3.3630 C   0  0  0  0  0  0  0  0  0  0  0  0
   -0.6700   -1.5250    1.8360 C   0  0  0  0  0  0  0  0  0  0  0  0
   -1.3490   -1.4250    2.9510 O   0  0  0  0  0  0  0  0  0  0  0  0
   -1.4900   -1.5110    0.6810 N   0  0  0  0  0  0  0  0  0  0  0  0
   -2.9010   -1.3560    0.8050 C   0  0  1  0  0  0  0  0  0  0  0  0
   -3.5640   -0.8300   -0.4160 C   0  0  0  0  0  0  0  0  0  0  0  0
   -4.5760    0.2370   -0.0570 C   0  0  1  0  0  0  0  0  0  0  0  0
   -5.4520    0.6240   -1.1940 C   0  0  0  0  0  0  0  0  0  0  0  0
   -5.5420   -0.0160   -2.2660 O   0  0  0  0  0  0  0  0  0  0  0  0
   -6.2600    1.8030   -1.0820 N   0  0  0  0  0  0  0  0  0  0  0  0
   -7.1950    2.2600   -2.0040 C   0  0  0  0  0  0  0  0  0  0  0  0
   -7.3960    1.5910   -3.0340 O   0  0  0  0  0  0  0  0  0  0  0  0
   -7.8900    3.5400   -1.6600 C   0  0  0  0  0  0  0  0  0  0  0  0
   -8.9200    3.9430   -2.5340 N   0  0  0  0  0  0  0  0  0  0  0  0
   -5.3720   -0.1190    1.1690 C   0  0  0  0  0  0  0  0  0  0  0  0
   -5.9890   -1.4630    1.2050 C   0  0  1  0  0  0  0  0  0  0  0  0
   -6.6420   -1.5970    2.5950 C   0  0  0  0  0  0  0  0  0  0  0  0
   -7.0960   -1.6500    0.2080 C   0  0  0  0  0  0  0  0  0  0  0  0
   -5.0590   -2.5620    1.1400 O   0  0  0  0  0  0  0  0  0  0  0  0
   -3.6840   -2.5260    1.2540 C   0  0  0  0  0  0  0  0  0  0  0  0
   -3.1050   -3.4760    1.7330 O   0  0  0  0  0  0  0  0  0  0  0  0
  1  2  3  0
  2  3  1  0
  3  4  1  0
  4  5  1  0
  5  6  2  0
  5  7  1  0
  7  8  1  0
  8  9  1  0
  9 10  1  1
  9 11  1  0
 11 12  1  0
 12 13  2  0
 12 20  1  0
 13 14  1  0
 14 15  1  0
 14 18  2  0
 15 16  1  0
 15 17  2  0
 18 19  1  0
 19 20  2  0
 20 21  1  0
 21 22  1  0
 21 25  1  0
 22 23  1  0
 22 24  2  0
 25 26  1  1
 25 27  1  0
 27 28  2  0
 27 29  1  0
 30 29  1  6
 30 31  1  0
 30 45  1  0
 31 32  1  0
 32 33  1  6
 32 40  1  0
 33 34  2  0
 33 35  1  0
 35 36  1  0
 36 37  2  0
 36 38  1  0
 38 39  1  0
 40 41  1  0
 41 42  1  1
 41 43  1  0
 41 44  1  0
 44 45  1  0
 45 46  2  0
M  CHG  1  39   1
M  END
