
     RDKit          3D

 47 51  0  0  0  0  0  0  0  0999 V2000
  -10.8830   -1.4450    0.2100 C   0  0  0  0  0  0  0  0  0  0  0  0
  -10.8320   -0.4090   -0.9310 C   0  0  0  0  0  0  0  0  0  0  0  0
   -9.7000    0.4410   -0.7480 O   0  0  0  0  0  0  0  0  0  0  0  0
   -8.4480   -0.1600   -0.7150 C   0  0  0  0  0  0  0  0  0  0  0  0
   -8.3900   -1.4040   -0.8410 O   0  0  0  0  0  0  0  0  0  0  0  0
   -7.1720    0.6180   -0.5410 C   0  0  0  0  0  0  0  0  0  0  0  0
   -6.0580   -0.2100   -0.5470 O   0  0  0  0  0  0  0  0  0  0  0  0
   -5.6840   -1.2080    0.2880 C   0  0  0  0  0  0  0  0  0  0  0  0
   -6.4320   -1.5740    1.4200 C   0  0  0  0  0  0  0  0  0  0  0  0
   -5.9360   -2.6050    2.1800 C   0  0  0  0  0  0  0  0  0  0  0  0
   -4.7780   -3.2960    1.9150 C   0  0  0  0  0  0  0  0  0  0  0  0
   -4.0290   -2.9270    0.7850 C   0  0  0  0  0  0  0  0  0  0  0  0
   -4.5000   -1.9050    0.0110 C   0  0  0  0  0  0  0  0  0  0  0  0
   -3.7830   -1.4470   -1.1820 C   0  0  0  0  0  0  0  0  0  0  0  0
   -4.0910   -1.8680   -2.2960 O   0  0  0  0  0  0  0  0  0  0  0  0
   -2.7010   -0.4810   -0.9830 N   0  0  0  0  0  0  0  0  0  0  0  0
   -2.1190   -0.0660   -2.2380 C   0  0  0  0  0  0  0  0  0  0  0  0
   -2.8310    1.1930   -2.7370 C   0  0  0  0  0  0  0  0  0  0  0  0
   -2.5610    1.7130   -3.8310 O   0  0  0  0  0  0  0  0  0  0  0  0
   -3.7850    1.7220   -1.8970 O   0  0  0  0  0  0  0  0  0  0  0  0
   -4.5070    2.8990   -2.2060 C   0  0  0  0  0  0  0  0  0  0  0  0
   -2.4500    0.0140    0.3170 C   0  0  2  0  0  0  0  0  0  0  0  0
   -2.1170    1.4590    0.4190 C   0  0  0  0  0  0  0  0  0  0  0  0
   -1.2990    0.3720    1.1570 C   0  0  2  0  0  0  0  0  0  0  0  0
    0.1030    0.2920    0.8090 C   0  0  0  0  0  0  0  0  0  0  0  0
    0.6390   -0.3480   -0.2660 C   0  0  0  0  0  0  0  0  0  0  0  0
    1.9990   -0.3930   -0.5410 C   0  0  0  0  0  0  0  0  0  0  0  0
    2.8930    0.2420    0.3180 C   0  0  0  0  0  0  0  0  0  0  0  0
    4.2680    0.2170    0.0140 N   0  0  0  0  0  0  0  0  0  0  0  0
    5.1110   -0.8930    0.5210 C   0  0  0  0  0  0  0  0  0  0  0  0
    5.9440   -1.2030   -0.6930 C   0  0  0  0  0  0  0  0  0  0  0  0
    7.0790   -0.2630   -0.9080 C   0  0  2  0  0  0  0  0  0  0  0  0
    7.8090    0.1670    0.3030 C   0  0  0  0  0  0  0  0  0  0  0  0
    7.2920    1.1360    1.1380 C   0  0  0  0  0  0  0  0  0  0  0  0
    8.0530    1.6310    2.2130 C   0  0  0  0  0  0  0  0  0  0  0  0
    9.3220    1.1440    2.4330 C   0  0  0  0  0  0  0  0  0  0  0  0
    9.8520    0.1810    1.6130 C   0  0  0  0  0  0  0  0  0  0  0  0
    9.0860   -0.3020    0.5480 C   0  0  0  0  0  0  0  0  0  0  0  0
    9.7550   -1.3520   -0.2210 C   0  0  0  0  0  0  0  0  0  0  0  0
    9.8790   -1.5020   -1.6600 C   0  0  0  0  0  0  0  0  0  0  0  0
   10.3180   -2.2740    0.4970 O   0  0  0  0  0  0  0  0  0  0  0  0
    6.2980    1.0210   -1.3710 C   0  0  0  0  0  0  0  0  0  0  0  0
    4.9600    1.1380   -0.8100 C   0  0  0  0  0  0  0  0  0  0  0  0
    4.3310    2.2100   -1.1020 O   0  0  0  0  0  0  0  0  0  0  0  0
    2.3820    0.8820    1.4050 C   0  0  0  0  0  0  0  0  0  0  0  0
    1.0120    0.9230    1.6730 C   0  0  0  0  0  0  0  0  0  0  0  0
    0.5600    1.6170    2.9000 C   0  0  0  0  0  0  0  0  0  0  0  0
  1  2  1  0
  2  3  1  0
  3  4  1  0
  4  5  2  0
  4  6  1  0
  6  7  1  0
  7  8  1  0
  8  9  2  0
  8 13  1  0
  9 10  1  0
 10 11  2  0
 11 12  1  0
 12 13  2  0
 13 14  1  0
 14 15  2  0
 14 16  1  0
 16 17  1  0
 22 16  1  6
 17 18  1  0
 18 19  2  0
 18 20  1  0
 20 21  1  0
 22 23  1  0
 22 24  1  0
 23 24  1  0
 24 25  1  6
 25 26  2  0
 25 46  1  0
 26 27  1  0
 27 28  2  0
 28 29  1  0
 28 45  1  0
 29 30  1  0
 29 43  1  0
 30 31  1  0
 31 32  1  0
 32 33  1  1
 32 42  1  0
 33 34  2  0
 33 38  1  0
 34 35  1  0
 35 36  2  0
 36 37  1  0
 37 38  2  0
 38 39  1  0
 39 40  1  0
 39 41  2  0
 42 43  1  0
 43 44  2  0
 45 46  2  0
 46 47  1  0
M  END
