
     RDKit          3D

 48 52  0  0  0  0  0  0  0  0999 V2000
   -4.0160    5.1130    1.8040 C   0  0  0  0  0  0  0  0  0  0  0  0
   -2.9320    4.8620    0.7950 C   0  0  0  0  0  0  0  0  0  0  0  0
   -2.8950    3.4090    0.4890 C   0  0  0  0  0  0  0  0  0  0  0  0
   -1.9070    2.5690    1.0020 C   0  0  0  0  0  0  0  0  0  0  0  0
   -1.8670    1.2340    0.7250 C   0  0  0  0  0  0  0  0  0  0  0  0
   -2.8500    0.6880   -0.1010 C   0  0  0  0  0  0  0  0  0  0  0  0
   -3.8480    1.4780   -0.6340 C   0  0  0  0  0  0  0  0  0  0  0  0
   -3.8450    2.8370   -0.3210 C   0  0  0  0  0  0  0  0  0  0  0  0
   -4.9170    3.6890   -0.8930 C   0  0  0  0  0  0  0  0  0  0  0  0
   -2.8530   -0.7240   -0.3650 N   0  0  0  0  0  0  0  0  0  0  0  0
   -4.0970   -1.3570   -0.6490 C   0  0  0  0  0  0  0  0  0  0  0  0
   -4.2700   -1.8870   -2.0120 C   0  0  0  0  0  0  0  0  0  0  0  0
   -5.3730   -2.4990   -2.2670 O   0  0  0  0  0  0  0  0  0  0  0  0
   -3.3980   -1.8110   -3.0580 O   0  0  0  0  0  0  0  0  0  0  0  0
   -3.6900   -2.3710   -4.3430 C   0  0  0  0  0  0  0  0  0  0  0  0
   -1.6330   -1.4920   -0.2950 C   0  0  1  0  0  0  0  0  0  0  0  0
   -0.9360   -1.4400   -1.5880 C   0  0  0  0  0  0  0  0  0  0  0  0
   -0.3990   -2.5910   -2.1740 C   0  0  0  0  0  0  0  0  0  0  0  0
    0.2700   -2.5990   -3.3700 C   0  0  0  0  0  0  0  0  0  0  0  0
    0.4350   -1.4130   -4.0530 C   0  0  0  0  0  0  0  0  0  0  0  0
   -0.0750   -0.2580   -3.5170 C   0  0  0  0  0  0  0  0  0  0  0  0
   -0.7460   -0.2640   -2.3140 C   0  0  0  0  0  0  0  0  0  0  0  0
   -0.8230   -1.0390    0.8260 N   0  0  0  0  0  0  0  0  0  0  0  0
   -0.0890   -2.0020    1.5570 C   0  0  0  0  0  0  0  0  0  0  0  0
   -0.8810   -2.7780    2.4240 C   0  0  0  0  0  0  0  0  0  0  0  0
   -0.3150   -3.7520    3.1910 C   0  0  0  0  0  0  0  0  0  0  0  0
    1.0420   -3.9810    3.1190 C   0  0  0  0  0  0  0  0  0  0  0  0
    1.6280   -5.0330    3.9510 C   0  0  0  0  0  0  0  0  0  0  0  0
    2.8630   -5.2890    3.9290 O   0  0  0  0  0  0  0  0  0  0  0  0
    0.8610   -5.8080    4.8100 O   0  0  0  0  0  0  0  0  0  0  0  0
    1.4730   -6.8310    5.6110 C   0  0  0  0  0  0  0  0  0  0  0  0
    1.8070   -3.2190    2.2700 C   0  0  0  0  0  0  0  0  0  0  0  0
    1.2530   -2.2070    1.4660 C   0  0  0  0  0  0  0  0  0  0  0  0
    2.1100   -1.4430    0.6040 C   0  0  0  0  0  0  0  0  0  0  0  0
    3.3740   -1.6930    0.5600 O   0  0  0  0  0  0  0  0  0  0  0  0
    1.6780   -0.4390   -0.1980 O   0  0  0  0  0  0  0  0  0  0  0  0
    2.4170    0.3630   -1.0670 C   0  0  0  0  0  0  0  0  0  0  0  0
    3.4650    1.1140   -0.2850 C   0  0  0  0  0  0  0  0  0  0  0  0
    4.2300    1.9590   -1.2410 C   0  0  0  0  0  0  0  0  0  0  0  0
    3.9630    1.9890   -2.4720 O   0  0  0  0  0  0  0  0  0  0  0  0
    5.3160    2.7750   -0.7420 C   0  0  0  0  0  0  0  0  0  0  0  0
    5.6210    2.7510    0.5900 C   0  0  0  0  0  0  0  0  0  0  0  0
    6.6510    3.5230    1.0680 C   0  0  0  0  0  0  0  0  0  0  0  0
    7.3770    4.3220    0.2050 C   0  0  0  0  0  0  0  0  0  0  0  0
    7.0670    4.3440   -1.1430 C   0  0  0  0  0  0  0  0  0  0  0  0
    6.0340    3.5640   -1.5950 C   0  0  0  0  0  0  0  0  0  0  0  0
   -0.8080    0.3200    1.2100 C   0  0  0  0  0  0  0  0  0  0  0  0
    0.0730    0.8130    1.9600 O   0  0  0  0  0  0  0  0  0  0  0  0
  1  2  1  0
  2  3  1  0
  3  4  2  0
  3  8  1  0
  4  5  1  0
  5  6  2  0
  5 47  1  0
  6  7  1  0
  6 10  1  0
  7  8  2  0
  8  9  1  0
 10 11  1  0
 10 16  1  0
 11 12  1  0
 12 13  2  0
 12 14  1  0
 14 15  1  0
 16 17  1  6
 16 23  1  0
 17 18  2  0
 17 22  1  0
 18 19  1  0
 19 20  2  0
 20 21  1  0
 21 22  2  0
 23 24  1  0
 23 47  1  0
 24 25  2  0
 24 33  1  0
 25 26  1  0
 26 27  2  0
 27 28  1  0
 27 32  1  0
 28 29  2  0
 28 30  1  0
 30 31  1  0
 32 33  2  0
 33 34  1  0
 34 35  2  0
 34 36  1  0
 36 37  1  0
 37 38  1  0
 38 39  1  0
 39 40  2  0
 39 41  1  0
 41 42  2  0
 41 46  1  0
 42 43  1  0
 43 44  2  0
 44 45  1  0
 45 46  2  0
 47 48  2  0
M  END
