
     RDKit          3D

 47 50  0  0  0  0  0  0  0  0999 V2000
   10.3750    4.1410    0.5550 C   0  0  0  0  0  0  0  0  0  0  0  0
   10.5390    2.6410    0.4910 C   0  0  0  0  0  0  0  0  0  0  0  0
    9.3090    2.0200    0.2750 O   0  0  0  0  0  0  0  0  0  0  0  0
    8.4540    2.3320    1.3180 C   0  0  0  0  0  0  0  0  0  0  0  0
    7.1260    1.6960    1.1420 C   0  0  0  0  0  0  0  0  0  0  0  0
    6.9350    1.0250    0.1470 O   0  0  0  0  0  0  0  0  0  0  0  0
    6.0870    1.8940    2.1670 C   0  0  0  0  0  0  0  0  0  0  0  0
    4.8780    1.2380    1.8580 O   0  0  0  0  0  0  0  0  0  0  0  0
    4.1120    1.4950    0.7430 C   0  0  0  0  0  0  0  0  0  0  0  0
    4.4850    2.3660   -0.0700 O   0  0  0  0  0  0  0  0  0  0  0  0
    2.8640    0.7770    0.4740 C   0  0  0  0  0  0  0  0  0  0  0  0
    2.4110   -0.2060    1.3270 C   0  0  0  0  0  0  0  0  0  0  0  0
    1.2260   -0.8610    1.0280 C   0  0  0  0  0  0  0  0  0  0  0  0
    0.4950   -0.5650   -0.0820 C   0  0  0  0  0  0  0  0  0  0  0  0
   -0.7660   -1.3020   -0.3970 N   0  0  0  0  0  0  0  0  0  0  0  0
   -0.5890   -2.2420   -1.3980 C   0  0  0  0  0  0  0  0  0  0  0  0
    0.6960   -2.2830   -1.8170 O   0  0  0  0  0  0  0  0  0  0  0  0
   -1.3510   -3.2100   -2.1490 C   0  0  0  0  0  0  0  0  0  0  0  0
   -2.6940   -3.4280   -2.0940 C   0  0  0  0  0  0  0  0  0  0  0  0
   -3.3230   -4.3930   -2.8300 C   0  0  0  0  0  0  0  0  0  0  0  0
   -2.6240   -5.2100   -3.6790 C   0  0  0  0  0  0  0  0  0  0  0  0
   -1.2580   -5.0190   -3.7640 C   0  0  0  0  0  0  0  0  0  0  0  0
   -0.4890   -5.9080   -4.6950 C   0  0  0  0  0  0  0  0  0  0  0  0
   -0.6470   -4.0560   -3.0270 C   0  0  0  0  0  0  0  0  0  0  0  0
   -1.9160   -0.9300    0.3880 C   0  0  1  0  0  0  0  0  0  0  0  0
   -2.5230   -2.0030    1.2160 C   0  0  2  0  0  0  0  0  0  0  0  0
   -3.6070   -1.4250    1.9230 O   0  0  0  0  0  0  0  0  0  0  0  0
   -1.6600   -2.6800    2.2340 C   0  0  0  0  0  0  0  0  0  0  0  0
   -2.5310   -3.7550    2.9140 C   0  0  2  0  0  0  0  0  0  0  0  0
   -3.0020   -4.7140    1.8460 C   0  0  0  0  0  0  0  0  0  0  0  0
   -3.6930   -3.1960    3.6430 C   0  0  0  0  0  0  0  0  0  0  0  0
   -1.4470    0.1370    1.3870 C   0  0  0  0  0  0  0  0  0  0  0  0
   -2.5330    1.0480    1.8080 C   0  0  0  0  0  0  0  0  0  0  0  0
   -3.1010    1.7960    0.6730 N   0  0  0  0  0  0  0  0  0  0  0  0
   -3.5700    3.0910    0.8540 C   0  0  0  0  0  0  0  0  0  0  0  0
   -3.5150    3.5440    2.0570 O   0  0  0  0  0  0  0  0  0  0  0  0
   -4.1100    3.9970   -0.1270 C   0  0  0  0  0  0  0  0  0  0  0  0
   -4.2500    3.8950   -1.4960 C   0  0  0  0  0  0  0  0  0  0  0  0
   -4.8410    5.0530   -1.9640 C   0  0  0  0  0  0  0  0  0  0  0  0
   -5.0480    5.8390   -0.8700 C   0  0  0  0  0  0  0  0  0  0  0  0
   -5.6780    7.2200   -0.8810 C   0  0  0  0  0  0  0  0  0  0  0  0
   -4.6180    5.2060    0.1660 O   0  0  0  0  0  0  0  0  0  0  0  0
   -3.1640    1.1150   -0.5590 C   0  0  0  0  0  0  0  0  0  0  0  0
   -2.9490   -0.3440   -0.5150 C   0  0  0  0  0  0  0  0  0  0  0  0
    0.9430    0.4070   -0.9250 C   0  0  0  0  0  0  0  0  0  0  0  0
    0.2250    0.7810   -2.1430 C   0  0  0  0  0  0  0  0  0  0  0  0
    2.1450    1.0840   -0.6390 C   0  0  0  0  0  0  0  0  0  0  0  0
  1  2  1  0
  2  3  1  0
  3  4  1  0
  4  5  1  0
  5  6  2  0
  5  7  1  0
  7  8  1  0
  8  9  1  0
  9 10  2  0
  9 11  1  0
 11 12  2  0
 11 47  1  0
 12 13  1  0
 13 14  2  0
 14 15  1  0
 14 45  1  0
 15 16  1  0
 25 15  1  6
 16 17  2  0
 16 18  1  0
 18 19  2  0
 18 24  1  0
 19 20  1  0
 20 21  2  0
 21 22  1  0
 22 23  1  0
 22 24  2  0
 25 26  1  0
 25 32  1  0
 25 44  1  0
 26 27  1  1
 26 28  1  0
 28 29  1  0
 29 30  1  6
 29 31  1  0
 32 33  1  0
 33 34  1  0
 34 35  1  0
 34 43  1  0
 35 36  2  0
 35 37  1  0
 37 38  2  0
 37 42  1  0
 38 39  1  0
 39 40  2  0
 40 41  1  0
 40 42  1  0
 43 44  1  0
 45 46  1  0
 45 47  2  0
M  END
