
     RDKit          3D

 34 40  0  0  0  0  0  0  0  0999 V2000
   -2.7320   -2.0240    1.1470 O   0  0  0  0  0  0  0  0  0  0  0  0
   -3.1450   -1.1080    0.3320 C   0  0  0  0  0  0  0  0  0  0  0  0
   -2.2650   -0.0500   -0.0050 N   0  0  0  0  0  0  0  0  0  0  0  0
   -0.9710   -0.0280    0.5790 C   0  0  2  0  0  0  0  0  0  0  0  0
   -0.3100    1.2480    0.7380 C   0  0  0  0  0  0  0  0  0  0  0  0
   -0.7490    2.5050    1.1820 C   0  0  0  0  0  0  0  0  0  0  0  0
    0.0960    3.5810    1.2840 C   0  0  0  0  0  0  0  0  0  0  0  0
    1.4200    3.4700    0.9510 C   0  0  0  0  0  0  0  0  0  0  0  0
    1.8740    2.2240    0.5070 C   0  0  0  0  0  0  0  0  0  0  0  0
    1.0190    1.1220    0.4010 C   0  0  0  0  0  0  0  0  0  0  0  0
    1.2530   -0.2150   -0.1660 C   0  0  0  0  0  0  0  0  0  0  0  0
    2.3540   -0.8230   -0.7140 C   0  0  0  0  0  0  0  0  0  0  0  0
    3.7280   -0.3730   -0.5170 C   0  0  0  0  0  0  0  0  0  0  0  0
    4.2740    0.3990    0.4290 N   0  0  0  0  0  0  0  0  0  0  0  0
    5.6090    0.4570    0.3440 C   0  0  0  0  0  0  0  0  0  0  0  0
    6.6150    1.0730    1.0530 C   0  0  0  0  0  0  0  0  0  0  0  0
    7.9380    0.9350    0.7360 C   0  0  0  0  0  0  0  0  0  0  0  0
    8.2530    0.1560   -0.3220 N   0  0  0  0  0  0  0  0  0  0  0  0
    7.2820   -0.4490   -1.0200 C   0  0  0  0  0  0  0  0  0  0  0  0
    5.9320   -0.3420   -0.7440 C   0  0  0  0  0  0  0  0  0  0  0  0
    4.7860   -0.8200   -1.2340 N   0  0  0  0  0  0  0  0  0  0  0  0
    2.2210   -2.1020   -1.2990 C   0  0  0  0  0  0  0  0  0  0  0  0
    1.0160   -2.7510   -1.3220 C   0  0  0  0  0  0  0  0  0  0  0  0
   -0.0550   -2.1040   -0.7500 C   0  0  0  0  0  0  0  0  0  0  0  0
    0.0380   -0.8550   -0.1740 C   0  0  0  0  0  0  0  0  0  0  0  0
   -4.4810   -1.2980   -0.1450 C   0  0  0  0  0  0  0  0  0  0  0  0
   -4.8320   -2.4630   -0.8210 C   0  0  0  0  0  0  0  0  0  0  0  0
   -6.0940   -2.6770   -1.3360 C   0  0  0  0  0  0  0  0  0  0  0  0
   -7.0180   -1.7010   -1.1660 N   0  0  0  0  0  0  0  0  0  0  0  0
   -6.7500   -0.5510   -0.5250 C   0  0  0  0  0  0  0  0  0  0  0  0
   -7.5190    0.5160   -0.2430 N   0  0  0  0  0  0  0  0  0  0  0  0
   -6.7840    1.4230    0.4430 C   0  0  0  0  0  0  0  0  0  0  0  0
   -5.5160    0.9080    0.5950 C   0  0  0  0  0  0  0  0  0  0  0  0
   -5.4640   -0.3450   -0.0080 C   0  0  0  0  0  0  0  0  0  0  0  0
  1  2  2  0
  2  3  1  0
  2 26  1  0
  4  3  1  6
  4  5  1  0
  4 25  1  0
  5  6  2  0
  5 10  1  0
  6  7  1  0
  7  8  2  0
  8  9  1  0
  9 10  2  0
 10 11  1  0
 11 12  2  0
 11 25  1  0
 12 13  1  0
 12 22  1  0
 13 14  2  0
 13 21  1  0
 14 15  1  0
 15 16  2  0
 15 20  1  0
 16 17  1  0
 17 18  2  0
 18 19  1  0
 19 20  2  0
 20 21  1  0
 22 23  2  0
 23 24  1  0
 24 25  2  0
 26 27  2  0
 26 34  1  0
 27 28  1  0
 28 29  2  0
 29 30  1  0
 30 31  1  0
 30 34  2  0
 31 32  1  0
 32 33  2  0
 33 34  1  0
M  END
