
     RDKit          3D

 14 14  0  0  0  0  0  0  0  0999 V2000
   -0.4070    1.6700   -0.1230 N   0  0  0  0  0  0  0  0  0  0  0  0
    0.2100    0.3440   -0.1260 C   0  0  1  0  0  0  0  0  0  0  0  0
    1.1920    0.3440   -1.1050 O   0  0  0  0  0  0  0  0  0  0  0  0
    1.7570   -0.8260   -1.1290 O   0  0  0  0  0  0  0  0  0  0  0  0
    3.1890   -0.7770   -2.0520 Cl  0  0  0  0  0  0  0  0  0  0  0  0
    0.8850    0.1430    1.1780 C   0  0  0  0  0  0  0  0  0  0  0  0
    2.1930    1.2690    1.4580 Cl  0  0  0  0  0  0  0  0  0  0  0  0
    0.7030   -0.6890    2.1370 N   0  0  0  0  0  0  0  0  0  0  0  0
   -0.2330   -1.6860    2.2210 O   0  0  0  0  0  0  0  0  0  0  0  0
   -1.1430   -2.0100    1.2770 O   0  0  0  0  0  0  0  0  0  0  0  0
   -0.4980   -1.9510    0.1270 O   0  0  0  0  0  0  0  0  0  0  0  0
   -0.7910   -0.7180   -0.4490 C   0  0  1  0  0  0  0  0  0  0  0  0
   -2.1000   -0.3270   -0.1000 O   0  0  0  0  0  0  0  0  0  0  0  0
   -0.8100   -0.9400   -2.2240 Cl  0  0  0  0  0  0  0  0  0  0  0  0
  2  1  1  1
  2  3  1  0
  2  6  1  0
  2 12  1  0
  3  4  1  0
  4  5  1  0
  6  7  1  0
  6  8  2  0
  8  9  1  0
  9 10  1  0
 10 11  1  0
 11 12  1  0
 12 13  1  1
 12 14  1  0
M  CHG  1   1   1
M  END
