
     RDKit          3D

 12 12  0  0  0  0  0  0  0  0999 V2000
    2.0700   -0.0800    0.3640 N   0  0  0  0  0  0  0  0  0  0  0  0
    0.9830   -0.4140   -0.2360 C   0  0  0  0  0  0  0  0  0  0  0  0
    0.8230   -1.7350   -0.5960 O   0  0  0  0  0  0  0  0  0  0  0  0
    1.9150   -2.5350   -0.6620 O   0  0  0  0  0  0  0  0  0  0  0  0
   -0.0520    0.6270   -0.5190 C   0  0  1  0  0  0  0  0  0  0  0  0
    0.1880    1.9190   -0.1130 O   0  0  0  0  0  0  0  0  0  0  0  0
    0.3460    1.9900    1.1760 O   0  0  0  0  0  0  0  0  0  0  0  0
    0.8910    3.5180    1.6690 Cl  0  0  0  0  0  0  0  0  0  0  0  0
   -0.7970    0.3960   -1.6950 O   0  0  0  0  0  0  0  0  0  0  0  0
   -1.4420    0.1300   -0.4000 C   0  0  0  0  0  0  0  0  0  0  0  0
   -2.5190   -0.2680    0.1730 N   0  0  0  0  0  0  0  0  0  0  0  0
   -3.9230   -0.7400   -0.7220 Cl  0  0  0  0  0  0  0  0  0  0  0  0
  1  2  2  0
  2  3  1  0
  2  5  1  0
  3  4  1  0
  5  6  1  1
  5  9  1  0
  5 10  1  0
  6  7  1  0
  7  8  1  0
  9 10  1  0
 10 11  2  3
 11 12  1  0
M  CHG  1  11   1
M  END
