
     RDKit          3D

 13 13  0  0  0  0  0  0  0  0999 V2000
   -0.3520    2.3890    0.3880 O   0  0  0  0  0  0  0  0  0  0  0  0
   -0.8180    1.3560   -0.0970 C   0  0  0  0  0  0  0  0  0  0  0  0
   -1.6990    1.3470   -1.1560 O   0  0  0  0  0  0  0  0  0  0  0  0
   -2.2250    0.0910   -1.3060 O   0  0  0  0  0  0  0  0  0  0  0  0
   -1.7220   -0.7710   -0.3660 C   0  0  0  0  0  0  0  0  0  0  0  0
   -2.1370   -1.9300   -0.1210 O   0  0  0  0  0  0  0  0  0  0  0  0
   -0.5830   -0.0210    0.2900 C   0  0  2  0  0  0  0  0  0  0  0  0
   -0.8240   -0.2820    2.0450 Cl  0  0  0  0  0  0  0  0  0  0  0  0
    0.5950   -0.6260   -0.1910 N   0  0  0  0  0  0  0  0  0  0  0  0
    1.8530   -0.1300    0.1710 C   0  0  1  0  0  0  0  0  0  0  0  0
    3.0830   -1.1970   -0.6130 Cl  0  0  0  0  0  0  0  0  0  0  0  0
    2.1690    1.4840   -0.5520 Cl  0  0  0  0  0  0  0  0  0  0  0  0
    2.1840   -0.0960    1.8970 Cl  0  0  0  0  0  0  0  0  0  0  0  0
  1  2  2  0
  2  3  1  0
  2  7  1  0
  3  4  1  0
  4  5  1  0
  5  6  2  0
  5  7  1  0
  7  8  1  1
  7  9  1  0
  9 10  1  0
 10 11  1  6
 10 12  1  0
 10 13  1  0
M  END
