
     RDKit          3D

 12 12  0  0  0  0  0  0  0  0999 V2000
   -3.4730   -1.1140    0.3120 C   0  0  0  0  0  0  0  0  0  0  0  0
   -2.4200   -0.4080   -0.0270 C   0  0  0  0  0  0  0  0  0  0  0  0
   -2.5320    1.0130   -0.4890 C   0  0  0  0  0  0  0  0  0  0  0  0
   -1.4230    1.7860   -0.0500 O   0  0  0  0  0  0  0  0  0  0  0  0
   -0.1330    1.2380    0.0020 C   0  0  0  0  0  0  0  0  0  0  0  0
    1.0480    2.1430    0.0170 C   0  0  0  0  0  0  0  0  0  0  0  0
    0.0700   -0.0600    0.0380 C   0  0  0  0  0  0  0  0  0  0  0  0
    1.4280   -0.5790    0.0920 C   0  0  0  0  0  0  0  0  0  0  0  0
    2.5550   -1.0030    0.1160 C   0  0  0  0  0  0  0  0  0  0  0  0
    3.9170   -1.5420    0.1490 C   0  0  0  0  0  0  0  0  0  0  0  0
   -1.0660   -0.9710    0.0260 C   0  0  0  0  0  0  0  0  0  0  0  0
   -0.9370   -2.2030    0.0580 O   0  0  0  0  0  0  0  0  0  0  0  0
  1  2  2  0
  2  3  1  0
  2 11  1  0
  3  4  1  0
  4  5  1  0
  5  6  1  0
  5  7  2  0
  7  8  1  0
  7 11  1  0
  8  9  3  0
  9 10  1  0
 11 12  2  0
M  END
