
     RDKit          3D

 23 26  0  0  0  0  0  0  0  0999 V2000
    5.9980    0.3300    2.1380 C   0  0  0  0  0  0  0  0  0  0  0  0
    4.8290    0.1470    1.2980 N   0  0  0  0  0  0  0  0  0  0  0  0
    3.5940    0.3500    1.6590 N   0  0  0  0  0  0  0  0  0  0  0  0
    2.7180    0.0830    0.6230 C   0  0  0  0  0  0  0  0  0  0  0  0
    1.2830    0.2510    0.7330 C   0  0  0  0  0  0  0  0  0  0  0  0
    0.8410    1.0220    1.6520 O   0  0  0  0  0  0  0  0  0  0  0  0
    0.3060   -0.3540   -0.0700 N   0  0  0  0  0  0  0  0  0  0  0  0
   -1.1210   -0.1120    0.1150 C   0  0  1  0  0  0  0  0  0  0  0  0
   -1.7430    0.5400   -1.0960 C   0  0  0  0  0  0  0  0  0  0  0  0
   -3.1940    0.8360   -0.7300 C   0  0  2  0  0  0  0  0  0  0  0  0
   -3.2470    1.8740    0.3270 C   0  0  0  0  0  0  0  0  0  0  0  0
   -3.5300    1.3930    1.6990 C   0  0  0  0  0  0  0  0  0  0  0  0
   -3.2810   -0.0430    1.9570 C   0  0  0  0  0  0  0  0  0  0  0  0
   -3.3060   -0.9390    0.7800 C   0  0  2  0  0  0  0  0  0  0  0  0
   -1.8800   -1.3680    0.4060 C   0  0  0  0  0  0  0  0  0  0  0  0
   -3.8930   -0.3860   -0.4020 N   0  0  1  0  0  0  0  0  0  0  0  0
   -5.3000   -0.1550   -0.3240 C   0  0  0  0  0  0  0  0  0  0  0  0
    3.5200   -0.3030   -0.4200 C   0  0  0  0  0  0  0  0  0  0  0  0
    3.2810   -0.6810   -1.7200 C   0  0  0  0  0  0  0  0  0  0  0  0
    4.3640   -1.0010   -2.5250 C   0  0  0  0  0  0  0  0  0  0  0  0
    5.6690   -0.9610   -2.0950 C   0  0  0  0  0  0  0  0  0  0  0  0
    5.9110   -0.5780   -0.7850 C   0  0  0  0  0  0  0  0  0  0  0  0
    4.8430   -0.2580    0.0240 C   0  0  0  0  0  0  0  0  0  0  0  0
  1  2  1  0
  2  3  1  0
  2 23  1  0
  3  4  2  0
  4  5  1  0
  4 18  1  0
  5  6  2  0
  5  7  1  0
  8  7  1  6
  8  9  1  0
  8 15  1  0
 10  9  1  1
 10 11  1  0
 10 16  1  0
 11 12  1  0
 12 13  1  0
 14 13  1  1
 14 15  1  0
 14 16  1  0
 16 17  1  1
 18 19  2  0
 18 23  1  0
 19 20  1  0
 20 21  2  0
 21 22  1  0
 22 23  2  0
M  CHG  1  16   1
M  END
