
     RDKit          3D

 22 23  0  0  0  0  0  0  0  0999 V2000
    4.3860    0.8360    1.9180 C   0  0  0  0  0  0  0  0  0  0  0  0
    4.0910   -0.9470    1.5860 S   0  0  0  0  0  0  0  0  0  0  0  0
    3.1380   -1.0360    0.0450 C   0  0  0  0  0  0  0  0  0  0  0  0
    1.7950   -0.4590    0.2880 C   0  0  0  0  0  0  0  0  0  0  0  0
    1.4320   -0.0440    1.4240 O   0  0  0  0  0  0  0  0  0  0  0  0
    0.8180   -0.3330   -0.7480 N   0  0  0  0  0  0  0  0  0  0  0  0
   -0.4660    0.2150   -0.4950 C   0  0  0  0  0  0  0  0  0  0  0  0
   -0.7570    1.5690   -0.5570 C   0  0  0  0  0  0  0  0  0  0  0  0
    0.3070    2.4950   -0.9170 C   0  0  0  0  0  0  0  0  0  0  0  0
    0.5690    3.6350   -0.3310 C   0  0  0  0  0  0  0  0  0  0  0  0
    1.5810    4.4110   -0.7520 F   0  0  0  0  0  0  0  0  0  0  0  0
   -0.1620    4.0470    0.7070 F   0  0  0  0  0  0  0  0  0  0  0  0
   -2.0500    1.9790   -0.2900 C   0  0  0  0  0  0  0  0  0  0  0  0
   -2.3090    3.2080   -0.3490 O   0  0  0  0  0  0  0  0  0  0  0  0
   -3.0290    1.1170    0.0280 N   0  0  0  0  0  0  0  0  0  0  0  0
   -2.7720   -0.2140    0.0960 C   0  0  0  0  0  0  0  0  0  0  0  0
   -3.7680   -1.1120    0.4210 C   0  0  0  0  0  0  0  0  0  0  0  0
   -3.4490   -2.4480    0.4740 C   0  0  0  0  0  0  0  0  0  0  0  0
   -2.1820   -2.9190    0.2180 C   0  0  0  0  0  0  0  0  0  0  0  0
   -1.8340   -4.2620    0.2650 O   0  0  0  0  0  0  0  0  0  0  0  0
   -1.2070   -1.9930   -0.1040 C   0  0  0  0  0  0  0  0  0  0  0  0
   -1.4880   -0.6460   -0.1680 C   0  0  0  0  0  0  0  0  0  0  0  0
  1  2  1  0
  2  3  1  0
  3  4  1  0
  4  5  2  0
  4  6  1  0
  6  7  1  0
  7  8  2  0
  7 22  1  0
  8  9  1  0
  8 13  1  0
  9 10  2  3
 10 11  1  0
 10 12  1  0
 13 14  2  0
 13 15  1  0
 15 16  1  0
 16 17  2  0
 16 22  1  0
 17 18  1  0
 18 19  2  0
 19 20  1  0
 19 21  1  0
 21 22  2  0
M  END
