
     RDKit          3D

 23 23  0  0  0  0  0  0  0  0999 V2000
   -4.4020   -1.9410   -0.7620 O   0  0  0  0  0  0  0  0  0  0  0  0
   -3.1520   -1.7750   -0.9500 C   0  0  0  0  0  0  0  0  0  0  0  0
   -2.7440   -1.8020   -2.2880 O   0  0  0  0  0  0  0  0  0  0  0  0
   -2.2010   -1.5690    0.1670 C   0  0  2  0  0  0  0  0  0  0  0  0
   -2.9280   -1.5920    1.4440 C   0  0  0  0  0  0  0  0  0  0  0  0
   -3.9240   -0.6290    1.5860 O   0  0  0  0  0  0  0  0  0  0  0  0
   -1.3210   -0.3810   -0.1310 C   0  0  1  0  0  0  0  0  0  0  0  0
   -2.1320    0.8540   -0.3040 C   0  0  0  0  0  0  0  0  0  0  0  0
   -1.4560    2.1190   -0.6480 C   0  0  1  0  0  0  0  0  0  0  0  0
   -2.5050    3.0920   -0.7670 O   0  0  0  0  0  0  0  0  0  0  0  0
   -0.5880    2.6520    0.2760 O   0  0  0  0  0  0  0  0  0  0  0  0
   -0.2270   -0.2080    0.8500 C   0  0  0  0  0  0  0  0  0  0  0  0
    1.0770   -0.4930    0.1190 C   0  0  2  0  0  0  0  0  0  0  0  0
    1.9540   -1.2490    1.0520 C   0  0  0  0  0  0  0  0  0  0  0  0
    2.2790   -0.4120    2.1170 O   0  0  0  0  0  0  0  0  0  0  0  0
    1.6360    0.6400   -0.4160 O   0  0  0  0  0  0  0  0  0  0  0  0
    2.8080    0.4290   -1.0920 C   0  0  1  0  0  0  0  0  0  0  0  0
    2.7370    0.9010   -2.4230 O   0  0  0  0  0  0  0  0  0  0  0  0
    3.9150    1.2410   -0.4540 C   0  0  1  0  0  0  0  0  0  0  0  0
    5.1310    1.0320   -1.1440 O   0  0  0  0  0  0  0  0  0  0  0  0
    3.6520    2.6110   -0.5410 O   0  0  0  0  0  0  0  0  0  0  0  0
    0.5290   -1.3300   -1.0200 C   0  0  0  0  0  0  0  0  0  0  0  0
   -0.6610   -0.6920   -1.3180 O   0  0  0  0  0  0  0  0  0  0  0  0
  1  2  2  0
  2  3  1  0
  2  4  1  0
  4  5  1  1
  4  7  1  0
  5  6  1  0
  7  8  1  6
  7 12  1  0
  7 23  1  0
  8  9  1  0
  9 10  1  1
  9 11  1  0
 12 13  1  0
 13 14  1  1
 13 16  1  0
 13 22  1  0
 14 15  1  0
 16 17  1  0
 17 18  1  6
 17 19  1  0
 19 20  1  6
 19 21  1  0
 22 23  1  0
M  END
