
     RDKit          3D

 22 22  0  0  0  0  0  0  0  0999 V2000
   -1.3690   -2.8860   -1.7990 O   0  0  0  0  0  0  0  0  0  0  0  0
   -1.0930   -2.5850   -0.6100 C   0  0  0  0  0  0  0  0  0  0  0  0
   -0.8290   -3.6420    0.2460 O   0  0  0  0  0  0  0  0  0  0  0  0
   -1.0730   -1.1770   -0.2260 C   0  0  2  0  0  0  0  0  0  0  0  0
   -1.3760   -0.3660   -1.3030 O   0  0  0  0  0  0  0  0  0  0  0  0
    0.3510   -0.8670    0.2600 C   0  0  0  0  0  0  0  0  0  0  0  0
    0.4280    0.6360    0.3530 C   0  0  2  0  0  0  0  0  0  0  0  0
    1.6990    0.9990    0.7820 O   0  0  0  0  0  0  0  0  0  0  0  0
    2.4310    1.6850   -0.1630 C   0  0  1  0  0  0  0  0  0  0  0  0
    2.7340    2.9900    0.2230 O   0  0  0  0  0  0  0  0  0  0  0  0
    3.6150    1.0400   -0.4840 O   0  0  0  0  0  0  0  0  0  0  0  0
    3.6130    0.7190   -1.8300 C   0  0  0  0  0  0  0  0  0  0  0  0
    4.8910    0.0120   -2.2170 C   0  0  0  0  0  0  0  0  0  0  0  0
    5.9840    0.8330   -1.9600 O   0  0  0  0  0  0  0  0  0  0  0  0
   -0.6160    1.2530    1.1900 C   0  0  0  0  0  0  0  0  0  0  0  0
   -1.9690    0.6160    1.1330 C   0  0  2  0  0  0  0  0  0  0  0  0
   -2.6220    1.1800    0.0120 O   0  0  0  0  0  0  0  0  0  0  0  0
   -2.7850    1.0300    2.3430 C   0  0  0  0  0  0  0  0  0  0  0  0
   -2.1820    0.4900    3.4790 O   0  0  0  0  0  0  0  0  0  0  0  0
   -1.9630   -0.8580    0.9490 C   0  0  1  0  0  0  0  0  0  0  0  0
   -3.3690   -1.3780    0.7500 C   0  0  0  0  0  0  0  0  0  0  0  0
   -3.3720   -2.7720    0.5850 O   0  0  0  0  0  0  0  0  0  0  0  0
  1  2  2  0
  2  3  1  0
  2  4  1  0
  4  5  1  6
  4  6  1  0
  4 20  1  0
  6  7  1  0
  7  8  1  1
  7 15  1  0
  8  9  1  0
  9 10  1  1
  9 11  1  0
 11 12  1  0
 12 13  1  0
 13 14  1  0
 15 16  1  0
 16 17  1  6
 16 18  1  0
 16 20  1  0
 18 19  1  0
 20 21  1  6
 21 22  1  0
M  END
