
     RDKit          3D

 23 23  0  0  0  0  0  0  0  0999 V2000
    1.5890   -1.5100    1.3550 O   0  0  0  0  0  0  0  0  0  0  0  0
    2.0990   -0.6580    0.5890 C   0  0  0  0  0  0  0  0  0  0  0  0
    3.4420   -0.7190    0.3420 O   0  0  0  0  0  0  0  0  0  0  0  0
    4.3310   -1.6590    0.8700 C   0  0  0  0  0  0  0  0  0  0  0  0
    5.7200   -1.3220    0.3080 C   0  0  1  0  0  0  0  0  0  0  0  0
    6.0960   -0.0350    0.6840 O   0  0  0  0  0  0  0  0  0  0  0  0
    6.6280   -2.2870    0.7040 O   0  0  0  0  0  0  0  0  0  0  0  0
    1.2140    0.3660   -0.0050 C   0  0  1  0  0  0  0  0  0  0  0  0
    1.9040    1.2430   -0.8310 O   0  0  0  0  0  0  0  0  0  0  0  0
    0.0980   -0.2480   -0.8290 C   0  0  0  0  0  0  0  0  0  0  0  0
   -0.9650    0.7860   -0.7770 C   0  0  1  0  0  0  0  0  0  0  0  0
   -1.0500    1.3750   -2.0390 O   0  0  0  0  0  0  0  0  0  0  0  0
   -2.3080    0.2910   -0.3110 C   0  0  2  0  0  0  0  0  0  0  0  0
   -2.7310   -0.7950   -1.3010 C   0  0  0  0  0  0  0  0  0  0  0  0
   -2.7930   -0.1800   -2.5520 O   0  0  0  0  0  0  0  0  0  0  0  0
   -3.3440    1.3850   -0.4420 C   0  0  0  0  0  0  0  0  0  0  0  0
   -4.6060    1.0380   -0.0540 O   0  0  0  0  0  0  0  0  0  0  0  0
   -2.2260   -0.3030    1.0500 C   0  0  0  0  0  0  0  0  0  0  0  0
   -3.4880   -0.8330    1.6310 C   0  0  0  0  0  0  0  0  0  0  0  0
   -3.1210   -1.3510    2.9070 O   0  0  0  0  0  0  0  0  0  0  0  0
   -0.3680    1.8270    0.1370 C   0  0  2  0  0  0  0  0  0  0  0  0
    0.3840    2.7770   -0.5530 O   0  0  0  0  0  0  0  0  0  0  0  0
    0.5180    1.0930    0.9550 O   0  0  0  0  0  0  0  0  0  0  0  0
  1  2  2  0
  2  3  1  0
  2  8  1  0
  3  4  1  0
  4  5  1  0
  5  6  1  1
  5  7  1  0
  8  9  1  6
  8 10  1  0
  8 23  1  0
 10 11  1  0
 11 12  1  6
 11 13  1  0
 11 21  1  0
 13 14  1  6
 13 16  1  0
 13 18  1  0
 14 15  1  0
 16 17  1  0
 18 19  1  0
 19 20  1  0
 21 22  1  6
 21 23  1  0
M  END
