
     RDKit          3D

 13 12  0  0  0  0  0  0  0  0999 V2000
   -2.4930   -2.5100    0.2670 C   0  0  0  0  0  0  0  0  0  0  0  0
   -1.7020   -1.3880    0.4890 O   0  0  0  0  0  0  0  0  0  0  0  0
   -1.0490   -0.6580   -0.5050 C   0  0  0  0  0  0  0  0  0  0  0  0
   -1.1760   -1.1650   -1.7320 C   0  0  0  0  0  0  0  0  0  0  0  0
   -0.6290   -0.6260   -2.8630 O   0  0  0  0  0  0  0  0  0  0  0  0
   -0.2960    0.5410   -0.2450 C   0  0  0  0  0  0  0  0  0  0  0  0
   -0.1810    1.0610    0.9380 C   0  0  0  0  0  0  0  0  0  0  0  0
   -0.6930    0.6760    2.2410 C   0  0  0  0  0  0  0  0  0  0  0  0
    0.4510    0.4430    3.1320 N   0  0  0  0  0  0  0  0  0  0  0  0
    0.3280    1.1520   -1.3020 O   0  0  0  0  0  0  0  0  0  0  0  0
    1.5990    1.0360   -1.8080 C   0  0  0  0  0  0  0  0  0  0  0  0
    2.6150    1.3980   -0.7430 C   0  0  0  0  0  0  0  0  0  0  0  0
    2.5520    0.5750    0.3660 O   0  0  0  0  0  0  0  0  0  0  0  0
  1  2  1  0
  2  3  1  0
  3  4  2  3
  3  6  1  0
  4  5  1  0
  6  7  2  3
  6 10  1  0
  7  8  1  0
  8  9  1  0
 10 11  1  0
 11 12  1  0
 12 13  1  0
M  END
