
     RDKit          3D

 22 23  0  0  0  0  0  0  0  0999 V2000
    5.0310    0.7220   -0.5200 O   0  0  0  0  0  0  0  0  0  0  0  0
    4.4130    0.4340    0.5400 C   0  0  0  0  0  0  0  0  0  0  0  0
    4.8420    0.9000    1.7800 O   0  0  0  0  0  0  0  0  0  0  0  0
    4.2320    0.1300    2.8200 C   0  0  0  0  0  0  0  0  0  0  0  0
    2.8670   -0.1270    2.2220 C   0  0  0  0  0  0  0  0  0  0  0  0
    3.2040   -0.3790    0.7490 C   0  0  1  0  0  0  0  0  0  0  0  0
    2.1120    0.0210    0.0280 O   0  0  0  0  0  0  0  0  0  0  0  0
    1.4940   -1.0050   -0.6810 C   0  0  1  0  0  0  0  0  0  0  0  0
    0.2570   -1.2040   -0.1330 O   0  0  0  0  0  0  0  0  0  0  0  0
   -0.7060   -0.4120   -0.7250 C   0  0  2  0  0  0  0  0  0  0  0  0
   -0.2040    0.8690   -0.9120 O   0  0  0  0  0  0  0  0  0  0  0  0
   -1.9800   -0.3470    0.1030 C   0  0  0  0  0  0  0  0  0  0  0  0
   -2.9340    0.4340   -0.4770 O   0  0  0  0  0  0  0  0  0  0  0  0
   -4.1100    0.4540    0.2120 C   0  0  0  0  0  0  0  0  0  0  0  0
   -4.0720    0.9610    1.6280 C   0  0  1  0  0  0  0  0  0  0  0  0
   -5.4210    0.9310    2.0660 O   0  0  0  0  0  0  0  0  0  0  0  0
   -3.3370    0.1140    2.4810 O   0  0  0  0  0  0  0  0  0  0  0  0
   -0.9580   -1.0470   -2.0770 C   0  0  1  0  0  0  0  0  0  0  0  0
   -2.0810   -0.5320   -2.7040 O   0  0  0  0  0  0  0  0  0  0  0  0
    0.2790   -0.8430   -2.8890 C   0  0  0  0  0  0  0  0  0  0  0  0
    1.5280   -0.6760   -2.1240 C   0  0  1  0  0  0  0  0  0  0  0  0
    2.0000    0.6420   -2.3370 O   0  0  0  0  0  0  0  0  0  0  0  0
  1  2  2  0
  2  3  1  0
  2  6  1  0
  3  4  1  0
  4  5  1  0
  5  6  1  0
  6  7  1  6
  8  7  1  1
  8  9  1  0
  8 21  1  0
  9 10  1  0
 10 11  1  6
 10 12  1  0
 10 18  1  0
 12 13  1  0
 13 14  1  0
 14 15  1  0
 15 16  1  1
 15 17  1  0
 18 19  1  6
 18 20  1  0
 20 21  1  0
 21 22  1  1
M  END
