
     RDKit          3D

 28 31  0  0  0  0  0  0  0  0999 V2000
    3.2940    1.1610   -3.9450 C   0  0  0  0  0  0  0  0  0  0  0  0
    3.6700    0.3260   -2.8330 N   0  0  0  0  0  0  0  0  0  0  0  0
    2.6290   -0.2940   -2.0910 C   0  0  0  0  0  0  0  0  0  0  0  0
    2.7170   -0.4750   -0.7760 C   0  0  0  0  0  0  0  0  0  0  0  0
    1.6330   -1.1140   -0.0440 C   0  0  0  0  0  0  0  0  0  0  0  0
    1.6950   -1.3080    1.2720 C   0  0  0  0  0  0  0  0  0  0  0  0
    0.6650   -1.9160    1.9770 O   0  0  0  0  0  0  0  0  0  0  0  0
   -0.3410   -1.0730    2.5360 C   0  0  0  0  0  0  0  0  0  0  0  0
   -1.0350   -0.2920    1.4910 C   0  0  0  0  0  0  0  0  0  0  0  0
   -0.5540    0.9490    1.1270 C   0  0  0  0  0  0  0  0  0  0  0  0
   -1.1560    1.7160    0.1650 C   0  0  0  0  0  0  0  0  0  0  0  0
   -2.3020    1.2620   -0.4950 C   0  0  0  0  0  0  0  0  0  0  0  0
   -2.7930    0.0380   -0.1500 C   0  0  0  0  0  0  0  0  0  0  0  0
   -2.1610   -0.7230    0.8320 C   0  0  0  0  0  0  0  0  0  0  0  0
   -3.9440   -0.4300   -0.8180 N   0  0  0  0  0  0  0  0  0  0  0  0
   -4.5540    0.2190   -1.7250 C   0  0  0  0  0  0  0  0  0  0  0  0
   -5.7240   -0.4270   -2.2970 N   0  0  0  0  0  0  0  0  0  0  0  0
   -6.3440   -1.5570   -1.6430 C   0  0  0  0  0  0  0  0  0  0  0  0
   -4.1270    1.5350   -2.1910 C   0  0  0  0  0  0  0  0  0  0  0  0
   -2.9440    2.0900   -1.5160 C   0  0  0  0  0  0  0  0  0  0  0  0
    2.8690   -0.8800    2.0310 C   0  0  0  0  0  0  0  0  0  0  0  0
    2.9120   -1.0920    3.3940 C   0  0  0  0  0  0  0  0  0  0  0  0
    4.0400   -0.6710    4.0620 C   0  0  0  0  0  0  0  0  0  0  0  0
    4.1220   -0.8680    5.4530 O   0  0  0  0  0  0  0  0  0  0  0  0
    5.0980   -0.0590    3.4170 C   0  0  0  0  0  0  0  0  0  0  0  0
    5.0010    0.1260    2.0560 C   0  0  0  0  0  0  0  0  0  0  0  0
    3.8910   -0.2760    1.3260 C   0  0  0  0  0  0  0  0  0  0  0  0
    3.8310   -0.0690   -0.0570 O   0  0  0  0  0  0  0  0  0  0  0  0
  1  2  1  0
  2  3  1  0
  3  4  2  3
  4  5  1  0
  4 28  1  0
  5  6  2  0
  6  7  1  0
  6 21  1  0
  7  8  1  0
  8  9  1  0
  9 10  2  0
  9 14  1  0
 10 11  1  0
 11 12  2  0
 12 13  1  0
 12 20  1  0
 13 14  2  0
 13 15  1  0
 15 16  2  0
 16 17  1  0
 16 19  1  0
 17 18  1  0
 19 20  1  0
 21 22  2  0
 21 27  1  0
 22 23  1  0
 23 24  1  0
 23 25  2  0
 25 26  1  0
 26 27  2  0
 27 28  1  0
M  END
