
     RDKit          3D

 23 25  0  0  0  0  0  0  0  0999 V2000
   -7.0320    0.3950    0.4880 O   0  0  0  0  0  0  0  0  0  0  0  0
   -5.8280    0.1260    0.3980 C   0  0  0  0  0  0  0  0  0  0  0  0
   -4.8920    0.6690    1.3420 N   0  0  0  0  0  0  0  0  0  0  0  0
   -3.5600    0.2610    1.6920 C   0  0  0  0  0  0  0  0  0  0  0  0
   -2.6360    0.1120    0.5470 C   0  0  0  0  0  0  0  0  0  0  0  0
   -1.3650    0.4840    0.5270 O   0  0  0  0  0  0  0  0  0  0  0  0
   -0.8110    0.2240   -0.6160 C   0  0  0  0  0  0  0  0  0  0  0  0
    0.3570    0.3040   -1.3380 C   0  0  0  0  0  0  0  0  0  0  0  0
    1.5630    0.8250   -0.9080 O   0  0  0  0  0  0  0  0  0  0  0  0
    2.5490    0.0790   -0.2810 C   0  0  0  0  0  0  0  0  0  0  0  0
    2.3210   -1.1370   -0.0970 O   0  0  0  0  0  0  0  0  0  0  0  0
    3.7830    0.6400    0.1520 N   0  0  0  0  0  0  0  0  0  0  0  0
    4.7350   -0.2530    0.7990 C   0  0  0  0  0  0  0  0  0  0  0  0
    6.2700    0.6480    1.2890 P   0  0  0  0  0  0  0  0  0  0  0  0
    7.3650   -0.5210    1.9830 O   0  0  0  0  0  0  0  0  0  0  0  0
    7.0460    1.2930   -0.1220 O   0  0  0  0  0  0  0  0  0  0  0  0
    0.1020   -0.2230   -2.5430 N   0  0  0  0  0  0  0  0  0  0  0  0
   -1.1770   -0.6260   -2.5990 N   0  0  0  0  0  0  0  0  0  0  0  0
   -1.7740   -0.3730   -1.4420 C   0  0  0  0  0  0  0  0  0  0  0  0
   -2.9100   -0.4300   -0.6850 C   0  0  0  0  0  0  0  0  0  0  0  0
   -4.1640   -0.9920   -1.1920 C   0  0  0  0  0  0  0  0  0  0  0  0
   -4.0450   -1.7640   -2.1510 O   0  0  0  0  0  0  0  0  0  0  0  0
   -5.4980   -0.7410   -0.6980 N   0  0  0  0  0  0  0  0  0  0  0  0
  1  2  2  0
  2  3  1  0
  2 23  1  0
  3  4  1  0
  4  5  1  0
  5  6  1  0
  5 20  2  0
  6  7  1  0
  7  8  2  0
  7 19  1  0
  8  9  1  0
  8 17  1  0
  9 10  1  0
 10 11  2  0
 10 12  1  0
 12 13  1  0
 13 14  1  0
 14 15  1  0
 14 16  1  0
 17 18  1  0
 18 19  2  0
 19 20  1  0
 20 21  1  0
 21 22  2  0
 21 23  1  0
M  END
