
     RDKit          3D

 23 25  0  0  0  0  0  0  0  0999 V2000
   -3.5040    0.5950   -1.5620 O   0  0  0  0  0  0  0  0  0  0  0  0
   -3.8100    0.2880   -0.3750 C   0  0  0  0  0  0  0  0  0  0  0  0
   -5.2600    0.1390    0.0020 C   0  0  0  0  0  0  0  0  0  0  0  0
   -6.0720    0.3840   -1.1070 O   0  0  0  0  0  0  0  0  0  0  0  0
   -7.7320    0.2180   -0.6940 P   0  0  0  0  0  0  0  0  0  0  0  0
   -8.2560    1.5930    0.2590 O   0  0  0  0  0  0  0  0  0  0  0  0
   -7.9920   -1.2500    0.1880 O   0  0  0  0  0  0  0  0  0  0  0  0
   -2.7880    0.0890    0.5870 N   0  0  0  0  0  0  0  0  0  0  0  0
   -1.3970    0.2260    0.2460 C   0  0  0  0  0  0  0  0  0  0  0  0
   -0.9470    0.5480   -0.9780 N   0  0  0  0  0  0  0  0  0  0  0  0
    0.3910    0.5850   -0.9230 N   0  0  0  0  0  0  0  0  0  0  0  0
    0.7550    0.2860    0.3390 C   0  0  0  0  0  0  0  0  0  0  0  0
    2.1590    0.2170    0.8320 C   0  0  0  0  0  0  0  0  0  0  0  0
    2.7270   -1.0940    0.6940 N   0  0  0  0  0  0  0  0  0  0  0  0
    2.7990   -1.6210   -0.6360 C   0  0  0  0  0  0  0  0  0  0  0  0
    4.2370   -1.1170   -0.7330 C   0  0  1  0  0  0  0  0  0  0  0  0
    4.2580    0.1520   -1.2740 O   0  0  0  0  0  0  0  0  0  0  0  0
    5.3990    0.8750   -0.9060 C   0  0  0  0  0  0  0  0  0  0  0  0
    5.2770    1.1640    0.5080 N   0  0  0  0  0  0  0  0  0  0  0  0
    4.7630    0.1370    1.3480 C   0  0  0  0  0  0  0  0  0  0  0  0
    4.7940    0.2350    2.5910 O   0  0  0  0  0  0  0  0  0  0  0  0
    4.1590   -1.1100    0.7800 C   0  0  1  0  0  0  0  0  0  0  0  0
   -0.3590    0.0770    1.0060 O   0  0  0  0  0  0  0  0  0  0  0  0
  1  2  2  0
  2  3  1  0
  2  8  1  0
  3  4  1  0
  4  5  1  0
  5  6  1  0
  5  7  1  0
  8  9  1  0
  9 10  2  0
  9 23  1  0
 10 11  1  0
 11 12  2  0
 12 13  1  0
 12 23  1  0
 13 14  1  0
 14 15  1  0
 22 14  1  6
 16 15  1  6
 16 17  1  0
 16 22  1  0
 17 18  1  0
 18 19  1  0
 19 20  1  0
 20 21  2  0
 20 22  1  0
M  END
