
     RDKit          3D

 23 25  0  0  0  0  0  0  0  0999 V2000
   -3.6670   -0.6240   -1.1270 O   0  0  0  0  0  0  0  0  0  0  0  0
   -2.4330   -0.3500   -0.8780 C   0  0  0  0  0  0  0  0  0  0  0  0
   -1.8710    0.5230   -1.7700 O   0  0  0  0  0  0  0  0  0  0  0  0
   -2.6800    1.2350   -3.1330 P   0  0  0  0  0  0  0  0  0  0  0  0
   -2.5340    2.9580   -3.1770 O   0  0  0  0  0  0  0  0  0  0  0  0
   -4.2940    0.6920   -3.3390 O   0  0  0  0  0  0  0  0  0  0  0  0
   -1.8150   -0.9710    0.2680 C   0  0  0  0  0  0  0  0  0  0  0  0
   -2.4970   -1.8350    1.0890 N   0  0  0  0  0  0  0  0  0  0  0  0
   -1.6420   -2.2270    2.0450 C   0  0  0  0  0  0  0  0  0  0  0  0
   -1.9530   -3.1150    3.0830 O   0  0  0  0  0  0  0  0  0  0  0  0
   -0.4680   -1.6150    1.8090 N   0  0  0  0  0  0  0  0  0  0  0  0
   -0.5290   -0.8300    0.7220 C   0  0  0  0  0  0  0  0  0  0  0  0
    0.5460   -0.0230    0.1740 C   0  0  0  0  0  0  0  0  0  0  0  0
    0.4820    0.7700   -0.9240 N   0  0  0  0  0  0  0  0  0  0  0  0
    1.6140    1.3800   -1.1790 C   0  0  0  0  0  0  0  0  0  0  0  0
    2.4810    0.9580   -0.1770 C   0  0  0  0  0  0  0  0  0  0  0  0
    3.7730    1.2450    0.0840 N   0  0  0  0  0  0  0  0  0  0  0  0
    4.4200    0.7080    1.1290 C   0  0  0  0  0  0  0  0  0  0  0  0
    5.6260    0.9910    1.3520 O   0  0  0  0  0  0  0  0  0  0  0  0
    3.7910   -0.1390    1.9550 N   0  0  0  0  0  0  0  0  0  0  0  0
    2.4850   -0.4270    1.6890 C   0  0  0  0  0  0  0  0  0  0  0  0
    1.8840   -1.2210    2.4560 O   0  0  0  0  0  0  0  0  0  0  0  0
    1.8070    0.0960    0.6450 N   0  0  0  0  0  0  0  0  0  0  0  0
  1  2  2  0
  2  3  1  0
  2  7  1  0
  3  4  1  0
  4  5  1  0
  4  6  1  0
  7  8  1  0
  7 12  2  0
  8  9  1  0
  9 10  1  0
  9 11  2  0
 11 12  1  0
 12 13  1  0
 13 14  2  0
 13 23  1  0
 14 15  1  0
 15 16  2  0
 16 17  1  0
 16 23  1  0
 17 18  1  0
 18 19  2  0
 18 20  1  0
 20 21  1  0
 21 22  2  0
 21 23  1  0
M  END
