
     RDKit          3D

 23 25  0  0  0  0  0  0  0  0999 V2000
    4.9290   -1.4760    0.7800 N   0  0  0  0  0  0  0  0  0  0  0  0
    3.8710   -0.8920    0.8510 C   0  0  0  0  0  0  0  0  0  0  0  0
    2.7510   -1.7100    0.9970 N   0  0  0  0  0  0  0  0  0  0  0  0
    1.5010   -1.5750    0.3930 C   0  0  0  0  0  0  0  0  0  0  0  0
    1.5040   -0.6070   -0.4360 O   0  0  0  0  0  0  0  0  0  0  0  0
    0.3660   -2.2670    0.5330 O   0  0  0  0  0  0  0  0  0  0  0  0
   -0.7370   -1.8870   -0.2570 C   0  0  0  0  0  0  0  0  0  0  0  0
   -1.0710   -2.4480   -1.4500 C   0  0  0  0  0  0  0  0  0  0  0  0
   -2.1760   -2.0170   -2.1890 C   0  0  0  0  0  0  0  0  0  0  0  0
   -2.9360   -1.0010   -1.6880 C   0  0  0  0  0  0  0  0  0  0  0  0
   -2.6220   -0.4150   -0.4810 C   0  0  0  0  0  0  0  0  0  0  0  0
   -1.5130   -0.8660    0.2370 C   0  0  0  0  0  0  0  0  0  0  0  0
   -3.5980    0.5800   -0.2740 N   0  0  0  0  0  0  0  0  0  0  0  0
   -3.9490    1.7660    0.4140 C   0  0  0  0  0  0  0  0  0  0  0  0
   -3.4400    2.2190    1.4570 O   0  0  0  0  0  0  0  0  0  0  0  0
   -5.0600    2.3750   -0.3600 C   0  0  0  0  0  0  0  0  0  0  0  0
   -5.1460    1.5350   -1.4880 O   0  0  0  0  0  0  0  0  0  0  0  0
   -4.7070    0.3200   -1.1020 N   0  0  0  0  0  0  0  0  0  0  0  0
   -4.0860   -0.3300   -2.1500 O   0  0  0  0  0  0  0  0  0  0  0  0
    3.9830    0.5330    1.2510 N   0  0  0  0  0  0  0  0  0  0  0  0
    5.1140    1.5640    0.4190 P   0  0  0  0  0  0  0  0  0  0  0  0
    6.1550    2.3350    1.5690 O   0  0  0  0  0  0  0  0  0  0  0  0
    4.2230    2.7580   -0.4650 O   0  0  0  0  0  0  0  0  0  0  0  0
  1  2  2  0
  2  3  1  0
  2 20  1  0
  3  4  1  0
  4  5  2  0
  4  6  1  0
  6  7  1  0
  7  8  2  0
  7 12  1  0
  8  9  1  0
  9 10  2  0
 10 11  1  0
 10 19  1  0
 11 12  2  0
 11 13  1  0
 13 14  1  0
 13 18  1  0
 14 15  2  0
 14 16  1  0
 16 17  1  0
 17 18  1  0
 18 19  1  0
 20 21  1  0
 21 22  1  0
 21 23  1  0
M  END
