
     RDKit          3D

 22 23  0  0  0  0  0  0  0  0999 V2000
    0.7520    2.1140    1.6010 N   0  0  0  0  0  0  0  0  0  0  0  0
    0.4260    1.2700    0.6410 C   0  0  0  0  0  0  0  0  0  0  0  0
    1.4590    0.3350    0.6700 N   0  0  0  0  0  0  0  0  0  0  0  0
    1.9960   -0.3970   -0.3210 C   0  0  0  0  0  0  0  0  0  0  0  0
    1.5000   -0.0960   -1.4320 O   0  0  0  0  0  0  0  0  0  0  0  0
    3.0080   -1.3920   -0.1590 C   0  0  0  0  0  0  0  0  0  0  0  0
    3.4990   -1.6840    1.0280 C   0  0  0  0  0  0  0  0  0  0  0  0
    4.5170   -2.6860    1.1920 N   0  0  0  0  0  0  0  0  0  0  0  0
    6.0650   -2.5820    0.3320 P   0  0  0  0  0  0  0  0  0  0  0  0
    6.7620   -4.1590    0.1790 O   0  0  0  0  0  0  0  0  0  0  0  0
    7.2030   -1.5570    1.1090 O   0  0  0  0  0  0  0  0  0  0  0  0
   -0.9160    1.3390    0.2280 N   0  0  0  0  0  0  0  0  0  0  0  0
   -1.6070    0.8560   -0.8980 C   0  0  0  0  0  0  0  0  0  0  0  0
   -1.2660    0.0980   -1.8190 O   0  0  0  0  0  0  0  0  0  0  0  0
   -2.9890    1.4340   -0.8570 C   0  0  1  0  0  0  0  0  0  0  0  0
   -4.0190    0.4370   -1.2760 C   0  0  2  0  0  0  0  0  0  0  0  0
   -4.3240    0.5380   -2.6300 O   0  0  0  0  0  0  0  0  0  0  0  0
   -5.1970    0.8070   -0.4130 C   0  0  0  0  0  0  0  0  0  0  0  0
   -4.6400    1.5210    0.7880 C   0  0  0  0  0  0  0  0  0  0  0  0
   -3.2360    1.6180    0.5380 N   0  0  0  0  0  0  0  0  0  0  0  0
   -1.9650    1.8250    1.1350 C   0  0  0  0  0  0  0  0  0  0  0  0
   -1.7620    2.3390    2.2640 O   0  0  0  0  0  0  0  0  0  0  0  0
  1  2  2  0
  2  3  1  0
  2 12  1  0
  3  4  1  0
  4  5  2  0
  4  6  1  0
  6  7  2  3
  7  8  1  0
  8  9  1  0
  9 10  1  0
  9 11  1  0
 12 13  1  0
 12 21  1  0
 13 14  2  0
 15 13  1  1
 15 16  1  0
 15 20  1  0
 16 17  1  6
 16 18  1  0
 18 19  1  0
 19 20  1  0
 20 21  1  0
 21 22  2  0
M  END
