
     RDKit          3D

 27 29  0  0  0  0  0  0  0  0999 V2000
   -7.5730    0.7740    0.7640 C   0  0  0  0  0  0  0  0  0  0  0  0
   -6.3200    1.4580    0.3320 C   0  0  0  0  0  0  0  0  0  0  0  0
   -5.3600    0.5420   -0.3340 C   0  0  0  0  0  0  0  0  0  0  0  0
   -4.1420    0.3310    0.1360 C   0  0  0  0  0  0  0  0  0  0  0  0
   -3.5110    0.9290    1.3570 C   0  0  0  0  0  0  0  0  0  0  0  0
   -2.0730    0.8980    0.9820 C   0  0  0  0  0  0  0  0  0  0  0  0
   -1.9120   -0.2670    0.0160 C   0  0  0  0  0  0  0  0  0  0  0  0
   -3.1140   -0.5430   -0.4300 C   0  0  0  0  0  0  0  0  0  0  0  0
   -2.8860   -1.8930   -1.5370 S   0  0  1  0  0  0  0  0  0  0  0  0
   -3.6040   -3.1210   -1.1180 O   0  0  0  0  0  0  0  0  0  0  0  0
   -3.2600   -1.4460   -2.9210 O   0  0  0  0  0  0  0  0  0  0  0  0
   -1.1890   -2.0010   -1.3300 N   0  0  0  0  0  0  0  0  0  0  0  0
   -0.8480   -1.0910   -0.4980 C   0  0  0  0  0  0  0  0  0  0  0  0
    0.5570   -0.9870   -0.1520 N   0  0  0  0  0  0  0  0  0  0  0  0
    1.6190   -1.0920   -1.0640 C   0  0  0  0  0  0  0  0  0  0  0  0
    1.3890   -1.2320   -2.4020 C   0  0  0  0  0  0  0  0  0  0  0  0
    2.4370   -1.3260   -3.3320 C   0  0  0  0  0  0  0  0  0  0  0  0
    3.7340   -1.2760   -2.8800 C   0  0  0  0  0  0  0  0  0  0  0  0
    3.9820   -1.1350   -1.5350 C   0  0  0  0  0  0  0  0  0  0  0  0
    2.9290   -1.0420   -0.6190 C   0  0  0  0  0  0  0  0  0  0  0  0
    3.1240   -0.9050    0.7400 O   0  0  0  0  0  0  0  0  0  0  0  0
    4.3880   -0.8190    1.2810 C   0  0  0  0  0  0  0  0  0  0  0  0
    5.1850    0.3690    0.9300 C   0  0  0  0  0  0  0  0  0  0  0  0
    6.5490    0.4650    1.4910 C   0  0  0  0  0  0  0  0  0  0  0  0
    7.2910    1.4400    1.2430 O   0  0  0  0  0  0  0  0  0  0  0  0
    4.7970    1.3580    0.1620 C   0  0  0  0  0  0  0  0  0  0  0  0
    5.6130    2.4670   -0.1360 N   0  0  0  0  0  0  0  0  0  0  0  0
  1  2  1  0
  2  3  1  0
  3  4  2  3
  4  5  1  0
  4  8  1  0
  5  6  1  0
  6  7  1  0
  7  8  2  0
  7 13  1  0
  8  9  1  0
  9 10  2  0
  9 11  2  0
  9 12  1  6
 12 13  2  0
 13 14  1  0
 14 15  1  0
 15 16  2  0
 15 20  1  0
 16 17  1  0
 17 18  2  0
 18 19  1  0
 19 20  2  0
 20 21  1  0
 21 22  1  0
 22 23  1  0
 23 24  1  0
 23 26  2  3
 24 25  2  0
 26 27  1  0
M  END
