
     RDKit          3D

 27 29  0  0  0  0  0  0  0  0999 V2000
    1.8020   -3.8900   -0.7050 C   0  0  0  0  0  0  0  0  0  0  0  0
    2.1250   -2.5410    0.4600 S   0  0  0  0  0  0  0  0  0  0  0  0
    0.6910   -1.4850    0.5000 C   0  0  0  0  0  0  0  0  0  0  0  0
    0.7020   -0.4540    1.2690 N   0  0  0  0  0  0  0  0  0  0  0  0
    1.8320   -0.1590    2.0700 C   0  0  0  0  0  0  0  0  0  0  0  0
    2.9010    0.4520    1.6360 C   0  0  0  0  0  0  0  0  0  0  0  0
    3.0750    0.9120    0.2690 C   0  0  0  0  0  0  0  0  0  0  0  0
    2.1520    0.7180   -0.5520 O   0  0  0  0  0  0  0  0  0  0  0  0
    4.2780    1.5880   -0.1770 C   0  0  0  0  0  0  0  0  0  0  0  0
    5.4090    1.8970    0.5740 C   0  0  0  0  0  0  0  0  0  0  0  0
    6.2700    2.5340   -0.2940 C   0  0  0  0  0  0  0  0  0  0  0  0
    5.7300    2.6120   -1.4650 O   0  0  0  0  0  0  0  0  0  0  0  0
    4.5380    2.0620   -1.4500 C   0  0  0  0  0  0  0  0  0  0  0  0
   -0.4770   -1.7900   -0.3280 C   0  0  0  0  0  0  0  0  0  0  0  0
   -0.6360   -2.7760   -1.1390 N   0  0  0  0  0  0  0  0  0  0  0  0
   -1.9050   -2.7420   -1.7690 C   0  0  0  0  0  0  0  0  0  0  0  0
   -2.4280   -3.5160   -2.6110 O   0  0  0  0  0  0  0  0  0  0  0  0
   -2.5840   -1.5620   -1.2460 C   0  0  0  0  0  0  0  0  0  0  0  0
   -3.8230   -0.9980   -1.4680 C   0  0  0  0  0  0  0  0  0  0  0  0
   -4.2360    0.1700   -0.8170 C   0  0  0  0  0  0  0  0  0  0  0  0
   -5.5820    0.7440   -1.0870 C   0  0  0  0  0  0  0  0  0  0  0  0
   -3.3510    0.7460    0.0660 C   0  0  0  0  0  0  0  0  0  0  0  0
   -3.7340    1.9580    0.7640 C   0  0  0  0  0  0  0  0  0  0  0  0
   -2.7990    2.5430    1.6790 N   0  0  0  0  0  0  0  0  0  0  0  0
   -4.8620    2.4640    0.5560 O   0  0  0  0  0  0  0  0  0  0  0  0
   -2.1070    0.1630    0.2760 C   0  0  0  0  0  0  0  0  0  0  0  0
   -1.7010   -0.9760   -0.3570 C   0  0  0  0  0  0  0  0  0  0  0  0
  1  2  1  0
  2  3  1  0
  3  4  2  3
  3 14  1  0
  4  5  1  0
  5  6  2  3
  6  7  1  0
  7  8  2  0
  7  9  1  0
  9 10  1  0
  9 13  2  0
 10 11  2  0
 11 12  1  0
 12 13  1  0
 14 15  2  0
 14 27  1  0
 15 16  1  0
 16 17  2  0
 16 18  1  0
 18 19  2  0
 18 27  1  0
 19 20  1  0
 20 21  1  0
 20 22  2  0
 22 23  1  0
 22 26  1  0
 23 24  1  0
 23 25  2  0
 26 27  2  0
M  END
