
     RDKit          3D

 27 28  0  0  0  0  0  0  0  0999 V2000
   -7.3860    2.4270    0.8800 C   0  0  0  0  0  0  0  0  0  0  0  0
   -6.7970    1.2860    0.1450 C   0  0  0  0  0  0  0  0  0  0  0  0
   -5.5030    1.0780    0.2040 C   0  0  0  0  0  0  0  0  0  0  0  0
   -4.7090    1.9620    0.9770 N   0  0  0  0  0  0  0  0  0  0  0  0
   -3.3190    1.7310    1.0310 C   0  0  0  0  0  0  0  0  0  0  0  0
   -2.6750    0.7060    0.3870 C   0  0  0  0  0  0  0  0  0  0  0  0
   -1.2670    0.6630    0.5850 C   0  0  0  0  0  0  0  0  0  0  0  0
   -0.3170   -0.1280    0.2230 C   0  0  0  0  0  0  0  0  0  0  0  0
   -0.4100   -1.6010   -0.7380 S   0  0  0  0  0  0  0  0  0  0  0  0
    0.6370   -2.8420    0.0620 C   0  0  0  0  0  0  0  0  0  0  0  0
    1.7520   -2.1990    0.7890 C   0  0  0  0  0  0  0  0  0  0  0  0
    2.5490   -3.0140    1.3480 O   0  0  0  0  0  0  0  0  0  0  0  0
    1.9900   -0.8210    0.9050 N   0  0  0  0  0  0  0  0  0  0  0  0
    3.3400   -0.4130    1.3260 C   0  0  0  0  0  0  0  0  0  0  0  0
    4.2040   -0.2330    0.1090 C   0  0  0  0  0  0  0  0  0  0  0  0
    3.7270   -0.4310   -1.0220 O   0  0  0  0  0  0  0  0  0  0  0  0
    5.5530    0.1570    0.2300 N   0  0  0  0  0  0  0  0  0  0  0  0
    6.4420    0.3500   -0.8750 C   0  0  0  0  0  0  0  0  0  0  0  0
    7.8030    0.7650   -0.3760 C   0  0  0  0  0  0  0  0  0  0  0  0
    8.4160   -0.2730    0.5360 C   0  0  0  0  0  0  0  0  0  0  0  0
    1.0730    0.2270    0.6590 C   0  0  0  0  0  0  0  0  0  0  0  0
    1.3160    1.4490    0.7720 O   0  0  0  0  0  0  0  0  0  0  0  0
   -3.4810   -0.1960   -0.4110 C   0  0  0  0  0  0  0  0  0  0  0  0
   -2.9660   -1.2690   -1.1450 O   0  0  0  0  0  0  0  0  0  0  0  0
   -2.8970   -1.1760   -2.5750 C   0  0  0  0  0  0  0  0  0  0  0  0
   -4.8070    0.0070   -0.4690 C   0  0  0  0  0  0  0  0  0  0  0  0
   -5.6420   -0.9640   -1.2130 C   0  0  0  0  0  0  0  0  0  0  0  0
  1  2  1  0
  2  3  2  3
  3  4  1  0
  3 26  1  0
  4  5  1  0
  5  6  2  0
  6  7  1  0
  6 23  1  0
  7  8  2  3
  8  9  1  0
  8 21  1  0
  9 10  1  0
 10 11  1  0
 11 12  2  0
 11 13  1  0
 13 14  1  0
 13 21  1  0
 14 15  1  0
 15 16  2  0
 15 17  1  0
 17 18  1  0
 18 19  1  0
 19 20  1  0
 21 22  2  0
 23 24  1  0
 23 26  2  0
 24 25  1  0
 26 27  1  0
M  END
