
     RDKit          3D

 15 15  0  0  0  0  0  0  0  0999 V2000
    3.6840    0.1910   -1.4630 O   0  0  0  0  0  0  0  0  0  0  0  0
    2.4970   -0.0630   -1.1070 C   0  0  0  0  0  0  0  0  0  0  0  0
    1.5070    0.5560   -1.8560 O   0  0  0  0  0  0  0  0  0  0  0  0
    2.2450   -0.9660    0.0370 C   0  0  1  0  0  0  0  0  0  0  0  0
    3.6080   -1.5120    0.5030 C   0  0  0  0  0  0  0  0  0  0  0  0
    4.6840   -0.1560    1.0080 S   0  0  0  0  0  0  0  0  0  0  0  0
    1.5860   -0.2570    1.1680 C   0  0  0  0  0  0  0  0  0  0  0  0
    0.2690    0.3300    0.7970 C   0  0  0  0  0  0  0  0  0  0  0  0
   -0.6940   -0.7330    0.3250 C   0  0  0  0  0  0  0  0  0  0  0  0
   -1.9930   -0.0520   -0.0160 C   0  0  0  0  0  0  0  0  0  0  0  0
   -2.9570    0.0980    0.9570 C   0  0  0  0  0  0  0  0  0  0  0  0
   -4.1490    0.7360    0.6010 C   0  0  0  0  0  0  0  0  0  0  0  0
   -4.3240    1.1850   -0.6790 C   0  0  0  0  0  0  0  0  0  0  0  0
   -3.3480    1.0270   -1.6420 C   0  0  0  0  0  0  0  0  0  0  0  0
   -2.1530    0.3960   -1.3100 C   0  0  0  0  0  0  0  0  0  0  0  0
  1  2  2  0
  2  3  1  0
  2  4  1  0
  4  5  1  1
  4  7  1  0
  5  6  1  0
  7  8  1  0
  8  9  1  0
  9 10  1  0
 10 11  2  0
 10 15  1  0
 11 12  1  0
 12 13  2  0
 13 14  1  0
 14 15  2  0
M  END
