
     RDKit          3D

 27 29  0  0  0  0  0  0  0  0999 V2000
    7.6440   -0.3140    1.0430 C   0  0  0  0  0  0  0  0  0  0  0  0
    6.3710   -0.5500    1.2710 C   0  0  0  0  0  0  0  0  0  0  0  0
    5.3980   -0.6790    0.1950 C   0  0  0  0  0  0  0  0  0  0  0  0
    4.0820   -0.5050    0.3830 C   0  0  0  0  0  0  0  0  0  0  0  0
    3.2160   -0.6560   -0.7450 C   0  0  0  0  0  0  0  0  0  0  0  0
    1.9070   -0.5270   -0.7650 C   0  0  0  0  0  0  0  0  0  0  0  0
    1.1240   -0.7130   -2.0170 C   0  0  0  0  0  0  0  0  0  0  0  0
    1.8960   -1.0380   -3.2300 C   0  0  0  0  0  0  0  0  0  0  0  0
   -0.1520   -0.5770   -1.9780 C   0  0  0  0  0  0  0  0  0  0  0  0
   -1.0950   -0.1660   -0.4890 S   0  0  0  0  0  0  0  0  0  0  0  0
   -2.5400    0.3630   -1.3560 N   0  0  0  0  0  0  0  0  0  0  0  0
   -3.5540    1.1830   -0.7860 C   0  0  0  0  0  0  0  0  0  0  0  0
   -4.5140    1.4780   -1.5090 O   0  0  0  0  0  0  0  0  0  0  0  0
   -3.4420    1.6440    0.5890 C   0  0  0  0  0  0  0  0  0  0  0  0
   -4.7130    2.2030    1.1230 C   0  0  0  0  0  0  0  0  0  0  0  0
   -5.7730    1.1480    1.1430 C   0  0  0  0  0  0  0  0  0  0  0  0
   -6.7570    0.8630    0.2380 C   0  0  0  0  0  0  0  0  0  0  0  0
   -7.4720   -0.2110    0.7240 C   0  0  0  0  0  0  0  0  0  0  0  0
   -6.8970   -0.5520    1.9240 C   0  0  0  0  0  0  0  0  0  0  0  0
   -5.9200    0.2550    2.1310 O   0  0  0  0  0  0  0  0  0  0  0  0
   -2.4310   -0.1850   -2.6250 N   0  0  0  0  0  0  0  0  0  0  0  0
   -1.1810   -0.6890   -2.9800 C   0  0  0  0  0  0  0  0  0  0  0  0
   -0.9430   -1.2260   -4.1280 O   0  0  0  0  0  0  0  0  0  0  0  0
    3.6450   -0.1750    1.7160 C   0  0  0  0  0  0  0  0  0  0  0  0
    2.4600    0.0090    2.0110 O   0  0  0  0  0  0  0  0  0  0  0  0
    4.6180   -0.0480    2.7760 N   0  0  0  0  0  0  0  0  0  0  0  0
    5.9000   -0.6910    2.6770 C   0  0  0  0  0  0  0  0  0  0  0  0
  1  2  2  0
  2  3  1  0
  2 27  1  0
  3  4  2  0
  4  5  1  0
  4 24  1  0
  5  6  2  3
  6  7  1  0
  7  8  1  0
  7  9  2  3
  9 10  1  0
  9 22  1  0
 10 11  1  0
 11 12  1  0
 11 21  1  0
 12 13  2  0
 12 14  1  0
 14 15  1  0
 15 16  1  0
 16 17  2  0
 16 20  1  0
 17 18  1  0
 18 19  2  0
 19 20  1  0
 21 22  1  0
 22 23  2  0
 24 25  2  0
 24 26  1  0
 26 27  1  0
M  END
