
     RDKit          3D

 27 29  0  0  0  0  0  0  0  0999 V2000
    3.9940   -1.9020   -3.0420 C   0  0  0  0  0  0  0  0  0  0  0  0
    3.2950   -0.8580   -2.3930 O   0  0  0  0  0  0  0  0  0  0  0  0
    2.1940   -1.0590   -1.6440 C   0  0  0  0  0  0  0  0  0  0  0  0
    1.8190   -2.3030   -1.5630 O   0  0  0  0  0  0  0  0  0  0  0  0
    1.3910   -0.0830   -0.9320 C   0  0  0  0  0  0  0  0  0  0  0  0
    1.6250    1.1770   -0.9100 C   0  0  0  0  0  0  0  0  0  0  0  0
    2.6720    1.9070   -1.5430 C   0  0  0  0  0  0  0  0  0  0  0  0
    3.6270    1.4880   -2.2800 N   0  0  0  0  0  0  0  0  0  0  0  0
    4.6100    2.3170   -2.8530 C   0  0  0  0  0  0  0  0  0  0  0  0
    4.7700    2.4470   -4.1040 O   0  0  0  0  0  0  0  0  0  0  0  0
    5.6860    3.2320   -1.7370 S   0  0  0  0  0  0  0  0  0  0  0  0
    6.8640    4.2250   -2.7000 C   0  0  0  0  0  0  0  0  0  0  0  0
    0.2270   -0.6110   -0.1870 C   0  0  0  0  0  0  0  0  0  0  0  0
    0.0140   -1.8560   -0.2210 O   0  0  0  0  0  0  0  0  0  0  0  0
   -0.6420    0.1870    0.5460 N   0  0  0  0  0  0  0  0  0  0  0  0
   -1.7590   -0.3190    1.2600 C   0  0  0  0  0  0  0  0  0  0  0  0
   -1.7020   -0.7280    2.5710 C   0  0  0  0  0  0  0  0  0  0  0  0
   -0.3970   -0.6470    3.3120 C   0  0  0  0  0  0  0  0  0  0  0  0
   -2.8130   -1.2270    3.2690 C   0  0  0  0  0  0  0  0  0  0  0  0
   -4.0340   -1.3020    2.5730 C   0  0  0  0  0  0  0  0  0  0  0  0
   -4.0240   -0.8870    1.2940 C   0  0  0  0  0  0  0  0  0  0  0  0
   -5.1820   -0.9480    0.6040 C   0  0  0  0  0  0  0  0  0  0  0  0
   -4.8220   -0.4520   -0.6580 C   0  0  0  0  0  0  0  0  0  0  0  0
   -3.4830   -0.1330   -0.6290 N   0  0  0  0  0  0  0  0  0  0  0  0
   -2.9710   -0.4020    0.5960 C   0  0  0  0  0  0  0  0  0  0  0  0
   -6.2020   -1.5010    1.5430 C   0  0  0  0  0  0  0  0  0  0  0  0
   -5.4140   -1.7300    2.8450 C   0  0  0  0  0  0  0  0  0  0  0  0
  1  2  1  0
  2  3  1  0
  3  4  2  0
  3  5  1  0
  5  6  2  3
  5 13  1  0
  6  7  1  0
  7  8  2  3
  8  9  1  0
  9 10  2  0
  9 11  1  0
 11 12  1  0
 13 14  2  0
 13 15  1  0
 15 16  1  0
 16 17  2  0
 16 25  1  0
 17 18  1  0
 17 19  1  0
 19 20  2  0
 20 21  1  0
 20 27  1  0
 21 22  1  0
 21 25  2  0
 22 23  2  0
 22 26  1  0
 23 24  1  0
 24 25  1  0
 26 27  1  0
M  END
