
     RDKit          3D

 24 26  0  0  0  0  0  0  0  0999 V2000
    5.9780   -1.8290    0.4060 C   0  0  0  0  0  0  0  0  0  0  0  0
    5.0760   -0.7250   -0.0590 C   0  0  0  0  0  0  0  0  0  0  0  0
    5.5460    0.2890   -0.8610 C   0  0  0  0  0  0  0  0  0  0  0  0
    4.7230    1.3020   -1.2880 C   0  0  0  0  0  0  0  0  0  0  0  0
    3.3670    1.3260   -0.9110 C   0  0  0  0  0  0  0  0  0  0  0  0
    2.6040    2.3790   -1.3830 O   0  0  0  0  0  0  0  0  0  0  0  0
    2.8780    0.3400   -0.1220 C   0  0  0  0  0  0  0  0  0  0  0  0
    1.5070    0.2750    0.3170 C   0  0  0  0  0  0  0  0  0  0  0  0
    1.1270   -0.7060    1.0710 O   0  0  0  0  0  0  0  0  0  0  0  0
    0.5040    1.2170   -0.0120 N   0  0  0  0  0  0  0  0  0  0  0  0
   -0.8180    1.0290    0.4940 C   0  0  0  0  0  0  0  0  0  0  0  0
   -1.3670    1.9450    1.2650 C   0  0  0  0  0  0  0  0  0  0  0  0
   -2.6760    1.9560    1.8780 N   0  0  0  0  0  0  0  0  0  0  0  0
   -3.7500    1.3600    1.4970 C   0  0  0  0  0  0  0  0  0  0  0  0
   -3.9180    0.4970    0.3110 C   0  0  2  0  0  0  0  0  0  0  0  0
   -5.1680   -0.2320    0.4600 N   0  0  0  0  0  0  0  0  0  0  0  0
   -5.3710   -1.0140   -0.7240 C   0  0  0  0  0  0  0  0  0  0  0  0
   -4.3460   -2.0860   -0.7700 C   0  0  0  0  0  0  0  0  0  0  0  0
   -4.7080   -3.3310   -1.1840 F   0  0  0  0  0  0  0  0  0  0  0  0
   -3.1140   -1.7830   -0.4050 C   0  0  0  0  0  0  0  0  0  0  0  0
   -1.8820   -3.0060   -0.4440 Cl  0  0  0  0  0  0  0  0  0  0  0  0
   -2.8100   -0.4210    0.0280 C   0  0  0  0  0  0  0  0  0  0  0  0
   -1.4860   -0.2070    0.0990 C   0  0  0  0  0  0  0  0  0  0  0  0
    3.7520   -0.6790    0.2940 C   0  0  0  0  0  0  0  0  0  0  0  0
  1  2  1  0
  2  3  2  0
  2 24  1  0
  3  4  1  0
  4  5  2  0
  5  6  1  0
  5  7  1  0
  7  8  1  0
  7 24  2  0
  8  9  2  0
  8 10  1  0
 10 11  1  0
 11 12  2  0
 11 23  1  0
 12 13  1  0
 13 14  2  0
 14 15  1  0
 15 16  1  1
 15 22  1  0
 16 17  1  0
 17 18  1  0
 18 19  1  0
 18 20  2  0
 20 21  1  0
 20 22  1  0
 22 23  2  0
M  CHG  1  16   1
M  END
