
     RDKit          3D

 22 23  0  0  0  0  0  0  0  0999 V2000
    0.3280    0.8580    0.6260 C   0  0  0  0  0  0  0  0  0  0  0  0
   -0.2900   -0.4140    0.1120 C   0  0  2  0  0  0  0  0  0  0  0  0
    0.5650   -1.4380    0.0790 O   0  0  0  0  0  0  0  0  0  0  0  0
    1.6610   -1.5020   -0.6610 C   0  0  0  0  0  0  0  0  0  0  0  0
    2.7480   -0.4850   -0.4190 C   0  0  0  0  0  0  0  0  0  0  0  0
    3.1450    0.3250   -1.3540 C   0  0  0  0  0  0  0  0  0  0  0  0
    4.1840    1.3310   -1.2020 C   0  0  2  0  0  0  0  0  0  0  0  0
    5.1780    1.2060   -2.1990 O   0  0  0  0  0  0  0  0  0  0  0  0
    4.7470    1.3000    0.0760 O   0  0  0  0  0  0  0  0  0  0  0  0
    4.3380    0.4450    1.0850 C   0  0  0  0  0  0  0  0  0  0  0  0
    3.3720   -0.4390    0.8950 C   0  0  0  0  0  0  0  0  0  0  0  0
   -0.9340   -0.0940   -1.2340 C   0  0  0  0  0  0  0  0  0  0  0  0
   -2.1430   -0.9340   -1.5100 C   0  0  1  0  0  0  0  0  0  0  0  0
   -2.2020   -1.1910   -2.8810 O   0  0  0  0  0  0  0  0  0  0  0  0
   -1.9840   -2.2490   -0.7850 C   0  0  0  0  0  0  0  0  0  0  0  0
   -2.0250   -2.0720    0.7150 C   0  0  0  0  0  0  0  0  0  0  0  0
   -1.4130   -0.7390    1.1290 C   0  0  2  0  0  0  0  0  0  0  0  0
   -2.3280    0.3060    1.0520 O   0  0  0  0  0  0  0  0  0  0  0  0
   -2.6670    1.1670    2.0790 C   0  0  0  0  0  0  0  0  0  0  0  0
   -2.1090    1.0060    3.1860 O   0  0  0  0  0  0  0  0  0  0  0  0
   -3.6700    2.2230    1.7950 C   0  0  0  0  0  0  0  0  0  0  0  0
   -3.9310    3.0220    2.8890 O   0  0  0  0  0  0  0  0  0  0  0  0
  2  1  1  1
  2  3  1  0
  2 12  1  0
  2 17  1  0
  3  4  1  0
  4  5  1  0
  5  6  2  0
  5 11  1  0
  6  7  1  0
  7  8  1  6
  7  9  1  0
  9 10  1  0
 10 11  2  0
 12 13  1  0
 13 14  1  6
 13 15  1  0
 15 16  1  0
 16 17  1  0
 17 18  1  6
 18 19  1  0
 19 20  2  0
 19 21  1  0
 21 22  1  0
M  END
