
     RDKit          3D

 22 22  0  0  0  0  0  0  0  0999 V2000
   -2.8340   -1.6540   -1.0120 C   0  0  0  0  0  0  0  0  0  0  0  0
   -2.2330   -1.0480    0.2080 C   0  0  1  0  0  0  0  0  0  0  0  0
   -3.3770   -0.9760    1.2380 C   0  0  0  0  0  0  0  0  0  0  0  0
   -1.1600   -1.8210    0.8590 C   0  0  0  0  0  0  0  0  0  0  0  0
    0.0360   -2.1720    0.0860 C   0  0  1  0  0  0  0  0  0  0  0  0
   -0.1000   -3.4840   -0.6870 C   0  0  0  0  0  0  0  0  0  0  0  0
    1.0670   -3.7640   -1.3990 O   0  0  0  0  0  0  0  0  0  0  0  0
    0.5980   -1.1270   -0.8050 C   0  0  0  0  0  0  0  0  0  0  0  0
    1.4490   -0.1200   -0.0520 C   0  0  1  0  0  0  0  0  0  0  0  0
    2.7760   -0.6870    0.3670 C   0  0  2  0  0  0  0  0  0  0  0  0
    3.3960    0.2730    1.1740 O   0  0  0  0  0  0  0  0  0  0  0  0
    3.7020   -0.9250   -0.8060 C   0  0  0  0  0  0  0  0  0  0  0  0
    3.9340    0.2100   -1.5470 O   0  0  0  0  0  0  0  0  0  0  0  0
    1.6440    1.0460   -0.7530 O   0  0  0  0  0  0  0  0  0  0  0  0
    1.7780    2.1670    0.0550 C   0  0  0  0  0  0  0  0  0  0  0  0
    1.1720    3.3370   -0.6930 C   0  0  2  0  0  0  0  0  0  0  0  0
    1.8870    4.4920   -0.3840 O   0  0  0  0  0  0  0  0  0  0  0  0
   -0.2510    3.5370   -0.2790 C   0  0  0  0  0  0  0  0  0  0  0  0
   -1.0190    2.5220   -0.8850 O   0  0  0  0  0  0  0  0  0  0  0  0
   -2.2580    2.5330   -0.2900 C   0  0  0  0  0  0  0  0  0  0  0  0
   -2.8540    1.1410   -0.2240 C   0  0  0  0  0  0  0  0  0  0  0  0
   -1.8140    0.2410   -0.0890 O   0  0  0  0  0  0  0  0  0  0  0  0
  2  1  1  6
  2  3  1  0
  2  4  1  0
  2 22  1  0
  4  5  1  0
  5  6  1  6
  5  8  1  0
  6  7  1  0
  9  8  1  6
  9 10  1  0
  9 14  1  0
 10 11  1  1
 10 12  1  0
 12 13  1  0
 14 15  1  0
 15 16  1  0
 16 17  1  1
 16 18  1  0
 18 19  1  0
 19 20  1  0
 20 21  1  0
 21 22  1  0
M  END
