
     RDKit          3D

 24 25  0  0  0  0  0  0  0  0999 V2000
   -2.1020    4.3460   -0.6890 N   0  0  0  0  0  0  0  0  0  0  0  0
   -1.2670    3.6400    0.2640 C   0  0  0  0  0  0  0  0  0  0  0  0
   -1.4220    2.1640    0.1680 C   0  0  0  0  0  0  0  0  0  0  0  0
   -0.4320    1.3270   -0.1180 C   0  0  0  0  0  0  0  0  0  0  0  0
    0.8990    1.8390   -0.3550 C   0  0  0  0  0  0  0  0  0  0  0  0
    1.0070    2.7440   -1.4080 F   0  0  0  0  0  0  0  0  0  0  0  0
    2.0280    1.6230    0.2900 C   0  0  0  0  0  0  0  0  0  0  0  0
    3.5470    2.3720   -0.2040 Cl  0  0  0  0  0  0  0  0  0  0  0  0
    2.1940    0.8000    1.5170 C   0  0  0  0  0  0  0  0  0  0  0  0
    3.4830    0.1580    1.5500 N   0  0  0  0  0  0  0  0  0  0  0  0
    3.8950   -1.0290    0.9400 C   0  0  0  0  0  0  0  0  0  0  0  0
    4.4470   -1.9170    1.6960 O   0  0  0  0  0  0  0  0  0  0  0  0
    3.7900   -1.4230   -0.4720 C   0  0  0  0  0  0  0  0  0  0  0  0
    3.1040   -2.6890   -0.5900 N   0  0  0  0  0  0  0  0  0  0  0  0
    1.7370   -2.8830   -0.8370 C   0  0  0  0  0  0  0  0  0  0  0  0
    1.4280   -3.6890   -1.7860 O   0  0  0  0  0  0  0  0  0  0  0  0
    0.5890   -2.2680   -0.1280 C   0  0  0  0  0  0  0  0  0  0  0  0
    0.2300   -0.9950   -0.7890 C   0  0  0  0  0  0  0  0  0  0  0  0
   -0.8230   -0.1400   -0.1920 C   0  0  1  0  0  0  0  0  0  0  0  0
   -1.3690   -0.5330    1.1270 C   0  0  0  0  0  0  0  0  0  0  0  0
   -2.7960   -0.9980    1.1450 C   0  0  0  0  0  0  0  0  0  0  0  0
   -3.0370   -2.1010    0.1490 C   0  0  0  0  0  0  0  0  0  0  0  0
   -2.5720   -1.6310   -1.1890 C   0  0  0  0  0  0  0  0  0  0  0  0
   -2.0070   -0.2610   -1.1750 C   0  0  0  0  0  0  0  0  0  0  0  0
  1  2  1  0
  2  3  1  0
  3  4  2  3
  4  5  1  0
  4 19  1  0
  5  6  1  0
  5  7  2  0
  7  8  1  0
  7  9  1  0
  9 10  1  0
 10 11  1  0
 11 12  2  0
 11 13  1  0
 13 14  1  0
 14 15  1  0
 15 16  2  0
 15 17  1  0
 17 18  1  0
 19 18  1  6
 19 20  1  0
 19 24  1  0
 20 21  1  0
 21 22  1  0
 22 23  1  0
 23 24  1  0
M  CHG  1   1   1
M  END
