
     RDKit          3D

 22 23  0  0  0  0  0  0  0  0999 V2000
   -1.5540   -0.7310   -2.4400 C   0  0  0  0  0  0  0  0  0  0  0  0
   -1.5400    0.4020   -1.4200 C   0  0  1  0  0  0  0  0  0  0  0  0
   -1.8130    1.6020   -2.0470 O   0  0  0  0  0  0  0  0  0  0  0  0
   -2.6360    0.0230   -0.4270 C   0  0  2  0  0  0  0  0  0  0  0  0
   -3.1600    1.2040    0.3260 C   0  0  0  0  0  0  0  0  0  0  0  0
   -4.2320    0.7400    1.2790 C   0  0  0  0  0  0  0  0  0  0  0  0
   -5.3960    0.0790    0.5910 C   0  0  0  0  0  0  0  0  0  0  0  0
   -6.3050   -0.2950    1.6060 O   0  0  0  0  0  0  0  0  0  0  0  0
   -2.0130   -0.9160    0.3500 O   0  0  0  0  0  0  0  0  0  0  0  0
   -0.7150   -0.4340    0.6050 C   0  0  0  0  0  0  0  0  0  0  0  0
   -0.3300    0.4020   -0.5650 C   0  0  2  0  0  0  0  0  0  0  0  0
   -0.0540    1.7090   -0.1230 O   0  0  0  0  0  0  0  0  0  0  0  0
    0.9180   -0.0740   -1.2610 C   0  0  0  0  0  0  0  0  0  0  0  0
    2.0920   -0.0490   -0.3480 C   0  0  0  0  0  0  0  0  0  0  0  0
    1.9810    0.3380    0.8600 O   0  0  0  0  0  0  0  0  0  0  0  0
    3.3490   -0.4460   -0.7770 O   0  0  0  0  0  0  0  0  0  0  0  0
    4.4290   -0.4170    0.0840 C   0  0  0  0  0  0  0  0  0  0  0  0
    5.2280    0.6190    0.2400 C   0  0  0  0  0  0  0  0  0  0  0  0
    6.2460    0.2570    1.2360 C   0  0  0  0  0  0  0  0  0  0  0  0
    5.9290   -1.1290    1.6360 C   0  0  0  0  0  0  0  0  0  0  0  0
    4.8650   -1.5000    0.9500 C   0  0  0  0  0  0  0  0  0  0  0  0
    4.2670   -2.7600    1.0620 O   0  0  0  0  0  0  0  0  0  0  0  0
  2  1  1  6
  2  3  1  0
  2  4  1  0
  2 11  1  0
  4  5  1  1
  4  9  1  0
  5  6  1  0
  6  7  1  0
  7  8  1  0
  9 10  1  0
 10 11  1  0
 11 12  1  1
 11 13  1  0
 13 14  1  0
 14 15  2  0
 14 16  1  0
 16 17  1  0
 17 18  2  0
 17 21  1  0
 18 19  1  0
 19 20  1  0
 20 21  2  0
 21 22  1  0
M  END
