
     RDKit          3D

 40 42  0  0  0  0  0  0  0  0999 V2000
   -4.8260    3.2470    0.8100 C   0  0  0  0  0  0  0  0  0  0  0  0
   -3.5560    3.4440    1.5900 C   0  0  0  0  0  0  0  0  0  0  0  0
   -2.7330    2.1400    1.6400 C   0  0  0  0  0  0  0  0  0  0  0  0
   -2.3630    1.6980    0.2970 C   0  0  1  0  0  0  0  0  0  0  0  0
   -1.5810    2.6320   -0.3470 O   0  0  0  0  0  0  0  0  0  0  0  0
   -1.2110    3.9150   -0.5120 C   0  0  0  0  0  0  0  0  0  0  0  0
   -1.6750    4.6750   -1.6070 C   0  0  0  0  0  0  0  0  0  0  0  0
   -1.3520    5.9830   -1.8570 C   0  0  0  0  0  0  0  0  0  0  0  0
   -0.5170    6.5950   -0.9750 C   0  0  0  0  0  0  0  0  0  0  0  0
   -0.0450    5.8810    0.1080 C   0  0  0  0  0  0  0  0  0  0  0  0
   -0.3540    4.5700    0.3780 C   0  0  0  0  0  0  0  0  0  0  0  0
    0.2280    3.9910    1.5620 N   0  0  0  0  0  0  0  0  0  0  0  0
    0.8630    2.7410    1.7530 C   0  0  0  0  0  0  0  0  0  0  0  0
    0.8420    2.2170    2.9490 O   0  0  0  0  0  0  0  0  0  0  0  0
    1.5360    1.9750    0.7620 N   0  0  0  0  0  0  0  0  0  0  0  0
    2.6580    2.3590   -0.0670 C   0  0  1  0  0  0  0  0  0  0  0  0
    3.9810    1.9890    0.5990 C   0  0  0  0  0  0  0  0  0  0  0  0
    2.5740    1.7660   -1.4280 C   0  0  0  0  0  0  0  0  0  0  0  0
    1.7890    2.3810   -2.2260 O   0  0  0  0  0  0  0  0  0  0  0  0
    3.2870    0.6170   -1.8420 N   0  0  0  0  0  0  0  0  0  0  0  0
    3.4520   -0.6050   -1.0780 C   0  0  0  0  0  0  0  0  0  0  0  0
    2.7660   -1.7070   -1.8400 C   0  0  1  0  0  0  0  0  0  0  0  0
    3.5160   -2.0190   -3.0000 O   0  0  0  0  0  0  0  0  0  0  0  0
    4.7930   -2.4160   -2.7360 C   0  0  0  0  0  0  0  0  0  0  0  0
    4.8730   -3.4470   -1.6360 C   0  0  0  0  0  0  0  0  0  0  0  0
    3.5140   -4.0270   -1.3290 C   0  0  0  0  0  0  0  0  0  0  0  0
    2.4440   -2.9420   -1.1280 C   0  0  1  0  0  0  0  0  0  0  0  0
    2.1240   -2.9200    0.3070 C   0  0  0  0  0  0  0  0  0  0  0  0
    0.8610   -2.3230    0.7880 C   0  0  0  0  0  0  0  0  0  0  0  0
   -0.2790   -2.2360   -0.1610 C   0  0  0  0  0  0  0  0  0  0  0  0
   -1.5990   -2.1140    0.3320 N   0  0  1  0  0  0  0  0  0  0  0  0
   -1.9440   -3.2910    1.0420 C   0  0  0  0  0  0  0  0  0  0  0  0
   -2.9370   -4.2250    0.4480 C   0  0  1  0  0  0  0  0  0  0  0  0
   -2.4510   -4.9170   -0.8100 C   0  0  0  0  0  0  0  0  0  0  0  0
   -3.0380   -5.2830    1.4000 O   0  0  0  0  0  0  0  0  0  0  0  0
   -2.0960   -0.8920    0.8870 C   0  0  1  0  0  0  0  0  0  0  0  0
   -3.6330   -1.1180    0.9200 C   0  0  0  0  0  0  0  0  0  0  0  0
   -1.6000   -0.6080    2.2850 C   0  0  0  0  0  0  0  0  0  0  0  0
   -1.9090    0.3050    0.0690 C   0  0  0  0  0  0  0  0  0  0  0  0
   -1.2860    0.2360   -1.0030 O   0  0  0  0  0  0  0  0  0  0  0  0
  1  2  1  0
  2  3  1  0
  4  3  1  1
  4  5  1  0
  4 39  1  0
  5  6  1  0
  6  7  2  0
  6 11  1  0
  7  8  1  0
  8  9  2  0
  9 10  1  0
 10 11  2  0
 11 12  1  0
 12 13  1  0
 13 14  2  0
 13 15  1  0
 15 16  1  0
 16 17  1  1
 16 18  1  0
 18 19  2  0
 18 20  1  0
 20 21  1  0
 22 21  1  1
 22 23  1  0
 22 27  1  0
 23 24  1  0
 24 25  1  0
 25 26  1  0
 27 26  1  1
 27 28  1  0
 28 29  1  0
 29 30  1  0
 30 31  1  0
 31 32  1  1
 31 36  1  0
 32 33  1  0
 33 34  1  6
 33 35  1  0
 36 37  1  1
 36 38  1  0
 36 39  1  0
 39 40  2  0
M  CHG  1  31   1
M  END
