
     RDKit          3D

 39 43  0  0  0  0  0  0  0  0999 V2000
    4.3910    4.2930   -1.1880 N   0  0  0  0  0  0  0  0  0  0  0  0
    4.4890    2.9090   -0.1070 S   0  0  0  0  0  0  0  0  0  0  0  0
    4.6600    1.4050   -1.0410 C   0  0  0  0  0  0  0  0  0  0  0  0
    4.7820    0.1540   -0.5930 N   0  0  0  0  0  0  0  0  0  0  0  0
    4.8830   -0.6670   -1.6290 C   0  0  0  0  0  0  0  0  0  0  0  0
    5.0380   -2.1460   -1.7280 C   0  0  2  0  0  0  0  0  0  0  0  0
    4.1880   -2.8820   -0.9040 N   0  0  0  0  0  0  0  0  0  0  0  0
    4.6030   -3.4470    0.1320 C   0  0  0  0  0  0  0  0  0  0  0  0
    3.8070   -4.2080    1.0120 N   0  0  0  0  0  0  0  0  0  0  0  0
    2.5350   -3.7990    1.4850 C   0  0  0  0  0  0  0  0  0  0  0  0
    1.9790   -2.5600    1.2030 C   0  0  0  0  0  0  0  0  0  0  0  0
    0.7430   -2.1770    1.6500 C   0  0  0  0  0  0  0  0  0  0  0  0
    0.1810   -0.8440    1.3960 C   0  0  0  0  0  0  0  0  0  0  0  0
    0.9260    0.1840    1.4580 O   0  0  0  0  0  0  0  0  0  0  0  0
   -1.1820   -0.6300    1.0800 N   0  0  0  0  0  0  0  0  0  0  0  0
   -1.7950    0.6600    0.8610 C   0  0  0  0  0  0  0  0  0  0  0  0
   -3.2280    0.5150    0.4800 C   0  0  0  0  0  0  0  0  0  0  0  0
   -3.7060   -0.6220    0.2970 O   0  0  0  0  0  0  0  0  0  0  0  0
   -4.0620    1.6700    0.3270 N   0  0  0  0  0  0  0  0  0  0  0  0
   -5.4330    1.5410   -0.0560 C   0  0  1  0  0  0  0  0  0  0  0  0
   -6.1930    0.9980    1.1820 C   0  0  0  0  0  0  0  0  0  0  0  0
   -7.6120    1.0130    0.9360 N   0  0  0  0  0  0  0  0  0  0  0  0
   -8.1380    2.3640    0.7630 C   0  0  0  0  0  0  0  0  0  0  0  0
   -9.2870    2.7180    1.0120 O   0  0  0  0  0  0  0  0  0  0  0  0
   -7.1380    3.2910    0.2490 C   0  0  0  0  0  0  0  0  0  0  0  0
   -6.9010    4.5820    0.3650 C   0  0  0  0  0  0  0  0  0  0  0  0
   -5.7430    4.8860   -0.4040 N   0  0  0  0  0  0  0  0  0  0  0  0
   -5.2840    3.8550   -0.9640 N   0  0  0  0  0  0  0  0  0  0  0  0
   -6.0800    2.7280   -0.6450 C   0  0  1  0  0  0  0  0  0  0  0  0
    0.0230   -3.0960    2.4210 C   0  0  0  0  0  0  0  0  0  0  0  0
    0.5990   -4.3170    2.6820 C   0  0  0  0  0  0  0  0  0  0  0  0
    1.7980   -4.6580    2.2410 N   0  0  0  0  0  0  0  0  0  0  0  0
    6.3580   -3.0880    0.2340 S   0  0  0  0  0  0  0  0  0  0  0  0
    6.4960   -2.4350   -1.4710 C   0  0  2  0  0  0  0  0  0  0  0  0
    7.3280   -1.2050   -1.4980 C   0  0  0  0  0  0  0  0  0  0  0  0
    7.9580   -0.8070   -0.4760 O   0  0  0  0  0  0  0  0  0  0  0  0
    7.3980   -0.5010   -2.6580 O   0  0  0  0  0  0  0  0  0  0  0  0
    4.8170    0.1210   -2.7240 N   0  0  0  0  0  0  0  0  0  0  0  0
    4.6840    1.3440   -2.3520 O   0  0  0  0  0  0  0  0  0  0  0  0
  1  2  1  0
  2  3  1  0
  3  4  2  0
  3 39  1  0
  4  5  1  0
  6  5  1  1
  5 38  2  0
  6  7  1  0
  6 34  1  0
  7  8  2  0
  8  9  1  0
  8 33  1  0
  9 10  1  0
 10 11  2  0
 10 32  1  0
 11 12  1  0
 12 13  1  0
 12 30  2  0
 13 14  2  0
 13 15  1  0
 15 16  1  0
 16 17  1  0
 17 18  2  0
 17 19  1  0
 20 19  1  1
 20 21  1  0
 20 29  1  0
 21 22  1  0
 22 23  1  0
 23 24  2  0
 23 25  1  0
 25 26  2  0
 25 29  1  0
 26 27  1  0
 27 28  2  0
 29 28  1  1
 30 31  1  0
 31 32  2  0
 33 34  1  0
 34 35  1  1
 35 36  2  0
 35 37  1  0
 38 39  1  0
M  END
