
     RDKit          3D

 40 43  0  0  0  0  0  0  0  0999 V2000
   -4.0730    1.9740   -2.4530 C   0  0  0  0  0  0  0  0  0  0  0  0
   -4.4640    0.9940   -1.3540 C   0  0  1  0  0  0  0  0  0  0  0  0
   -3.8530   -0.2200   -1.5890 O   0  0  0  0  0  0  0  0  0  0  0  0
   -2.7010   -0.7150   -0.9600 C   0  0  0  0  0  0  0  0  0  0  0  0
   -1.8950   -1.3980   -1.7030 O   0  0  0  0  0  0  0  0  0  0  0  0
   -2.4850   -0.4490    0.4490 C   0  0  2  0  0  0  0  0  0  0  0  0
   -1.2510    0.2320    0.8290 C   0  0  0  0  0  0  0  0  0  0  0  0
    0.1140   -0.1580    0.6700 C   0  0  0  0  0  0  0  0  0  0  0  0
    0.8650   -0.3160   -0.5960 C   0  0  2  0  0  0  0  0  0  0  0  0
    2.2460   -0.7560   -0.1620 C   0  0  0  0  0  0  0  0  0  0  0  0
    2.3240   -1.8920    0.4150 O   0  0  0  0  0  0  0  0  0  0  0  0
    3.3740    0.0350   -0.3800 N   0  0  0  0  0  0  0  0  0  0  0  0
    3.2920    1.1500   -1.0230 C   0  0  0  0  0  0  0  0  0  0  0  0
    4.4780    1.9400   -1.2300 N   0  0  0  0  0  0  0  0  0  0  0  0
    5.7320    1.3450   -0.8910 C   0  0  0  0  0  0  0  0  0  0  0  0
    6.1850    0.3190   -0.4800 N   0  0  0  0  0  0  0  0  0  0  0  0
    7.4410    0.1070   -0.2500 N   0  0  0  0  0  0  0  0  0  0  0  0
    8.3190    0.8950   -0.4130 C   0  0  0  0  0  0  0  0  0  0  0  0
    9.7780    1.0760   -0.2960 C   0  0  0  0  0  0  0  0  0  0  0  0
   10.5920    0.1190    0.1260 N   0  0  0  0  0  0  0  0  0  0  0  0
   11.8590    0.5700    0.1260 N   0  0  0  0  0  0  0  0  0  0  0  0
   11.8420    1.8470   -0.3090 C   0  0  0  0  0  0  0  0  0  0  0  0
   12.8590    2.5930   -0.4380 O   0  0  0  0  0  0  0  0  0  0  0  0
   10.5440    2.1370   -0.5630 N   0  0  0  0  0  0  0  0  0  0  0  0
    7.3070    2.3600   -1.0470 S   0  0  0  0  0  0  0  0  0  0  0  0
    2.0480    1.5920   -1.4850 N   0  0  0  0  0  0  0  0  0  0  0  0
    0.9770    0.9660   -1.3090 C   0  0  0  0  0  0  0  0  0  0  0  0
   -0.5220    1.7050   -1.9870 Cl  0  0  0  0  0  0  0  0  0  0  0  0
   -2.6360   -1.7930    1.1800 C   0  0  0  0  0  0  0  0  0  0  0  0
   -3.9550   -2.4260    0.9670 C   0  0  0  0  0  0  0  0  0  0  0  0
   -4.7900   -1.9650    0.1290 O   0  0  0  0  0  0  0  0  0  0  0  0
   -4.3720   -3.5770    1.6770 N   0  0  0  0  0  0  0  0  0  0  0  0
   -5.6240   -4.1210    1.4300 N   0  0  0  0  0  0  0  0  0  0  0  0
   -5.9640   -5.1940    2.3100 C   0  0  0  0  0  0  0  0  0  0  0  0
   -5.8880   -4.5490   -0.2570 S   0  0  0  0  0  0  0  0  0  0  0  0
   -3.6280    0.4690    0.9380 C   0  0  0  0  0  0  0  0  0  0  0  0
   -3.9350    1.5500   -0.0460 C   0  0  2  0  0  0  0  0  0  0  0  0
   -4.9250    2.4710    0.5300 C   0  0  0  0  0  0  0  0  0  0  0  0
   -4.6430    3.1680    1.7280 N   0  0  0  0  0  0  0  0  0  0  0  0
   -6.0270    2.6370   -0.0480 O   0  0  0  0  0  0  0  0  0  0  0  0
  2  1  1  6
  2  3  1  0
  2 37  1  0
  3  4  1  0
  4  5  2  0
  4  6  1  0
  6  7  1  6
  6 29  1  0
  6 36  1  0
  7  8  1  0
  9  8  1  1
  9 10  1  0
  9 27  1  0
 10 11  2  0
 10 12  1  0
 12 13  2  0
 13 14  1  0
 13 26  1  0
 14 15  1  0
 15 16  2  0
 15 25  1  0
 16 17  1  0
 17 18  2  0
 18 19  1  0
 18 25  1  0
 19 20  2  0
 19 24  1  0
 20 21  1  0
 21 22  1  0
 22 23  2  0
 22 24  1  0
 26 27  2  0
 27 28  1  0
 29 30  1  0
 30 31  2  0
 30 32  1  0
 32 33  1  0
 33 34  1  0
 33 35  1  0
 36 37  1  0
 37 38  1  1
 38 39  1  0
 38 40  2  0
M  END
