
     RDKit          3D

 40 43  0  0  0  0  0  0  0  0999 V2000
   -1.3350   -0.9540   -0.2940 C   0  0  0  0  0  0  0  0  0  0  0  0
   -1.3890    0.5100   -0.6360 C   0  0  2  0  0  0  0  0  0  0  0  0
   -0.0620    1.1280   -0.1690 C   0  0  0  0  0  0  0  0  0  0  0  0
    1.1050    0.4460   -0.8920 C   0  0  1  0  0  0  0  0  0  0  0  0
    0.8690    0.6970   -2.3830 C   0  0  0  0  0  0  0  0  0  0  0  0
    2.2920    1.1710   -0.5220 N   0  0  0  0  0  0  0  0  0  0  0  0
    2.6190    2.3560   -0.9870 N   0  0  0  0  0  0  0  0  0  0  0  0
    3.7490    2.7450   -0.4610 N   0  0  0  0  0  0  0  0  0  0  0  0
    4.1580    1.8010    0.3540 N   0  0  0  0  0  0  0  0  0  0  0  0
    3.2590    0.8130    0.3260 C   0  0  0  0  0  0  0  0  0  0  0  0
    3.2870   -0.4090    1.0480 N   0  0  0  0  0  0  0  0  0  0  0  0
    4.3510   -0.6730    1.9080 N   0  0  0  0  0  0  0  0  0  0  0  0
    5.7160   -0.5560    1.4750 C   0  0  0  0  0  0  0  0  0  0  0  0
    6.0270   -0.1880    0.2230 N   0  0  0  0  0  0  0  0  0  0  0  0
    7.3110   -0.0770   -0.1900 C   0  0  0  0  0  0  0  0  0  0  0  0
    8.3720   -0.3360    0.6510 C   0  0  0  0  0  0  0  0  0  0  0  0
    9.7540   -0.2110    0.1880 C   0  0  0  0  0  0  0  0  0  0  0  0
   10.0770    0.1710   -1.1390 N   0  0  0  0  0  0  0  0  0  0  0  0
   10.6930   -0.4490    0.9880 O   0  0  0  0  0  0  0  0  0  0  0  0
    8.0670   -0.7150    1.9400 C   0  0  0  0  0  0  0  0  0  0  0  0
    6.7390   -0.8200    2.3350 C   0  0  0  0  0  0  0  0  0  0  0  0
    6.3500   -1.3030    3.9770 Cl  0  0  0  0  0  0  0  0  0  0  0  0
   -2.4830    1.2190    0.0270 C   0  0  0  0  0  0  0  0  0  0  0  0
   -2.2290    2.1530    0.8530 O   0  0  0  0  0  0  0  0  0  0  0  0
   -3.8420    0.8690   -0.2470 N   0  0  0  0  0  0  0  0  0  0  0  0
   -4.1650   -0.1500   -1.1630 C   0  0  0  0  0  0  0  0  0  0  0  0
   -3.4510   -0.3590   -2.1900 N   0  0  0  0  0  0  0  0  0  0  0  0
   -3.6330   -1.3030   -3.1630 N   0  0  0  0  0  0  0  0  0  0  0  0
   -3.6180   -2.6800   -2.8380 C   0  0  0  0  0  0  0  0  0  0  0  0
   -3.4370   -3.0550   -1.6480 O   0  0  0  0  0  0  0  0  0  0  0  0
   -3.7990   -3.6690   -3.7950 O   0  0  0  0  0  0  0  0  0  0  0  0
   -5.6190   -1.1140   -0.8060 S   0  0  0  0  0  0  0  0  0  0  0  0
   -5.9810   -0.6380    0.9330 C   0  0  2  0  0  0  0  0  0  0  0  0
   -7.3830   -1.0610    1.3400 C   0  0  0  0  0  0  0  0  0  0  0  0
   -7.5650   -0.0340    2.8420 S   0  0  0  0  0  0  0  0  0  0  0  0
   -7.2240   -0.9490    4.0350 O   0  0  0  0  0  0  0  0  0  0  0  0
   -6.1390    1.0690    2.5490 C   0  0  0  0  0  0  0  0  0  0  0  0
   -5.9810    0.8470    1.0350 C   0  0  1  0  0  0  0  0  0  0  0  0
   -4.8750    1.5910    0.4360 C   0  0  2  0  0  0  0  0  0  0  0  0
   -5.3940    2.5270   -0.4860 O   0  0  0  0  0  0  0  0  0  0  0  0
  2  1  1  1
  2  3  1  0
  2 23  1  0
  3  4  1  0
  4  5  1  6
  4  6  1  0
  6  7  1  0
  6 10  1  0
  7  8  2  0
  8  9  1  0
  9 10  2  0
 10 11  1  0
 11 12  1  0
 12 13  1  0
 13 14  2  0
 13 21  1  0
 14 15  1  0
 15 16  2  0
 16 17  1  0
 16 20  1  0
 17 18  1  0
 17 19  2  0
 20 21  2  0
 21 22  1  0
 23 24  2  0
 23 25  1  0
 25 26  1  0
 25 39  1  0
 26 27  2  3
 26 32  1  0
 27 28  1  0
 28 29  1  0
 29 30  2  0
 29 31  1  0
 32 33  1  0
 33 34  1  6
 33 38  1  0
 35 34  1  6
 35 36  2  0
 35 37  1  0
 38 37  1  1
 38 39  1  0
 39 40  1  6
M  END
