
     RDKit          3D

 31 33  0  0  0  0  0  0  0  0999 V2000
   -5.7140    3.1720    0.7840 C   0  0  0  0  0  0  0  0  0  0  0  0
   -5.7750    2.1580   -0.3430 C   0  0  1  0  0  0  0  0  0  0  0  0
   -4.4310    2.0430   -0.9260 C   0  0  0  0  0  0  0  0  0  0  0  0
   -3.7690    2.9810   -1.4800 O   0  0  0  0  0  0  0  0  0  0  0  0
   -4.0000    0.6990   -0.7640 N   0  0  0  0  0  0  0  0  0  0  0  0
   -2.8770   -0.2310   -1.0260 C   0  0  0  0  0  0  0  0  0  0  0  0
   -1.6300    0.3480   -1.4570 C   0  0  0  0  0  0  0  0  0  0  0  0
   -1.7000    1.4960   -2.0640 O   0  0  0  0  0  0  0  0  0  0  0  0
   -0.3350   -0.1300   -1.3070 N   0  0  0  0  0  0  0  0  0  0  0  0
    0.7690    0.6500   -1.8660 C   0  0  0  0  0  0  0  0  0  0  0  0
    2.0530   -0.0780   -1.5720 C   0  0  0  0  0  0  0  0  0  0  0  0
    2.1930   -0.2000   -0.1900 O   0  0  0  0  0  0  0  0  0  0  0  0
    3.6680   -1.0360    0.1140 P   0  0  0  0  0  0  0  0  0  0  0  0
    3.5280   -2.2400    1.3320 O   0  0  0  0  0  0  0  0  0  0  0  0
    5.0970    0.0970    0.3710 C   0  0  1  0  0  0  0  0  0  0  0  0
    6.2270   -0.6980    0.9830 C   0  0  0  0  0  0  0  0  0  0  0  0
    7.5750   -0.0710    0.7510 C   0  0  0  0  0  0  0  0  0  0  0  0
    7.3360    1.3410    0.2470 C   0  0  0  0  0  0  0  0  0  0  0  0
    6.7350    1.2250   -1.0010 O   0  0  0  0  0  0  0  0  0  0  0  0
    5.4450    0.7290   -0.9310 C   0  0  0  0  0  0  0  0  0  0  0  0
   -3.2330   -1.4130   -0.5540 C   0  0  0  0  0  0  0  0  0  0  0  0
   -2.4530   -2.6310   -0.6150 C   0  0  0  0  0  0  0  0  0  0  0  0
   -1.2370   -2.8180   -1.2790 N   0  0  0  0  0  0  0  0  0  0  0  0
   -2.8590   -3.6890   -0.0180 O   0  0  0  0  0  0  0  0  0  0  0  0
   -4.5630   -1.3360    0.0300 N   0  0  0  0  0  0  0  0  0  0  0  0
   -5.3230   -2.3450    0.6300 C   0  0  0  0  0  0  0  0  0  0  0  0
   -4.9840   -3.5180    0.7650 O   0  0  0  0  0  0  0  0  0  0  0  0
   -6.6080   -2.0530    1.1490 O   0  0  0  0  0  0  0  0  0  0  0  0
   -5.0350    0.0220   -0.1150 C   0  0  0  0  0  0  0  0  0  0  0  0
   -6.0710    0.8000    0.1480 C   0  0  0  0  0  0  0  0  0  0  0  0
   -7.2620    0.3960    0.7920 O   0  0  0  0  0  0  0  0  0  0  0  0
  2  1  1  1
  2  3  1  0
  2 30  1  0
  3  4  2  0
  3  5  1  0
  5  6  1  0
  5 29  1  0
  6  7  1  0
  6 21  2  0
  7  8  2  0
  7  9  1  0
  9 10  1  0
 10 11  1  0
 11 12  1  0
 12 13  1  0
 13 14  1  0
 15 13  1  6
 15 16  1  0
 15 20  1  0
 16 17  1  0
 17 18  1  0
 18 19  1  0
 19 20  1  0
 21 22  1  0
 21 25  1  0
 22 23  1  0
 22 24  2  0
 25 26  1  0
 25 29  1  0
 26 27  2  0
 26 28  1  0
 29 30  2  0
 30 31  1  0
M  END
