
     RDKit          3D

 31 33  0  0  0  0  0  0  0  0999 V2000
   -9.6540   -0.3300    0.6980 N   0  0  0  0  0  0  0  0  0  0  0  0
   -8.2310   -0.3680    0.6850 C   0  0  0  0  0  0  0  0  0  0  0  0
   -7.6800   -1.0580    1.5910 O   0  0  0  0  0  0  0  0  0  0  0  0
   -7.4420    0.3060   -0.2600 N   0  0  0  0  0  0  0  0  0  0  0  0
   -5.9990    0.1960   -0.1760 C   0  0  1  0  0  0  0  0  0  0  0  0
   -5.3110   -0.0800   -1.5050 C   0  0  0  0  0  0  0  0  0  0  0  0
   -4.2730    0.8400   -1.0900 N   0  0  0  0  0  0  0  0  0  0  0  0
   -2.8920    0.9570   -1.3900 C   0  0  0  0  0  0  0  0  0  0  0  0
   -2.1800    1.8720   -0.8870 O   0  0  0  0  0  0  0  0  0  0  0  0
   -2.2720    0.0740   -2.2470 O   0  0  0  0  0  0  0  0  0  0  0  0
   -0.9190    0.1250   -2.5900 C   0  0  0  0  0  0  0  0  0  0  0  0
   -0.0520   -0.0020   -1.4850 O   0  0  0  0  0  0  0  0  0  0  0  0
   -0.0190   -1.1010   -0.6470 C   0  0  0  0  0  0  0  0  0  0  0  0
   -0.8180   -2.0360   -0.9020 O   0  0  0  0  0  0  0  0  0  0  0  0
    0.8820   -1.2250    0.4950 C   0  0  2  0  0  0  0  0  0  0  0  0
    0.7020   -0.1440    1.5360 C   0  0  0  0  0  0  0  0  0  0  0  0
    1.9360   -0.4190    2.3690 C   0  0  0  0  0  0  0  0  0  0  0  0
    2.9670   -0.4890    1.2840 N   0  0  0  0  0  0  0  0  0  0  0  0
    4.2820   -0.0970    1.5330 C   0  0  0  0  0  0  0  0  0  0  0  0
    4.5130    0.3170    2.7450 O   0  0  0  0  0  0  0  0  0  0  0  0
    5.3970   -0.0930    0.6330 C   0  0  0  0  0  0  0  0  0  0  0  0
    6.5930    0.3320    1.0910 C   0  0  0  0  0  0  0  0  0  0  0  0
    7.8240    0.3910    0.2790 C   0  0  1  0  0  0  0  0  0  0  0  0
    8.3510    1.7050    0.3040 O   0  0  0  0  0  0  0  0  0  0  0  0
    9.1160   -0.6730    1.1380 P   0  0  0  0  0  0  0  0  0  0  0  0
    8.8590   -2.2060    1.2380 O   0  0  0  0  0  0  0  0  0  0  0  0
    7.6500   -0.0390   -1.0320 O   0  0  0  0  0  0  0  0  0  0  0  0
    6.4380   -0.4710   -1.5020 C   0  0  0  0  0  0  0  0  0  0  0  0
    5.3330   -0.5160   -0.7490 C   0  0  0  0  0  0  0  0  0  0  0  0
    2.3480   -0.9870    0.1040 C   0  0  0  0  0  0  0  0  0  0  0  0
   -5.2620    1.5250   -0.2820 C   0  0  0  0  0  0  0  0  0  0  0  0
  1  2  1  0
  2  3  2  0
  2  4  1  0
  5  4  1  6
  5  6  1  0
  5 31  1  0
  6  7  1  0
  7  8  1  0
  7 31  1  0
  8  9  2  0
  8 10  1  0
 10 11  1  0
 11 12  1  0
 12 13  1  0
 13 14  2  0
 15 13  1  6
 15 16  1  0
 15 30  1  0
 16 17  1  0
 17 18  1  0
 18 19  1  0
 18 30  1  0
 19 20  2  0
 19 21  1  0
 21 22  2  0
 21 29  1  0
 22 23  1  0
 23 24  1  6
 23 25  1  0
 23 27  1  0
 25 26  2  0
 27 28  1  0
 28 29  2  0
M  END
