
     RDKit          3D

 24 26  0  0  0  0  0  0  0  0999 V2000
   -0.9370    3.2020    0.8200 C   0  0  0  0  0  0  0  0  0  0  0  0
   -0.2320    1.9720    0.2990 C   0  0  0  0  0  0  0  0  0  0  0  0
   -1.2190    0.8760   -0.0880 C   0  0  1  0  0  0  0  0  0  0  0  0
   -0.4320   -0.2840   -0.5860 C   0  0  1  0  0  0  0  0  0  0  0  0
    0.8990   -0.3130   -0.1100 O   0  0  0  0  0  0  0  0  0  0  0  0
    2.0300   -0.1880   -0.8640 C   0  0  0  0  0  0  0  0  0  0  0  0
    1.8820   -0.0310   -2.1030 O   0  0  0  0  0  0  0  0  0  0  0  0
    3.3620   -0.2360   -0.2490 C   0  0  1  0  0  0  0  0  0  0  0  0
    4.3280   -0.0830   -1.2710 O   0  0  0  0  0  0  0  0  0  0  0  0
    5.4940   -0.6500   -0.7770 C   0  0  0  0  0  0  0  0  0  0  0  0
    5.7820   -0.1010    0.4470 O   0  0  0  0  0  0  0  0  0  0  0  0
    5.1440    1.0840    0.7300 C   0  0  0  0  0  0  0  0  0  0  0  0
    3.6200    0.9030    0.7140 C   0  0  1  0  0  0  0  0  0  0  0  0
    3.0470    2.0930    0.2560 O   0  0  0  0  0  0  0  0  0  0  0  0
   -1.1240   -1.6130   -0.4500 C   0  0  2  0  0  0  0  0  0  0  0  0
   -0.0910   -2.7470   -0.3850 C   0  0  0  0  0  0  0  0  0  0  0  0
   -1.9630   -1.9140   -1.6780 C   0  0  0  0  0  0  0  0  0  0  0  0
   -3.2030   -1.1070   -1.7730 C   0  0  0  0  0  0  0  0  0  0  0  0
   -3.7580   -0.5970   -0.4980 C   0  0  0  0  0  0  0  0  0  0  0  0
   -2.8940   -0.7270    0.6960 C   0  0  1  0  0  0  0  0  0  0  0  0
   -3.7820   -1.0220    1.9040 C   0  0  0  0  0  0  0  0  0  0  0  0
   -1.9420   -1.7150    0.6410 O   0  0  0  0  0  0  0  0  0  0  0  0
   -2.1860    0.5780    1.0020 C   0  0  2  0  0  0  0  0  0  0  0  0
   -3.1780    1.5650    1.0330 O   0  0  0  0  0  0  0  0  0  0  0  0
  1  2  1  0
  3  2  1  1
  3  4  1  0
  3 23  1  0
  4  5  1  1
  4 15  1  0
  5  6  1  0
  6  7  2  0
  8  6  1  6
  8  9  1  0
  8 13  1  0
  9 10  1  0
 10 11  1  0
 11 12  1  0
 12 13  1  0
 13 14  1  6
 15 16  1  1
 15 17  1  0
 15 22  1  0
 17 18  1  0
 18 19  1  0
 19 20  1  0
 20 21  1  1
 20 22  1  0
 20 23  1  0
 23 24  1  6
M  END
