
     RDKit          3D

 23 25  0  0  0  0  0  0  0  0999 V2000
    0.8170   -0.2630   -0.7890 O   0  0  0  0  0  0  0  0  0  0  0  0
    0.6950    0.0440    0.4210 C   0  0  0  0  0  0  0  0  0  0  0  0
    1.9220    0.0450    1.2580 C   0  0  0  0  0  0  0  0  0  0  0  0
    3.1320   -0.3400    0.4590 C   0  0  1  0  0  0  0  0  0  0  0  0
    2.9940   -1.6100   -0.0810 O   0  0  0  0  0  0  0  0  0  0  0  0
    3.3390    0.6370   -0.6570 C   0  0  0  0  0  0  0  0  0  0  0  0
    4.8030    0.9420   -0.8940 C   0  0  0  0  0  0  0  0  0  0  0  0
    5.6620   -0.2920   -0.7100 C   0  0  0  0  0  0  0  0  0  0  0  0
    5.6010   -0.7400    0.7180 C   0  0  2  0  0  0  0  0  0  0  0  0
    5.7470   -2.1450    0.7460 O   0  0  0  0  0  0  0  0  0  0  0  0
    4.3230   -0.3470    1.4060 C   0  0  0  0  0  0  0  0  0  0  0  0
   -0.5480    0.3570    0.8890 O   0  0  0  0  0  0  0  0  0  0  0  0
   -1.7290    0.3560    0.0760 C   0  0  2  0  0  0  0  0  0  0  0  0
   -2.1990    1.7910    0.0210 C   0  0  0  0  0  0  0  0  0  0  0  0
   -3.5370    1.8020   -0.7120 C   0  0  2  0  0  0  0  0  0  0  0  0
   -3.9740    3.1080   -0.8080 O   0  0  0  0  0  0  0  0  0  0  0  0
   -4.4750    0.9560    0.1240 C   0  0  0  0  0  0  0  0  0  0  0  0
   -3.9040   -0.4170    0.2320 C   0  0  2  0  0  0  0  0  0  0  0  0
   -4.1950   -1.1830   -1.0380 C   0  0  0  0  0  0  0  0  0  0  0  0
   -5.6560   -1.5340   -0.8330 C   0  0  0  0  0  0  0  0  0  0  0  0
   -5.9580   -1.3070    0.4820 O   0  0  0  0  0  0  0  0  0  0  0  0
   -4.7970   -1.1990    1.2050 C   0  0  0  0  0  0  0  0  0  0  0  0
   -2.6210   -0.4990    0.6560 O   0  0  0  0  0  0  0  0  0  0  0  0
  1  2  2  0
  2  3  1  0
  2 12  1  0
  3  4  1  0
  4  5  1  6
  4  6  1  0
  4 11  1  0
  6  7  1  0
  7  8  1  0
  8  9  1  0
  9 10  1  6
  9 11  1  0
 13 12  1  1
 13 14  1  0
 13 23  1  0
 14 15  1  0
 15 16  1  1
 15 17  1  0
 18 17  1  6
 18 19  1  0
 18 22  1  0
 18 23  1  0
 19 20  1  0
 20 21  1  0
 21 22  1  0
M  END
