
     RDKit          3D

 24 26  0  0  0  0  0  0  0  0999 V2000
    4.5360   -1.2980    1.5490 C   0  0  0  0  0  0  0  0  0  0  0  0
    3.8390   -0.3190    0.6240 C   0  0  1  0  0  0  0  0  0  0  0  0
    4.2500   -0.6260   -0.8010 C   0  0  0  0  0  0  0  0  0  0  0  0
    3.5590    0.1840   -1.6600 O   0  0  0  0  0  0  0  0  0  0  0  0
    2.2100    0.0690   -1.6540 C   0  0  1  0  0  0  0  0  0  0  0  0
    1.6310   -1.3310   -1.7380 C   0  0  0  0  0  0  0  0  0  0  0  0
    0.5220   -0.7920   -0.8110 C   0  0  1  0  0  0  0  0  0  0  0  0
    0.1550   -1.7710    0.0580 O   0  0  0  0  0  0  0  0  0  0  0  0
   -0.7680   -1.4490    1.0030 C   0  0  0  0  0  0  0  0  0  0  0  0
   -2.1190   -1.0370    0.4320 C   0  0  2  0  0  0  0  0  0  0  0  0
   -3.1210   -1.1820    1.5570 C   0  0  0  0  0  0  0  0  0  0  0  0
   -4.4250   -0.9310    1.1260 O   0  0  0  0  0  0  0  0  0  0  0  0
   -2.4880   -2.1420   -0.5710 C   0  0  0  0  0  0  0  0  0  0  0  0
   -3.7480   -1.8260   -1.0720 O   0  0  0  0  0  0  0  0  0  0  0  0
   -2.0800    0.1880   -0.1390 O   0  0  0  0  0  0  0  0  0  0  0  0
   -2.8650    1.1620    0.3710 C   0  0  0  0  0  0  0  0  0  0  0  0
   -2.3390    2.5670    0.1400 C   0  0  2  0  0  0  0  0  0  0  0  0
   -3.4550    3.4190    0.2190 O   0  0  0  0  0  0  0  0  0  0  0  0
   -1.7620    2.7410   -1.2390 C   0  0  0  0  0  0  0  0  0  0  0  0
   -0.6960    1.9090   -1.5060 O   0  0  0  0  0  0  0  0  0  0  0  0
    0.5020    2.3560   -0.9800 C   0  0  0  0  0  0  0  0  0  0  0  0
    1.0470    1.4910    0.1150 C   0  0  0  0  0  0  0  0  0  0  0  0
    1.5540    0.1680   -0.3070 C   0  0  2  0  0  0  0  0  0  0  0  0
    2.3680   -0.4780    0.7940 C   0  0  0  0  0  0  0  0  0  0  0  0
  2  1  1  1
  2  3  1  0
  2 24  1  0
  3  4  1  0
  4  5  1  0
  5  6  1  1
  5 23  1  0
  7  6  1  6
  7  8  1  0
  7 23  1  0
  8  9  1  0
  9 10  1  0
 10 11  1  1
 10 13  1  0
 10 15  1  0
 11 12  1  0
 13 14  1  0
 15 16  1  0
 16 17  1  0
 17 18  1  6
 17 19  1  0
 19 20  1  0
 20 21  1  0
 21 22  1  0
 23 22  1  1
 23 24  1  0
M  END
