
     RDKit          3D

 24 26  0  0  0  0  0  0  0  0999 V2000
   -7.6670    0.9380    0.5080 C   0  0  0  0  0  0  0  0  0  0  0  0
   -6.4150    0.2980    0.5210 O   0  0  0  0  0  0  0  0  0  0  0  0
   -5.4380    0.4600   -0.4400 C   0  0  0  0  0  0  0  0  0  0  0  0
   -5.6830    1.2320   -1.3930 O   0  0  0  0  0  0  0  0  0  0  0  0
   -4.1680   -0.2800   -0.2930 C   0  0  1  0  0  0  0  0  0  0  0  0
   -4.1660   -1.0540    0.8430 O   0  0  0  0  0  0  0  0  0  0  0  0
   -3.8760   -1.1730   -1.4780 C   0  0  0  0  0  0  0  0  0  0  0  0
   -2.3830   -1.4010   -1.3670 C   0  0  0  0  0  0  0  0  0  0  0  0
   -1.8290   -0.1080   -0.8730 C   0  0  2  0  0  0  0  0  0  0  0  0
   -0.9040   -0.2320    0.1370 O   0  0  0  0  0  0  0  0  0  0  0  0
    0.3110    0.3860   -0.1330 C   0  0  1  0  0  0  0  0  0  0  0  0
    0.6310    1.4970    0.8030 C   0  0  0  0  0  0  0  0  0  0  0  0
    1.9570    1.4680    1.4560 C   0  0  0  0  0  0  0  0  0  0  0  0
    2.6720    0.3240    1.3900 O   0  0  0  0  0  0  0  0  0  0  0  0
    2.7210   -0.2960    0.1630 C   0  0  2  0  0  0  0  0  0  0  0  0
    3.5010   -1.6010    0.3850 C   0  0  0  0  0  0  0  0  0  0  0  0
    4.4220   -1.4720    1.5920 C   0  0  0  0  0  0  0  0  0  0  0  0
    5.6590   -0.6700    1.2470 C   0  0  0  0  0  0  0  0  0  0  0  0
    5.6240   -0.4040   -0.1160 O   0  0  0  0  0  0  0  0  0  0  0  0
    4.8820    0.7450   -0.3140 C   0  0  0  0  0  0  0  0  0  0  0  0
    3.5010    0.4690   -0.8690 C   0  0  1  0  0  0  0  0  0  0  0  0
    3.5720   -0.2740   -2.0290 O   0  0  0  0  0  0  0  0  0  0  0  0
    1.3470   -0.6780   -0.2650 C   0  0  0  0  0  0  0  0  0  0  0  0
   -3.0030    0.6870   -0.3170 C   0  0  0  0  0  0  0  0  0  0  0  0
  1  2  1  0
  2  3  1  0
  3  4  2  0
  3  5  1  0
  5  6  1  1
  5  7  1  0
  5 24  1  0
  7  8  1  0
  8  9  1  0
  9 10  1  1
  9 24  1  0
 11 10  1  1
 11 12  1  0
 11 23  1  0
 12 13  1  0
 13 14  1  0
 14 15  1  0
 15 16  1  1
 15 21  1  0
 15 23  1  0
 16 17  1  0
 17 18  1  0
 18 19  1  0
 19 20  1  0
 20 21  1  0
 21 22  1  6
M  END
