
     RDKit          3D

 19 20  0  0  0  0  0  0  0  0999 V2000
    1.2260    0.8610   -1.9760 N   0  0  0  0  0  0  0  0  0  0  0  0
    1.0500    1.7500   -0.8300 C   0  0  1  0  0  0  0  0  0  0  0  0
    0.0090    1.1410    0.0640 C   0  0  0  0  0  0  0  0  0  0  0  0
   -0.8980    0.3520   -0.4280 C   0  0  0  0  0  0  0  0  0  0  0  0
   -0.9560    0.0320   -1.7790 O   0  0  0  0  0  0  0  0  0  0  0  0
   -2.1410   -0.3030   -2.4520 C   0  0  0  0  0  0  0  0  0  0  0  0
   -3.1580   -0.9890   -1.6030 C   0  0  0  0  0  0  0  0  0  0  0  0
   -2.8240   -1.0740   -0.2480 O   0  0  0  0  0  0  0  0  0  0  0  0
   -1.9180   -0.2520    0.4080 C   0  0  0  0  0  0  0  0  0  0  0  0
   -2.0020   -0.0500    1.7110 C   0  0  0  0  0  0  0  0  0  0  0  0
   -3.0830   -0.7180    2.4640 C   0  0  0  0  0  0  0  0  0  0  0  0
   -3.8970   -1.4570    1.8710 O   0  0  0  0  0  0  0  0  0  0  0  0
   -3.2190   -0.5440    3.8270 O   0  0  0  0  0  0  0  0  0  0  0  0
    2.2920    1.7070   -0.0820 N   0  0  0  0  0  0  0  0  0  0  0  0
    2.8010    0.4480    0.3400 C   0  0  0  0  0  0  0  0  0  0  0  0
    4.0720    0.1850    0.6790 C   0  0  0  0  0  0  0  0  0  0  0  0
    4.1280   -1.2460    1.0450 C   0  0  0  0  0  0  0  0  0  0  0  0
    2.7820   -1.7210    0.8720 N   0  0  0  0  0  0  0  0  0  0  0  0
    2.0820   -0.7470    0.4800 N   0  0  0  0  0  0  0  0  0  0  0  0
  2  1  1  6
  2  3  1  0
  2 14  1  0
  3  4  2  3
  4  5  1  0
  4  9  1  0
  5  6  1  0
  6  7  1  0
  7  8  1  0
  8  9  1  0
  9 10  2  3
 10 11  1  0
 11 12  2  0
 11 13  1  0
 14 15  1  0
 15 16  2  0
 15 19  1  0
 16 17  1  0
 17 18  1  0
 18 19  2  0
M  END
