
     RDKit          3D

 13 14  0  0  0  0  0  0  0  0999 V2000
    3.4060   -0.6520    0.5820 C   0  0  0  0  0  0  0  0  0  0  0  0
    2.3350    0.2210    0.0730 N   0  0  0  0  0  0  0  0  0  0  0  0
    0.9780   -0.1940    0.2280 C   0  0  0  0  0  0  0  0  0  0  0  0
    0.7010   -1.3830    0.8420 N   0  0  0  0  0  0  0  0  0  0  0  0
   -0.5390   -1.8480    1.0290 C   0  0  0  0  0  0  0  0  0  0  0  0
   -1.6400   -1.1400    0.6040 C   0  0  0  0  0  0  0  0  0  0  0  0
   -2.9750   -1.6060    0.7870 N   0  0  0  0  0  0  0  0  0  0  0  0
   -1.3670    0.0780   -0.0250 C   0  0  0  0  0  0  0  0  0  0  0  0
   -2.2390    0.9680   -0.5350 N   0  0  0  0  0  0  0  0  0  0  0  0
   -1.5430    1.9890   -1.0410 C   0  0  0  0  0  0  0  0  0  0  0  0
   -0.1580    1.7790   -0.8660 C   0  0  0  0  0  0  0  0  0  0  0  0
    0.8000    2.6390   -1.2750 O   0  0  0  0  0  0  0  0  0  0  0  0
   -0.0850    0.5550   -0.2170 C   0  0  0  0  0  0  0  0  0  0  0  0
  1  2  1  0
  2  3  1  0
  3  4  2  0
  3 13  1  0
  4  5  1  0
  5  6  2  0
  6  7  1  0
  6  8  1  0
  8  9  1  0
  8 13  2  0
  9 10  1  0
 10 11  2  0
 11 12  1  0
 11 13  1  0
M  END
