
     RDKit          3D

 19 20  0  0  0  0  0  0  0  0999 V2000
    5.6220    1.9930   -1.5090 O   0  0  0  0  0  0  0  0  0  0  0  0
    5.0250    1.3550   -0.6310 C   0  0  0  0  0  0  0  0  0  0  0  0
    5.3020   -0.1420   -0.4220 C   0  0  0  0  0  0  0  0  0  0  0  0
    3.8270   -0.5490   -0.2410 C   0  0  0  0  0  0  0  0  0  0  0  0
    3.3340    0.4900    0.7060 C   0  0  2  0  0  0  0  0  0  0  0  0
    1.9150    0.7230    0.8100 C   0  0  0  0  0  0  0  0  0  0  0  0
    1.2600    1.5860    1.2020 O   0  0  0  0  0  0  0  0  0  0  0  0
    1.0220   -0.6500    0.1860 N   0  0  0  0  0  0  0  0  0  0  0  0
   -0.2760   -0.1300    0.5210 C   0  0  0  0  0  0  0  0  0  0  0  0
   -0.6190    0.7490    1.2090 O   0  0  0  0  0  0  0  0  0  0  0  0
   -1.2870   -0.9110   -0.1980 N   0  0  0  0  0  0  0  0  0  0  0  0
   -2.6530   -0.7250   -0.1680 C   0  0  0  0  0  0  0  0  0  0  0  0
   -3.2640    0.0860    0.6910 C   0  0  0  0  0  0  0  0  0  0  0  0
   -4.7380    0.2980    0.7230 C   0  0  1  0  0  0  0  0  0  0  0  0
   -4.9580    1.6700    0.5040 O   0  0  0  0  0  0  0  0  0  0  0  0
   -5.4520   -0.4850   -0.2360 N   0  0  0  0  0  0  0  0  0  0  0  0
   -4.7750   -1.3360   -1.1580 C   0  0  0  0  0  0  0  0  0  0  0  0
   -3.4940   -1.4560   -1.1330 C   0  0  0  0  0  0  0  0  0  0  0  0
    4.0500    1.7140    0.3100 N   0  0  0  0  0  0  0  0  0  0  0  0
  1  2  2  0
  2  3  1  0
  2 19  1  0
  3  4  1  0
  4  5  1  0
  5  6  1  6
  5 19  1  0
  6  7  2  0
  6  8  1  0
  8  9  1  0
  9 10  2  0
  9 11  1  0
 11 12  1  0
 12 13  2  0
 12 18  1  0
 13 14  1  0
 14 15  1  6
 14 16  1  0
 16 17  1  0
 17 18  2  0
M  END
