
     RDKit          3D

  9  9  0  0  0  0  0  0  0  0999 V2000
   -2.6490    0.3030    0.1920 C   0  0  0  0  0  0  0  0  0  0  0  0
   -1.1960    0.0200    0.1220 C   0  0  0  0  0  0  0  0  0  0  0  0
   -0.7300   -1.2600   -0.0860 C   0  0  0  0  0  0  0  0  0  0  0  0
    0.6360   -1.4750   -0.1430 C   0  0  0  0  0  0  0  0  0  0  0  0
    1.5750   -0.4660   -0.0020 C   0  0  0  0  0  0  0  0  0  0  0  0
    3.3340   -0.7750   -0.0800 S   0  0  0  0  0  0  0  0  0  0  0  0
    1.0850    0.8050    0.2060 C   0  0  0  0  0  0  0  0  0  0  0  0
    2.2320    2.1590    0.3980 S   0  0  0  0  0  0  0  0  0  0  0  0
   -0.2770    1.0530    0.2680 C   0  0  0  0  0  0  0  0  0  0  0  0
  1  2  1  0
  2  3  2  0
  2  9  1  0
  3  4  1  0
  4  5  2  0
  5  6  1  0
  5  7  1  0
  7  8  1  0
  7  9  2  0
M  END
