
     RDKit          3D

 13 14  0  0  0  0  0  0  0  0999 V2000
    2.4500    1.9100   -0.2710 N   0  0  0  0  0  0  0  0  0  0  0  0
    1.5320    0.8430   -0.1130 C   0  0  0  0  0  0  0  0  0  0  0  0
    0.1610    1.0340   -0.1640 C   0  0  0  0  0  0  0  0  0  0  0  0
   -0.7380    0.0120   -0.0140 C   0  0  0  0  0  0  0  0  0  0  0  0
   -2.1110    0.2130   -0.0660 C   0  0  0  0  0  0  0  0  0  0  0  0
   -2.5580    1.5380   -0.2860 N   0  0  0  0  0  0  0  0  0  0  0  0
   -2.9390   -0.8350    0.0900 N   0  0  0  0  0  0  0  0  0  0  0  0
   -2.5120   -2.0940    0.2980 C   0  0  0  0  0  0  0  0  0  0  0  0
   -1.1830   -2.2940    0.3500 N   0  0  0  0  0  0  0  0  0  0  0  0
   -0.2930   -1.2760    0.2000 C   0  0  0  0  0  0  0  0  0  0  0  0
    1.0720   -1.5010    0.2560 C   0  0  0  0  0  0  0  0  0  0  0  0
    1.9550   -0.4530    0.1010 C   0  0  0  0  0  0  0  0  0  0  0  0
    3.3340   -0.7110    0.1630 O   0  0  0  0  0  0  0  0  0  0  0  0
  1  2  1  0
  2  3  2  0
  2 12  1  0
  3  4  1  0
  4  5  2  0
  4 10  1  0
  5  6  1  0
  5  7  1  0
  7  8  2  0
  8  9  1  0
  9 10  2  0
 10 11  1  0
 11 12  2  0
 12 13  1  0
M  END
