
     RDKit          3D

 13 14  0  0  0  0  0  0  0  0999 V2000
   -2.2800    0.8490   -0.0490 N   0  0  0  0  0  0  0  0  0  0  0  0
   -1.2840   -0.1610   -0.0310 C   0  0  0  0  0  0  0  0  0  0  0  0
   -1.5930   -1.5060   -0.0450 C   0  0  0  0  0  0  0  0  0  0  0  0
   -0.6450   -2.5050   -0.0270 C   0  0  0  0  0  0  0  0  0  0  0  0
    0.6900   -2.1670    0.0060 C   0  0  0  0  0  0  0  0  0  0  0  0
    1.0120   -0.8230    0.0210 C   0  0  0  0  0  0  0  0  0  0  0  0
    2.3110   -0.4600    0.0540 N   0  0  0  0  0  0  0  0  0  0  0  0
    2.6490    0.8460    0.0680 C   0  0  0  0  0  0  0  0  0  0  0  0
    3.8940    1.1050    0.1000 O   0  0  0  0  0  0  0  0  0  0  0  0
    1.7150    1.8160    0.0510 N   0  0  0  0  0  0  0  0  0  0  0  0
    0.3940    1.5270    0.0180 C   0  0  0  0  0  0  0  0  0  0  0  0
   -0.5990    2.5380   -0.0010 N   0  0  0  0  0  0  0  0  0  0  0  0
    0.0530    0.1820    0.0030 C   0  0  0  0  0  0  0  0  0  0  0  0
  1  2  1  0
  2  3  2  0
  2 13  1  0
  3  4  1  0
  4  5  2  0
  5  6  1  0
  6  7  1  0
  6 13  2  0
  7  8  1  0
  8  9  2  0
  8 10  1  0
 10 11  2  0
 11 12  1  0
 11 13  1  0
M  END
