
     RDKit          3D

 16 16  0  0  0  0  0  0  0  0999 V2000
   -0.2350    0.4430   -0.5860 O   0  0  0  0  0  0  0  0  0  0  0  0
   -0.0120    0.0890    0.5830 C   0  0  0  0  0  0  0  0  0  0  0  0
   -1.0870   -0.0290    1.4810 N   0  0  0  0  0  0  0  0  0  0  0  0
   -2.4690    0.2220    1.1640 C   0  0  0  0  0  0  0  0  0  0  0  0
   -2.9020   -0.7170    0.1010 C   0  0  0  0  0  0  0  0  0  0  0  0
   -4.3200   -0.5930   -0.3410 C   0  0  0  0  0  0  0  0  0  0  0  0
   -4.7340    0.7080   -0.9060 C   0  0  0  0  0  0  0  0  0  0  0  0
   -4.6170    1.8000   -0.0910 O   0  0  0  0  0  0  0  0  0  0  0  0
    1.3390   -0.1790    0.9440 N   0  0  0  0  0  0  0  0  0  0  0  0
    2.4000   -0.0430   -0.0130 C   0  0  1  0  0  0  0  0  0  0  0  0
    3.4300    0.8940    0.5640 C   0  0  0  0  0  0  0  0  0  0  0  0
    4.6620    0.8030   -0.2710 C   0  0  0  0  0  0  0  0  0  0  0  0
    4.5990   -0.8610   -0.9340 S   0  0  2  0  0  0  0  0  0  0  0  0
    5.7580   -1.6720   -0.5120 O   0  0  0  0  0  0  0  0  0  0  0  0
    4.3750   -0.8100   -2.3930 O   0  0  0  0  0  0  0  0  0  0  0  0
    3.0830   -1.3970   -0.1280 C   0  0  0  0  0  0  0  0  0  0  0  0
  1  2  2  0
  2  3  1  0
  2  9  1  0
  3  4  1  0
  4  5  1  0
  5  6  1  0
  6  7  1  0
  7  8  1  0
 10  9  1  1
 10 11  1  0
 10 16  1  0
 11 12  1  0
 13 12  1  1
 13 14  2  0
 13 15  2  0
 13 16  1  0
M  END
