
     RDKit          3D

 22 23  0  0  0  0  0  0  0  0999 V2000
   -6.2610    0.1300    0.8810 C   0  0  0  0  0  0  0  0  0  0  0  0
   -4.9390    0.1810    0.3830 O   0  0  0  0  0  0  0  0  0  0  0  0
   -3.9820   -0.7640    0.6460 C   0  0  0  0  0  0  0  0  0  0  0  0
   -4.2920   -1.7340    1.3700 O   0  0  0  0  0  0  0  0  0  0  0  0
   -2.6040   -0.6840    0.1100 C   0  0  0  0  0  0  0  0  0  0  0  0
   -2.2250    0.3640   -0.6890 C   0  0  0  0  0  0  0  0  0  0  0  0
   -3.2040    1.4620   -1.0410 C   0  0  0  0  0  0  0  0  0  0  0  0
   -0.9490    0.4340   -1.1830 C   0  0  0  0  0  0  0  0  0  0  0  0
   -0.0310   -0.5370   -0.8890 C   0  0  0  0  0  0  0  0  0  0  0  0
    1.2840   -0.4760   -1.3880 O   0  0  0  0  0  0  0  0  0  0  0  0
    2.3720   -0.0310   -0.6990 C   0  0  0  0  0  0  0  0  0  0  0  0
    3.4350   -0.9280   -0.5090 C   0  0  0  0  0  0  0  0  0  0  0  0
    4.5630   -0.5340    0.1810 C   0  0  0  0  0  0  0  0  0  0  0  0
    5.7100   -1.4430    0.4080 C   0  0  0  0  0  0  0  0  0  0  0  0
    4.6460    0.7440    0.6860 C   0  0  0  0  0  0  0  0  0  0  0  0
    3.6000    1.6590    0.5110 C   0  0  0  0  0  0  0  0  0  0  0  0
    3.6760    2.9340    1.0110 O   0  0  0  0  0  0  0  0  0  0  0  0
    2.4900    1.2420   -0.1790 C   0  0  0  0  0  0  0  0  0  0  0  0
    1.4450    2.0950   -0.3760 O   0  0  0  0  0  0  0  0  0  0  0  0
   -0.4060   -1.6030   -0.0810 C   0  0  0  0  0  0  0  0  0  0  0  0
   -1.6860   -1.6820    0.4200 C   0  0  0  0  0  0  0  0  0  0  0  0
   -2.1030   -2.7390    1.2380 O   0  0  0  0  0  0  0  0  0  0  0  0
  1  2  1  0
  2  3  1  0
  3  4  2  0
  3  5  1  0
  5  6  2  0
  5 21  1  0
  6  7  1  0
  6  8  1  0
  8  9  2  0
  9 10  1  0
  9 20  1  0
 10 11  1  0
 11 12  2  0
 11 18  1  0
 12 13  1  0
 13 14  1  0
 13 15  2  0
 15 16  1  0
 16 17  1  0
 16 18  2  0
 18 19  1  0
 20 21  2  0
 21 22  1  0
M  END
