
     RDKit          3D

 16 16  0  0  0  0  0  0  0  0999 V2000
    5.5770    1.5660    0.4380 N   0  0  0  0  0  0  0  0  0  0  0  0
    4.3480    0.8780    0.6250 C   0  0  0  0  0  0  0  0  0  0  0  0
    3.3850    1.3690    1.2670 O   0  0  0  0  0  0  0  0  0  0  0  0
    4.1590   -0.4890    0.0470 C   0  0  0  0  0  0  0  0  0  0  0  0
    2.8540   -1.0110    0.3460 N   0  0  0  0  0  0  0  0  0  0  0  0
    1.6480   -0.3800   -0.0640 C   0  0  0  0  0  0  0  0  0  0  0  0
    1.7310    0.6830   -0.7160 O   0  0  0  0  0  0  0  0  0  0  0  0
    0.3840   -0.9970    0.2940 C   0  0  0  0  0  0  0  0  0  0  0  0
    0.3660   -2.0660    0.9520 O   0  0  0  0  0  0  0  0  0  0  0  0
   -0.8420   -0.4480   -0.0650 O   0  0  0  0  0  0  0  0  0  0  0  0
   -2.0660   -1.0550    0.2870 C   0  0  0  0  0  0  0  0  0  0  0  0
   -3.2490   -0.2450   -0.2310 C   0  0  0  0  0  0  0  0  0  0  0  0
   -3.0950    0.8410   -0.8970 C   0  0  0  0  0  0  0  0  0  0  0  0
   -4.3000    1.5640   -1.3630 C   0  0  0  0  0  0  0  0  0  0  0  0
   -5.5700    0.8350   -0.2680 S   0  0  0  0  0  0  0  0  0  0  0  0
   -4.6310   -0.7160    0.0340 C   0  0  0  0  0  0  0  0  0  0  0  0
  1  2  1  0
  2  3  2  0
  2  4  1  0
  4  5  1  0
  5  6  1  0
  6  7  2  0
  6  8  1  0
  8  9  2  0
  8 10  1  0
 10 11  1  0
 11 12  1  0
 12 13  2  0
 12 16  1  0
 13 14  1  0
 14 15  1  0
 15 16  1  0
M  END
