
     RDKit          3D

 29 32  0  0  0  0  0  0  0  0999 V2000
   -6.8500   -1.0070    1.2410 C   0  0  0  0  0  0  0  0  0  0  0  0
   -6.2250    0.1360    0.5580 C   0  0  0  0  0  0  0  0  0  0  0  0
   -7.0450    1.1190    0.2780 C   0  0  0  0  0  0  0  0  0  0  0  0
   -6.9560    2.4250   -0.3620 C   0  0  0  0  0  0  0  0  0  0  0  0
   -5.9760    3.0340   -1.0050 C   0  0  0  0  0  0  0  0  0  0  0  0
   -4.6420    2.7430   -1.3600 N   0  0  0  0  0  0  0  0  0  0  0  0
   -3.8010    1.7770   -1.0900 C   0  0  0  0  0  0  0  0  0  0  0  0
   -3.8140    0.5490   -0.3080 C   0  0  0  0  0  0  0  0  0  0  0  0
   -2.5690   -0.1130   -0.2000 N   0  0  0  0  0  0  0  0  0  0  0  0
   -2.3830   -1.5130   -0.5250 C   0  0  0  0  0  0  0  0  0  0  0  0
   -1.3170   -2.0970    0.4110 C   0  0  0  0  0  0  0  0  0  0  0  0
   -0.0810   -1.4320    0.0750 N   0  0  0  0  0  0  0  0  0  0  0  0
    1.1790   -2.0810    0.0900 C   0  0  0  0  0  0  0  0  0  0  0  0
    1.2350   -3.2970    0.4100 O   0  0  0  0  0  0  0  0  0  0  0  0
    2.4240   -1.3610   -0.2620 C   0  0  0  0  0  0  0  0  0  0  0  0
    3.8410   -2.4850   -0.1400 S   0  0  0  0  0  0  0  0  0  0  0  0
    5.3180   -1.5670   -0.5750 C   0  0  0  0  0  0  0  0  0  0  0  0
    5.7990   -1.4620   -1.8160 N   0  0  0  0  0  0  0  0  0  0  0  0
    6.9030   -0.7100   -1.7700 N   0  0  0  0  0  0  0  0  0  0  0  0
    7.0910   -0.3590   -0.4920 C   0  0  0  0  0  0  0  0  0  0  0  0
    8.1880    0.4680    0.0130 C   0  0  0  0  0  0  0  0  0  0  0  0
    8.3800    0.8310    1.3390 C   0  0  0  0  0  0  0  0  0  0  0  0
    9.5200    1.6090    1.3980 C   0  0  0  0  0  0  0  0  0  0  0  0
    9.9780    1.6910    0.1070 C   0  0  0  0  0  0  0  0  0  0  0  0
    9.1640    1.0080   -0.6550 O   0  0  0  0  0  0  0  0  0  0  0  0
    6.1170   -0.8920    0.2040 O   0  0  0  0  0  0  0  0  0  0  0  0
   -0.1280   -0.0350   -0.2940 C   0  0  0  0  0  0  0  0  0  0  0  0
   -1.3820    0.6090    0.2570 C   0  0  0  0  0  0  0  0  0  0  0  0
   -4.7830   -0.0790    0.3320 C   0  0  0  0  0  0  0  0  0  0  0  0
  1  2  1  0
  2  3  2  0
  2 29  1  0
  3  4  1  0
  4  5  2  0
  5  6  1  0
  6  7  2  0
  7  8  1  0
  8  9  1  0
  8 29  2  0
  9 10  1  0
  9 28  1  0
 10 11  1  0
 11 12  1  0
 12 13  1  0
 12 27  1  0
 13 14  2  0
 13 15  1  0
 15 16  1  0
 16 17  1  0
 17 18  2  0
 17 26  1  0
 18 19  1  0
 19 20  2  0
 20 21  1  0
 20 26  1  0
 21 22  2  0
 21 25  1  0
 22 23  1  0
 23 24  2  0
 24 25  1  0
 27 28  1  0
M  END
