
     RDKit          3D

 30 33  0  0  0  0  0  0  0  0999 V2000
   -6.3660    2.6390    1.0330 C   0  0  0  0  0  0  0  0  0  0  0  0
   -4.9870    2.3140    0.7610 N   0  0  0  0  0  0  0  0  0  0  0  0
   -4.0720    2.0700    1.8100 C   0  0  0  0  0  0  0  0  0  0  0  0
   -4.4520    2.1340    3.0030 O   0  0  0  0  0  0  0  0  0  0  0  0
   -2.7340    1.7550    1.5360 N   0  0  0  0  0  0  0  0  0  0  0  0
   -2.3620    0.7530    0.7860 C   0  0  0  0  0  0  0  0  0  0  0  0
   -0.9570    0.5990    0.6280 N   0  0  0  0  0  0  0  0  0  0  0  0
   -0.0050    1.2070    1.5390 C   0  0  0  0  0  0  0  0  0  0  0  0
    1.3980    0.8880    1.1450 C   0  0  0  0  0  0  0  0  0  0  0  0
    2.2630    1.8390    0.8400 C   0  0  0  0  0  0  0  0  0  0  0  0
    3.6360    1.5930    0.4510 C   0  0  0  0  0  0  0  0  0  0  0  0
    4.4420    2.5110    0.1660 O   0  0  0  0  0  0  0  0  0  0  0  0
    4.1210    0.1740    0.3850 C   0  0  0  0  0  0  0  0  0  0  0  0
    5.3420   -0.0730    0.0400 C   0  0  0  0  0  0  0  0  0  0  0  0
    6.0800   -1.2660   -0.1120 C   0  0  0  0  0  0  0  0  0  0  0  0
    7.3770   -1.2600   -0.4920 C   0  0  0  0  0  0  0  0  0  0  0  0
    7.9150   -2.6290   -0.5760 C   0  0  0  0  0  0  0  0  0  0  0  0
    6.7900   -3.4580   -0.2030 C   0  0  0  0  0  0  0  0  0  0  0  0
    5.7510   -2.6440    0.0580 C   0  0  0  0  0  0  0  0  0  0  0  0
    3.0910   -0.7750    0.7370 C   0  0  0  0  0  0  0  0  0  0  0  0
    1.8620   -0.4380    1.0800 N   0  0  0  0  0  0  0  0  0  0  0  0
   -3.3090   -0.1050    0.1830 N   0  0  0  0  0  0  0  0  0  0  0  0
   -4.1650   -0.8950    0.8430 C   0  0  0  0  0  0  0  0  0  0  0  0
   -4.9500   -1.6010   -0.0580 C   0  0  0  0  0  0  0  0  0  0  0  0
   -4.5490   -1.2190   -1.2980 C   0  0  0  0  0  0  0  0  0  0  0  0
   -4.9430   -1.5640   -2.5290 N   0  0  0  0  0  0  0  0  0  0  0  0
   -4.3810   -1.0370   -3.6470 C   0  0  0  0  0  0  0  0  0  0  0  0
   -3.3670   -0.1120   -3.4870 C   0  0  0  0  0  0  0  0  0  0  0  0
   -2.9420    0.2610   -2.2480 C   0  0  0  0  0  0  0  0  0  0  0  0
   -3.5340   -0.2940   -1.1240 C   0  0  0  0  0  0  0  0  0  0  0  0
  1  2  1  0
  2  3  1  0
  3  4  2  0
  3  5  1  0
  5  6  2  3
  6  7  1  0
  6 22  1  0
  7  8  1  0
  8  9  1  0
  9 10  2  0
  9 21  1  0
 10 11  1  0
 11 12  2  0
 11 13  1  0
 13 14  2  3
 13 20  1  0
 14 15  1  0
 15 16  2  0
 15 19  1  0
 16 17  1  0
 17 18  1  0
 18 19  2  0
 20 21  2  0
 22 23  1  0
 22 30  1  0
 23 24  2  0
 24 25  1  0
 25 26  2  0
 25 30  1  0
 26 27  1  0
 27 28  2  0
 28 29  1  0
 29 30  2  0
M  END
