
     RDKit          3D

 29 32  0  0  0  0  0  0  0  0999 V2000
    8.6170    0.8950   -0.3580 C   0  0  0  0  0  0  0  0  0  0  0  0
    7.5580    1.9520   -0.1810 C   0  0  0  0  0  0  0  0  0  0  0  0
    6.3030    1.3350    0.3010 C   0  0  0  0  0  0  0  0  0  0  0  0
    5.1190    1.9900    0.5750 C   0  0  0  0  0  0  0  0  0  0  0  0
    4.2240    1.0340    0.9940 C   0  0  0  0  0  0  0  0  0  0  0  0
    4.8940   -0.1700    0.9590 C   0  0  0  0  0  0  0  0  0  0  0  0
    4.4180   -1.5340    1.3060 C   0  0  0  0  0  0  0  0  0  0  0  0
    3.8440   -2.1580    0.0520 C   0  0  0  0  0  0  0  0  0  0  0  0
    2.7200   -1.2790   -0.3860 C   0  0  0  0  0  0  0  0  0  0  0  0
    2.7640   -0.2160   -1.2250 N   0  0  0  0  0  0  0  0  0  0  0  0
    1.5700    0.2860   -1.3530 O   0  0  0  0  0  0  0  0  0  0  0  0
    0.7050   -0.3950   -0.6310 C   0  0  0  0  0  0  0  0  0  0  0  0
   -0.7770   -0.1470   -0.4980 C   0  0  2  0  0  0  0  0  0  0  0  0
   -1.1040    0.1170    0.9730 C   0  0  0  0  0  0  0  0  0  0  0  0
   -1.6210   -1.6720   -0.9890 S   0  0  0  0  0  0  0  0  0  0  0  0
   -3.3670   -1.4410   -0.8530 C   0  0  0  0  0  0  0  0  0  0  0  0
   -4.2860   -2.4300   -1.1590 C   0  0  0  0  0  0  0  0  0  0  0  0
   -5.5940   -2.1560   -1.0230 N   0  0  0  0  0  0  0  0  0  0  0  0
   -6.0760   -0.9800   -0.6060 C   0  0  0  0  0  0  0  0  0  0  0  0
   -7.4080   -0.6900   -0.4630 C   0  0  0  0  0  0  0  0  0  0  0  0
   -8.2490   -1.5790   -0.7380 O   0  0  0  0  0  0  0  0  0  0  0  0
   -7.8790    0.5000   -0.0420 N   0  0  0  0  0  0  0  0  0  0  0  0
   -9.3190    0.7490    0.0910 C   0  0  0  0  0  0  0  0  0  0  0  0
   -6.9900    1.4630    0.2570 C   0  0  0  0  0  0  0  0  0  0  0  0
   -5.6380    1.2230    0.1300 C   0  0  0  0  0  0  0  0  0  0  0  0
   -5.1480    0.0040   -0.3020 C   0  0  0  0  0  0  0  0  0  0  0  0
   -3.8410   -0.2540   -0.4330 N   0  0  0  0  0  0  0  0  0  0  0  0
    1.4180   -1.3640   -0.0320 N   0  0  0  0  0  0  0  0  0  0  0  0
    6.1090    0.0820    0.5430 O   0  0  0  0  0  0  0  0  0  0  0  0
  1  2  1  0
  2  3  1  0
  3  4  2  0
  3 29  1  0
  4  5  1  0
  5  6  2  0
  6  7  1  0
  6 29  1  0
  7  8  1  0
  8  9  1  0
  9 10  2  0
  9 28  1  0
 10 11  1  0
 11 12  1  0
 12 13  1  0
 12 28  2  0
 13 14  1  1
 13 15  1  0
 15 16  1  0
 16 17  2  0
 16 27  1  0
 17 18  1  0
 18 19  2  0
 19 20  1  0
 19 26  1  0
 20 21  2  0
 20 22  1  0
 22 23  1  0
 22 24  1  0
 24 25  2  0
 25 26  1  0
 26 27  2  0
M  END
