
     RDKit          3D

 29 32  0  0  0  0  0  0  0  0999 V2000
   -3.1130   -4.0450   -1.4110 C   0  0  0  0  0  0  0  0  0  0  0  0
   -3.2550   -2.8340   -0.5590 C   0  0  0  0  0  0  0  0  0  0  0  0
   -2.5500   -1.6920   -0.6560 N   0  0  0  0  0  0  0  0  0  0  0  0
   -2.9700   -0.8330    0.2890 C   0  0  0  0  0  0  0  0  0  0  0  0
   -2.4810    0.5570    0.5680 C   0  0  0  0  0  0  0  0  0  0  0  0
   -1.4210    0.8360   -0.4070 N   0  0  0  0  0  0  0  0  0  0  0  0
   -1.7830    1.4270   -1.6620 C   0  0  0  0  0  0  0  0  0  0  0  0
   -1.7320    2.9050   -1.5290 C   0  0  0  0  0  0  0  0  0  0  0  0
   -1.3930    3.5840   -0.3860 C   0  0  0  0  0  0  0  0  0  0  0  0
   -1.4620    4.9320   -0.6610 C   0  0  0  0  0  0  0  0  0  0  0  0
   -1.8450    5.0280   -1.9780 C   0  0  0  0  0  0  0  0  0  0  0  0
   -1.9900    3.8160   -2.4390 O   0  0  0  0  0  0  0  0  0  0  0  0
   -0.0870    0.5020   -0.0510 C   0  0  0  0  0  0  0  0  0  0  0  0
    0.2120   -0.0150    1.0520 O   0  0  0  0  0  0  0  0  0  0  0  0
    1.0000    0.7730   -1.0160 C   0  0  0  0  0  0  0  0  0  0  0  0
    2.3200    0.3590   -0.4700 C   0  0  0  0  0  0  0  0  0  0  0  0
    3.1140    1.1640    0.2380 N   0  0  0  0  0  0  0  0  0  0  0  0
    4.1960    0.4340    0.5440 C   0  0  0  0  0  0  0  0  0  0  0  0
    4.0680   -0.7820    0.0380 N   0  0  0  0  0  0  0  0  0  0  0  0
    2.8890   -0.8270   -0.5990 N   0  0  0  0  0  0  0  0  0  0  0  0
    5.0130   -1.8530    0.1490 C   0  0  0  0  0  0  0  0  0  0  0  0
    6.2880   -1.4910    0.8180 C   0  0  0  0  0  0  0  0  0  0  0  0
    6.5900   -0.0350    0.8910 C   0  0  0  0  0  0  0  0  0  0  0  0
    5.4010    0.7970    1.3100 C   0  0  0  0  0  0  0  0  0  0  0  0
   -3.9680   -1.4920    0.9780 C   0  0  0  0  0  0  0  0  0  0  0  0
   -4.7170   -0.9300    2.1040 C   0  0  0  0  0  0  0  0  0  0  0  0
   -5.6490   -1.6610    2.6810 C   0  0  0  0  0  0  0  0  0  0  0  0
   -6.0160   -3.3310    2.1110 S   0  0  0  0  0  0  0  0  0  0  0  0
   -4.0950   -2.6670    0.4360 O   0  0  0  0  0  0  0  0  0  0  0  0
  1  2  1  0
  2  3  2  0
  2 29  1  0
  3  4  1  0
  4  5  1  0
  4 25  2  0
  5  6  1  0
  6  7  1  0
  6 13  1  0
  7  8  1  0
  8  9  2  0
  8 12  1  0
  9 10  1  0
 10 11  2  0
 11 12  1  0
 13 14  2  0
 13 15  1  0
 15 16  1  0
 16 17  1  0
 16 20  2  0
 17 18  2  0
 18 19  1  0
 18 24  1  0
 19 20  1  0
 19 21  1  0
 21 22  1  0
 22 23  1  0
 23 24  1  0
 25 26  1  0
 25 29  1  0
 26 27  2  3
 27 28  1  0
M  END
