
     RDKit          3D

 29 32  0  0  0  0  0  0  0  0999 V2000
    6.8080    2.2510   -0.9330 C   0  0  0  0  0  0  0  0  0  0  0  0
    6.2580    0.8770   -0.8690 C   0  0  0  0  0  0  0  0  0  0  0  0
    6.7790   -0.0350   -0.0810 C   0  0  0  0  0  0  0  0  0  0  0  0
    7.8640    0.1380    0.7660 O   0  0  0  0  0  0  0  0  0  0  0  0
    8.1110   -1.0600    1.4340 C   0  0  0  0  0  0  0  0  0  0  0  0
    7.0860   -2.0040    0.9330 C   0  0  0  0  0  0  0  0  0  0  0  0
    6.3060   -1.4120    0.0490 C   0  0  0  0  0  0  0  0  0  0  0  0
    5.2290   -1.9190   -0.6630 O   0  0  0  0  0  0  0  0  0  0  0  0
    3.9190   -1.5670   -0.3910 C   0  0  0  0  0  0  0  0  0  0  0  0
    2.8930   -2.1030   -1.1300 C   0  0  0  0  0  0  0  0  0  0  0  0
    1.5780   -1.7290   -0.8330 C   0  0  0  0  0  0  0  0  0  0  0  0
    1.3170   -0.8360    0.1870 C   0  0  0  0  0  0  0  0  0  0  0  0
   -0.0130   -0.4350    0.5140 N   0  0  0  0  0  0  0  0  0  0  0  0
   -1.0360   -1.2170    0.9280 C   0  0  0  0  0  0  0  0  0  0  0  0
   -2.1260   -0.4550    1.1320 N   0  0  0  0  0  0  0  0  0  0  0  0
   -1.7990    0.8010    0.8510 C   0  0  0  0  0  0  0  0  0  0  0  0
   -2.8110    2.2780    0.9280 S   0  0  0  0  0  0  0  0  0  0  0  0
   -3.6360    2.5270   -0.6680 C   0  0  0  0  0  0  0  0  0  0  0  0
   -4.6110    1.4040   -0.8790 C   0  0  0  0  0  0  0  0  0  0  0  0
   -4.3680    0.2220   -1.4800 N   0  0  0  0  0  0  0  0  0  0  0  0
   -5.4760   -0.5060   -1.4750 N   0  0  0  0  0  0  0  0  0  0  0  0
   -6.4320    0.2330   -0.8600 C   0  0  0  0  0  0  0  0  0  0  0  0
   -7.8470   -0.2120   -0.6370 C   0  0  2  0  0  0  0  0  0  0  0  0
   -8.7880    0.8160   -1.2130 C   0  0  0  0  0  0  0  0  0  0  0  0
   -8.0830   -0.2870    0.8560 C   0  0  0  0  0  0  0  0  0  0  0  0
   -5.8720    1.3520   -0.5260 O   0  0  0  0  0  0  0  0  0  0  0  0
   -0.5140    0.7950    0.4780 N   0  0  0  0  0  0  0  0  0  0  0  0
    2.3600   -0.3080    0.9190 C   0  0  0  0  0  0  0  0  0  0  0  0
    3.6790   -0.6770    0.6290 C   0  0  0  0  0  0  0  0  0  0  0  0
  1  2  1  0
  2  3  2  3
  3  4  1  0
  3  7  1  0
  4  5  1  0
  5  6  1  0
  6  7  2  0
  7  8  1  0
  8  9  1  0
  9 10  2  0
  9 29  1  0
 10 11  1  0
 11 12  2  0
 12 13  1  0
 12 28  1  0
 13 14  1  0
 13 27  1  0
 14 15  2  0
 15 16  1  0
 16 17  1  0
 16 27  2  0
 17 18  1  0
 18 19  1  0
 19 20  2  0
 19 26  1  0
 20 21  1  0
 21 22  2  0
 22 23  1  0
 22 26  1  0
 23 24  1  1
 23 25  1  0
 28 29  2  0
M  END
