
     RDKit          3D

 15 15  0  0  0  0  0  0  0  0999 V2000
    4.7450   -0.1980    0.6120 C   0  0  0  0  0  0  0  0  0  0  0  0
    3.3670   -0.4780    0.4360 O   0  0  0  0  0  0  0  0  0  0  0  0
    2.6130    0.3500   -0.3770 C   0  0  0  0  0  0  0  0  0  0  0  0
    3.1830    1.3200   -0.9290 O   0  0  0  0  0  0  0  0  0  0  0  0
    1.1650    0.1420   -0.6240 C   0  0  1  0  0  0  0  0  0  0  0  0
    0.6460   -0.9980    0.0660 N   0  0  0  0  0  0  0  0  0  0  0  0
    0.4550    1.4290   -0.2720 C   0  0  0  0  0  0  0  0  0  0  0  0
   -0.9080    1.4030   -0.5690 O   0  0  0  0  0  0  0  0  0  0  0  0
   -1.8130    0.4950   -0.0230 C   0  0  0  0  0  0  0  0  0  0  0  0
   -1.7230    0.2090    1.2490 C   0  0  0  0  0  0  0  0  0  0  0  0
   -2.5380   -0.6980    2.0550 C   0  0  0  0  0  0  0  0  0  0  0  0
   -3.8510   -1.5300    1.1380 S   0  0  0  0  0  0  0  0  0  0  0  0
   -3.7010   -0.9290   -0.5410 C   0  0  0  0  0  0  0  0  0  0  0  0
   -2.7990   -0.0720   -0.9150 C   0  0  0  0  0  0  0  0  0  0  0  0
   -2.8120    0.3130   -2.3080 N   0  0  0  0  0  0  0  0  0  0  0  0
  1  2  1  0
  2  3  1  0
  3  4  2  0
  3  5  1  0
  5  6  1  1
  5  7  1  0
  7  8  1  0
  8  9  1  0
  9 10  2  0
  9 14  1  0
 10 11  1  0
 11 12  1  0
 12 13  1  0
 13 14  2  0
 14 15  1  0
M  END
