
     RDKit          3D

 16 17  0  0  0  0  0  0  0  0999 V2000
    1.6700   -0.8590   -1.4140 O   0  0  0  0  0  0  0  0  0  0  0  0
    1.5510   -0.2680   -0.3310 C   0  0  0  0  0  0  0  0  0  0  0  0
    0.2770   -0.1220    0.3040 N   0  0  0  0  0  0  0  0  0  0  0  0
   -0.8990   -0.6780   -0.3350 C   0  0  0  0  0  0  0  0  0  0  0  0
   -2.1120   -0.3940    0.5280 C   0  0  2  0  0  0  0  0  0  0  0  0
   -3.3710   -0.9310   -0.0720 C   0  0  0  0  0  0  0  0  0  0  0  0
   -4.2000    0.3460   -0.2590 C   0  0  0  0  0  0  0  0  0  0  0  0
   -3.0690    1.3740   -0.3930 C   0  0  0  0  0  0  0  0  0  0  0  0
   -2.2410    0.9750    0.6580 O   0  0  0  0  0  0  0  0  0  0  0  0
    2.7270    0.3120    0.3510 C   0  0  2  0  0  0  0  0  0  0  0  0
    2.4240    0.9290    1.5340 O   0  0  0  0  0  0  0  0  0  0  0  0
    3.4050    1.3580   -0.5450 C   0  0  0  0  0  0  0  0  0  0  0  0
    4.2690    0.2170   -1.7000 S   0  0  0  0  0  0  0  0  0  0  0  0
    4.3010   -1.2180   -0.6330 N   0  0  0  0  0  0  0  0  0  0  0  0
    3.7240   -0.7570    0.5820 C   0  0  0  0  0  0  0  0  0  0  0  0
    4.0470   -1.2290    1.7290 O   0  0  0  0  0  0  0  0  0  0  0  0
  1  2  2  0
  2  3  1  0
  2 10  1  0
  3  4  1  0
  5  4  1  6
  5  6  1  0
  5  9  1  0
  6  7  1  0
  7  8  1  0
  8  9  1  0
 10 11  1  1
 10 12  1  0
 10 15  1  0
 12 13  1  0
 13 14  1  0
 14 15  1  0
 15 16  2  0
M  END
