
     RDKit          3D

 15 16  0  0  0  0  0  0  0  0999 V2000
   -5.0050   -1.5420   -0.0150 O   0  0  0  0  0  0  0  0  0  0  0  0
   -3.9730   -0.5140   -0.2530 S   0  0  2  0  0  0  0  0  0  0  0  0
   -4.4870    0.8940   -0.1380 O   0  0  0  0  0  0  0  0  0  0  0  0
   -3.0880   -0.7590   -1.7750 C   0  0  0  0  0  0  0  0  0  0  0  0
   -1.7040   -0.5180   -1.3720 C   0  0  0  0  0  0  0  0  0  0  0  0
   -1.4300   -0.4810   -0.1210 C   0  0  0  0  0  0  0  0  0  0  0  0
   -0.1200   -0.2550    0.4280 N   0  0  0  0  0  0  0  0  0  0  0  0
    0.3190    1.0290    0.9160 C   0  0  0  0  0  0  0  0  0  0  0  0
    1.7780    1.0860    0.5600 C   0  0  0  0  0  0  0  0  0  0  0  0
    2.2250   -0.3430    0.6350 C   0  0  2  0  0  0  0  0  0  0  0  0
    2.9000   -0.5390    1.8320 O   0  0  0  0  0  0  0  0  0  0  0  0
    3.0880   -0.6300   -0.5750 C   0  0  0  0  0  0  0  0  0  0  0  0
    4.1860    0.2190   -0.5520 O   0  0  0  0  0  0  0  0  0  0  0  0
    0.9630   -1.1840    0.6010 C   0  0  0  0  0  0  0  0  0  0  0  0
   -2.5570   -0.6870    0.8150 C   0  0  0  0  0  0  0  0  0  0  0  0
  1  2  2  0
  2  3  2  0
  2  4  1  6
  2 15  1  0
  4  5  1  0
  5  6  2  0
  6  7  1  0
  6 15  1  0
  7  8  1  0
  7 14  1  0
  8  9  1  0
  9 10  1  0
 10 11  1  1
 10 12  1  0
 10 14  1  0
 12 13  1  0
M  END
