
     RDKit          3D

 26 29  0  0  0  0  0  0  0  0999 V2000
    8.7890    1.7040    0.5850 C   0  0  0  0  0  0  0  0  0  0  0  0
    7.3010    1.5540    0.5010 C   0  0  0  0  0  0  0  0  0  0  0  0
    6.3900    2.5530    0.4510 N   0  0  0  0  0  0  0  0  0  0  0  0
    5.1820    2.0270    0.3810 N   0  0  0  0  0  0  0  0  0  0  0  0
    5.3160    0.7010    0.3860 C   0  0  0  0  0  0  0  0  0  0  0  0
    4.2490   -0.3020    0.3230 C   0  0  0  0  0  0  0  0  0  0  0  0
    4.5240   -1.6530    0.3350 C   0  0  0  0  0  0  0  0  0  0  0  0
    3.5410   -2.6160    0.2770 C   0  0  0  0  0  0  0  0  0  0  0  0
    2.2040   -2.1960    0.2020 C   0  0  0  0  0  0  0  0  0  0  0  0
    1.1590   -3.2360    0.1520 C   0  0  0  0  0  0  0  0  0  0  0  0
    1.8840   -0.8640    0.1870 C   0  0  0  0  0  0  0  0  0  0  0  0
    0.5000   -0.4270    0.0980 C   0  0  0  0  0  0  0  0  0  0  0  0
   -0.3340   -0.9600   -0.8570 C   0  0  0  0  0  0  0  0  0  0  0  0
   -1.6800   -0.5630   -0.9680 C   0  0  0  0  0  0  0  0  0  0  0  0
   -2.1880    0.3750   -0.1140 C   0  0  0  0  0  0  0  0  0  0  0  0
   -3.6010    0.8330   -0.1870 C   0  0  0  0  0  0  0  0  0  0  0  0
   -4.0310    1.6010    0.7140 O   0  0  0  0  0  0  0  0  0  0  0  0
   -4.4720    0.4470   -1.2180 N   0  0  0  0  0  0  0  0  0  0  0  0
   -5.8300    0.7910   -1.3970 C   0  0  0  0  0  0  0  0  0  0  0  0
   -6.8520    0.3520   -0.4520 C   0  0  1  0  0  0  0  0  0  0  0  0
   -7.0160    0.6350    0.9780 C   0  0  0  0  0  0  0  0  0  0  0  0
   -7.9100    1.3450    0.0020 C   0  0  0  0  0  0  0  0  0  0  0  0
   -1.3470    0.9070    0.8440 C   0  0  0  0  0  0  0  0  0  0  0  0
   -0.0310    0.5210    0.9550 C   0  0  0  0  0  0  0  0  0  0  0  0
    2.9310    0.0660    0.2490 C   0  0  0  0  0  0  0  0  0  0  0  0
    6.5940    0.4480    0.4580 O   0  0  0  0  0  0  0  0  0  0  0  0
  1  2  1  0
  2  3  2  0
  2 26  1  0
  3  4  1  0
  4  5  2  0
  5  6  1  0
  5 26  1  0
  6  7  2  0
  6 25  1  0
  7  8  1  0
  8  9  2  0
  9 10  1  0
  9 11  1  0
 11 12  1  0
 11 25  2  0
 12 13  2  0
 12 24  1  0
 13 14  1  0
 14 15  2  0
 15 16  1  0
 15 23  1  0
 16 17  2  0
 16 18  1  0
 18 19  1  0
 20 19  1  6
 20 21  1  0
 20 22  1  0
 21 22  1  0
 23 24  2  0
M  END
