
     RDKit          3D

 16 17  0  0  0  0  0  0  0  0999 V2000
    4.4000    0.9020    1.4370 N   0  0  0  0  0  0  0  0  0  0  0  0
    4.1920    0.6000    0.0850 C   0  0  0  0  0  0  0  0  0  0  0  0
    5.1800    0.3650   -0.6580 O   0  0  0  0  0  0  0  0  0  0  0  0
    2.8490    0.5390   -0.5340 C   0  0  1  0  0  0  0  0  0  0  0  0
    2.5490   -0.7820   -1.1610 C   0  0  0  0  0  0  0  0  0  0  0  0
    1.1250   -1.0530   -0.6590 C   0  0  0  0  0  0  0  0  0  0  0  0
    0.7110    0.3790   -0.2980 C   0  0  1  0  0  0  0  0  0  0  0  0
   -0.5160    0.4220    0.4870 C   0  0  0  0  0  0  0  0  0  0  0  0
   -0.5290    0.8200    1.6650 O   0  0  0  0  0  0  0  0  0  0  0  0
   -1.7360   -0.0020   -0.1060 N   0  0  0  0  0  0  0  0  0  0  0  0
   -3.0030    0.0050    0.5970 C   0  0  1  0  0  0  0  0  0  0  0  0
   -3.9650    0.9130   -0.1400 C   0  0  0  0  0  0  0  0  0  0  0  0
   -3.9640    0.4610   -1.4790 O   0  0  0  0  0  0  0  0  0  0  0  0
   -4.3250   -1.2210   -1.2210 S   0  0  0  0  0  0  0  0  0  0  0  0
   -3.6970   -1.3580    0.5010 C   0  0  0  0  0  0  0  0  0  0  0  0
    1.8350    0.8150    0.3810 O   0  0  0  0  0  0  0  0  0  0  0  0
  1  2  1  0
  2  3  2  0
  4  2  1  1
  4  5  1  0
  4 16  1  0
  5  6  1  0
  6  7  1  0
  7  8  1  1
  7 16  1  0
  8  9  2  0
  8 10  1  0
 11 10  1  6
 11 12  1  0
 11 15  1  0
 12 13  1  0
 13 14  1  0
 14 15  1  0
M  END
