
     RDKit          3D

 22 24  0  0  0  0  0  0  0  0999 V2000
    5.2610   -1.6670    0.5330 C   0  0  0  0  0  0  0  0  0  0  0  0
    3.7930   -1.7680    0.2930 C   0  0  0  0  0  0  0  0  0  0  0  0
    3.0000   -0.6400    0.2470 C   0  0  0  0  0  0  0  0  0  0  0  0
    1.6490   -0.7070    0.0280 C   0  0  0  0  0  0  0  0  0  0  0  0
    0.8980    0.4500   -0.0070 C   0  0  0  0  0  0  0  0  0  0  0  0
   -0.4590    0.2880   -0.2310 C   0  0  0  0  0  0  0  0  0  0  0  0
   -1.0350   -0.9630   -0.4110 C   0  0  0  0  0  0  0  0  0  0  0  0
   -2.4280   -1.0980   -0.6430 N   0  0  0  0  0  0  0  0  0  0  0  0
   -3.0090   -2.4000   -0.8250 C   0  0  0  0  0  0  0  0  0  0  0  0
   -4.4920   -2.3540   -1.0590 C   0  0  0  0  0  0  0  0  0  0  0  0
   -5.1250   -1.7630    0.0320 O   0  0  0  0  0  0  0  0  0  0  0  0
   -0.2240   -2.0550   -0.3610 N   0  0  0  0  0  0  0  0  0  0  0  0
    1.0950   -1.9570   -0.1480 C   0  0  0  0  0  0  0  0  0  0  0  0
    1.8660   -3.0940   -0.1060 C   0  0  0  0  0  0  0  0  0  0  0  0
    3.2170   -2.9940    0.1150 C   0  0  0  0  0  0  0  0  0  0  0  0
    3.9350   -4.1480    0.1480 F   0  0  0  0  0  0  0  0  0  0  0  0
   -1.4040    1.4450   -0.2890 C   0  0  0  0  0  0  0  0  0  0  0  0
   -0.7180    2.6960    0.1720 C   0  0  1  0  0  0  0  0  0  0  0  0
   -1.4990    3.9390   -0.0890 C   0  0  0  0  0  0  0  0  0  0  0  0
   -0.5510    2.5730    1.6910 C   0  0  0  0  0  0  0  0  0  0  0  0
    0.6110    2.7990   -0.5110 C   0  0  0  0  0  0  0  0  0  0  0  0
    1.5340    1.7860    0.1810 C   0  0  0  0  0  0  0  0  0  0  0  0
  1  2  1  0
  2  3  2  0
  2 15  1  0
  3  4  1  0
  4  5  2  0
  4 13  1  0
  5  6  1  0
  5 22  1  0
  6  7  2  0
  6 17  1  0
  7  8  1  0
  7 12  1  0
  8  9  1  0
  9 10  1  0
 10 11  1  0
 12 13  2  0
 13 14  1  0
 14 15  2  0
 15 16  1  0
 17 18  1  0
 18 19  1  1
 18 20  1  0
 18 21  1  0
 21 22  1  0
M  END
