
     RDKit          3D

 27 29  0  0  0  0  0  0  0  0999 V2000
   -2.2540    2.1830    0.1780 N   0  0  0  0  0  0  0  0  0  0  0  0
   -2.1610    0.7440   -0.0550 C   0  0  2  0  0  0  0  0  0  0  0  0
   -3.0650    0.1520    1.0390 C   0  0  0  0  0  0  0  0  0  0  0  0
   -4.4530    0.6580    0.8820 C   0  0  0  0  0  0  0  0  0  0  0  0
   -5.3460   -0.0470    0.0700 C   0  0  0  0  0  0  0  0  0  0  0  0
   -6.6400    0.3620   -0.1150 C   0  0  0  0  0  0  0  0  0  0  0  0
   -7.0860    1.4970    0.5110 C   0  0  0  0  0  0  0  0  0  0  0  0
   -6.2420    2.2250    1.3210 C   0  0  0  0  0  0  0  0  0  0  0  0
   -4.9510    1.7840    1.4820 C   0  0  0  0  0  0  0  0  0  0  0  0
   -0.7550    0.2990    0.1320 C   0  0  0  0  0  0  0  0  0  0  0  0
    0.0440    1.1380    0.5870 O   0  0  0  0  0  0  0  0  0  0  0  0
   -0.3000   -0.9880   -0.1740 N   0  0  0  0  0  0  0  0  0  0  0  0
   -1.1490   -2.0800   -0.7640 C   0  0  0  0  0  0  0  0  0  0  0  0
   -0.2790   -2.3640   -1.9940 C   0  0  0  0  0  0  0  0  0  0  0  0
    1.1470   -2.0700   -1.5540 C   0  0  0  0  0  0  0  0  0  0  0  0
    0.9180   -1.7200   -0.0950 C   0  0  1  0  0  0  0  0  0  0  0  0
    2.0560   -1.2130    0.6010 C   0  0  0  0  0  0  0  0  0  0  0  0
    2.0260   -0.1790    1.2820 O   0  0  0  0  0  0  0  0  0  0  0  0
    3.3310   -1.8780    0.5570 N   0  0  0  0  0  0  0  0  0  0  0  0
    4.4880   -1.3980    1.2410 C   0  0  0  0  0  0  0  0  0  0  0  0
    5.1470   -0.2480    0.6070 C   0  0  0  0  0  0  0  0  0  0  0  0
    6.0030   -0.4430   -0.4460 C   0  0  0  0  0  0  0  0  0  0  0  0
    6.6360    0.6470   -1.0540 C   0  0  0  0  0  0  0  0  0  0  0  0
    6.4040    1.9120   -0.6010 C   0  0  0  0  0  0  0  0  0  0  0  0
    5.5490    2.1300    0.4550 C   0  0  0  0  0  0  0  0  0  0  0  0
    5.2520    3.7480    1.0360 Cl  0  0  0  0  0  0  0  0  0  0  0  0
    4.9250    1.0290    1.0500 C   0  0  0  0  0  0  0  0  0  0  0  0
  2  1  1  1
  2  3  1  0
  2 10  1  0
  3  4  1  0
  4  5  2  0
  4  9  1  0
  5  6  1  0
  6  7  2  0
  7  8  1  0
  8  9  2  0
 10 11  2  0
 10 12  1  0
 12 13  1  0
 12 16  1  0
 13 14  1  0
 14 15  1  0
 15 16  1  0
 16 17  1  6
 17 18  2  0
 17 19  1  0
 19 20  1  0
 20 21  1  0
 21 22  2  0
 21 27  1  0
 22 23  1  0
 23 24  2  0
 24 25  1  0
 25 26  1  0
 25 27  2  0
M  CHG  1   1   1
M  END
