
     RDKit          3D

 22 24  0  0  0  0  0  0  0  0999 V2000
    3.7860   -1.5950   -0.8960 C   0  0  0  0  0  0  0  0  0  0  0  0
    4.0990   -0.3680   -0.0850 C   0  0  0  0  0  0  0  0  0  0  0  0
    4.9380    0.5690   -0.4630 C   0  0  0  0  0  0  0  0  0  0  0  0
    5.6380    0.5520   -1.6430 F   0  0  0  0  0  0  0  0  0  0  0  0
    4.9700    1.5940    0.5950 C   0  0  0  0  0  0  0  0  0  0  0  0
    4.0320    1.0960    1.6140 C   0  0  0  0  0  0  0  0  0  0  0  0
    3.5310   -0.0400    1.2130 C   0  0  0  0  0  0  0  0  0  0  0  0
    2.5340   -0.8470    1.9960 C   0  0  0  0  0  0  0  0  0  0  0  0
    1.2430   -1.0260    1.2140 C   0  0  0  0  0  0  0  0  0  0  0  0
    0.6910    0.3420    0.9430 C   0  0  0  0  0  0  0  0  0  0  0  0
   -0.5520    0.3000    0.1950 N   0  0  0  0  0  0  0  0  0  0  0  0
   -0.5460    0.3240   -1.1490 C   0  0  0  0  0  0  0  0  0  0  0  0
   -1.7360    0.2840   -1.8660 C   0  0  0  0  0  0  0  0  0  0  0  0
   -2.9480    0.2190   -1.2230 C   0  0  0  0  0  0  0  0  0  0  0  0
   -4.1530    0.1780   -1.9340 C   0  0  0  0  0  0  0  0  0  0  0  0
   -5.3470    0.1120   -1.2460 C   0  0  0  0  0  0  0  0  0  0  0  0
   -5.3210    0.0890    0.1310 C   0  0  0  0  0  0  0  0  0  0  0  0
   -6.5770    0.0180    0.9520 C   0  0  0  0  0  0  0  0  0  0  0  0
   -4.1400    0.1300    0.7760 N   0  0  0  0  0  0  0  0  0  0  0  0
   -2.9510    0.1940    0.1460 C   0  0  0  0  0  0  0  0  0  0  0  0
   -1.7500    0.2360    0.8050 C   0  0  0  0  0  0  0  0  0  0  0  0
   -1.7560    0.2130    2.0660 O   0  0  0  0  0  0  0  0  0  0  0  0
  1  2  1  0
  2  3  2  0
  2  7  1  0
  3  4  1  0
  3  5  1  0
  5  6  1  0
  6  7  2  0
  7  8  1  0
  8  9  1  0
  9 10  1  0
 10 11  1  0
 11 12  1  0
 11 21  1  0
 12 13  2  0
 13 14  1  0
 14 15  2  0
 14 20  1  0
 15 16  1  0
 16 17  2  0
 17 18  1  0
 17 19  1  0
 19 20  2  0
 20 21  1  0
 21 22  2  0
M  END
