
     RDKit          3D

 22 24  0  0  0  0  0  0  0  0999 V2000
   -6.5050    1.1600    1.0470 C   0  0  0  0  0  0  0  0  0  0  0  0
   -5.1450    0.6070    0.9110 C   0  0  0  0  0  0  0  0  0  0  0  0
   -4.5870   -0.0330    1.9960 C   0  0  0  0  0  0  0  0  0  0  0  0
   -3.3140   -0.5390    1.8400 C   0  0  0  0  0  0  0  0  0  0  0  0
   -2.6390   -0.3970    0.6260 C   0  0  0  0  0  0  0  0  0  0  0  0
   -3.2170    0.2430   -0.4360 C   0  0  0  0  0  0  0  0  0  0  0  0
   -2.5070    0.4010   -1.7290 C   0  0  0  0  0  0  0  0  0  0  0  0
   -1.1630   -0.1750   -1.5950 N   0  0  0  0  0  0  0  0  0  0  0  0
   -0.1270    0.4720   -0.9120 C   0  0  0  0  0  0  0  0  0  0  0  0
   -0.3980    1.6000   -0.4030 O   0  0  0  0  0  0  0  0  0  0  0  0
    1.2210   -0.0590   -0.7530 C   0  0  0  0  0  0  0  0  0  0  0  0
    1.6200   -1.2580   -1.3030 C   0  0  0  0  0  0  0  0  0  0  0  0
    2.9030   -1.7570   -1.1450 C   0  0  0  0  0  0  0  0  0  0  0  0
    3.8310   -1.0450   -0.4130 C   0  0  0  0  0  0  0  0  0  0  0  0
    5.1570   -1.2450   -0.0660 C   0  0  0  0  0  0  0  0  0  0  0  0
    5.5820   -0.1790    0.6950 C   0  0  0  0  0  0  0  0  0  0  0  0
    6.9590   -0.0130    1.2700 C   0  0  0  0  0  0  0  0  0  0  0  0
    7.7370    0.6500    0.3720 F   0  0  0  0  0  0  0  0  0  0  0  0
    4.5360    0.6470    0.8050 N   0  0  0  0  0  0  0  0  0  0  0  0
    3.4600    0.1670    0.1550 C   0  0  0  0  0  0  0  0  0  0  0  0
    2.1680    0.6320   -0.0260 C   0  0  0  0  0  0  0  0  0  0  0  0
   -4.4800    0.7440   -0.2770 C   0  0  0  0  0  0  0  0  0  0  0  0
  1  2  1  0
  2  3  2  0
  2 22  1  0
  3  4  1  0
  4  5  2  0
  5  6  1  0
  6  7  1  0
  6 22  2  0
  7  8  1  0
  8  9  1  0
  9 10  2  0
  9 11  1  0
 11 12  2  0
 11 21  1  0
 12 13  1  0
 13 14  2  0
 14 15  1  0
 14 20  1  0
 15 16  2  0
 16 17  1  0
 16 19  1  0
 17 18  1  0
 19 20  1  0
 20 21  2  0
M  END
