
     RDKit          3D

 25 28  0  0  0  0  0  0  0  0999 V2000
    2.7780    2.6980    2.1020 C   0  0  0  0  0  0  0  0  0  0  0  0
    3.1050    1.4370    1.3790 C   0  0  0  0  0  0  0  0  0  0  0  0
    4.4100    1.0920    1.1150 C   0  0  0  0  0  0  0  0  0  0  0  0
    4.7540   -0.0650    0.4500 C   0  0  0  0  0  0  0  0  0  0  0  0
    3.7440   -0.9040    0.0360 C   0  0  0  0  0  0  0  0  0  0  0  0
    4.0450   -2.0710   -0.6330 C   0  0  0  0  0  0  0  0  0  0  0  0
    2.9880   -2.8680   -1.0200 C   0  0  0  0  0  0  0  0  0  0  0  0
    3.2510   -4.0630   -1.7030 O   0  0  0  0  0  0  0  0  0  0  0  0
    1.6760   -2.5280   -0.7590 C   0  0  0  0  0  0  0  0  0  0  0  0
    1.3730   -1.3590   -0.0890 C   0  0  0  0  0  0  0  0  0  0  0  0
    0.0390   -1.0570    0.1530 O   0  0  0  0  0  0  0  0  0  0  0  0
   -0.7530   -0.3390   -0.6990 C   0  0  0  0  0  0  0  0  0  0  0  0
   -0.2930    0.0910   -1.7690 O   0  0  0  0  0  0  0  0  0  0  0  0
   -2.1470   -0.0880   -0.3270 C   0  0  0  0  0  0  0  0  0  0  0  0
   -2.6830   -0.5540    0.8550 C   0  0  0  0  0  0  0  0  0  0  0  0
   -3.9820   -0.3270    1.2140 C   0  0  0  0  0  0  0  0  0  0  0  0
   -4.7860    0.3980    0.3550 C   0  0  0  0  0  0  0  0  0  0  0  0
   -4.2970    0.8870   -0.8400 C   0  0  0  0  0  0  0  0  0  0  0  0
   -2.9950    0.6370   -1.1580 C   0  0  0  0  0  0  0  0  0  0  0  0
   -5.3990    1.6000   -1.4970 C   0  0  0  0  0  0  0  0  0  0  0  0
   -6.5050    1.4980   -0.6480 O   0  0  0  0  0  0  0  0  0  0  0  0
   -6.1840    0.7880    0.4720 C   0  0  0  0  0  0  0  0  0  0  0  0
   -6.9540    0.5140    1.4400 O   0  0  0  0  0  0  0  0  0  0  0  0
    2.4180   -0.5510    0.3060 C   0  0  0  0  0  0  0  0  0  0  0  0
    2.0990    0.6140    0.9740 C   0  0  0  0  0  0  0  0  0  0  0  0
  1  2  1  0
  2  3  2  0
  2 25  1  0
  3  4  1  0
  4  5  2  0
  5  6  1  0
  5 24  1  0
  6  7  2  0
  7  8  1  0
  7  9  1  0
  9 10  2  0
 10 11  1  0
 10 24  1  0
 11 12  1  0
 12 13  2  0
 12 14  1  0
 14 15  2  0
 14 19  1  0
 15 16  1  0
 16 17  2  0
 17 18  1  0
 17 22  1  0
 18 19  2  0
 18 20  1  0
 20 21  1  0
 21 22  1  0
 22 23  2  0
 24 25  2  0
M  END
