
     RDKit          3D

 22 24  0  0  0  0  0  0  0  0999 V2000
   -2.9440    2.4560    3.4440 C   0  0  0  0  0  0  0  0  0  0  0  0
   -3.2940    2.0150    2.2140 C   0  0  0  0  0  0  0  0  0  0  0  0
   -4.5230    2.3440    1.7980 F   0  0  0  0  0  0  0  0  0  0  0  0
   -2.3660    1.2360    1.4280 C   0  0  0  0  0  0  0  0  0  0  0  0
   -2.6460    0.7870    0.2440 C   0  0  0  0  0  0  0  0  0  0  0  0
   -3.8720    0.9360   -0.5460 C   0  0  0  0  0  0  0  0  0  0  0  0
   -4.3900   -0.4620   -0.8630 C   0  0  0  0  0  0  0  0  0  0  0  0
   -3.4040   -1.2190   -1.6920 C   0  0  0  0  0  0  0  0  0  0  0  0
   -2.0020   -0.9410   -1.3440 C   0  0  0  0  0  0  0  0  0  0  0  0
   -1.0330   -1.6790   -1.9780 C   0  0  0  0  0  0  0  0  0  0  0  0
    0.3160   -1.4690   -1.6940 C   0  0  0  0  0  0  0  0  0  0  0  0
    0.7550   -0.5450   -0.7950 C   0  0  0  0  0  0  0  0  0  0  0  0
    2.0950   -0.2720   -0.4400 N   0  0  0  0  0  0  0  0  0  0  0  0
    3.2460   -0.9740   -0.8700 C   0  0  0  0  0  0  0  0  0  0  0  0
    3.1130   -1.9440   -1.6420 O   0  0  0  0  0  0  0  0  0  0  0  0
    4.5800   -0.5720   -0.4180 C   0  0  0  0  0  0  0  0  0  0  0  0
    4.9510    0.4580    0.4260 C   0  0  0  0  0  0  0  0  0  0  0  0
    6.3160    0.4680    0.5750 C   0  0  0  0  0  0  0  0  0  0  0  0
    6.7950   -0.5680   -0.1860 C   0  0  0  0  0  0  0  0  0  0  0  0
    5.7200   -1.1780   -0.7740 N   0  0  0  0  0  0  0  0  0  0  0  0
   -0.2600    0.1980   -0.1600 C   0  0  0  0  0  0  0  0  0  0  0  0
   -1.5730   -0.0050   -0.4340 C   0  0  0  0  0  0  0  0  0  0  0  0
  1  2  2  0
  2  3  1  0
  2  4  1  0
  4  5  2  3
  5  6  1  0
  5 22  1  0
  6  7  1  0
  7  8  1  0
  8  9  1  0
  9 10  2  0
  9 22  1  0
 10 11  1  0
 11 12  2  0
 12 13  1  0
 12 21  1  0
 13 14  1  0
 14 15  2  0
 14 16  1  0
 16 17  2  0
 16 20  1  0
 17 18  1  0
 18 19  2  0
 19 20  1  0
 21 22  2  0
M  END
