
     RDKit          3D

 21 21  0  0  0  0  0  0  0  0999 V2000
   -2.3050   -0.0680   -1.9910 O   0  0  0  0  0  0  0  0  0  0  0  0
   -2.3090   -0.9120   -1.0580 C   0  0  0  0  0  0  0  0  0  0  0  0
   -3.1250   -0.6500    0.1530 C   0  0  0  0  0  0  0  0  0  0  0  0
   -3.5370    0.7960    0.1800 C   0  0  0  0  0  0  0  0  0  0  0  0
   -2.6580    1.6300    1.1000 C   0  0  0  0  0  0  0  0  0  0  0  0
   -1.3400    1.2590    1.0570 O   0  0  0  0  0  0  0  0  0  0  0  0
   -0.4400    2.2960    1.1890 C   0  0  0  0  0  0  0  0  0  0  0  0
    0.9490    1.7160    0.9030 C   0  0  0  0  0  0  0  0  0  0  0  0
    0.9460    0.8450   -0.3070 C   0  0  0  0  0  0  0  0  0  0  0  0
    1.1780   -0.6100   -0.0340 C   0  0  1  0  0  0  0  0  0  0  0  0
    2.6360   -0.7690    0.2750 C   0  0  0  0  0  0  0  0  0  0  0  0
    3.0480   -1.2890    1.3430 O   0  0  0  0  0  0  0  0  0  0  0  0
    3.5910   -0.3350   -0.6350 O   0  0  0  0  0  0  0  0  0  0  0  0
    4.9110   -0.4460   -0.4240 O   0  0  0  0  0  0  0  0  0  0  0  0
    5.5660    0.4280   -1.1620 O   0  0  0  0  0  0  0  0  0  0  0  0
    6.8470    0.1380   -1.0520 O   0  0  0  0  0  0  0  0  0  0  0  0
    0.3990   -1.1340    1.0590 N   0  0  0  0  0  0  0  0  0  0  0  0
   -0.4210   -2.2810    0.9970 C   0  0  0  0  0  0  0  0  0  0  0  0
   -0.6790   -2.8750    2.1010 O   0  0  0  0  0  0  0  0  0  0  0  0
   -0.9800   -2.8260   -0.1900 N   0  0  0  0  0  0  0  0  0  0  0  0
   -1.5170   -2.0800   -1.2300 N   0  0  0  0  0  0  0  0  0  0  0  0
  1  2  2  0
  2  3  1  0
  2 21  1  0
  3  4  1  0
  4  5  1  0
  5  6  1  0
  6  7  1  0
  7  8  1  0
  8  9  1  0
  9 10  1  0
 10 11  1  1
 10 17  1  0
 11 12  2  0
 11 13  1  0
 13 14  1  0
 14 15  1  0
 15 16  1  0
 17 18  1  0
 18 19  2  0
 18 20  1  0
 20 21  1  0
M  END
