
     RDKit          3D

 21 21  0  0  0  0  0  0  0  0999 V2000
    4.9030   -0.9250    1.0860 C   0  0  0  0  0  0  0  0  0  0  0  0
    3.5400   -0.5480    1.1920 O   0  0  0  0  0  0  0  0  0  0  0  0
    2.6360   -1.1140    0.3640 N   0  0  0  0  0  0  0  0  0  0  0  0
    1.9790   -0.4700   -0.5800 C   0  0  0  0  0  0  0  0  0  0  0  0
    2.2830    0.9120   -0.6870 N   0  0  0  0  0  0  0  0  0  0  0  0
    1.4280    1.9450   -1.1190 C   0  0  0  0  0  0  0  0  0  0  0  0
    1.7980    2.6740   -2.1210 O   0  0  0  0  0  0  0  0  0  0  0  0
    0.1680    2.2850   -0.5600 N   0  0  0  0  0  0  0  0  0  0  0  0
   -0.0760    2.5360    0.8480 C   0  0  0  0  0  0  0  0  0  0  0  0
   -1.5320    2.4580    1.1620 C   0  0  0  0  0  0  0  0  0  0  0  0
   -1.8020    1.2550    1.8110 O   0  0  0  0  0  0  0  0  0  0  0  0
   -2.0900    0.3220    0.8210 C   0  0  0  0  0  0  0  0  0  0  0  0
   -1.0630   -0.7970    0.7990 C   0  0  0  0  0  0  0  0  0  0  0  0
   -1.2450   -1.5530   -0.5080 C   0  0  1  0  0  0  0  0  0  0  0  0
   -2.5580   -1.4450   -0.9860 O   0  0  0  0  0  0  0  0  0  0  0  0
   -3.3480   -2.5730   -1.0860 C   0  0  0  0  0  0  0  0  0  0  0  0
   -2.9220   -3.7280   -0.7560 O   0  0  0  0  0  0  0  0  0  0  0  0
   -4.6700   -2.5340   -1.5560 O   0  0  0  0  0  0  0  0  0  0  0  0
   -0.2410   -1.1340   -1.5320 C   0  0  0  0  0  0  0  0  0  0  0  0
   -0.7130   -0.7160   -2.6320 O   0  0  0  0  0  0  0  0  0  0  0  0
    1.1000   -1.1830   -1.3370 O   0  0  0  0  0  0  0  0  0  0  0  0
  1  2  1  0
  2  3  1  0
  3  4  2  3
  4  5  1  0
  4 21  1  0
  5  6  1  0
  6  7  2  0
  6  8  1  0
  8  9  1  0
  9 10  1  0
 10 11  1  0
 11 12  1  0
 12 13  1  0
 13 14  1  0
 14 15  1  6
 14 19  1  0
 15 16  1  0
 16 17  2  0
 16 18  1  0
 19 20  2  0
 19 21  1  0
M  END
