
     RDKit          3D

 22 22  0  0  0  0  0  0  0  0999 V2000
   -4.7010    0.4910    0.0740 N   0  0  0  0  0  0  0  0  0  0  0  0
   -3.8890   -0.4910    0.7580 C   0  0  0  0  0  0  0  0  0  0  0  0
   -2.4820   -0.0210    0.7140 C   0  0  0  0  0  0  0  0  0  0  0  0
   -1.5190   -0.7470    0.1290 C   0  0  0  0  0  0  0  0  0  0  0  0
   -1.8400   -1.9990   -0.4680 N   0  0  0  0  0  0  0  0  0  0  0  0
   -1.7540   -2.2880   -1.8470 C   0  0  0  0  0  0  0  0  0  0  0  0
   -1.3800   -1.4030   -2.6350 O   0  0  0  0  0  0  0  0  0  0  0  0
   -2.0790   -3.5480   -2.3630 O   0  0  0  0  0  0  0  0  0  0  0  0
   -0.1530   -0.2920    0.1040 C   0  0  0  0  0  0  0  0  0  0  0  0
    0.7890   -1.0130   -0.4650 C   0  0  0  0  0  0  0  0  0  0  0  0
    2.1820   -0.6030   -0.5190 C   0  0  0  0  0  0  0  0  0  0  0  0
    3.1180   -1.3340   -1.0950 C   0  0  0  0  0  0  0  0  0  0  0  0
    4.8610   -0.8560   -1.1830 P   0  0  0  0  0  0  0  0  0  0  0  0
    5.1880    0.0200   -2.6400 O   0  0  0  0  0  0  0  0  0  0  0  0
    5.9020   -2.2490   -1.1660 O   0  0  0  0  0  0  0  0  0  0  0  0
    0.2080    0.9580    0.6780 N   0  0  0  0  0  0  0  0  0  0  0  0
    0.1360    1.2640    2.0960 C   0  0  0  0  0  0  0  0  0  0  0  0
   -0.2370    2.6910    2.3700 C   0  0  0  0  0  0  0  0  0  0  0  0
    0.1280    3.6010    1.4200 O   0  0  0  0  0  0  0  0  0  0  0  0
    1.2220    3.1930    0.6270 C   0  0  0  0  0  0  0  0  0  0  0  0
    0.7070    2.0200   -0.1300 C   0  0  0  0  0  0  0  0  0  0  0  0
    0.6920    1.9270   -1.3790 O   0  0  0  0  0  0  0  0  0  0  0  0
  1  2  1  0
  2  3  1  0
  3  4  2  3
  4  5  1  0
  4  9  1  0
  5  6  1  0
  6  7  2  0
  6  8  1  0
  9 10  2  3
  9 16  1  0
 10 11  1  0
 11 12  2  3
 12 13  1  0
 13 14  1  0
 13 15  1  0
 16 17  1  0
 16 21  1  0
 17 18  1  0
 18 19  1  0
 19 20  1  0
 20 21  1  0
 21 22  2  0
M  END
