
     RDKit          3D

 22 22  0  0  0  0  0  0  0  0999 V2000
    2.0640   -3.9530   -0.9080 N   0  0  0  0  0  0  0  0  0  0  0  0
    0.6750   -3.6740   -1.0850 C   0  0  0  0  0  0  0  0  0  0  0  0
    0.2960   -2.2210   -0.8260 C   0  0  2  0  0  0  0  0  0  0  0  0
   -1.2210   -2.1770   -0.9850 C   0  0  0  0  0  0  0  0  0  0  0  0
   -1.7820   -0.8890   -0.6660 N   0  0  0  0  0  0  0  0  0  0  0  0
   -1.6260   -0.3280    0.6240 C   0  0  0  0  0  0  0  0  0  0  0  0
   -1.0040   -0.9040    1.5530 O   0  0  0  0  0  0  0  0  0  0  0  0
   -2.2230    0.9900    0.8820 C   0  0  0  0  0  0  0  0  0  0  0  0
   -2.8990    1.7080    0.0080 C   0  0  0  0  0  0  0  0  0  0  0  0
   -3.3520    2.9660    0.5890 C   0  0  0  0  0  0  0  0  0  0  0  0
   -4.0510    3.9370    0.0320 C   0  0  0  0  0  0  0  0  0  0  0  0
   -4.4440    3.8180   -1.2810 O   0  0  0  0  0  0  0  0  0  0  0  0
   -2.8680    2.9460    1.9550 C   0  0  0  0  0  0  0  0  0  0  0  0
   -3.0450    3.8530    2.8060 O   0  0  0  0  0  0  0  0  0  0  0  0
   -2.1790    1.7200    2.1050 N   0  0  0  0  0  0  0  0  0  0  0  0
    0.9240   -1.3230   -1.6350 O   0  0  0  0  0  0  0  0  0  0  0  0
    1.7080   -0.3720   -1.0700 C   0  0  0  0  0  0  0  0  0  0  0  0
    2.8670   -0.9520   -0.3200 C   0  0  0  0  0  0  0  0  0  0  0  0
    3.7240    0.1540    0.3030 C   0  0  0  0  0  0  0  0  0  0  0  0
    2.6870    1.1440    1.4770 P   0  0  0  0  0  0  0  0  0  0  0  0
    3.7150    2.0250    2.5830 O   0  0  0  0  0  0  0  0  0  0  0  0
    1.7170    2.2680    0.5450 O   0  0  0  0  0  0  0  0  0  0  0  0
  1  2  1  0
  3  2  1  6
  3  4  1  0
  3 16  1  0
  4  5  1  0
  5  6  1  0
  6  7  2  0
  6  8  1  0
  8  9  2  0
  8 15  1  0
  9 10  1  0
 10 11  2  3
 10 13  1  0
 11 12  1  0
 13 14  2  0
 13 15  1  0
 16 17  1  0
 17 18  1  0
 18 19  1  0
 19 20  1  0
 20 21  1  0
 20 22  1  0
M  END
