
     RDKit          3D

 22 21  0  0  0  0  0  0  0  0999 V2000
    0.0110   -3.1260    0.9150 C   0  0  0  0  0  0  0  0  0  0  0  0
   -0.2730   -2.4930   -0.2860 O   0  0  0  0  0  0  0  0  0  0  0  0
   -1.1270   -1.3390   -0.3890 C   0  0  0  0  0  0  0  0  0  0  0  0
   -0.5640   -0.2740   -0.8500 C   0  0  0  0  0  0  0  0  0  0  0  0
   -1.1260    1.0430   -1.0780 C   0  0  0  0  0  0  0  0  0  0  0  0
   -0.4200    2.0820   -0.2920 N   0  0  0  0  0  0  0  0  0  0  0  0
   -1.0900    3.3260   -0.6220 C   0  0  0  0  0  0  0  0  0  0  0  0
   -0.4740    4.4990    0.1140 C   0  0  0  0  0  0  0  0  0  0  0  0
   -1.1160    5.6800   -0.2060 O   0  0  0  0  0  0  0  0  0  0  0  0
    0.8620   -0.3740   -1.2130 N   0  0  0  0  0  0  0  0  0  0  0  0
    1.6880   -0.7180   -0.1450 N   0  0  0  0  0  0  0  0  0  0  0  0
    2.7040   -0.0840    0.2710 C   0  0  0  0  0  0  0  0  0  0  0  0
    3.4620   -0.6000    1.4230 C   0  0  0  0  0  0  0  0  0  0  0  0
    5.2060   -0.9400    0.9020 P   0  0  0  0  0  0  0  0  0  0  0  0
    5.5190   -0.4630   -0.7190 O   0  0  0  0  0  0  0  0  0  0  0  0
    6.3660   -0.3140    2.0060 O   0  0  0  0  0  0  0  0  0  0  0  0
    3.0690    1.0900   -0.3850 O   0  0  0  0  0  0  0  0  0  0  0  0
    2.9160    1.2300   -1.6960 O   0  0  0  0  0  0  0  0  0  0  0  0
   -2.4870   -1.6270    0.0660 C   0  0  2  0  0  0  0  0  0  0  0  0
   -2.8990   -3.0180   -0.5050 C   0  0  0  0  0  0  0  0  0  0  0  0
   -3.5790   -0.7110   -0.3600 C   0  0  0  0  0  0  0  0  0  0  0  0
   -2.5780   -1.7540    1.5770 C   0  0  0  0  0  0  0  0  0  0  0  0
  1  2  1  0
  2  3  1  0
  3  4  2  3
  3 19  1  0
  4  5  1  0
  4 10  1  0
  5  6  1  0
  6  7  1  0
  7  8  1  0
  8  9  1  0
 10 11  1  0
 11 12  2  3
 12 13  1  0
 12 17  1  0
 13 14  1  0
 14 15  1  0
 14 16  1  0
 17 18  1  0
 19 20  1  6
 19 21  1  0
 19 22  1  0
M  END
