
     RDKit          3D

 22 22  0  0  0  0  0  0  0  0999 V2000
    0.9010   -3.9290    0.2840 C   0  0  0  0  0  0  0  0  0  0  0  0
    0.7480   -2.5680   -0.0700 O   0  0  0  0  0  0  0  0  0  0  0  0
    1.7230   -1.8100   -0.6900 C   0  0  0  0  0  0  0  0  0  0  0  0
    2.8040   -2.4390   -0.9290 O   0  0  0  0  0  0  0  0  0  0  0  0
    1.6350   -0.4260   -1.0760 C   0  0  0  0  0  0  0  0  0  0  0  0
    0.6110    0.3880   -0.9210 C   0  0  0  0  0  0  0  0  0  0  0  0
   -0.5910   -0.0500   -0.3160 N   0  0  0  0  0  0  0  0  0  0  0  0
   -1.6840    0.8820   -0.1750 C   0  0  0  0  0  0  0  0  0  0  0  0
   -1.5150    2.0440   -0.6000 O   0  0  0  0  0  0  0  0  0  0  0  0
   -2.9370    0.4670    0.4470 C   0  0  1  0  0  0  0  0  0  0  0  0
   -3.9180    1.6180    0.3460 C   0  0  0  0  0  0  0  0  0  0  0  0
   -5.0420    1.3500    1.3240 C   0  0  0  0  0  0  0  0  0  0  0  0
   -5.6790    0.1190    0.8820 N   0  0  0  0  0  0  0  0  0  0  0  0
   -5.0190   -0.7570   -0.0310 C   0  0  0  0  0  0  0  0  0  0  0  0
   -5.7050   -1.5530   -0.7610 O   0  0  0  0  0  0  0  0  0  0  0  0
   -3.5390   -0.7650   -0.1520 C   0  0  0  0  0  0  0  0  0  0  0  0
    2.8040    0.1660   -1.7120 N   0  0  0  0  0  0  0  0  0  0  0  0
    3.9870    0.2810   -0.8950 C   0  0  0  0  0  0  0  0  0  0  0  0
    3.6970    1.3150    0.1860 C   0  0  0  0  0  0  0  0  0  0  0  0
    5.1270    1.5450    1.3140 P   0  0  0  0  0  0  0  0  0  0  0  0
    6.3390    0.3340    1.1670 O   0  0  0  0  0  0  0  0  0  0  0  0
    5.7590    3.1470    1.3310 O   0  0  0  0  0  0  0  0  0  0  0  0
  1  2  1  0
  2  3  1  0
  3  4  2  0
  3  5  1  0
  5  6  2  3
  5 17  1  0
  6  7  1  0
  7  8  1  0
  8  9  2  0
 10  8  1  6
 10 11  1  0
 10 16  1  0
 11 12  1  0
 12 13  1  0
 13 14  1  0
 14 15  2  0
 14 16  1  0
 17 18  1  0
 18 19  1  0
 19 20  1  0
 20 21  1  0
 20 22  1  0
M  END
