
     RDKit          3D

 17 16  0  0  0  0  0  0  0  0999 V2000
    3.6590    1.9570   -1.0580 N   0  0  0  0  0  0  0  0  0  0  0  0
    4.0350    0.7500   -1.4920 O   0  0  0  0  0  0  0  0  0  0  0  0
    3.8650   -0.1740   -0.4550 C   0  0  2  0  0  0  0  0  0  0  0  0
    5.5420   -0.9670   -0.1650 P   0  0  0  0  0  0  0  0  0  0  0  0
    3.0310   -1.1940   -0.9110 O   0  0  0  0  0  0  0  0  0  0  0  0
    2.0100   -1.2680   -0.0930 O   0  0  0  0  0  0  0  0  0  0  0  0
    0.5580   -0.6690   -0.8380 P   0  0  0  0  0  0  0  0  0  0  0  0
    0.1140   -1.7920   -2.0810 F   0  0  0  0  0  0  0  0  0  0  0  0
   -0.7780   -0.6940    0.4300 C   0  0  0  0  0  0  0  0  0  0  0  0
   -2.0260   -0.3520   -0.1330 O   0  0  0  0  0  0  0  0  0  0  0  0
   -2.9540   -0.3900    0.8450 N   0  0  0  0  0  0  0  0  0  0  0  0
   -2.7470   -1.1180    2.0040 N   0  0  0  0  0  0  0  0  0  0  0  0
   -4.1720    0.3520    0.6480 C   0  0  0  0  0  0  0  0  0  0  0  0
   -4.1520    1.7950    0.5540 C   0  0  0  0  0  0  0  0  0  0  0  0
   -2.7050    2.6020    0.6760 P   0  0  0  0  0  0  0  0  0  0  0  0
   -5.2900   -0.2650    0.5530 N   0  0  0  0  0  0  0  0  0  0  0  0
   -5.4780   -1.9740    0.6440 Cl  0  0  0  0  0  0  0  0  0  0  0  0
  1  2  1  0
  2  3  1  0
  3  4  1  6
  3  5  1  0
  5  6  1  0
  6  7  1  0
  7  8  1  0
  7  9  1  0
  9 10  1  0
 10 11  1  0
 11 12  1  0
 11 13  1  0
 13 14  1  0
 13 16  2  3
 14 15  2  0
 16 17  1  0
M  END
