
     RDKit          3D

 29 32  0  0  0  0  0  0  0  0999 V2000
    7.1480    2.1870   -1.1000 C   0  0  0  0  0  0  0  0  0  0  0  0
    7.0190    0.7870   -0.9570 O   0  0  0  0  0  0  0  0  0  0  0  0
    5.8200    0.2710   -0.4440 C   0  0  0  0  0  0  0  0  0  0  0  0
    5.6890   -1.0770   -0.3030 C   0  0  0  0  0  0  0  0  0  0  0  0
    4.5420   -1.6300    0.1920 C   0  0  0  0  0  0  0  0  0  0  0  0
    4.3550   -2.9630    0.3540 F   0  0  0  0  0  0  0  0  0  0  0  0
    3.5100   -0.7460    0.5480 C   0  0  0  0  0  0  0  0  0  0  0  0
    3.6160    0.6100    0.4150 C   0  0  0  0  0  0  0  0  0  0  0  0
    2.6080    1.5600    0.8320 C   0  0  0  0  0  0  0  0  0  0  0  0
    3.0070    2.8470    1.2890 C   0  0  0  0  0  0  0  0  0  0  0  0
    1.8640    3.4770    1.5720 N   0  0  0  0  0  0  0  0  0  0  0  0
    0.8380    2.6990    1.3290 N   0  0  0  0  0  0  0  0  0  0  0  0
    1.2660    1.4820    0.8580 C   0  0  0  0  0  0  0  0  0  0  0  0
    0.3650    0.4390    0.3980 C   0  0  0  0  0  0  0  0  0  0  0  0
    0.6610   -0.5080   -0.3690 O   0  0  0  0  0  0  0  0  0  0  0  0
   -1.0190    0.4440    0.8350 N   0  0  0  0  0  0  0  0  0  0  0  0
   -1.8970   -0.5690    0.3890 C   0  0  1  0  0  0  0  0  0  0  0  0
   -2.4550   -1.4300    1.5060 C   0  0  0  0  0  0  0  0  0  0  0  0
   -3.1170   -2.6300    0.9020 C   0  0  0  0  0  0  0  0  0  0  0  0
   -3.5320   -2.4840   -0.5260 C   0  0  1  0  0  0  0  0  0  0  0  0
   -4.7180   -3.4240   -0.7660 C   0  0  0  0  0  0  0  0  0  0  0  0
   -3.9070   -1.0820   -0.8450 C   0  0  0  0  0  0  0  0  0  0  0  0
   -4.9450   -0.5170   -1.5320 C   0  0  0  0  0  0  0  0  0  0  0  0
   -5.9730   -1.1560   -2.1400 F   0  0  0  0  0  0  0  0  0  0  0  0
   -4.7340    0.8110   -1.4770 N   0  0  0  0  0  0  0  0  0  0  0  0
   -3.6140    1.0980   -0.7900 C   0  0  0  0  0  0  0  0  0  0  0  0
   -3.0240    2.4150   -0.4970 C   0  0  0  0  0  0  0  0  0  0  0  0
   -3.0660   -0.0920   -0.3750 C   0  0  0  0  0  0  0  0  0  0  0  0
    4.8040    1.0530   -0.0890 N   0  0  0  0  0  0  0  0  0  0  0  0
  1  2  1  0
  2  3  1  0
  3  4  2  0
  3 29  1  0
  4  5  1  0
  5  6  1  0
  5  7  2  0
  7  8  1  0
  8  9  1  0
  8 29  2  0
  9 10  1  0
  9 13  2  0
 10 11  2  0
 11 12  1  0
 12 13  1  0
 13 14  1  0
 14 15  2  0
 14 16  1  0
 17 16  1  1
 17 18  1  0
 17 28  1  0
 18 19  1  0
 19 20  1  0
 20 21  1  1
 20 22  1  0
 22 23  2  0
 22 28  1  0
 23 24  1  0
 23 25  1  0
 25 26  1  0
 26 27  1  0
 26 28  2  0
M  END
