
     RDKit          3D

 29 31  0  0  0  0  0  0  0  0999 V2000
   -4.6450   -2.0740   -1.1810 C   0  0  0  0  0  0  0  0  0  0  0  0
   -4.9760   -0.8150   -0.4810 C   0  0  0  0  0  0  0  0  0  0  0  0
   -4.3190   -0.4480    0.6280 C   0  0  0  0  0  0  0  0  0  0  0  0
   -3.2440   -1.2210    1.2480 C   0  0  2  0  0  0  0  0  0  0  0  0
   -3.5750   -1.6060    2.6910 C   0  0  0  0  0  0  0  0  0  0  0  0
   -2.0660   -0.3600    1.3430 N   0  0  0  0  0  0  0  0  0  0  0  0
   -0.8190   -0.7240    0.8030 C   0  0  0  0  0  0  0  0  0  0  0  0
   -0.7130   -1.8210    0.2230 O   0  0  0  0  0  0  0  0  0  0  0  0
    0.3220    0.2310    0.9560 C   0  0  0  0  0  0  0  0  0  0  0  0
    1.5620   -0.3660    0.3020 C   0  0  0  0  0  0  0  0  0  0  0  0
    2.6480    0.5770    0.4640 N   0  0  0  0  0  0  0  0  0  0  0  0
    3.9530    0.2920   -0.0520 C   0  0  0  0  0  0  0  0  0  0  0  0
    4.0910   -0.7910   -0.6340 O   0  0  0  0  0  0  0  0  0  0  0  0
    5.0340    1.1690    0.0790 N   0  0  0  0  0  0  0  0  0  0  0  0
    6.3490    0.9840   -0.3880 C   0  0  0  0  0  0  0  0  0  0  0  0
    7.3010    1.9920   -0.1700 C   0  0  0  0  0  0  0  0  0  0  0  0
    8.6040    1.8840   -0.5960 C   0  0  0  0  0  0  0  0  0  0  0  0
    9.0180    0.7530   -1.2650 C   0  0  0  0  0  0  0  0  0  0  0  0
   10.1800    0.3240   -1.8070 N   0  0  0  0  0  0  0  0  0  0  0  0
    9.9920   -0.8920   -2.3450 C   0  0  0  0  0  0  0  0  0  0  0  0
    8.7390   -1.1980   -2.1350 O   0  0  0  0  0  0  0  0  0  0  0  0
    8.1160   -0.2560   -1.4980 C   0  0  0  0  0  0  0  0  0  0  0  0
    6.7980   -0.1180   -1.0540 C   0  0  0  0  0  0  0  0  0  0  0  0
   -4.7680    0.8510    1.1940 C   0  0  0  0  0  0  0  0  0  0  0  0
   -4.8640    1.8950    0.0740 C   0  0  0  0  0  0  0  0  0  0  0  0
   -5.9790    1.4850   -0.8350 C   0  0  0  0  0  0  0  0  0  0  0  0
   -6.0130    0.0440   -0.9640 N   0  0  0  0  0  0  0  0  0  0  0  0
   -7.1640   -0.5380   -1.6160 C   0  0  0  0  0  0  0  0  0  0  0  0
   -7.1150   -1.9050   -1.6540 F   0  0  0  0  0  0  0  0  0  0  0  0
  1  2  1  0
  2  3  2  0
  2 27  1  0
  3  4  1  0
  3 24  1  0
  4  5  1  1
  4  6  1  0
  6  7  1  0
  7  8  2  0
  7  9  1  0
  9 10  1  0
 10 11  1  0
 11 12  1  0
 12 13  2  0
 12 14  1  0
 14 15  1  0
 15 16  2  0
 15 23  1  0
 16 17  1  0
 17 18  2  0
 18 19  1  0
 18 22  1  0
 19 20  2  0
 20 21  1  0
 21 22  1  0
 22 23  2  0
 24 25  1  0
 25 26  1  0
 26 27  1  0
 27 28  1  0
 28 29  1  0
M  END
