
     RDKit          3D

 29 31  0  0  0  0  0  0  0  0999 V2000
    7.1540    3.2470    0.3580 C   0  0  0  0  0  0  0  0  0  0  0  0
    6.2340    2.3150    0.4660 C   0  0  0  0  0  0  0  0  0  0  0  0
    5.7360    1.9830    1.7930 C   0  0  0  0  0  0  0  0  0  0  0  0
    6.1520    2.5520    2.8350 O   0  0  0  0  0  0  0  0  0  0  0  0
    4.7560    0.9860    1.8820 N   0  0  0  0  0  0  0  0  0  0  0  0
    4.2250    0.2830    0.7180 C   0  0  0  0  0  0  0  0  0  0  0  0
    3.2420   -0.7970    0.9480 C   0  0  0  0  0  0  0  0  0  0  0  0
    4.6260    0.5320   -0.4940 C   0  0  0  0  0  0  0  0  0  0  0  0
    4.1920   -0.0690   -1.7100 C   0  0  0  0  0  0  0  0  0  0  0  0
    3.1620   -0.9630   -1.8930 N   0  0  0  0  0  0  0  0  0  0  0  0
    1.7900   -0.6060   -1.6970 C   0  0  0  0  0  0  0  0  0  0  0  0
    1.4400    0.5690   -1.3330 O   0  0  0  0  0  0  0  0  0  0  0  0
    0.7420   -1.5250   -1.9000 N   0  0  0  0  0  0  0  0  0  0  0  0
   -0.6440   -1.2310   -1.7590 C   0  0  0  0  0  0  0  0  0  0  0  0
   -1.1240   -0.8060   -0.4570 C   0  0  0  0  0  0  0  0  0  0  0  0
   -0.4510   -0.6490    0.6770 N   0  0  0  0  0  0  0  0  0  0  0  0
   -1.2610   -0.2540    1.6300 N   0  0  0  0  0  0  0  0  0  0  0  0
   -0.9320    0.0360    3.0330 C   0  0  0  0  0  0  0  0  0  0  0  0
   -2.5110   -0.1350    1.1540 C   0  0  0  0  0  0  0  0  0  0  0  0
   -2.4360   -0.4840   -0.1760 C   0  0  0  0  0  0  0  0  0  0  0  0
   -3.6400   -0.4850   -1.0850 C   0  0  0  0  0  0  0  0  0  0  0  0
   -4.8200    0.0850   -0.3860 C   0  0  1  0  0  0  0  0  0  0  0  0
   -6.1160   -0.0060   -1.1010 C   0  0  0  0  0  0  0  0  0  0  0  0
   -6.6070   -1.3670   -1.4390 C   0  0  0  0  0  0  0  0  0  0  0  0
   -5.8150   -2.1170   -2.2440 F   0  0  0  0  0  0  0  0  0  0  0  0
   -4.9070   -0.4260    1.0520 C   0  0  0  0  0  0  0  0  0  0  0  0
   -3.7980    0.2760    1.8040 C   0  0  0  0  0  0  0  0  0  0  0  0
    5.6770    1.5910   -0.6540 C   0  0  0  0  0  0  0  0  0  0  0  0
    6.0910    1.8600   -1.8190 O   0  0  0  0  0  0  0  0  0  0  0  0
  1  2  2  0
  2  3  1  0
  2 28  1  0
  3  4  2  0
  3  5  1  0
  5  6  1  0
  6  7  1  0
  6  8  2  0
  8  9  1  0
  8 28  1  0
  9 10  1  0
 10 11  1  0
 11 12  2  0
 11 13  1  0
 13 14  1  0
 14 15  1  0
 15 16  2  0
 15 20  1  0
 16 17  1  0
 17 18  1  0
 17 19  1  0
 19 20  2  0
 19 27  1  0
 20 21  1  0
 21 22  1  0
 22 23  1  6
 22 26  1  0
 23 24  1  0
 24 25  1  0
 26 27  1  0
 28 29  2  0
M  END
