
     RDKit          3D

 11 11  0  0  0  0  0  0  0  0999 V2000
    3.3960    0.0900   -1.1120 C   0  0  0  0  0  0  0  0  0  0  0  0
    2.4620    0.7520   -0.1490 C   0  0  0  0  0  0  0  0  0  0  0  0
    1.1230    0.0500   -0.0620 C   0  0  1  0  0  0  0  0  0  0  0  0
    1.3360   -1.3030    0.3760 N   0  0  0  0  0  0  0  0  0  0  0  0
    0.3060    0.7760    0.9840 C   0  0  0  0  0  0  0  0  0  0  0  0
   -1.0720    0.2560    1.1330 C   0  0  0  0  0  0  0  0  0  0  0  0
   -1.7930   -0.0510   -0.1240 C   0  0  1  0  0  0  0  0  0  0  0  0
   -2.8740   -1.0690    0.2020 C   0  0  0  0  0  0  0  0  0  0  0  0
   -2.5220    1.1950   -0.6310 C   0  0  0  0  0  0  0  0  0  0  0  0
   -0.9390   -0.5580   -1.2420 C   0  0  0  0  0  0  0  0  0  0  0  0
    0.3820    0.1480   -1.3620 C   0  0  0  0  0  0  0  0  0  0  0  0
  1  2  1  0
  2  3  1  0
  3  4  1  1
  3  5  1  0
  3 11  1  0
  5  6  1  0
  6  7  1  0
  7  8  1  1
  7  9  1  0
  7 10  1  0
 10 11  1  0
M  CHG  1   4   1
M  END
