
     RDKit          3D

 11 10  0  0  0  0  0  0  0  0999 V2000
   -3.8450   -1.7000   -0.8190 C   0  0  0  0  0  0  0  0  0  0  0  0
   -2.8610   -0.8270   -0.6340 C   0  0  0  0  0  0  0  0  0  0  0  0
   -1.4970   -1.3170   -0.6060 C   0  0  0  0  0  0  0  0  0  0  0  0
   -0.5070   -0.4720   -0.4290 C   0  0  0  0  0  0  0  0  0  0  0  0
    0.8760   -0.9260   -0.3950 C   0  0  0  0  0  0  0  0  0  0  0  0
    1.8940   -0.1020   -0.2190 C   0  0  0  0  0  0  0  0  0  0  0  0
    3.2680   -0.5210   -0.1810 C   0  0  0  0  0  0  0  0  0  0  0  0
    4.2470    0.3440   -0.0030 C   0  0  0  0  0  0  0  0  0  0  0  0
    4.0080    1.7860    0.1680 C   0  0  0  0  0  0  0  0  0  0  0  0
   -3.1290    0.6160   -0.4600 C   0  0  0  0  0  0  0  0  0  0  0  0
   -2.6930    1.1480    0.7900 N   0  0  0  0  0  0  0  0  0  0  0  0
  1  2  2  0
  2  3  1  0
  2 10  1  0
  3  4  2  3
  4  5  1  0
  5  6  2  3
  6  7  1  0
  7  8  2  3
  8  9  1  0
 10 11  1  0
M  END
