
     RDKit          3D

 11 10  0  0  0  0  0  0  0  0999 V2000
   -5.3130    0.2610   -0.3010 C   0  0  0  0  0  0  0  0  0  0  0  0
   -4.1510   -0.3480   -0.3110 C   0  0  0  0  0  0  0  0  0  0  0  0
   -2.9420    0.1290    0.3480 C   0  0  0  0  0  0  0  0  0  0  0  0
   -2.9060    1.3920    1.1210 C   0  0  0  0  0  0  0  0  0  0  0  0
   -1.8030   -0.5590    0.2830 C   0  0  0  0  0  0  0  0  0  0  0  0
   -0.5770   -0.1090    0.9320 C   0  0  0  0  0  0  0  0  0  0  0  0
    0.5630    0.1100   -0.0750 C   0  0  0  0  0  0  0  0  0  0  0  0
    1.7450    0.5680    0.7440 C   0  0  0  0  0  0  0  0  0  0  0  0
    2.9720    0.8360   -0.0840 C   0  0  0  0  0  0  0  0  0  0  0  0
    3.3500   -0.4560   -0.7930 C   0  0  0  0  0  0  0  0  0  0  0  0
    4.5470   -0.2120   -1.6080 N   0  0  0  0  0  0  0  0  0  0  0  0
  1  2  2  0
  2  3  1  0
  3  4  1  0
  3  5  2  3
  5  6  1  0
  6  7  1  0
  7  8  1  0
  8  9  1  0
  9 10  1  0
 10 11  1  0
M  CHG  1  11   1
M  END
