
     RDKit          3D

 27 31  0  0  0  0  0  0  0  0999 V2000
    1.0250    3.0580    0.7460 F   0  0  0  0  0  0  0  0  0  0  0  0
   -0.1840    2.4720    0.5550 C   0  0  0  0  0  0  0  0  0  0  0  0
   -1.3380    3.1220    0.9330 C   0  0  0  0  0  0  0  0  0  0  0  0
   -2.5310    2.4730    0.7100 C   0  0  0  0  0  0  0  0  0  0  0  0
   -2.5880    1.2200    0.1320 C   0  0  0  0  0  0  0  0  0  0  0  0
   -3.8850    0.5690   -0.0860 C   0  0  0  0  0  0  0  0  0  0  0  0
   -5.0990    1.0560    0.2220 N   0  0  0  0  0  0  0  0  0  0  0  0
   -6.0490    0.1520   -0.1380 C   0  0  0  0  0  0  0  0  0  0  0  0
   -7.4240    0.1210   -0.0620 C   0  0  0  0  0  0  0  0  0  0  0  0
   -8.1100   -0.9430   -0.5140 N   0  0  0  0  0  0  0  0  0  0  0  0
   -7.4880   -1.9850   -1.0420 N   0  0  0  0  0  0  0  0  0  0  0  0
   -6.1500   -1.9420   -1.1100 C   0  0  0  0  0  0  0  0  0  0  0  0
   -5.4190   -0.9040   -0.6730 N   0  0  0  0  0  0  0  0  0  0  0  0
   -4.1150   -0.6360   -0.6330 N   0  0  0  0  0  0  0  0  0  0  0  0
   -1.4090    0.6150   -0.2270 C   0  0  0  0  0  0  0  0  0  0  0  0
   -0.1680    1.2130   -0.0320 C   0  0  0  0  0  0  0  0  0  0  0  0
    1.0350    0.5770   -0.4070 N   0  0  0  0  0  0  0  0  0  0  0  0
    1.2980    0.0270   -1.5950 C   0  0  0  0  0  0  0  0  0  0  0  0
    2.5680   -0.4970   -1.5990 C   0  0  0  0  0  0  0  0  0  0  0  0
    3.1080   -0.2580   -0.3590 C   0  0  0  0  0  0  0  0  0  0  0  0
    4.4350   -0.6200    0.1350 C   0  0  0  0  0  0  0  0  0  0  0  0
    4.5930   -0.9010    1.4760 C   0  0  0  0  0  0  0  0  0  0  0  0
    5.8340   -1.2430    1.9630 C   0  0  0  0  0  0  0  0  0  0  0  0
    6.9310   -1.3060    1.1010 C   0  0  0  0  0  0  0  0  0  0  0  0
    6.7370   -1.0190   -0.2300 C   0  0  0  0  0  0  0  0  0  0  0  0
    5.4970   -0.6770   -0.7230 C   0  0  0  0  0  0  0  0  0  0  0  0
    2.1140    0.4180    0.3590 C   0  0  0  0  0  0  0  0  0  0  0  0
  1  2  1  0
  2  3  2  0
  2 16  1  0
  3  4  1  0
  4  5  2  0
  5  6  1  0
  5 15  1  0
  6  7  1  0
  6 14  2  0
  7  8  2  0
  8  9  1  0
  8 13  1  0
  9 10  2  0
 10 11  1  0
 11 12  2  0
 12 13  1  0
 13 14  1  0
 15 16  2  0
 16 17  1  0
 17 18  1  0
 17 27  1  0
 18 19  2  0
 19 20  1  0
 20 21  1  0
 20 27  2  0
 21 22  2  0
 21 26  1  0
 22 23  1  0
 23 24  2  0
 24 25  1  0
 25 26  2  0
M  END
