
     RDKit          3D

 27 31  0  0  0  0  0  0  0  0999 V2000
   -4.1120    1.1030   -1.9850 C   0  0  0  0  0  0  0  0  0  0  0  0
   -3.9860    1.3660   -0.5250 C   0  0  0  0  0  0  0  0  0  0  0  0
   -4.5780    2.3720    0.0710 C   0  0  0  0  0  0  0  0  0  0  0  0
   -4.2380    2.3230    1.4940 C   0  0  0  0  0  0  0  0  0  0  0  0
   -3.3620    1.1280    1.5890 C   0  0  0  0  0  0  0  0  0  0  0  0
   -2.7920    0.6760    2.7360 F   0  0  0  0  0  0  0  0  0  0  0  0
   -3.2110    0.5610    0.4030 C   0  0  0  0  0  0  0  0  0  0  0  0
   -2.4280   -0.6050    0.1630 N   0  0  0  0  0  0  0  0  0  0  0  0
   -2.6520   -1.9380    0.6960 C   0  0  0  0  0  0  0  0  0  0  0  0
   -1.2740   -2.3660    1.1230 C   0  0  0  0  0  0  0  0  0  0  0  0
   -0.3280   -1.4540    0.3740 C   0  0  0  0  0  0  0  0  0  0  0  0
   -1.2380   -0.7590   -0.6510 C   0  0  2  0  0  0  0  0  0  0  0  0
   -0.5850    0.5200   -1.0220 C   0  0  0  0  0  0  0  0  0  0  0  0
    0.5740    0.2110   -1.8340 N   0  0  0  0  0  0  0  0  0  0  0  0
    0.5370    0.0720   -3.1640 N   0  0  0  0  0  0  0  0  0  0  0  0
    1.7530   -0.2190   -3.6490 C   0  0  0  0  0  0  0  0  0  0  0  0
    2.6050   -0.2670   -2.5720 C   0  0  0  0  0  0  0  0  0  0  0  0
    3.9490   -0.5060   -2.3790 C   0  0  0  0  0  0  0  0  0  0  0  0
    4.4970   -0.4710   -1.1140 C   0  0  0  0  0  0  0  0  0  0  0  0
    3.7160   -0.1960   -0.0010 C   0  0  0  0  0  0  0  0  0  0  0  0
    4.2860   -0.1590    1.3140 N   0  0  0  0  0  0  0  0  0  0  0  0
    3.9940    0.6700    2.3310 C   0  0  0  0  0  0  0  0  0  0  0  0
    4.7640    0.3810    3.4350 C   0  0  0  0  0  0  0  0  0  0  0  0
    5.5590   -0.6940    3.0250 C   0  0  0  0  0  0  0  0  0  0  0  0
    5.2230   -0.9650    1.7510 N   0  0  0  0  0  0  0  0  0  0  0  0
    2.4110    0.0320   -0.2250 N   0  0  0  0  0  0  0  0  0  0  0  0
    1.8350    0.0080   -1.4360 C   0  0  0  0  0  0  0  0  0  0  0  0
  1  2  1  0
  2  3  2  0
  2  7  1  0
  3  4  1  0
  4  5  1  0
  5  6  1  0
  5  7  2  0
  7  8  1  0
  8  9  1  0
  8 12  1  0
  9 10  1  0
 10 11  1  0
 11 12  1  0
 12 13  1  1
 13 14  1  0
 14 15  1  0
 14 27  1  0
 15 16  2  0
 16 17  1  0
 17 18  2  0
 17 27  1  0
 18 19  1  0
 19 20  2  0
 20 21  1  0
 20 26  1  0
 21 22  1  0
 21 25  1  0
 22 23  2  0
 23 24  1  0
 24 25  2  0
 26 27  2  0
M  END
