
     RDKit          3D

 27 31  0  0  0  0  0  0  0  0999 V2000
    7.6230   -1.1820   -0.1100 C   0  0  0  0  0  0  0  0  0  0  0  0
    6.4080   -1.3170    0.3850 C   0  0  0  0  0  0  0  0  0  0  0  0
    6.1800   -2.3210    1.2610 F   0  0  0  0  0  0  0  0  0  0  0  0
    5.3280   -0.4200    0.0050 C   0  0  0  0  0  0  0  0  0  0  0  0
    5.3860    0.6950   -0.7930 C   0  0  0  0  0  0  0  0  0  0  0  0
    4.1780    1.2550   -0.9290 N   0  0  0  0  0  0  0  0  0  0  0  0
    3.3560    0.4550   -0.1920 C   0  0  0  0  0  0  0  0  0  0  0  0
    4.0280   -0.5480    0.3750 N   0  0  0  0  0  0  0  0  0  0  0  0
    3.3840   -1.4810    1.2490 C   0  0  0  0  0  0  0  0  0  0  0  0
    1.9240   -1.5370    1.1400 C   0  0  0  0  0  0  0  0  0  0  0  0
    1.2660   -0.3620    0.5700 C   0  0  0  0  0  0  0  0  0  0  0  0
   -0.0830    0.0150    0.5370 C   0  0  0  0  0  0  0  0  0  0  0  0
   -0.1610    1.1800   -0.1640 C   0  0  0  0  0  0  0  0  0  0  0  0
   -1.3520    1.8910   -0.4590 N   0  0  0  0  0  0  0  0  0  0  0  0
   -1.2490    3.2500   -0.9740 C   0  0  0  0  0  0  0  0  0  0  0  0
   -2.6380    1.3410   -0.2900 C   0  0  0  0  0  0  0  0  0  0  0  0
   -3.7130    2.0780    0.1500 C   0  0  0  0  0  0  0  0  0  0  0  0
   -4.9760    1.5150    0.2410 C   0  0  0  0  0  0  0  0  0  0  0  0
   -5.1760    0.1810   -0.1160 C   0  0  0  0  0  0  0  0  0  0  0  0
   -6.4280   -0.3910   -0.0460 C   0  0  0  0  0  0  0  0  0  0  0  0
   -6.5520   -1.7090   -0.4300 C   0  0  0  0  0  0  0  0  0  0  0  0
   -5.4540   -2.4460   -0.8740 C   0  0  0  0  0  0  0  0  0  0  0  0
   -4.2570   -1.8350   -0.9200 N   0  0  0  0  0  0  0  0  0  0  0  0
   -4.1240   -0.5530   -0.5500 C   0  0  0  0  0  0  0  0  0  0  0  0
   -2.8530    0.0200   -0.6400 C   0  0  0  0  0  0  0  0  0  0  0  0
    1.0960    1.5040   -0.5460 N   0  0  0  0  0  0  0  0  0  0  0  0
    1.9350    0.5680   -0.0950 N   0  0  0  0  0  0  0  0  0  0  0  0
  1  2  2  0
  2  3  1  0
  2  4  1  0
  4  5  2  0
  4  8  1  0
  5  6  1  0
  6  7  2  0
  7  8  1  0
  7 27  1  0
  8  9  1  0
  9 10  1  0
 10 11  1  0
 11 12  2  0
 11 27  1  0
 12 13  1  0
 13 14  1  0
 13 26  2  0
 14 15  1  0
 14 16  1  0
 16 17  2  0
 16 25  1  0
 17 18  1  0
 18 19  2  0
 19 20  1  0
 19 24  1  0
 20 21  2  0
 21 22  1  0
 22 23  2  0
 23 24  1  0
 24 25  2  0
 26 27  1  0
M  END
