
     RDKit          3D

 27 31  0  0  0  0  0  0  0  0999 V2000
   -2.3240   -4.3900   -1.3520 F   0  0  0  0  0  0  0  0  0  0  0  0
   -2.5580   -3.0970   -1.0530 C   0  0  0  0  0  0  0  0  0  0  0  0
   -3.7440   -2.5240   -1.4390 C   0  0  0  0  0  0  0  0  0  0  0  0
   -3.9370   -1.2350   -1.1220 N   0  0  0  0  0  0  0  0  0  0  0  0
   -3.0060   -0.4960   -0.4410 C   0  0  0  0  0  0  0  0  0  0  0  0
   -1.8080   -1.0180   -0.0340 C   0  0  0  0  0  0  0  0  0  0  0  0
   -0.8170   -0.2570    0.6820 C   0  0  0  0  0  0  0  0  0  0  0  0
   -0.8530    0.9220    1.0390 N   0  0  0  0  0  0  0  0  0  0  0  0
   -1.7200    1.9930    0.9650 C   0  0  0  0  0  0  0  0  0  0  0  0
   -2.6320    2.3200    1.8940 C   0  0  0  0  0  0  0  0  0  0  0  0
   -3.3880    3.5300    1.4850 C   0  0  0  0  0  0  0  0  0  0  0  0
   -2.7950    3.8760    0.1910 C   0  0  0  0  0  0  0  0  0  0  0  0
   -1.8600    3.0150   -0.1010 C   0  0  0  0  0  0  0  0  0  0  0  0
    0.3970   -0.9760    1.0340 N   0  0  0  0  0  0  0  0  0  0  0  0
    0.5360   -1.9020    2.0070 C   0  0  0  0  0  0  0  0  0  0  0  0
    1.8330   -2.3530    2.0330 C   0  0  0  0  0  0  0  0  0  0  0  0
    2.5050   -1.6830    1.0460 C   0  0  0  0  0  0  0  0  0  0  0  0
    3.7640   -1.6720    0.5750 N   0  0  0  0  0  0  0  0  0  0  0  0
    4.1210   -0.8550   -0.4590 C   0  0  0  0  0  0  0  0  0  0  0  0
    5.3780   -0.8410   -0.9330 N   0  0  0  0  0  0  0  0  0  0  0  0
    5.7680   -0.0520   -1.9480 C   0  0  0  0  0  0  0  0  0  0  0  0
    4.8820    0.8000   -2.5670 C   0  0  0  0  0  0  0  0  0  0  0  0
    3.5850    0.8060   -2.1000 C   0  0  0  0  0  0  0  0  0  0  0  0
    3.2040   -0.0160   -1.0520 C   0  0  0  0  0  0  0  0  0  0  0  0
    1.9490   -0.0290   -0.5800 N   0  0  0  0  0  0  0  0  0  0  0  0
    1.5910   -0.8350    0.4420 C   0  0  0  0  0  0  0  0  0  0  0  0
   -1.6190   -2.3650   -0.3710 C   0  0  0  0  0  0  0  0  0  0  0  0
  1  2  1  0
  2  3  2  0
  2 27  1  0
  3  4  1  0
  4  5  2  0
  5  6  1  0
  6  7  1  0
  6 27  2  0
  7  8  2  3
  7 14  1  0
  8  9  1  0
  9 10  2  0
  9 13  1  0
 10 11  1  0
 11 12  1  0
 12 13  2  0
 14 15  1  0
 14 26  1  0
 15 16  2  0
 16 17  1  0
 17 18  2  0
 17 26  1  0
 18 19  1  0
 19 20  2  0
 19 24  1  0
 20 21  1  0
 21 22  2  0
 22 23  1  0
 23 24  2  0
 24 25  1  0
 25 26  2  0
M  END
