
     RDKit          3D

 23 26  0  0  0  0  0  0  0  0999 V2000
   -0.8890    3.0610    0.1840 C   0  0  0  0  0  0  0  0  0  0  0  0
   -1.7900    2.0110    0.7740 C   0  0  2  0  0  0  0  0  0  0  0  0
   -0.9460    0.8450    1.2310 C   0  0  0  0  0  0  0  0  0  0  0  0
   -0.7910   -0.1070    0.0520 C   0  0  1  0  0  0  0  0  0  0  0  0
    0.3110   -1.0760    0.1660 C   0  0  2  0  0  0  0  0  0  0  0  0
    1.4920   -0.6710   -0.6910 C   0  0  2  0  0  0  0  0  0  0  0  0
    2.5230   -1.6420   -0.5610 O   0  0  0  0  0  0  0  0  0  0  0  0
    2.0950    0.6420   -0.4520 C   0  0  2  0  0  0  0  0  0  0  0  0
    3.2460    0.7940   -1.4640 C   0  0  0  0  0  0  0  0  0  0  0  0
    4.1830    1.8940   -1.0390 C   0  0  0  0  0  0  0  0  0  0  0  0
    5.0380    1.3340    0.0810 C   0  0  0  0  0  0  0  0  0  0  0  0
    4.1680    0.4970    0.9590 C   0  0  0  0  0  0  0  0  0  0  0  0
    2.7050    0.8710    0.8920 C   0  0  0  0  0  0  0  0  0  0  0  0
   -0.0060   -2.4780   -0.3120 C   0  0  0  0  0  0  0  0  0  0  0  0
   -1.4070   -2.9190   -0.0420 C   0  0  0  0  0  0  0  0  0  0  0  0
   -2.3030   -1.9460   -0.8010 C   0  0  1  0  0  0  0  0  0  0  0  0
   -3.7380   -2.3620   -0.5190 C   0  0  0  0  0  0  0  0  0  0  0  0
   -4.2490   -1.4450    0.5430 C   0  0  0  0  0  0  0  0  0  0  0  0
   -2.9980   -0.7510    1.1020 C   0  0  0  0  0  0  0  0  0  0  0  0
   -2.1720   -0.6250   -0.1790 C   0  0  1  0  0  0  0  0  0  0  0  0
   -2.9100    0.4270   -1.0000 C   0  0  0  0  0  0  0  0  0  0  0  0
   -2.8410    1.6790   -0.1850 C   0  0  0  0  0  0  0  0  0  0  0  0
   -3.7470    2.4770   -0.3480 O   0  0  0  0  0  0  0  0  0  0  0  0
  2  1  1  6
  2  3  1  0
  2 22  1  0
  4  3  1  1
  4  5  1  0
  4 20  1  0
  5  6  1  0
  5 14  1  6
  6  7  1  1
  6  8  1  0
  8  9  1  6
  8 13  1  0
  9 10  1  0
 10 11  1  0
 11 12  1  0
 12 13  1  0
 14 15  1  0
 16 15  1  1
 16 17  1  0
 16 20  1  0
 17 18  1  0
 18 19  1  0
 20 19  1  1
 20 21  1  0
 21 22  1  0
 22 23  2  0
M  END
