
     RDKit          3D

 21 22  0  0  0  0  0  0  0  0999 V2000
    3.1150   -2.0230   -0.2160 C   0  0  0  0  0  0  0  0  0  0  0  0
    2.9900   -0.9740    0.8500 C   0  0  0  0  0  0  0  0  0  0  0  0
    1.8060   -0.1550    0.7100 N   0  0  0  0  0  0  0  0  0  0  0  0
    1.5320    0.6400   -0.4300 C   0  0  0  0  0  0  0  0  0  0  0  0
    2.4020    0.6070   -1.3420 O   0  0  0  0  0  0  0  0  0  0  0  0
    0.3710    1.4840   -0.6430 C   0  0  0  0  0  0  0  0  0  0  0  0
    0.6880    2.7250   -1.1420 N   0  0  0  0  0  0  0  0  0  0  0  0
   -0.2520    3.6530   -1.3430 C   0  0  0  0  0  0  0  0  0  0  0  0
    0.0090    4.7950   -1.7980 O   0  0  0  0  0  0  0  0  0  0  0  0
   -1.5640    3.3360   -1.0370 C   0  0  0  0  0  0  0  0  0  0  0  0
   -2.4760    4.1850   -1.2100 O   0  0  0  0  0  0  0  0  0  0  0  0
   -1.8900    2.1320   -0.5540 N   0  0  0  0  0  0  0  0  0  0  0  0
   -0.9280    1.1810   -0.3500 C   0  0  0  0  0  0  0  0  0  0  0  0
   -1.3570   -0.0980    0.1520 C   0  0  0  0  0  0  0  0  0  0  0  0
   -2.5030   -0.1720    0.9240 C   0  0  0  0  0  0  0  0  0  0  0  0
   -3.0190   -1.3750    1.3460 C   0  0  0  0  0  0  0  0  0  0  0  0
   -4.6120   -1.3520    2.4110 Br  0  0  0  0  0  0  0  0  0  0  0  0
   -2.4150   -2.5770    1.0180 C   0  0  0  0  0  0  0  0  0  0  0  0
   -1.2740   -2.5350    0.2500 C   0  0  0  0  0  0  0  0  0  0  0  0
   -0.4470   -4.1820   -0.1990 Br  0  0  0  0  0  0  0  0  0  0  0  0
   -0.7690   -1.3040   -0.1680 C   0  0  0  0  0  0  0  0  0  0  0  0
  1  2  1  0
  2  3  1  0
  3  4  1  0
  4  5  2  0
  4  6  1  0
  6  7  1  0
  6 13  2  0
  7  8  1  0
  8  9  2  0
  8 10  1  0
 10 11  2  0
 10 12  1  0
 12 13  1  0
 13 14  1  0
 14 15  2  0
 14 21  1  0
 15 16  1  0
 16 17  1  0
 16 18  2  0
 18 19  1  0
 19 20  1  0
 19 21  2  0
M  END
