
     RDKit          3D

 27 29  0  0  0  0  0  0  0  0999 V2000
    6.4120    2.5240    1.6740 N   0  0  0  0  0  0  0  0  0  0  0  0
    6.7800    1.9890    0.3880 C   0  0  0  0  0  0  0  0  0  0  0  0
    7.8420    2.4190   -0.1950 N   0  0  0  0  0  0  0  0  0  0  0  0
    5.9630    0.9760   -0.2410 C   0  0  0  0  0  0  0  0  0  0  0  0
    6.2280    0.4070   -1.4530 C   0  0  0  0  0  0  0  0  0  0  0  0
    5.3740   -0.5680   -1.9750 C   0  0  0  0  0  0  0  0  0  0  0  0
    4.2480   -0.9970   -1.3130 C   0  0  0  0  0  0  0  0  0  0  0  0
    3.3490   -2.0480   -1.8960 C   0  0  0  0  0  0  0  0  0  0  0  0
    2.2610   -2.2850   -0.9930 N   0  0  0  0  0  0  0  0  0  0  0  0
    1.1510   -1.3440   -0.8970 C   0  0  0  0  0  0  0  0  0  0  0  0
    1.2380   -0.3760   -1.6350 O   0  0  0  0  0  0  0  0  0  0  0  0
    0.1250   -1.6750    0.0330 C   0  0  2  0  0  0  0  0  0  0  0  0
   -0.6220   -2.9780   -0.3890 C   0  0  0  0  0  0  0  0  0  0  0  0
   -1.9750   -2.8940    0.2850 C   0  0  0  0  0  0  0  0  0  0  0  0
   -1.7470   -1.6910    1.2260 C   0  0  0  0  0  0  0  0  0  0  0  0
   -1.0080   -0.8460    0.2920 N   0  0  0  0  0  0  0  0  0  0  0  0
   -1.3630    0.3990   -0.1810 C   0  0  0  0  0  0  0  0  0  0  0  0
   -0.5380    1.0140   -1.0150 O   0  0  0  0  0  0  0  0  0  0  0  0
   -2.5350    1.2580    0.0470 C   0  0  0  0  0  0  0  0  0  0  0  0
   -3.6370    0.7920    0.8970 C   0  0  0  0  0  0  0  0  0  0  0  0
   -4.7720    1.8490    0.9880 C   0  0  2  0  0  0  0  0  0  0  0  0
   -5.7900    1.1770    1.9290 C   0  0  0  0  0  0  0  0  0  0  0  0
   -6.5560    0.2240    1.0430 C   0  0  0  0  0  0  0  0  0  0  0  0
   -6.6240    0.9300   -0.2740 C   0  0  0  0  0  0  0  0  0  0  0  0
   -5.4970    1.9430   -0.3130 C   0  0  0  0  0  0  0  0  0  0  0  0
    3.9810   -0.4190   -0.0850 C   0  0  0  0  0  0  0  0  0  0  0  0
    4.8160    0.5380    0.4300 C   0  0  0  0  0  0  0  0  0  0  0  0
  1  2  1  0
  2  3  2  0
  2  4  1  0
  4  5  2  0
  4 27  1  0
  5  6  1  0
  6  7  2  0
  7  8  1  0
  7 26  1  0
  8  9  1  0
  9 10  1  0
 10 11  2  0
 12 10  1  6
 12 13  1  0
 12 16  1  0
 13 14  1  0
 14 15  1  0
 15 16  1  0
 16 17  1  0
 17 18  2  0
 17 19  1  0
 19 20  1  0
 21 20  1  6
 21 22  1  0
 21 25  1  0
 22 23  1  0
 23 24  1  0
 24 25  1  0
 26 27  2  0
M  CHG  1   3   1
M  END
