
     RDKit          3D

 25 26  0  0  0  0  0  0  0  0999 V2000
    0.5930   -2.4100   -0.8860 O   0  0  0  0  0  0  0  0  0  0  0  0
    0.6280   -1.0210   -1.0810 C   0  0  1  0  0  0  0  0  0  0  0  0
   -0.4440   -0.4240   -0.2230 C   0  0  0  0  0  0  0  0  0  0  0  0
   -1.6780   -0.9490   -0.6120 O   0  0  0  0  0  0  0  0  0  0  0  0
   -2.8930   -0.6040   -0.0170 C   0  0  0  0  0  0  0  0  0  0  0  0
   -3.3010   -1.1270    1.1130 C   0  0  0  0  0  0  0  0  0  0  0  0
   -4.5700   -0.7590    1.7260 C   0  0  0  0  0  0  0  0  0  0  0  0
   -5.3300    0.1240    1.1280 C   0  0  0  0  0  0  0  0  0  0  0  0
   -5.0120    0.7950   -0.1360 C   0  0  1  0  0  0  0  0  0  0  0  0
   -4.9630    2.2000    0.0680 O   0  0  0  0  0  0  0  0  0  0  0  0
   -3.7210    0.3720   -0.6930 C   0  0  0  0  0  0  0  0  0  0  0  0
   -3.2850    0.8980   -1.8650 C   0  0  0  0  0  0  0  0  0  0  0  0
   -2.1040    0.5240   -2.3970 F   0  0  0  0  0  0  0  0  0  0  0  0
   -4.0420    1.7940   -2.4920 F   0  0  0  0  0  0  0  0  0  0  0  0
    2.0050   -0.5530   -0.7270 C   0  0  2  0  0  0  0  0  0  0  0  0
    2.3400   -0.9220    0.7010 C   0  0  0  0  0  0  0  0  0  0  0  0
    3.7410   -0.9260    0.7910 O   0  0  0  0  0  0  0  0  0  0  0  0
    4.3080    0.1060    0.0660 C   0  0  2  0  0  0  0  0  0  0  0  0
    4.9130   -0.3370   -1.1100 O   0  0  0  0  0  0  0  0  0  0  0  0
    5.4150    0.6970    0.9310 C   0  0  1  0  0  0  0  0  0  0  0  0
    6.0490    1.7410    0.2990 F   0  0  0  0  0  0  0  0  0  0  0  0
    4.9340    1.1660    2.1270 F   0  0  0  0  0  0  0  0  0  0  0  0
    6.3870   -0.2500    1.2130 F   0  0  0  0  0  0  0  0  0  0  0  0
    3.3340    1.2260   -0.2230 C   0  0  0  0  0  0  0  0  0  0  0  0
    2.1920    0.8010   -0.8700 O   0  0  0  0  0  0  0  0  0  0  0  0
  2  1  1  1
  2  3  1  0
  2 15  1  0
  3  4  1  0
  4  5  1  0
  5  6  2  0
  5 11  1  0
  6  7  1  0
  7  8  2  0
  8  9  1  0
  9 10  1  1
  9 11  1  0
 11 12  2  3
 12 13  1  0
 12 14  1  0
 15 16  1  1
 15 25  1  0
 16 17  1  0
 17 18  1  0
 18 19  1  6
 18 20  1  0
 18 24  1  0
 20 21  1  6
 20 22  1  0
 20 23  1  0
 24 25  1  0
M  END
