
     RDKit          3D

 22 23  0  0  0  0  0  0  0  0999 V2000
    7.2690   -1.5350    1.1220 C   0  0  0  0  0  0  0  0  0  0  0  0
    6.3210   -0.6940    0.3140 C   0  0  0  0  0  0  0  0  0  0  0  0
    4.9180   -0.9400    0.8330 C   0  0  0  0  0  0  0  0  0  0  0  0
    3.9600   -0.1520    0.0890 N   0  0  0  0  0  0  0  0  0  0  0  0
    2.5780   -0.1530    0.3220 C   0  0  0  0  0  0  0  0  0  0  0  0
    2.1180   -0.8720    1.2270 O   0  0  0  0  0  0  0  0  0  0  0  0
    1.6320    0.6750   -0.4700 C   0  0  0  0  0  0  0  0  0  0  0  0
    2.0710    1.4040   -1.3810 O   0  0  0  0  0  0  0  0  0  0  0  0
    0.2480    0.6490   -0.2070 N   0  0  0  0  0  0  0  0  0  0  0  0
   -0.7580    1.3980   -0.8930 C   0  0  0  0  0  0  0  0  0  0  0  0
   -0.4730    2.3260   -1.8000 C   0  0  0  0  0  0  0  0  0  0  0  0
   -1.7180    2.8820   -2.2880 C   0  0  0  0  0  0  0  0  0  0  0  0
   -2.7420    2.3000   -1.6850 C   0  0  0  0  0  0  0  0  0  0  0  0
   -4.4280    2.6720   -1.9780 Cl  0  0  0  0  0  0  0  0  0  0  0  0
   -2.2100    1.3050   -0.7490 C   0  0  0  0  0  0  0  0  0  0  0  0
   -2.8770    0.4690   -0.0100 C   0  0  0  0  0  0  0  0  0  0  0  0
   -2.5060   -0.6140    0.8800 C   0  0  0  0  0  0  0  0  0  0  0  0
   -3.4490   -0.7840    1.8250 C   0  0  0  0  0  0  0  0  0  0  0  0
   -4.5520    0.1890    1.6360 C   0  0  0  0  0  0  0  0  0  0  0  0
   -4.3900    0.5110    0.1370 C   0  0  2  0  0  0  0  0  0  0  0  0
   -5.0670   -0.4270   -0.6740 N   0  0  0  0  0  0  0  0  0  0  0  0
   -4.8050   -1.8130   -0.4090 C   0  0  0  0  0  0  0  0  0  0  0  0
  1  2  1  0
  2  3  1  0
  3  4  1  0
  4  5  1  0
  5  6  2  0
  5  7  1  0
  7  8  2  0
  7  9  1  0
  9 10  1  0
 10 11  2  0
 10 15  1  0
 11 12  1  0
 12 13  2  0
 13 14  1  0
 13 15  1  0
 15 16  2  3
 16 17  1  0
 16 20  1  0
 17 18  2  0
 18 19  1  0
 19 20  1  0
 20 21  1  6
 21 22  1  0
M  END
