
     RDKit          3D

 21 22  0  0  0  0  0  0  0  0999 V2000
   -3.5490    1.2000    0.9800 C   0  0  0  0  0  0  0  0  0  0  0  0
   -2.9940    0.2590   -0.0710 C   0  0  1  0  0  0  0  0  0  0  0  0
   -3.5580   -1.1290    0.3150 C   0  0  0  0  0  0  0  0  0  0  0  0
   -3.5370    0.5380   -1.4130 C   0  0  0  0  0  0  0  0  0  0  0  0
   -2.6780    1.2450   -2.3850 C   0  0  0  0  0  0  0  0  0  0  0  0
   -1.6390    2.0210   -1.6330 C   0  0  0  0  0  0  0  0  0  0  0  0
   -0.7580    1.0230   -0.9200 C   0  0  0  0  0  0  0  0  0  0  0  0
   -1.4830    0.1110    0.0260 C   0  0  1  0  0  0  0  0  0  0  0  0
   -1.1370    0.3150    1.4500 C   0  0  0  0  0  0  0  0  0  0  0  0
    0.2520    0.2100    1.9070 C   0  0  0  0  0  0  0  0  0  0  0  0
    0.9250   -1.0290    1.7720 N   0  0  0  0  0  0  0  0  0  0  0  0
    1.6910   -1.4430    0.7730 C   0  0  0  0  0  0  0  0  0  0  0  0
    2.0900   -0.7190   -0.4890 C   0  0  0  0  0  0  0  0  0  0  0  0
    3.4690   -1.0270   -0.8280 N   0  0  0  0  0  0  0  0  0  0  0  0
    3.8800   -0.1060   -1.8680 C   0  0  0  0  0  0  0  0  0  0  0  0
    4.7570    1.0040   -1.2860 C   0  0  0  0  0  0  0  0  0  0  0  0
    3.9810    1.6700   -0.3240 O   0  0  0  0  0  0  0  0  0  0  0  0
    2.1290   -2.7250    1.0580 C   0  0  0  0  0  0  0  0  0  0  0  0
    1.6240   -3.0750    2.2260 N   0  0  0  0  0  0  0  0  0  0  0  0
    0.8860   -2.0430    2.6690 C   0  0  0  0  0  0  0  0  0  0  0  0
    0.2710   -2.0750    3.7700 O   0  0  0  0  0  0  0  0  0  0  0  0
  2  1  1  1
  2  3  1  0
  2  4  1  0
  2  8  1  0
  4  5  1  0
  5  6  1  0
  6  7  1  0
  7  8  1  0
  8  9  1  1
  9 10  1  0
 10 11  1  0
 11 12  1  0
 11 20  1  0
 12 13  1  0
 12 18  2  0
 13 14  1  0
 14 15  1  0
 15 16  1  0
 16 17  1  0
 18 19  1  0
 19 20  1  0
 20 21  2  0
M  CHG  1  14   1
M  END
