
     RDKit          3D

 31 32  0  0  0  0  0  0  0  0999 V2000
    3.8420    0.7760   -1.2190 C   0  0  0  0  0  0  0  0  0  0  0  0
    4.3820    0.0650   -0.0690 N   0  0  0  0  0  0  0  0  0  0  0  0
    5.4930   -0.6950   -0.2730 C   0  0  0  0  0  0  0  0  0  0  0  0
    5.9820   -0.7400   -1.4320 O   0  0  0  0  0  0  0  0  0  0  0  0
    6.0510   -1.3770    0.7370 N   0  0  0  0  0  0  0  0  0  0  0  0
    5.5560   -1.3450    1.9600 N   0  0  0  0  0  0  0  0  0  0  0  0
    4.4800   -0.6220    2.2050 C   0  0  0  0  0  0  0  0  0  0  0  0
    3.9660   -0.5590    3.3670 O   0  0  0  0  0  0  0  0  0  0  0  0
    3.8600    0.1150    1.1600 C   0  0  0  0  0  0  0  0  0  0  0  0
    2.8470    0.7800    1.4430 N   0  0  0  0  0  0  0  0  0  0  0  0
    1.9570    1.6050    0.7940 C   0  0  0  0  0  0  0  0  0  0  0  0
    2.3290    2.8930    0.3680 O   0  0  0  0  0  0  0  0  0  0  0  0
    0.6790    1.2120    0.5350 C   0  0  0  0  0  0  0  0  0  0  0  0
   -0.2440    2.1260   -0.1560 C   0  0  0  0  0  0  0  0  0  0  0  0
   -1.3690    2.6650    0.2760 C   0  0  0  0  0  0  0  0  0  0  0  0
   -2.0640    2.5840    1.4690 N   0  0  0  0  0  0  0  0  0  0  0  0
   -2.8390    1.5730    2.0830 C   0  0  0  0  0  0  0  0  0  0  0  0
   -2.4750    1.2220    3.2710 O   0  0  0  0  0  0  0  0  0  0  0  0
   -3.9350    0.9110    1.5840 O   0  0  0  0  0  0  0  0  0  0  0  0
   -4.0490    0.2300    0.3500 C   0  0  2  0  0  0  0  0  0  0  0  0
   -4.4680    1.0950   -0.7880 C   0  0  0  0  0  0  0  0  0  0  0  0
   -5.2170   -0.7510    0.5790 C   0  0  0  0  0  0  0  0  0  0  0  0
   -4.7870   -1.5540    1.6460 F   0  0  0  0  0  0  0  0  0  0  0  0
   -2.8540   -0.6440    0.0720 C   0  0  0  0  0  0  0  0  0  0  0  0
   -2.1940   -0.4150   -1.2470 C   0  0  2  0  0  0  0  0  0  0  0  0
   -2.9030   -1.1590   -2.2030 O   0  0  0  0  0  0  0  0  0  0  0  0
   -0.7350   -0.7690   -1.1940 C   0  0  2  0  0  0  0  0  0  0  0  0
   -0.5580   -1.9000   -2.1220 N   0  0  0  0  0  0  0  0  0  0  0  0
   -0.2030   -1.1810    0.1200 C   0  0  1  0  0  0  0  0  0  0  0  0
    0.9750   -2.0660   -0.0930 N   0  0  0  0  0  0  0  0  0  0  0  0
    0.3460   -0.1090    0.9450 N   0  0  0  0  0  0  0  0  0  0  0  0
  1  2  1  0
  2  3  1  0
  2  9  1  0
  3  4  2  0
  3  5  1  0
  5  6  1  0
  6  7  1  0
  7  8  2  0
  7  9  1  0
  9 10  2  3
 10 11  1  0
 11 12  1  0
 11 13  2  3
 13 14  1  0
 13 31  1  0
 14 15  2  0
 15 16  1  0
 16 17  1  0
 17 18  2  0
 17 19  1  0
 19 20  1  0
 20 21  1  6
 20 22  1  0
 20 24  1  0
 22 23  1  0
 24 25  1  0
 25 26  1  6
 25 27  1  0
 27 28  1  6
 27 29  1  0
 29 30  1  6
 29 31  1  0
M  CHG  2  28   1  30   1
M  END
