
     RDKit          3D

 31 31  0  0  0  0  0  0  0  0999 V2000
    6.0530    1.8800    0.4500 C   0  0  0  0  0  0  0  0  0  0  0  0
    5.5390    0.7930   -0.4340 C   0  0  1  0  0  0  0  0  0  0  0  0
    6.4080   -0.4640   -0.3420 C   0  0  0  0  0  0  0  0  0  0  0  0
    7.8310   -0.1640   -0.7600 C   0  0  0  0  0  0  0  0  0  0  0  0
    8.5430   -1.3570   -0.6460 O   0  0  0  0  0  0  0  0  0  0  0  0
    9.8100   -1.2310   -0.9840 F   0  0  0  0  0  0  0  0  0  0  0  0
    4.1940    0.3630   -0.0590 N   0  0  0  0  0  0  0  0  0  0  0  0
    3.1080    0.3680   -0.9880 C   0  0  0  0  0  0  0  0  0  0  0  0
    3.4430    0.7830   -2.1540 O   0  0  0  0  0  0  0  0  0  0  0  0
    1.7430   -0.0540   -0.6670 C   0  0  1  0  0  0  0  0  0  0  0  0
    1.5770   -1.4850   -0.2780 C   0  0  0  0  0  0  0  0  0  0  0  0
    2.2860   -1.9320    0.8650 N   0  0  0  0  0  0  0  0  0  0  0  0
    1.0410    0.8910    0.2810 C   0  0  2  0  0  0  0  0  0  0  0  0
   -0.3210    0.4120    0.5670 N   0  0  0  0  0  0  0  0  0  0  0  0
   -1.4020    0.5580   -0.3190 C   0  0  0  0  0  0  0  0  0  0  0  0
   -1.2500    1.1190   -1.4440 O   0  0  0  0  0  0  0  0  0  0  0  0
   -2.7370    0.0490    0.0690 C   0  0  0  0  0  0  0  0  0  0  0  0
   -3.7550    0.1940   -0.7800 C   0  0  0  0  0  0  0  0  0  0  0  0
   -5.0720   -0.2050   -0.6180 N   0  0  0  0  0  0  0  0  0  0  0  0
   -5.3880   -0.9670    0.5330 C   0  0  2  0  0  0  0  0  0  0  0  0
   -6.7280   -0.5310    1.1310 C   0  0  0  0  0  0  0  0  0  0  0  0
   -7.8200   -0.7190    0.1240 C   0  0  0  0  0  0  0  0  0  0  0  0
   -7.5900   -1.1750   -1.0200 O   0  0  0  0  0  0  0  0  0  0  0  0
   -9.1590   -0.3700    0.4750 N   0  0  0  0  0  0  0  0  0  0  0  0
  -10.1620   -0.5570   -0.4880 N   0  0  0  0  0  0  0  0  0  0  0  0
   -4.3350   -1.0300    1.5420 C   0  0  0  0  0  0  0  0  0  0  0  0
   -4.6030   -1.4900    2.6760 O   0  0  0  0  0  0  0  0  0  0  0  0
   -2.9990   -0.5890    1.3010 N   0  0  0  0  0  0  0  0  0  0  0  0
    1.0180    2.2910   -0.2130 C   0  0  0  0  0  0  0  0  0  0  0  0
    2.2850    2.8700   -0.5850 N   0  0  0  0  0  0  0  0  0  0  0  0
    0.0110    3.0130   -0.3370 O   0  0  0  0  0  0  0  0  0  0  0  0
  2  1  1  1
  2  3  1  0
  2  7  1  0
  3  4  1  0
  4  5  1  0
  5  6  1  0
  7  8  1  0
  8  9  2  0
  8 10  1  0
 10 11  1  1
 10 13  1  0
 11 12  1  0
 13 14  1  6
 13 29  1  0
 14 15  1  0
 15 16  2  0
 15 17  1  0
 17 18  2  0
 17 28  1  0
 18 19  1  0
 19 20  1  0
 20 21  1  1
 20 26  1  0
 21 22  1  0
 22 23  2  0
 22 24  1  0
 24 25  1  0
 26 27  2  0
 26 28  1  0
 29 30  1  0
 29 31  2  0
M  CHG  2  12   1  19   1
M  END
