
     RDKit          3D

 27 29  0  0  0  0  0  0  0  0999 V2000
   -6.1980   -0.9470   -1.9380 C   0  0  0  0  0  0  0  0  0  0  0  0
   -5.0610   -0.6820   -0.9910 C   0  0  0  0  0  0  0  0  0  0  0  0
   -5.2700   -0.3650    0.3210 C   0  0  0  0  0  0  0  0  0  0  0  0
   -4.1900   -0.1320    1.1460 C   0  0  0  0  0  0  0  0  0  0  0  0
   -4.4350    0.2170    2.5890 C   0  0  0  0  0  0  0  0  0  0  0  0
   -2.9000   -0.2140    0.6640 C   0  0  0  0  0  0  0  0  0  0  0  0
   -2.6630   -0.5260   -0.6310 C   0  0  0  0  0  0  0  0  0  0  0  0
   -1.3970   -0.6240   -1.2110 N   0  0  0  0  0  0  0  0  0  0  0  0
   -0.2290   -0.0520   -0.6380 C   0  0  0  0  0  0  0  0  0  0  0  0
    0.9750   -0.8400   -0.4910 N   0  0  0  0  0  0  0  0  0  0  0  0
    2.0550   -0.3010    0.2990 C   0  0  0  0  0  0  0  0  0  0  0  0
    3.1720   -1.3280    0.3110 C   0  0  1  0  0  0  0  0  0  0  0  0
    3.6600   -1.6230   -1.0000 N   0  0  0  0  0  0  0  0  0  0  0  0
    4.3250   -0.8690    1.1690 C   0  0  1  0  0  0  0  0  0  0  0  0
    5.2970   -1.9880    1.3850 C   0  0  0  0  0  0  0  0  0  0  0  0
    6.3340   -1.4700    2.1960 O   0  0  0  0  0  0  0  0  0  0  0  0
    7.0820   -0.6420    1.3780 C   0  0  0  0  0  0  0  0  0  0  0  0
    6.2710    0.1130    0.3710 C   0  0  0  0  0  0  0  0  0  0  0  0
    4.9450    0.2550    0.6880 O   0  0  0  0  0  0  0  0  0  0  0  0
   -0.1690    1.1660   -0.2670 N   0  0  0  0  0  0  0  0  0  0  0  0
   -1.2700    2.0410   -0.4070 C   0  0  0  0  0  0  0  0  0  0  0  0
   -1.9980    2.1290   -1.5900 C   0  0  0  0  0  0  0  0  0  0  0  0
   -3.0610    2.9930   -1.7340 C   0  0  0  0  0  0  0  0  0  0  0  0
   -3.4320    3.8030   -0.6860 C   0  0  0  0  0  0  0  0  0  0  0  0
   -2.7170    3.7010    0.4390 N   0  0  0  0  0  0  0  0  0  0  0  0
   -1.6820    2.8810    0.6240 C   0  0  0  0  0  0  0  0  0  0  0  0
   -3.7620   -0.7570   -1.4450 C   0  0  0  0  0  0  0  0  0  0  0  0
  1  2  1  0
  2  3  2  0
  2 27  1  0
  3  4  1  0
  4  5  1  0
  4  6  2  0
  6  7  1  0
  7  8  1  0
  7 27  2  0
  8  9  1  0
  9 10  1  0
  9 20  2  3
 10 11  1  0
 11 12  1  0
 12 13  1  6
 12 14  1  0
 14 15  1  6
 14 19  1  0
 15 16  1  0
 16 17  1  0
 17 18  1  0
 18 19  1  0
 20 21  1  0
 21 22  2  0
 21 26  1  0
 22 23  1  0
 23 24  2  0
 24 25  1  0
 25 26  2  0
M  CHG  2  13   1  20   1
M  END
