
     RDKit          3D

 27 29  0  0  0  0  0  0  0  0999 V2000
    6.0580    1.7190   -1.6060 C   0  0  0  0  0  0  0  0  0  0  0  0
    5.1940    0.9920   -0.9080 C   0  0  0  0  0  0  0  0  0  0  0  0
    5.4310   -0.3080   -0.4290 C   0  0  0  0  0  0  0  0  0  0  0  0
    6.5550   -0.9880   -0.6120 C   0  0  0  0  0  0  0  0  0  0  0  0
    6.8480   -2.2770   -0.1620 N   0  0  0  0  0  0  0  0  0  0  0  0
    4.3150   -0.6630    0.2110 N   0  0  0  0  0  0  0  0  0  0  0  0
    4.0810   -1.9520    0.8870 C   0  0  0  0  0  0  0  0  0  0  0  0
    3.3760    0.3240    0.1760 C   0  0  0  0  0  0  0  0  0  0  0  0
    2.1130    0.4040    0.6860 N   0  0  0  0  0  0  0  0  0  0  0  0
    1.3670    1.5070    0.5150 C   0  0  0  0  0  0  0  0  0  0  0  0
   -0.0000    1.5810    1.0730 C   0  0  0  0  0  0  0  0  0  0  0  0
   -0.9540    1.0590    0.0260 C   0  0  0  0  0  0  0  0  0  0  0  0
   -2.3370    1.0960    0.4960 N   0  0  1  0  0  0  0  0  0  0  0  0
   -3.1450    1.6320   -0.5270 C   0  0  0  0  0  0  0  0  0  0  0  0
   -3.3050    3.1060   -0.4190 C   0  0  0  0  0  0  0  0  0  0  0  0
   -4.0640    3.8750   -1.3190 N   0  0  0  0  0  0  0  0  0  0  0  0
   -2.7210    3.6780    0.5360 O   0  0  0  0  0  0  0  0  0  0  0  0
   -2.6930   -0.1730    1.0140 C   0  0  0  0  0  0  0  0  0  0  0  0
   -3.8680   -0.8360    0.3740 C   0  0  2  0  0  0  0  0  0  0  0  0
   -4.0130   -2.2000    1.0670 C   0  0  0  0  0  0  0  0  0  0  0  0
   -5.0430   -3.0510    0.3710 C   0  0  0  0  0  0  0  0  0  0  0  0
   -4.6950   -3.1060   -1.1010 C   0  0  0  0  0  0  0  0  0  0  0  0
   -4.6880   -1.6730   -1.6070 C   0  0  0  0  0  0  0  0  0  0  0  0
   -3.6210   -1.0350   -0.9810 O   0  0  0  0  0  0  0  0  0  0  0  0
    1.9010    2.5610   -0.1860 C   0  0  0  0  0  0  0  0  0  0  0  0
    3.1850    2.5030   -0.7150 C   0  0  0  0  0  0  0  0  0  0  0  0
    3.9240    1.3580   -0.5230 C   0  0  0  0  0  0  0  0  0  0  0  0
  1  2  2  0
  2  3  1  0
  2 27  1  0
  3  4  2  3
  3  6  1  0
  4  5  1  0
  6  7  1  0
  6  8  1  0
  8  9  2  0
  8 27  1  0
  9 10  1  0
 10 11  1  0
 10 25  2  0
 11 12  1  0
 13 12  1  6
 13 14  1  0
 13 18  1  0
 14 15  1  0
 15 16  1  0
 15 17  2  0
 19 18  1  1
 19 20  1  0
 19 24  1  0
 20 21  1  0
 21 22  1  0
 22 23  1  0
 23 24  1  0
 25 26  1  0
 26 27  2  0
M  CHG  2   5   1  13   1
M  END
