
     RDKit          3D

 27 29  0  0  0  0  0  0  0  0999 V2000
   -7.7800    1.6210   -0.0630 N   0  0  0  0  0  0  0  0  0  0  0  0
   -7.3310    0.3600    0.4370 C   0  0  0  0  0  0  0  0  0  0  0  0
   -8.0600   -0.2240    1.3090 N   0  0  0  0  0  0  0  0  0  0  0  0
   -6.0900   -0.1990   -0.0550 C   0  0  0  0  0  0  0  0  0  0  0  0
   -5.3410    0.4950   -1.0130 C   0  0  0  0  0  0  0  0  0  0  0  0
   -4.1570   -0.0110   -1.4970 C   0  0  0  0  0  0  0  0  0  0  0  0
   -3.6530   -1.2180   -1.0660 C   0  0  0  0  0  0  0  0  0  0  0  0
   -2.3860   -1.8200   -1.5390 C   0  0  0  0  0  0  0  0  0  0  0  0
   -1.2850   -1.5500   -0.6370 N   0  0  0  0  0  0  0  0  0  0  0  0
   -0.6140   -0.3010   -0.5620 C   0  0  0  0  0  0  0  0  0  0  0  0
   -1.0300    0.5980   -1.3460 O   0  0  0  0  0  0  0  0  0  0  0  0
    0.5170   -0.0760    0.3930 C   0  0  2  0  0  0  0  0  0  0  0  0
   -0.0900   -0.0900    1.7920 C   0  0  0  0  0  0  0  0  0  0  0  0
   -0.6860    1.2820    1.8590 C   0  0  0  0  0  0  0  0  0  0  0  0
    0.0460    2.1310    0.8420 C   0  0  0  0  0  0  0  0  0  0  0  0
    1.0490    1.2490    0.3340 N   0  0  0  0  0  0  0  0  0  0  0  0
    2.3230    1.6010   -0.1390 C   0  0  0  0  0  0  0  0  0  0  0  0
    2.6600    2.8130   -0.1390 O   0  0  0  0  0  0  0  0  0  0  0  0
    3.2990    0.5730   -0.6460 C   0  0  0  0  0  0  0  0  0  0  0  0
    4.5150    1.2070   -1.0660 N   0  0  0  0  0  0  0  0  0  0  0  0
    5.7050    0.4410   -0.8040 C   0  0  2  0  0  0  0  0  0  0  0  0
    5.5340   -1.0340   -1.0700 C   0  0  0  0  0  0  0  0  0  0  0  0
    6.3190   -1.7660    0.0230 C   0  0  0  0  0  0  0  0  0  0  0  0
    7.1630   -0.6590    0.6640 C   0  0  0  0  0  0  0  0  0  0  0  0
    6.1370    0.4820    0.6270 C   0  0  0  0  0  0  0  0  0  0  0  0
   -4.3940   -1.8970   -0.1230 C   0  0  0  0  0  0  0  0  0  0  0  0
   -5.5910   -1.4050    0.3790 C   0  0  0  0  0  0  0  0  0  0  0  0
  1  2  1  0
  2  3  2  0
  2  4  1  0
  4  5  2  0
  4 27  1  0
  5  6  1  0
  6  7  2  0
  7  8  1  0
  7 26  1  0
  8  9  1  0
  9 10  1  0
 10 11  2  0
 12 10  1  6
 12 13  1  0
 12 16  1  0
 13 14  1  0
 14 15  1  0
 15 16  1  0
 16 17  1  0
 17 18  2  0
 17 19  1  0
 19 20  1  0
 21 20  1  1
 21 22  1  0
 21 25  1  0
 22 23  1  0
 23 24  1  0
 24 25  1  0
 26 27  2  0
M  CHG  2   3   1  20   1
M  END
