
     RDKit          3D

 13 14  0  0  0  0  0  0  0  0999 V2000
    1.0670    1.9560    1.3640 N   0  0  0  0  0  0  0  0  0  0  0  0
    0.8920    0.5040    1.2660 C   0  0  0  0  0  0  0  0  0  0  0  0
    0.1810    0.2640   -0.0750 C   0  0  1  0  0  0  0  0  0  0  0  0
    1.0270    0.7720   -1.0440 O   0  0  0  0  0  0  0  0  0  0  0  0
    1.8810   -0.1200   -1.6010 C   0  0  0  0  0  0  0  0  0  0  0  0
    2.1850   -1.3450   -0.8430 C   0  0  0  0  0  0  0  0  0  0  0  0
    1.2150   -1.7990    0.0050 O   0  0  0  0  0  0  0  0  0  0  0  0
   -0.0020   -1.1960   -0.3540 C   0  0  1  0  0  0  0  0  0  0  0  0
   -1.1740   -1.8180    0.3000 C   0  0  0  0  0  0  0  0  0  0  0  0
   -2.2340   -0.9280    0.6480 N   0  0  0  0  0  0  0  0  0  0  0  0
   -2.2750    0.1310   -0.3600 C   0  0  0  0  0  0  0  0  0  0  0  0
   -1.0930    1.0410   -0.0350 C   0  0  2  0  0  0  0  0  0  0  0  0
   -1.0540    2.1510   -0.8750 O   0  0  0  0  0  0  0  0  0  0  0  0
  1  2  1  0
  3  2  1  1
  3  4  1  0
  3  8  1  0
  3 12  1  0
  4  5  1  0
  5  6  1  0
  6  7  1  0
  7  8  1  0
  8  9  1  1
  9 10  1  0
 10 11  1  0
 11 12  1  0
 12 13  1  6
M  CHG  2   1   1  10   1
M  END
