
     RDKit          3D

 25 27  0  0  0  0  0  0  0  0999 V2000
    7.1230    0.8550   -2.7190 C   0  0  0  0  0  0  0  0  0  0  0  0
    6.5080    0.1460   -1.5410 C   0  0  0  0  0  0  0  0  0  0  0  0
    6.1300   -1.1770   -1.5580 C   0  0  0  0  0  0  0  0  0  0  0  0
    5.6150   -1.4380   -0.2940 C   0  0  0  0  0  0  0  0  0  0  0  0
    5.7050   -0.2660    0.4250 C   0  0  0  0  0  0  0  0  0  0  0  0
    5.2730   -0.0730    1.8310 C   0  0  0  0  0  0  0  0  0  0  0  0
    3.9480    0.4870    1.9560 N   0  0  0  0  0  0  0  0  0  0  0  0
    2.7710   -0.1230    1.4520 C   0  0  0  0  0  0  0  0  0  0  0  0
    2.8830   -1.2230    0.8560 O   0  0  0  0  0  0  0  0  0  0  0  0
    1.4360    0.5080    1.6150 C   0  0  0  0  0  0  0  0  0  0  0  0
    1.3970    1.5990    2.2150 O   0  0  0  0  0  0  0  0  0  0  0  0
    0.2750   -0.0750    1.1280 N   0  0  0  0  0  0  0  0  0  0  0  0
   -1.0640    0.4170    1.2100 C   0  0  0  0  0  0  0  0  0  0  0  0
   -1.3780    1.6390    1.7430 C   0  0  0  0  0  0  0  0  0  0  0  0
   -2.6910    2.1070    1.8240 C   0  0  0  0  0  0  0  0  0  0  0  0
   -3.7170    1.3160    1.3530 C   0  0  0  0  0  0  0  0  0  0  0  0
   -3.4200    0.0880    0.8160 C   0  0  0  0  0  0  0  0  0  0  0  0
   -4.4660   -0.7380    0.3310 N   0  0  1  0  0  0  0  0  0  0  0  0
   -5.7550   -0.1900    0.4730 C   0  0  0  0  0  0  0  0  0  0  0  0
   -6.1630    0.7780   -0.6140 C   0  0  0  0  0  0  0  0  0  0  0  0
   -6.3950   -0.2830   -2.1070 S   0  0  0  0  0  0  0  0  0  0  0  0
   -5.3380   -1.7380   -1.7200 C   0  0  0  0  0  0  0  0  0  0  0  0
   -4.1310   -1.1570   -1.0110 C   0  0  0  0  0  0  0  0  0  0  0  0
   -2.1060   -0.3600    0.7440 C   0  0  0  0  0  0  0  0  0  0  0  0
    6.2430    0.6450   -0.3620 O   0  0  0  0  0  0  0  0  0  0  0  0
  1  2  1  0
  2  3  2  0
  2 25  1  0
  3  4  1  0
  4  5  2  0
  5  6  1  0
  5 25  1  0
  6  7  1  0
  7  8  1  0
  8  9  2  0
  8 10  1  0
 10 11  2  0
 10 12  1  0
 12 13  1  0
 13 14  2  0
 13 24  1  0
 14 15  1  0
 15 16  2  0
 16 17  1  0
 18 17  1  6
 17 24  2  0
 18 19  1  0
 18 23  1  0
 19 20  1  0
 20 21  1  0
 21 22  1  0
 22 23  1  0
M  CHG  1  18   1
M  END
