
     RDKit          3D

 25 27  0  0  0  0  0  0  0  0999 V2000
   -2.2200    2.9810   -0.3130 N   0  0  0  0  0  0  0  0  0  0  0  0
   -3.6180    2.6930   -0.4910 C   0  0  0  0  0  0  0  0  0  0  0  0
   -4.0070    1.3190   -0.1390 C   0  0  0  0  0  0  0  0  0  0  0  0
   -3.1400    0.4430    0.2970 C   0  0  0  0  0  0  0  0  0  0  0  0
   -1.4290    0.9020    0.4820 S   0  0  0  0  0  0  0  0  0  0  0  0
   -0.5680   -0.5270    1.0890 C   0  0  0  0  0  0  0  0  0  0  0  0
    0.9050   -0.4150    1.3350 C   0  0  0  0  0  0  0  0  0  0  0  0
    1.4950   -0.0780    0.0870 O   0  0  0  0  0  0  0  0  0  0  0  0
    1.3780   -0.8960   -1.0170 C   0  0  0  0  0  0  0  0  0  0  0  0
    0.7410   -1.9680   -0.9370 O   0  0  0  0  0  0  0  0  0  0  0  0
    1.9970   -0.5260   -2.3050 C   0  0  0  0  0  0  0  0  0  0  0  0
    2.7140    0.6710   -2.1370 O   0  0  0  0  0  0  0  0  0  0  0  0
    3.7820    0.7460   -1.2840 C   0  0  0  0  0  0  0  0  0  0  0  0
    4.2020   -0.3530   -0.5790 C   0  0  0  0  0  0  0  0  0  0  0  0
    5.3000   -0.2340    0.2890 C   0  0  0  0  0  0  0  0  0  0  0  0
    5.9450    0.9740    0.4260 C   0  0  0  0  0  0  0  0  0  0  0  0
    7.0050    1.0750    1.2680 F   0  0  0  0  0  0  0  0  0  0  0  0
    5.5040    2.0640   -0.2950 C   0  0  0  0  0  0  0  0  0  0  0  0
    4.4290    1.9500   -1.1450 C   0  0  0  0  0  0  0  0  0  0  0  0
   -1.1990   -1.6360    1.3120 C   0  0  0  0  0  0  0  0  0  0  0  0
   -2.6070   -1.8910    1.1220 C   0  0  0  0  0  0  0  0  0  0  0  0
   -3.2670   -3.0010    1.3400 N   0  0  0  0  0  0  0  0  0  0  0  0
   -4.6560   -2.8220    1.0190 C   0  0  0  0  0  0  0  0  0  0  0  0
   -4.7650   -1.4250    0.5650 C   0  0  0  0  0  0  0  0  0  0  0  0
   -3.5460   -0.9090    0.6380 C   0  0  0  0  0  0  0  0  0  0  0  0
  1  2  1  0
  2  3  1  0
  3  4  2  3
  4  5  1  0
  4 25  1  0
  5  6  1  0
  6  7  1  0
  6 20  2  0
  7  8  1  0
  8  9  1  0
  9 10  2  0
  9 11  1  0
 11 12  1  0
 12 13  1  0
 13 14  2  0
 13 19  1  0
 14 15  1  0
 15 16  2  0
 16 17  1  0
 16 18  1  0
 18 19  2  0
 20 21  1  0
 21 22  2  0
 21 25  1  0
 22 23  1  0
 23 24  1  0
 24 25  2  0
M  CHG  1  22   1
M  END
