
     RDKit          3D

 25 27  0  0  0  0  0  0  0  0999 V2000
   -1.1180   -1.6550    1.4910 C   0  0  0  0  0  0  0  0  0  0  0  0
   -1.1540   -0.3850    0.8600 N   0  0  0  0  0  0  0  0  0  0  0  0
   -0.9870   -0.3150   -0.5420 C   0  0  1  0  0  0  0  0  0  0  0  0
    0.1790    0.9830   -1.0240 S   0  0  0  0  0  0  0  0  0  0  0  0
    1.8340    0.7480   -0.5040 C   0  0  0  0  0  0  0  0  0  0  0  0
    2.7370    1.6800   -0.8950 N   0  0  0  0  0  0  0  0  0  0  0  0
    4.0360    1.6150   -0.5700 C   0  0  0  0  0  0  0  0  0  0  0  0
    4.9520    2.5620   -0.9680 C   0  0  0  0  0  0  0  0  0  0  0  0
    6.2760    2.4470   -0.6080 C   0  0  0  0  0  0  0  0  0  0  0  0
    7.2000    3.3860   -0.9990 F   0  0  0  0  0  0  0  0  0  0  0  0
    6.6400    1.3610    0.1570 C   0  0  0  0  0  0  0  0  0  0  0  0
    5.7440    0.4070    0.5640 C   0  0  0  0  0  0  0  0  0  0  0  0
    4.4150    0.5320    0.1950 C   0  0  0  0  0  0  0  0  0  0  0  0
    3.4940   -0.4160    0.5930 C   0  0  0  0  0  0  0  0  0  0  0  0
    3.8560   -1.3980    1.2920 O   0  0  0  0  0  0  0  0  0  0  0  0
    2.2030   -0.3000    0.2380 N   0  0  0  0  0  0  0  0  0  0  0  0
   -0.7780   -1.5800   -1.2920 C   0  0  0  0  0  0  0  0  0  0  0  0
   -1.8860   -2.5480   -1.2310 C   0  0  0  0  0  0  0  0  0  0  0  0
   -3.1290   -2.0450   -0.9450 O   0  0  0  0  0  0  0  0  0  0  0  0
   -3.3740   -0.6870   -0.6280 C   0  0  0  0  0  0  0  0  0  0  0  0
   -4.4410   -0.3660    0.0220 C   0  0  0  0  0  0  0  0  0  0  0  0
   -4.8370    0.9460    0.4180 C   0  0  0  0  0  0  0  0  0  0  0  0
   -6.1150    1.1670    1.1790 C   0  0  0  0  0  0  0  0  0  0  0  0
   -4.1790    1.9640    0.1730 O   0  0  0  0  0  0  0  0  0  0  0  0
   -2.3440    0.2320   -1.0960 C   0  0  0  0  0  0  0  0  0  0  0  0
  1  2  1  0
  3  2  1  1
  3  4  1  0
  3 17  1  0
  3 25  1  0
  4  5  1  0
  5  6  2  0
  5 16  1  0
  6  7  1  0
  7  8  2  0
  7 13  1  0
  8  9  1  0
  9 10  1  0
  9 11  2  0
 11 12  1  0
 12 13  2  0
 13 14  1  0
 14 15  2  0
 14 16  1  0
 17 18  1  0
 18 19  1  0
 19 20  1  0
 20 21  2  3
 20 25  1  0
 21 22  1  0
 22 23  1  0
 22 24  2  0
M  CHG  1   2   1
M  END
