
     RDKit          3D

 25 28  0  0  0  0  0  0  0  0999 V2000
    4.7540    0.7240    0.5820 C   0  0  0  0  0  0  0  0  0  0  0  0
    3.5740   -0.1780    0.7340 C   0  0  0  0  0  0  0  0  0  0  0  0
    2.7300   -0.1990   -0.4960 C   0  0  2  0  0  0  0  0  0  0  0  0
    3.5730   -0.6970   -1.6540 C   0  0  0  0  0  0  0  0  0  0  0  0
    2.2890    1.2200   -0.8070 C   0  0  0  0  0  0  0  0  0  0  0  0
    1.3980    1.7250    0.2750 C   0  0  0  0  0  0  0  0  0  0  0  0
    0.2020    0.8630    0.3800 C   0  0  0  0  0  0  0  0  0  0  0  0
    0.3070   -0.4240    0.0840 C   0  0  0  0  0  0  0  0  0  0  0  0
   -0.9080   -1.2340    0.2150 C   0  0  0  0  0  0  0  0  0  0  0  0
   -0.7530   -2.5810    0.1120 C   0  0  0  0  0  0  0  0  0  0  0  0
    0.5400   -3.1970   -0.1090 C   0  0  0  0  0  0  0  0  0  0  0  0
    0.6190   -4.3290   -0.6040 O   0  0  0  0  0  0  0  0  0  0  0  0
    1.7470   -2.3740    0.2990 C   0  0  0  0  0  0  0  0  0  0  0  0
    1.5190   -1.0640   -0.4110 C   0  0  2  0  0  0  0  0  0  0  0  0
    1.2060   -1.4530   -1.7530 O   0  0  0  0  0  0  0  0  0  0  0  0
   -2.2280   -0.6980    0.5010 C   0  0  1  0  0  0  0  0  0  0  0  0
   -2.1620    0.7810    0.7970 C   0  0  0  0  0  0  0  0  0  0  0  0
   -1.0800    1.4960    0.7520 C   0  0  0  0  0  0  0  0  0  0  0  0
   -1.0790    2.8450    1.0420 O   0  0  0  0  0  0  0  0  0  0  0  0
   -1.5090    3.8610    0.1930 C   0  0  0  0  0  0  0  0  0  0  0  0
   -3.6270    1.0690    1.0400 C   0  0  2  0  0  0  0  0  0  0  0  0
   -4.0050    0.3150    2.1270 O   0  0  0  0  0  0  0  0  0  0  0  0
   -4.2070    0.4440   -0.2460 C   0  0  0  0  0  0  0  0  0  0  0  0
   -3.2650   -0.7280   -0.5670 C   0  0  2  0  0  0  0  0  0  0  0  0
   -4.0170   -2.0480   -0.4570 C   0  0  0  0  0  0  0  0  0  0  0  0
  1  2  1  0
  2  3  1  0
  3  4  1  6
  3  5  1  0
  3 14  1  0
  5  6  1  0
  6  7  1  0
  7  8  2  0
  7 18  1  0
  8  9  1  0
  8 14  1  0
  9 10  2  0
 16  9  1  6
 10 11  1  0
 11 12  2  0
 11 13  1  0
 13 14  1  0
 14 15  1  6
 16 17  1  0
 16 24  1  0
 17 18  2  0
 17 21  1  0
 18 19  1  0
 19 20  1  0
 21 22  1  1
 21 23  1  0
 23 24  1  0
 24 25  1  1
M  END
