
     RDKit          3D

 25 28  0  0  0  0  0  0  0  0999 V2000
    0.2970   -1.9060   -1.5970 C   0  0  0  0  0  0  0  0  0  0  0  0
   -0.1090   -1.7030   -0.1870 C   0  0  2  0  0  0  0  0  0  0  0  0
   -1.0560   -0.5300   -0.0530 C   0  0  2  0  0  0  0  0  0  0  0  0
   -1.4760   -0.3120    1.3830 C   0  0  0  0  0  0  0  0  0  0  0  0
   -2.9280    0.1200    1.3590 C   0  0  1  0  0  0  0  0  0  0  0  0
   -3.1260    1.3080    2.0530 O   0  0  0  0  0  0  0  0  0  0  0  0
   -4.1150    2.0960    1.4980 C   0  0  0  0  0  0  0  0  0  0  0  0
   -3.6810    2.7300    0.1930 C   0  0  0  0  0  0  0  0  0  0  0  0
   -2.6740    1.7510   -0.4270 C   0  0  0  0  0  0  0  0  0  0  0  0
   -3.2110    0.3730   -0.1040 C   0  0  1  0  0  0  0  0  0  0  0  0
   -2.3580   -0.7230   -0.7420 C   0  0  2  0  0  0  0  0  0  0  0  0
   -3.0270   -2.0280   -0.4510 C   0  0  0  0  0  0  0  0  0  0  0  0
   -2.3490   -0.5030   -2.2310 C   0  0  0  0  0  0  0  0  0  0  0  0
    1.0240   -1.6720    0.7510 C   0  0  1  0  0  0  0  0  0  0  0  0
    1.7120   -2.9030    0.6420 O   0  0  0  0  0  0  0  0  0  0  0  0
    1.9930   -0.5680    0.7050 C   0  0  1  0  0  0  0  0  0  0  0  0
    3.0190   -0.8450    1.8210 C   0  0  0  0  0  0  0  0  0  0  0  0
    4.3390   -0.5950    1.4110 O   0  0  0  0  0  0  0  0  0  0  0  0
    4.6010    0.5370    0.6090 C   0  0  0  0  0  0  0  0  0  0  0  0
    3.8020    0.6890   -0.4120 C   0  0  0  0  0  0  0  0  0  0  0  0
    3.9220    1.7930   -1.3420 C   0  0  0  0  0  0  0  0  0  0  0  0
    4.9030    2.6570   -1.1010 C   0  0  0  0  0  0  0  0  0  0  0  0
    5.7500    2.4980   -0.0260 O   0  0  0  0  0  0  0  0  0  0  0  0
    5.6990    1.4620    0.9130 C   0  0  0  0  0  0  0  0  0  0  0  0
    2.7270   -0.3640   -0.5990 C   0  0  0  0  0  0  0  0  0  0  0  0
  2  1  1  6
  2  3  1  0
  2 14  1  0
  3  4  1  1
  3 11  1  0
  5  4  1  6
  5  6  1  0
  5 10  1  0
  6  7  1  0
  7  8  1  0
  8  9  1  0
 10  9  1  6
 10 11  1  0
 11 12  1  6
 11 13  1  0
 14 15  1  6
 14 16  1  0
 16 17  1  1
 16 25  1  0
 17 18  1  0
 18 19  1  0
 19 20  2  0
 19 24  1  0
 20 21  1  0
 20 25  1  0
 21 22  2  0
 22 23  1  0
 23 24  1  0
M  END
