
     RDKit          3D

 25 27  0  0  0  0  0  0  0  0999 V2000
   -1.1390   -3.9480   -0.4820 C   0  0  0  0  0  0  0  0  0  0  0  0
   -0.5270   -2.6140   -0.3610 C   0  0  0  0  0  0  0  0  0  0  0  0
   -1.4180   -1.4240   -0.3500 C   0  0  1  0  0  0  0  0  0  0  0  0
   -2.2090   -1.4220   -1.6390 C   0  0  0  0  0  0  0  0  0  0  0  0
   -2.2000   -1.3170    0.8920 C   0  0  1  0  0  0  0  0  0  0  0  0
   -2.8130   -2.5400    1.4670 C   0  0  0  0  0  0  0  0  0  0  0  0
   -1.3190   -0.8270    1.8940 O   0  0  0  0  0  0  0  0  0  0  0  0
   -3.3010   -0.2720    0.8200 C   0  0  0  0  0  0  0  0  0  0  0  0
   -2.7680    0.9370    0.1370 C   0  0  1  0  0  0  0  0  0  0  0  0
   -3.4090    2.1510    0.7560 C   0  0  0  0  0  0  0  0  0  0  0  0
   -2.9370    3.4450    0.1340 C   0  0  0  0  0  0  0  0  0  0  0  0
   -3.6220    4.4740    0.8160 O   0  0  0  0  0  0  0  0  0  0  0  0
   -1.2810    1.0530    0.1450 C   0  0  0  0  0  0  0  0  0  0  0  0
   -0.5490   -0.1300   -0.3750 C   0  0  2  0  0  0  0  0  0  0  0  0
   -0.0420    0.1540   -1.7540 C   0  0  0  0  0  0  0  0  0  0  0  0
    1.2940    0.8350   -1.4150 C   0  0  0  0  0  0  0  0  0  0  0  0
    1.6600    0.1770   -0.1320 C   0  0  2  0  0  0  0  0  0  0  0  0
    2.1260    1.2300    0.8350 C   0  0  0  0  0  0  0  0  0  0  0  0
    3.5230    1.7200    0.5520 C   0  0  0  0  0  0  0  0  0  0  0  0
    4.4550    0.5610    0.6340 C   0  0  2  0  0  0  0  0  0  0  0  0
    5.9040    0.9400    0.4560 C   0  0  0  0  0  0  0  0  0  0  0  0
    4.0900   -0.3950   -0.4780 C   0  0  2  0  0  0  0  0  0  0  0  0
    4.4320    0.1210   -1.7110 O   0  0  0  0  0  0  0  0  0  0  0  0
    2.6810   -0.8860   -0.4020 C   0  0  0  0  0  0  0  0  0  0  0  0
    0.5440   -0.4190    0.4110 O   0  0  0  0  0  0  0  0  0  0  0  0
  1  2  1  0
  2  3  1  0
  3  4  1  6
  3  5  1  0
  3 14  1  0
  5  6  1  1
  5  7  1  0
  5  8  1  0
  8  9  1  0
  9 10  1  1
  9 13  1  0
 10 11  1  0
 11 12  1  0
 14 13  1  1
 14 15  1  0
 14 25  1  0
 15 16  1  0
 17 16  1  6
 17 18  1  0
 17 24  1  0
 17 25  1  0
 18 19  1  0
 19 20  1  0
 20 21  1  6
 20 22  1  0
 22 23  1  6
 22 24  1  0
M  END
