
     RDKit          3D

 19 21  0  0  0  0  0  0  0  0999 V2000
    5.2580   -0.6010   -1.1970 N   0  0  0  0  0  0  0  0  0  0  0  0
    4.2010   -0.3000   -0.3090 C   0  0  0  0  0  0  0  0  0  0  0  0
    4.4780   -0.1400    0.9930 N   0  0  0  0  0  0  0  0  0  0  0  0
    3.5070    0.1490    1.8870 C   0  0  0  0  0  0  0  0  0  0  0  0
    2.2410    0.2800    1.4800 N   0  0  0  0  0  0  0  0  0  0  0  0
    1.8710    0.1340    0.1810 C   0  0  0  0  0  0  0  0  0  0  0  0
    2.8950   -0.1630   -0.7160 C   0  0  0  0  0  0  0  0  0  0  0  0
    2.2950   -0.2580   -1.9140 N   0  0  0  0  0  0  0  0  0  0  0  0
    0.9640   -0.0310   -1.7630 C   0  0  0  0  0  0  0  0  0  0  0  0
    0.6950    0.2130   -0.4690 N   0  0  0  0  0  0  0  0  0  0  0  0
   -0.5830    0.4990    0.1070 C   0  0  2  0  0  0  0  0  0  0  0  0
   -1.3740   -0.7670    0.3920 C   0  0  0  0  0  0  0  0  0  0  0  0
   -2.7890   -0.2200    0.3710 C   0  0  2  0  0  0  0  0  0  0  0  0
   -3.8200   -1.3180    0.3210 C   0  0  0  0  0  0  0  0  0  0  0  0
   -5.0720   -0.7090    0.3050 O   0  0  0  0  0  0  0  0  0  0  0  0
   -2.7580    0.5940   -0.8570 C   0  0  0  0  0  0  0  0  0  0  0  0
   -3.6170    0.6570   -1.6900 O   0  0  0  0  0  0  0  0  0  0  0  0
   -1.4680    1.3060   -0.8480 C   0  0  1  0  0  0  0  0  0  0  0  0
   -1.7020    2.5760   -0.2910 O   0  0  0  0  0  0  0  0  0  0  0  0
  1  2  1  0
  2  3  2  0
  2  7  1  0
  3  4  1  0
  4  5  2  0
  5  6  1  0
  6  7  2  0
  6 10  1  0
  7  8  1  0
  8  9  2  0
  9 10  1  0
 11 10  1  6
 11 12  1  0
 11 18  1  0
 12 13  1  0
 13 14  1  6
 13 16  1  0
 14 15  1  0
 16 17  2  0
 16 18  1  0
 18 19  1  1
M  END
