
     RDKit          3D

 20 20  0  0  0  0  0  0  0  0999 V2000
    6.6460    1.1700   -1.2330 C   0  0  0  0  0  0  0  0  0  0  0  0
    5.2780    1.4350   -0.9680 O   0  0  0  0  0  0  0  0  0  0  0  0
    4.5290    0.5050   -0.2500 C   0  0  0  0  0  0  0  0  0  0  0  0
    5.0630   -0.5640    0.1610 O   0  0  0  0  0  0  0  0  0  0  0  0
    3.1460    0.7230    0.0450 N   0  0  0  0  0  0  0  0  0  0  0  0
    2.3740   -0.2070    0.7700 C   0  0  0  0  0  0  0  0  0  0  0  0
    2.9130   -1.2570    1.1690 O   0  0  0  0  0  0  0  0  0  0  0  0
    0.9450   -0.0010    1.0850 C   0  0  1  0  0  0  0  0  0  0  0  0
    0.1040    0.1810   -0.1520 C   0  0  0  0  0  0  0  0  0  0  0  0
   -1.2740    0.0500    0.5310 C   0  0  1  0  0  0  0  0  0  0  0  0
   -1.3870    1.2190    1.3220 O   0  0  0  0  0  0  0  0  0  0  0  0
   -2.3990   -0.0480   -0.4060 C   0  0  2  0  0  0  0  0  0  0  0  0
   -2.5040    1.1430   -1.3350 C   0  0  0  0  0  0  0  0  0  0  0  0
   -2.6890    2.4080   -0.7560 N   0  0  0  0  0  0  0  0  0  0  0  0
   -3.7210   -0.0910    0.3490 C   0  0  0  0  0  0  0  0  0  0  0  0
   -4.7970   -0.1880   -0.5500 O   0  0  0  0  0  0  0  0  0  0  0  0
   -0.9700   -1.0720    1.4330 C   0  0  1  0  0  0  0  0  0  0  0  0
   -1.2780   -2.4610    1.0240 C   0  0  0  0  0  0  0  0  0  0  0  0
   -0.4740   -2.9630   -0.0740 N   0  0  0  0  0  0  0  0  0  0  0  0
    0.3710   -0.9980    1.7870 O   0  0  0  0  0  0  0  0  0  0  0  0
  1  2  1  0
  2  3  1  0
  3  4  2  0
  3  5  1  0
  5  6  1  0
  6  7  2  0
  8  6  1  6
  8  9  1  0
  8 20  1  0
  9 10  1  0
 10 11  1  1
 10 12  1  0
 10 17  1  0
 12 13  1  6
 12 15  1  0
 13 14  1  0
 15 16  1  0
 17 18  1  6
 17 20  1  0
 18 19  1  0
M  CHG  2  14   1  19   1
M  END
