
     RDKit          3D

 20 20  0  0  0  0  0  0  0  0999 V2000
   -1.9180   -2.4420   -1.1680 N   0  0  0  0  0  0  0  0  0  0  0  0
   -2.2240   -1.8540    0.0970 C   0  0  0  0  0  0  0  0  0  0  0  0
   -2.4610   -0.3730    0.0770 C   0  0  2  0  0  0  0  0  0  0  0  0
   -2.7430   -0.0210    1.4170 O   0  0  0  0  0  0  0  0  0  0  0  0
   -3.5780    0.0600   -0.7500 C   0  0  0  0  0  0  0  0  0  0  0  0
   -3.5910   -0.1940   -2.1130 O   0  0  0  0  0  0  0  0  0  0  0  0
   -4.5800    0.6830   -0.2600 N   0  0  0  0  0  0  0  0  0  0  0  0
   -4.6120    0.9560    1.0790 O   0  0  0  0  0  0  0  0  0  0  0  0
   -1.1880    0.3710   -0.2530 C   0  0  1  0  0  0  0  0  0  0  0  0
   -0.7190    0.1830   -1.5220 O   0  0  0  0  0  0  0  0  0  0  0  0
   -1.2730    1.8320    0.1120 C   0  0  0  0  0  0  0  0  0  0  0  0
    0.0720    2.1390    0.7460 C   0  0  0  0  0  0  0  0  0  0  0  0
    0.8670    0.9620    0.5700 N   0  0  1  0  0  0  0  0  0  0  0  0
    1.9520    0.8610    1.5210 C   0  0  0  0  0  0  0  0  0  0  0  0
    3.2240    1.2810    0.8270 C   0  0  0  0  0  0  0  0  0  0  0  0
    3.5270    0.5150   -0.2620 O   0  0  0  0  0  0  0  0  0  0  0  0
    3.7140   -0.8130    0.0270 C   0  0  0  0  0  0  0  0  0  0  0  0
    4.0740   -1.5260   -1.2840 C   0  0  0  0  0  0  0  0  0  0  0  0
    5.2380   -0.9400   -1.7630 O   0  0  0  0  0  0  0  0  0  0  0  0
   -0.1030   -0.1080    0.7180 C   0  0  0  0  0  0  0  0  0  0  0  0
  1  2  1  0
  2  3  1  0
  3  4  1  1
  3  5  1  0
  3  9  1  0
  5  6  1  0
  5  7  2  3
  7  8  1  0
  9 10  1  6
  9 11  1  0
  9 20  1  0
 11 12  1  0
 12 13  1  0
 13 14  1  1
 13 20  1  0
 14 15  1  0
 15 16  1  0
 16 17  1  0
 17 18  1  0
 18 19  1  0
M  CHG  2   1   1  13   1
M  END
