
     RDKit          3D

 18 19  0  0  0  0  0  0  0  0999 V2000
    1.4540   -1.4140   -1.8020 C   0  0  0  0  0  0  0  0  0  0  0  0
    2.4010   -0.7070   -0.9310 C   0  0  0  0  0  0  0  0  0  0  0  0
    3.7480   -0.7110   -0.9830 N   0  0  0  0  0  0  0  0  0  0  0  0
    4.2650    0.0620   -0.0120 C   0  0  0  0  0  0  0  0  0  0  0  0
    5.6570    0.3520    0.3100 C   0  0  0  0  0  0  0  0  0  0  0  0
    6.1260    1.6640    0.5830 N   0  0  0  0  0  0  0  0  0  0  0  0
    6.7070   -0.8970    0.3540 S   0  0  0  0  0  0  0  0  0  0  0  0
    3.2010    0.5560    0.6580 N   0  0  0  0  0  0  0  0  0  0  0  0
    2.0670    0.1110    0.1280 C   0  0  0  0  0  0  0  0  0  0  0  0
    0.7130    0.4260    0.5790 C   0  0  0  0  0  0  0  0  0  0  0  0
    0.5330    1.1890    1.5620 O   0  0  0  0  0  0  0  0  0  0  0  0
   -0.4150   -0.0780   -0.0260 O   0  0  0  0  0  0  0  0  0  0  0  0
   -1.7290    0.2010    0.3780 C   0  0  2  0  0  0  0  0  0  0  0  0
   -2.3830   -1.0650    0.8190 C   0  0  0  0  0  0  0  0  0  0  0  0
   -3.6790   -1.3570    0.1060 C   0  0  0  0  0  0  0  0  0  0  0  0
   -4.6360   -0.1900    0.1680 C   0  0  0  0  0  0  0  0  0  0  0  0
   -3.9350    1.1240   -0.0670 C   0  0  0  0  0  0  0  0  0  0  0  0
   -2.5430    0.9030   -0.6720 C   0  0  0  0  0  0  0  0  0  0  0  0
  1  2  1  0
  2  3  1  0
  2  9  2  0
  3  4  2  0
  4  5  1  0
  4  8  1  0
  5  6  1  0
  5  7  2  0
  8  9  1  0
  9 10  1  0
 10 11  2  0
 10 12  1  0
 13 12  1  6
 13 14  1  0
 13 18  1  0
 14 15  1  0
 15 16  1  0
 16 17  1  0
 17 18  1  0
M  END
