
     RDKit          3D

 19 19  0  0  0  0  0  0  0  0999 V2000
    0.8600    1.8370    0.5960 N   0  0  0  0  0  0  0  0  0  0  0  0
   -0.4930    1.7330    0.1980 C   0  0  0  0  0  0  0  0  0  0  0  0
   -1.2010    2.7640    0.3120 O   0  0  0  0  0  0  0  0  0  0  0  0
   -1.0280    0.4520   -0.3290 C   0  0  2  0  0  0  0  0  0  0  0  0
   -0.2600    0.0910   -1.5630 C   0  0  0  0  0  0  0  0  0  0  0  0
    1.1820   -0.0950   -1.4010 C   0  0  0  0  0  0  0  0  0  0  0  0
    1.9300    0.8910   -1.6240 O   0  0  0  0  0  0  0  0  0  0  0  0
    1.7950   -1.2670   -1.0230 O   0  0  0  0  0  0  0  0  0  0  0  0
    3.1330   -1.5510   -0.8380 C   0  0  0  0  0  0  0  0  0  0  0  0
    3.8720   -0.8050    0.2090 C   0  0  0  0  0  0  0  0  0  0  0  0
    3.8820    0.5610   -0.0090 O   0  0  0  0  0  0  0  0  0  0  0  0
    4.5540    1.2400    0.9350 N   0  0  0  0  0  0  0  0  0  0  0  0
   -2.4570    0.6480   -0.7710 C   0  0  0  0  0  0  0  0  0  0  0  0
   -3.4930   -0.0040    0.0670 C   0  0  1  0  0  0  0  0  0  0  0  0
   -3.8420   -1.3390   -0.3810 N   0  0  0  0  0  0  0  0  0  0  0  0
   -3.1990    0.0760    1.5210 C   0  0  0  0  0  0  0  0  0  0  0  0
   -1.7760   -0.1450    1.9090 C   0  0  0  0  0  0  0  0  0  0  0  0
   -0.8910   -0.5630    0.7750 C   0  0  1  0  0  0  0  0  0  0  0  0
   -1.0680   -1.8660    0.4120 O   0  0  0  0  0  0  0  0  0  0  0  0
  1  2  1  0
  2  3  2  0
  2  4  1  0
  4  5  1  6
  4 13  1  0
  4 18  1  0
  5  6  1  0
  6  7  2  0
  6  8  1  0
  8  9  1  0
  9 10  1  0
 10 11  1  0
 11 12  1  0
 13 14  1  0
 14 15  1  6
 14 16  1  0
 16 17  1  0
 17 18  1  0
 18 19  1  6
M  CHG  2  12   1  15   1
M  END
