
     RDKit          3D

 19 19  0  0  0  0  0  0  0  0999 V2000
   -0.2900   -0.9080    3.7800 C   0  0  0  0  0  0  0  0  0  0  0  0
    0.3090   -0.9610    2.5330 O   0  0  0  0  0  0  0  0  0  0  0  0
    0.1100    0.2560    1.8940 C   0  0  1  0  0  0  0  0  0  0  0  0
    1.3250    0.8410    1.6200 O   0  0  0  0  0  0  0  0  0  0  0  0
    1.8710    0.5970    0.3910 C   0  0  1  0  0  0  0  0  0  0  0  0
    2.2980   -0.8630    0.3630 C   0  0  2  0  0  0  0  0  0  0  0  0
    3.2360   -1.0820    1.3690 O   0  0  0  0  0  0  0  0  0  0  0  0
    3.0030   -1.1750   -0.9540 C   0  0  0  0  0  0  0  0  0  0  0  0
    2.1110   -0.9720   -1.9820 O   0  0  0  0  0  0  0  0  0  0  0  0
    1.0780    0.9230   -0.7310 O   0  0  0  0  0  0  0  0  0  0  0  0
   -0.3110    0.8980   -0.4660 C   0  0  0  0  0  0  0  0  0  0  0  0
   -1.2050    1.5700   -1.1350 C   0  0  0  0  0  0  0  0  0  0  0  0
   -0.6600    2.4150   -2.2620 C   0  0  1  0  0  0  0  0  0  0  0  0
   -1.4410    3.6370   -2.2820 N   0  0  0  0  0  0  0  0  0  0  0  0
    0.6620    2.7530   -1.9970 O   0  0  0  0  0  0  0  0  0  0  0  0
   -0.6880    0.0480    0.6360 C   0  0  0  0  0  0  0  0  0  0  0  0
   -1.6660   -0.8080    0.5170 C   0  0  0  0  0  0  0  0  0  0  0  0
   -2.5010   -1.1020   -0.6400 C   0  0  0  0  0  0  0  0  0  0  0  0
   -2.3180   -2.5580   -0.9070 N   0  0  0  0  0  0  0  0  0  0  0  0
  1  2  1  0
  3  2  1  6
  3  4  1  0
  3 16  1  0
  5  4  1  1
  5  6  1  0
  5 10  1  0
  6  7  1  1
  6  8  1  0
  8  9  1  0
 10 11  1  0
 11 12  2  3
 11 16  1  0
 12 13  1  0
 13 14  1  1
 13 15  1  0
 16 17  2  3
 17 18  1  0
 18 19  1  0
M  CHG  1  19   1
M  END
