
     RDKit          3D

 20 20  0  0  0  0  0  0  0  0999 V2000
    7.3960    0.8320    0.0180 N   0  0  0  0  0  0  0  0  0  0  0  0
    6.0570    0.4820    0.3940 C   0  0  0  0  0  0  0  0  0  0  0  0
    5.3990    1.2810    1.0770 O   0  0  0  0  0  0  0  0  0  0  0  0
    5.4860   -0.7210    0.0120 O   0  0  0  0  0  0  0  0  0  0  0  0
    4.1760   -1.0650    0.3770 C   0  0  0  0  0  0  0  0  0  0  0  0
    3.1340   -0.0990   -0.1470 C   0  0  0  0  0  0  0  0  0  0  0  0
    1.8580   -0.5020    0.2520 O   0  0  0  0  0  0  0  0  0  0  0  0
    0.8760    0.3470   -0.2010 C   0  0  0  0  0  0  0  0  0  0  0  0
   -0.4670   -0.1680    0.2790 C   0  0  1  0  0  0  0  0  0  0  0  0
   -0.3900   -0.1740    1.6920 O   0  0  0  0  0  0  0  0  0  0  0  0
   -1.6010    0.6950   -0.1980 C   0  0  0  0  0  0  0  0  0  0  0  0
   -2.8420   -0.0090   -0.5590 C   0  0  1  0  0  0  0  0  0  0  0  0
   -3.8510   -0.1430    0.5360 C   0  0  0  0  0  0  0  0  0  0  0  0
   -4.1860    1.0420    1.2520 N   0  0  0  0  0  0  0  0  0  0  0  0
   -3.5050    0.8020   -1.6810 C   0  0  0  0  0  0  0  0  0  0  0  0
   -3.7410    2.1070   -1.3340 O   0  0  0  0  0  0  0  0  0  0  0  0
   -2.6840   -1.2750   -1.0980 O   0  0  0  0  0  0  0  0  0  0  0  0
   -1.3910   -1.6030   -1.4230 C   0  0  0  0  0  0  0  0  0  0  0  0
   -0.5790   -1.6020   -0.1470 C   0  0  2  0  0  0  0  0  0  0  0  0
   -1.2050   -2.3940    0.8730 N   0  0  0  0  0  0  0  0  0  0  0  0
  1  2  1  0
  2  3  2  0
  2  4  1  0
  4  5  1  0
  5  6  1  0
  6  7  1  0
  7  8  1  0
  8  9  1  0
  9 10  1  1
  9 11  1  0
  9 19  1  0
 11 12  1  0
 12 13  1  1
 12 15  1  0
 12 17  1  0
 13 14  1  0
 15 16  1  0
 17 18  1  0
 18 19  1  0
 19 20  1  1
M  CHG  2  14   1  20   1
M  END
