
     RDKit          3D

 22 25  0  0  0  0  0  0  0  0999 V2000
   -1.8930   -1.5550    4.0690 O   0  0  0  0  0  0  0  0  0  0  0  0
   -1.9710   -1.0340    2.8960 C   0  0  0  0  0  0  0  0  0  0  0  0
   -2.9770   -1.4130    2.0280 O   0  0  0  0  0  0  0  0  0  0  0  0
   -2.9910   -0.7970    0.7670 C   0  0  0  0  0  0  0  0  0  0  0  0
   -3.9600   -1.1470   -0.0990 C   0  0  0  0  0  0  0  0  0  0  0  0
   -3.9900   -0.5630   -1.3210 O   0  0  0  0  0  0  0  0  0  0  0  0
   -3.0720    0.3950   -1.7590 C   0  0  0  0  0  0  0  0  0  0  0  0
   -2.0380    0.7400   -0.7790 C   0  0  0  0  0  0  0  0  0  0  0  0
   -1.9900    0.1790    0.4290 C   0  0  0  0  0  0  0  0  0  0  0  0
   -0.9350    0.5540    1.3830 C   0  0  2  0  0  0  0  0  0  0  0  0
    0.4260    0.4070    0.7570 C   0  0  0  0  0  0  0  0  0  0  0  0
    0.6700   -0.7360    0.0390 C   0  0  0  0  0  0  0  0  0  0  0  0
    1.9280   -0.9030   -0.5560 C   0  0  0  0  0  0  0  0  0  0  0  0
    2.8960    0.0820   -0.4100 C   0  0  0  0  0  0  0  0  0  0  0  0
    2.6520    1.2280    0.3100 C   0  0  0  0  0  0  0  0  0  0  0  0
    3.6390    2.1940    0.4380 O   0  0  0  0  0  0  0  0  0  0  0  0
    1.4040    1.3620    0.8840 C   0  0  0  0  0  0  0  0  0  0  0  0
    1.1350    2.5000    1.6090 O   0  0  0  0  0  0  0  0  0  0  0  0
    4.0370   -0.3220   -1.0870 O   0  0  0  0  0  0  0  0  0  0  0  0
    3.8730   -1.6560   -1.5180 C   0  0  0  0  0  0  0  0  0  0  0  0
    2.5080   -1.8970   -1.3290 O   0  0  0  0  0  0  0  0  0  0  0  0
   -1.0220   -0.1120    2.5820 O   0  0  0  0  0  0  0  0  0  0  0  0
  1  2  2  0
  2  3  1  0
  2 22  1  0
  3  4  1  0
  4  5  2  0
  4  9  1  0
  5  6  1  0
  6  7  1  0
  7  8  1  0
  8  9  2  0
  9 10  1  0
 10 11  1  6
 10 22  1  0
 11 12  2  0
 11 17  1  0
 12 13  1  0
 13 14  2  0
 13 21  1  0
 14 15  1  0
 14 19  1  0
 15 16  1  0
 15 17  2  0
 17 18  1  0
 19 20  1  0
 20 21  1  0
M  END
