
     RDKit          3D

 22 24  0  0  0  0  0  0  0  0999 V2000
   -3.2090    0.2560    1.1580 C   0  0  0  0  0  0  0  0  0  0  0  0
   -2.4570   -0.3360    0.2360 C   0  0  0  0  0  0  0  0  0  0  0  0
   -2.1370   -1.7810    0.2350 C   0  0  0  0  0  0  0  0  0  0  0  0
   -2.5240   -2.6150    1.0700 O   0  0  0  0  0  0  0  0  0  0  0  0
   -1.3360   -2.0230   -0.8590 O   0  0  0  0  0  0  0  0  0  0  0  0
   -0.7500   -0.7600   -1.2710 C   0  0  2  0  0  0  0  0  0  0  0  0
   -0.5670   -0.8340   -2.6440 O   0  0  0  0  0  0  0  0  0  0  0  0
    0.5060   -0.6290   -0.5130 C   0  0  0  0  0  0  0  0  0  0  0  0
    1.5210   -1.5800   -0.6420 C   0  0  0  0  0  0  0  0  0  0  0  0
    1.2890   -2.6200   -1.4990 O   0  0  0  0  0  0  0  0  0  0  0  0
    2.7000   -1.4770    0.0570 C   0  0  0  0  0  0  0  0  0  0  0  0
    3.7220   -2.4030   -0.0520 O   0  0  0  0  0  0  0  0  0  0  0  0
    2.9240   -0.4160    0.9230 C   0  0  0  0  0  0  0  0  0  0  0  0
    1.9460    0.5170    1.0600 C   0  0  0  0  0  0  0  0  0  0  0  0
    0.7450    0.4140    0.3490 C   0  0  0  0  0  0  0  0  0  0  0  0
   -0.2390    1.3770    0.5030 O   0  0  0  0  0  0  0  0  0  0  0  0
    2.3910    1.4670    1.9650 O   0  0  0  0  0  0  0  0  0  0  0  0
    3.7020    1.1150    2.4110 C   0  0  0  0  0  0  0  0  0  0  0  0
    4.0230   -0.0890    1.7370 O   0  0  0  0  0  0  0  0  0  0  0  0
   -1.7940    0.2240   -0.9190 C   0  0  0  0  0  0  0  0  0  0  0  0
   -2.0610    1.3260   -1.5340 C   0  0  0  0  0  0  0  0  0  0  0  0
   -3.1200    2.3000   -1.2130 C   0  0  0  0  0  0  0  0  0  0  0  0
  1  2  2  0
  2  3  1  0
  2 20  1  0
  3  4  2  0
  3  5  1  0
  5  6  1  0
  6  7  1  6
  6  8  1  0
  6 20  1  0
  8  9  2  0
  8 15  1  0
  9 10  1  0
  9 11  1  0
 11 12  1  0
 11 13  2  0
 13 14  1  0
 13 19  1  0
 14 15  2  0
 14 17  1  0
 15 16  1  0
 17 18  1  0
 18 19  1  0
 20 21  2  3
 21 22  1  0
M  END
