
     RDKit          3D

 21 21  0  0  0  0  0  0  0  0999 V2000
   -0.8420   -0.5600    0.7590 O   0  0  0  0  0  0  0  0  0  0  0  0
   -1.0110    0.3880   -0.0250 C   0  0  0  0  0  0  0  0  0  0  0  0
   -2.3360    0.7790   -0.3290 N   0  0  0  0  0  0  0  0  0  0  0  0
   -3.4610    0.1640    0.2570 C   0  0  0  0  0  0  0  0  0  0  0  0
   -3.7260   -1.2950    0.1240 C   0  0  0  0  0  0  0  0  0  0  0  0
   -4.9140   -1.4370    0.9180 O   0  0  0  0  0  0  0  0  0  0  0  0
   -6.2330   -0.6990    0.0250 P   0  0  0  0  0  0  0  0  0  0  0  0
   -6.6330    0.8140    0.8220 O   0  0  0  0  0  0  0  0  0  0  0  0
   -7.6050   -1.6990   -0.1130 O   0  0  0  0  0  0  0  0  0  0  0  0
    0.1260    1.0440   -0.5710 N   0  0  0  0  0  0  0  0  0  0  0  0
    1.4660    0.6350   -0.2380 C   0  0  2  0  0  0  0  0  0  0  0  0
    1.5770   -0.8670   -0.1940 C   0  0  0  0  0  0  0  0  0  0  0  0
    2.7450   -1.3720   -0.6260 O   0  0  0  0  0  0  0  0  0  0  0  0
    3.7260   -0.5340   -1.1010 C   0  0  0  0  0  0  0  0  0  0  0  0
    4.4140    0.2580   -0.0190 C   0  0  1  0  0  0  0  0  0  0  0  0
    4.8410   -0.7020    0.9270 O   0  0  0  0  0  0  0  0  0  0  0  0
    5.5190    0.8550   -0.6100 O   0  0  0  0  0  0  0  0  0  0  0  0
    6.3450   -0.0470   -1.1080 O   0  0  0  0  0  0  0  0  0  0  0  0
    3.5770    1.2330    0.6750 C   0  0  0  0  0  0  0  0  0  0  0  0
    4.1160    2.2580    1.1130 O   0  0  0  0  0  0  0  0  0  0  0  0
    2.0940    1.2040    0.9700 C   0  0  0  0  0  0  0  0  0  0  0  0
  1  2  2  0
  2  3  1  0
  2 10  1  0
  3  4  1  0
  4  5  1  0
  5  6  1  0
  6  7  1  0
  7  8  1  0
  7  9  1  0
 11 10  1  1
 11 12  1  0
 11 21  1  0
 12 13  1  0
 13 14  1  0
 14 15  1  0
 15 16  1  1
 15 17  1  0
 15 19  1  0
 17 18  1  0
 19 20  2  0
 19 21  1  0
M  END
