
     RDKit          3D

 20 21  0  0  0  0  0  0  0  0999 V2000
   -2.5550   -1.9150   -2.5140 O   0  0  0  0  0  0  0  0  0  0  0  0
   -3.0060   -1.1950   -1.5500 C   0  0  0  0  0  0  0  0  0  0  0  0
   -4.4060   -1.0410   -1.3930 N   0  0  0  0  0  0  0  0  0  0  0  0
   -4.9100   -0.8890   -0.0390 C   0  0  0  0  0  0  0  0  0  0  0  0
   -4.1590    0.2410    0.5740 C   0  0  2  0  0  0  0  0  0  0  0  0
   -4.6030    1.4480    0.0390 O   0  0  0  0  0  0  0  0  0  0  0  0
   -2.6550    0.1040    0.5150 C   0  0  0  0  0  0  0  0  0  0  0  0
   -2.1240   -0.5510   -0.6380 N   0  0  0  0  0  0  0  0  0  0  0  0
   -0.7550   -0.5950   -0.9000 C   0  0  0  0  0  0  0  0  0  0  0  0
   -0.4250   -1.2100   -2.0010 O   0  0  0  0  0  0  0  0  0  0  0  0
    0.3800   -0.0630   -0.1420 C   0  0  0  0  0  0  0  0  0  0  0  0
    0.4140    0.5830    0.9840 C   0  0  0  0  0  0  0  0  0  0  0  0
    1.7440    0.8940    1.3260 O   0  0  0  0  0  0  0  0  0  0  0  0
    2.4400    0.8270    0.0980 C   0  0  1  0  0  0  0  0  0  0  0  0
    3.8560    0.3900    0.3950 C   0  0  0  0  0  0  0  0  0  0  0  0
    4.6180    0.2980   -0.7730 O   0  0  0  0  0  0  0  0  0  0  0  0
    6.2200   -0.2070   -0.3360 P   0  0  0  0  0  0  0  0  0  0  0  0
    7.2820    1.1390   -0.1000 O   0  0  0  0  0  0  0  0  0  0  0  0
    6.1190   -1.1300    1.1440 O   0  0  0  0  0  0  0  0  0  0  0  0
    1.7310   -0.2060   -0.5980 O   0  0  0  0  0  0  0  0  0  0  0  0
  1  2  2  0
  2  3  1  0
  2  8  1  0
  3  4  1  0
  4  5  1  0
  5  6  1  6
  5  7  1  0
  7  8  1  0
  8  9  1  0
  9 10  2  0
  9 11  1  0
 11 12  2  0
 11 20  1  0
 12 13  1  0
 13 14  1  0
 14 15  1  1
 14 20  1  0
 15 16  1  0
 16 17  1  0
 17 18  1  0
 17 19  1  0
M  END
