
     RDKit          3D

 21 22  0  0  0  0  0  0  0  0999 V2000
    5.8640   -1.8080    0.1240 O   0  0  0  0  0  0  0  0  0  0  0  0
    5.6660   -0.2730    0.2420 P   0  0  0  0  0  0  0  0  0  0  0  0
    4.1630    0.3850   -0.3700 O   0  0  0  0  0  0  0  0  0  0  0  0
    3.5380    0.9670    0.7640 C   0  0  0  0  0  0  0  0  0  0  0  0
    2.2600    1.6210    0.3940 C   0  0  0  0  0  0  0  0  0  0  0  0
    1.2610    0.6990   -0.1070 N   0  0  0  0  0  0  0  0  0  0  0  0
    1.2290    0.3940   -1.4770 C   0  0  0  0  0  0  0  0  0  0  0  0
    2.1300    0.8330   -2.2840 O   0  0  0  0  0  0  0  0  0  0  0  0
    0.1950   -0.4040   -1.9640 O   0  0  0  0  0  0  0  0  0  0  0  0
   -0.7890   -0.8830   -1.1190 C   0  0  0  0  0  0  0  0  0  0  0  0
   -1.5750   -1.7120   -1.6530 O   0  0  0  0  0  0  0  0  0  0  0  0
   -0.9370   -0.4670    0.3010 C   0  0  2  0  0  0  0  0  0  0  0  0
   -1.3410   -1.7060    1.0450 C   0  0  0  0  0  0  0  0  0  0  0  0
   -2.6750   -1.8310    0.6050 O   0  0  0  0  0  0  0  0  0  0  0  0
   -3.1970   -0.5330    0.7790 C   0  0  2  0  0  0  0  0  0  0  0  0
   -4.1780   -0.2080   -0.2700 C   0  0  0  0  0  0  0  0  0  0  0  0
   -4.3030   -0.7460   -1.4210 O   0  0  0  0  0  0  0  0  0  0  0  0
   -5.1070    0.8650    0.0130 O   0  0  0  0  0  0  0  0  0  0  0  0
   -2.0920    0.3420    0.5720 N   0  0  0  0  0  0  0  0  0  0  0  0
    0.2810    0.2120    0.7950 C   0  0  0  0  0  0  0  0  0  0  0  0
    0.4070    0.3390    2.0160 O   0  0  0  0  0  0  0  0  0  0  0  0
  1  2  2  0
  2  3  1  0
  3  4  1  0
  4  5  1  0
  5  6  1  0
  6  7  1  0
  6 20  1  0
  7  8  2  0
  7  9  1  0
  9 10  1  0
 10 11  2  0
 10 12  1  0
 12 13  1  1
 12 19  1  0
 12 20  1  0
 13 14  1  0
 14 15  1  0
 15 16  1  6
 15 19  1  0
 16 17  2  0
 16 18  1  0
 20 21  2  0
M  END
