
     RDKit          3D

 20 21  0  0  0  0  0  0  0  0999 V2000
   -5.7740    1.8980    0.7130 O   0  0  0  0  0  0  0  0  0  0  0  0
   -5.0510    1.0040    0.1910 C   0  0  0  0  0  0  0  0  0  0  0  0
   -5.3940    0.1720   -0.8980 N   0  0  0  0  0  0  0  0  0  0  0  0
   -4.3380   -0.8220   -1.0660 C   0  0  0  0  0  0  0  0  0  0  0  0
   -3.5230   -0.6300    0.1730 C   0  0  1  0  0  0  0  0  0  0  0  0
   -2.0550   -0.8130   -0.1110 C   0  0  0  0  0  0  0  0  0  0  0  0
   -1.7050   -1.9420   -0.5080 O   0  0  0  0  0  0  0  0  0  0  0  0
   -1.1390    0.1920    0.0520 O   0  0  0  0  0  0  0  0  0  0  0  0
    0.2290   -0.0160   -0.2240 C   0  0  1  0  0  0  0  0  0  0  0  0
    0.7660    0.9120   -1.2300 C   0  0  0  0  0  0  0  0  0  0  0  0
    0.1420    1.5630   -2.0080 O   0  0  0  0  0  0  0  0  0  0  0  0
    2.2250    0.8580   -1.0650 C   0  0  0  0  0  0  0  0  0  0  0  0
    2.3700    0.6380    0.3620 N   0  0  0  0  0  0  0  0  0  0  0  0
    3.6270    0.7950    1.0660 C   0  0  0  0  0  0  0  0  0  0  0  0
    4.5920   -0.8030    1.0950 P   0  0  0  0  0  0  0  0  0  0  0  0
    5.4440   -1.0450   -0.3950 O   0  0  0  0  0  0  0  0  0  0  0  0
    5.7130   -0.7350    2.4180 O   0  0  0  0  0  0  0  0  0  0  0  0
    1.1000    0.2510    0.9300 C   0  0  0  0  0  0  0  0  0  0  0  0
    0.9080    0.1930    2.1580 O   0  0  0  0  0  0  0  0  0  0  0  0
   -3.7800    0.6910    0.6140 O   0  0  0  0  0  0  0  0  0  0  0  0
  1  2  2  0
  2  3  1  0
  2 20  1  0
  3  4  1  0
  4  5  1  0
  5  6  1  6
  5 20  1  0
  6  7  2  0
  6  8  1  0
  9  8  1  1
  9 10  1  0
  9 18  1  0
 10 11  2  0
 10 12  1  0
 12 13  1  0
 13 14  1  0
 13 18  1  0
 14 15  1  0
 15 16  1  0
 15 17  1  0
 18 19  2  0
M  END
