
     RDKit          3D

 21 22  0  0  0  0  0  0  0  0999 V2000
    1.3190   -1.6290   -0.8920 O   0  0  0  0  0  0  0  0  0  0  0  0
    0.6220   -1.3210    0.1040 C   0  0  0  0  0  0  0  0  0  0  0  0
    1.2610   -1.3100    1.3360 O   0  0  0  0  0  0  0  0  0  0  0  0
    2.6160   -1.6170    1.5200 C   0  0  0  0  0  0  0  0  0  0  0  0
    3.5450   -0.7200    0.7730 C   0  0  0  0  0  0  0  0  0  0  0  0
    3.4110    0.6200    1.1480 O   0  0  0  0  0  0  0  0  0  0  0  0
    4.4840    1.6450    0.2840 P   0  0  0  0  0  0  0  0  0  0  0  0
    5.0010    0.9540   -1.2210 O   0  0  0  0  0  0  0  0  0  0  0  0
    5.8720    2.0940    1.2220 O   0  0  0  0  0  0  0  0  0  0  0  0
   -0.7490   -1.0070   -0.0610 N   0  0  0  0  0  0  0  0  0  0  0  0
   -1.3130   -1.0510   -1.3910 C   0  0  0  0  0  0  0  0  0  0  0  0
   -1.7680    0.3420   -1.7450 C   0  0  0  0  0  0  0  0  0  0  0  0
   -2.5550    0.9610   -0.6430 C   0  0  1  0  0  0  0  0  0  0  0  0
   -3.7470    1.5190   -1.0320 O   0  0  0  0  0  0  0  0  0  0  0  0
   -4.0820    2.4600   -0.1750 O   0  0  0  0  0  0  0  0  0  0  0  0
   -4.1610    1.9840    1.0900 N   0  0  0  0  0  0  0  0  0  0  0  0
   -3.6360    0.7320    1.4750 C   0  0  0  0  0  0  0  0  0  0  0  0
   -3.8190    0.3010    2.6220 O   0  0  0  0  0  0  0  0  0  0  0  0
   -2.8710   -0.0390    0.4790 C   0  0  1  0  0  0  0  0  0  0  0  0
   -3.7480   -1.0340   -0.0140 O   0  0  0  0  0  0  0  0  0  0  0  0
   -1.6140   -0.6460    1.0280 C   0  0  0  0  0  0  0  0  0  0  0  0
  1  2  2  0
  2  3  1  0
  2 10  1  0
  3  4  1  0
  4  5  1  0
  5  6  1  0
  6  7  1  0
  7  8  1  0
  7  9  1  0
 10 11  1  0
 10 21  1  0
 11 12  1  0
 13 12  1  6
 13 14  1  0
 13 19  1  0
 14 15  1  0
 15 16  1  0
 16 17  1  0
 17 18  2  0
 17 19  1  0
 19 20  1  6
 19 21  1  0
M  END
