
     RDKit          3D

 20 21  0  0  0  0  0  0  0  0999 V2000
   -2.9770   -3.1850    0.3560 N   0  0  0  0  0  0  0  0  0  0  0  0
   -2.9150   -1.9070    0.3320 C   0  0  0  0  0  0  0  0  0  0  0  0
   -1.5940   -1.3290    0.3520 N   0  0  0  0  0  0  0  0  0  0  0  0
   -1.2420   -0.0950    0.4710 C   0  0  0  0  0  0  0  0  0  0  0  0
    0.2050    0.1980    0.4580 C   0  0  0  0  0  0  0  0  0  0  0  0
    0.7340    1.4040    0.5690 C   0  0  0  0  0  0  0  0  0  0  0  0
    2.1240    1.3350    0.5190 O   0  0  0  0  0  0  0  0  0  0  0  0
    2.4600   -0.0270    0.6840 C   0  0  2  0  0  0  0  0  0  0  0  0
    3.6180   -0.4550   -0.1800 C   0  0  0  0  0  0  0  0  0  0  0  0
    4.7450    0.2950    0.1350 O   0  0  0  0  0  0  0  0  0  0  0  0
    6.1130   -0.1320   -0.8070 P   0  0  0  0  0  0  0  0  0  0  0  0
    6.9800    1.2430   -1.3960 O   0  0  0  0  0  0  0  0  0  0  0  0
    7.1940   -1.0640    0.1810 O   0  0  0  0  0  0  0  0  0  0  0  0
    1.2570   -0.6810    0.3330 O   0  0  0  0  0  0  0  0  0  0  0  0
   -2.1070    0.9670    0.6100 O   0  0  0  0  0  0  0  0  0  0  0  0
   -3.4820    1.1470    0.6470 C   0  0  0  0  0  0  0  0  0  0  0  0
   -4.2720    0.1430   -0.1400 C   0  0  1  0  0  0  0  0  0  0  0  0
   -3.9970    0.2250   -1.6280 C   0  0  0  0  0  0  0  0  0  0  0  0
   -4.1570    1.4950   -2.1260 O   0  0  0  0  0  0  0  0  0  0  0  0
   -4.0880   -1.1750    0.2880 O   0  0  0  0  0  0  0  0  0  0  0  0
  1  2  2  0
  2  3  1  0
  2 20  1  0
  3  4  2  0
  4  5  1  0
  4 15  1  0
  5  6  2  0
  5 14  1  0
  6  7  1  0
  7  8  1  0
  8  9  1  6
  8 14  1  0
  9 10  1  0
 10 11  1  0
 11 12  1  0
 11 13  1  0
 15 16  1  0
 16 17  1  0
 17 18  1  6
 17 20  1  0
 18 19  1  0
M  END
