
     RDKit          3D

 29 30  0  0  0  0  0  0  0  0999 V2000
   -7.7160    1.2120    2.9320 C   0  0  0  0  0  0  0  0  0  0  0  0
   -7.6390    0.4090    1.6880 C   0  0  0  0  0  0  0  0  0  0  0  0
   -6.6440    0.2490    0.7790 C   0  0  0  0  0  0  0  0  0  0  0  0
   -6.8090   -0.5380   -0.2840 C   0  0  0  0  0  0  0  0  0  0  0  0
   -5.8300   -0.7920   -1.3220 N   0  0  0  0  0  0  0  0  0  0  0  0
   -4.5410   -0.2390   -1.3660 C   0  0  0  0  0  0  0  0  0  0  0  0
   -4.1310    0.5350   -0.4870 O   0  0  0  0  0  0  0  0  0  0  0  0
   -3.5860   -0.5630   -2.4930 C   0  0  0  0  0  0  0  0  0  0  0  0
   -2.3620    0.0990   -2.3100 O   0  0  0  0  0  0  0  0  0  0  0  0
   -1.5730   -0.1150   -1.2040 C   0  0  0  0  0  0  0  0  0  0  0  0
   -1.9610   -0.9310   -0.3300 O   0  0  0  0  0  0  0  0  0  0  0  0
   -0.3000    0.6350   -1.1040 C   0  0  0  0  0  0  0  0  0  0  0  0
    0.3810    0.2730    0.1220 N   0  0  0  0  0  0  0  0  0  0  0  0
    1.6330    0.8510    0.4630 C   0  0  0  0  0  0  0  0  0  0  0  0
    2.1130    1.6850   -0.3490 O   0  0  0  0  0  0  0  0  0  0  0  0
    2.3520    0.5020    1.7090 C   0  0  0  0  0  0  0  0  0  0  0  0
    3.6520    1.2420    1.8430 C   0  0  0  0  0  0  0  0  0  0  0  0
    4.5900    0.9590    0.7270 C   0  0  0  0  0  0  0  0  0  0  0  0
    4.9760    1.9580    0.0070 N   0  0  0  0  0  0  0  0  0  0  0  0
    5.8710    1.7460   -1.0720 C   0  0  0  0  0  0  0  0  0  0  0  0
    6.3290    0.5550   -1.3710 C   0  0  0  0  0  0  0  0  0  0  0  0
    5.9430   -0.6310   -0.6080 C   0  0  1  0  0  0  0  0  0  0  0  0
    7.1690   -1.4130   -0.1430 C   0  0  0  0  0  0  0  0  0  0  0  0
    8.0480   -0.5730    0.7370 C   0  0  0  0  0  0  0  0  0  0  0  0
    9.1370   -1.3700    1.1100 O   0  0  0  0  0  0  0  0  0  0  0  0
    5.0510   -0.3500    0.4520 N   0  0  0  0  0  0  0  0  0  0  0  0
   -8.0420   -1.1720   -0.3970 C   0  0  0  0  0  0  0  0  0  0  0  0
   -8.5390   -2.1010   -1.4470 C   0  0  0  0  0  0  0  0  0  0  0  0
   -8.9580   -0.6350    1.0190 S   0  0  0  0  0  0  0  0  0  0  0  0
  1  2  1  0
  2  3  2  0
  2 29  1  0
  3  4  1  0
  4  5  1  0
  4 27  2  0
  5  6  1  0
  6  7  2  0
  6  8  1  0
  8  9  1  0
  9 10  1  0
 10 11  2  0
 10 12  1  0
 12 13  1  0
 13 14  1  0
 14 15  2  0
 14 16  1  0
 16 17  1  0
 17 18  1  0
 18 19  2  0
 18 26  1  0
 19 20  1  0
 20 21  2  0
 21 22  1  0
 22 23  1  1
 22 26  1  0
 23 24  1  0
 24 25  1  0
 27 28  1  0
 27 29  1  0
M  CHG  1  19   1
M  END
