
     RDKit          3D

 30 31  0  0  0  0  0  0  0  0999 V2000
    6.1460    1.2230    2.9670 C   0  0  0  0  0  0  0  0  0  0  0  0
    5.3230    1.2040    1.9510 O   0  0  0  0  0  0  0  0  0  0  0  0
    4.7020    1.1760    0.8160 C   0  0  0  0  0  0  0  0  0  0  0  0
    5.3800    1.1120   -0.4010 C   0  0  0  0  0  0  0  0  0  0  0  0
    4.7430    1.0860   -1.5930 C   0  0  0  0  0  0  0  0  0  0  0  0
    3.3780    1.1170   -1.6390 C   0  0  0  0  0  0  0  0  0  0  0  0
    2.6590    1.1790   -0.4510 C   0  0  0  0  0  0  0  0  0  0  0  0
    3.2800    1.2110    0.7480 C   0  0  0  0  0  0  0  0  0  0  0  0
    2.5740    1.3270    2.0210 C   0  0  0  0  0  0  0  0  0  0  0  0
    1.1890    1.2990    1.9890 O   0  0  0  0  0  0  0  0  0  0  0  0
    0.3530    0.2970    1.5750 C   0  0  0  0  0  0  0  0  0  0  0  0
    0.8670   -0.7650    1.1660 O   0  0  0  0  0  0  0  0  0  0  0  0
   -1.1260    0.4360    1.6020 C   0  0  0  0  0  0  0  0  0  0  0  0
   -1.6290    1.5110    1.9450 O   0  0  0  0  0  0  0  0  0  0  0  0
   -1.9660   -0.6360    1.2430 N   0  0  0  0  0  0  0  0  0  0  0  0
   -3.3600   -0.7370    1.1780 C   0  0  0  0  0  0  0  0  0  0  0  0
   -3.9520   -2.3790    0.6060 S   0  0  0  0  0  0  0  0  0  0  0  0
   -3.2100   -2.9550   -0.8820 C   0  0  2  0  0  0  0  0  0  0  0  0
   -1.7520   -3.2570   -0.7900 C   0  0  0  0  0  0  0  0  0  0  0  0
   -3.4480   -1.9530   -2.0280 C   0  0  0  0  0  0  0  0  0  0  0  0
   -4.8920   -1.7870   -2.2260 N   0  0  0  0  0  0  0  0  0  0  0  0
   -4.2760    0.0970    1.4180 C   0  0  0  0  0  0  0  0  0  0  0  0
   -4.2950    1.4750    1.8510 C   0  0  0  0  0  0  0  0  0  0  0  0
   -4.3090    2.5570    2.2120 N   0  0  0  0  0  0  0  0  0  0  0  0
   -5.7130   -0.4000    1.1660 C   0  0  0  0  0  0  0  0  0  0  0  0
   -6.5070   -0.3870    2.3420 N   0  0  0  0  0  0  0  0  0  0  0  0
    2.7200    1.0860   -2.8510 O   0  0  0  0  0  0  0  0  0  0  0  0
    3.3460    1.1680   -4.0810 C   0  0  0  0  0  0  0  0  0  0  0  0
    4.8170    1.1150   -4.0030 C   0  0  0  0  0  0  0  0  0  0  0  0
    5.4670    1.0800   -2.8630 C   0  0  0  0  0  0  0  0  0  0  0  0
  1  2  1  0
  2  3  1  0
  3  4  2  0
  3  8  1  0
  4  5  1  0
  5  6  2  0
  5 30  1  0
  6  7  1  0
  6 27  1  0
  7  8  2  0
  8  9  1  0
  9 10  1  0
 10 11  1  0
 11 12  2  0
 11 13  1  0
 13 14  2  0
 13 15  1  0
 15 16  1  0
 16 17  1  0
 16 22  2  3
 17 18  1  0
 18 19  1  1
 18 20  1  0
 20 21  1  0
 22 23  1  0
 22 25  1  0
 23 24  3  0
 25 26  1  0
 27 28  1  0
 28 29  1  0
 29 30  2  0
M  CHG  1  26   1
M  END
