
     RDKit          3D

 30 30  0  0  0  0  0  0  0  0999 V2000
    2.2090    2.6810    4.5570 C   0  0  0  0  0  0  0  0  0  0  0  0
    2.0130    2.4820    3.1660 N   0  0  0  0  0  0  0  0  0  0  0  0
    0.8610    1.9040    2.5090 C   0  0  0  0  0  0  0  0  0  0  0  0
   -0.1220    1.6240    3.2660 O   0  0  0  0  0  0  0  0  0  0  0  0
    0.9150    1.7090    1.0700 C   0  0  2  0  0  0  0  0  0  0  0  0
    0.9590    3.0420    0.3690 C   0  0  0  0  0  0  0  0  0  0  0  0
   -0.0190    0.6960    0.4980 C   0  0  2  0  0  0  0  0  0  0  0  0
    0.3340    0.3890   -1.0130 C   0  0  0  0  0  0  0  0  0  0  0  0
   -0.5250   -0.7160   -1.4220 C   0  0  0  0  0  0  0  0  0  0  0  0
   -0.3410   -1.2780   -2.7270 N   0  0  0  0  0  0  0  0  0  0  0  0
   -1.5950   -1.9230   -3.0900 C   0  0  0  0  0  0  0  0  0  0  0  0
   -1.3750   -3.1350   -3.9210 C   0  0  0  0  0  0  0  0  0  0  0  0
   -0.7390   -4.1560   -3.2180 O   0  0  0  0  0  0  0  0  0  0  0  0
   -0.1090   -3.5660   -2.0650 C   0  0  0  0  0  0  0  0  0  0  0  0
    0.6650   -2.3880   -2.6310 C   0  0  0  0  0  0  0  0  0  0  0  0
   -1.4200    1.1270    0.5110 N   0  0  0  0  0  0  0  0  0  0  0  0
   -1.7490    2.0260   -0.5540 C   0  0  0  0  0  0  0  0  0  0  0  0
   -2.9610    2.8680   -0.2000 C   0  0  2  0  0  0  0  0  0  0  0  0
   -4.1790    2.0180   -0.0530 C   0  0  0  0  0  0  0  0  0  0  0  0
   -3.1790    3.8010   -1.4030 C   0  0  0  0  0  0  0  0  0  0  0  0
   -2.7760    3.7150    1.0410 C   0  0  0  0  0  0  0  0  0  0  0  0
    0.0150   -0.6090    1.1270 C   0  0  0  0  0  0  0  0  0  0  0  0
   -0.6350   -1.4860    1.4210 O   0  0  0  0  0  0  0  0  0  0  0  0
    1.7180   -0.9660    1.6080 N   0  0  0  0  0  0  0  0  0  0  0  0
    1.6510   -2.3360    1.4570 C   0  0  0  0  0  0  0  0  0  0  0  0
    0.8940   -3.1570    1.0080 O   0  0  0  0  0  0  0  0  0  0  0  0
    2.9310   -2.9410    1.9670 N   0  0  0  0  0  0  0  0  0  0  0  0
    3.2500   -4.2650    1.5290 C   0  0  0  0  0  0  0  0  0  0  0  0
    3.7580   -3.9210    0.0620 C   0  0  0  0  0  0  0  0  0  0  0  0
    4.0930   -4.9310   -0.6870 O   0  0  0  0  0  0  0  0  0  0  0  0
  1  2  1  0
  2  3  1  0
  3  4  2  0
  3  5  1  0
  5  6  1  6
  5  7  1  0
  7  8  1  6
  7 16  1  0
  7 22  1  0
  8  9  1  0
  9 10  1  0
 10 11  1  0
 10 15  1  0
 11 12  1  0
 12 13  1  0
 13 14  1  0
 14 15  1  0
 16 17  1  0
 17 18  1  0
 18 19  1  1
 18 20  1  0
 18 21  1  0
 22 23  2  0
 22 24  1  0
 24 25  1  0
 25 26  2  0
 25 27  1  0
 27 28  1  0
 28 29  1  0
 29 30  1  0
M  CHG  1  16   1
M  END
