
     RDKit          3D

 34 37  0  0  0  0  0  0  0  0999 V2000
    8.7690   -1.8980   -0.7970 C   0  0  0  0  0  0  0  0  0  0  0  0
    7.6700   -0.8600   -0.6940 C   0  0  0  0  0  0  0  0  0  0  0  0
    6.5490   -1.2710    0.1940 C   0  0  2  0  0  0  0  0  0  0  0  0
    6.9510   -1.5590    1.6180 C   0  0  0  0  0  0  0  0  0  0  0  0
    5.9480   -2.5500   -0.3030 N   0  0  0  0  0  0  0  0  0  0  0  0
    5.4640   -0.2560    0.1490 C   0  0  0  0  0  0  0  0  0  0  0  0
    5.6030    1.0570    0.2660 N   0  0  0  0  0  0  0  0  0  0  0  0
    4.3940    1.5740    0.2070 O   0  0  0  0  0  0  0  0  0  0  0  0
    3.5000    0.6670    0.0590 C   0  0  0  0  0  0  0  0  0  0  0  0
    2.0500    0.7870   -0.0400 C   0  0  0  0  0  0  0  0  0  0  0  0
    1.2650   -0.3260   -0.2350 C   0  0  0  0  0  0  0  0  0  0  0  0
   -0.1260   -0.2320   -0.2420 C   0  0  0  0  0  0  0  0  0  0  0  0
   -0.6980    0.9720   -0.0570 C   0  0  0  0  0  0  0  0  0  0  0  0
   -2.1610    1.2010    0.0350 N   0  0  0  0  0  0  0  0  0  0  0  0
   -2.9030    0.0240    0.2130 C   0  0  0  0  0  0  0  0  0  0  0  0
   -4.3810    0.0610    0.2140 C   0  0  0  0  0  0  0  0  0  0  0  0
   -4.8910   -1.3300    0.5400 C   0  0  0  0  0  0  0  0  0  0  0  0
   -5.5620   -2.0420   -0.3170 C   0  0  0  0  0  0  0  0  0  0  0  0
   -6.0700   -3.4070   -0.0230 C   0  0  2  0  0  0  0  0  0  0  0  0
   -7.5270   -3.5470   -0.3460 C   0  0  0  0  0  0  0  0  0  0  0  0
   -5.8250   -3.7860    1.3480 N   0  0  0  0  0  0  0  0  0  0  0  0
   -5.1060   -2.9990    2.2260 N   0  0  0  0  0  0  0  0  0  0  0  0
   -4.6380   -1.8140    1.8880 C   0  0  0  0  0  0  0  0  0  0  0  0
   -3.7870   -0.9160    3.1110 Cl  0  0  0  0  0  0  0  0  0  0  0  0
   -2.5560    2.5310   -0.0490 C   0  0  0  0  0  0  0  0  0  0  0  0
   -2.1250    3.3880    0.9750 C   0  0  0  0  0  0  0  0  0  0  0  0
   -2.3500    4.7400    0.9510 C   0  0  0  0  0  0  0  0  0  0  0  0
   -3.0220    5.2700   -0.1230 C   0  0  0  0  0  0  0  0  0  0  0  0
   -3.2390    6.6730   -0.1900 N   0  0  0  0  0  0  0  0  0  0  0  0
   -3.4630    4.4580   -1.1510 C   0  0  0  0  0  0  0  0  0  0  0  0
   -3.2190    3.0820   -1.0920 C   0  0  0  0  0  0  0  0  0  0  0  0
    0.0810    2.0640    0.1310 N   0  0  0  0  0  0  0  0  0  0  0  0
    1.4260    1.9880    0.1440 C   0  0  0  0  0  0  0  0  0  0  0  0
    4.1690   -0.5230    0.0170 N   0  0  0  0  0  0  0  0  0  0  0  0
  1  2  1  0
  2  3  1  0
  3  4  1  1
  3  5  1  0
  3  6  1  0
  6  7  2  0
  6 34  1  0
  7  8  1  0
  8  9  1  0
  9 10  1  0
  9 34  2  0
 10 11  2  0
 10 33  1  0
 11 12  1  0
 12 13  2  0
 13 14  1  0
 13 32  1  0
 14 15  1  0
 14 25  1  0
 15 16  1  0
 16 17  1  0
 17 18  2  0
 17 23  1  0
 18 19  1  0
 19 20  1  1
 19 21  1  0
 21 22  1  0
 22 23  2  0
 23 24  1  0
 25 26  2  0
 25 31  1  0
 26 27  1  0
 27 28  2  0
 28 29  1  0
 28 30  1  0
 30 31  2  0
 32 33  2  0
M  CHG  1   5   1
M  END
