
     RDKit          3D

 34 37  0  0  0  0  0  0  0  0999 V2000
    9.1500    2.2690    1.5650 C   0  0  0  0  0  0  0  0  0  0  0  0
    9.3540    1.3890    0.3610 C   0  0  0  0  0  0  0  0  0  0  0  0
    8.5080    0.2500    0.3170 N   0  0  0  0  0  0  0  0  0  0  0  0
    7.1050    0.5200    0.1080 C   0  0  0  0  0  0  0  0  0  0  0  0
    6.8750    1.0490   -1.2830 C   0  0  0  0  0  0  0  0  0  0  0  0
    5.4780    1.3000   -1.4800 N   0  0  0  0  0  0  0  0  0  0  0  0
    4.5200    0.2780   -1.6930 C   0  0  0  0  0  0  0  0  0  0  0  0
    4.8720   -1.0110   -1.7930 N   0  0  0  0  0  0  0  0  0  0  0  0
    3.9320   -1.9760   -2.0240 C   0  0  0  0  0  0  0  0  0  0  0  0
    2.6040   -1.6510   -2.1610 C   0  0  0  0  0  0  0  0  0  0  0  0
    1.5930   -2.6220   -2.4020 N   0  0  0  0  0  0  0  0  0  0  0  0
    0.6250   -2.7840   -1.5990 N   0  0  0  0  0  0  0  0  0  0  0  0
    0.4350   -2.0470   -0.4060 C   0  0  0  0  0  0  0  0  0  0  0  0
   -0.6610   -1.6380    0.1340 C   0  0  0  0  0  0  0  0  0  0  0  0
   -2.0020   -1.8310   -0.3490 C   0  0  0  0  0  0  0  0  0  0  0  0
   -3.1040   -1.3240    0.3600 C   0  0  0  0  0  0  0  0  0  0  0  0
   -4.4060   -1.4690   -0.0410 C   0  0  0  0  0  0  0  0  0  0  0  0
   -5.6450   -1.1000    0.4330 C   0  0  0  0  0  0  0  0  0  0  0  0
   -5.9080   -0.3190    1.6440 C   0  0  0  0  0  0  0  0  0  0  0  0
   -5.7510    1.1540    1.5210 C   0  0  1  0  0  0  0  0  0  0  0  0
   -6.0880    1.7690    2.8940 C   0  0  0  0  0  0  0  0  0  0  0  0
   -5.4790    3.1380    2.7440 C   0  0  0  0  0  0  0  0  0  0  0  0
   -4.4240    3.0570    1.7540 N   0  0  0  0  0  0  0  0  0  0  0  0
   -4.3370    1.6520    1.3730 C   0  0  0  0  0  0  0  0  0  0  0  0
   -6.6470   -1.5540   -0.4340 C   0  0  0  0  0  0  0  0  0  0  0  0
   -8.1250   -1.3830   -0.3160 C   0  0  0  0  0  0  0  0  0  0  0  0
   -6.0100   -2.1920   -1.4230 N   0  0  0  0  0  0  0  0  0  0  0  0
   -4.6740   -2.1600   -1.2220 C   0  0  0  0  0  0  0  0  0  0  0  0
   -3.5940   -2.6540   -1.9110 C   0  0  0  0  0  0  0  0  0  0  0  0
   -3.7740   -3.2830   -2.9790 O   0  0  0  0  0  0  0  0  0  0  0  0
   -2.3130   -2.4850   -1.4750 N   0  0  0  0  0  0  0  0  0  0  0  0
    2.2440   -0.3110   -2.0570 C   0  0  0  0  0  0  0  0  0  0  0  0
    3.1800    0.6670   -1.8240 C   0  0  0  0  0  0  0  0  0  0  0  0
    2.7180    2.3490   -1.6950 Cl  0  0  0  0  0  0  0  0  0  0  0  0
  1  2  1  0
  2  3  1  0
  3  4  1  0
  4  5  1  0
  5  6  1  0
  6  7  1  0
  7  8  2  0
  7 33  1  0
  8  9  1  0
  9 10  2  0
 10 11  1  0
 10 32  1  0
 11 12  2  3
 12 13  1  0
 13 14  2  3
 14 15  1  0
 15 16  2  0
 15 31  1  0
 16 17  1  0
 17 18  1  0
 17 28  2  0
 18 19  1  0
 18 25  2  0
 20 19  1  1
 20 21  1  0
 20 24  1  0
 21 22  1  0
 22 23  1  0
 23 24  1  0
 25 26  1  0
 25 27  1  0
 27 28  1  0
 28 29  1  0
 29 30  2  0
 29 31  1  0
 32 33  2  0
 33 34  1  0
M  CHG  1   8   1
M  END
