
     RDKit          3D

 34 37  0  0  0  0  0  0  0  0999 V2000
    7.5710    0.0230    3.9420 C   0  0  0  0  0  0  0  0  0  0  0  0
    7.2800   -0.1030    2.4600 C   0  0  0  0  0  0  0  0  0  0  0  0
    6.0720   -0.2880    2.0720 N   0  0  0  0  0  0  0  0  0  0  0  0
    5.6860   -0.4170    0.7380 C   0  0  0  0  0  0  0  0  0  0  0  0
    4.3450   -0.6180    0.4090 C   0  0  0  0  0  0  0  0  0  0  0  0
    3.9970   -0.7400   -0.8950 C   0  0  0  0  0  0  0  0  0  0  0  0
    2.7030   -0.9240   -1.4230 N   0  0  0  0  0  0  0  0  0  0  0  0
    1.5170   -0.6730   -0.6890 C   0  0  0  0  0  0  0  0  0  0  0  0
    1.6050   -0.2620    0.4820 O   0  0  0  0  0  0  0  0  0  0  0  0
    0.1710   -0.9100   -1.3390 C   0  0  1  0  0  0  0  0  0  0  0  0
    0.0410   -2.4590   -1.4540 C   0  0  0  0  0  0  0  0  0  0  0  0
   -0.8720   -0.5290   -0.4450 N   0  0  0  0  0  0  0  0  0  0  0  0
   -0.9250    0.8690   -0.1710 C   0  0  0  0  0  0  0  0  0  0  0  0
   -2.0130    1.1620    0.8490 C   0  0  0  0  0  0  0  0  0  0  0  0
   -3.3900    0.7590    0.3990 C   0  0  0  0  0  0  0  0  0  0  0  0
   -4.2960    1.1220    1.4790 N   0  0  0  0  0  0  0  0  0  0  0  0
   -5.5720    0.5030    1.3710 C   0  0  2  0  0  0  0  0  0  0  0  0
   -6.0920   -0.1000    2.6540 C   0  0  0  0  0  0  0  0  0  0  0  0
   -7.2990   -0.8910    2.1560 C   0  0  0  0  0  0  0  0  0  0  0  0
   -7.0370   -1.1820    0.6890 C   0  0  2  0  0  0  0  0  0  0  0  0
   -8.0040   -0.3670   -0.1460 C   0  0  0  0  0  0  0  0  0  0  0  0
   -7.1750   -2.9180    0.3630 Cl  0  0  0  0  0  0  0  0  0  0  0  0
   -5.5990   -0.6990    0.4500 C   0  0  0  0  0  0  0  0  0  0  0  0
    0.0950   -0.3460   -2.6890 C   0  0  0  0  0  0  0  0  0  0  0  0
   -0.4680   -0.9750   -3.7570 N   0  0  0  0  0  0  0  0  0  0  0  0
   -0.3640   -0.2100   -4.8220 N   0  0  0  0  0  0  0  0  0  0  0  0
    0.2620    0.9050   -4.4430 C   0  0  0  0  0  0  0  0  0  0  0  0
    0.5460    0.8190   -3.1190 N   0  0  0  0  0  0  0  0  0  0  0  0
    1.2340    1.8940   -2.4430 C   0  0  0  0  0  0  0  0  0  0  0  0
    5.0230   -0.6580   -1.8590 C   0  0  0  0  0  0  0  0  0  0  0  0
    6.3350   -0.4640   -1.5550 C   0  0  0  0  0  0  0  0  0  0  0  0
    6.6710   -0.3410   -0.2250 C   0  0  0  0  0  0  0  0  0  0  0  0
    8.0200   -0.1370    0.1640 N   0  0  0  0  0  0  0  0  0  0  0  0
    8.4140   -0.0010    1.5330 C   0  0  0  0  0  0  0  0  0  0  0  0
  1  2  1  0
  2  3  2  0
  2 34  1  0
  3  4  1  0
  4  5  2  0
  4 32  1  0
  5  6  1  0
  6  7  1  0
  6 30  2  0
  7  8  1  0
  8  9  2  0
  8 10  1  0
 10 11  1  6
 10 12  1  0
 10 24  1  0
 12 13  1  0
 13 14  1  0
 14 15  1  0
 15 16  1  0
 17 16  1  1
 17 18  1  0
 17 23  1  0
 18 19  1  0
 19 20  1  0
 20 21  1  6
 20 22  1  0
 20 23  1  0
 24 25  2  0
 24 28  1  0
 25 26  1  0
 26 27  2  0
 27 28  1  0
 28 29  1  0
 30 31  1  0
 31 32  2  0
 32 33  1  0
 33 34  1  0
M  CHG  1  16   1
M  END
