
     RDKit          3D

 34 37  0  0  0  0  0  0  0  0999 V2000
   -3.2230   -2.5070    0.6530 C   0  0  0  0  0  0  0  0  0  0  0  0
   -4.5390   -1.8040    0.6770 C   0  0  0  0  0  0  0  0  0  0  0  0
   -4.9040   -0.7020   -0.1060 C   0  0  0  0  0  0  0  0  0  0  0  0
   -4.0800   -0.0700   -1.0460 N   0  0  0  0  0  0  0  0  0  0  0  0
   -4.5060    1.0480   -1.8150 C   0  0  0  0  0  0  0  0  0  0  0  0
   -5.7270    1.5810   -1.7130 N   0  0  0  0  0  0  0  0  0  0  0  0
   -6.1340    2.6100   -2.4140 N   0  0  0  0  0  0  0  0  0  0  0  0
   -5.3440    3.2240   -3.3110 C   0  0  0  0  0  0  0  0  0  0  0  0
   -4.0700    2.7070   -3.4530 C   0  0  0  0  0  0  0  0  0  0  0  0
   -3.6400    1.6340   -2.7230 C   0  0  0  0  0  0  0  0  0  0  0  0
   -2.3560    1.1210   -2.8770 N   0  0  0  0  0  0  0  0  0  0  0  0
   -1.3250    1.3370   -2.1330 C   0  0  0  0  0  0  0  0  0  0  0  0
   -1.2800    2.1630   -0.9720 C   0  0  0  0  0  0  0  0  0  0  0  0
   -2.7590    2.9940   -0.4450 Cl  0  0  0  0  0  0  0  0  0  0  0  0
   -0.2070    2.3510   -0.2720 C   0  0  0  0  0  0  0  0  0  0  0  0
    1.0720    1.7470   -0.5960 C   0  0  0  0  0  0  0  0  0  0  0  0
    1.6670    1.8460   -1.8280 C   0  0  0  0  0  0  0  0  0  0  0  0
    2.8600    1.2490   -2.1320 C   0  0  0  0  0  0  0  0  0  0  0  0
    3.5300    0.5070   -1.1930 C   0  0  0  0  0  0  0  0  0  0  0  0
    4.7420   -0.1490   -1.4860 N   0  0  0  0  0  0  0  0  0  0  0  0
    5.4710   -0.0440   -2.6790 C   0  0  0  0  0  0  0  0  0  0  0  0
    5.0970    0.6720   -3.6220 O   0  0  0  0  0  0  0  0  0  0  0  0
    2.9550    0.3770    0.0980 C   0  0  0  0  0  0  0  0  0  0  0  0
    3.7100   -0.4070    1.0740 C   0  0  2  0  0  0  0  0  0  0  0  0
    2.8620   -0.5900    2.3440 C   0  0  0  0  0  0  0  0  0  0  0  0
    3.8970   -1.0820    3.3570 C   0  0  0  0  0  0  0  0  0  0  0  0
    5.2240   -0.6110    2.8390 C   0  0  1  0  0  0  0  0  0  0  0  0
    5.9660   -1.7840    2.3690 N   0  0  0  0  0  0  0  0  0  0  0  0
    4.8930    0.3170    1.6950 C   0  0  0  0  0  0  0  0  0  0  0  0
    1.7660    0.9900    0.3470 C   0  0  0  0  0  0  0  0  0  0  0  0
   -6.1830   -0.3880    0.2350 C   0  0  0  0  0  0  0  0  0  0  0  0
   -6.5570   -1.2740    1.1860 N   0  0  0  0  0  0  0  0  0  0  0  0
   -5.5850   -2.1250    1.4580 N   0  0  0  0  0  0  0  0  0  0  0  0
   -5.6460   -3.2070    2.4300 C   0  0  0  0  0  0  0  0  0  0  0  0
  1  2  1  0
  2  3  2  0
  2 33  1  0
  3  4  1  0
  3 31  1  0
  4  5  1  0
  5  6  2  0
  5 10  1  0
  6  7  1  0
  7  8  2  0
  8  9  1  0
  9 10  2  0
 10 11  1  0
 11 12  2  3
 12 13  1  0
 13 14  1  0
 13 15  2  3
 15 16  1  0
 16 17  2  0
 16 30  1  0
 17 18  1  0
 18 19  2  0
 19 20  1  0
 19 23  1  0
 20 21  1  0
 21 22  2  0
 24 23  1  6
 23 30  2  0
 24 25  1  0
 24 29  1  0
 25 26  1  0
 26 27  1  0
 27 28  1  6
 27 29  1  0
 31 32  2  0
 32 33  1  0
 33 34  1  0
M  CHG  1  28   1
M  END
