
     RDKit          3D

 30 32  0  0  0  0  0  0  0  0999 V2000
   -0.4190    6.2940   -0.2410 C   0  0  0  0  0  0  0  0  0  0  0  0
    0.3380    5.1060   -0.3290 O   0  0  0  0  0  0  0  0  0  0  0  0
   -0.2410    3.8670   -0.2630 C   0  0  0  0  0  0  0  0  0  0  0  0
   -1.4760    3.7330   -0.1210 O   0  0  0  0  0  0  0  0  0  0  0  0
    0.5640    2.6120   -0.3580 C   0  0  0  0  0  0  0  0  0  0  0  0
   -0.0430    1.4600   -0.2900 C   0  0  0  0  0  0  0  0  0  0  0  0
    0.5480    0.1700   -0.3600 C   0  0  0  0  0  0  0  0  0  0  0  0
   -0.1690   -0.9130   -0.2690 C   0  0  0  0  0  0  0  0  0  0  0  0
   -1.6030   -0.8900   -0.0840 C   0  0  0  0  0  0  0  0  0  0  0  0
   -2.3470   -0.2430    0.8430 C   0  0  0  0  0  0  0  0  0  0  0  0
   -3.6730   -0.5520    0.5800 C   0  0  0  0  0  0  0  0  0  0  0  0
   -4.8690   -0.2070    1.1590 C   0  0  0  0  0  0  0  0  0  0  0  0
   -6.0660   -0.6870    0.6590 C   0  0  0  0  0  0  0  0  0  0  0  0
   -7.3490   -0.3160    1.2850 C   0  0  0  0  0  0  0  0  0  0  0  0
   -6.0880   -1.5170   -0.4250 C   0  0  0  0  0  0  0  0  0  0  0  0
   -7.3730   -2.0460   -0.9800 C   0  0  0  0  0  0  0  0  0  0  0  0
   -4.8790   -1.8540   -0.9950 C   0  0  0  0  0  0  0  0  0  0  0  0
   -3.6630   -1.3880   -0.5150 C   0  0  0  0  0  0  0  0  0  0  0  0
   -2.4150   -1.5640   -0.8780 O   0  0  0  0  0  0  0  0  0  0  0  0
    2.0100    0.0200   -0.5440 C   0  0  0  0  0  0  0  0  0  0  0  0
    2.7450    1.0270   -0.6420 O   0  0  0  0  0  0  0  0  0  0  0  0
    2.6720   -1.2270   -0.6190 N   0  0  0  0  0  0  0  0  0  0  0  0
    4.0820   -1.4540   -0.7790 C   0  0  0  0  0  0  0  0  0  0  0  0
    4.8450   -0.9300    0.3960 C   0  0  2  0  0  0  0  0  0  0  0  0
    4.7480    0.4080    0.6120 O   0  0  0  0  0  0  0  0  0  0  0  0
    6.2940   -1.3210    0.2750 C   0  0  0  0  0  0  0  0  0  0  0  0
    6.9620   -2.0390    1.1500 C   0  0  0  0  0  0  0  0  0  0  0  0
    8.3400   -2.1910    0.6560 C   0  0  0  0  0  0  0  0  0  0  0  0
    8.3640   -1.4810   -0.5850 N   0  0  0  0  0  0  0  0  0  0  0  0
    7.2060   -0.9870   -0.8030 C   0  0  0  0  0  0  0  0  0  0  0  0
  1  2  1  0
  2  3  1  0
  3  4  2  0
  3  5  1  0
  5  6  2  3
  6  7  1  0
  7  8  2  3
  7 20  1  0
  8  9  1  0
  9 10  2  0
  9 19  1  0
 10 11  1  0
 11 12  2  0
 11 18  1  0
 12 13  1  0
 13 14  1  0
 13 15  2  0
 15 16  1  0
 15 17  1  0
 17 18  2  0
 18 19  1  0
 20 21  2  0
 20 22  1  0
 22 23  1  0
 23 24  1  0
 24 25  1  6
 24 26  1  0
 26 27  2  0
 26 30  1  0
 27 28  1  0
 28 29  1  0
 29 30  2  0
M  END
