
     RDKit          3D

 30 32  0  0  0  0  0  0  0  0999 V2000
   -0.9640   -4.4730   -1.2200 C   0  0  0  0  0  0  0  0  0  0  0  0
    0.1010   -3.7850   -0.4720 C   0  0  0  0  0  0  0  0  0  0  0  0
    0.3200   -2.4540   -0.6040 C   0  0  0  0  0  0  0  0  0  0  0  0
   -0.5100   -1.6870   -1.5010 C   0  0  0  0  0  0  0  0  0  0  0  0
   -1.5450   -0.8530   -1.0940 N   0  0  0  0  0  0  0  0  0  0  0  0
   -1.7330    0.2520   -0.2900 C   0  0  0  0  0  0  0  0  0  0  0  0
   -0.7980    0.7740    0.3290 O   0  0  0  0  0  0  0  0  0  0  0  0
   -3.0460    0.9170   -0.0850 C   0  0  0  0  0  0  0  0  0  0  0  0
   -3.3200    1.9130    0.6710 O   0  0  0  0  0  0  0  0  0  0  0  0
   -4.5790    2.2670    0.6320 C   0  0  0  0  0  0  0  0  0  0  0  0
   -5.1410    3.2630    1.3100 C   0  0  0  0  0  0  0  0  0  0  0  0
   -6.5840    3.5570    1.1730 C   0  0  0  0  0  0  0  0  0  0  0  0
   -5.1850    1.3920   -0.2560 C   0  0  0  0  0  0  0  0  0  0  0  0
   -4.2200    0.5260   -0.7210 C   0  0  0  0  0  0  0  0  0  0  0  0
   -4.8590   -0.3910   -1.6650 C   0  0  0  0  0  0  0  0  0  0  0  0
   -6.2060    0.0070   -1.6740 O   0  0  0  0  0  0  0  0  0  0  0  0
   -6.3640    1.0820   -0.8230 C   0  0  0  0  0  0  0  0  0  0  0  0
    1.4560   -1.9290    0.1290 C   0  0  0  0  0  0  0  0  0  0  0  0
    2.1880   -2.8930    1.0030 C   0  0  0  0  0  0  0  0  0  0  0  0
    1.8720   -0.7000    0.0790 C   0  0  0  0  0  0  0  0  0  0  0  0
    2.9900   -0.0870    0.7810 C   0  0  0  0  0  0  0  0  0  0  0  0
    4.0000    0.4520   -0.2060 C   0  0  0  0  0  0  0  0  0  0  0  0
    3.8470    0.3580   -1.4450 O   0  0  0  0  0  0  0  0  0  0  0  0
    5.1850    1.1000    0.3360 C   0  0  0  0  0  0  0  0  0  0  0  0
    5.3990    1.2270    1.6920 C   0  0  0  0  0  0  0  0  0  0  0  0
    6.5260    1.8430    2.1690 C   0  0  0  0  0  0  0  0  0  0  0  0
    7.4900    2.3590    1.3260 C   0  0  0  0  0  0  0  0  0  0  0  0
    8.5260    2.9250    1.7620 O   0  0  0  0  0  0  0  0  0  0  0  0
    7.2590    2.2220    0.0020 N   0  0  0  0  0  0  0  0  0  0  0  0
    6.1610    1.6220   -0.4920 C   0  0  0  0  0  0  0  0  0  0  0  0
  1  2  1  0
  2  3  2  3
  3  4  1  0
  3 18  1  0
  4  5  1  0
  5  6  1  0
  6  7  2  0
  6  8  1  0
  8  9  1  0
  8 14  2  0
  9 10  1  0
 10 11  2  3
 10 13  1  0
 11 12  1  0
 13 14  1  0
 13 17  2  0
 14 15  1  0
 15 16  1  0
 16 17  1  0
 18 19  1  0
 18 20  2  3
 20 21  1  0
 21 22  1  0
 22 23  2  0
 22 24  1  0
 24 25  1  0
 24 30  2  0
 25 26  2  0
 26 27  1  0
 27 28  2  0
 27 29  1  0
 29 30  1  0
M  END
