
     RDKit          3D

 30 31  0  0  0  0  0  0  0  0999 V2000
    6.5630   -0.2560   -0.4810 C   0  0  0  0  0  0  0  0  0  0  0  0
    5.9730   -1.2270    0.1670 C   0  0  0  0  0  0  0  0  0  0  0  0
    4.4870   -1.2180    0.4680 C   0  0  0  0  0  0  0  0  0  0  0  0
    4.0940   -2.2720    1.1240 C   0  0  0  0  0  0  0  0  0  0  0  0
    5.1000   -3.3540    1.5100 C   0  0  0  0  0  0  0  0  0  0  0  0
    3.8240   -0.0560   -0.0080 C   0  0  0  0  0  0  0  0  0  0  0  0
    2.4260    0.2370    0.2040 N   0  0  0  0  0  0  0  0  0  0  0  0
    1.9710    1.4280   -0.4860 C   0  0  0  0  0  0  0  0  0  0  0  0
    0.6590    1.7320   -0.6320 C   0  0  0  0  0  0  0  0  0  0  0  0
    0.2770    2.9190   -1.3290 C   0  0  0  0  0  0  0  0  0  0  0  0
   -0.7180    3.6110   -1.6800 C   0  0  0  0  0  0  0  0  0  0  0  0
   -2.1340    3.6350   -1.5880 C   0  0  0  0  0  0  0  0  0  0  0  0
   -2.8930    2.8450   -1.0250 O   0  0  0  0  0  0  0  0  0  0  0  0
   -2.8730    4.7070   -2.2180 O   0  0  0  0  0  0  0  0  0  0  0  0
   -4.2890    4.7100   -2.1140 C   0  0  0  0  0  0  0  0  0  0  0  0
   -0.2560    0.7410   -0.0800 C   0  0  0  0  0  0  0  0  0  0  0  0
   -1.3150    0.3540   -0.7020 C   0  0  0  0  0  0  0  0  0  0  0  0
   -2.3130   -0.5920   -0.3070 C   0  0  0  0  0  0  0  0  0  0  0  0
   -3.0480   -0.5100    0.8220 C   0  0  0  0  0  0  0  0  0  0  0  0
   -3.0560    0.5860    1.7590 C   0  0  0  0  0  0  0  0  0  0  0  0
   -3.7870    0.5130    2.8070 O   0  0  0  0  0  0  0  0  0  0  0  0
   -2.3360    1.7360    1.6300 O   0  0  0  0  0  0  0  0  0  0  0  0
   -3.9420   -1.5720    1.0850 C   0  0  0  0  0  0  0  0  0  0  0  0
   -4.0550   -2.6310    0.2300 C   0  0  0  0  0  0  0  0  0  0  0  0
   -5.0160   -3.7370    0.5480 C   0  0  0  0  0  0  0  0  0  0  0  0
   -3.3290   -2.7030   -0.8800 N   0  0  0  0  0  0  0  0  0  0  0  0
   -2.4830   -1.7090   -1.1380 C   0  0  0  0  0  0  0  0  0  0  0  0
   -1.8080   -1.7820   -2.1780 O   0  0  0  0  0  0  0  0  0  0  0  0
    0.1850    0.1420    1.1930 C   0  0  0  0  0  0  0  0  0  0  0  0
    1.5250   -0.5100    0.9990 C   0  0  0  0  0  0  0  0  0  0  0  0
  1  2  2  0
  2  3  1  0
  3  4  2  3
  3  6  1  0
  4  5  1  0
  6  7  1  0
  7  8  1  0
  7 30  1  0
  8  9  2  0
  9 10  1  0
  9 16  1  0
 10 11  2  3
 11 12  1  0
 12 13  2  0
 12 14  1  0
 14 15  1  0
 16 17  2  3
 16 29  1  0
 17 18  1  0
 18 19  2  0
 18 27  1  0
 19 20  1  0
 19 23  1  0
 20 21  2  0
 20 22  1  0
 23 24  2  0
 24 25  1  0
 24 26  1  0
 26 27  1  0
 27 28  2  0
 29 30  1  0
M  END
