
     RDKit          3D

 30 32  0  0  0  0  0  0  0  0999 V2000
    8.2330    1.1620   -1.6230 C   0  0  0  0  0  0  0  0  0  0  0  0
    6.8430    0.8830   -1.2410 C   0  0  0  0  0  0  0  0  0  0  0  0
    5.9280    1.9020   -1.1430 C   0  0  0  0  0  0  0  0  0  0  0  0
    4.5910    1.6430   -0.7770 C   0  0  0  0  0  0  0  0  0  0  0  0
    3.6940    2.8420   -0.6400 C   0  0  0  0  0  0  0  0  0  0  0  0
    4.1380    0.3820   -0.5040 C   0  0  0  0  0  0  0  0  0  0  0  0
    2.7620    0.0460   -0.1880 C   0  0  0  0  0  0  0  0  0  0  0  0
    2.6040   -0.9630    0.5900 O   0  0  0  0  0  0  0  0  0  0  0  0
    1.6140    0.7130   -0.6550 N   0  0  0  0  0  0  0  0  0  0  0  0
    0.3050    0.2500   -0.2190 C   0  0  0  0  0  0  0  0  0  0  0  0
    0.0930    0.3450    1.2600 C   0  0  0  0  0  0  0  0  0  0  0  0
   -1.2160   -0.1270    1.6060 O   0  0  0  0  0  0  0  0  0  0  0  0
   -1.6240   -0.1260    2.9260 C   0  0  0  0  0  0  0  0  0  0  0  0
   -0.8150    0.2970    3.7890 O   0  0  0  0  0  0  0  0  0  0  0  0
   -2.9680   -0.6050    3.3360 C   0  0  0  0  0  0  0  0  0  0  0  0
   -3.8050   -1.0030    2.1380 C   0  0  0  0  0  0  0  0  0  0  0  0
   -4.0480    0.1210    1.2050 C   0  0  0  0  0  0  0  0  0  0  0  0
   -3.6400    1.3540    1.4510 C   0  0  0  0  0  0  0  0  0  0  0  0
   -4.0100    2.2200    0.3850 N   0  0  0  0  0  0  0  0  0  0  0  0
   -4.6900    1.4490   -0.5690 C   0  0  0  0  0  0  0  0  0  0  0  0
   -5.1720    1.8480   -1.6460 O   0  0  0  0  0  0  0  0  0  0  0  0
   -4.7430    0.0550   -0.0760 C   0  0  0  0  0  0  0  0  0  0  0  0
   -5.2940   -0.9730   -0.6800 C   0  0  0  0  0  0  0  0  0  0  0  0
   -5.3610   -2.3560   -0.2200 C   0  0  0  0  0  0  0  0  0  0  0  0
   -6.3330   -2.9880   -1.1800 C   0  0  0  0  0  0  0  0  0  0  0  0
   -6.7940   -2.0420   -2.0470 O   0  0  0  0  0  0  0  0  0  0  0  0
   -5.9760   -0.9400   -1.9850 C   0  0  0  0  0  0  0  0  0  0  0  0
    5.0840   -0.6500   -0.6070 C   0  0  0  0  0  0  0  0  0  0  0  0
    4.6260   -2.0380   -0.3290 C   0  0  0  0  0  0  0  0  0  0  0  0
    6.3690   -0.3800   -0.9610 C   0  0  0  0  0  0  0  0  0  0  0  0
  1  2  1  0
  2  3  2  0
  2 30  1  0
  3  4  1  0
  4  5  1  0
  4  6  2  0
  6  7  1  0
  6 28  1  0
  7  8  2  0
  7  9  1  0
  9 10  1  0
 10 11  1  0
 11 12  1  0
 12 13  1  0
 13 14  2  0
 13 15  1  0
 15 16  1  0
 16 17  1  0
 17 18  2  0
 17 22  1  0
 18 19  1  0
 19 20  1  0
 20 21  2  0
 20 22  1  0
 22 23  2  3
 23 24  1  0
 23 27  1  0
 24 25  1  0
 25 26  1  0
 26 27  1  0
 28 29  1  0
 28 30  2  0
M  END
