
     RDKit          3D

 30 32  0  0  0  0  0  0  0  0999 V2000
    1.3160    5.0830   -2.9730 C   0  0  0  0  0  0  0  0  0  0  0  0
    0.5000    4.1810   -2.5740 C   0  0  0  0  0  0  0  0  0  0  0  0
    0.9950    3.1490   -1.5740 C   0  0  0  0  0  0  0  0  0  0  0  0
    0.1940    2.2560   -1.1740 C   0  0  0  0  0  0  0  0  0  0  0  0
    0.1400    1.1180   -0.2980 C   0  0  0  0  0  0  0  0  0  0  0  0
   -1.0870    0.5640   -0.3080 C   0  0  0  0  0  0  0  0  0  0  0  0
   -1.5190   -0.5800    0.4750 C   0  0  0  0  0  0  0  0  0  0  0  0
   -1.4530   -0.4320    1.8010 C   0  0  0  0  0  0  0  0  0  0  0  0
   -1.8410   -1.4740    2.7550 C   0  0  0  0  0  0  0  0  0  0  0  0
   -0.6210   -1.8910    3.5740 C   0  0  0  0  0  0  0  0  0  0  0  0
   -2.0700   -1.7030   -0.2770 C   0  0  1  0  0  0  0  0  0  0  0  0
   -2.2720   -2.8870    0.3490 O   0  0  0  0  0  0  0  0  0  0  0  0
   -3.3620   -1.1930   -0.8830 C   0  0  2  0  0  0  0  0  0  0  0  0
   -3.5610   -1.6480   -2.2910 C   0  0  0  0  0  0  0  0  0  0  0  0
   -4.3910   -0.5590   -2.9440 C   0  0  0  0  0  0  0  0  0  0  0  0
   -4.4660    0.6050   -1.9950 C   0  0  0  0  0  0  0  0  0  0  0  0
   -3.4620    0.2920   -0.8840 C   0  0  2  0  0  0  0  0  0  0  0  0
   -2.1890    1.0390   -1.2740 C   0  0  2  0  0  0  0  0  0  0  0  0
   -1.9110    0.7460   -2.5670 O   0  0  0  0  0  0  0  0  0  0  0  0
    1.3210    0.5730    0.4760 C   0  0  2  0  0  0  0  0  0  0  0  0
    1.3390    1.2630    1.7980 C   0  0  0  0  0  0  0  0  0  0  0  0
    2.5360    1.2290   -0.2520 C   0  0  0  0  0  0  0  0  0  0  0  0
    3.8850    0.8380    0.1990 C   0  0  0  0  0  0  0  0  0  0  0  0
    4.2030    1.0460    1.5310 O   0  0  0  0  0  0  0  0  0  0  0  0
    1.4140   -0.8680    0.3650 C   0  0  0  0  0  0  0  0  0  0  0  0
    2.4980   -1.6200    1.0590 C   0  0  0  0  0  0  0  0  0  0  0  0
    3.3660   -2.3840    0.4530 C   0  0  0  0  0  0  0  0  0  0  0  0
    4.2970   -2.9810    1.4190 C   0  0  0  0  0  0  0  0  0  0  0  0
    3.8110   -2.4420    2.6960 C   0  0  0  0  0  0  0  0  0  0  0  0
    2.7760   -1.6600    2.4700 C   0  0  0  0  0  0  0  0  0  0  0  0
  1  2  2  0
  2  3  1  0
  3  4  2  3
  4  5  1  0
  5  6  2  3
  5 20  1  0
  6  7  1  0
  6 18  1  0
  7  8  2  3
  7 11  1  0
  8  9  1  0
  9 10  1  0
 11 12  1  1
 11 13  1  0
 13 14  1  6
 13 17  1  0
 14 15  1  0
 15 16  1  0
 17 16  1  6
 17 18  1  0
 18 19  1  6
 20 21  1  1
 20 22  1  0
 20 25  1  0
 22 23  1  0
 23 24  1  0
 25 26  1  0
 26 27  2  0
 26 30  1  0
 27 28  1  0
 28 29  1  0
 29 30  2  0
M  END
