
     RDKit          3D

 30 32  0  0  0  0  0  0  0  0999 V2000
    4.1310    2.7200   -1.1830 C   0  0  0  0  0  0  0  0  0  0  0  0
    4.5030    2.6910    0.2570 C   0  0  0  0  0  0  0  0  0  0  0  0
    3.4740    2.3260    1.2470 C   0  0  1  0  0  0  0  0  0  0  0  0
    4.1810    2.4060    2.6240 C   0  0  0  0  0  0  0  0  0  0  0  0
    2.5300    3.3550    1.2960 O   0  0  0  0  0  0  0  0  0  0  0  0
    2.8100    0.9840    1.1030 C   0  0  2  0  0  0  0  0  0  0  0  0
    3.7780   -0.1550    1.1430 C   0  0  0  0  0  0  0  0  0  0  0  0
    3.0020   -1.4190    1.2160 C   0  0  1  0  0  0  0  0  0  0  0  0
    3.0570   -1.9390    2.6670 C   0  0  0  0  0  0  0  0  0  0  0  0
    1.5310   -1.2950    0.9210 C   0  0  0  0  0  0  0  0  0  0  0  0
    1.1990   -0.4210   -0.2780 C   0  0  1  0  0  0  0  0  0  0  0  0
    2.0860   -0.7960   -1.4540 C   0  0  0  0  0  0  0  0  0  0  0  0
   -0.0540   -0.2850   -0.4490 O   0  0  0  0  0  0  0  0  0  0  0  0
   -1.1850   -0.8330   -0.7570 C   0  0  2  0  0  0  0  0  0  0  0  0
   -1.5980   -2.0810   -0.0310 C   0  0  1  0  0  0  0  0  0  0  0  0
   -1.6890   -1.8680    1.3480 O   0  0  0  0  0  0  0  0  0  0  0  0
   -2.8390   -2.7950   -0.4430 C   0  0  2  0  0  0  0  0  0  0  0  0
   -4.1230   -2.1510   -0.3610 C   0  0  0  0  0  0  0  0  0  0  0  0
   -4.8160   -2.4820    0.7290 C   0  0  0  0  0  0  0  0  0  0  0  0
   -6.1820   -1.9890    1.1140 C   0  0  0  0  0  0  0  0  0  0  0  0
   -4.0090   -3.4380    1.5050 C   0  0  0  0  0  0  0  0  0  0  0  0
   -3.0280   -3.9870    0.5210 C   0  0  0  0  0  0  0  0  0  0  0  0
   -1.3530   -0.9110   -2.2580 C   0  0  0  0  0  0  0  0  0  0  0  0
   -0.9230    0.4110   -2.8440 C   0  0  0  0  0  0  0  0  0  0  0  0
   -1.9350    1.4620   -2.4690 C   0  0  2  0  0  0  0  0  0  0  0  0
   -1.2600    2.6880   -1.8510 C   0  0  0  0  0  0  0  0  0  0  0  0
   -2.3250    3.7240   -1.4920 C   0  0  0  0  0  0  0  0  0  0  0  0
   -2.9100    0.8930   -1.5000 C   0  0  0  0  0  0  0  0  0  0  0  0
   -2.2510    0.2270   -0.3640 C   0  0  0  0  0  0  0  0  0  0  0  0
    1.7260    0.9810    0.1370 C   0  0  0  0  0  0  0  0  0  0  0  0
  1  2  1  0
  2  3  1  0
  3  4  1  1
  3  5  1  0
  3  6  1  0
  6  7  1  6
  6 30  1  0
  7  8  1  0
  8  9  1  1
  8 10  1  0
 10 11  1  0
 11 12  1  6
 11 13  1  0
 11 30  1  0
 14 13  1  6
 14 15  1  0
 14 23  1  0
 14 29  1  0
 15 16  1  1
 15 17  1  0
 17 18  1  0
 17 22  1  1
 18 19  2  0
 19 20  1  0
 19 21  1  0
 21 22  1  0
 23 24  1  0
 24 25  1  0
 25 26  1  1
 25 28  1  0
 26 27  1  0
 28 29  1  0
M  END
