
     RDKit          3D

 31 33  0  0  0  0  0  0  0  0999 V2000
   10.3420   -0.3880    1.4460 N   0  0  0  0  0  0  0  0  0  0  0  0
    8.9940   -0.0350    1.6860 C   0  0  0  0  0  0  0  0  0  0  0  0
    8.6320    0.4890    2.7970 O   0  0  0  0  0  0  0  0  0  0  0  0
    7.9650   -0.2390    0.7170 N   0  0  0  0  0  0  0  0  0  0  0  0
    6.6330    0.1410    1.0290 C   0  0  1  0  0  0  0  0  0  0  0  0
    5.8830    0.8830   -0.0860 C   0  0  0  0  0  0  0  0  0  0  0  0
    4.7170    0.1930    0.3690 N   0  0  0  0  0  0  0  0  0  0  0  0
    3.3270    0.4840    0.4440 C   0  0  0  0  0  0  0  0  0  0  0  0
    2.9030    1.6220    0.0260 O   0  0  0  0  0  0  0  0  0  0  0  0
    2.3910   -0.3290    0.9180 O   0  0  0  0  0  0  0  0  0  0  0  0
    1.1290   -0.5830    1.1930 C   0  0  0  0  0  0  0  0  0  0  0  0
    0.2050   -0.6480    0.1820 O   0  0  0  0  0  0  0  0  0  0  0  0
   -0.2290    0.3340   -0.6300 C   0  0  0  0  0  0  0  0  0  0  0  0
    0.1610    1.5220   -0.5640 O   0  0  0  0  0  0  0  0  0  0  0  0
   -1.2500    0.0660   -1.7170 C   0  0  2  0  0  0  0  0  0  0  0  0
   -1.5180    1.3480   -2.4350 C   0  0  0  0  0  0  0  0  0  0  0  0
   -2.9750    1.2630   -2.7530 C   0  0  0  0  0  0  0  0  0  0  0  0
   -3.5840    0.4940   -1.6130 N   0  0  0  0  0  0  0  0  0  0  0  0
   -4.9420    0.6070   -1.3480 C   0  0  0  0  0  0  0  0  0  0  0  0
   -5.5860    1.4110   -2.1330 O   0  0  0  0  0  0  0  0  0  0  0  0
   -5.7170   -0.0470   -0.3270 C   0  0  0  0  0  0  0  0  0  0  0  0
   -7.0170    0.2080   -0.2390 C   0  0  0  0  0  0  0  0  0  0  0  0
   -7.9230   -0.3730    0.7350 C   0  0  1  0  0  0  0  0  0  0  0  0
   -8.4540    0.7070    1.4850 O   0  0  0  0  0  0  0  0  0  0  0  0
   -9.3590   -1.2160   -0.1670 P   0  0  0  0  0  0  0  0  0  0  0  0
  -10.3470   -2.0230    0.7250 O   0  0  0  0  0  0  0  0  0  0  0  0
   -7.3140   -1.2600    1.5960 O   0  0  0  0  0  0  0  0  0  0  0  0
   -5.9890   -1.5480    1.5390 C   0  0  0  0  0  0  0  0  0  0  0  0
   -5.1790   -0.9870    0.6280 C   0  0  0  0  0  0  0  0  0  0  0  0
   -2.5550   -0.2540   -0.9780 C   0  0  0  0  0  0  0  0  0  0  0  0
    5.5590   -0.9080    0.7120 C   0  0  0  0  0  0  0  0  0  0  0  0
  1  2  1  0
  2  3  2  0
  2  4  1  0
  5  4  1  6
  5  6  1  0
  5 31  1  0
  6  7  1  0
  7  8  1  0
  7 31  1  0
  8  9  2  0
  8 10  1  0
 10 11  1  0
 11 12  1  0
 12 13  1  0
 13 14  2  0
 15 13  1  1
 15 16  1  0
 15 30  1  0
 16 17  1  0
 17 18  1  0
 18 19  1  0
 18 30  1  0
 19 20  2  0
 19 21  1  0
 21 22  2  0
 21 29  1  0
 22 23  1  0
 23 24  1  1
 23 25  1  0
 23 27  1  0
 25 26  2  0
 27 28  1  0
 28 29  2  0
M  END
