
     RDKit          3D

 31 33  0  0  0  0  0  0  0  0999 V2000
    7.5800   -0.0180    0.7530 O   0  0  0  0  0  0  0  0  0  0  0  0
    6.6410   -0.6590    1.2170 C   0  0  0  0  0  0  0  0  0  0  0  0
    7.0430   -1.7450    2.0340 O   0  0  0  0  0  0  0  0  0  0  0  0
    5.2250   -0.3480    1.0030 C   0  0  0  0  0  0  0  0  0  0  0  0
    4.9720    0.1130   -0.2910 C   0  0  0  0  0  0  0  0  0  0  0  0
    3.6970    0.2460   -0.6500 C   0  0  0  0  0  0  0  0  0  0  0  0
    2.6230    0.0200    0.2790 C   0  0  0  0  0  0  0  0  0  0  0  0
    1.4840   -0.0800   -0.5140 N   0  0  0  0  0  0  0  0  0  0  0  0
    0.2180    0.5160   -0.4790 C   0  0  0  0  0  0  0  0  0  0  0  0
   -0.1380    1.1940    0.3680 O   0  0  0  0  0  0  0  0  0  0  0  0
   -0.5450    0.1170   -1.8170 C   0  0  2  0  0  0  0  0  0  0  0  0
   -1.5300    1.3560   -1.8830 C   0  0  0  0  0  0  0  0  0  0  0  0
   -0.8020    2.6360   -1.9480 C   0  0  0  0  0  0  0  0  0  0  0  0
   -1.9140    3.9610   -1.1350 P   0  0  0  0  0  0  0  0  0  0  0  0
   -2.4300    3.3090    0.3960 O   0  0  0  0  0  0  0  0  0  0  0  0
   -0.9930    5.3950   -0.8910 O   0  0  0  0  0  0  0  0  0  0  0  0
   -1.4050   -0.9270   -1.8570 N   0  0  0  0  0  0  0  0  0  0  0  0
   -2.3260   -1.2440   -0.8190 C   0  0  0  0  0  0  0  0  0  0  0  0
   -2.0280   -1.2230    0.3720 N   0  0  0  0  0  0  0  0  0  0  0  0
   -3.2240   -1.7170    1.2070 C   0  0  0  0  0  0  0  0  0  0  0  0
   -3.3510   -1.9240    2.5180 N   0  0  0  0  0  0  0  0  0  0  0  0
   -4.5420   -2.4660    2.9120 C   0  0  0  0  0  0  0  0  0  0  0  0
   -4.6890   -2.8390    4.1140 O   0  0  0  0  0  0  0  0  0  0  0  0
   -5.5350   -2.7300    2.0690 O   0  0  0  0  0  0  0  0  0  0  0  0
   -5.3790   -2.4570    0.8050 C   0  0  0  0  0  0  0  0  0  0  0  0
   -6.3220   -2.6950   -0.0230 O   0  0  0  0  0  0  0  0  0  0  0  0
   -4.2350   -1.9440    0.3680 C   0  0  0  0  0  0  0  0  0  0  0  0
   -3.8120   -1.6720   -1.0240 C   0  0  0  0  0  0  0  0  0  0  0  0
   -4.4400   -1.7710   -2.0530 O   0  0  0  0  0  0  0  0  0  0  0  0
    2.8420   -0.3670    1.5540 C   0  0  0  0  0  0  0  0  0  0  0  0
    4.2260   -0.5850    1.8640 C   0  0  0  0  0  0  0  0  0  0  0  0
  1  2  2  0
  2  3  1  0
  2  4  1  0
  4  5  2  0
  4 31  1  0
  5  6  1  0
  6  7  2  0
  7  8  1  0
  7 30  1  0
  8  9  1  0
  9 10  2  0
  9 11  1  0
 11 12  1  1
 11 17  1  0
 12 13  1  0
 13 14  1  0
 14 15  1  0
 14 16  1  0
 17 18  1  0
 18 19  2  0
 18 28  1  0
 19 20  1  0
 20 21  1  0
 20 27  2  0
 21 22  1  0
 22 23  2  0
 22 24  1  0
 24 25  1  0
 25 26  2  0
 25 27  1  0
 27 28  1  0
 28 29  2  0
 30 31  2  0
M  END
