
     RDKit          3D

 31 33  0  0  0  0  0  0  0  0999 V2000
   -5.2570    3.0100   -0.6240 C   0  0  0  0  0  0  0  0  0  0  0  0
   -4.2050    1.9790   -0.5260 C   0  0  0  0  0  0  0  0  0  0  0  0
   -4.5710    0.6410   -0.3060 C   0  0  0  0  0  0  0  0  0  0  0  0
   -3.6550   -0.3800   -0.2600 C   0  0  0  0  0  0  0  0  0  0  0  0
   -4.0890   -1.6650   -0.1080 N   0  0  0  0  0  0  0  0  0  0  0  0
   -3.1860   -2.6280   -0.1370 C   0  0  0  0  0  0  0  0  0  0  0  0
   -3.5580   -3.9410   -0.0310 C   0  0  0  0  0  0  0  0  0  0  0  0
   -4.7490   -4.2940    0.1390 O   0  0  0  0  0  0  0  0  0  0  0  0
   -2.6130   -4.9040   -0.1060 N   0  0  0  0  0  0  0  0  0  0  0  0
   -1.2960   -4.6110   -0.2860 C   0  0  0  0  0  0  0  0  0  0  0  0
   -0.4520   -5.5390   -0.3640 O   0  0  0  0  0  0  0  0  0  0  0  0
   -0.8730   -3.3200   -0.3960 N   0  0  0  0  0  0  0  0  0  0  0  0
   -1.7370   -2.3200   -0.3350 C   0  0  0  0  0  0  0  0  0  0  0  0
   -1.3420   -1.0490   -0.4810 N   0  0  0  0  0  0  0  0  0  0  0  0
   -0.0470   -0.5700   -0.8310 C   0  0  0  0  0  0  0  0  0  0  0  0
    1.0550   -0.4710    0.1040 C   0  0  2  0  0  0  0  0  0  0  0  0
    0.8960    0.1270    1.3370 O   0  0  0  0  0  0  0  0  0  0  0  0
    1.9740    0.6630   -0.6420 C   0  0  2  0  0  0  0  0  0  0  0  0
    1.8330    0.3350   -2.0120 O   0  0  0  0  0  0  0  0  0  0  0  0
    3.3700    0.2780   -0.3350 C   0  0  2  0  0  0  0  0  0  0  0  0
    3.4350   -1.1150   -0.5650 O   0  0  0  0  0  0  0  0  0  0  0  0
    3.8880    0.6250    1.0570 C   0  0  0  0  0  0  0  0  0  0  0  0
    5.0030   -0.2390    1.1820 O   0  0  0  0  0  0  0  0  0  0  0  0
    6.4660    0.4760    1.3380 P   0  0  2  0  0  0  0  0  0  0  0  0
    7.2580    0.0160    2.4810 O   0  0  0  0  0  0  0  0  0  0  0  0
    6.4390    2.1380    1.2080 O   0  0  0  0  0  0  0  0  0  0  0  0
    7.3160   -0.1430   -0.1020 O   0  0  0  0  0  0  0  0  0  0  0  0
   -2.3260   -0.0950   -0.4350 C   0  0  0  0  0  0  0  0  0  0  0  0
   -1.9520    1.2310   -0.6540 C   0  0  0  0  0  0  0  0  0  0  0  0
   -2.8750    2.2710   -0.7040 C   0  0  0  0  0  0  0  0  0  0  0  0
   -2.3840    3.6310   -1.0310 C   0  0  0  0  0  0  0  0  0  0  0  0
  1  2  1  0
  2  3  2  0
  2 30  1  0
  3  4  1  0
  4  5  1  0
  4 28  2  0
  5  6  2  0
  6  7  1  0
  6 13  1  0
  7  8  2  0
  7  9  1  0
  9 10  1  0
 10 11  2  0
 10 12  1  0
 12 13  2  0
 13 14  1  0
 14 15  1  0
 14 28  1  0
 15 16  1  0
 16 17  1  1
 16 18  1  0
 18 19  1  6
 18 20  1  0
 20 21  1  1
 20 22  1  0
 22 23  1  0
 23 24  1  0
 24 25  2  0
 24 26  1  6
 24 27  1  0
 28 29  1  0
 29 30  2  0
 30 31  1  0
M  END
