
     RDKit          3D

 26 28  0  0  0  0  0  0  0  0999 V2000
   -4.5740   -2.8830   -1.3390 C   0  0  0  0  0  0  0  0  0  0  0  0
   -3.7710   -2.3270   -0.3060 N   0  0  0  0  0  0  0  0  0  0  0  0
   -4.3590   -2.2040    0.9700 C   0  0  0  0  0  0  0  0  0  0  0  0
   -3.4070   -1.4020    1.8570 C   0  0  0  0  0  0  0  0  0  0  0  0
   -3.3110   -0.1510    1.2940 O   0  0  0  0  0  0  0  0  0  0  0  0
   -2.7120   -0.1230    0.0540 C   0  0  1  0  0  0  0  0  0  0  0  0
   -1.2600    0.2790    0.2760 C   0  0  1  0  0  0  0  0  0  0  0  0
   -0.4770    0.2870   -1.0050 C   0  0  0  0  0  0  0  0  0  0  0  0
    0.9140    0.6740   -0.7260 C   0  0  0  0  0  0  0  0  0  0  0  0
    1.9110   -0.2370   -0.4270 C   0  0  0  0  0  0  0  0  0  0  0  0
    3.1980    0.1510   -0.1650 C   0  0  0  0  0  0  0  0  0  0  0  0
    4.2650   -0.8060    0.1510 C   0  0  0  0  0  0  0  0  0  0  0  0
    4.2600   -2.0720   -0.3960 C   0  0  0  0  0  0  0  0  0  0  0  0
    5.2660   -2.9920   -0.1040 C   0  0  0  0  0  0  0  0  0  0  0  0
    6.2990   -2.6590    0.7430 C   0  0  0  0  0  0  0  0  0  0  0  0
    6.3150   -1.3980    1.2950 C   0  0  0  0  0  0  0  0  0  0  0  0
    5.3130   -0.5030    0.9960 C   0  0  0  0  0  0  0  0  0  0  0  0
    3.4860    1.5030   -0.2080 C   0  0  0  0  0  0  0  0  0  0  0  0
    2.5060    2.4040   -0.5020 C   0  0  0  0  0  0  0  0  0  0  0  0
    2.7670    3.8090   -0.5530 N   0  0  0  0  0  0  0  0  0  0  0  0
    1.2780    1.9680   -0.7460 N   0  0  0  0  0  0  0  0  0  0  0  0
   -1.1580    1.5700    0.9000 N   0  0  0  0  0  0  0  0  0  0  0  0
   -1.6980    2.6600    0.1590 C   0  0  0  0  0  0  0  0  0  0  0  0
   -2.8000    3.3260    0.9930 C   0  0  0  0  0  0  0  0  0  0  0  0
   -2.2180    3.7770    2.1810 O   0  0  0  0  0  0  0  0  0  0  0  0
   -2.7610   -1.4270   -0.6780 C   0  0  0  0  0  0  0  0  0  0  0  0
  1  2  1  0
  2  3  1  0
  2 26  1  0
  3  4  1  0
  4  5  1  0
  5  6  1  0
  6  7  1  0
  6 26  1  1
  7  8  1  6
  7 22  1  0
  8  9  1  0
  9 10  2  0
  9 21  1  0
 10 11  1  0
 11 12  1  0
 11 18  2  0
 12 13  2  0
 12 17  1  0
 13 14  1  0
 14 15  2  0
 15 16  1  0
 16 17  2  0
 18 19  1  0
 19 20  1  0
 19 21  2  0
 22 23  1  0
 23 24  1  0
 24 25  1  0
M  CHG  1  22   1
M  END
