
     RDKit          3D

 26 28  0  0  0  0  0  0  0  0999 V2000
   -3.9030   -1.4510    0.4540 O   0  0  0  0  0  0  0  0  0  0  0  0
   -3.4070   -0.8820   -0.5410 C   0  0  0  0  0  0  0  0  0  0  0  0
   -2.0590   -1.2720   -0.8590 N   0  0  0  0  0  0  0  0  0  0  0  0
   -1.3080   -2.2440   -0.1000 C   0  0  0  0  0  0  0  0  0  0  0  0
   -1.0950   -1.8770    1.3350 C   0  0  0  0  0  0  0  0  0  0  0  0
   -0.3740   -0.6340    1.5010 N   0  0  0  0  0  0  0  0  0  0  0  0
    0.9390   -0.4250    1.0020 C   0  0  0  0  0  0  0  0  0  0  0  0
    1.4870   -1.3690    0.3930 O   0  0  0  0  0  0  0  0  0  0  0  0
    1.6020    0.8600    1.2100 C   0  0  1  0  0  0  0  0  0  0  0  0
    1.8420    1.1510    2.6960 C   0  0  0  0  0  0  0  0  0  0  0  0
    3.2380    0.6370    2.9280 C   0  0  0  0  0  0  0  0  0  0  0  0
    3.7130    0.1590    1.5580 C   0  0  0  0  0  0  0  0  0  0  0  0
    2.9180    0.9900    0.6840 N   0  0  1  0  0  0  0  0  0  0  0  0
    3.0590    0.7170   -0.7100 C   0  0  0  0  0  0  0  0  0  0  0  0
    4.4100    0.1670   -1.0290 C   0  0  0  0  0  0  0  0  0  0  0  0
    4.5810   -1.0320   -1.5790 C   0  0  0  0  0  0  0  0  0  0  0  0
    6.0300   -1.2240   -1.7430 C   0  0  0  0  0  0  0  0  0  0  0  0
    6.6560    0.0130   -1.2190 C   0  0  0  0  0  0  0  0  0  0  0  0
    5.6910    0.8170   -0.8050 C   0  0  0  0  0  0  0  0  0  0  0  0
   -4.1060    0.0720   -1.3060 N   0  0  0  0  0  0  0  0  0  0  0  0
   -5.4440    0.5010   -1.0640 C   0  0  0  0  0  0  0  0  0  0  0  0
   -5.9170    1.6350   -1.7160 C   0  0  0  0  0  0  0  0  0  0  0  0
   -7.2010    2.0450   -1.5030 C   0  0  0  0  0  0  0  0  0  0  0  0
   -8.0670    1.3820   -0.6600 C   0  0  0  0  0  0  0  0  0  0  0  0
   -7.6320    0.2600   -0.0020 C   0  0  0  0  0  0  0  0  0  0  0  0
   -6.3130   -0.1510   -0.2290 C   0  0  0  0  0  0  0  0  0  0  0  0
  1  2  2  0
  2  3  1  0
  2 20  1  0
  3  4  1  0
  4  5  1  0
  5  6  1  0
  6  7  1  0
  7  8  2  0
  9  7  1  1
  9 10  1  0
  9 13  1  0
 10 11  1  0
 11 12  1  0
 12 13  1  0
 13 14  1  6
 14 15  1  0
 15 16  2  0
 15 19  1  0
 16 17  1  0
 17 18  1  0
 18 19  2  0
 20 21  1  0
 21 22  2  0
 21 26  1  0
 22 23  1  0
 23 24  2  0
 24 25  1  0
 25 26  2  0
M  CHG  1  13   1
M  END
