
     RDKit          3D

 26 28  0  0  0  0  0  0  0  0999 V2000
    6.5110   -0.4330   -2.3760 C   0  0  0  0  0  0  0  0  0  0  0  0
    5.1400   -0.2690   -1.8700 C   0  0  0  0  0  0  0  0  0  0  0  0
    4.9540    0.3420   -0.7150 C   0  0  0  0  0  0  0  0  0  0  0  0
    6.0770    0.8490    0.0530 C   0  0  0  0  0  0  0  0  0  0  0  0
    5.8900    1.4640    1.2150 C   0  0  0  0  0  0  0  0  0  0  0  0
    4.5410    1.6340    1.7280 C   0  0  0  0  0  0  0  0  0  0  0  0
    3.4570    1.2100    1.1060 C   0  0  0  0  0  0  0  0  0  0  0  0
    3.6020    0.5230   -0.1810 C   0  0  0  0  0  0  0  0  0  0  0  0
    2.6320    0.0740   -0.8660 N   0  0  0  0  0  0  0  0  0  0  0  0
    1.2980    0.1920   -0.4520 N   0  0  0  0  0  0  0  0  0  0  0  0
    0.8090   -0.6220    0.5780 C   0  0  0  0  0  0  0  0  0  0  0  0
    1.6100   -1.4440    1.1000 O   0  0  0  0  0  0  0  0  0  0  0  0
   -0.5170   -0.5790    1.0660 N   0  0  0  0  0  0  0  0  0  0  0  0
   -0.9460   -1.4680    2.1490 C   0  0  0  0  0  0  0  0  0  0  0  0
   -2.4140   -1.7730    1.8610 C   0  0  0  0  0  0  0  0  0  0  0  0
   -2.5480   -1.8900    0.3580 C   0  0  0  0  0  0  0  0  0  0  0  0
   -2.6070   -0.4750   -0.1960 C   0  0  1  0  0  0  0  0  0  0  0  0
   -2.2960   -0.5200   -1.6490 C   0  0  0  0  0  0  0  0  0  0  0  0
   -2.2710    0.6450   -2.4580 N   0  0  0  0  0  0  0  0  0  0  0  0
   -2.0470   -1.5820   -2.2050 O   0  0  0  0  0  0  0  0  0  0  0  0
   -3.9680    0.0620    0.0660 C   0  0  0  0  0  0  0  0  0  0  0  0
   -4.9830   -0.5580    0.6770 C   0  0  0  0  0  0  0  0  0  0  0  0
   -6.1670    0.3190    0.7390 C   0  0  0  0  0  0  0  0  0  0  0  0
   -5.6980    1.5540    0.0720 C   0  0  0  0  0  0  0  0  0  0  0  0
   -4.4330    1.3960   -0.3110 C   0  0  0  0  0  0  0  0  0  0  0  0
   -1.5410    0.3130    0.5650 C   0  0  0  0  0  0  0  0  0  0  0  0
  1  2  1  0
  2  3  2  3
  3  4  1  0
  3  8  1  0
  4  5  2  0
  5  6  1  0
  6  7  2  0
  7  8  1  0
  8  9  2  3
  9 10  1  0
 10 11  1  0
 11 12  2  0
 11 13  1  0
 13 14  1  0
 13 26  1  0
 14 15  1  0
 15 16  1  0
 16 17  1  0
 17 18  1  6
 17 21  1  0
 17 26  1  0
 18 19  1  0
 18 20  2  0
 21 22  2  0
 21 25  1  0
 22 23  1  0
 23 24  1  0
 24 25  2  0
M  CHG  1  19   1
M  END
