
     RDKit          3D

 26 28  0  0  0  0  0  0  0  0999 V2000
   -5.9250    1.7620    2.6150 C   0  0  0  0  0  0  0  0  0  0  0  0
   -4.9100    0.7680    3.1000 C   0  0  0  0  0  0  0  0  0  0  0  0
   -3.8070    0.6220    2.2610 O   0  0  0  0  0  0  0  0  0  0  0  0
   -3.8440    0.2130    0.9450 C   0  0  0  0  0  0  0  0  0  0  0  0
   -5.0160   -0.1030    0.3050 C   0  0  0  0  0  0  0  0  0  0  0  0
   -5.0410   -0.5170   -1.0320 C   0  0  0  0  0  0  0  0  0  0  0  0
   -6.2940   -0.8480   -1.6900 C   0  0  0  0  0  0  0  0  0  0  0  0
   -6.3330   -1.2650   -3.0280 N   0  0  0  0  0  0  0  0  0  0  0  0
   -7.3560   -0.7540   -1.0410 O   0  0  0  0  0  0  0  0  0  0  0  0
   -3.8510   -0.5850   -1.6450 N   0  0  0  0  0  0  0  0  0  0  0  0
   -2.6690   -0.2910   -1.0800 C   0  0  0  0  0  0  0  0  0  0  0  0
   -1.4710   -0.3740   -1.7450 C   0  0  0  0  0  0  0  0  0  0  0  0
   -0.2450   -0.0680   -1.1540 C   0  0  0  0  0  0  0  0  0  0  0  0
   -0.2160    0.3400    0.1600 C   0  0  0  0  0  0  0  0  0  0  0  0
    0.9520    0.6920    0.8820 N   0  0  0  0  0  0  0  0  0  0  0  0
    2.2800    0.8280    0.4090 C   0  0  2  0  0  0  0  0  0  0  0  0
    2.5270    1.8410   -0.6710 C   0  0  0  0  0  0  0  0  0  0  0  0
    4.0440    2.1530   -0.5960 C   0  0  0  0  0  0  0  0  0  0  0  0
    4.8400    0.8910   -0.6930 C   0  0  0  0  0  0  0  0  0  0  0  0
    4.4240   -0.1490    0.2080 N   0  0  2  0  0  0  0  0  0  0  0  0
    5.2210   -1.3190    0.0020 C   0  0  1  0  0  0  0  0  0  0  0  0
    4.6460   -2.4370    0.8680 C   0  0  0  0  0  0  0  0  0  0  0  0
    5.2610   -1.8050   -1.4140 C   0  0  0  0  0  0  0  0  0  0  0  0
    2.9930   -0.4580    0.0370 C   0  0  0  0  0  0  0  0  0  0  0  0
   -1.4460    0.4240    0.8380 C   0  0  0  0  0  0  0  0  0  0  0  0
   -2.6560    0.1200    0.2510 C   0  0  0  0  0  0  0  0  0  0  0  0
  1  2  1  0
  2  3  1  0
  3  4  1  0
  4  5  2  0
  4 26  1  0
  5  6  1  0
  6  7  1  0
  6 10  2  0
  7  8  1  0
  7  9  2  0
 10 11  1  0
 11 12  2  0
 11 26  1  0
 12 13  1  0
 13 14  2  0
 14 15  1  0
 14 25  1  0
 16 15  1  6
 16 17  1  0
 16 24  1  0
 17 18  1  0
 18 19  1  0
 20 19  1  6
 20 21  1  0
 20 24  1  0
 21 22  1  1
 21 23  1  0
 25 26  2  0
M  CHG  1  20   1
M  END
