
     RDKit          3D

 26 28  0  0  0  0  0  0  0  0999 V2000
   -1.5260    5.3010    0.4480 C   0  0  0  0  0  0  0  0  0  0  0  0
   -2.2340    4.0150    0.4670 C   0  0  0  0  0  0  0  0  0  0  0  0
   -3.3030    3.9180    1.1350 O   0  0  0  0  0  0  0  0  0  0  0  0
   -1.8090    2.8460   -0.2170 N   0  0  0  0  0  0  0  0  0  0  0  0
   -2.5220    1.6030   -0.1790 C   0  0  1  0  0  0  0  0  0  0  0  0
   -3.0800    1.1960   -1.5290 C   0  0  0  0  0  0  0  0  0  0  0  0
   -4.2070    0.2350   -1.2340 C   0  0  0  0  0  0  0  0  0  0  0  0
   -3.6610   -0.8630   -0.4020 C   0  0  0  0  0  0  0  0  0  0  0  0
   -2.5820   -0.7650    0.3470 C   0  0  0  0  0  0  0  0  0  0  0  0
   -2.1930   -1.9140    1.0840 N   0  0  0  0  0  0  0  0  0  0  0  0
   -2.4800   -3.2630    0.6520 C   0  0  0  0  0  0  0  0  0  0  0  0
   -2.3270   -3.7980   -0.5080 C   0  0  0  0  0  0  0  0  0  0  0  0
   -2.8230   -5.0850   -0.0940 C   0  0  0  0  0  0  0  0  0  0  0  0
   -3.0010   -4.4780    1.2380 C   0  0  0  0  0  0  0  0  0  0  0  0
   -1.7520    0.4860    0.4570 C   0  0  1  0  0  0  0  0  0  0  0  0
   -0.4610    0.3220   -0.1350 N   0  0  0  0  0  0  0  0  0  0  0  0
    0.6010    0.6100    0.7640 C   0  0  0  0  0  0  0  0  0  0  0  0
    0.4250    0.8620    1.9820 O   0  0  0  0  0  0  0  0  0  0  0  0
    1.9340    0.6140    0.2690 N   0  0  0  0  0  0  0  0  0  0  0  0
    2.2160    0.3330   -1.1210 C   0  0  0  0  0  0  0  0  0  0  0  0
    3.2680   -0.7340   -1.3000 C   0  0  0  0  0  0  0  0  0  0  0  0
    3.7250   -1.1890    0.0550 C   0  0  0  0  0  0  0  0  0  0  0  0
    4.2670    0.0430    0.7780 C   0  0  2  0  0  0  0  0  0  0  0  0
    5.2640    0.7890   -0.0880 C   0  0  0  0  0  0  0  0  0  0  0  0
    5.0170   -0.4130    2.0140 C   0  0  0  0  0  0  0  0  0  0  0  0
    3.0750    0.8980    1.1220 C   0  0  0  0  0  0  0  0  0  0  0  0
  1  2  1  0
  2  3  2  0
  2  4  1  0
  5  4  1  6
  5  6  1  0
  5 15  1  0
  6  7  1  0
  7  8  1  0
  8  9  2  0
  9 10  1  0
  9 15  1  0
 10 11  1  0
 11 12  2  0
 11 14  1  0
 12 13  1  0
 13 14  1  0
 15 16  1  6
 16 17  1  0
 17 18  2  0
 17 19  1  0
 19 20  1  0
 19 26  1  0
 20 21  1  0
 21 22  1  0
 22 23  1  0
 23 24  1  6
 23 25  1  0
 23 26  1  0
M  CHG  1  16   1
M  END
