
     RDKit          3D

 24 26  0  0  0  0  0  0  0  0999 V2000
   -1.9700   -0.1140    1.6930 N   0  0  0  0  0  0  0  0  0  0  0  0
   -2.2590    0.1590    0.3250 C   0  0  2  0  0  0  0  0  0  0  0  0
   -2.2330   -0.9980   -0.6050 C   0  0  2  0  0  0  0  0  0  0  0  0
   -3.2970   -2.0240   -0.3820 C   0  0  2  0  0  0  0  0  0  0  0  0
   -4.7070   -1.4930   -0.5090 C   0  0  0  0  0  0  0  0  0  0  0  0
   -4.8800   -1.7170    0.9770 C   0  0  0  0  0  0  0  0  0  0  0  0
   -3.6000   -2.4940    0.9780 C   0  0  0  0  0  0  0  0  0  0  0  0
   -0.8930   -1.6720   -0.6760 C   0  0  0  0  0  0  0  0  0  0  0  0
    0.2310   -0.7050   -0.3250 C   0  0  1  0  0  0  0  0  0  0  0  0
    1.4860   -1.1390   -0.8830 N   0  0  0  0  0  0  0  0  0  0  0  0
    2.7520   -0.5860   -0.5610 C   0  0  0  0  0  0  0  0  0  0  0  0
    3.8990   -1.0860   -1.1690 C   0  0  0  0  0  0  0  0  0  0  0  0
    5.1660   -0.6180   -0.8990 C   0  0  0  0  0  0  0  0  0  0  0  0
    5.3220    0.3890    0.0090 C   0  0  0  0  0  0  0  0  0  0  0  0
    6.6840    0.9330    0.3360 C   0  0  0  0  0  0  0  0  0  0  0  0
    6.5590    1.9330    1.2740 O   0  0  0  0  0  0  0  0  0  0  0  0
    4.1890    0.8840    0.6110 C   0  0  0  0  0  0  0  0  0  0  0  0
    2.9440    0.4020    0.3260 N   0  0  0  0  0  0  0  0  0  0  0  0
   -0.1520    0.6310   -0.9490 C   0  0  1  0  0  0  0  0  0  0  0  0
   -0.4660    0.4570   -2.3110 O   0  0  0  0  0  0  0  0  0  0  0  0
   -1.2820    1.2170   -0.1770 C   0  0  1  0  0  0  0  0  0  0  0  0
   -1.9290    2.1800   -0.9400 O   0  0  0  0  0  0  0  0  0  0  0  0
   -1.8320    3.4570   -0.3790 C   0  0  0  0  0  0  0  0  0  0  0  0
   -2.4920    4.3520   -1.1850 O   0  0  0  0  0  0  0  0  0  0  0  0
  2  1  1  1
  2  3  1  0
  2 21  1  0
  3  4  1  0
  3  8  1  1
  4  5  1  1
  4  7  1  0
  5  6  1  0
  6  7  1  0
  8  9  1  0
  9 10  1  6
  9 19  1  0
 10 11  1  0
 11 12  2  0
 11 18  1  0
 12 13  1  0
 13 14  2  0
 14 15  1  0
 14 17  1  0
 15 16  1  0
 17 18  2  0
 19 20  1  6
 19 21  1  0
 21 22  1  6
 22 23  1  0
 23 24  1  0
M  CHG  1  18   1
M  END
