
     RDKit          3D

 24 26  0  0  0  0  0  0  0  0999 V2000
   -2.6720    1.4250   -2.3070 C   0  0  0  0  0  0  0  0  0  0  0  0
   -3.0640    1.3380   -0.8380 C   0  0  2  0  0  0  0  0  0  0  0  0
   -1.8840    0.8670   -0.1370 N   0  0  0  0  0  0  0  0  0  0  0  0
   -2.2000    0.1970    1.0610 C   0  0  2  0  0  0  0  0  0  0  0  0
   -1.1860   -0.0200    2.0900 C   0  0  0  0  0  0  0  0  0  0  0  0
   -0.0240   -0.7710    1.8430 N   0  0  0  0  0  0  0  0  0  0  0  0
    1.0510   -0.5510    0.9640 C   0  0  0  0  0  0  0  0  0  0  0  0
    1.0600    0.4630    0.2520 O   0  0  0  0  0  0  0  0  0  0  0  0
    2.2100   -1.5060    0.8450 C   0  0  0  0  0  0  0  0  0  0  0  0
    3.1880   -1.0480   -0.1400 C   0  0  0  0  0  0  0  0  0  0  0  0
    3.3440   -1.5570   -1.4100 C   0  0  0  0  0  0  0  0  0  0  0  0
    4.3380   -0.8860   -2.0190 N   0  0  0  0  0  0  0  0  0  0  0  0
    4.8510    0.0530   -1.2000 C   0  0  0  0  0  0  0  0  0  0  0  0
    5.8640    0.9860   -1.3440 C   0  0  0  0  0  0  0  0  0  0  0  0
    6.1260    1.8080   -0.2700 C   0  0  0  0  0  0  0  0  0  0  0  0
    5.4060    1.7090    0.9110 C   0  0  0  0  0  0  0  0  0  0  0  0
    4.3980    0.7840    1.0600 C   0  0  0  0  0  0  0  0  0  0  0  0
    4.1220   -0.0510   -0.0120 C   0  0  0  0  0  0  0  0  0  0  0  0
   -2.8590   -1.1230    0.5950 C   0  0  1  0  0  0  0  0  0  0  0  0
   -2.9830   -2.0020    1.6540 O   0  0  0  0  0  0  0  0  0  0  0  0
   -4.2290   -0.6910    0.1290 C   0  0  2  0  0  0  0  0  0  0  0  0
   -4.8650   -1.7870   -0.5040 O   0  0  0  0  0  0  0  0  0  0  0  0
   -4.2740    0.5240   -0.7050 C   0  0  2  0  0  0  0  0  0  0  0  0
   -4.7790    0.1530   -1.9770 O   0  0  0  0  0  0  0  0  0  0  0  0
  2  1  1  6
  2  3  1  0
  2 23  1  0
  3  4  1  0
  4  5  1  6
  4 19  1  0
  5  6  1  0
  6  7  1  0
  7  8  2  0
  7  9  1  0
  9 10  1  0
 10 11  2  0
 10 18  1  0
 11 12  1  0
 12 13  1  0
 13 14  2  0
 13 18  1  0
 14 15  1  0
 15 16  2  0
 16 17  1  0
 17 18  2  0
 19 20  1  1
 19 21  1  0
 21 22  1  6
 21 23  1  0
 23 24  1  6
M  CHG  1   3   1
M  END
