
     RDKit          3D

 24 26  0  0  0  0  0  0  0  0999 V2000
   -5.9680    0.6770    0.5990 C   0  0  0  0  0  0  0  0  0  0  0  0
   -4.7030    0.5340   -0.2640 C   0  0  2  0  0  0  0  0  0  0  0  0
   -5.0260    1.2380   -1.5040 N   0  0  0  0  0  0  0  0  0  0  0  0
   -4.5480   -0.9470   -0.5020 C   0  0  0  0  0  0  0  0  0  0  0  0
   -3.5760   -1.4790    0.5290 C   0  0  1  0  0  0  0  0  0  0  0  0
   -3.5170   -2.8650    0.5280 O   0  0  0  0  0  0  0  0  0  0  0  0
   -2.2840   -0.8460    0.2240 C   0  0  0  0  0  0  0  0  0  0  0  0
   -1.1370   -1.5400    0.0240 C   0  0  0  0  0  0  0  0  0  0  0  0
    0.0660   -0.8750   -0.2690 C   0  0  0  0  0  0  0  0  0  0  0  0
    0.0660    0.4880   -0.3480 C   0  0  0  0  0  0  0  0  0  0  0  0
    1.2250    1.2960   -0.5520 C   0  0  0  0  0  0  0  0  0  0  0  0
    2.4870    1.1440   -0.4210 C   0  0  0  0  0  0  0  0  0  0  0  0
    3.3950    0.1290   -0.0060 C   0  0  0  0  0  0  0  0  0  0  0  0
    3.0460   -1.1190    0.5000 N   0  0  0  0  0  0  0  0  0  0  0  0
    4.7240    0.4380   -0.0630 C   0  0  0  0  0  0  0  0  0  0  0  0
    5.6750   -0.5980    0.3610 C   0  0  1  0  0  0  0  0  0  0  0  0
    7.0510   -0.2580   -0.1700 C   0  0  0  0  0  0  0  0  0  0  0  0
    7.8570   -0.4830    0.9460 O   0  0  0  0  0  0  0  0  0  0  0  0
    7.0680   -0.0470    2.0040 C   0  0  0  0  0  0  0  0  0  0  0  0
    5.8220   -0.6600    1.7470 O   0  0  0  0  0  0  0  0  0  0  0  0
   -1.1630    1.1630   -0.1320 C   0  0  0  0  0  0  0  0  0  0  0  0
   -1.2110    2.4390   -0.1980 O   0  0  0  0  0  0  0  0  0  0  0  0
   -2.2560    0.4840    0.1380 N   0  0  0  0  0  0  0  0  0  0  0  0
   -3.5320    1.1940    0.3670 C   0  0  0  0  0  0  0  0  0  0  0  0
  2  1  1  1
  2  3  1  0
  2  4  1  0
  2 24  1  0
  4  5  1  0
  5  6  1  6
  5  7  1  0
  7  8  2  0
  7 23  1  0
  8  9  1  0
  9 10  2  0
 10 11  1  0
 10 21  1  0
 11 12  2  3
 12 13  1  0
 13 14  1  0
 13 15  2  3
 16 15  1  1
 16 17  1  0
 16 20  1  0
 17 18  1  0
 18 19  1  0
 19 20  1  0
 21 22  2  0
 21 23  1  0
 23 24  1  0
M  CHG  1   3   1
M  END
