
     RDKit          3D

 23 25  0  0  0  0  0  0  0  0999 V2000
   -1.4100    5.8320    2.2240 N   0  0  0  0  0  0  0  0  0  0  0  0
   -1.0910    4.7340    2.0880 C   0  0  0  0  0  0  0  0  0  0  0  0
   -0.6580    3.3200    1.9190 C   0  0  0  0  0  0  0  0  0  0  0  0
    0.1650    3.1670    0.6680 C   0  0  0  0  0  0  0  0  0  0  0  0
    0.5300    1.8830    0.4290 O   0  0  0  0  0  0  0  0  0  0  0  0
   -0.1370    0.7370    0.1280 C   0  0  0  0  0  0  0  0  0  0  0  0
   -1.4970    0.6060   -0.0330 C   0  0  0  0  0  0  0  0  0  0  0  0
   -1.9900   -0.6310   -0.3460 C   0  0  0  0  0  0  0  0  0  0  0  0
   -1.2470   -1.7390   -0.5130 C   0  0  0  0  0  0  0  0  0  0  0  0
    0.1180   -1.6320   -0.3460 C   0  0  0  0  0  0  0  0  0  0  0  0
    0.6800   -0.4450   -0.0370 C   0  0  0  0  0  0  0  0  0  0  0  0
    2.0100   -0.2100    0.1480 O   0  0  0  0  0  0  0  0  0  0  0  0
    3.1840   -0.9020    0.0200 C   0  0  2  0  0  0  0  0  0  0  0  0
    3.9560   -0.7550    1.3240 C   0  0  0  0  0  0  0  0  0  0  0  0
    4.3970    0.7050    1.3080 C   0  0  0  0  0  0  0  0  0  0  0  0
    4.4380    1.1410   -0.1170 C   0  0  2  0  0  0  0  0  0  0  0  0
    3.5000    2.1820   -0.2920 O   0  0  0  0  0  0  0  0  0  0  0  0
    4.0320   -0.0380   -0.9570 C   0  0  0  0  0  0  0  0  0  0  0  0
   -2.1230   -2.9070   -0.9040 C   0  0  0  0  0  0  0  0  0  0  0  0
   -3.3950   -2.4910   -0.2000 C   0  0  2  0  0  0  0  0  0  0  0  0
   -4.5600   -3.2250   -0.5550 N   0  0  0  0  0  0  0  0  0  0  0  0
   -3.4510   -1.0060   -0.5580 C   0  0  2  0  0  0  0  0  0  0  0  0
   -3.7320   -0.7360   -1.9330 N   0  0  0  0  0  0  0  0  0  0  0  0
  1  2  3  0
  2  3  1  0
  3  4  1  0
  4  5  1  0
  5  6  1  0
  6  7  2  0
  6 11  1  0
  7  8  1  0
  8  9  2  0
  8 22  1  0
  9 10  1  0
  9 19  1  0
 10 11  2  0
 11 12  1  0
 13 12  1  1
 13 14  1  0
 13 18  1  0
 14 15  1  0
 15 16  1  0
 16 17  1  1
 16 18  1  0
 19 20  1  0
 20 21  1  6
 20 22  1  0
 22 23  1  6
M  CHG  2  21   1  23   1
M  END
