
     RDKit          3D

 23 24  0  0  0  0  0  0  0  0999 V2000
   -1.7500   -3.1340   -1.5330 C   0  0  0  0  0  0  0  0  0  0  0  0
   -1.0560   -2.1470   -0.6850 C   0  0  0  0  0  0  0  0  0  0  0  0
   -1.6390   -1.1770   -0.0010 C   0  0  0  0  0  0  0  0  0  0  0  0
   -3.1250   -1.0030   -0.0430 C   0  0  1  0  0  0  0  0  0  0  0  0
   -3.7870   -1.8400    0.9360 N   0  0  0  0  0  0  0  0  0  0  0  0
   -3.3870    0.4280    0.3200 C   0  0  0  0  0  0  0  0  0  0  0  0
   -2.0120    1.0590    0.5860 C   0  0  2  0  0  0  0  0  0  0  0  0
   -1.6950    1.9430   -0.5370 C   0  0  0  0  0  0  0  0  0  0  0  0
   -2.7600    2.9720   -0.5780 N   0  0  0  0  0  0  0  0  0  0  0  0
   -1.1520   -0.1280    0.8750 C   0  0  2  0  0  0  0  0  0  0  0  0
    0.2480    0.0910    0.9940 N   0  0  0  0  0  0  0  0  0  0  0  0
    0.8220   -0.0230    2.3540 C   0  0  0  0  0  0  0  0  0  0  0  0
    1.1380    0.3810   -0.0470 C   0  0  0  0  0  0  0  0  0  0  0  0
    0.5990    0.3690   -1.2150 O   0  0  0  0  0  0  0  0  0  0  0  0
    2.5550    0.6950   -0.0290 C   0  0  1  0  0  0  0  0  0  0  0  0
    2.9210    2.0800    0.4300 C   0  0  0  0  0  0  0  0  0  0  0  0
    4.3260    2.1680    0.3690 O   0  0  0  0  0  0  0  0  0  0  0  0
    3.4050   -0.2580    0.7800 C   0  0  0  0  0  0  0  0  0  0  0  0
    3.1720   -1.7050    0.3970 C   0  0  0  0  0  0  0  0  0  0  0  0
    3.5910   -1.8260   -0.9630 O   0  0  0  0  0  0  0  0  0  0  0  0
    3.9050   -0.6570   -1.6490 C   0  0  0  0  0  0  0  0  0  0  0  0
    4.8770   -0.6340   -2.4800 O   0  0  0  0  0  0  0  0  0  0  0  0
    3.1440    0.5800   -1.4490 C   0  0  0  0  0  0  0  0  0  0  0  0
  1  2  1  0
  2  3  2  3
  3  4  1  0
  3 10  1  0
  4  5  1  1
  4  6  1  0
  6  7  1  0
  7  8  1  6
  7 10  1  0
  8  9  1  0
 10 11  1  6
 11 12  1  0
 11 13  1  0
 13 14  2  0
 13 15  1  0
 15 16  1  1
 15 18  1  0
 15 23  1  0
 16 17  1  0
 18 19  1  0
 19 20  1  0
 20 21  1  0
 21 22  2  0
 21 23  1  0
M  CHG  2   5   1   9   1
M  END
