
     RDKit          3D

 22 23  0  0  0  0  0  0  0  0999 V2000
    1.8980    1.4200   -1.0890 C   0  0  0  0  0  0  0  0  0  0  0  0
    2.4400    0.0390   -1.0500 C   0  0  1  0  0  0  0  0  0  0  0  0
    3.0220   -0.2140   -2.3870 N   0  0  0  0  0  0  0  0  0  0  0  0
    3.6130   -0.1060   -0.1120 C   0  0  0  0  0  0  0  0  0  0  0  0
    3.2860    0.1480    1.3120 C   0  0  0  0  0  0  0  0  0  0  0  0
    2.1320   -0.6910    1.8190 C   0  0  0  0  0  0  0  0  0  0  0  0
    0.8060   -0.1070    1.3770 C   0  0  0  0  0  0  0  0  0  0  0  0
    0.3380   -0.7780    0.0990 C   0  0  1  0  0  0  0  0  0  0  0  0
   -0.7290   -0.1480   -0.5110 O   0  0  0  0  0  0  0  0  0  0  0  0
   -2.0830   -0.3570   -0.3340 C   0  0  0  0  0  0  0  0  0  0  0  0
   -2.8000   -1.3310   -0.9900 C   0  0  0  0  0  0  0  0  0  0  0  0
   -2.1250   -2.1990   -1.9270 C   0  0  0  0  0  0  0  0  0  0  0  0
   -2.7910   -3.0930   -2.5240 O   0  0  0  0  0  0  0  0  0  0  0  0
   -4.1620   -1.4600   -0.7450 C   0  0  0  0  0  0  0  0  0  0  0  0
   -4.8370   -0.6810    0.1080 N   0  0  0  0  0  0  0  0  0  0  0  0
   -4.1480    0.2730    0.7520 C   0  0  0  0  0  0  0  0  0  0  0  0
   -4.7520    1.0250    1.5630 O   0  0  0  0  0  0  0  0  0  0  0  0
   -2.7720    0.4500    0.5440 C   0  0  0  0  0  0  0  0  0  0  0  0
   -2.1100    1.5730    1.2850 C   0  0  1  0  0  0  0  0  0  0  0  0
   -3.0090    2.7380    1.1740 N   0  0  0  0  0  0  0  0  0  0  0  0
   -1.9290    1.3230    2.6210 O   0  0  0  0  0  0  0  0  0  0  0  0
    1.4370   -1.0510   -0.8430 C   0  0  0  0  0  0  0  0  0  0  0  0
  2  1  1  6
  2  3  1  0
  2  4  1  0
  2 22  1  0
  4  5  1  0
  5  6  1  0
  6  7  1  0
  7  8  1  0
  8  9  1  6
  8 22  1  0
  9 10  1  0
 10 11  1  0
 10 18  2  0
 11 12  1  0
 11 14  2  0
 12 13  2  0
 14 15  1  0
 15 16  1  0
 16 17  2  0
 16 18  1  0
 18 19  1  0
 19 20  1  1
 19 21  1  0
M  CHG  1   3   1
M  END
