
     RDKit          3D

 14 15  0  0  0  0  0  0  0  0999 V2000
   -0.2410   -1.5180   -1.0270 N   0  0  0  0  0  0  0  0  0  0  0  0
    0.3330   -0.2230   -0.6270 C   0  0  2  0  0  0  0  0  0  0  0  0
    1.6520   -0.4240   -0.0700 C   0  0  2  0  0  0  0  0  0  0  0  0
    1.8510   -1.2710    1.1340 C   0  0  0  0  0  0  0  0  0  0  0  0
    3.1780   -0.9740    1.4500 O   0  0  0  0  0  0  0  0  0  0  0  0
    3.4970    0.1880    0.9930 O   0  0  0  0  0  0  0  0  0  0  0  0
    2.3990    0.8110    0.4110 C   0  0  1  0  0  0  0  0  0  0  0  0
    2.7210    1.6700   -0.6130 O   0  0  0  0  0  0  0  0  0  0  0  0
   -0.6970    0.5650    0.0620 C   0  0  1  0  0  0  0  0  0  0  0  0
   -0.2710    1.8080    0.5200 O   0  0  0  0  0  0  0  0  0  0  0  0
   -1.7640    0.9030   -1.0060 C   0  0  0  0  0  0  0  0  0  0  0  0
   -3.0310    0.3240   -0.4340 C   0  0  0  0  0  0  0  0  0  0  0  0
   -2.6420   -0.6620    0.4390 O   0  0  0  0  0  0  0  0  0  0  0  0
   -1.5260   -0.1110    1.0860 C   0  0  0  0  0  0  0  0  0  0  0  0
  2  1  1  1
  2  3  1  0
  2  9  1  0
  3  4  1  1
  3  7  1  0
  4  5  1  0
  5  6  1  0
  6  7  1  0
  7  8  1  6
  9 10  1  1
  9 11  1  0
  9 14  1  0
 11 12  1  0
 12 13  1  0
 13 14  1  0
M  CHG  1   1   1
M  END
