
     RDKit          3D

 23 25  0  0  0  0  0  0  0  0999 V2000
   -2.4790    1.9010    1.5230 C   0  0  0  0  0  0  0  0  0  0  0  0
   -2.6690    0.6540    0.7210 C   0  0  2  0  0  0  0  0  0  0  0  0
   -1.7950    0.6180   -0.4500 N   0  0  0  0  0  0  0  0  0  0  0  0
   -1.7410   -0.7750   -0.8630 C   0  0  2  0  0  0  0  0  0  0  0  0
   -0.6900   -1.0120   -1.9210 C   0  0  0  0  0  0  0  0  0  0  0  0
    0.6360   -0.6580   -1.4480 N   0  0  0  0  0  0  0  0  0  0  0  0
    1.2230   -1.2890   -0.3190 C   0  0  0  0  0  0  0  0  0  0  0  0
    0.6160   -2.1850    0.3200 O   0  0  0  0  0  0  0  0  0  0  0  0
    2.5590   -0.9230    0.1460 C   0  0  0  0  0  0  0  0  0  0  0  0
    3.3510    0.0370   -0.4440 C   0  0  0  0  0  0  0  0  0  0  0  0
    4.5280    0.1060    0.2620 C   0  0  0  0  0  0  0  0  0  0  0  0
    5.6800    0.8870    0.1200 C   0  0  0  0  0  0  0  0  0  0  0  0
    6.7220    0.7270    1.0030 C   0  0  0  0  0  0  0  0  0  0  0  0
    6.5930   -0.1980    1.9960 C   0  0  0  0  0  0  0  0  0  0  0  0
    5.4780   -0.9670    2.1490 C   0  0  0  0  0  0  0  0  0  0  0  0
    4.4090   -0.8270    1.2700 C   0  0  0  0  0  0  0  0  0  0  0  0
    3.2380   -1.3960    1.1520 O   0  0  0  0  0  0  0  0  0  0  0  0
   -3.0880   -1.1390   -1.4070 C   0  0  1  0  0  0  0  0  0  0  0  0
   -3.0880   -2.5100   -1.6760 O   0  0  0  0  0  0  0  0  0  0  0  0
   -4.1890   -0.8760   -0.4140 C   0  0  2  0  0  0  0  0  0  0  0  0
   -5.4180   -1.0520   -1.0010 O   0  0  0  0  0  0  0  0  0  0  0  0
   -4.0840    0.5060    0.2000 C   0  0  2  0  0  0  0  0  0  0  0  0
   -4.3230    1.4700   -0.7700 O   0  0  0  0  0  0  0  0  0  0  0  0
  2  1  1  6
  2  3  1  0
  2 22  1  0
  3  4  1  0
  4  5  1  6
  4 18  1  0
  5  6  1  0
  6  7  1  0
  7  8  2  0
  7  9  1  0
  9 10  2  0
  9 17  1  0
 10 11  1  0
 11 12  2  0
 11 16  1  0
 12 13  1  0
 13 14  2  0
 14 15  1  0
 15 16  2  0
 16 17  1  0
 18 19  1  1
 18 20  1  0
 20 21  1  6
 20 22  1  0
 22 23  1  6
M  CHG  1   3   1
M  END
