
     RDKit          3D

 14 14  0  0  0  0  0  0  0  0999 V2000
    1.3340   -0.1300    1.4950 N   0  0  0  0  0  0  0  0  0  0  0  0
    0.5290    0.0920    0.2810 C   0  0  2  0  0  0  0  0  0  0  0  0
    1.3170   -0.5400   -0.8500 C   0  0  1  0  0  0  0  0  0  0  0  0
    0.6980   -0.4210   -2.0750 O   0  0  0  0  0  0  0  0  0  0  0  0
    2.5990   -0.0170   -0.9430 O   0  0  0  0  0  0  0  0  0  0  0  0
    3.5380   -0.8970   -0.8050 O   0  0  0  0  0  0  0  0  0  0  0  0
    0.4650    1.5570    0.0510 C   0  0  0  0  0  0  0  0  0  0  0  0
   -0.6560    2.0000   -0.8460 C   0  0  0  0  0  0  0  0  0  0  0  0
   -1.9770    1.5120   -0.2730 C   0  0  0  0  0  0  0  0  0  0  0  0
   -1.9090   -0.0070   -0.3200 C   0  0  0  0  0  0  0  0  0  0  0  0
   -0.7900   -0.5480    0.5090 C   0  0  2  0  0  0  0  0  0  0  0  0
   -1.1390   -0.3380    1.8580 O   0  0  0  0  0  0  0  0  0  0  0  0
   -0.7450   -2.0460    0.3150 C   0  0  0  0  0  0  0  0  0  0  0  0
   -2.0090   -2.5730    0.6060 O   0  0  0  0  0  0  0  0  0  0  0  0
  2  1  1  1
  2  3  1  0
  2  7  1  0
  2 11  1  0
  3  4  1  6
  3  5  1  0
  5  6  1  0
  7  8  1  0
  8  9  1  0
  9 10  1  0
 10 11  1  0
 11 12  1  1
 11 13  1  0
 13 14  1  0
M  CHG  1   1   1
M  END
