
     RDKit          3D

 14 14  0  0  0  0  0  0  0  0999 V2000
   -1.1750   -1.8520   -1.0450 N   0  0  0  0  0  0  0  0  0  0  0  0
   -1.5330   -0.6030   -0.4880 C   0  0  1  0  0  0  0  0  0  0  0  0
   -2.6380   -0.8890    0.5450 C   0  0  0  0  0  0  0  0  0  0  0  0
   -2.0800   -1.7520    1.4910 O   0  0  0  0  0  0  0  0  0  0  0  0
   -0.4970    0.1870    0.2080 C   0  0  2  0  0  0  0  0  0  0  0  0
   -1.1800    1.3460    0.6280 O   0  0  0  0  0  0  0  0  0  0  0  0
   -0.7020    2.4930    0.0780 C   0  0  0  0  0  0  0  0  0  0  0  0
    0.7190    2.6610    0.5490 C   0  0  0  0  0  0  0  0  0  0  0  0
    1.4050    1.5340    0.2520 O   0  0  0  0  0  0  0  0  0  0  0  0
    0.7010    0.6010   -0.5230 C   0  0  1  0  0  0  0  0  0  0  0  0
    1.7380   -0.4400   -0.8060 C   0  0  1  0  0  0  0  0  0  0  0  0
    2.7670    0.2540   -1.5080 O   0  0  0  0  0  0  0  0  0  0  0  0
    2.4200   -0.9940    0.4020 C   0  0  0  0  0  0  0  0  0  0  0  0
    1.6470   -1.7210    1.2580 O   0  0  0  0  0  0  0  0  0  0  0  0
  2  1  1  1
  2  3  1  0
  2  5  1  0
  3  4  1  0
  5  6  1  6
  5 10  1  0
  6  7  1  0
  7  8  1  0
  8  9  1  0
 10  9  1  1
 10 11  1  0
 11 12  1  6
 11 13  1  0
 13 14  1  0
M  CHG  1   1   1
M  END
