
     RDKit          3D

 19 20  0  0  0  0  0  0  0  0999 V2000
   -3.5700   -1.4570    0.0350 C   0  0  0  0  0  0  0  0  0  0  0  0
   -2.3520   -0.6900   -0.5000 C   0  0  0  0  0  0  0  0  0  0  0  0
   -1.4920   -0.3630    0.6880 C   0  0  1  0  0  0  0  0  0  0  0  0
   -1.0130   -1.5790    1.4400 C   0  0  0  0  0  0  0  0  0  0  0  0
    0.3390   -1.7670    1.2880 O   0  0  0  0  0  0  0  0  0  0  0  0
    0.7280   -2.3690    0.1150 C   0  0  0  0  0  0  0  0  0  0  0  0
    1.5620   -1.3890   -0.6770 C   0  0  0  0  0  0  0  0  0  0  0  0
    2.3500   -0.5610    0.2090 N   0  0  0  0  0  0  0  0  0  0  0  0
    3.3510    0.3570   -0.1390 C   0  0  0  0  0  0  0  0  0  0  0  0
    4.3810    0.2610    0.6560 O   0  0  0  0  0  0  0  0  0  0  0  0
    3.4240    1.3150   -1.1540 N   0  0  0  0  0  0  0  0  0  0  0  0
    2.6980    2.4790   -1.3780 N   0  0  0  0  0  0  0  0  0  0  0  0
    1.5990    3.0900   -0.7640 C   0  0  0  0  0  0  0  0  0  0  0  0
    1.8200    4.2090   -0.0910 O   0  0  0  0  0  0  0  0  0  0  0  0
    0.1860    2.7580   -0.6940 C   0  0  0  0  0  0  0  0  0  0  0  0
   -0.6980    3.7370   -0.8390 O   0  0  0  0  0  0  0  0  0  0  0  0
   -0.4640    1.5260   -0.4900 N   0  0  0  0  0  0  0  0  0  0  0  0
   -0.5660    0.7540    0.7360 C   0  0  1  0  0  0  0  0  0  0  0  0
   -1.9280    0.7840    1.4880 C   0  0  0  0  0  0  0  0  0  0  0  0
  1  2  1  0
  3  2  1  6
  3  4  1  0
  3 18  1  0
  3 19  1  0
  4  5  1  0
  5  6  1  0
  6  7  1  0
  7  8  1  0
  8  9  1  0
  9 10  2  0
  9 11  1  0
 11 12  1  0
 12 13  1  0
 13 14  2  0
 13 15  1  0
 15 16  2  0
 15 17  1  0
 17 18  1  0
 18 19  1  1
M  END
