
     RDKit          3D

 20 21  0  0  0  0  0  0  0  0999 V2000
    3.3160    2.2350   -0.6680 C   0  0  0  0  0  0  0  0  0  0  0  0
    2.6090    1.3020   -0.0760 C   0  0  0  0  0  0  0  0  0  0  0  0
    1.1430    1.4230    0.0400 C   0  0  0  0  0  0  0  0  0  0  0  0
    0.3270    0.3630    0.1080 C   0  0  0  0  0  0  0  0  0  0  0  0
   -1.0850    0.4890    0.2220 N   0  0  0  0  0  0  0  0  0  0  0  0
   -2.0770   -0.3720    0.0480 C   0  0  0  0  0  0  0  0  0  0  0  0
   -1.9780   -1.6950   -0.4400 N   0  0  0  0  0  0  0  0  0  0  0  0
   -3.2890    0.2500    0.3840 C   0  0  0  0  0  0  0  0  0  0  0  0
   -4.5710   -0.4420    0.2990 C   0  0  0  0  0  0  0  0  0  0  0  0
   -4.6800   -1.6150   -0.0720 O   0  0  0  0  0  0  0  0  0  0  0  0
   -5.7130    0.2620    0.6540 O   0  0  0  0  0  0  0  0  0  0  0  0
   -3.0160    1.4900    0.7590 N   0  0  0  0  0  0  0  0  0  0  0  0
   -1.6690    1.6500    0.6650 C   0  0  0  0  0  0  0  0  0  0  0  0
   -1.1220    2.7380    0.9620 O   0  0  0  0  0  0  0  0  0  0  0  0
    1.0190   -0.9130    0.1130 C   0  0  0  0  0  0  0  0  0  0  0  0
    0.4190   -1.9900    0.1780 O   0  0  0  0  0  0  0  0  0  0  0  0
    2.4620   -1.0180    0.0450 N   0  0  0  0  0  0  0  0  0  0  0  0
    3.0610   -2.2070   -0.4620 C   0  0  0  0  0  0  0  0  0  0  0  0
    3.2550    0.0960    0.4970 C   0  0  1  0  0  0  0  0  0  0  0  0
    5.0970   -0.0490    0.0510 Br  0  0  0  0  0  0  0  0  0  0  0  0
  1  2  2  0
  2  3  1  0
  2 19  1  0
  3  4  2  0
  4  5  1  0
  4 15  1  0
  5  6  1  0
  5 13  1  0
  6  7  1  0
  6  8  2  0
  8  9  1  0
  8 12  1  0
  9 10  2  0
  9 11  1  0
 12 13  1  0
 13 14  2  0
 15 16  2  0
 15 17  1  0
 17 18  1  0
 17 19  1  0
 19 20  1  6
M  END
