
     RDKit          3D

 19 20  0  0  0  0  0  0  0  0999 V2000
   -0.9630   -0.3010   -2.3000 C   0  0  0  0  0  0  0  0  0  0  0  0
   -1.2630   -0.7350   -0.9070 C   0  0  2  0  0  0  0  0  0  0  0  0
   -1.4670   -2.2890   -0.8850 C   0  0  0  0  0  0  0  0  0  0  0  0
   -2.4870   -0.2120   -0.5100 O   0  0  0  0  0  0  0  0  0  0  0  0
   -2.3040    0.4020    0.7220 C   0  0  1  0  0  0  0  0  0  0  0  0
   -2.3050    1.9170    0.4460 C   0  0  0  0  0  0  0  0  0  0  0  0
   -3.4650    0.1380    1.6720 C   0  0  0  0  0  0  0  0  0  0  0  0
   -3.6540   -1.1950    1.9500 O   0  0  0  0  0  0  0  0  0  0  0  0
   -1.0530   -0.1020    1.3170 C   0  0  0  0  0  0  0  0  0  0  0  0
   -0.2100   -0.4510    0.0450 C   0  0  2  0  0  0  0  0  0  0  0  0
    0.8230    0.4590   -0.0540 N   0  0  0  0  0  0  0  0  0  0  0  0
    1.8160    0.4440   -1.0840 C   0  0  0  0  0  0  0  0  0  0  0  0
    3.1300    0.5180   -0.4190 N   0  0  0  0  0  0  0  0  0  0  0  0
    3.8330   -0.6320   -0.1700 C   0  0  0  0  0  0  0  0  0  0  0  0
    3.5110   -1.7620   -0.5600 O   0  0  0  0  0  0  0  0  0  0  0  0
    4.9260   -0.3120    0.5650 N   0  0  0  0  0  0  0  0  0  0  0  0
    4.9080    0.9850    0.7630 N   0  0  0  0  0  0  0  0  0  0  0  0
    3.8150    1.5300    0.1690 C   0  0  0  0  0  0  0  0  0  0  0  0
    3.4430    2.7220    0.1330 O   0  0  0  0  0  0  0  0  0  0  0  0
  2  1  1  6
  2  3  1  0
  2  4  1  0
  2 10  1  0
  4  5  1  0
  5  6  1  6
  5  7  1  0
  5  9  1  0
  7  8  1  0
  9 10  1  0
 10 11  1  6
 11 12  1  0
 12 13  1  0
 13 14  1  0
 13 18  1  0
 14 15  2  0
 14 16  1  0
 16 17  1  0
 17 18  1  0
 18 19  2  0
M  END
