
     RDKit          3D

 27 29  0  0  0  0  0  0  0  0999 V2000
    5.6650    3.1120    1.6940 C   0  0  0  0  0  0  0  0  0  0  0  0
    4.6610    2.9610    0.5640 C   0  0  0  0  0  0  0  0  0  0  0  0
    4.5800    1.5040    0.2110 C   0  0  0  0  0  0  0  0  0  0  0  0
    3.4580    0.8480    0.2950 C   0  0  0  0  0  0  0  0  0  0  0  0
    3.3260   -0.5510   -0.0320 C   0  0  0  0  0  0  0  0  0  0  0  0
    4.4290   -1.2700   -0.4760 C   0  0  0  0  0  0  0  0  0  0  0  0
    4.2980   -2.6070   -0.8020 C   0  0  0  0  0  0  0  0  0  0  0  0
    3.0710   -3.2170   -0.6840 C   0  0  0  0  0  0  0  0  0  0  0  0
    2.9630   -4.6230   -1.0240 C   0  0  0  0  0  0  0  0  0  0  0  0
    3.9560   -5.2600   -1.4170 O   0  0  0  0  0  0  0  0  0  0  0  0
    1.7010   -5.2280   -0.8930 O   0  0  0  0  0  0  0  0  0  0  0  0
    1.9650   -2.4820   -0.2340 C   0  0  0  0  0  0  0  0  0  0  0  0
    2.0870   -1.1500    0.0940 C   0  0  0  0  0  0  0  0  0  0  0  0
    0.9420   -0.4500    0.6100 C   0  0  0  0  0  0  0  0  0  0  0  0
    1.0810    0.1460    1.7350 O   0  0  0  0  0  0  0  0  0  0  0  0
   -0.3610   -0.3550   -0.0240 C   0  0  0  0  0  0  0  0  0  0  0  0
   -0.5230   -0.5170   -1.3670 C   0  0  0  0  0  0  0  0  0  0  0  0
   -1.7890   -0.4270   -1.9330 C   0  0  0  0  0  0  0  0  0  0  0  0
   -2.9230   -0.1700   -1.1560 C   0  0  0  0  0  0  0  0  0  0  0  0
   -2.7380   -0.0120    0.1860 C   0  0  0  0  0  0  0  0  0  0  0  0
   -1.4640   -0.1010    0.7700 C   0  0  0  0  0  0  0  0  0  0  0  0
   -4.0580    0.2190    0.8250 C   0  0  2  0  0  0  0  0  0  0  0  0
   -4.1460    1.6700    1.2210 C   0  0  0  0  0  0  0  0  0  0  0  0
   -4.1700   -0.6370    2.0920 C   0  0  0  0  0  0  0  0  0  0  0  0
   -5.0440   -0.2080   -0.2050 C   0  0  0  0  0  0  0  0  0  0  0  0
   -4.3470   -0.0210   -1.5330 C   0  0  1  0  0  0  0  0  0  0  0  0
   -4.6650    1.3400   -2.1130 C   0  0  0  0  0  0  0  0  0  0  0  0
  1  2  1  0
  2  3  1  0
  3  4  2  3
  4  5  1  0
  5  6  2  0
  5 13  1  0
  6  7  1  0
  7  8  2  0
  8  9  1  0
  8 12  1  0
  9 10  2  0
  9 11  1  0
 12 13  2  0
 13 14  1  0
 14 15  2  0
 14 16  1  0
 16 17  2  0
 16 21  1  0
 17 18  1  0
 18 19  2  0
 19 20  1  0
 19 26  1  0
 20 21  2  0
 20 22  1  0
 22 23  1  1
 22 24  1  0
 22 25  1  0
 25 26  1  0
 26 27  1  1
M  CHG  1  11  -1
M  END
