
     RDKit          3D

 12 12  0  0  0  0  0  0  0  0999 V2000
   -1.6880    0.9440   -0.9780 C   0  0  0  0  0  0  0  0  0  0  0  0
   -1.8280    0.0010    0.1810 C   0  0  1  0  0  0  0  0  0  0  0  0
   -2.5680   -1.2180   -0.2480 C   0  0  0  0  0  0  0  0  0  0  0  0
   -0.5320   -0.2710    0.8990 C   0  0  2  0  0  0  0  0  0  0  0  0
   -0.0550    1.0030    1.3860 N   0  0  0  0  0  0  0  0  0  0  0  0
    1.3880    1.0680    1.4800 C   0  0  0  0  0  0  0  0  0  0  0  0
    1.8250    1.0040    0.0080 C   0  0  1  0  0  0  0  0  0  0  0  0
    3.1370    1.4100   -0.1330 O   0  0  0  0  0  0  0  0  0  0  0  0
    1.6400   -0.4250   -0.4000 C   0  0  2  0  0  0  0  0  0  0  0  0
    1.6390   -0.4340   -1.8170 O   0  0  0  0  0  0  0  0  0  0  0  0
    0.4450   -1.0950    0.1800 C   0  0  2  0  0  0  0  0  0  0  0  0
   -0.1300   -1.8360   -0.8850 O   0  0  0  0  0  0  0  0  0  0  0  0
  2  1  1  6
  2  3  1  0
  2  4  1  0
  4  5  1  6
  4 11  1  0
  5  6  1  0
  6  7  1  0
  7  8  1  1
  7  9  1  0
  9 10  1  6
  9 11  1  0
 11 12  1  6
M  CHG  1   5   1
M  END
