
     RDKit          3D

 29 29  0  0  0  0  0  0  0  0999 V2000
    1.6980   -4.3060   -1.7780 C   0  0  0  0  0  0  0  0  0  0  0  0
    0.4830   -3.5390   -1.4000 C   0  0  0  0  0  0  0  0  0  0  0  0
    0.3740   -2.9000   -0.2560 C   0  0  0  0  0  0  0  0  0  0  0  0
    1.4580   -2.9450    0.6450 O   0  0  0  0  0  0  0  0  0  0  0  0
    1.8880   -1.9330    1.5430 C   0  0  0  0  0  0  0  0  0  0  0  0
    0.7420   -1.1090    2.0600 C   0  0  0  0  0  0  0  0  0  0  0  0
    0.1600   -0.1820    0.9540 C   0  0  1  0  0  0  0  0  0  0  0  0
    1.2130   -0.1090   -0.0230 N   0  0  0  0  0  0  0  0  0  0  0  0
    2.0830    1.0460    0.0310 C   0  0  0  0  0  0  0  0  0  0  0  0
    1.8730    1.8970    0.9180 O   0  0  0  0  0  0  0  0  0  0  0  0
    3.1670    1.2150   -0.9120 C   0  0  0  0  0  0  0  0  0  0  0  0
    4.0230    2.2040   -0.9720 C   0  0  0  0  0  0  0  0  0  0  0  0
    4.1130    3.3860   -0.1130 C   0  0  0  0  0  0  0  0  0  0  0  0
    3.9450    4.6800   -0.8900 C   0  0  0  0  0  0  0  0  0  0  0  0
   -1.1060   -0.8080    0.5560 C   0  0  1  0  0  0  0  0  0  0  0  0
   -1.7600   -1.1700    1.7720 O   0  0  0  0  0  0  0  0  0  0  0  0
   -2.1960   -0.0540    2.4480 C   0  0  0  0  0  0  0  0  0  0  0  0
   -2.0400   -0.1420   -0.1430 O   0  0  0  0  0  0  0  0  0  0  0  0
   -1.8410    0.3660   -1.3530 C   0  0  0  0  0  0  0  0  0  0  0  0
   -0.8370    1.3400   -1.4010 O   0  0  0  0  0  0  0  0  0  0  0  0
   -0.8560    2.5410   -0.7280 C   0  0  0  0  0  0  0  0  0  0  0  0
   -1.8940    3.0710   -0.1130 C   0  0  0  0  0  0  0  0  0  0  0  0
   -1.7530    4.3980    0.5820 C   0  0  0  0  0  0  0  0  0  0  0  0
   -3.1450    2.5000   -0.0450 O   0  0  0  0  0  0  0  0  0  0  0  0
   -4.3070    3.2970   -0.1850 C   0  0  0  0  0  0  0  0  0  0  0  0
   -0.8710   -2.2020   -0.0350 C   0  0  0  0  0  0  0  0  0  0  0  0
   -2.2650   -2.9520   -0.4260 P   0  0  0  0  0  0  0  0  0  0  0  0
   -2.4540   -4.6370   -1.1340 C   0  0  0  0  0  0  0  0  0  0  0  0
   -1.5250   -5.6660   -0.5670 C   0  0  0  0  0  0  0  0  0  0  0  0
  1  2  1  0
  2  3  2  3
  3  4  1  0
  3 26  1  0
  4  5  1  0
  5  6  1  0
  6  7  1  0
  7  8  1  6
  7 15  1  0
  8  9  1  0
  9 10  2  0
  9 11  1  0
 11 12  2  3
 12 13  1  0
 13 14  1  0
 15 16  1  1
 15 18  1  0
 15 26  1  0
 16 17  1  0
 18 19  1  0
 19 20  1  0
 20 21  1  0
 21 22  2  3
 22 23  1  0
 22 24  1  0
 24 25  1  0
 26 27  2  3
 27 28  1  0
 28 29  1  0
M  END
