
     RDKit          3D

 29 30  0  0  0  0  0  0  0  0999 V2000
   -1.5370    5.2530   -1.9090 C   0  0  0  0  0  0  0  0  0  0  0  0
   -0.9590    4.2170   -1.3460 C   0  0  0  0  0  0  0  0  0  0  0  0
   -1.7990    3.2000   -0.6520 C   0  0  0  0  0  0  0  0  0  0  0  0
   -1.6230    1.9520   -1.2540 O   0  0  0  0  0  0  0  0  0  0  0  0
   -2.3280    0.8480   -0.7480 C   0  0  0  0  0  0  0  0  0  0  0  0
   -1.7820   -0.3260   -0.6720 C   0  0  0  0  0  0  0  0  0  0  0  0
   -0.5260   -0.5210   -1.0770 O   0  0  0  0  0  0  0  0  0  0  0  0
    0.6740   -0.3590   -0.4570 C   0  0  0  0  0  0  0  0  0  0  0  0
    1.8560   -0.1990   -0.9850 C   0  0  0  0  0  0  0  0  0  0  0  0
    1.9880   -0.1830   -2.4460 C   0  0  1  0  0  0  0  0  0  0  0  0
    0.6940   -0.4250   -3.1500 C   0  0  0  0  0  0  0  0  0  0  0  0
    2.5080    1.1690   -2.9630 C   0  0  0  0  0  0  0  0  0  0  0  0
    3.0880   -0.0310   -0.1520 C   0  0  0  0  0  0  0  0  0  0  0  0
    4.2530    0.0850   -0.7840 C   0  0  0  0  0  0  0  0  0  0  0  0
    5.5090    0.2560   -0.0460 C   0  0  0  0  0  0  0  0  0  0  0  0
    3.1050   -0.0220    1.2440 N   0  0  0  0  0  0  0  0  0  0  0  0
    2.1620   -0.6450    2.1420 C   0  0  1  0  0  0  0  0  0  0  0  0
    2.4080   -2.0980    2.3710 C   0  0  0  0  0  0  0  0  0  0  0  0
    2.1550    0.0640    3.4810 C   0  0  0  0  0  0  0  0  0  0  0  0
    0.4910   -0.3830    1.3950 P   0  0  0  0  0  0  0  0  0  0  0  0
   -0.1130    1.2090    1.8200 O   0  0  0  0  0  0  0  0  0  0  0  0
   -2.5150   -1.4980   -0.1380 C   0  0  1  0  0  0  0  0  0  0  0  0
   -1.8520   -2.8000   -0.5030 C   0  0  0  0  0  0  0  0  0  0  0  0
   -2.6340   -1.4360    1.2230 O   0  0  0  0  0  0  0  0  0  0  0  0
   -3.2930   -2.5000    1.7690 C   0  0  0  0  0  0  0  0  0  0  0  0
   -3.3140   -2.2540    3.2880 C   0  0  0  0  0  0  0  0  0  0  0  0
   -4.2010   -1.4730   -0.9460 P   0  0  0  0  0  0  0  0  0  0  0  0
   -4.7260    0.3010   -0.7200 C   0  0  0  0  0  0  0  0  0  0  0  0
   -3.6180    1.0970   -0.3460 O   0  0  0  0  0  0  0  0  0  0  0  0
  1  2  2  0
  2  3  1  0
  3  4  1  0
  4  5  1  0
  5  6  2  0
  5 29  1  0
  6  7  1  0
  6 22  1  0
  7  8  1  0
  8  9  2  0
  8 20  1  0
  9 10  1  0
  9 13  1  0
 10 11  1  6
 10 12  1  0
 13 14  2  3
 13 16  1  0
 14 15  1  0
 16 17  1  0
 17 18  1  1
 17 19  1  0
 17 20  1  0
 20 21  1  0
 22 23  1  1
 22 24  1  0
 22 27  1  0
 24 25  1  0
 25 26  1  0
 27 28  1  0
 28 29  1  0
M  END
