
     RDKit          3D

 29 30  0  0  0  0  0  0  0  0999 V2000
    9.7170    2.5220   -0.7840 C   0  0  0  0  0  0  0  0  0  0  0  0
    8.7330    1.1810   -1.6010 P   0  0  0  0  0  0  0  0  0  0  0  0
    8.1190    0.0240   -0.2620 C   0  0  0  0  0  0  0  0  0  0  0  0
    7.0530   -0.8830   -0.8610 C   0  0  0  0  0  0  0  0  0  0  0  0
    6.5500   -1.7970    0.1390 N   0  0  0  0  0  0  0  0  0  0  0  0
    5.7900   -1.1680    1.1850 C   0  0  0  0  0  0  0  0  0  0  0  0
    4.4930   -0.6480    0.6050 C   0  0  0  0  0  0  0  0  0  0  0  0
    3.4630    0.1890    1.9050 P   0  0  0  0  0  0  0  0  0  0  0  0
    1.7850   -0.5110    1.8730 C   0  0  0  0  0  0  0  0  0  0  0  0
    1.0160   -0.6550    0.8350 C   0  0  0  0  0  0  0  0  0  0  0  0
    1.4500   -0.2320   -0.5520 C   0  0  0  0  0  0  0  0  0  0  0  0
   -0.3440   -1.2420    0.9650 C   0  0  0  0  0  0  0  0  0  0  0  0
   -0.4240   -2.3720    0.1920 O   0  0  0  0  0  0  0  0  0  0  0  0
   -1.6480   -3.0230    0.2670 C   0  0  0  0  0  0  0  0  0  0  0  0
   -2.7170   -2.1000   -0.1680 C   0  0  0  0  0  0  0  0  0  0  0  0
   -3.1170   -1.9620   -1.4910 C   0  0  0  0  0  0  0  0  0  0  0  0
   -4.1220   -1.1010   -1.8670 C   0  0  0  0  0  0  0  0  0  0  0  0
   -4.7610   -0.3440   -0.9070 C   0  0  0  0  0  0  0  0  0  0  0  0
   -4.3490   -0.4940    0.4070 C   0  0  0  0  0  0  0  0  0  0  0  0
   -3.3480   -1.3470    0.8120 C   0  0  0  0  0  0  0  0  0  0  0  0
   -4.8910    0.1980    1.4850 O   0  0  0  0  0  0  0  0  0  0  0  0
   -6.1980    0.7320    1.6540 C   0  0  0  0  0  0  0  0  0  0  0  0
   -7.0900    0.3700    0.4870 C   0  0  0  0  0  0  0  0  0  0  0  0
   -6.6940    1.2120   -0.7140 C   0  0  2  0  0  0  0  0  0  0  0  0
   -7.7810    1.5930   -1.4590 O   0  0  0  0  0  0  0  0  0  0  0  0
   -7.8500    2.9840   -1.4690 C   0  0  0  0  0  0  0  0  0  0  0  0
   -8.9860    3.5010   -2.2400 C   0  0  0  0  0  0  0  0  0  0  0  0
   -9.1400    4.7040   -2.3070 O   0  0  0  0  0  0  0  0  0  0  0  0
   -5.7470    0.4700   -1.4540 O   0  0  0  0  0  0  0  0  0  0  0  0
  1  2  1  0
  2  3  1  0
  3  4  1  0
  4  5  1  0
  5  6  1  0
  6  7  1  0
  7  8  1  0
  8  9  1  0
  9 10  2  3
 10 11  1  0
 10 12  1  0
 12 13  1  0
 13 14  1  0
 14 15  1  0
 15 16  2  0
 15 20  1  0
 16 17  1  0
 17 18  2  0
 18 19  1  0
 18 29  1  0
 19 20  2  0
 19 21  1  0
 21 22  1  0
 22 23  1  0
 23 24  1  0
 24 25  1  6
 24 29  1  0
 25 26  1  0
 26 27  1  0
 27 28  2  0
M  END
