
     RDKit          3D

 16 16  0  0  0  0  0  0  0  0999 V2000
    5.4390    0.8040    1.6430 O   0  0  0  0  0  0  0  0  0  0  0  0
    4.3600    0.9740    1.0240 C   0  0  0  0  0  0  0  0  0  0  0  0
    4.0050    2.2830    0.7330 O   0  0  0  0  0  0  0  0  0  0  0  0
    3.5590   -0.2050    0.6560 C   0  0  0  0  0  0  0  0  0  0  0  0
    2.3720    0.1730   -0.0380 O   0  0  0  0  0  0  0  0  0  0  0  0
    1.4740   -0.7860   -0.4760 C   0  0  0  0  0  0  0  0  0  0  0  0
    1.7360   -1.9930   -0.2440 O   0  0  0  0  0  0  0  0  0  0  0  0
    0.2460   -0.4180   -1.1920 C   0  0  1  0  0  0  0  0  0  0  0  0
   -0.5760   -1.6280   -1.5700 C   0  0  0  0  0  0  0  0  0  0  0  0
   -1.8470   -1.0990   -1.7660 O   0  0  0  0  0  0  0  0  0  0  0  0
   -2.0300   -0.3300   -0.6290 C   0  0  2  0  0  0  0  0  0  0  0  0
   -3.0990    0.5130   -0.8100 O   0  0  0  0  0  0  0  0  0  0  0  0
   -4.4090    0.2580    0.2540 P   0  0  0  0  0  0  0  0  0  0  0  0
   -5.3530    1.6700    0.5440 O   0  0  0  0  0  0  0  0  0  0  0  0
   -3.9750   -0.5690    1.6990 O   0  0  0  0  0  0  0  0  0  0  0  0
   -0.7400    0.3390   -0.3010 C   0  0  0  0  0  0  0  0  0  0  0  0
  1  2  2  0
  2  3  1  0
  2  4  1  0
  4  5  1  0
  5  6  1  0
  6  7  2  0
  8  6  1  1
  8  9  1  0
  8 16  1  0
  9 10  1  0
 10 11  1  0
 11 12  1  6
 11 16  1  0
 12 13  1  0
 13 14  1  0
 13 15  1  0
M  END
