
     RDKit          3D

 17 17  0  0  0  0  0  0  0  0999 V2000
    2.0770   -0.8850    2.2430 C   0  0  0  0  0  0  0  0  0  0  0  0
    1.3950   -0.0350    1.2140 C   0  0  1  0  0  0  0  0  0  0  0  0
    2.0210   -0.1750   -0.1560 C   0  0  0  0  0  0  0  0  0  0  0  0
    3.3620    0.2300   -0.0190 O   0  0  0  0  0  0  0  0  0  0  0  0
    4.1670    0.0990   -1.5640 P   0  0  0  0  0  0  0  0  0  0  0  0
    5.1990   -1.2880   -1.5970 O   0  0  0  0  0  0  0  0  0  0  0  0
    5.0680    1.5450   -1.8810 O   0  0  0  0  0  0  0  0  0  0  0  0
   -0.0730   -0.3320    1.1610 C   0  0  0  0  0  0  0  0  0  0  0  0
   -0.5210   -1.2050    1.9410 O   0  0  0  0  0  0  0  0  0  0  0  0
   -0.9420    0.2910    0.3160 O   0  0  0  0  0  0  0  0  0  0  0  0
   -2.3340    0.0250    0.2510 C   0  0  2  0  0  0  0  0  0  0  0  0
   -2.6540   -0.5420   -1.0860 C   0  0  0  0  0  0  0  0  0  0  0  0
   -3.9020   -0.2010   -1.6010 O   0  0  0  0  0  0  0  0  0  0  0  0
   -4.6570    0.7890   -1.0540 C   0  0  0  0  0  0  0  0  0  0  0  0
   -5.6380    1.2830   -1.6550 O   0  0  0  0  0  0  0  0  0  0  0  0
   -4.2980    1.2800    0.2800 C   0  0  0  0  0  0  0  0  0  0  0  0
   -3.0050    1.1420    0.6290 O   0  0  0  0  0  0  0  0  0  0  0  0
  2  1  1  1
  2  3  1  0
  2  8  1  0
  3  4  1  0
  4  5  1  0
  5  6  1  0
  5  7  1  0
  8  9  2  0
  8 10  1  0
 11 10  1  6
 11 12  1  0
 11 17  1  0
 12 13  1  0
 13 14  1  0
 14 15  2  0
 14 16  1  0
 16 17  1  0
M  END
