
     RDKit          3D

 16 16  0  0  0  0  0  0  0  0999 V2000
   -4.7560   -0.3930   -0.5170 C   0  0  0  0  0  0  0  0  0  0  0  0
   -3.3740   -0.7530   -0.4620 O   0  0  0  0  0  0  0  0  0  0  0  0
   -2.4160    0.1990   -0.1370 C   0  0  0  0  0  0  0  0  0  0  0  0
   -2.8540    1.3740    0.1000 O   0  0  0  0  0  0  0  0  0  0  0  0
   -0.9990   -0.0520   -0.0520 C   0  0  0  0  0  0  0  0  0  0  0  0
   -0.1820    0.9290    0.2660 C   0  0  0  0  0  0  0  0  0  0  0  0
    1.2620    0.6790    0.3540 C   0  0  0  0  0  0  0  0  0  0  0  0
    2.0770    1.6840    0.6780 C   0  0  0  0  0  0  0  0  0  0  0  0
    3.5270    1.5510    0.7940 C   0  0  2  0  0  0  0  0  0  0  0  0
    4.1080    2.8080    0.8370 O   0  0  0  0  0  0  0  0  0  0  0  0
    4.1030    0.8760   -0.2820 O   0  0  0  0  0  0  0  0  0  0  0  0
    3.4610   -0.7370   -0.2650 P   0  0  0  0  0  0  0  0  0  0  0  0
    3.6470   -1.5340   -1.7800 O   0  0  0  0  0  0  0  0  0  0  0  0
    1.7470   -0.5970    0.0990 O   0  0  0  0  0  0  0  0  0  0  0  0
   -0.4830   -1.3040   -0.2990 O   0  0  0  0  0  0  0  0  0  0  0  0
   -1.3530   -2.3710   -0.5990 C   0  0  0  0  0  0  0  0  0  0  0  0
  1  2  1  0
  2  3  1  0
  3  4  2  0
  3  5  1  0
  5  6  2  3
  5 15  1  0
  6  7  1  0
  7  8  2  0
  7 14  1  0
  8  9  1  0
  9 10  1  6
  9 11  1  0
 11 12  1  0
 12 13  1  0
 12 14  1  0
 15 16  1  0
M  END
