
     RDKit          3D

 16 16  0  0  0  0  0  0  0  0999 V2000
   -2.4890   -2.0440    1.6050 C   0  0  0  0  0  0  0  0  0  0  0  0
   -2.1760   -1.2510    0.3390 C   0  0  1  0  0  0  0  0  0  0  0  0
   -3.1720   -0.3170    0.1900 O   0  0  0  0  0  0  0  0  0  0  0  0
   -2.9530    0.4360   -1.3790 P   0  0  0  0  0  0  0  0  0  0  0  0
   -3.7110    1.9900   -1.4300 O   0  0  0  0  0  0  0  0  0  0  0  0
   -1.1120    0.5710   -1.5600 C   0  0  1  0  0  0  0  0  0  0  0  0
   -0.7030    1.8360   -1.9340 O   0  0  0  0  0  0  0  0  0  0  0  0
   -0.5270    0.3300   -0.1570 C   0  0  2  0  0  0  0  0  0  0  0  0
   -0.9350    1.5410    0.6600 C   0  0  0  0  0  0  0  0  0  0  0  0
    0.8330    0.2890   -0.3900 O   0  0  0  0  0  0  0  0  0  0  0  0
    1.6190    0.1020    0.7120 C   0  0  0  0  0  0  0  0  0  0  0  0
    3.0670    0.0860    0.2510 C   0  0  1  0  0  0  0  0  0  0  0  0
    3.9540   -0.0980    1.2970 O   0  0  0  0  0  0  0  0  0  0  0  0
    3.2830   -1.0490   -0.7570 C   0  0  0  0  0  0  0  0  0  0  0  0
    4.5650   -1.0500   -1.2470 O   0  0  0  0  0  0  0  0  0  0  0  0
   -0.9130   -0.8330    0.3950 O   0  0  0  0  0  0  0  0  0  0  0  0
  2  1  1  1
  2  3  1  0
  2 16  1  0
  3  4  1  0
  4  5  1  0
  4  6  1  0
  6  7  1  1
  6  8  1  0
  8  9  1  1
  8 10  1  0
  8 16  1  0
 10 11  1  0
 11 12  1  0
 12 13  1  1
 12 14  1  0
 14 15  1  0
M  END
