
     RDKit          3D

 28 28  0  0  0  0  0  0  0  0999 V2000
   -6.4080   -0.9860    0.0120 C   0  0  0  0  0  0  0  0  0  0  0  0
   -5.2710   -0.0900   -0.0820 C   0  0  0  0  0  0  0  0  0  0  0  0
   -4.0150   -0.4680    0.3590 C   0  0  0  0  0  0  0  0  0  0  0  0
   -3.0370    0.5300    0.1820 C   0  0  0  0  0  0  0  0  0  0  0  0
   -1.7940    0.7800    0.3450 C   0  0  0  0  0  0  0  0  0  0  0  0
   -1.2840    2.1440   -0.0670 C   0  0  0  0  0  0  0  0  0  0  0  0
   -0.0220    2.4760   -0.0120 C   0  0  0  0  0  0  0  0  0  0  0  0
    0.3530    3.7900   -0.4260 N   0  0  0  0  0  0  0  0  0  0  0  0
    1.5530    3.8730   -1.2280 C   0  0  0  0  0  0  0  0  0  0  0  0
    1.8460    5.2850   -1.6080 C   0  0  0  0  0  0  0  0  0  0  0  0
    3.0190    5.2840   -2.3820 O   0  0  0  0  0  0  0  0  0  0  0  0
    0.9580    1.5790    0.4390 N   0  0  0  0  0  0  0  0  0  0  0  0
    0.6030    0.4080    0.8070 C   0  0  0  0  0  0  0  0  0  0  0  0
    1.6990   -0.4220    1.2470 N   0  0  0  0  0  0  0  0  0  0  0  0
    3.0550   -0.1840    0.7450 C   0  0  0  0  0  0  0  0  0  0  0  0
    3.0210   -0.5570   -0.7220 C   0  0  0  0  0  0  0  0  0  0  0  0
    4.3680   -0.3660   -1.3810 C   0  0  0  0  0  0  0  0  0  0  0  0
    5.6290   -1.4460   -0.5260 P   0  0  0  0  0  0  0  0  0  0  0  0
    6.9620   -1.6430   -1.6170 O   0  0  0  0  0  0  0  0  0  0  0  0
    4.8890   -2.9790   -0.1680 O   0  0  0  0  0  0  0  0  0  0  0  0
   -0.7560   -0.0750    0.7930 N   0  0  0  0  0  0  0  0  0  0  0  0
   -0.9810   -1.4230    1.2340 C   0  0  0  0  0  0  0  0  0  0  0  0
   -0.4810   -2.4580    0.2640 C   0  0  0  0  0  0  0  0  0  0  0  0
   -0.7620   -3.8070    0.8110 C   0  0  0  0  0  0  0  0  0  0  0  0
   -1.3220   -4.0390    1.9050 O   0  0  0  0  0  0  0  0  0  0  0  0
   -0.3710   -4.9170    0.0500 O   0  0  0  0  0  0  0  0  0  0  0  0
   -4.0000   -1.7280    0.8730 O   0  0  0  0  0  0  0  0  0  0  0  0
   -4.5290   -1.9890    2.1540 C   0  0  0  0  0  0  0  0  0  0  0  0
  1  2  1  0
  2  3  2  3
  3  4  1  0
  3 27  1  0
  4  5  2  3
  5  6  1  0
  5 21  1  0
  6  7  2  0
  7  8  1  0
  7 12  1  0
  8  9  1  0
  9 10  1  0
 10 11  1  0
 12 13  2  0
 13 14  1  0
 13 21  1  0
 14 15  1  0
 15 16  1  0
 16 17  1  0
 17 18  1  0
 18 19  1  0
 18 20  1  0
 21 22  1  0
 22 23  1  0
 23 24  1  0
 24 25  2  0
 24 26  1  0
 27 28  1  0
M  END
