
     RDKit          3D

 28 28  0  0  0  0  0  0  0  0999 V2000
   -8.5860    2.0810   -0.2490 C   0  0  0  0  0  0  0  0  0  0  0  0
   -7.3380    1.2480   -0.2710 C   0  0  0  0  0  0  0  0  0  0  0  0
   -7.2690    0.1390   -1.0870 C   0  0  0  0  0  0  0  0  0  0  0  0
   -6.1240   -0.6260   -1.1080 C   0  0  0  0  0  0  0  0  0  0  0  0
   -5.0050   -0.3200   -0.3210 C   0  0  0  0  0  0  0  0  0  0  0  0
   -3.9030   -1.1850   -0.4180 N   0  0  0  0  0  0  0  0  0  0  0  0
   -2.6210   -0.9370    0.1110 C   0  0  0  0  0  0  0  0  0  0  0  0
   -2.3750    0.1260    0.7210 O   0  0  0  0  0  0  0  0  0  0  0  0
   -1.5630   -1.8860   -0.0320 N   0  0  0  0  0  0  0  0  0  0  0  0
   -0.2360   -1.5570    0.5490 C   0  0  1  0  0  0  0  0  0  0  0  0
   -0.0160   -2.5630    1.7000 C   0  0  0  0  0  0  0  0  0  0  0  0
    0.8100   -1.7410   -0.4530 C   0  0  0  0  0  0  0  0  0  0  0  0
    0.4570   -2.3370   -1.5360 O   0  0  0  0  0  0  0  0  0  0  0  0
    2.1520   -1.2990   -0.2840 N   0  0  0  0  0  0  0  0  0  0  0  0
    3.0260   -1.6320   -1.4140 C   0  0  0  0  0  0  0  0  0  0  0  0
    2.9110   -0.5910   -2.4460 C   0  0  0  0  0  0  0  0  0  0  0  0
    2.1780    0.3990   -2.2610 O   0  0  0  0  0  0  0  0  0  0  0  0
    3.6180   -0.7110   -3.6240 O   0  0  0  0  0  0  0  0  0  0  0  0
    2.5660   -0.6230    0.8930 C   0  0  1  0  0  0  0  0  0  0  0  0
    3.4610   -1.5400    1.7150 C   0  0  0  0  0  0  0  0  0  0  0  0
    2.9840    0.7080    0.8370 N   0  0  0  0  0  0  0  0  0  0  0  0
    4.1920    1.1550    0.3270 C   0  0  0  0  0  0  0  0  0  0  0  0
    5.4510    0.7860    1.1280 C   0  0  0  0  0  0  0  0  0  0  0  0
    6.8800    1.5730    0.1700 P   0  0  0  0  0  0  0  0  0  0  0  0
    6.8430    3.2970    0.4660 O   0  0  0  0  0  0  0  0  0  0  0  0
    6.6120    1.3210   -1.5420 O   0  0  0  0  0  0  0  0  0  0  0  0
   -5.0880    0.7750    0.4790 C   0  0  0  0  0  0  0  0  0  0  0  0
   -6.2490    1.5560    0.5040 C   0  0  0  0  0  0  0  0  0  0  0  0
  1  2  1  0
  2  3  2  0
  2 28  1  0
  3  4  1  0
  4  5  2  0
  5  6  1  0
  5 27  1  0
  6  7  1  0
  7  8  2  0
  7  9  1  0
  9 10  1  0
 10 11  1  1
 10 12  1  0
 12 13  2  0
 12 14  1  0
 14 15  1  0
 14 19  1  0
 15 16  1  0
 16 17  2  0
 16 18  1  0
 19 20  1  6
 19 21  1  0
 21 22  1  0
 22 23  1  0
 23 24  1  0
 24 25  1  0
 24 26  1  0
 27 28  2  0
M  END
