
     RDKit          3D

 28 28  0  0  0  0  0  0  0  0999 V2000
    2.9250    4.4040   -3.4450 C   0  0  0  0  0  0  0  0  0  0  0  0
    3.8890    3.6520   -2.6240 C   0  0  0  0  0  0  0  0  0  0  0  0
    5.0960    3.6430   -2.9250 O   0  0  0  0  0  0  0  0  0  0  0  0
    3.4470    2.9090   -1.4520 C   0  0  0  0  0  0  0  0  0  0  0  0
    2.1670    2.8120   -0.9820 N   0  0  0  0  0  0  0  0  0  0  0  0
    2.1180    2.0510    0.1150 C   0  0  0  0  0  0  0  0  0  0  0  0
    1.0010    1.6470    0.9610 C   0  0  0  0  0  0  0  0  0  0  0  0
    1.1990    0.9550    2.0080 O   0  0  0  0  0  0  0  0  0  0  0  0
   -0.3280    2.0000    0.6590 N   0  0  0  0  0  0  0  0  0  0  0  0
   -1.4990    1.6520    1.4250 C   0  0  0  0  0  0  0  0  0  0  0  0
   -1.7130    0.1600    1.5680 C   0  0  0  0  0  0  0  0  0  0  0  0
   -1.8570   -0.5890    0.4120 N   0  0  0  0  0  0  0  0  0  0  0  0
   -2.9610   -0.5500   -0.4400 C   0  0  2  0  0  0  0  0  0  0  0  0
   -3.2600    0.8000   -1.0570 C   0  0  0  0  0  0  0  0  0  0  0  0
   -4.1730   -1.3330   -0.0960 C   0  0  0  0  0  0  0  0  0  0  0  0
   -4.8690   -1.0420    1.1760 C   0  0  0  0  0  0  0  0  0  0  0  0
   -6.3940   -2.1130    1.3680 P   0  0  0  0  0  0  0  0  0  0  0  0
   -7.5010   -1.4720    2.5020 O   0  0  0  0  0  0  0  0  0  0  0  0
   -5.9400   -3.7490    1.7120 O   0  0  0  0  0  0  0  0  0  0  0  0
    3.4430    1.6560    0.3320 C   0  0  0  0  0  0  0  0  0  0  0  0
    3.9030    0.8510    1.3580 N   0  0  0  0  0  0  0  0  0  0  0  0
    4.0840   -0.3910    1.4490 C   0  0  0  0  0  0  0  0  0  0  0  0
    3.8760   -1.4530    0.5010 C   0  0  0  0  0  0  0  0  0  0  0  0
    4.2050   -2.8600    0.9630 C   0  0  0  0  0  0  0  0  0  0  0  0
    3.4290   -1.3210   -0.7230 C   0  0  0  0  0  0  0  0  0  0  0  0
    3.2060   -2.3780   -1.7090 C   0  0  0  0  0  0  0  0  0  0  0  0
    3.4930   -3.6530   -1.3200 O   0  0  0  0  0  0  0  0  0  0  0  0
    4.1640    2.1940   -0.6200 O   0  0  0  0  0  0  0  0  0  0  0  0
  1  2  1  0
  2  3  2  0
  2  4  1  0
  4  5  2  0
  4 28  1  0
  5  6  1  0
  6  7  1  0
  6 20  2  0
  7  8  2  0
  7  9  1  0
  9 10  1  0
 10 11  1  0
 11 12  1  0
 12 13  1  0
 13 14  1  1
 13 15  1  0
 15 16  1  0
 16 17  1  0
 17 18  1  0
 17 19  1  0
 20 21  1  0
 20 28  1  0
 21 22  2  3
 22 23  1  0
 23 24  1  0
 23 25  2  3
 25 26  1  0
 26 27  1  0
M  END
