
     RDKit          3D

 28 28  0  0  0  0  0  0  0  0999 V2000
    4.0900   -1.4940   -1.8650 C   0  0  0  0  0  0  0  0  0  0  0  0
    3.7750   -0.5350   -0.8320 N   0  0  0  0  0  0  0  0  0  0  0  0
    4.8600    0.0100   -0.0500 C   0  0  0  0  0  0  0  0  0  0  0  0
    5.2170   -0.9980    1.4620 P   0  0  0  0  0  0  0  0  0  0  0  0
    6.8980   -1.3850    1.6060 O   0  0  0  0  0  0  0  0  0  0  0  0
    4.7850   -0.0860    2.8960 O   0  0  0  0  0  0  0  0  0  0  0  0
    2.4260   -0.1690   -0.6290 C   0  0  0  0  0  0  0  0  0  0  0  0
    1.5360   -0.6830   -1.3450 O   0  0  0  0  0  0  0  0  0  0  0  0
    2.0870    0.8010    0.4120 C   0  0  0  0  0  0  0  0  0  0  0  0
    0.6190    1.0950    0.5140 C   0  0  2  0  0  0  0  0  0  0  0  0
    0.4410    2.1190    1.6400 C   0  0  0  0  0  0  0  0  0  0  0  0
    1.1800    3.2440    1.2650 O   0  0  0  0  0  0  0  0  0  0  0  0
   -0.1540   -0.0700    0.9150 N   0  0  0  0  0  0  0  0  0  0  0  0
   -1.2630   -0.4730    0.1400 C   0  0  0  0  0  0  0  0  0  0  0  0
   -1.4480    0.3200   -0.9000 O   0  0  0  0  0  0  0  0  0  0  0  0
   -2.1780   -1.5370    0.2750 C   0  0  0  0  0  0  0  0  0  0  0  0
   -2.3230   -2.5810    1.2140 C   0  0  0  0  0  0  0  0  0  0  0  0
   -1.8850   -3.1470    2.2600 C   0  0  0  0  0  0  0  0  0  0  0  0
   -0.7840   -2.8760    3.1180 C   0  0  0  0  0  0  0  0  0  0  0  0
   -0.5810   -3.6530    4.1440 O   0  0  0  0  0  0  0  0  0  0  0  0
   -3.1530   -1.5720   -0.7100 C   0  0  0  0  0  0  0  0  0  0  0  0
   -3.1800   -0.6150   -1.7210 N   0  0  0  0  0  0  0  0  0  0  0  0
   -4.0360    0.5490   -1.6680 C   0  0  0  0  0  0  0  0  0  0  0  0
   -4.0640    1.4930   -2.6640 C   0  0  0  0  0  0  0  0  0  0  0  0
   -4.8870    2.5970   -2.5960 C   0  0  0  0  0  0  0  0  0  0  0  0
   -5.6940    2.7300   -1.4830 C   0  0  0  0  0  0  0  0  0  0  0  0
   -5.6710    1.7880   -0.4820 C   0  0  0  0  0  0  0  0  0  0  0  0
   -4.8450    0.7330   -0.6090 N   0  0  0  0  0  0  0  0  0  0  0  0
  1  2  1  0
  2  3  1  0
  2  7  1  0
  3  4  1  0
  4  5  1  0
  4  6  1  0
  7  8  2  0
  7  9  1  0
 10  9  1  1
 10 11  1  0
 10 13  1  0
 11 12  1  0
 13 14  1  0
 14 15  2  0
 14 16  1  0
 16 17  1  0
 16 21  2  3
 17 18  2  3
 18 19  1  0
 19 20  2  0
 21 22  1  0
 22 23  1  0
 23 24  2  0
 23 28  1  0
 24 25  1  0
 25 26  2  0
 26 27  1  0
 27 28  2  0
M  END
