
     RDKit          3D

 28 29  0  0  0  0  0  0  0  0999 V2000
    9.9380   -0.1520    0.4470 C   0  0  0  0  0  0  0  0  0  0  0  0
    9.2430   -0.8180   -0.5160 O   0  0  0  0  0  0  0  0  0  0  0  0
    7.8770   -0.6640   -0.4270 C   0  0  0  0  0  0  0  0  0  0  0  0
    7.5020    0.7800   -0.5710 C   0  0  0  0  0  0  0  0  0  0  0  0
    6.1460    1.0400   -0.5140 O   0  0  0  0  0  0  0  0  0  0  0  0
    5.6240    0.6490    0.6850 C   0  0  0  0  0  0  0  0  0  0  0  0
    4.1570    1.0130    0.6450 C   0  0  0  0  0  0  0  0  0  0  0  0
    3.1300    0.2640    0.2160 N   0  0  0  0  0  0  0  0  0  0  0  0
    1.9710    0.9630    0.3480 C   0  0  0  0  0  0  0  0  0  0  0  0
    0.6010    0.5020   -0.0090 C   0  0  1  0  0  0  0  0  0  0  0  0
    0.6760   -0.9830   -0.2900 C   0  0  0  0  0  0  0  0  0  0  0  0
    1.6040   -1.1510   -1.3200 O   0  0  0  0  0  0  0  0  0  0  0  0
   -0.3140    0.8310    1.0290 N   0  0  0  0  0  0  0  0  0  0  0  0
   -1.7000    0.4970    0.9110 C   0  0  0  0  0  0  0  0  0  0  0  0
   -2.2970    0.4990   -0.2550 C   0  0  0  0  0  0  0  0  0  0  0  0
   -3.6900    0.1730   -0.4470 N   0  0  0  0  0  0  0  0  0  0  0  0
   -4.4980   -0.1770    0.6550 C   0  0  0  0  0  0  0  0  0  0  0  0
   -5.7500   -0.4920    0.6520 C   0  0  0  0  0  0  0  0  0  0  0  0
   -6.6470   -0.5730   -0.4570 C   0  0  0  0  0  0  0  0  0  0  0  0
   -6.3840   -0.3180   -1.8850 C   0  0  0  0  0  0  0  0  0  0  0  0
   -7.9290   -0.9390   -0.1360 C   0  0  0  0  0  0  0  0  0  0  0  0
   -9.2220   -1.1000   -1.3900 P   0  0  0  0  0  0  0  0  0  0  0  0
  -10.7020   -1.5790   -0.6280 O   0  0  0  0  0  0  0  0  0  0  0  0
   -9.5220    0.4480   -2.1480 O   0  0  0  0  0  0  0  0  0  0  0  0
   -3.7780   -0.1670    1.9610 C   0  0  0  0  0  0  0  0  0  0  0  0
   -2.5000    0.1420    2.0670 C   0  0  0  0  0  0  0  0  0  0  0  0
    2.3550    2.1520    0.8710 N   0  0  0  0  0  0  0  0  0  0  0  0
    3.6540    2.1480    1.0340 O   0  0  0  0  0  0  0  0  0  0  0  0
  1  2  1  0
  2  3  1  0
  3  4  1  0
  4  5  1  0
  5  6  1  0
  6  7  1  0
  7  8  2  0
  7 28  1  0
  8  9  1  0
  9 10  1  0
  9 27  2  0
 10 11  1  1
 10 13  1  0
 11 12  1  0
 13 14  1  0
 14 15  2  0
 14 26  1  0
 15 16  1  0
 16 17  1  0
 17 18  2  3
 17 25  1  0
 18 19  1  0
 19 20  1  0
 19 21  2  3
 21 22  1  0
 22 23  1  0
 22 24  1  0
 25 26  2  0
 27 28  1  0
M  END
