
     RDKit          3D

 28 27  0  0  0  0  0  0  0  0999 V2000
    2.3250    1.4390   -1.4400 C   0  0  0  0  0  0  0  0  0  0  0  0
    2.5970    0.5130   -0.3340 C   0  0  0  0  0  0  0  0  0  0  0  0
    1.9100    0.3880    0.7380 C   0  0  0  0  0  0  0  0  0  0  0  0
    0.7090    1.0790    1.1880 C   0  0  0  0  0  0  0  0  0  0  0  0
    0.1750    0.7560    2.3130 N   0  0  0  0  0  0  0  0  0  0  0  0
   -0.8840    1.1840    2.9610 N   0  0  0  0  0  0  0  0  0  0  0  0
   -2.0870    0.8460    2.9220 C   0  0  0  0  0  0  0  0  0  0  0  0
   -2.3370   -0.1800    2.0320 N   0  0  0  0  0  0  0  0  0  0  0  0
   -3.6940   -0.2510    1.5360 C   0  0  0  0  0  0  0  0  0  0  0  0
   -4.4230    0.6390    1.9180 O   0  0  0  0  0  0  0  0  0  0  0  0
   -4.0540   -1.2470    0.7110 O   0  0  0  0  0  0  0  0  0  0  0  0
   -5.3220   -1.3860    0.1690 C   0  0  2  0  0  0  0  0  0  0  0  0
   -6.4160   -1.5600    1.1650 C   0  0  0  0  0  0  0  0  0  0  0  0
   -5.3320   -2.5580   -0.7910 C   0  0  0  0  0  0  0  0  0  0  0  0
   -5.6300   -0.1250   -0.6250 C   0  0  0  0  0  0  0  0  0  0  0  0
    0.1670    2.1370    0.4160 N   0  0  0  0  0  0  0  0  0  0  0  0
   -1.2390    2.3080    0.1720 C   0  0  0  0  0  0  0  0  0  0  0  0
   -1.3390    3.4650   -0.8530 C   0  0  0  0  0  0  0  0  0  0  0  0
   -0.7460    4.6940   -0.2880 C   0  0  0  0  0  0  0  0  0  0  0  0
   -0.2820    4.6650    0.8730 O   0  0  0  0  0  0  0  0  0  0  0  0
   -0.6840    5.8770   -0.9950 O   0  0  0  0  0  0  0  0  0  0  0  0
    3.7640   -0.3240   -0.4990 N   0  0  0  0  0  0  0  0  0  0  0  0
    3.6770   -1.7180   -0.7860 C   0  0  0  0  0  0  0  0  0  0  0  0
    5.0770   -2.2830   -0.8930 C   0  0  0  0  0  0  0  0  0  0  0  0
    5.8610   -2.1100    0.3720 C   0  0  0  0  0  0  0  0  0  0  0  0
    7.5500   -2.8370    0.1210 P   0  0  0  0  0  0  0  0  0  0  0  0
    8.3970   -2.0260   -1.1410 O   0  0  0  0  0  0  0  0  0  0  0  0
    7.3920   -4.5240   -0.1510 O   0  0  0  0  0  0  0  0  0  0  0  0
  1  2  1  0
  2  3  2  3
  2 22  1  0
  3  4  1  0
  4  5  2  3
  4 16  1  0
  5  6  1  0
  6  7  2  3
  7  8  1  0
  8  9  1  0
  9 10  2  0
  9 11  1  0
 11 12  1  0
 12 13  1  1
 12 14  1  0
 12 15  1  0
 16 17  1  0
 17 18  1  0
 18 19  1  0
 19 20  2  0
 19 21  1  0
 22 23  1  0
 23 24  1  0
 24 25  1  0
 25 26  1  0
 26 27  1  0
 26 28  1  0
M  END
