
     RDKit          3D

 11 11  0  0  0  0  0  0  0  0999 V2000
    3.0610   -0.6210    1.1200 O   0  0  0  0  0  0  0  0  0  0  0  0
    2.2660    0.3370    0.5420 C   0  0  0  0  0  0  0  0  0  0  0  0
    1.0030   -0.2000   -0.0730 C   0  0  2  0  0  0  0  0  0  0  0  0
    0.2620    1.0080   -0.6590 C   0  0  0  0  0  0  0  0  0  0  0  0
   -1.0520    0.5720   -1.2100 C   0  0  2  0  0  0  0  0  0  0  0  0
   -1.8520    1.6880   -1.4350 O   0  0  0  0  0  0  0  0  0  0  0  0
   -1.7820   -0.3600   -0.2880 C   0  0  1  0  0  0  0  0  0  0  0  0
   -2.8080   -0.9580   -1.0280 O   0  0  0  0  0  0  0  0  0  0  0  0
   -0.9910   -1.3850    0.2040 O   0  0  0  0  0  0  0  0  0  0  0  0
    0.1190   -0.9120    0.9060 C   0  0  2  0  0  0  0  0  0  0  0  0
   -0.2430   -0.1340    1.9950 O   0  0  0  0  0  0  0  0  0  0  0  0
  1  2  1  0
  3  2  1  1
  3  4  1  0
  3 10  1  0
  4  5  1  0
  5  6  1  1
  5  7  1  0
  7  8  1  6
  7  9  1  0
  9 10  1  0
 10 11  1  1
M  END
