
     RDKit          3D

 11 11  0  0  0  0  0  0  0  0999 V2000
   -2.6880   -0.8790    0.8820 O   0  0  0  0  0  0  0  0  0  0  0  0
   -1.8240   -1.1040   -0.1690 C   0  0  0  0  0  0  0  0  0  0  0  0
   -0.5210   -0.4230    0.1370 C   0  0  1  0  0  0  0  0  0  0  0  0
   -0.0190   -0.9770    1.3270 O   0  0  0  0  0  0  0  0  0  0  0  0
    0.4970   -0.6020   -0.9770 C   0  0  0  0  0  0  0  0  0  0  0  0
    1.8150   -0.2130   -0.2980 C   0  0  1  0  0  0  0  0  0  0  0  0
    2.8910   -0.3880   -1.1300 O   0  0  0  0  0  0  0  0  0  0  0  0
    1.6670    1.1690    0.2410 C   0  0  0  0  0  0  0  0  0  0  0  0
    0.4590    1.7680   -0.0240 O   0  0  0  0  0  0  0  0  0  0  0  0
   -0.6490    1.0570    0.3430 C   0  0  1  0  0  0  0  0  0  0  0  0
   -1.7110    1.4880   -0.4880 O   0  0  0  0  0  0  0  0  0  0  0  0
  1  2  1  0
  2  3  1  0
  3  4  1  1
  3  5  1  0
  3 10  1  0
  5  6  1  0
  6  7  1  6
  6  8  1  0
  8  9  1  0
  9 10  1  0
 10 11  1  6
M  END
