
     RDKit          3D

 12 12  0  0  0  0  0  0  0  0999 V2000
    2.9010    0.0650   -0.6520 O   0  0  0  0  0  0  0  0  0  0  0  0
    2.3590    0.0390    0.6250 C   0  0  0  0  0  0  0  0  0  0  0  0
    0.8620   -0.0060    0.5540 C   0  0  1  0  0  0  0  0  0  0  0  0
    0.4270    1.1250   -0.1170 O   0  0  0  0  0  0  0  0  0  0  0  0
   -0.8680    1.3980    0.2980 C   0  0  1  0  0  0  0  0  0  0  0  0
   -1.3730    2.3600   -0.6060 O   0  0  0  0  0  0  0  0  0  0  0  0
   -1.7220    0.1510    0.2810 C   0  0  2  0  0  0  0  0  0  0  0  0
   -2.0030   -0.2680    1.5860 O   0  0  0  0  0  0  0  0  0  0  0  0
   -1.1080   -0.9550   -0.5430 C   0  0  1  0  0  0  0  0  0  0  0  0
   -1.2200   -0.5880   -1.8840 O   0  0  0  0  0  0  0  0  0  0  0  0
    0.3360   -1.2140   -0.1760 C   0  0  1  0  0  0  0  0  0  0  0  0
    1.0700   -1.5010   -1.3240 O   0  0  0  0  0  0  0  0  0  0  0  0
  1  2  1  0
  3  2  1  6
  3  4  1  0
  3 11  1  0
  4  5  1  0
  5  6  1  6
  5  7  1  0
  7  8  1  1
  7  9  1  0
  9 10  1  6
  9 11  1  0
 11 12  1  6
M  END
