
     RDKit          3D

 11 11  0  0  0  0  0  0  0  0999 V2000
    2.8000   -0.8050   -0.7730 O   0  0  0  0  0  0  0  0  0  0  0  0
    1.9390    0.2820   -0.8110 C   0  0  0  0  0  0  0  0  0  0  0  0
    0.7810    0.0060    0.1120 C   0  0  2  0  0  0  0  0  0  0  0  0
    1.3210   -0.1730    1.4010 O   0  0  0  0  0  0  0  0  0  0  0  0
    0.1550   -1.3140   -0.2800 C   0  0  0  0  0  0  0  0  0  0  0  0
   -0.9470   -1.4800    0.5870 O   0  0  0  0  0  0  0  0  0  0  0  0
   -1.9710   -0.7140    0.0730 C   0  0  2  0  0  0  0  0  0  0  0  0
   -2.4580   -1.3920   -1.0630 O   0  0  0  0  0  0  0  0  0  0  0  0
   -1.6100    0.6850   -0.2540 C   0  0  0  0  0  0  0  0  0  0  0  0
   -0.2410    1.1070    0.1120 C   0  0  1  0  0  0  0  0  0  0  0  0
   -0.2300    1.7170    1.3610 O   0  0  0  0  0  0  0  0  0  0  0  0
  1  2  1  0
  2  3  1  0
  3  4  1  1
  3  5  1  0
  3 10  1  0
  5  6  1  0
  6  7  1  0
  7  8  1  6
  7  9  1  0
  9 10  1  0
 10 11  1  1
M  END
