
     RDKit          3D

 12 12  0  0  0  0  0  0  0  0999 V2000
    3.1350    1.7460    0.5410 O   0  0  0  0  0  0  0  0  0  0  0  0
    2.8550    0.4090    0.3010 C   0  0  0  0  0  0  0  0  0  0  0  0
    1.3520    0.2040    0.4010 C   0  0  1  0  0  0  0  0  0  0  0  0
    0.7700    1.0250   -0.5670 O   0  0  0  0  0  0  0  0  0  0  0  0
   -0.1230    0.3620   -1.3750 C   0  0  0  0  0  0  0  0  0  0  0  0
   -1.0990   -0.3720   -0.4670 C   0  0  2  0  0  0  0  0  0  0  0  0
   -1.9350   -1.1740   -1.2330 O   0  0  0  0  0  0  0  0  0  0  0  0
   -1.8920    0.7290    0.2370 C   0  0  0  0  0  0  0  0  0  0  0  0
   -2.8590    0.1990    1.0830 O   0  0  0  0  0  0  0  0  0  0  0  0
   -0.3580   -1.2310    0.5260 C   0  0  1  0  0  0  0  0  0  0  0  0
   -0.7600   -2.5600    0.4020 O   0  0  0  0  0  0  0  0  0  0  0  0
    1.0040   -1.1280    0.2490 O   0  0  0  0  0  0  0  0  0  0  0  0
  1  2  1  0
  3  2  1  6
  3  4  1  0
  3 12  1  0
  4  5  1  0
  5  6  1  0
  6  7  1  6
  6  8  1  0
  6 10  1  0
  8  9  1  0
 10 11  1  6
 10 12  1  0
M  END
