
     RDKit          3D

 12 12  0  0  0  0  0  0  0  0999 V2000
   -1.9790   -1.3450   -1.2520 O   0  0  0  0  0  0  0  0  0  0  0  0
   -2.3280   -0.6010   -0.1300 C   0  0  0  0  0  0  0  0  0  0  0  0
   -1.6060    0.7330   -0.0980 C   0  0  1  0  0  0  0  0  0  0  0  0
   -2.0330    1.3800    1.0610 O   0  0  0  0  0  0  0  0  0  0  0  0
   -0.1070    0.5690   -0.0890 C   0  0  1  0  0  0  0  0  0  0  0  0
    0.4370    1.8580   -0.0210 O   0  0  0  0  0  0  0  0  0  0  0  0
    0.3840   -0.3220    1.0020 C   0  0  0  0  0  0  0  0  0  0  0  0
    1.5700   -1.0280    0.3300 C   0  0  2  0  0  0  0  0  0  0  0  0
    2.6660   -1.0810    1.1390 O   0  0  0  0  0  0  0  0  0  0  0  0
    1.7280   -0.2110   -0.9120 C   0  0  2  0  0  0  0  0  0  0  0  0
    2.3650    1.0020   -0.6640 O   0  0  0  0  0  0  0  0  0  0  0  0
    0.3740    0.0060   -1.2660 O   0  0  0  0  0  0  0  0  0  0  0  0
  1  2  1  0
  2  3  1  0
  3  4  1  1
  3  5  1  0
  5  6  1  1
  5  7  1  0
  5 12  1  0
  7  8  1  0
  8  9  1  1
  8 10  1  0
 10 11  1  1
 10 12  1  0
M  END
