
     RDKit          3D

 42 47  0  0  0  0  0  0  0  0999 V2000
  -10.2730    0.3380   -0.8030 C   0  0  0  0  0  0  0  0  0  0  0  0
   -9.4440   -0.9510   -0.8770 C   0  0  1  0  0  0  0  0  0  0  0  0
   -8.4110   -0.7820   -1.9280 C   0  0  0  0  0  0  0  0  0  0  0  0
   -7.1370   -0.1370   -1.5520 C   0  0  0  0  0  0  0  0  0  0  0  0
   -6.9810    0.2460   -0.1510 C   0  0  0  0  0  0  0  0  0  0  0  0
   -5.9810    1.1350    0.2630 C   0  0  0  0  0  0  0  0  0  0  0  0
   -5.8230    1.4930    1.5820 C   0  0  0  0  0  0  0  0  0  0  0  0
   -4.9100    2.3460    2.1910 C   0  0  0  0  0  0  0  0  0  0  0  0
   -3.8170    3.1140    1.5220 C   0  0  0  0  0  0  0  0  0  0  0  0
   -2.6800    2.2210    1.1850 C   0  0  0  0  0  0  0  0  0  0  0  0
   -2.7760    0.9920    1.4890 O   0  0  0  0  0  0  0  0  0  0  0  0
   -1.5180    2.7170    0.5440 N   0  0  0  0  0  0  0  0  0  0  0  0
   -0.5120    1.7850    0.2770 N   0  0  0  0  0  0  0  0  0  0  0  0
   -0.5080    1.0730   -0.7970 C   0  0  0  0  0  0  0  0  0  0  0  0
    0.6110    0.1250   -0.9570 C   0  0  0  0  0  0  0  0  0  0  0  0
    1.6000    0.0160   -0.0010 C   0  0  0  0  0  0  0  0  0  0  0  0
    2.6570   -0.8640   -0.1230 C   0  0  0  0  0  0  0  0  0  0  0  0
    2.7400   -1.6650   -1.2260 C   0  0  0  0  0  0  0  0  0  0  0  0
    3.7840   -2.5640   -1.3890 O   0  0  0  0  0  0  0  0  0  0  0  0
    4.7960   -2.7230   -0.4790 C   0  0  0  0  0  0  0  0  0  0  0  0
    4.6730   -3.6290    0.5430 C   0  0  0  0  0  0  0  0  0  0  0  0
    5.6820   -3.7920    1.4560 C   0  0  0  0  0  0  0  0  0  0  0  0
    6.8140   -3.0350    1.3300 C   0  0  0  0  0  0  0  0  0  0  0  0
    6.9780   -2.1210    0.3250 C   0  0  0  0  0  0  0  0  0  0  0  0
    8.1810   -1.3500    0.2300 C   0  0  0  0  0  0  0  0  0  0  0  0
    9.0760   -1.5000    1.1220 O   0  0  0  0  0  0  0  0  0  0  0  0
    8.4220   -0.4230   -0.8160 N   0  0  0  0  0  0  0  0  0  0  0  0
    9.6760    0.2870   -0.7940 C   0  0  0  0  0  0  0  0  0  0  0  0
    9.9530    1.1970   -1.7950 C   0  0  0  0  0  0  0  0  0  0  0  0
   11.1470    1.8830   -1.7910 C   0  0  0  0  0  0  0  0  0  0  0  0
   12.0820    1.6730   -0.7900 C   0  0  0  0  0  0  0  0  0  0  0  0
   11.7410    0.7500    0.1790 C   0  0  0  0  0  0  0  0  0  0  0  0
   10.5770    0.0850    0.1690 N   0  0  0  0  0  0  0  0  0  0  0  0
    5.9450   -1.9780   -0.5800 C   0  0  0  0  0  0  0  0  0  0  0  0
    1.7590   -1.5640   -2.1840 C   0  0  0  0  0  0  0  0  0  0  0  0
    0.7050   -0.6910   -2.0700 C   0  0  0  0  0  0  0  0  0  0  0  0
   -5.2390    2.3100    3.5300 C   0  0  0  0  0  0  0  0  0  0  0  0
   -6.2660    1.4970    3.6850 O   0  0  0  0  0  0  0  0  0  0  0  0
   -6.6550    0.9830    2.5570 C   0  0  0  0  0  0  0  0  0  0  0  0
   -7.6370    0.1070    2.1430 C   0  0  0  0  0  0  0  0  0  0  0  0
   -7.8100   -0.2630    0.8190 C   0  0  0  0  0  0  0  0  0  0  0  0
   -8.8400   -1.1670    0.4200 N   0  0  0  0  0  0  0  0  0  0  0  0
  2  1  1  1
  2  3  1  0
  2 42  1  0
  3  4  1  0
  4  5  1  0
  5  6  2  0
  5 41  1  0
  6  7  1  0
  7  8  1  0
  7 39  2  0
  8  9  1  0
  8 37  2  0
  9 10  1  0
 10 11  2  0
 10 12  1  0
 12 13  1  0
 13 14  2  3
 14 15  1  0
 15 16  2  0
 15 36  1  0
 16 17  1  0
 17 18  2  0
 18 19  1  0
 18 35  1  0
 19 20  1  0
 20 21  2  0
 20 34  1  0
 21 22  1  0
 22 23  2  0
 23 24  1  0
 24 25  1  0
 24 34  2  0
 25 26  2  0
 25 27  1  0
 27 28  1  0
 28 29  2  0
 28 33  1  0
 29 30  1  0
 30 31  2  0
 31 32  1  0
 32 33  2  0
 35 36  2  0
 37 38  1  0
 38 39  1  0
 39 40  1  0
 40 41  2  0
 41 42  1  0
M  END
