
     RDKit          3D

 42 47  0  0  0  0  0  0  0  0999 V2000
   -6.3790   -1.3440    3.2630 C   0  0  0  0  0  0  0  0  0  0  0  0
   -5.4220   -1.0860    2.2770 O   0  0  0  0  0  0  0  0  0  0  0  0
   -5.7220   -1.1490    0.9360 C   0  0  0  0  0  0  0  0  0  0  0  0
   -6.9850   -1.4700    0.5100 C   0  0  0  0  0  0  0  0  0  0  0  0
   -7.2880   -1.5340   -0.8310 C   0  0  0  0  0  0  0  0  0  0  0  0
   -6.3210   -1.2740   -1.7620 C   0  0  0  0  0  0  0  0  0  0  0  0
   -6.6400   -1.3390   -3.2320 C   0  0  0  0  0  0  0  0  0  0  0  0
   -5.0440   -0.9480   -1.3200 C   0  0  0  0  0  0  0  0  0  0  0  0
   -4.7040   -0.8750    0.0100 C   0  0  0  0  0  0  0  0  0  0  0  0
   -3.4000   -0.5430    0.4830 N   0  0  0  0  0  0  0  0  0  0  0  0
   -2.2780   -0.2420   -0.2640 C   0  0  0  0  0  0  0  0  0  0  0  0
   -2.3970   -0.2910   -1.5410 O   0  0  0  0  0  0  0  0  0  0  0  0
   -0.9770    0.1370    0.2510 C   0  0  0  0  0  0  0  0  0  0  0  0
    0.1040    0.0890   -0.6630 C   0  0  0  0  0  0  0  0  0  0  0  0
    1.4100    0.2620   -0.2690 C   0  0  0  0  0  0  0  0  0  0  0  0
    2.5070    0.2060   -1.2410 C   0  0  0  0  0  0  0  0  0  0  0  0
    2.2040   -0.0210   -2.5350 N   0  0  0  0  0  0  0  0  0  0  0  0
    3.1160   -0.0960   -3.5210 C   0  0  0  0  0  0  0  0  0  0  0  0
    2.7810   -0.3290   -4.8310 C   0  0  0  0  0  0  0  0  0  0  0  0
    3.7540   -0.3960   -5.8020 C   0  0  0  0  0  0  0  0  0  0  0  0
    5.0380   -0.2300   -5.4520 N   0  0  0  0  0  0  0  0  0  0  0  0
    5.3840   -0.0020   -4.1750 C   0  0  0  0  0  0  0  0  0  0  0  0
    4.4420    0.0740   -3.1680 C   0  0  0  0  0  0  0  0  0  0  0  0
    4.7830    0.3080   -1.8540 C   0  0  0  0  0  0  0  0  0  0  0  0
    6.0170    0.4640   -1.5360 N   0  0  0  0  0  0  0  0  0  0  0  0
    6.5300    0.7120   -0.2300 C   0  0  0  0  0  0  0  0  0  0  0  0
    6.6630   -0.5380    0.6160 C   0  0  1  0  0  0  0  0  0  0  0  0
    7.6030   -1.5150   -0.0570 C   0  0  0  0  0  0  0  0  0  0  0  0
    8.3810   -1.6750    1.2330 C   0  0  0  0  0  0  0  0  0  0  0  0
    7.6710   -0.4300    1.7390 C   0  0  0  0  0  0  0  0  0  0  0  0
    3.7950    0.3650   -0.9380 N   0  0  0  0  0  0  0  0  0  0  0  0
    1.6400    0.4890    1.0680 C   0  0  0  0  0  0  0  0  0  0  0  0
    0.6120    0.5430    1.9740 C   0  0  0  0  0  0  0  0  0  0  0  0
   -0.6900    0.3690    1.5500 C   0  0  0  0  0  0  0  0  0  0  0  0
   -1.6470    0.4680    2.5890 O   0  0  0  0  0  0  0  0  0  0  0  0
   -2.5220    1.5760    2.5850 C   0  0  0  0  0  0  0  0  0  0  0  0
   -2.4590    2.5380    1.6080 C   0  0  0  0  0  0  0  0  0  0  0  0
   -3.3000    3.6320    1.5770 C   0  0  0  0  0  0  0  0  0  0  0  0
   -4.2410    3.7520    2.5760 C   0  0  0  0  0  0  0  0  0  0  0  0
   -4.3120    2.7870    3.5640 C   0  0  0  0  0  0  0  0  0  0  0  0
   -3.4560    1.6860    3.5850 C   0  0  0  0  0  0  0  0  0  0  0  0
   -3.5780    0.7530    4.6030 O   0  0  0  0  0  0  0  0  0  0  0  0
  1  2  1  0
  2  3  1  0
  3  4  2  0
  3  9  1  0
  4  5  1  0
  5  6  2  0
  6  7  1  0
  6  8  1  0
  8  9  2  0
  9 10  1  0
 10 11  1  0
 11 12  2  0
 11 13  1  0
 13 14  2  0
 13 34  1  0
 14 15  1  0
 15 16  1  0
 15 32  2  0
 16 17  2  0
 16 31  1  0
 17 18  1  0
 18 19  2  0
 18 23  1  0
 19 20  1  0
 20 21  2  0
 21 22  1  0
 22 23  2  0
 23 24  1  0
 24 25  2  3
 24 31  1  0
 25 26  1  0
 27 26  1  6
 27 28  1  0
 27 30  1  0
 28 29  1  0
 29 30  1  0
 32 33  1  0
 33 34  2  0
 34 35  1  0
 35 36  1  0
 36 37  2  0
 36 41  1  0
 37 38  1  0
 38 39  2  0
 39 40  1  0
 40 41  2  0
 41 42  1  0
M  END
