
     RDKit          3D

 42 47  0  0  0  0  0  0  0  0999 V2000
    8.6240   -0.2780   -2.8340 C   0  0  0  0  0  0  0  0  0  0  0  0
    7.9130   -0.8470   -1.9000 C   0  0  0  0  0  0  0  0  0  0  0  0
    7.1140   -0.0800   -1.0110 N   0  0  0  0  0  0  0  0  0  0  0  0
    5.8360   -0.5110   -0.7390 C   0  0  0  0  0  0  0  0  0  0  0  0
    5.4780   -1.5640   -1.3280 O   0  0  0  0  0  0  0  0  0  0  0  0
    5.0070    0.1590    0.1150 C   0  0  0  0  0  0  0  0  0  0  0  0
    3.6530   -0.2600    0.4350 C   0  0  0  0  0  0  0  0  0  0  0  0
    2.9850    0.4600    1.2370 O   0  0  0  0  0  0  0  0  0  0  0  0
    3.0300   -1.4120   -0.0840 N   0  0  0  0  0  0  0  0  0  0  0  0
    1.6720   -1.6950    0.3260 C   0  0  0  0  0  0  0  0  0  0  0  0
    0.6950   -0.6810   -0.0930 C   0  0  0  0  0  0  0  0  0  0  0  0
    0.9550    0.4010   -0.8050 N   0  0  0  0  0  0  0  0  0  0  0  0
   -0.1950    1.0970   -1.0120 C   0  0  0  0  0  0  0  0  0  0  0  0
   -0.4430    2.2560   -1.6590 N   0  0  0  0  0  0  0  0  0  0  0  0
   -1.6480    2.8310   -1.7640 C   0  0  0  0  0  0  0  0  0  0  0  0
   -1.8680    4.1090   -2.4880 C   0  0  0  0  0  0  0  0  0  0  0  0
   -2.6890    2.1680   -1.1570 C   0  0  0  0  0  0  0  0  0  0  0  0
   -4.0800    2.6820   -1.1850 C   0  0  0  0  0  0  0  0  0  0  0  0
   -4.3210    3.7920   -0.2650 C   0  0  0  0  0  0  0  0  0  0  0  0
   -4.7140    5.0030   -0.6090 C   0  0  0  0  0  0  0  0  0  0  0  0
   -4.8600    5.8800    0.5760 C   0  0  0  0  0  0  0  0  0  0  0  0
   -4.4780    4.9500    1.6720 C   0  0  0  0  0  0  0  0  0  0  0  0
   -4.1750    3.7700    1.1770 C   0  0  0  0  0  0  0  0  0  0  0  0
   -2.4730    0.9590   -0.4740 C   0  0  0  0  0  0  0  0  0  0  0  0
   -1.2160    0.4350   -0.4120 C   0  0  0  0  0  0  0  0  0  0  0  0
   -0.6840   -0.6920    0.1750 C   0  0  0  0  0  0  0  0  0  0  0  0
   -1.3000   -1.7340    0.9630 C   0  0  0  0  0  0  0  0  0  0  0  0
   -0.5410   -2.3800    1.7830 O   0  0  0  0  0  0  0  0  0  0  0  0
   -2.6490   -2.1330    0.9340 N   0  0  0  0  0  0  0  0  0  0  0  0
   -3.1470   -3.2110    1.8100 C   0  0  2  0  0  0  0  0  0  0  0  0
   -2.9570   -2.8810    3.2590 C   0  0  0  0  0  0  0  0  0  0  0  0
   -2.4210   -4.5080    1.4990 C   0  0  0  0  0  0  0  0  0  0  0  0
   -2.3310   -4.6260   -0.0060 C   0  0  0  0  0  0  0  0  0  0  0  0
   -3.7080   -4.4500   -0.6200 C   0  0  0  0  0  0  0  0  0  0  0  0
   -4.7590   -4.5100    0.4540 C   0  0  0  0  0  0  0  0  0  0  0  0
   -4.6050   -3.4510    1.5060 C   0  0  0  0  0  0  0  0  0  0  0  0
    5.5200    1.3230    0.7140 C   0  0  0  0  0  0  0  0  0  0  0  0
    6.7870    1.7520    0.4470 C   0  0  0  0  0  0  0  0  0  0  0  0
    7.4900    2.7740    0.8650 O   0  0  0  0  0  0  0  0  0  0  0  0
    8.6710    2.7850    0.3440 C   0  0  0  0  0  0  0  0  0  0  0  0
    8.7860    1.6850   -0.4950 C   0  0  0  0  0  0  0  0  0  0  0  0
    7.5840    1.0260   -0.4320 C   0  0  0  0  0  0  0  0  0  0  0  0
  1  2  2  0
  2  3  1  0
  3  4  1  0
  3 42  1  0
  4  5  2  0
  4  6  1  0
  6  7  1  0
  6 37  2  0
  7  8  2  0
  7  9  1  0
  9 10  1  0
 10 11  1  0
 11 12  1  0
 11 26  2  0
 12 13  1  0
 13 14  2  0
 13 25  1  0
 14 15  1  0
 15 16  1  0
 15 17  2  0
 17 18  1  0
 17 24  1  0
 18 19  1  0
 19 20  2  0
 19 23  1  0
 20 21  1  0
 21 22  1  0
 22 23  2  0
 24 25  2  0
 25 26  1  0
 26 27  1  0
 27 28  2  0
 27 29  1  0
 29 30  1  0
 30 31  1  1
 30 32  1  0
 30 36  1  0
 32 33  1  0
 33 34  1  0
 34 35  1  0
 35 36  1  0
 37 38  1  0
 38 39  1  0
 38 42  2  0
 39 40  1  0
 40 41  2  0
 41 42  1  0
M  END
