
     RDKit          3D

 42 47  0  0  0  0  0  0  0  0999 V2000
   -4.8050    1.7140   -4.0100 C   0  0  0  0  0  0  0  0  0  0  0  0
   -3.4100    1.9310   -3.5610 C   0  0  0  0  0  0  0  0  0  0  0  0
   -2.6470    2.9030   -4.2220 C   0  0  0  0  0  0  0  0  0  0  0  0
   -1.3510    3.1240   -3.8240 C   0  0  0  0  0  0  0  0  0  0  0  0
   -0.8050    2.3880   -2.7750 C   0  0  0  0  0  0  0  0  0  0  0  0
   -1.5700    1.4440   -2.1440 C   0  0  0  0  0  0  0  0  0  0  0  0
   -1.0810    0.6420   -1.0390 C   0  0  0  0  0  0  0  0  0  0  0  0
    0.2710    0.9150   -0.6800 N   0  0  0  0  0  0  0  0  0  0  0  0
    0.9120    0.2120    0.4150 C   0  0  0  0  0  0  0  0  0  0  0  0
    0.2040   -0.6350    1.0110 O   0  0  0  0  0  0  0  0  0  0  0  0
    2.2950    0.5030    0.7680 C   0  0  0  0  0  0  0  0  0  0  0  0
    3.1160    1.4090    0.1320 C   0  0  0  0  0  0  0  0  0  0  0  0
    4.3170    1.4280    0.7080 N   0  0  0  0  0  0  0  0  0  0  0  0
    4.2870    0.5400    1.7180 C   0  0  0  0  0  0  0  0  0  0  0  0
    5.4270    0.2470    2.6220 C   0  0  0  0  0  0  0  0  0  0  0  0
    6.2900   -0.8860    2.0960 C   0  0  2  0  0  0  0  0  0  0  0  0
    7.4030   -1.1060    3.0680 C   0  0  0  0  0  0  0  0  0  0  0  0
    8.6360   -0.3040    2.8070 C   0  0  0  0  0  0  0  0  0  0  0  0
    9.0480   -0.3800    1.4250 N   0  0  0  0  0  0  0  0  0  0  0  0
   10.2240    0.4230    1.2170 C   0  0  0  0  0  0  0  0  0  0  0  0
    7.9710    0.2240    0.6430 C   0  0  0  0  0  0  0  0  0  0  0  0
    6.7430   -0.6610    0.6910 C   0  0  0  0  0  0  0  0  0  0  0  0
    3.0480   -0.0160    1.7430 N   0  0  0  0  0  0  0  0  0  0  0  0
   -2.8870    1.2120   -2.5400 C   0  0  0  0  0  0  0  0  0  0  0  0
   -3.6470    0.2140   -1.8550 N   0  0  0  0  0  0  0  0  0  0  0  0
   -3.6770   -1.1180   -2.2620 C   0  0  0  0  0  0  0  0  0  0  0  0
   -2.9540   -1.3540   -3.3170 O   0  0  0  0  0  0  0  0  0  0  0  0
   -4.4020   -2.2060   -1.6490 C   0  0  0  0  0  0  0  0  0  0  0  0
   -4.2910   -3.4950   -2.2340 C   0  0  0  0  0  0  0  0  0  0  0  0
   -4.9380   -4.5610   -1.7140 C   0  0  0  0  0  0  0  0  0  0  0  0
   -5.7170   -4.3940   -0.6020 C   0  0  0  0  0  0  0  0  0  0  0  0
   -5.8580   -3.1490    0.0070 C   0  0  0  0  0  0  0  0  0  0  0  0
   -5.1820   -2.0450   -0.5390 C   0  0  0  0  0  0  0  0  0  0  0  0
   -5.3240   -0.8120    0.0680 O   0  0  0  0  0  0  0  0  0  0  0  0
   -6.1070   -0.6410    1.1870 C   0  0  0  0  0  0  0  0  0  0  0  0
   -6.2770    0.5700    1.8240 C   0  0  0  0  0  0  0  0  0  0  0  0
   -5.6060    1.7900    1.3160 C   0  0  0  0  0  0  0  0  0  0  0  0
   -7.0750    0.6650    2.9380 C   0  0  0  0  0  0  0  0  0  0  0  0
   -7.7380   -0.4290    3.4700 C   0  0  0  0  0  0  0  0  0  0  0  0
   -7.5730   -1.6320    2.8430 C   0  0  0  0  0  0  0  0  0  0  0  0
   -6.7740   -1.7530    1.7190 C   0  0  0  0  0  0  0  0  0  0  0  0
   -6.6490   -2.9980    1.1310 O   0  0  0  0  0  0  0  0  0  0  0  0
  1  2  1  0
  2  3  2  0
  2 24  1  0
  3  4  1  0
  4  5  2  0
  5  6  1  0
  6  7  1  0
  6 24  2  0
  7  8  1  0
  8  9  1  0
  9 10  2  0
  9 11  1  0
 11 12  2  0
 11 23  1  0
 12 13  1  0
 13 14  1  0
 14 15  1  0
 14 23  2  0
 16 15  1  1
 16 17  1  0
 16 22  1  0
 17 18  1  0
 18 19  1  0
 19 20  1  0
 19 21  1  0
 21 22  1  0
 24 25  1  0
 25 26  1  0
 26 27  2  0
 26 28  1  0
 28 29  2  0
 28 33  1  0
 29 30  1  0
 30 31  2  0
 31 32  1  0
 32 33  2  0
 32 42  1  0
 33 34  1  0
 34 35  1  0
 35 36  2  0
 35 41  1  0
 36 37  1  0
 36 38  1  0
 38 39  2  0
 39 40  1  0
 40 41  2  0
 41 42  1  0
M  END
