
     RDKit          3D

 43 46  0  0  0  0  0  0  0  0999 V2000
    6.2870    1.0070    2.9890 C   0  0  0  0  0  0  0  0  0  0  0  0
    5.4950    1.0560    1.8210 O   0  0  0  0  0  0  0  0  0  0  0  0
    5.2070   -0.0690    1.0660 C   0  0  0  0  0  0  0  0  0  0  0  0
    5.7060   -1.2730    1.4630 C   0  0  0  0  0  0  0  0  0  0  0  0
    5.4410   -2.4160    0.7380 C   0  0  0  0  0  0  0  0  0  0  0  0
    4.6550   -2.3190   -0.4070 C   0  0  0  0  0  0  0  0  0  0  0  0
    4.1370   -1.1160   -0.8340 C   0  0  0  0  0  0  0  0  0  0  0  0
    3.3230   -1.0790   -2.0560 C   0  0  0  0  0  0  0  0  0  0  0  0
    1.8240   -1.2980   -1.7910 C   0  0  2  0  0  0  0  0  0  0  0  0
    1.2320   -1.2130   -3.1970 C   0  0  0  0  0  0  0  0  0  0  0  0
    0.5870   -2.1620   -3.6660 N   0  0  0  0  0  0  0  0  0  0  0  0
    0.2170   -3.4190   -3.1990 C   0  0  0  0  0  0  0  0  0  0  0  0
   -0.8640   -3.5950   -2.5270 N   0  0  0  0  0  0  0  0  0  0  0  0
   -1.8570   -2.6780   -2.1260 C   0  0  0  0  0  0  0  0  0  0  0  0
   -2.9940   -2.7480   -2.7960 O   0  0  0  0  0  0  0  0  0  0  0  0
   -1.7170   -1.7770   -1.1440 O   0  0  0  0  0  0  0  0  0  0  0  0
   -1.8960   -1.7070    0.2200 C   0  0  0  0  0  0  0  0  0  0  0  0
   -2.5690   -0.3460    0.6240 C   0  0  1  0  0  0  0  0  0  0  0  0
   -2.4920    0.4310   -0.4960 O   0  0  0  0  0  0  0  0  0  0  0  0
   -3.1690    1.5770   -0.5750 C   0  0  0  0  0  0  0  0  0  0  0  0
   -4.6730    1.5460   -0.4820 C   0  0  0  0  0  0  0  0  0  0  0  0
   -5.0600    2.9150   -0.6220 O   0  0  0  0  0  0  0  0  0  0  0  0
   -6.3420    3.0600   -0.5620 O   0  0  0  0  0  0  0  0  0  0  0  0
   -7.0360    1.9780   -0.7400 O   0  0  0  0  0  0  0  0  0  0  0  0
   -3.9650   -0.6650    0.7550 O   0  0  0  0  0  0  0  0  0  0  0  0
   -4.5250   -1.5480    1.5990 C   0  0  0  0  0  0  0  0  0  0  0  0
   -3.8780   -2.2170    2.3970 O   0  0  0  0  0  0  0  0  0  0  0  0
   -5.9210   -1.7200    1.5730 O   0  0  0  0  0  0  0  0  0  0  0  0
   -1.9770    0.1960    1.8470 C   0  0  0  0  0  0  0  0  0  0  0  0
   -1.9310   -0.6100    2.8510 O   0  0  0  0  0  0  0  0  0  0  0  0
   -1.4350    1.4790    2.1260 N   0  0  0  0  0  0  0  0  0  0  0  0
   -1.8970    2.2470    3.2930 C   0  0  0  0  0  0  0  0  0  0  0  0
   -0.4050    2.1140    1.3290 C   0  0  0  0  0  0  0  0  0  0  0  0
   -0.1230    3.3240    1.6730 O   0  0  0  0  0  0  0  0  0  0  0  0
    0.3190    1.4930    0.1810 C   0  0  0  0  0  0  0  0  0  0  0  0
    0.8130    0.2800    0.0510 C   0  0  0  0  0  0  0  0  0  0  0  0
    1.2850   -0.1010   -1.2390 N   0  0  0  0  0  0  0  0  0  0  0  0
    1.2540    0.8030   -2.3840 C   0  0  0  0  0  0  0  0  0  0  0  0
    1.6890    0.1450   -3.4600 N   0  0  0  0  0  0  0  0  0  0  0  0
    0.7510    2.1180   -2.2670 N   0  0  0  0  0  0  0  0  0  0  0  0
    0.2810    2.4610   -0.9720 C   0  0  0  0  0  0  0  0  0  0  0  0
   -0.1710    3.6400   -0.8640 O   0  0  0  0  0  0  0  0  0  0  0  0
    4.4230    0.0030   -0.0840 C   0  0  0  0  0  0  0  0  0  0  0  0
  1  2  1  0
  2  3  1  0
  3  4  2  0
  3 43  1  0
  4  5  1  0
  5  6  2  0
  6  7  1  0
  7  8  1  0
  7 43  2  0
  9  8  1  6
  9 10  1  0
  9 37  1  0
 10 11  2  0
 10 39  1  0
 11 12  1  0
 12 13  2  0
 13 14  1  0
 14 15  2  0
 14 16  1  0
 16 17  1  0
 17 18  1  0
 18 19  1  6
 18 25  1  0
 18 29  1  0
 19 20  1  0
 20 21  1  0
 21 22  1  0
 22 23  1  0
 23 24  1  0
 25 26  1  0
 26 27  2  0
 26 28  1  0
 29 30  2  0
 29 31  1  0
 31 32  1  0
 31 33  1  0
 33 34  2  0
 33 35  1  0
 35 36  2  0
 35 41  1  0
 36 37  1  0
 37 38  1  0
 38 39  2  0
 38 40  1  0
 40 41  1  0
 41 42  2  0
M  END
