
     RDKit          3D

 44 48  0  0  0  0  0  0  0  0999 V2000
    2.6460   -0.6800    2.1460 C   0  0  0  0  0  0  0  0  0  0  0  0
    2.8910    0.1980    0.9060 C   0  0  1  0  0  0  0  0  0  0  0  0
    4.3690    0.6310    1.0020 C   0  0  0  0  0  0  0  0  0  0  0  0
    5.2010   -0.4970    1.1570 O   0  0  0  0  0  0  0  0  0  0  0  0
    6.5800   -0.3750    1.2610 C   0  0  0  0  0  0  0  0  0  0  0  0
    7.0470    0.8000    1.2090 O   0  0  0  0  0  0  0  0  0  0  0  0
    7.4510   -1.4450    1.4150 O   0  0  0  0  0  0  0  0  0  0  0  0
    2.9010   -0.8310   -0.2380 C   0  0  0  0  0  0  0  0  0  0  0  0
    1.7940   -1.8230   -0.0710 C   0  0  0  0  0  0  0  0  0  0  0  0
    1.1350   -2.2200   -1.2840 N   0  0  0  0  0  0  0  0  0  0  0  0
    1.8820   -2.6080   -2.4010 C   0  0  0  0  0  0  0  0  0  0  0  0
    1.4050   -2.9800   -3.5080 O   0  0  0  0  0  0  0  0  0  0  0  0
    3.2910   -2.5930   -2.3150 O   0  0  0  0  0  0  0  0  0  0  0  0
   -0.3070   -2.2290   -1.3630 C   0  0  2  0  0  0  0  0  0  0  0  0
   -0.8170   -0.7790   -1.3340 C   0  0  0  0  0  0  0  0  0  0  0  0
   -0.1840    0.0810   -2.3620 C   0  0  0  0  0  0  0  0  0  0  0  0
    0.6920    1.0580   -1.8900 O   0  0  0  0  0  0  0  0  0  0  0  0
    0.3940    2.3920   -1.6160 C   0  0  0  0  0  0  0  0  0  0  0  0
    1.2620    3.2420   -2.0300 O   0  0  0  0  0  0  0  0  0  0  0  0
   -0.7910    2.8990   -0.9170 C   0  0  0  0  0  0  0  0  0  0  0  0
   -1.1380    2.5700    0.3000 C   0  0  0  0  0  0  0  0  0  0  0  0
   -0.2800    2.0080    1.3200 N   0  0  0  0  0  0  0  0  0  0  0  0
    1.1320    1.9860    1.4390 C   0  0  0  0  0  0  0  0  0  0  0  0
    1.5690    2.8290    2.3840 O   0  0  0  0  0  0  0  0  0  0  0  0
    2.0450    1.2500    0.7440 O   0  0  0  0  0  0  0  0  0  0  0  0
   -2.5550    2.9650    0.4080 C   0  0  2  0  0  0  0  0  0  0  0  0
   -3.4660    1.7900    0.0800 C   0  0  0  0  0  0  0  0  0  0  0  0
   -4.5100    2.1670   -0.5190 O   0  0  0  0  0  0  0  0  0  0  0  0
   -3.1640    0.5660    0.3970 O   0  0  0  0  0  0  0  0  0  0  0  0
   -3.4310   -0.5350    1.1440 C   0  0  1  0  0  0  0  0  0  0  0  0
   -3.9560   -0.0170    2.5050 C   0  0  0  0  0  0  0  0  0  0  0  0
   -4.6030   -1.3710    0.6450 C   0  0  0  0  0  0  0  0  0  0  0  0
   -4.3440   -2.7360    0.7400 O   0  0  0  0  0  0  0  0  0  0  0  0
   -3.1750   -3.2100    0.1420 C   0  0  0  0  0  0  0  0  0  0  0  0
   -3.1270   -4.1830   -0.6500 O   0  0  0  0  0  0  0  0  0  0  0  0
   -1.9380   -2.4740    0.5080 N   0  0  0  0  0  0  0  0  0  0  0  0
   -0.7880   -2.9850   -0.1300 C   0  0  0  0  0  0  0  0  0  0  0  0
   -2.2150   -1.4320    1.4020 C   0  0  0  0  0  0  0  0  0  0  0  0
   -1.6500   -1.0260    2.4580 O   0  0  0  0  0  0  0  0  0  0  0  0
   -2.7350    3.9810   -0.6040 N   0  0  0  0  0  0  0  0  0  0  0  0
   -3.6060    4.9460   -1.0300 C   0  0  0  0  0  0  0  0  0  0  0  0
   -3.1450    5.3430   -2.2270 N   0  0  0  0  0  0  0  0  0  0  0  0
   -2.0500    4.6810   -2.5490 N   0  0  0  0  0  0  0  0  0  0  0  0
   -1.8010    3.8270   -1.5100 C   0  0  0  0  0  0  0  0  0  0  0  0
  2  1  1  1
  2  3  1  0
  2  8  1  0
  2 25  1  0
  3  4  1  0
  4  5  1  0
  5  6  2  0
  5  7  1  0
  8  9  1  0
  9 10  1  0
 10 11  1  0
 10 14  1  0
 11 12  2  0
 11 13  1  0
 14 15  1  0
 14 37  1  1
 15 16  1  0
 16 17  1  0
 17 18  1  0
 18 19  2  0
 18 20  1  0
 20 21  2  0
 20 44  1  0
 21 22  1  0
 21 26  1  0
 22 23  1  0
 23 24  2  0
 23 25  1  0
 26 27  1  0
 26 40  1  6
 27 28  2  0
 27 29  1  0
 29 30  1  0
 30 31  1  1
 30 32  1  0
 30 38  1  0
 32 33  1  0
 33 34  1  0
 34 35  2  0
 34 36  1  0
 36 37  1  0
 36 38  1  0
 38 39  2  0
 40 41  1  0
 40 44  1  0
 41 42  2  0
 42 43  1  0
 43 44  2  0
M  END
