
     RDKit          3D

 43 46  0  0  0  0  0  0  0  0999 V2000
    2.1170    7.4240    1.1040 C   0  0  0  0  0  0  0  0  0  0  0  0
    2.5590    6.7610   -0.1560 C   0  0  0  0  0  0  0  0  0  0  0  0
    1.7210    5.7420   -0.6090 O   0  0  0  0  0  0  0  0  0  0  0  0
    1.4630    4.6200    0.1670 C   0  0  0  0  0  0  0  0  0  0  0  0
    2.0070    4.5530    1.2880 O   0  0  0  0  0  0  0  0  0  0  0  0
    0.6480    3.5870   -0.2270 O   0  0  0  0  0  0  0  0  0  0  0  0
    0.3940    2.4360    0.5890 C   0  0  0  0  0  0  0  0  0  0  0  0
   -0.5290    1.5560   -0.1850 C   0  0  1  0  0  0  0  0  0  0  0  0
   -0.0160    1.1010   -1.5080 C   0  0  0  0  0  0  0  0  0  0  0  0
    1.2460    0.3080   -1.4660 C   0  0  0  0  0  0  0  0  0  0  0  0
    2.3120    1.0040   -0.9080 O   0  0  0  0  0  0  0  0  0  0  0  0
    3.4750    0.2610   -0.8740 C   0  0  0  0  0  0  0  0  0  0  0  0
    4.5460    1.1310   -0.2500 C   0  0  0  0  0  0  0  0  0  0  0  0
    5.7930    0.4780   -0.1580 O   0  0  0  0  0  0  0  0  0  0  0  0
    6.0220   -0.6760    0.5430 C   0  0  0  0  0  0  0  0  0  0  0  0
    5.0860   -1.2200    1.1570 O   0  0  0  0  0  0  0  0  0  0  0  0
    7.3080   -1.2820    0.5920 N   0  0  0  0  0  0  0  0  0  0  0  0
    7.5620   -2.5040    1.3300 C   0  0  0  0  0  0  0  0  0  0  0  0
    9.0050   -2.8840    1.1880 C   0  0  0  0  0  0  0  0  0  0  0  0
    9.2240   -4.0580    1.9040 O   0  0  0  0  0  0  0  0  0  0  0  0
   -0.9890    0.3420    0.5960 C   0  0  0  0  0  0  0  0  0  0  0  0
   -2.4010    0.2200    0.0830 N   0  0  0  0  0  0  0  0  0  0  0  0
   -3.0400   -0.9840   -0.2430 C   0  0  0  0  0  0  0  0  0  0  0  0
   -2.2590   -2.0010    0.0490 O   0  0  0  0  0  0  0  0  0  0  0  0
   -4.2940   -1.2520   -0.7950 N   0  0  0  0  0  0  0  0  0  0  0  0
   -5.1770   -0.1950   -1.2190 C   0  0  0  0  0  0  0  0  0  0  0  0
   -6.2180   -0.5730   -2.2250 C   0  0  0  0  0  0  0  0  0  0  0  0
   -6.2420   -1.8520   -2.6690 O   0  0  0  0  0  0  0  0  0  0  0  0
   -5.1230   -2.6140   -2.5020 C   0  0  0  0  0  0  0  0  0  0  0  0
   -4.8310   -2.5880   -0.9850 C   0  0  1  0  0  0  0  0  0  0  0  0
   -3.9200   -3.7210   -0.7590 C   0  0  0  0  0  0  0  0  0  0  0  0
   -3.6420   -4.1180    0.5440 O   0  0  0  0  0  0  0  0  0  0  0  0
   -4.1720   -3.9530    1.7860 C   0  0  0  0  0  0  0  0  0  0  0  0
   -3.6350   -4.3290    2.9920 C   0  0  0  0  0  0  0  0  0  0  0  0
   -4.4860   -3.9720    3.8980 O   0  0  0  0  0  0  0  0  0  0  0  0
   -5.5450   -3.3890    3.3760 N   0  0  0  0  0  0  0  0  0  0  0  0
   -5.4070   -3.3460    2.0390 C   0  0  0  0  0  0  0  0  0  0  0  0
   -6.3330   -2.7970    1.1120 N   0  0  0  0  0  0  0  0  0  0  0  0
   -6.1400   -2.7360   -0.3130 C   0  0  0  0  0  0  0  0  0  0  0  0
   -7.2080   -2.8190   -1.0120 O   0  0  0  0  0  0  0  0  0  0  0  0
   -2.8640    1.5660    0.0880 C   0  0  0  0  0  0  0  0  0  0  0  0
   -3.9710    2.0140    0.4600 O   0  0  0  0  0  0  0  0  0  0  0  0
   -1.7480    2.3240   -0.4360 N   0  0  0  0  0  0  0  0  0  0  0  0
  1  2  1  0
  2  3  1  0
  3  4  1  0
  4  5  2  0
  4  6  1  0
  6  7  1  0
  8  7  1  1
  8  9  1  0
  8 21  1  0
  8 43  1  0
  9 10  1  0
 10 11  1  0
 11 12  1  0
 12 13  1  0
 13 14  1  0
 14 15  1  0
 15 16  2  0
 15 17  1  0
 17 18  1  0
 18 19  1  0
 19 20  1  0
 21 22  1  0
 22 23  1  0
 22 41  1  0
 23 24  2  0
 23 25  1  0
 25 26  1  0
 25 30  1  0
 26 27  1  0
 27 28  1  0
 28 29  1  0
 30 29  1  6
 30 31  1  0
 30 39  1  0
 31 32  1  0
 32 33  1  0
 33 34  2  0
 33 37  1  0
 34 35  1  0
 35 36  1  0
 36 37  2  0
 37 38  1  0
 38 39  1  0
 39 40  2  0
 41 42  2  0
 41 43  1  0
M  END
