
     RDKit          3D

 43 45  0  0  0  0  0  0  0  0999 V2000
    5.9950   -2.9020    2.2020 C   0  0  0  0  0  0  0  0  0  0  0  0
    5.0190   -3.9670    1.7550 C   0  0  0  0  0  0  0  0  0  0  0  0
    3.9910   -3.3700    0.9240 N   0  0  0  0  0  0  0  0  0  0  0  0
    4.0720   -3.2250   -0.5270 C   0  0  0  0  0  0  0  0  0  0  0  0
    2.8330   -2.4980   -0.9360 C   0  0  0  0  0  0  0  0  0  0  0  0
    2.2110   -2.0180    0.2990 N   0  0  0  0  0  0  0  0  0  0  0  0
    1.3060   -0.9930    0.3390 O   0  0  0  0  0  0  0  0  0  0  0  0
    1.0730   -0.1580    1.4090 C   0  0  0  0  0  0  0  0  0  0  0  0
    1.8090   -0.4220    2.4330 O   0  0  0  0  0  0  0  0  0  0  0  0
    0.1680    0.9020    1.5060 N   0  0  0  0  0  0  0  0  0  0  0  0
    0.1450    1.6350    2.7830 C   0  0  0  0  0  0  0  0  0  0  0  0
   -0.2370    3.0870    2.6010 C   0  0  0  0  0  0  0  0  0  0  0  0
   -1.6020    3.1210    2.0380 N   0  0  0  0  0  0  0  0  0  0  0  0
   -1.8830    2.0480    1.1540 C   0  0  0  0  0  0  0  0  0  0  0  0
   -3.0540    1.6910    0.9580 O   0  0  0  0  0  0  0  0  0  0  0  0
   -0.7470    1.3810    0.4860 C   0  0  1  0  0  0  0  0  0  0  0  0
   -0.0070    2.3440   -0.3940 C   0  0  0  0  0  0  0  0  0  0  0  0
    1.2330    2.2040   -0.4420 O   0  0  0  0  0  0  0  0  0  0  0  0
   -0.6120    3.3650   -1.1400 N   0  0  0  0  0  0  0  0  0  0  0  0
    0.0030    4.3010   -1.9880 C   0  0  0  0  0  0  0  0  0  0  0  0
    1.3500    4.4530   -2.1680 C   0  0  0  0  0  0  0  0  0  0  0  0
    1.8550    5.4200   -3.0540 C   0  0  0  0  0  0  0  0  0  0  0  0
    1.0160    6.2470   -3.7710 C   0  0  0  0  0  0  0  0  0  0  0  0
   -0.3410    6.1020   -3.5970 C   0  0  0  0  0  0  0  0  0  0  0  0
   -0.8040    5.1530   -2.7280 C   0  0  0  0  0  0  0  0  0  0  0  0
   -1.3000    0.2260   -0.3040 C   0  0  2  0  0  0  0  0  0  0  0  0
   -2.2520    0.6100   -1.3690 C   0  0  0  0  0  0  0  0  0  0  0  0
   -3.4730    0.3470   -1.2430 O   0  0  0  0  0  0  0  0  0  0  0  0
   -1.8150    1.2510   -2.4940 O   0  0  0  0  0  0  0  0  0  0  0  0
   -2.7720    1.5980   -3.4860 C   0  0  0  0  0  0  0  0  0  0  0  0
   -1.9510   -0.7180    0.6280 C   0  0  0  0  0  0  0  0  0  0  0  0
   -1.9740   -0.5140    1.8610 O   0  0  0  0  0  0  0  0  0  0  0  0
   -2.5780   -1.8890    0.1930 O   0  0  0  0  0  0  0  0  0  0  0  0
   -3.1930   -2.7800    1.0510 C   0  0  0  0  0  0  0  0  0  0  0  0
   -3.2110   -2.5630    2.2890 O   0  0  0  0  0  0  0  0  0  0  0  0
   -3.8470   -4.0050    0.5800 C   0  0  0  0  0  0  0  0  0  0  0  0
   -3.8430   -4.2560   -0.6590 O   0  0  0  0  0  0  0  0  0  0  0  0
   -4.4800   -4.9160    1.4360 N   0  0  0  0  0  0  0  0  0  0  0  0
   -5.0950   -6.0880    0.8920 C   0  0  0  0  0  0  0  0  0  0  0  0
   -5.0940   -6.3470   -0.3450 O   0  0  0  0  0  0  0  0  0  0  0  0
   -5.7210   -6.9810    1.7460 O   0  0  0  0  0  0  0  0  0  0  0  0
    2.7560   -2.8280    1.3230 C   0  0  0  0  0  0  0  0  0  0  0  0
    2.1770   -3.0160    2.4400 O   0  0  0  0  0  0  0  0  0  0  0  0
  1  2  1  0
  2  3  1  0
  3  4  1  0
  3 42  1  0
  4  5  1  0
  5  6  1  0
  6  7  1  0
  6 42  1  0
  7  8  1  0
  8  9  2  0
  8 10  1  0
 10 11  1  0
 10 16  1  0
 11 12  1  0
 12 13  1  0
 13 14  1  0
 14 15  2  0
 14 16  1  0
 16 17  1  6
 16 26  1  0
 17 18  2  0
 17 19  1  0
 19 20  1  0
 20 21  2  0
 20 25  1  0
 21 22  1  0
 22 23  2  0
 23 24  1  0
 24 25  2  0
 26 27  1  6
 26 31  1  0
 27 28  2  0
 27 29  1  0
 29 30  1  0
 31 32  2  0
 31 33  1  0
 33 34  1  0
 34 35  2  0
 34 36  1  0
 36 37  2  0
 36 38  1  0
 38 39  1  0
 39 40  2  0
 39 41  1  0
 42 43  2  0
M  END
