
     RDKit          3D

 44 48  0  0  0  0  0  0  0  0999 V2000
   11.6740   -0.4180   -0.2250 N   0  0  0  0  0  0  0  0  0  0  0  0
   10.3360   -0.6960    0.1270 C   0  0  0  0  0  0  0  0  0  0  0  0
    9.9600   -1.8760    0.3720 O   0  0  0  0  0  0  0  0  0  0  0  0
    9.3440    0.3610    0.2200 C   0  0  0  0  0  0  0  0  0  0  0  0
    9.7310    1.6660   -0.0500 C   0  0  0  0  0  0  0  0  0  0  0  0
    8.7840    2.6520    0.0420 C   0  0  0  0  0  0  0  0  0  0  0  0
    7.4740    2.3320    0.3980 C   0  0  0  0  0  0  0  0  0  0  0  0
    7.1120    1.0640    0.6560 N   0  0  0  0  0  0  0  0  0  0  0  0
    5.7500    0.7780    1.0200 C   0  0  2  0  0  0  0  0  0  0  0  0
    5.3000   -0.4340    0.4800 O   0  0  0  0  0  0  0  0  0  0  0  0
    3.9430   -0.3810    0.7690 C   0  0  2  0  0  0  0  0  0  0  0  0
    3.1510   -1.4060   -0.0100 C   0  0  0  0  0  0  0  0  0  0  0  0
    1.8160   -1.2700    0.3510 O   0  0  0  0  0  0  0  0  0  0  0  0
    0.8340   -2.3790   -0.4700 P   0  0  1  0  0  0  0  0  0  0  0  0
    1.2500   -2.4290   -1.9410 O   0  0  0  0  0  0  0  0  0  0  0  0
    1.0070   -3.9250    0.1890 O   0  0  0  0  0  0  0  0  0  0  0  0
   -0.7830   -1.8900   -0.4530 O   0  0  0  0  0  0  0  0  0  0  0  0
   -1.6410   -2.9250   -1.4810 P   0  0  1  0  0  0  0  0  0  0  0  0
   -1.4370   -2.3960   -2.9020 O   0  0  0  0  0  0  0  0  0  0  0  0
   -0.9050   -4.4570   -1.3510 O   0  0  0  0  0  0  0  0  0  0  0  0
   -3.2720   -2.9910   -1.1370 O   0  0  0  0  0  0  0  0  0  0  0  0
   -3.7220   -1.9120   -0.3890 C   0  0  0  0  0  0  0  0  0  0  0  0
   -5.2020   -2.0550   -0.1260 C   0  0  1  0  0  0  0  0  0  0  0  0
   -5.7360   -1.0340    0.6070 O   0  0  0  0  0  0  0  0  0  0  0  0
   -7.0330   -0.8170    0.2040 C   0  0  1  0  0  0  0  0  0  0  0  0
   -7.1810    0.5730   -0.1830 N   0  0  0  0  0  0  0  0  0  0  0  0
   -7.0870    1.1680   -1.3660 C   0  0  0  0  0  0  0  0  0  0  0  0
   -7.3000    2.4960   -1.2710 N   0  0  0  0  0  0  0  0  0  0  0  0
   -7.5400    2.7790    0.0120 C   0  0  0  0  0  0  0  0  0  0  0  0
   -7.8160    3.9790    0.6390 C   0  0  0  0  0  0  0  0  0  0  0  0
   -7.8710    5.1510   -0.1420 N   0  0  0  0  0  0  0  0  0  0  0  0
   -8.0180    3.9550    1.9730 N   0  0  0  0  0  0  0  0  0  0  0  0
   -7.9500    2.7900    2.6570 C   0  0  0  0  0  0  0  0  0  0  0  0
   -7.6790    1.6260    2.0290 N   0  0  0  0  0  0  0  0  0  0  0  0
   -7.4660    1.5810    0.6930 C   0  0  0  0  0  0  0  0  0  0  0  0
   -7.3660   -1.7620   -0.9160 C   0  0  2  0  0  0  0  0  0  0  0  0
   -7.9240   -2.9350   -0.4080 O   0  0  0  0  0  0  0  0  0  0  0  0
   -5.9870   -2.1080   -1.4350 C   0  0  2  0  0  0  0  0  0  0  0  0
   -5.9470   -3.3840   -1.9880 O   0  0  0  0  0  0  0  0  0  0  0  0
    3.5570    0.9840    0.2120 C   0  0  1  0  0  0  0  0  0  0  0  0
    2.5520    1.4810    1.0230 O   0  0  0  0  0  0  0  0  0  0  0  0
    4.8380    1.7630    0.3600 C   0  0  1  0  0  0  0  0  0  0  0  0
    4.5720    2.8610    1.1680 O   0  0  0  0  0  0  0  0  0  0  0  0
    8.0280    0.1070    0.5680 C   0  0  0  0  0  0  0  0  0  0  0  0
  1  2  1  0
  2  3  2  0
  2  4  1  0
  4  5  2  0
  4 44  1  0
  5  6  1  0
  6  7  2  0
  7  8  1  0
  9  8  1  6
  8 44  2  0
  9 10  1  0
  9 42  1  0
 10 11  1  0
 11 12  1  6
 11 40  1  0
 12 13  1  0
 13 14  1  0
 14 15  2  0
 14 16  1  1
 14 17  1  0
 17 18  1  0
 18 19  2  0
 18 20  1  6
 18 21  1  0
 21 22  1  0
 23 22  1  6
 23 24  1  0
 23 38  1  0
 24 25  1  0
 25 26  1  6
 25 36  1  0
 26 27  1  0
 26 35  1  0
 27 28  2  0
 28 29  1  0
 29 30  2  0
 29 35  1  0
 30 31  1  0
 30 32  1  0
 32 33  2  0
 33 34  1  0
 34 35  2  0
 36 37  1  1
 36 38  1  0
 38 39  1  1
 40 41  1  1
 40 42  1  0
 42 43  1  1
M  CHG  2   8   1  16  -1
M  END
