
     RDKit          3D

 33 34  0  0  0  0  0  0  0  0999 V2000
   -5.3100   -2.6360   -0.2870 C   0  0  0  0  0  0  0  0  0  0  0  0
   -4.0950   -1.9730   -0.3830 O   0  0  0  0  0  0  0  0  0  0  0  0
   -4.1090   -0.7740    0.3170 C   0  0  1  0  0  0  0  0  0  0  0  0
   -3.1550   -0.8560    1.4890 C   0  0  0  0  0  0  0  0  0  0  0  0
   -1.7790   -1.1230    1.0620 N   0  0  0  0  0  0  0  0  0  0  0  0
   -1.2210   -2.2210    1.8150 C   0  0  1  0  0  0  0  0  0  0  0  0
   -1.6060   -3.5700    1.2530 C   0  0  0  0  0  0  0  0  0  0  0  0
   -1.1550   -3.8040   -0.1490 C   0  0  0  0  0  0  0  0  0  0  0  0
   -1.5960   -5.0900   -0.5130 O   0  0  0  0  0  0  0  0  0  0  0  0
    0.2580   -2.1150    1.9750 C   0  0  0  0  0  0  0  0  0  0  0  0
    0.7600   -2.9720    2.7340 O   0  0  0  0  0  0  0  0  0  0  0  0
    1.0850   -1.1650    1.3590 N   0  0  0  0  0  0  0  0  0  0  0  0
    2.5030   -1.0480    1.5030 C   0  0  0  0  0  0  0  0  0  0  0  0
    3.2880   -1.8760    2.2530 C   0  0  0  0  0  0  0  0  0  0  0  0
    4.6750   -1.7130    2.3510 C   0  0  0  0  0  0  0  0  0  0  0  0
    5.2460   -0.6870    1.6680 C   0  0  0  0  0  0  0  0  0  0  0  0
    4.5090    0.2070    0.8760 C   0  0  0  0  0  0  0  0  0  0  0  0
    5.2570    1.2350    0.2210 C   0  0  0  0  0  0  0  0  0  0  0  0
    6.5360    1.2770    0.3930 O   0  0  0  0  0  0  0  0  0  0  0  0
    4.7390    2.2420   -0.6170 N   0  0  0  0  0  0  0  0  0  0  0  0
    5.6410    3.2490   -1.2310 C   0  0  1  0  0  0  0  0  0  0  0  0
    5.6150    3.1260   -3.0260 S   0  0  0  0  0  0  0  0  0  0  0  0
    5.2290    4.5950   -0.7160 C   0  0  0  0  0  0  0  0  0  0  0  0
    5.3530    4.5990    0.6600 O   0  0  0  0  0  0  0  0  0  0  0  0
    3.1530   -0.0040    0.8190 C   0  0  0  0  0  0  0  0  0  0  0  0
    2.4230    0.8590    0.0510 O   0  0  0  0  0  0  0  0  0  0  0  0
   -3.8920    0.3980   -0.5460 C   0  0  0  0  0  0  0  0  0  0  0  0
   -3.1260    1.4960   -0.2240 C   0  0  0  0  0  0  0  0  0  0  0  0
   -2.9470    2.5710   -1.0800 C   0  0  0  0  0  0  0  0  0  0  0  0
   -3.5530    2.5750   -2.3270 C   0  0  0  0  0  0  0  0  0  0  0  0
   -3.4080    3.6780   -3.2870 C   0  0  0  0  0  0  0  0  0  0  0  0
   -4.3280    1.4870   -2.6800 C   0  0  0  0  0  0  0  0  0  0  0  0
   -4.4840    0.4380   -1.8050 C   0  0  0  0  0  0  0  0  0  0  0  0
  1  2  1  0
  2  3  1  0
  3  4  1  1
  3 27  1  0
  4  5  1  0
  5  6  1  0
  6  7  1  6
  6 10  1  0
  7  8  1  0
  8  9  1  0
 10 11  2  0
 10 12  1  0
 12 13  1  0
 13 14  2  0
 13 25  1  0
 14 15  1  0
 15 16  2  0
 16 17  1  0
 17 18  1  0
 17 25  2  0
 18 19  2  0
 18 20  1  0
 20 21  1  0
 21 22  1  6
 21 23  1  0
 23 24  1  0
 25 26  1  0
 27 28  2  0
 27 33  1  0
 28 29  1  0
 29 30  2  0
 30 31  1  0
 30 32  1  0
 32 33  2  0
M  CHG  1   5   1
M  END
