
     RDKit          3D

 33 34  0  0  0  0  0  0  0  0999 V2000
    2.6850   -3.2200   -1.4550 N   0  0  0  0  0  0  0  0  0  0  0  0
    4.0640   -3.4540   -1.1210 C   0  0  0  0  0  0  0  0  0  0  0  0
    4.5950   -2.2720   -0.3330 C   0  0  0  0  0  0  0  0  0  0  0  0
    4.5020   -1.0120   -1.1190 C   0  0  0  0  0  0  0  0  0  0  0  0
    4.0460   -1.0750   -2.2430 O   0  0  0  0  0  0  0  0  0  0  0  0
    4.9660    0.2520   -0.5060 C   0  0  1  0  0  0  0  0  0  0  0  0
    6.4420    0.1890   -0.1470 C   0  0  0  0  0  0  0  0  0  0  0  0
    7.2360   -0.0420   -1.2560 O   0  0  0  0  0  0  0  0  0  0  0  0
    4.6840    1.4380   -1.3830 C   0  0  0  0  0  0  0  0  0  0  0  0
    3.2270    1.6300   -1.6730 C   0  0  0  0  0  0  0  0  0  0  0  0
    2.4120    1.8240   -0.4200 C   0  0  0  0  0  0  0  0  0  0  0  0
    2.9040    3.0440    0.3020 C   0  0  0  0  0  0  0  0  0  0  0  0
    2.1690    3.2950    1.5240 N   0  0  0  0  0  0  0  0  0  0  0  0
    0.7690    3.5260    1.4830 C   0  0  0  0  0  0  0  0  0  0  0  0
    0.1340    3.5250    0.4050 O   0  0  0  0  0  0  0  0  0  0  0  0
    0.1020    3.7650    2.7850 C   0  0  0  0  0  0  0  0  0  0  0  0
   -1.2870    3.8610    2.5610 O   0  0  0  0  0  0  0  0  0  0  0  0
   -2.0390    2.8050    2.0440 C   0  0  0  0  0  0  0  0  0  0  0  0
   -3.3900    2.9730    1.8360 C   0  0  0  0  0  0  0  0  0  0  0  0
   -4.1830    1.9390    1.3180 C   0  0  0  0  0  0  0  0  0  0  0  0
   -3.6690    0.7140    0.9930 C   0  0  0  0  0  0  0  0  0  0  0  0
   -4.4040   -0.3860    0.4840 N   0  0  0  0  0  0  0  0  0  0  0  0
   -5.7890   -0.4920    0.5680 C   0  0  0  0  0  0  0  0  0  0  0  0
   -6.5010    0.3640    1.1040 O   0  0  0  0  0  0  0  0  0  0  0  0
   -6.4680   -1.6940   -0.0140 C   0  0  1  0  0  0  0  0  0  0  0  0
   -7.8470   -1.6420    0.2270 O   0  0  0  0  0  0  0  0  0  0  0  0
   -6.1520   -1.8150   -1.4600 C   0  0  0  0  0  0  0  0  0  0  0  0
   -5.8930   -3.3100   -1.6950 C   0  0  0  0  0  0  0  0  0  0  0  0
   -5.2620   -3.7530   -0.3860 C   0  0  0  0  0  0  0  0  0  0  0  0
   -5.9800   -2.9330    0.6140 C   0  0  0  0  0  0  0  0  0  0  0  0
   -6.1660   -3.3150    2.0220 S   0  0  0  0  0  0  0  0  0  0  0  0
   -2.2860    0.5580    1.2130 C   0  0  0  0  0  0  0  0  0  0  0  0
   -1.5120    1.5760    1.7200 C   0  0  0  0  0  0  0  0  0  0  0  0
  1  2  1  0
  2  3  1  0
  3  4  1  0
  4  5  2  0
  4  6  1  0
  6  7  1  6
  6  9  1  0
  7  8  1  0
  9 10  1  0
 10 11  1  0
 11 12  1  0
 12 13  1  0
 13 14  1  0
 14 15  2  0
 14 16  1  0
 16 17  1  0
 17 18  1  0
 18 19  2  0
 18 33  1  0
 19 20  1  0
 20 21  2  0
 21 22  1  0
 21 32  1  0
 22 23  1  0
 23 24  2  0
 23 25  1  0
 25 26  1  6
 25 27  1  0
 25 30  1  0
 27 28  1  0
 28 29  1  0
 29 30  1  0
 30 31  2  0
 32 33  2  0
M  CHG  1   1   1
M  END
