
     RDKit          3D

 32 35  0  0  0  0  0  0  0  0999 V2000
   -5.8870    1.1780    2.1390 C   0  0  0  0  0  0  0  0  0  0  0  0
   -4.3950    1.2210    2.3810 C   0  0  0  0  0  0  0  0  0  0  0  0
   -3.7130    0.0730    1.6730 C   0  0  0  0  0  0  0  0  0  0  0  0
   -3.0440   -0.8090    2.3880 C   0  0  0  0  0  0  0  0  0  0  0  0
   -2.3840   -1.9170    1.7280 C   0  0  0  0  0  0  0  0  0  0  0  0
   -2.4480   -2.0470    0.4330 C   0  0  0  0  0  0  0  0  0  0  0  0
   -1.6800   -3.2740   -0.0040 C   0  0  0  0  0  0  0  0  0  0  0  0
   -0.3340   -2.7190   -0.3830 C   0  0  0  0  0  0  0  0  0  0  0  0
    0.5990   -3.5170   -0.1800 O   0  0  0  0  0  0  0  0  0  0  0  0
    0.0190   -1.4400   -0.9280 C   0  0  0  0  0  0  0  0  0  0  0  0
    1.3730   -1.2290   -0.9030 C   0  0  0  0  0  0  0  0  0  0  0  0
    1.8820   -0.0460   -1.3860 C   0  0  0  0  0  0  0  0  0  0  0  0
    3.3420    0.1790   -1.3590 C   0  0  0  0  0  0  0  0  0  0  0  0
    3.6550    0.8390   -0.0180 C   0  0  0  0  0  0  0  0  0  0  0  0
    5.0540    1.1150    0.1390 N   0  0  0  0  0  0  0  0  0  0  0  0
    6.0560    0.1040    0.1110 C   0  0  0  0  0  0  0  0  0  0  0  0
    5.7020   -1.0880   -0.0580 O   0  0  0  0  0  0  0  0  0  0  0  0
    7.4690    0.4340    0.2750 C   0  0  0  0  0  0  0  0  0  0  0  0
    8.5120   -0.4620    0.2650 C   0  0  0  0  0  0  0  0  0  0  0  0
    9.6600    0.2470    0.4490 N   0  0  0  0  0  0  0  0  0  0  0  0
    9.3490    1.5500    0.5710 C   0  0  0  0  0  0  0  0  0  0  0  0
    8.0110    1.6370    0.4620 N   0  0  0  0  0  0  0  0  0  0  0  0
    1.0020    0.8900   -1.8800 C   0  0  0  0  0  0  0  0  0  0  0  0
   -0.3780    0.6600   -1.8980 C   0  0  0  0  0  0  0  0  0  0  0  0
   -0.9000   -0.5220   -1.4170 C   0  0  0  0  0  0  0  0  0  0  0  0
   -2.3440   -0.5270   -1.5530 C   0  0  0  0  0  0  0  0  0  0  0  0
   -3.1520   -1.1460   -0.4550 C   0  0  2  0  0  0  0  0  0  0  0  0
   -3.7710   -0.0690    0.2740 N   0  0  0  0  0  0  0  0  0  0  0  0
   -4.4910    0.9320   -0.4710 C   0  0  0  0  0  0  0  0  0  0  0  0
   -5.6340    0.6600   -1.0610 C   0  0  0  0  0  0  0  0  0  0  0  0
   -6.3160    1.6970   -1.7950 N   0  0  0  0  0  0  0  0  0  0  0  0
   -6.3900   -0.9310   -1.0010 Cl  0  0  0  0  0  0  0  0  0  0  0  0
  1  2  1  0
  2  3  1  0
  3  4  2  0
  3 28  1  0
  4  5  1  0
  5  6  2  0
  6  7  1  0
  6 27  1  0
  7  8  1  0
  8  9  2  0
  8 10  1  0
 10 11  2  0
 10 25  1  0
 11 12  1  0
 12 13  1  0
 12 23  2  0
 13 14  1  0
 14 15  1  0
 15 16  1  0
 16 17  2  0
 16 18  1  0
 18 19  2  0
 18 22  1  0
 19 20  1  0
 20 21  2  0
 21 22  1  0
 23 24  1  0
 24 25  2  0
 25 26  1  0
 27 26  1  6
 27 28  1  0
 28 29  1  0
 29 30  2  3
 30 31  1  0
 30 32  1  0
M  END
