
     RDKit          3D

 33 34  0  0  0  0  0  0  0  0999 V2000
    5.1020   -4.8660    0.4480 C   0  0  0  0  0  0  0  0  0  0  0  0
    3.8330   -4.4730    1.1740 C   0  0  0  0  0  0  0  0  0  0  0  0
    2.7610   -4.2670    0.2790 O   0  0  0  0  0  0  0  0  0  0  0  0
    2.7480   -3.3410   -0.7240 C   0  0  0  0  0  0  0  0  0  0  0  0
    3.7490   -2.6020   -0.8890 O   0  0  0  0  0  0  0  0  0  0  0  0
    1.5930   -3.1450   -1.6640 C   0  0  0  0  0  0  0  0  0  0  0  0
    1.8600   -2.0650   -2.6530 C   0  0  0  0  0  0  0  0  0  0  0  0
    2.1700   -0.4470   -1.9850 S   0  0  0  0  0  0  0  0  0  0  0  0
    0.7670    0.3240   -1.2120 C   0  0  0  0  0  0  0  0  0  0  0  0
   -0.4600   -0.2280   -1.1580 C   0  0  0  0  0  0  0  0  0  0  0  0
   -1.5470    0.3870   -0.5430 C   0  0  0  0  0  0  0  0  0  0  0  0
   -2.8020   -0.2870   -0.5240 N   0  0  0  0  0  0  0  0  0  0  0  0
   -4.0440    0.2540   -0.1560 C   0  0  0  0  0  0  0  0  0  0  0  0
   -4.1200    1.4510    0.1980 O   0  0  0  0  0  0  0  0  0  0  0  0
   -5.3030   -0.5450   -0.1660 C   0  0  2  0  0  0  0  0  0  0  0  0
   -6.3940    0.3110    0.2340 N   0  0  0  0  0  0  0  0  0  0  0  0
   -5.2370   -1.6800    0.8480 C   0  0  0  0  0  0  0  0  0  0  0  0
   -6.4140   -2.5840    0.6790 C   0  0  0  0  0  0  0  0  0  0  0  0
   -7.4400   -1.9790   -0.1250 N   0  0  0  0  0  0  0  0  0  0  0  0
   -6.9400   -1.8090   -1.4630 C   0  0  0  0  0  0  0  0  0  0  0  0
   -5.5880   -1.1440   -1.5040 C   0  0  0  0  0  0  0  0  0  0  0  0
   -1.3270    1.5980    0.0160 C   0  0  0  0  0  0  0  0  0  0  0  0
   -0.0890    2.1880   -0.0230 C   0  0  0  0  0  0  0  0  0  0  0  0
    0.9920    1.5920   -0.6240 C   0  0  0  0  0  0  0  0  0  0  0  0
    2.1750    2.1700   -0.6560 O   0  0  0  0  0  0  0  0  0  0  0  0
    3.0120    3.1330   -0.3810 C   0  0  0  0  0  0  0  0  0  0  0  0
    3.3980    3.4730    1.0430 C   0  0  1  0  0  0  0  0  0  0  0  0
    4.3700    4.6130    0.9210 C   0  0  0  0  0  0  0  0  0  0  0  0
    5.5990    4.5300    1.3050 C   0  0  0  0  0  0  0  0  0  0  0  0
    6.3320    3.4090    1.9140 C   0  0  0  0  0  0  0  0  0  0  0  0
    7.4200    3.0570    1.0790 O   0  0  0  0  0  0  0  0  0  0  0  0
    2.2970    3.9630    1.9150 C   0  0  0  0  0  0  0  0  0  0  0  0
    1.6900    5.1170    1.4540 O   0  0  0  0  0  0  0  0  0  0  0  0
  1  2  1  0
  2  3  1  0
  3  4  1  0
  4  5  2  0
  4  6  1  0
  6  7  1  0
  7  8  1  0
  8  9  1  0
  9 10  2  0
  9 24  1  0
 10 11  1  0
 11 12  1  0
 11 22  2  0
 12 13  1  0
 13 14  2  0
 13 15  1  0
 15 16  1  1
 15 17  1  0
 15 21  1  0
 17 18  1  0
 18 19  1  0
 19 20  1  0
 20 21  1  0
 22 23  1  0
 23 24  2  0
 24 25  1  0
 25 26  1  0
 27 26  1  6
 27 28  1  0
 27 32  1  0
 28 29  2  3
 29 30  1  0
 30 31  1  0
 32 33  1  0
M  CHG  1  16   1
M  END
