
     RDKit          3D

 11 11  0  0  0  0  0  0  0  0999 V2000
   -3.7520   -0.3980   -0.3930 C   0  0  0  0  0  0  0  0  0  0  0  0
   -2.9080   -1.0280   -1.3190 O   0  0  0  0  0  0  0  0  0  0  0  0
   -1.6350   -0.9320   -0.9420 O   0  0  0  0  0  0  0  0  0  0  0  0
   -1.0770    0.1910   -0.3740 C   0  0  0  0  0  0  0  0  0  0  0  0
   -1.7810    1.2040   -0.1840 O   0  0  0  0  0  0  0  0  0  0  0  0
    0.3580    0.1920    0.0110 C   0  0  0  0  0  0  0  0  0  0  0  0
    1.0750   -0.8830   -0.1980 C   0  0  0  0  0  0  0  0  0  0  0  0
    2.4890   -1.1600    0.0780 C   0  0  0  0  0  0  0  0  0  0  0  0
    3.3180    0.2750    0.8360 P   0  0  0  0  0  0  0  0  0  0  0  0
    2.0890    1.5960    0.9990 C   0  0  0  0  0  0  0  0  0  0  0  0
    0.8570    1.4120    0.6000 C   0  0  0  0  0  0  0  0  0  0  0  0
  1  2  1  0
  2  3  1  0
  3  4  1  0
  4  5  2  0
  4  6  1  0
  6  7  2  0
  6 11  1  0
  7  8  1  0
  8  9  1  0
  9 10  1  0
 10 11  2  0
M  END
