
     RDKit          3D

 11 11  0  0  0  0  0  0  0  0999 V2000
    3.3650   -0.4080    0.6530 C   0  0  0  0  0  0  0  0  0  0  0  0
    3.1020    0.9450    0.9290 O   0  0  0  0  0  0  0  0  0  0  0  0
    1.7200    1.3760   -0.0380 P   0  0  0  0  0  0  0  0  0  0  0  0
    0.1720    1.3970    0.9510 C   0  0  0  0  0  0  0  0  0  0  0  0
   -1.0010    1.2400   -0.0240 C   0  0  0  0  0  0  0  0  0  0  0  0
   -1.2230   -0.2790   -0.0960 C   0  0  1  0  0  0  0  0  0  0  0  0
   -1.7940   -0.6670    1.2610 C   0  0  0  0  0  0  0  0  0  0  0  0
   -2.1380   -0.6560   -1.2130 C   0  0  0  0  0  0  0  0  0  0  0  0
    0.0650   -0.8260   -0.2350 O   0  0  0  0  0  0  0  0  0  0  0  0
    0.5890   -0.4910   -1.4590 C   0  0  0  0  0  0  0  0  0  0  0  0
    1.6540    0.3750   -1.4180 O   0  0  0  0  0  0  0  0  0  0  0  0
  1  2  1  0
  2  3  1  0
  3  4  1  0
  3 11  1  0
  4  5  1  0
  5  6  1  0
  6  7  1  1
  6  8  1  0
  6  9  1  0
  9 10  1  0
 10 11  1  0
M  END
