
     RDKit          3D

 11 11  0  0  0  0  0  0  0  0999 V2000
   -2.7650   -1.0310    0.7880 C   0  0  0  0  0  0  0  0  0  0  0  0
   -1.6900   -0.3580    0.3680 C   0  0  0  0  0  0  0  0  0  0  0  0
   -1.8270    0.8350   -0.4560 C   0  0  0  0  0  0  0  0  0  0  0  0
   -0.7540    1.5060   -0.8760 C   0  0  0  0  0  0  0  0  0  0  0  0
    0.5850    1.0580   -0.5160 C   0  0  0  0  0  0  0  0  0  0  0  0
    0.7960   -0.0200    0.2320 C   0  0  0  0  0  0  0  0  0  0  0  0
    2.4860   -0.5230    0.6430 P   0  0  0  0  0  0  0  0  0  0  0  0
    3.1790   -1.5600   -0.5540 O   0  0  0  0  0  0  0  0  0  0  0  0
    3.5260    0.8620    0.8200 O   0  0  0  0  0  0  0  0  0  0  0  0
   -0.3440   -0.7860    0.7140 C   0  0  0  0  0  0  0  0  0  0  0  0
   -0.2030   -1.8130    1.4240 O   0  0  0  0  0  0  0  0  0  0  0  0
  1  2  2  0
  2  3  1  0
  2 10  1  0
  3  4  2  0
  4  5  1  0
  5  6  2  0
  6  7  1  0
  6 10  1  0
  7  8  1  0
  7  9  1  0
 10 11  2  0
M  END
