
     RDKit          3D

 11 11  0  0  0  0  0  0  0  0999 V2000
    4.1540   -0.2620   -0.0970 C   0  0  0  0  0  0  0  0  0  0  0  0
    2.6940   -0.4500   -0.2400 C   0  0  0  0  0  0  0  0  0  0  0  0
    1.9160    0.6120   -0.2050 C   0  0  0  0  0  0  0  0  0  0  0  0
    0.4730    0.4580   -0.3430 C   0  0  0  0  0  0  0  0  0  0  0  0
   -0.2620    1.5520   -0.3020 C   0  0  0  0  0  0  0  0  0  0  0  0
   -1.6320    1.7560   -0.4000 O   0  0  0  0  0  0  0  0  0  0  0  0
   -2.7980    0.5750   -0.9900 P   0  0  0  0  0  0  0  0  0  0  0  0
   -4.0840    0.2550    0.3090 C   0  0  0  0  0  0  0  0  0  0  0  0
   -2.0340   -0.8790   -1.5260 O   0  0  0  0  0  0  0  0  0  0  0  0
   -1.2200   -1.4450   -0.5720 C   0  0  0  0  0  0  0  0  0  0  0  0
    0.0520   -0.8310   -0.5020 O   0  0  0  0  0  0  0  0  0  0  0  0
  1  2  1  0
  2  3  2  3
  3  4  1  0
  4  5  2  0
  4 11  1  0
  5  6  1  0
  6  7  1  0
  7  8  1  0
  7  9  1  0
  9 10  1  0
 10 11  1  0
M  END
