
     RDKit          3D

 24 26  0  0  0  0  0  0  0  0999 V2000
    3.9460    3.8020    0.9640 N   0  0  0  0  0  0  0  0  0  0  0  0
    4.1050    2.5650    0.7390 C   0  0  0  0  0  0  0  0  0  0  0  0
    2.9780    1.8140    0.3080 N   0  0  0  0  0  0  0  0  0  0  0  0
    3.0410    0.5450    0.0650 C   0  0  0  0  0  0  0  0  0  0  0  0
    4.2800   -0.1870    0.2200 C   0  0  0  0  0  0  0  0  0  0  0  0
    4.1050   -1.4280   -0.0810 N   0  0  0  0  0  0  0  0  0  0  0  0
    2.7690   -1.6520   -0.4590 C   0  0  0  0  0  0  0  0  0  0  0  0
    2.2100   -2.7380   -0.8250 O   0  0  0  0  0  0  0  0  0  0  0  0
    2.0630   -0.4000   -0.3700 N   0  0  0  0  0  0  0  0  0  0  0  0
    0.6780   -0.2300   -0.6120 C   0  0  1  0  0  0  0  0  0  0  0  0
    0.1270   -0.7100   -1.9120 C   0  0  0  0  0  0  0  0  0  0  0  0
   -1.1110   -1.5140   -1.4960 C   0  0  2  0  0  0  0  0  0  0  0  0
   -2.1900   -1.3320   -2.3350 O   0  0  0  0  0  0  0  0  0  0  0  0
   -1.2880   -0.9610   -0.1120 C   0  0  1  0  0  0  0  0  0  0  0  0
   -2.3880   -1.4330    0.7060 C   0  0  0  0  0  0  0  0  0  0  0  0
   -3.6100   -1.0840    0.0920 O   0  0  0  0  0  0  0  0  0  0  0  0
   -4.3420    0.1730    0.8350 P   0  0  0  0  0  0  0  0  0  0  0  0
   -4.6120    0.2270    2.4470 O   0  0  0  0  0  0  0  0  0  0  0  0
   -4.4950    1.5880   -0.0950 O   0  0  0  0  0  0  0  0  0  0  0  0
   -5.7410   -0.2240    0.5260 O   0  0  0  0  0  0  0  0  0  0  0  0
   -0.0030   -1.0700    0.3730 O   0  0  0  0  0  0  0  0  0  0  0  0
    5.4760    0.5670    0.6690 C   0  0  0  0  0  0  0  0  0  0  0  0
    6.5450   -0.0680    0.7980 O   0  0  0  0  0  0  0  0  0  0  0  0
    5.3680    1.9520    0.9260 N   0  0  0  0  0  0  0  0  0  0  0  0
  1  2  2  0
  2  3  1  0
  2 24  1  0
  3  4  2  0
  4  5  1  0
  4  9  1  0
  5  6  2  0
  5 22  1  0
  6  7  1  0
  7  8  2  0
  7  9  1  0
 10  9  1  6
 10 11  1  0
 10 21  1  0
 11 12  1  0
 12 13  1  6
 12 14  1  0
 14 15  1  1
 14 21  1  0
 15 16  1  0
 16 17  1  0
 17 18  1  0
 17 19  1  0
 17 20  1  0
 22 23  2  0
 22 24  1  0
M  END
