
     RDKit          3D

 11 11  0  0  0  0  0  0  0  0999 V2000
   -3.7650    0.9860   -0.6390 O   0  0  0  0  0  0  0  0  0  0  0  0
   -2.5010    0.4770   -0.3460 C   0  0  0  0  0  0  0  0  0  0  0  0
   -2.0330    0.3350    0.9470 C   0  0  0  0  0  0  0  0  0  0  0  0
   -0.7860   -0.1680    1.2340 C   0  0  0  0  0  0  0  0  0  0  0  0
    0.0520   -0.5550    0.1940 C   0  0  0  0  0  0  0  0  0  0  0  0
    1.4020   -1.0990    0.4990 C   0  0  0  0  0  0  0  0  0  0  0  0
    2.5720    0.3450    0.5460 P   0  0  0  0  0  0  0  0  0  0  0  0
    2.5140    1.2150   -0.9320 O   0  0  0  0  0  0  0  0  0  0  0  0
    4.1900   -0.2470    0.8270 O   0  0  0  0  0  0  0  0  0  0  0  0
   -0.3980   -0.4210   -1.1080 C   0  0  0  0  0  0  0  0  0  0  0  0
   -1.6670    0.0920   -1.3670 C   0  0  0  0  0  0  0  0  0  0  0  0
  1  2  1  0
  2  3  2  0
  2 11  1  0
  3  4  1  0
  4  5  2  0
  5  6  1  0
  5 10  1  0
  6  7  1  0
  7  8  1  0
  7  9  1  0
 10 11  2  0
M  END
