
     RDKit          3D

 30 31  0  0  0  0  0  0  0  0999 V2000
    3.0800    1.5880    2.4050 O   0  0  0  0  0  0  0  0  0  0  0  0
    1.6870    1.9130    1.8480 P   0  0  0  0  0  0  0  0  0  0  0  0
    1.2490    1.6770    0.1720 O   0  0  0  0  0  0  0  0  0  0  0  0
    2.1520    0.7370   -0.3580 C   0  0  1  0  0  0  0  0  0  0  0  0
    3.4870    1.2940   -0.2250 N   0  0  0  0  0  0  0  0  0  0  0  0
    4.6650    0.5640   -0.5280 C   0  0  0  0  0  0  0  0  0  0  0  0
    4.5550   -0.6060   -0.9260 O   0  0  0  0  0  0  0  0  0  0  0  0
    5.9710    1.1070   -0.3980 N   0  0  0  0  0  0  0  0  0  0  0  0
    7.4520    0.1700   -0.7870 P   0  0  0  0  0  0  0  0  0  0  0  0
    8.7500    0.7150    0.2190 O   0  0  0  0  0  0  0  0  0  0  0  0
    7.1390   -1.4910   -0.3800 O   0  0  0  0  0  0  0  0  0  0  0  0
    2.0830   -0.4640    0.5590 C   0  0  0  0  0  0  0  0  0  0  0  0
    2.2230   -1.6010   -0.2120 O   0  0  0  0  0  0  0  0  0  0  0  0
    1.0480   -1.7030   -0.9790 C   0  0  0  0  0  0  0  0  0  0  0  0
    0.8570   -0.4880   -1.8470 C   0  0  1  0  0  0  0  0  0  0  0  0
   -0.4870    0.0870   -1.6260 C   0  0  0  0  0  0  0  0  0  0  0  0
   -1.2730   -0.4430   -0.7890 N   0  0  0  0  0  0  0  0  0  0  0  0
   -2.5980   -0.0900   -0.3970 C   0  0  1  0  0  0  0  0  0  0  0  0
   -2.5800    0.1560    0.9520 O   0  0  0  0  0  0  0  0  0  0  0  0
   -3.2930   -0.6290    1.7860 C   0  0  0  0  0  0  0  0  0  0  0  0
   -4.7770   -0.6220    1.5990 C   0  0  0  0  0  0  0  0  0  0  0  0
   -5.2160   -1.0350    0.3780 O   0  0  0  0  0  0  0  0  0  0  0  0
   -6.9380   -1.0050    0.2220 P   0  0  0  0  0  0  0  0  0  0  0  0
   -7.4160   -2.2240   -0.9190 O   0  0  0  0  0  0  0  0  0  0  0  0
   -7.3860    0.5400   -0.4320 O   0  0  0  0  0  0  0  0  0  0  0  0
   -3.0590    1.1120   -1.1240 C   0  0  0  0  0  0  0  0  0  0  0  0
   -4.2410    1.5860   -0.8840 O   0  0  0  0  0  0  0  0  0  0  0  0
   -2.2310    1.7480   -2.0700 N   0  0  0  0  0  0  0  0  0  0  0  0
   -0.9530    1.2500   -2.3290 N   0  0  0  0  0  0  0  0  0  0  0  0
    1.8690    0.4480   -1.6790 O   0  0  0  0  0  0  0  0  0  0  0  0
  1  2  2  0
  2  3  1  0
  3  4  1  0
  4  5  1  6
  4 12  1  0
  4 30  1  0
  5  6  1  0
  6  7  2  0
  6  8  1  0
  8  9  1  0
  9 10  1  0
  9 11  1  0
 12 13  1  0
 13 14  1  0
 14 15  1  0
 15 16  1  1
 15 30  1  0
 16 17  2  0
 16 29  1  0
 17 18  1  0
 18 19  1  1
 18 26  1  0
 19 20  1  0
 20 21  1  0
 21 22  1  0
 22 23  1  0
 23 24  1  0
 23 25  1  0
 26 27  2  0
 26 28  1  0
 28 29  1  0
M  END
