
     RDKit          3D

 31 33  0  0  0  0  0  0  0  0999 V2000
    2.7740    0.9260    1.4740 O   0  0  0  0  0  0  0  0  0  0  0  0
    1.7050    0.5600    0.9060 C   0  0  0  0  0  0  0  0  0  0  0  0
    0.3860    1.0460    1.3060 C   0  0  0  0  0  0  0  0  0  0  0  0
   -0.7010    0.5860    0.4660 N   0  0  0  0  0  0  0  0  0  0  0  0
   -0.8480    1.2130   -0.8470 C   0  0  0  0  0  0  0  0  0  0  0  0
   -2.1760    0.8040   -1.4220 C   0  0  1  0  0  0  0  0  0  0  0  0
   -2.3730    1.3570   -3.1820 P   0  0  0  0  0  0  0  0  0  0  0  0
   -1.1470    2.4840   -3.6670 O   0  0  0  0  0  0  0  0  0  0  0  0
   -3.9710    2.0410   -3.4230 O   0  0  0  0  0  0  0  0  0  0  0  0
   -2.3230   -0.6300   -1.2950 N   0  0  0  0  0  0  0  0  0  0  0  0
   -2.7260   -0.8610    0.0690 C   0  0  1  0  0  0  0  0  0  0  0  0
   -4.2360    0.1200    0.4140 P   0  0  0  0  0  0  0  0  0  0  0  0
   -5.0860    0.3480   -1.0990 O   0  0  0  0  0  0  0  0  0  0  0  0
   -5.5390   -0.8650    1.8890 P   0  0  0  0  0  0  0  0  0  0  0  0
   -6.6860    0.3110    2.4500 O   0  0  0  0  0  0  0  0  0  0  0  0
   -6.4020   -2.1180    1.0350 O   0  0  0  0  0  0  0  0  0  0  0  0
   -2.8780   -2.2060    0.4120 O   0  0  0  0  0  0  0  0  0  0  0  0
   -2.6920   -2.0780    1.7700 O   0  0  0  0  0  0  0  0  0  0  0  0
   -1.5770   -1.2300    1.9170 N   0  0  0  0  0  0  0  0  0  0  0  0
   -1.5480   -0.4570    0.8990 C   0  0  0  0  0  0  0  0  0  0  0  0
    1.8540   -0.3750   -0.1570 N   0  0  0  0  0  0  0  0  0  0  0  0
    3.1510   -0.8600   -0.5200 C   0  0  0  0  0  0  0  0  0  0  0  0
    4.2870   -0.4990    0.0840 N   0  0  0  0  0  0  0  0  0  0  0  0
    5.3040   -1.1430   -0.5060 C   0  0  0  0  0  0  0  0  0  0  0  0
    6.7240   -1.0840   -0.2040 C   0  0  0  0  0  0  0  0  0  0  0  0
    7.5220   -1.7790   -0.8910 O   0  0  0  0  0  0  0  0  0  0  0  0
    7.2320   -0.2900    0.8130 O   0  0  0  0  0  0  0  0  0  0  0  0
    8.5490   -0.2700    1.0510 O   0  0  0  0  0  0  0  0  0  0  0  0
    8.8640    0.8810    1.5740 O   0  0  0  0  0  0  0  0  0  0  0  0
    4.7160   -1.9140   -1.5020 C   0  0  0  0  0  0  0  0  0  0  0  0
    3.4070   -1.7090   -1.4720 O   0  0  0  0  0  0  0  0  0  0  0  0
  1  2  2  0
  2  3  1  0
  2 21  1  0
  3  4  1  0
  4  5  1  0
  4 20  1  0
  5  6  1  0
  6  7  1  6
  6 10  1  0
  7  8  1  0
  7  9  1  0
 10 11  1  0
 11 12  1  1
 11 17  1  0
 11 20  1  0
 12 13  1  0
 12 14  1  0
 14 15  1  0
 14 16  1  0
 17 18  1  0
 18 19  1  0
 19 20  2  0
 21 22  1  0
 22 23  2  0
 22 31  1  0
 23 24  1  0
 24 25  1  0
 24 30  2  0
 25 26  2  0
 25 27  1  0
 27 28  1  0
 28 29  1  0
 30 31  1  0
M  END
