
     RDKit          3D

 30 31  0  0  0  0  0  0  0  0999 V2000
   -6.3640    4.2720   -0.9620 O   0  0  0  0  0  0  0  0  0  0  0  0
   -6.8020    2.7980   -1.0250 P   0  0  0  0  0  0  0  0  0  0  0  0
   -5.6140    1.4590   -0.7710 N   0  0  0  0  0  0  0  0  0  0  0  0
   -5.9160    0.1290   -1.1580 C   0  0  0  0  0  0  0  0  0  0  0  0
   -7.0210   -0.1470   -1.6880 O   0  0  0  0  0  0  0  0  0  0  0  0
   -4.9360   -0.9430   -0.9410 C   0  0  1  0  0  0  0  0  0  0  0  0
   -3.7700   -0.4120   -0.3360 O   0  0  0  0  0  0  0  0  0  0  0  0
   -2.5480   -0.5340   -0.9450 N   0  0  0  0  0  0  0  0  0  0  0  0
   -1.5000   -0.2640   -0.2700 C   0  0  0  0  0  0  0  0  0  0  0  0
   -1.5740    0.1340    1.0180 N   0  0  0  0  0  0  0  0  0  0  0  0
   -0.4500    0.4170    1.7240 C   0  0  0  0  0  0  0  0  0  0  0  0
   -0.5050    0.7870    2.9190 O   0  0  0  0  0  0  0  0  0  0  0  0
    0.7470    0.3040    1.1470 N   0  0  0  0  0  0  0  0  0  0  0  0
    0.8670   -0.0880   -0.1300 C   0  0  0  0  0  0  0  0  0  0  0  0
   -0.2820   -0.3880   -0.8820 C   0  0  0  0  0  0  0  0  0  0  0  0
    0.1930   -0.7490   -2.1240 O   0  0  0  0  0  0  0  0  0  0  0  0
    1.4370   -0.3570   -2.2520 O   0  0  0  0  0  0  0  0  0  0  0  0
    1.9610   -0.2930   -0.9820 N   0  0  0  0  0  0  0  0  0  0  0  0
    3.3130   -0.4100   -0.6860 C   0  0  0  0  0  0  0  0  0  0  0  0
    4.1400   -0.6580   -1.6560 O   0  0  0  0  0  0  0  0  0  0  0  0
    3.9960   -0.2900    0.6190 C   0  0  1  0  0  0  0  0  0  0  0  0
    5.4150   -0.9070    0.5460 C   0  0  0  0  0  0  0  0  0  0  0  0
    6.3550    0.0090   -0.7390 P   0  0  0  0  0  0  0  0  0  0  0  0
    8.0580    0.1100   -0.3680 O   0  0  0  0  0  0  0  0  0  0  0  0
    5.7750    1.6070   -1.0060 O   0  0  0  0  0  0  0  0  0  0  0  0
    4.3650    1.5250    0.9950 P   0  0  0  0  0  0  0  0  0  0  0  0
    3.5010    2.6500    0.3610 O   0  0  0  0  0  0  0  0  0  0  0  0
   -5.4660   -2.0070   -0.0660 C   0  0  0  0  0  0  0  0  0  0  0  0
   -6.5060   -2.6110   -0.4230 O   0  0  0  0  0  0  0  0  0  0  0  0
   -4.8550   -2.3490    1.1170 O   0  0  0  0  0  0  0  0  0  0  0  0
  1  2  2  0
  2  3  1  0
  3  4  1  0
  4  5  2  0
  4  6  1  0
  6  7  1  1
  6 28  1  0
  7  8  1  0
  8  9  2  3
  9 10  1  0
  9 15  1  0
 10 11  1  0
 11 12  2  0
 11 13  1  0
 13 14  1  0
 14 15  2  0
 14 18  1  0
 15 16  1  0
 16 17  1  0
 17 18  1  0
 18 19  1  0
 19 20  2  0
 19 21  1  0
 21 22  1  6
 21 26  1  0
 22 23  1  0
 23 24  1  0
 23 25  1  0
 26 27  2  0
 28 29  2  0
 28 30  1  0
M  END
