
     RDKit          3D

 31 33  0  0  0  0  0  0  0  0999 V2000
   -6.7990   -2.5500   -1.3510 N   0  0  0  0  0  0  0  0  0  0  0  0
   -5.8270   -1.8310   -0.6030 C   0  0  0  0  0  0  0  0  0  0  0  0
   -5.7530   -1.9910    0.7300 N   0  0  0  0  0  0  0  0  0  0  0  0
   -4.8280   -1.3110    1.4670 C   0  0  0  0  0  0  0  0  0  0  0  0
   -3.9540   -0.4560    0.9080 N   0  0  0  0  0  0  0  0  0  0  0  0
   -3.9940   -0.2680   -0.4110 C   0  0  0  0  0  0  0  0  0  0  0  0
   -4.9280   -0.9520   -1.1720 C   0  0  0  0  0  0  0  0  0  0  0  0
   -4.7310   -0.5670   -2.4320 N   0  0  0  0  0  0  0  0  0  0  0  0
   -3.7140    0.3210   -2.4520 C   0  0  0  0  0  0  0  0  0  0  0  0
   -3.2390    0.5240   -1.2100 N   0  0  0  0  0  0  0  0  0  0  0  0
   -2.1460    1.4100   -0.8230 C   0  0  2  0  0  0  0  0  0  0  0  0
   -0.9220    0.7960   -0.9150 O   0  0  0  0  0  0  0  0  0  0  0  0
   -0.1480    1.1770    0.1510 C   0  0  2  0  0  0  0  0  0  0  0  0
    0.8380    0.0660    0.4500 C   0  0  0  0  0  0  0  0  0  0  0  0
    1.6090   -0.1080   -0.6980 O   0  0  0  0  0  0  0  0  0  0  0  0
    2.7630   -1.3190   -0.5250 P   0  0  1  0  0  0  0  0  0  0  0  0
    2.1120   -2.6330   -0.8970 O   0  0  0  0  0  0  0  0  0  0  0  0
    4.0760   -1.0880   -1.5590 O   0  0  0  0  0  0  0  0  0  0  0  0
    3.2500   -1.4370    1.0880 O   0  0  0  0  0  0  0  0  0  0  0  0
    4.6330   -0.5110    1.3850 P   0  0  2  0  0  0  0  0  0  0  0  0
    5.6670   -1.4200    2.0120 O   0  0  0  0  0  0  0  0  0  0  0  0
    4.2880    0.7010    2.5340 O   0  0  0  0  0  0  0  0  0  0  0  0
    5.2780    0.1410   -0.0160 O   0  0  0  0  0  0  0  0  0  0  0  0
    6.9740    0.0480   -0.0010 P   0  0  1  0  0  0  0  0  0  0  0  0
    7.5460    0.6970    1.2150 O   0  0  0  0  0  0  0  0  0  0  0  0
    7.3830   -1.5980    0.0390 O   0  0  0  0  0  0  0  0  0  0  0  0
    7.6110    0.7550   -1.3780 O   0  0  0  0  0  0  0  0  0  0  0  0
   -1.1490    1.3360    1.3010 C   0  0  1  0  0  0  0  0  0  0  0  0
   -0.6580    2.2130    2.2660 O   0  0  0  0  0  0  0  0  0  0  0  0
   -2.3070    1.9800    0.5410 C   0  0  1  0  0  0  0  0  0  0  0  0
   -2.0470    3.3670    0.5620 O   0  0  0  0  0  0  0  0  0  0  0  0
  1  2  1  0
  2  3  2  0
  2  7  1  0
  3  4  1  0
  4  5  2  0
  5  6  1  0
  6  7  2  0
  6 10  1  0
  7  8  1  0
  8  9  2  0
  9 10  1  0
 11 10  1  1
 11 12  1  0
 11 30  1  0
 12 13  1  0
 13 14  1  1
 13 28  1  0
 14 15  1  0
 15 16  1  0
 16 17  2  0
 16 18  1  6
 16 19  1  0
 19 20  1  0
 20 21  2  0
 20 22  1  1
 20 23  1  0
 23 24  1  0
 24 25  2  0
 24 26  1  1
 24 27  1  0
 28 29  1  1
 28 30  1  0
 30 31  1  6
M  END
