
     RDKit          3D

 26 29  0  0  0  0  0  0  0  0999 V2000
    7.9530    0.3450   -1.9750 C   0  0  0  0  0  0  0  0  0  0  0  0
    6.4700    0.1670   -1.7700 C   0  0  0  0  0  0  0  0  0  0  0  0
    6.1260    0.3280   -0.3840 N   0  0  0  0  0  0  0  0  0  0  0  0
    4.7900    0.2070    0.0620 C   0  0  0  0  0  0  0  0  0  0  0  0
    3.7360   -0.0710   -0.7900 C   0  0  0  0  0  0  0  0  0  0  0  0
    2.4430   -0.1840   -0.3350 C   0  0  0  0  0  0  0  0  0  0  0  0
    2.1340   -0.0280    0.9890 C   0  0  0  0  0  0  0  0  0  0  0  0
    0.7590   -0.1420    1.5190 C   0  0  0  0  0  0  0  0  0  0  0  0
    0.4470    0.0080    2.7990 C   0  0  0  0  0  0  0  0  0  0  0  0
   -1.3630   -0.2410    2.8400 S   0  0  0  0  0  0  0  0  0  0  0  0
   -1.3740   -0.5260    0.9680 C   0  0  0  0  0  0  0  0  0  0  0  0
   -2.6830   -0.8110    0.3040 C   0  0  0  0  0  0  0  0  0  0  0  0
   -3.8870   -0.8880    0.9160 N   0  0  0  0  0  0  0  0  0  0  0  0
   -4.8190   -1.1600   -0.0130 C   0  0  0  0  0  0  0  0  0  0  0  0
   -6.2990   -1.3360    0.2040 C   0  0  0  0  0  0  0  0  0  0  0  0
   -6.9690   -0.0650    0.0730 N   0  0  0  0  0  0  0  0  0  0  0  0
   -7.4630    0.4430   -1.0520 C   0  0  0  0  0  0  0  0  0  0  0  0
   -8.0200    1.6680   -0.7580 C   0  0  0  0  0  0  0  0  0  0  0  0
   -7.8380    1.8500    0.5350 O   0  0  0  0  0  0  0  0  0  0  0  0
   -7.2100    0.8250    1.0590 C   0  0  0  0  0  0  0  0  0  0  0  0
   -6.8910    0.7060    2.2810 O   0  0  0  0  0  0  0  0  0  0  0  0
   -4.1560   -1.2430   -1.1800 N   0  0  0  0  0  0  0  0  0  0  0  0
   -2.8960   -1.0290   -0.9430 O   0  0  0  0  0  0  0  0  0  0  0  0
   -0.2840   -0.4090    0.7240 N   0  0  0  0  0  0  0  0  0  0  0  0
    3.1700    0.2520    1.8700 C   0  0  0  0  0  0  0  0  0  0  0  0
    4.4450    0.3590    1.3930 C   0  0  0  0  0  0  0  0  0  0  0  0
  1  2  1  0
  2  3  1  0
  3  4  1  0
  4  5  2  0
  4 26  1  0
  5  6  1  0
  6  7  2  0
  7  8  1  0
  7 25  1  0
  8  9  2  0
  8 24  1  0
  9 10  1  0
 10 11  1  0
 11 12  1  0
 11 24  2  0
 12 13  2  0
 12 23  1  0
 13 14  1  0
 14 15  1  0
 14 22  2  0
 15 16  1  0
 16 17  1  0
 16 20  1  0
 17 18  2  0
 18 19  1  0
 19 20  1  0
 20 21  2  0
 22 23  1  0
 25 26  2  0
M  END
