
     RDKit          3D

 26 29  0  0  0  0  0  0  0  0999 V2000
   -9.4100    1.6860   -0.0700 C   0  0  0  0  0  0  0  0  0  0  0  0
   -8.0400    1.6170   -0.1370 O   0  0  0  0  0  0  0  0  0  0  0  0
   -7.5700    0.5650    0.6510 C   0  0  0  0  0  0  0  0  0  0  0  0
   -6.0580    0.4960    0.5710 C   0  0  0  0  0  0  0  0  0  0  0  0
   -5.0730    0.8930    1.0560 N   0  0  0  0  0  0  0  0  0  0  0  0
   -3.8340    0.6200    0.7290 C   0  0  0  0  0  0  0  0  0  0  0  0
   -3.6640   -0.2370   -0.3130 C   0  0  0  0  0  0  0  0  0  0  0  0
   -2.4400   -0.7450   -0.9270 C   0  0  0  0  0  0  0  0  0  0  0  0
   -2.3080   -1.5940   -1.9580 N   0  0  0  0  0  0  0  0  0  0  0  0
   -1.0360   -1.7760   -2.1750 O   0  0  0  0  0  0  0  0  0  0  0  0
   -0.3240   -1.0770   -1.3250 C   0  0  0  0  0  0  0  0  0  0  0  0
    1.1260   -1.0100   -1.2380 C   0  0  0  0  0  0  0  0  0  0  0  0
    1.7860   -0.2700   -0.3370 N   0  0  0  0  0  0  0  0  0  0  0  0
    3.1300   -0.2510   -0.3100 C   0  0  0  0  0  0  0  0  0  0  0  0
    3.8300    0.5130    0.6210 C   0  0  0  0  0  0  0  0  0  0  0  0
    5.2030    0.5360    0.6530 C   0  0  0  0  0  0  0  0  0  0  0  0
    5.9270    1.3550    1.6510 C   0  0  0  0  0  0  0  0  0  0  0  0
    5.9390   -0.2030   -0.2430 C   0  0  0  0  0  0  0  0  0  0  0  0
    7.4220   -0.2100   -0.2470 C   0  0  0  0  0  0  0  0  0  0  0  0
    5.2510   -0.9670   -1.1740 C   0  0  0  0  0  0  0  0  0  0  0  0
    3.8730   -0.9880   -1.2030 C   0  0  0  0  0  0  0  0  0  0  0  0
    3.2140   -1.7370   -2.1160 N   0  0  0  0  0  0  0  0  0  0  0  0
    1.8630   -1.7480   -2.1330 C   0  0  0  0  0  0  0  0  0  0  0  0
    1.3320   -2.4770   -3.0210 O   0  0  0  0  0  0  0  0  0  0  0  0
   -1.2220   -0.4210   -0.5290 N   0  0  0  0  0  0  0  0  0  0  0  0
   -5.3070   -0.6030   -0.7620 S   0  0  0  0  0  0  0  0  0  0  0  0
  1  2  1  0
  2  3  1  0
  3  4  1  0
  4  5  2  0
  4 26  1  0
  5  6  1  0
  6  7  2  0
  7  8  1  0
  7 26  1  0
  8  9  2  0
  8 25  1  0
  9 10  1  0
 10 11  1  0
 11 12  1  0
 11 25  2  0
 12 13  2  0
 12 23  1  0
 13 14  1  0
 14 15  2  0
 14 21  1  0
 15 16  1  0
 16 17  1  0
 16 18  2  0
 18 19  1  0
 18 20  1  0
 20 21  2  0
 21 22  1  0
 22 23  1  0
 23 24  2  0
M  END
