
     RDKit          3D

 26 29  0  0  0  0  0  0  0  0999 V2000
   -2.1110    6.8240   -1.1210 O   0  0  0  0  0  0  0  0  0  0  0  0
   -1.2400    6.0030   -1.4590 C   0  0  0  0  0  0  0  0  0  0  0  0
   -1.1090    4.7490   -0.7450 C   0  0  0  0  0  0  0  0  0  0  0  0
   -1.8800    4.3820    0.2910 N   0  0  0  0  0  0  0  0  0  0  0  0
   -1.4740    3.1990    0.6770 N   0  0  0  0  0  0  0  0  0  0  0  0
   -0.4630    2.8230   -0.1000 C   0  0  0  0  0  0  0  0  0  0  0  0
    0.2980    1.5880   -0.0370 C   0  0  0  0  0  0  0  0  0  0  0  0
    1.3890    1.3880   -0.9010 C   0  0  0  0  0  0  0  0  0  0  0  0
    2.1230    0.2700   -0.8400 N   0  0  0  0  0  0  0  0  0  0  0  0
    1.8760   -0.7230    0.0310 C   0  0  0  0  0  0  0  0  0  0  0  0
    2.7080   -1.9250    0.0480 C   0  0  0  0  0  0  0  0  0  0  0  0
    3.7080   -2.0400   -0.7970 C   0  0  0  0  0  0  0  0  0  0  0  0
    4.5970   -3.2270   -0.8430 C   0  0  0  0  0  0  0  0  0  0  0  0
    4.2920   -4.2180    0.0770 O   0  0  0  0  0  0  0  0  0  0  0  0
    3.2480   -4.0910    0.9540 C   0  0  0  0  0  0  0  0  0  0  0  0
    2.4840   -3.0240    0.9640 C   0  0  0  0  0  0  0  0  0  0  0  0
    0.8390   -0.5560    0.8660 N   0  0  0  0  0  0  0  0  0  0  0  0
    0.0550    0.5650    0.8480 C   0  0  0  0  0  0  0  0  0  0  0  0
   -1.3650    0.6830    1.9340 S   0  0  0  0  0  0  0  0  0  0  0  0
   -2.7190   -0.1750    1.1530 C   0  0  0  0  0  0  0  0  0  0  0  0
   -3.5970    0.4310    0.3130 C   0  0  0  0  0  0  0  0  0  0  0  0
   -4.6240   -0.3100   -0.2570 C   0  0  0  0  0  0  0  0  0  0  0  0
   -4.7670   -1.6150    0.0040 N   0  0  0  0  0  0  0  0  0  0  0  0
   -3.9150   -2.2730    0.8390 C   0  0  0  0  0  0  0  0  0  0  0  0
   -2.9070   -1.5320    1.3960 C   0  0  0  0  0  0  0  0  0  0  0  0
   -0.2480    3.7740   -0.9640 O   0  0  0  0  0  0  0  0  0  0  0  0
  1  2  2  0
  2  3  1  0
  3  4  2  0
  3 26  1  0
  4  5  1  0
  5  6  2  0
  6  7  1  0
  6 26  1  0
  7  8  2  0
  7 18  1  0
  8  9  1  0
  9 10  2  0
 10 11  1  0
 10 17  1  0
 11 12  2  0
 11 16  1  0
 12 13  1  0
 13 14  1  0
 14 15  1  0
 15 16  2  0
 17 18  2  0
 18 19  1  0
 19 20  1  0
 20 21  2  0
 20 25  1  0
 21 22  1  0
 22 23  2  0
 23 24  1  0
 24 25  2  0
M  END
