
     RDKit          3D

 15 15  0  0  0  0  0  0  0  0999 V2000
   -2.6170   -0.7690   -1.2110 C   0  0  0  0  0  0  0  0  0  0  0  0
   -2.2080    0.1200   -0.0850 C   0  0  2  0  0  0  0  0  0  0  0  0
   -2.6450   -0.5630    1.1990 C   0  0  0  0  0  0  0  0  0  0  0  0
   -2.0790   -1.7910    1.3760 O   0  0  0  0  0  0  0  0  0  0  0  0
   -3.0860    1.3800   -0.1700 C   0  0  0  0  0  0  0  0  0  0  0  0
   -2.7250    2.2310    0.8760 O   0  0  0  0  0  0  0  0  0  0  0  0
   -0.8110    0.5910   -0.0630 C   0  0  0  0  0  0  0  0  0  0  0  0
    0.2450   -0.3270    0.0250 N   0  0  0  0  0  0  0  0  0  0  0  0
    0.4990   -1.1800   -1.0920 C   0  0  0  0  0  0  0  0  0  0  0  0
    1.6600   -2.1210   -0.7020 C   0  0  0  0  0  0  0  0  0  0  0  0
    2.7960   -1.3550   -0.7020 O   0  0  0  0  0  0  0  0  0  0  0  0
    2.6930   -0.3550    0.2220 C   0  0  1  0  0  0  0  0  0  0  0  0
    3.8720    0.5970   -0.0170 C   0  0  0  0  0  0  0  0  0  0  0  0
    3.8600    1.7000    0.8950 N   0  0  0  0  0  0  0  0  0  0  0  0
    1.4670    0.4620    0.2280 C   0  0  0  0  0  0  0  0  0  0  0  0
  2  1  1  6
  2  3  1  0
  2  5  1  0
  2  7  1  0
  3  4  1  0
  5  6  1  0
  7  8  1  0
  8  9  1  0
  8 15  1  0
  9 10  1  0
 10 11  1  0
 11 12  1  0
 12 13  1  6
 12 15  1  0
 13 14  1  0
M  END
