
     RDKit          3D

 15 15  0  0  0  0  0  0  0  0999 V2000
   -3.6580    0.7620    1.0830 C   0  0  0  0  0  0  0  0  0  0  0  0
   -2.2760    0.4380    0.9680 N   0  0  0  0  0  0  0  0  0  0  0  0
   -1.7360    0.5770   -0.3450 C   0  0  2  0  0  0  0  0  0  0  0  0
   -2.4530   -0.3890   -1.2550 C   0  0  0  0  0  0  0  0  0  0  0  0
   -1.5430   -1.5930   -1.2170 C   0  0  0  0  0  0  0  0  0  0  0  0
   -0.1800   -0.9010   -1.4040 C   0  0  0  0  0  0  0  0  0  0  0  0
   -0.2780    0.1650   -0.3850 C   0  0  0  0  0  0  0  0  0  0  0  0
    0.6820    0.6490    0.3380 C   0  0  0  0  0  0  0  0  0  0  0  0
    0.3480    1.6880    1.2860 N   0  0  0  0  0  0  0  0  0  0  0  0
    2.0640    0.2400    0.2560 C   0  0  0  0  0  0  0  0  0  0  0  0
    2.4970   -0.6340   -0.5370 O   0  0  0  0  0  0  0  0  0  0  0  0
    3.0500    0.8050    1.0800 O   0  0  0  0  0  0  0  0  0  0  0  0
    4.4110    0.3830    0.9810 C   0  0  0  0  0  0  0  0  0  0  0  0
    4.5200   -1.0630    1.2630 C   0  0  0  0  0  0  0  0  0  0  0  0
    5.5690   -1.6650    1.2410 O   0  0  0  0  0  0  0  0  0  0  0  0
  1  2  1  0
  3  2  1  1
  3  4  1  0
  3  7  1  0
  4  5  1  0
  5  6  1  0
  6  7  1  0
  7  8  2  3
  8  9  1  0
  8 10  1  0
 10 11  2  0
 10 12  1  0
 12 13  1  0
 13 14  1  0
 14 15  2  0
M  END
