
     RDKit          3D

 15 15  0  0  0  0  0  0  0  0999 V2000
   -3.1200    2.7640   -0.2590 C   0  0  0  0  0  0  0  0  0  0  0  0
   -3.0500    1.5150    0.3590 O   0  0  0  0  0  0  0  0  0  0  0  0
   -1.8240    0.9480   -0.0500 C   0  0  0  0  0  0  0  0  0  0  0  0
   -1.7330   -0.4080    0.6130 C   0  0  1  0  0  0  0  0  0  0  0  0
   -2.9200   -1.2180    0.1340 C   0  0  0  0  0  0  0  0  0  0  0  0
   -2.4370   -2.6400    0.4470 C   0  0  0  0  0  0  0  0  0  0  0  0
   -1.0440   -2.5990   -0.1450 C   0  0  0  0  0  0  0  0  0  0  0  0
   -0.5710   -1.1610   -0.0260 C   0  0  2  0  0  0  0  0  0  0  0  0
    0.4880   -1.0860    0.8650 O   0  0  0  0  0  0  0  0  0  0  0  0
    1.5740   -0.4670    0.2060 C   0  0  0  0  0  0  0  0  0  0  0  0
    2.6920   -0.4080    1.2050 C   0  0  0  0  0  0  0  0  0  0  0  0
    3.8570    0.2130    0.6170 N   0  0  0  0  0  0  0  0  0  0  0  0
    3.8740    1.5380    0.1090 C   0  0  0  0  0  0  0  0  0  0  0  0
    5.0700    2.0820   -0.4610 N   0  0  0  0  0  0  0  0  0  0  0  0
    2.8380    2.2190    0.1650 O   0  0  0  0  0  0  0  0  0  0  0  0
  1  2  1  0
  2  3  1  0
  4  3  1  6
  4  5  1  0
  4  8  1  0
  5  6  1  0
  6  7  1  0
  7  8  1  0
  8  9  1  1
  9 10  1  0
 10 11  1  0
 11 12  1  0
 12 13  1  0
 13 14  1  0
 13 15  2  0
M  END
