
     RDKit          3D

 15 15  0  0  0  0  0  0  0  0999 V2000
   -0.6350    2.1830   -1.5630 N   0  0  0  0  0  0  0  0  0  0  0  0
   -0.9030    1.3600   -0.7880 C   0  0  0  0  0  0  0  0  0  0  0  0
   -1.2220    0.3290    0.2050 C   0  0  2  0  0  0  0  0  0  0  0  0
    0.0260   -0.2560    0.7560 C   0  0  2  0  0  0  0  0  0  0  0  0
    0.7810    0.8030    1.2750 O   0  0  0  0  0  0  0  0  0  0  0  0
    0.8930   -0.9530   -0.2560 C   0  0  0  0  0  0  0  0  0  0  0  0
    1.7850   -0.0230   -0.9500 N   0  0  0  0  0  0  0  0  0  0  0  0
    3.1680   -0.2820   -0.5530 C   0  0  0  0  0  0  0  0  0  0  0  0
    4.0460    0.8980   -0.8710 C   0  0  0  0  0  0  0  0  0  0  0  0
    5.0930    1.0230    0.0510 O   0  0  0  0  0  0  0  0  0  0  0  0
   -2.0380   -0.7160   -0.5330 C   0  0  0  0  0  0  0  0  0  0  0  0
   -3.4480   -0.2840   -0.8180 C   0  0  0  0  0  0  0  0  0  0  0  0
   -3.9270    0.6620    0.0640 O   0  0  0  0  0  0  0  0  0  0  0  0
   -3.4010    0.4350    1.3360 C   0  0  0  0  0  0  0  0  0  0  0  0
   -1.9920    0.9760    1.3280 C   0  0  0  0  0  0  0  0  0  0  0  0
  1  2  3  0
  3  2  1  6
  3  4  1  0
  3 11  1  0
  3 15  1  0
  4  5  1  6
  4  6  1  0
  6  7  1  0
  7  8  1  0
  8  9  1  0
  9 10  1  0
 11 12  1  0
 12 13  1  0
 13 14  1  0
 14 15  1  0
M  END
