
     RDKit          3D

 21 23  0  0  0  0  0  0  0  0999 V2000
   -1.6490   -0.2590   -1.7740 O   0  0  0  0  0  0  0  0  0  0  0  0
   -0.4320   -0.4280   -1.2330 C   0  0  0  0  0  0  0  0  0  0  0  0
   -0.0500   -1.7310   -0.7380 C   0  0  0  0  0  0  0  0  0  0  0  0
   -0.7600   -2.7940   -0.3150 C   0  0  0  0  0  0  0  0  0  0  0  0
   -2.1440   -3.1450   -0.1380 C   0  0  0  0  0  0  0  0  0  0  0  0
   -3.3090   -2.6220   -0.1790 C   0  0  0  0  0  0  0  0  0  0  0  0
   -4.0570   -1.4210   -0.4080 C   0  0  0  0  0  0  0  0  0  0  0  0
   -4.1260   -0.1720   -0.2150 C   0  0  0  0  0  0  0  0  0  0  0  0
   -3.5240    0.9790    0.3690 C   0  0  0  0  0  0  0  0  0  0  0  0
   -2.3280    1.0800    1.1560 C   0  0  0  0  0  0  0  0  0  0  0  0
   -1.1860    1.7260    0.9410 C   0  0  0  0  0  0  0  0  0  0  0  0
   -0.6370    2.5230   -0.0410 N   0  0  0  0  0  0  0  0  0  0  0  0
    0.2290    2.1470   -1.1980 C   0  0  0  0  0  0  0  0  0  0  0  0
    0.5270    0.6730   -1.1760 C   0  0  0  0  0  0  0  0  0  0  0  0
    1.7570    0.4580   -0.7160 C   0  0  0  0  0  0  0  0  0  0  0  0
    2.8730    1.4650   -0.7030 C   0  0  0  0  0  0  0  0  0  0  0  0
    3.2830    1.5370    0.7550 C   0  0  0  0  0  0  0  0  0  0  0  0
    3.9760    0.2540    1.1500 C   0  0  0  0  0  0  0  0  0  0  0  0
    3.6050   -0.9340    0.2910 C   0  0  0  0  0  0  0  0  0  0  0  0
    2.2150   -0.8360   -0.2150 C   0  0  0  0  0  0  0  0  0  0  0  0
    1.3650   -1.8310   -0.2280 C   0  0  0  0  0  0  0  0  0  0  0  0
  1  2  2  0
  2  3  1  0
  2 14  1  0
  3  4  2  0
  3 21  1  0
  4  5  1  0
  5  6  2  0
  6  7  1  0
  7  8  2  0
  8  9  1  0
  9 10  1  0
 10 11  2  0
 11 12  1  0
 12 13  1  0
 13 14  1  0
 14 15  2  0
 15 16  1  0
 15 20  1  0
 16 17  1  0
 17 18  1  0
 18 19  1  0
 19 20  1  0
 20 21  2  0
M  END
