
     RDKit          3D

 21 23  0  0  0  0  0  0  0  0999 V2000
   -0.7710   -3.2670   -0.7050 C   0  0  0  0  0  0  0  0  0  0  0  0
    0.0530   -2.7970    0.4340 C   0  0  0  0  0  0  0  0  0  0  0  0
    0.3320   -1.3430    0.4950 C   0  0  0  0  0  0  0  0  0  0  0  0
    1.6010   -0.9860    0.4480 C   0  0  0  0  0  0  0  0  0  0  0  0
    2.0560    0.4280    0.5150 C   0  0  0  0  0  0  0  0  0  0  0  0
    3.4920    0.7110    0.4710 C   0  0  0  0  0  0  0  0  0  0  0  0
    4.3070   -0.3270    0.3050 C   0  0  0  0  0  0  0  0  0  0  0  0
    5.7790   -0.1930    0.2360 C   0  0  0  0  0  0  0  0  0  0  0  0
    6.3330    0.9950    0.3370 C   0  0  0  0  0  0  0  0  0  0  0  0
    5.5360    2.0610    0.4980 O   0  0  0  0  0  0  0  0  0  0  0  0
    4.1350    2.0120    0.6620 C   0  0  0  0  0  0  0  0  0  0  0  0
    1.1470    1.3420    0.6480 C   0  0  0  0  0  0  0  0  0  0  0  0
    1.4590    2.8000    0.7050 C   0  0  0  0  0  0  0  0  0  0  0  0
   -0.2900    0.9630    0.9150 C   0  0  0  0  0  0  0  0  0  0  0  0
   -0.7640   -0.3580    0.5010 C   0  0  1  0  0  0  0  0  0  0  0  0
   -1.3990   -0.2130   -0.8000 N   0  0  0  0  0  0  0  0  0  0  0  0
   -2.7940   -0.2660   -0.8340 C   0  0  2  0  0  0  0  0  0  0  0  0
   -3.4790    1.0160   -1.2710 C   0  0  0  0  0  0  0  0  0  0  0  0
   -4.9370    0.6220   -1.0860 C   0  0  0  0  0  0  0  0  0  0  0  0
   -4.9590   -0.3830    0.0470 C   0  0  0  0  0  0  0  0  0  0  0  0
   -3.4900   -0.5590    0.4620 C   0  0  0  0  0  0  0  0  0  0  0  0
  1  2  1  0
  2  3  1  0
  3  4  2  0
  3 15  1  0
  4  5  1  0
  5  6  1  0
  5 12  2  0
  6  7  2  0
  6 11  1  0
  7  8  1  0
  8  9  2  0
  9 10  1  0
 10 11  1  0
 12 13  1  0
 12 14  1  0
 14 15  1  0
 15 16  1  6
 17 16  1  1
 17 18  1  0
 17 21  1  0
 18 19  1  0
 19 20  1  0
 20 21  1  0
M  CHG  1  16   1
M  END
