
     RDKit          3D

 21 24  0  0  0  0  0  0  0  0999 V2000
   -2.9920    2.3670   -0.9630 C   0  0  0  0  0  0  0  0  0  0  0  0
   -2.6760    1.0370   -0.4420 C   0  0  0  0  0  0  0  0  0  0  0  0
   -1.3410    0.6580   -0.3670 C   0  0  0  0  0  0  0  0  0  0  0  0
   -0.9710   -0.5690    0.1090 C   0  0  0  0  0  0  0  0  0  0  0  0
    0.3160   -1.0330    0.2220 O   0  0  0  0  0  0  0  0  0  0  0  0
    1.4860   -0.3700   -0.1170 C   0  0  2  0  0  0  0  0  0  0  0  0
    2.1990   -1.1430   -1.1990 C   0  0  0  0  0  0  0  0  0  0  0  0
    3.5650   -1.4480   -0.9010 N   0  0  0  0  0  0  0  0  0  0  0  0
    4.2630   -0.2740   -0.4640 C   0  0  0  0  0  0  0  0  0  0  0  0
    5.3430    0.3810   -0.7790 C   0  0  0  0  0  0  0  0  0  0  0  0
    5.4900    1.5550    0.1060 C   0  0  0  0  0  0  0  0  0  0  0  0
    4.3150    1.4900    1.0030 C   0  0  0  0  0  0  0  0  0  0  0  0
    3.6170    0.4320    0.6650 C   0  0  0  0  0  0  0  0  0  0  0  0
    2.3450   -0.2210    1.1370 C   0  0  0  0  0  0  0  0  0  0  0  0
   -1.9870   -1.4360    0.5210 C   0  0  0  0  0  0  0  0  0  0  0  0
   -3.3130   -1.0720    0.4520 C   0  0  0  0  0  0  0  0  0  0  0  0
   -4.3140   -1.9450    0.8650 C   0  0  0  0  0  0  0  0  0  0  0  0
   -5.6380   -1.6100    0.8060 C   0  0  0  0  0  0  0  0  0  0  0  0
   -5.9850   -0.3500    0.3150 C   0  0  0  0  0  0  0  0  0  0  0  0
   -5.0120    0.5290   -0.0980 C   0  0  0  0  0  0  0  0  0  0  0  0
   -3.6860    0.1720   -0.0310 C   0  0  0  0  0  0  0  0  0  0  0  0
  1  2  1  0
  2  3  2  0
  2 21  1  0
  3  4  1  0
  4  5  1  0
  4 15  2  0
  6  5  1  1
  6  7  1  0
  6 14  1  0
  7  8  1  0
  8  9  1  0
  9 10  2  0
  9 13  1  0
 10 11  1  0
 11 12  1  0
 12 13  2  0
 13 14  1  0
 15 16  1  0
 16 17  2  0
 16 21  1  0
 17 18  1  0
 18 19  2  0
 19 20  1  0
 20 21  2  0
M  CHG  1   8   1
M  END
