
     RDKit          3D

 21 24  0  0  0  0  0  0  0  0999 V2000
    2.8400    0.3860    0.3020 C   0  0  0  0  0  0  0  0  0  0  0  0
    3.3220   -0.9290    0.2170 C   0  0  0  0  0  0  0  0  0  0  0  0
    2.7480   -1.8540   -0.6150 C   0  0  0  0  0  0  0  0  0  0  0  0
    1.6530   -1.4360   -1.3860 C   0  0  0  0  0  0  0  0  0  0  0  0
    1.1620   -0.1270   -1.3110 C   0  0  0  0  0  0  0  0  0  0  0  0
    1.7520    0.7700   -0.4740 C   0  0  0  0  0  0  0  0  0  0  0  0
    1.2590    2.1600   -0.3700 C   0  0  0  0  0  0  0  0  0  0  0  0
   -0.1860    2.2620   -0.8710 C   0  0  2  0  0  0  0  0  0  0  0  0
   -1.0580    1.6790    0.0860 N   0  0  0  0  0  0  0  0  0  0  0  0
   -2.1940    0.9780   -0.4150 C   0  0  0  0  0  0  0  0  0  0  0  0
   -3.2080    0.6440    0.6380 C   0  0  2  0  0  0  0  0  0  0  0  0
   -4.3810   -0.0960    0.0460 C   0  0  0  0  0  0  0  0  0  0  0  0
   -5.6130    0.4010    0.7630 C   0  0  0  0  0  0  0  0  0  0  0  0
   -5.0440    1.1530    1.9470 C   0  0  0  0  0  0  0  0  0  0  0  0
   -3.8580    1.8550    1.2710 C   0  0  0  0  0  0  0  0  0  0  0  0
   -0.1990    1.6120   -2.2340 C   0  0  0  0  0  0  0  0  0  0  0  0
    0.0850    0.2490   -2.0800 O   0  0  0  0  0  0  0  0  0  0  0  0
    3.2020   -3.2570   -0.7600 C   0  0  0  0  0  0  0  0  0  0  0  0
    4.1850   -3.5730    0.3330 C   0  0  0  0  0  0  0  0  0  0  0  0
    5.2110   -2.4400    0.4460 C   0  0  0  0  0  0  0  0  0  0  0  0
    4.4920   -1.2760    1.0810 C   0  0  0  0  0  0  0  0  0  0  0  0
  1  2  2  0
  1  6  1  0
  2  3  1  0
  2 21  1  0
  3  4  2  0
  3 18  1  0
  4  5  1  0
  5  6  2  0
  5 17  1  0
  6  7  1  0
  7  8  1  0
  8  9  1  1
  8 16  1  0
  9 10  1  0
 11 10  1  6
 11 12  1  0
 11 15  1  0
 12 13  1  0
 13 14  1  0
 14 15  1  0
 16 17  1  0
 18 19  1  0
 19 20  1  0
 20 21  1  0
M  CHG  1   9   1
M  END
