
     RDKit          3D

 21 24  0  0  0  0  0  0  0  0999 V2000
   -4.6870    2.6410   -0.8540 C   0  0  0  0  0  0  0  0  0  0  0  0
   -4.4070    1.1480   -0.6240 C   0  0  0  0  0  0  0  0  0  0  0  0
   -2.9340    0.9740   -0.6460 C   0  0  0  0  0  0  0  0  0  0  0  0
   -2.4160   -0.4020   -0.4440 C   0  0  1  0  0  0  0  0  0  0  0  0
   -0.9420   -0.3600   -0.4980 C   0  0  0  0  0  0  0  0  0  0  0  0
   -0.2650   -0.7420   -1.6220 C   0  0  0  0  0  0  0  0  0  0  0  0
    1.1340   -0.7170   -1.7020 C   0  0  0  0  0  0  0  0  0  0  0  0
    1.7980   -0.2870   -0.5900 C   0  0  0  0  0  0  0  0  0  0  0  0
    1.1930    0.1100    0.5630 C   0  0  0  0  0  0  0  0  0  0  0  0
   -0.1840    0.0690    0.5930 C   0  0  0  0  0  0  0  0  0  0  0  0
    2.1960    0.4880    1.5150 N   0  0  0  0  0  0  0  0  0  0  0  0
    3.3830    0.3400    0.9980 C   0  0  0  0  0  0  0  0  0  0  0  0
    4.7430    0.5810    1.5500 C   0  0  0  0  0  0  0  0  0  0  0  0
    5.8520    0.5400    0.5950 C   0  0  0  0  0  0  0  0  0  0  0  0
    5.6830   -0.1810   -0.6830 C   0  0  0  0  0  0  0  0  0  0  0  0
    4.2930   -0.3800   -1.1060 C   0  0  0  0  0  0  0  0  0  0  0  0
    3.2540   -0.1500   -0.3460 C   0  0  0  0  0  0  0  0  0  0  0  0
   -2.8990   -1.0470    0.8450 C   0  0  0  0  0  0  0  0  0  0  0  0
   -2.8180   -2.5130    0.4760 C   0  0  0  0  0  0  0  0  0  0  0  0
   -2.7970   -2.6330   -0.9020 O   0  0  0  0  0  0  0  0  0  0  0  0
   -2.9730   -1.3620   -1.4300 C   0  0  0  0  0  0  0  0  0  0  0  0
  1  2  1  0
  2  3  1  0
  4  3  1  6
  4  5  1  0
  4 18  1  0
  4 21  1  0
  5  6  2  0
  5 10  1  0
  6  7  1  0
  7  8  2  0
  8  9  1  0
  8 17  1  0
  9 10  2  0
  9 11  1  0
 11 12  2  0
 12 13  1  0
 12 17  1  0
 13 14  1  0
 14 15  1  0
 15 16  1  0
 16 17  2  0
 18 19  1  0
 19 20  1  0
 20 21  1  0
M  CHG  1  11   1
M  END
