
     RDKit          3D

 21 23  0  0  0  0  0  0  0  0999 V2000
   -5.0700    0.6230   -0.3180 C   0  0  0  0  0  0  0  0  0  0  0  0
   -3.8010    0.3080   -0.4860 C   0  0  0  0  0  0  0  0  0  0  0  0
   -3.3710   -0.9230   -1.2060 C   0  0  0  0  0  0  0  0  0  0  0  0
   -3.8810   -1.9860   -1.8400 C   0  0  0  0  0  0  0  0  0  0  0  0
   -2.7430   -2.7900   -2.2970 C   0  0  0  0  0  0  0  0  0  0  0  0
   -1.5520   -2.0830   -1.8630 C   0  0  0  0  0  0  0  0  0  0  0  0
   -1.9410   -0.9710   -1.2130 C   0  0  0  0  0  0  0  0  0  0  0  0
   -1.4150    0.2060   -0.5080 C   0  0  2  0  0  0  0  0  0  0  0  0
   -0.6110   -0.2410    0.6190 N   0  0  0  0  0  0  0  0  0  0  0  0
    0.5700    0.5510    0.8220 C   0  0  0  0  0  0  0  0  0  0  0  0
    1.7480   -0.3100    1.2210 C   0  0  2  0  0  0  0  0  0  0  0  0
    2.9650    0.5700    1.4250 C   0  0  0  0  0  0  0  0  0  0  0  0
    4.2070   -0.1410    0.9400 C   0  0  2  0  0  0  0  0  0  0  0  0
    5.4070    0.7450    1.2620 C   0  0  0  0  0  0  0  0  0  0  0  0
    4.2270   -0.4200   -0.5250 C   0  0  0  0  0  0  0  0  0  0  0  0
    2.8440   -0.7760   -1.0230 C   0  0  0  0  0  0  0  0  0  0  0  0
    2.0620   -1.2570    0.1310 C   0  0  0  0  0  0  0  0  0  0  0  0
    1.6910   -2.3980    0.1770 O   0  0  0  0  0  0  0  0  0  0  0  0
   -2.5910    0.9810   -0.0720 C   0  0  0  0  0  0  0  0  0  0  0  0
   -2.5170    2.1420    0.6090 C   0  0  0  0  0  0  0  0  0  0  0  0
   -3.6100    2.9660    1.0730 C   0  0  0  0  0  0  0  0  0  0  0  0
  1  2  2  0
  2  3  1  0
  2 19  1  0
  3  4  2  0
  3  7  1  0
  4  5  1  0
  5  6  1  0
  6  7  2  0
  7  8  1  0
  8  9  1  1
  8 19  1  0
  9 10  1  0
 11 10  1  6
 11 12  1  0
 11 17  1  0
 12 13  1  0
 13 14  1  6
 13 15  1  0
 15 16  1  0
 16 17  1  0
 17 18  2  0
 19 20  2  3
 20 21  1  0
M  CHG  1   9   1
M  END
