
     RDKit          3D

 25 27  0  0  0  0  0  0  0  0999 V2000
   -6.9390   -0.1910    1.9160 C   0  0  0  0  0  0  0  0  0  0  0  0
   -5.9370    0.7790    2.5560 C   0  0  0  0  0  0  0  0  0  0  0  0
   -5.6370    1.9230    1.6130 C   0  0  0  0  0  0  0  0  0  0  0  0
   -5.0500    1.4700    0.3310 C   0  0  0  0  0  0  0  0  0  0  0  0
   -5.6520    1.3380   -0.8990 C   0  0  0  0  0  0  0  0  0  0  0  0
   -4.6860    0.8780   -1.7620 C   0  0  0  0  0  0  0  0  0  0  0  0
   -3.5730    0.7370   -1.1110 O   0  0  0  0  0  0  0  0  0  0  0  0
   -3.7170    1.0720    0.1440 C   0  0  0  0  0  0  0  0  0  0  0  0
   -2.7040    1.0510    1.1890 C   0  0  0  0  0  0  0  0  0  0  0  0
   -1.4670    0.6930    1.0480 C   0  0  0  0  0  0  0  0  0  0  0  0
   -0.8680    0.2520   -0.1650 C   0  0  0  0  0  0  0  0  0  0  0  0
    0.4060   -0.1120   -0.2860 C   0  0  0  0  0  0  0  0  0  0  0  0
    1.0210   -0.5550   -1.4880 N   0  0  0  0  0  0  0  0  0  0  0  0
    2.2620   -0.8370   -1.3030 C   0  0  0  0  0  0  0  0  0  0  0  0
    3.0540   -1.3100   -2.4350 C   0  0  0  0  0  0  0  0  0  0  0  0
    4.3400   -1.3330   -2.7430 C   0  0  0  0  0  0  0  0  0  0  0  0
    5.5480   -0.8640   -2.0260 C   0  0  0  0  0  0  0  0  0  0  0  0
    5.8540   -0.6320   -0.7690 C   0  0  0  0  0  0  0  0  0  0  0  0
    7.1860   -0.1780   -0.5660 N   0  0  0  0  0  0  0  0  0  0  0  0
    8.2600   -0.9350   -1.1660 C   0  0  0  0  0  0  0  0  0  0  0  0
    5.0850   -0.7480    0.4880 C   0  0  0  0  0  0  0  0  0  0  0  0
    3.8060   -0.7410    0.8390 C   0  0  0  0  0  0  0  0  0  0  0  0
    2.6150   -0.6100    0.0670 N   0  0  0  0  0  0  0  0  0  0  0  0
    1.4220   -0.1410    0.7310 C   0  0  0  0  0  0  0  0  0  0  0  0
    1.3610    0.1550    1.9280 O   0  0  0  0  0  0  0  0  0  0  0  0
  1  2  1  0
  2  3  1  0
  3  4  1  0
  4  5  1  0
  4  8  2  0
  5  6  2  0
  6  7  1  0
  7  8  1  0
  8  9  1  0
  9 10  2  3
 10 11  1  0
 11 12  2  3
 12 13  1  0
 12 24  1  0
 13 14  2  0
 14 15  1  0
 14 23  1  0
 15 16  2  0
 16 17  1  0
 17 18  2  0
 18 19  1  0
 18 21  1  0
 19 20  1  0
 21 22  2  0
 22 23  1  0
 23 24  1  0
 24 25  2  0
M  END
