
     RDKit          3D

 23 24  0  0  0  0  0  0  0  0999 V2000
   -0.1030    2.0550   -3.5050 C   0  0  0  0  0  0  0  0  0  0  0  0
   -0.5990    0.8580   -3.2530 C   0  0  0  0  0  0  0  0  0  0  0  0
    0.2000   -0.1000   -2.4640 C   0  0  0  0  0  0  0  0  0  0  0  0
   -0.5670   -0.4650   -1.2200 C   0  0  0  0  0  0  0  0  0  0  0  0
   -1.8190    0.0780   -0.9720 C   0  0  0  0  0  0  0  0  0  0  0  0
   -2.5600   -0.2300    0.1510 C   0  0  0  0  0  0  0  0  0  0  0  0
   -3.8910    0.3740    0.3730 C   0  0  0  0  0  0  0  0  0  0  0  0
   -4.6130    0.6500   -0.7790 C   0  0  0  0  0  0  0  0  0  0  0  0
   -5.8700    1.2150   -0.6710 C   0  0  0  0  0  0  0  0  0  0  0  0
   -6.3820    1.4930    0.5810 C   0  0  0  0  0  0  0  0  0  0  0  0
   -5.6430    1.2100    1.7280 C   0  0  0  0  0  0  0  0  0  0  0  0
   -4.3850    0.6430    1.6140 C   0  0  0  0  0  0  0  0  0  0  0  0
   -2.0220   -1.1100    1.0450 C   0  0  0  0  0  0  0  0  0  0  0  0
   -0.7550   -1.6740    0.8160 C   0  0  0  0  0  0  0  0  0  0  0  0
   -0.0300   -1.3570   -0.3060 C   0  0  0  0  0  0  0  0  0  0  0  0
    1.1850   -1.8940   -0.5330 O   0  0  0  0  0  0  0  0  0  0  0  0
    2.0100   -2.7580    0.0930 C   0  0  0  0  0  0  0  0  0  0  0  0
    2.6040   -2.5230    1.4110 C   0  0  0  0  0  0  0  0  0  0  0  0
    3.5340   -1.3530    1.4640 C   0  0  0  0  0  0  0  0  0  0  0  0
    2.9500   -0.0970    1.1800 N   0  0  0  0  0  0  0  0  0  0  0  0
    3.3600    0.4950   -0.0780 C   0  0  1  0  0  0  0  0  0  0  0  0
    2.5910    1.7920   -0.2150 C   0  0  0  0  0  0  0  0  0  0  0  0
    4.8350    0.8670   -0.0500 C   0  0  0  0  0  0  0  0  0  0  0  0
  1  2  2  0
  2  3  1  0
  3  4  1  0
  4  5  2  0
  4 15  1  0
  5  6  1  0
  6  7  1  0
  6 13  2  0
  7  8  2  0
  7 12  1  0
  8  9  1  0
  9 10  2  0
 10 11  1  0
 11 12  2  0
 13 14  1  0
 14 15  2  0
 15 16  1  0
 16 17  1  0
 17 18  1  0
 18 19  1  0
 19 20  1  0
 20 21  1  0
 21 22  1  1
 21 23  1  0
M  CHG  1  20   1
M  END
