
     RDKit          3D

 25 27  0  0  0  0  0  0  0  0999 V2000
   -2.4490   -1.0850    2.7740 C   0  0  0  0  0  0  0  0  0  0  0  0
   -2.2570   -1.0930    1.4790 C   0  0  0  0  0  0  0  0  0  0  0  0
   -1.0010   -1.6140    0.8520 C   0  0  0  0  0  0  0  0  0  0  0  0
   -0.5090   -0.6010   -0.0580 N   0  0  0  0  0  0  0  0  0  0  0  0
    0.8160   -0.7500   -0.5530 C   0  0  0  0  0  0  0  0  0  0  0  0
    1.8420   -0.3010    0.1610 C   0  0  0  0  0  0  0  0  0  0  0  0
    1.6910    0.3600    1.4700 C   0  0  0  0  0  0  0  0  0  0  0  0
    2.6870    1.2040    1.8380 O   0  0  0  0  0  0  0  0  0  0  0  0
    3.6330    1.5590    0.9430 C   0  0  0  0  0  0  0  0  0  0  0  0
    4.1130    0.4940    0.0530 C   0  0  0  0  0  0  0  0  0  0  0  0
    3.2000   -0.4560   -0.3490 C   0  0  0  0  0  0  0  0  0  0  0  0
    3.8010   -1.3500   -1.1570 N   0  0  0  0  0  0  0  0  0  0  0  0
    5.0730   -0.9760   -1.2680 N   0  0  0  0  0  0  0  0  0  0  0  0
    5.2940    0.1560   -0.5340 C   0  0  0  0  0  0  0  0  0  0  0  0
    6.4740    0.8620   -0.3830 O   0  0  0  0  0  0  0  0  0  0  0  0
    7.6930    0.5140   -0.9890 C   0  0  0  0  0  0  0  0  0  0  0  0
    8.7100    1.5730   -0.5400 C   0  0  0  0  0  0  0  0  0  0  0  0
   -1.3170    0.5280   -0.4660 C   0  0  0  0  0  0  0  0  0  0  0  0
   -2.7690    0.0980   -0.6880 C   0  0  0  0  0  0  0  0  0  0  0  0
   -3.2930   -0.5770    0.5450 C   0  0  0  0  0  0  0  0  0  0  0  0
   -4.5450   -0.7290    0.8520 C   0  0  0  0  0  0  0  0  0  0  0  0
   -5.7150   -0.3290    0.1340 C   0  0  0  0  0  0  0  0  0  0  0  0
   -5.7100    0.3520   -1.1630 C   0  0  0  0  0  0  0  0  0  0  0  0
   -6.9210   -0.5990    0.6690 C   0  0  0  0  0  0  0  0  0  0  0  0
   -8.1840   -0.2230   -0.0010 C   0  0  0  0  0  0  0  0  0  0  0  0
  1  2  2  0
  2  3  1  0
  2 20  1  0
  3  4  1  0
  4  5  1  0
  4 18  1  0
  5  6  2  3
  6  7  1  0
  6 11  1  0
  7  8  1  0
  8  9  1  0
  9 10  1  0
 10 11  1  0
 10 14  2  0
 11 12  2  0
 12 13  1  0
 13 14  1  0
 14 15  1  0
 15 16  1  0
 16 17  1  0
 18 19  1  0
 19 20  1  0
 20 21  2  3
 21 22  1  0
 22 23  1  0
 22 24  2  3
 24 25  1  0
M  END
