
     RDKit          3D

 22 24  0  0  0  0  0  0  0  0999 V2000
    4.6370   -0.1920    1.7340 O   0  0  0  0  0  0  0  0  0  0  0  0
    3.9050   -0.0660    0.6320 C   0  0  0  0  0  0  0  0  0  0  0  0
    4.6040    0.7470   -0.3570 C   0  0  0  0  0  0  0  0  0  0  0  0
    3.9640    1.6640   -1.1610 C   0  0  0  0  0  0  0  0  0  0  0  0
    2.4850    1.7350   -0.9240 C   0  0  0  0  0  0  0  0  0  0  0  0
    1.8730    2.4500    0.1030 C   0  0  0  0  0  0  0  0  0  0  0  0
    0.5360    2.3530    0.3140 N   0  0  0  0  0  0  0  0  0  0  0  0
   -0.3610    1.6270   -0.3550 C   0  0  0  0  0  0  0  0  0  0  0  0
    0.2900    0.9890   -1.3090 N   0  0  0  0  0  0  0  0  0  0  0  0
    1.5700    0.9650   -1.6560 C   0  0  0  0  0  0  0  0  0  0  0  0
   -1.6730    1.5640    0.0740 N   0  0  0  0  0  0  0  0  0  0  0  0
   -2.8710    1.9470   -0.5820 C   0  0  0  0  0  0  0  0  0  0  0  0
   -3.7430    0.6540   -0.6710 C   0  0  0  0  0  0  0  0  0  0  0  0
   -2.8960   -0.5280   -0.9330 C   0  0  0  0  0  0  0  0  0  0  0  0
   -2.1740   -1.2150    0.1340 C   0  0  1  0  0  0  0  0  0  0  0  0
   -1.0220   -2.1040   -0.3900 C   0  0  0  0  0  0  0  0  0  0  0  0
   -0.1920   -2.5720    0.7490 C   0  0  0  0  0  0  0  0  0  0  0  0
    1.0750   -2.4980    0.9590 C   0  0  0  0  0  0  0  0  0  0  0  0
    2.1390   -1.8930    0.0840 C   0  0  0  0  0  0  0  0  0  0  0  0
    2.6820   -0.7020    0.6550 N   0  0  0  0  0  0  0  0  0  0  0  0
   -1.8220   -0.5190    1.3860 C   0  0  0  0  0  0  0  0  0  0  0  0
   -1.8180    0.9470    1.4410 C   0  0  0  0  0  0  0  0  0  0  0  0
  1  2  2  0
  2  3  1  0
  2 20  1  0
  3  4  2  0
  4  5  1  0
  5  6  2  0
  5 10  1  0
  6  7  1  0
  7  8  2  0
  8  9  1  0
  8 11  1  0
  9 10  2  0
 11 12  1  0
 11 22  1  0
 12 13  1  0
 13 14  1  0
 15 14  1  6
 15 16  1  0
 15 21  1  0
 16 17  1  0
 17 18  2  0
 18 19  1  0
 19 20  1  0
 21 22  1  0
M  END
