
     RDKit          3D

 23 26  0  0  0  0  0  0  0  0999 V2000
    2.9440   -2.3050   -0.0390 C   0  0  0  0  0  0  0  0  0  0  0  0
    3.3860   -0.8910   -0.1610 C   0  0  0  0  0  0  0  0  0  0  0  0
    4.6520   -0.6250   -0.6160 C   0  0  0  0  0  0  0  0  0  0  0  0
    5.0410    0.6880   -0.7210 C   0  0  0  0  0  0  0  0  0  0  0  0
    6.6600    1.1110   -1.3010 Cl  0  0  0  0  0  0  0  0  0  0  0  0
    4.1930    1.6670   -0.3840 N   0  0  0  0  0  0  0  0  0  0  0  0
    2.9420    1.4340    0.0670 C   0  0  0  0  0  0  0  0  0  0  0  0
    2.2090    2.4030    0.3640 O   0  0  0  0  0  0  0  0  0  0  0  0
    2.5250    0.1280    0.1820 C   0  0  0  0  0  0  0  0  0  0  0  0
    1.2320   -0.2080    0.6580 N   0  0  0  0  0  0  0  0  0  0  0  0
    0.1520   -0.4350   -0.2440 C   0  0  1  0  0  0  0  0  0  0  0  0
   -1.0730   -0.7360    0.5810 C   0  0  0  0  0  0  0  0  0  0  0  0
   -2.0100    0.1320    0.3360 C   0  0  0  0  0  0  0  0  0  0  0  0
   -3.3100    0.0370    1.0330 C   0  0  0  0  0  0  0  0  0  0  0  0
   -3.7760   -1.3850    1.2000 C   0  0  0  0  0  0  0  0  0  0  0  0
   -2.7080   -2.3510    1.5350 C   0  0  0  0  0  0  0  0  0  0  0  0
   -1.3260   -1.8100    1.5580 C   0  0  0  0  0  0  0  0  0  0  0  0
   -1.4820    1.0690   -0.6680 C   0  0  0  0  0  0  0  0  0  0  0  0
   -1.8030    2.1860   -1.4160 C   0  0  0  0  0  0  0  0  0  0  0  0
   -3.0980    2.9010   -1.3690 C   0  0  0  0  0  0  0  0  0  0  0  0
   -0.6990    2.4530   -2.1650 C   0  0  0  0  0  0  0  0  0  0  0  0
    0.2580    1.5630   -1.9080 N   0  0  0  0  0  0  0  0  0  0  0  0
   -0.2200    0.7310   -1.0040 N   0  0  0  0  0  0  0  0  0  0  0  0
  1  2  1  0
  2  3  1  0
  2  9  2  0
  3  4  2  0
  4  5  1  0
  4  6  1  0
  6  7  1  0
  7  8  2  0
  7  9  1  0
  9 10  1  0
 11 10  1  1
 11 12  1  0
 11 23  1  0
 12 13  2  0
 12 17  1  0
 13 14  1  0
 13 18  1  0
 14 15  1  0
 15 16  1  0
 16 17  1  0
 18 19  2  0
 18 23  1  0
 19 20  1  0
 19 21  1  0
 21 22  2  0
 22 23  1  0
M  END
