
     RDKit          3D

 23 25  0  0  0  0  0  0  0  0999 V2000
   -4.4580    1.1260   -1.0430 C   0  0  0  0  0  0  0  0  0  0  0  0
   -3.4450    0.1570   -0.5740 C   0  0  0  0  0  0  0  0  0  0  0  0
   -2.6600    0.2900    0.4640 C   0  0  0  0  0  0  0  0  0  0  0  0
   -2.5730    1.3920    1.4080 C   0  0  0  0  0  0  0  0  0  0  0  0
   -2.8020    2.6340    1.1580 N   0  0  0  0  0  0  0  0  0  0  0  0
   -2.1560    0.8270    2.7450 C   0  0  1  0  0  0  0  0  0  0  0  0
   -3.5890    1.0160    3.8110 Cl  0  0  0  0  0  0  0  0  0  0  0  0
   -1.9160   -0.6340    2.4380 C   0  0  0  0  0  0  0  0  0  0  0  0
   -1.6270   -0.6850    0.9750 C   0  0  2  0  0  0  0  0  0  0  0  0
   -0.2310   -0.1720    0.7330 C   0  0  0  0  0  0  0  0  0  0  0  0
    0.7410   -1.3520    0.7280 C   0  0  0  0  0  0  0  0  0  0  0  0
    0.5360   -2.2030   -0.5100 C   0  0  2  0  0  0  0  0  0  0  0  0
    1.4290   -1.6750   -1.5700 C   0  0  0  0  0  0  0  0  0  0  0  0
    0.9200   -1.2590   -2.6360 O   0  0  0  0  0  0  0  0  0  0  0  0
    2.8110   -1.6520   -1.3590 N   0  0  0  0  0  0  0  0  0  0  0  0
    3.5080   -0.5970   -1.1490 C   0  0  0  0  0  0  0  0  0  0  0  0
    4.8680   -0.5700   -0.9410 C   0  0  0  0  0  0  0  0  0  0  0  0
    5.2280    0.7430   -0.7560 C   0  0  0  0  0  0  0  0  0  0  0  0
    4.0980    1.4570   -0.8550 N   0  0  0  0  0  0  0  0  0  0  0  0
    4.0780    2.9190   -0.7120 C   0  0  0  0  0  0  0  0  0  0  0  0
    3.0700    0.6670   -1.0890 N   0  0  0  0  0  0  0  0  0  0  0  0
   -0.9290   -2.0670   -0.9130 C   0  0  0  0  0  0  0  0  0  0  0  0
   -1.7610   -2.0290    0.3520 C   0  0  0  0  0  0  0  0  0  0  0  0
  1  2  1  0
  2  3  2  3
  3  4  1  0
  3  9  1  0
  4  5  2  0
  4  6  1  0
  6  7  1  1
  6  8  1  0
  9  8  1  1
  9 10  1  0
  9 23  1  0
 10 11  1  0
 11 12  1  0
 12 13  1  6
 12 22  1  0
 13 14  2  0
 13 15  1  0
 15 16  2  3
 16 17  1  0
 16 21  1  0
 17 18  2  0
 18 19  1  0
 19 20  1  0
 19 21  1  0
 22 23  1  0
M  END
