
     RDKit          3D

 23 26  0  0  0  0  0  0  0  0999 V2000
   -6.1850   -1.2810    0.6920 C   0  0  0  0  0  0  0  0  0  0  0  0
   -4.7520   -0.7880    0.7290 C   0  0  1  0  0  0  0  0  0  0  0  0
   -3.8130   -1.6720   -0.0310 C   0  0  0  0  0  0  0  0  0  0  0  0
   -2.8500   -0.9340   -0.8990 C   0  0  0  0  0  0  0  0  0  0  0  0
   -2.3610    0.2970   -0.3100 N   0  0  0  0  0  0  0  0  0  0  0  0
   -3.2870    1.0870    0.2880 C   0  0  0  0  0  0  0  0  0  0  0  0
   -2.6600    2.1590    0.7650 N   0  0  0  0  0  0  0  0  0  0  0  0
   -1.3930    2.0300    0.4690 N   0  0  0  0  0  0  0  0  0  0  0  0
   -1.1600    0.8930   -0.1970 C   0  0  0  0  0  0  0  0  0  0  0  0
    0.0740    0.3100   -0.7360 C   0  0  0  0  0  0  0  0  0  0  0  0
    1.2490    1.0660   -0.5340 N   0  0  0  0  0  0  0  0  0  0  0  0
    1.6190    1.3340    0.8030 C   0  0  0  0  0  0  0  0  0  0  0  0
    2.4770    0.1850    1.3520 C   0  0  0  0  0  0  0  0  0  0  0  0
    3.7330    0.1460    0.5320 C   0  0  0  0  0  0  0  0  0  0  0  0
    4.9600   -0.1090    1.0560 C   0  0  0  0  0  0  0  0  0  0  0  0
    6.0600   -0.1240    0.2240 C   0  0  0  0  0  0  0  0  0  0  0  0
    7.3310   -0.3820    0.7310 O   0  0  0  0  0  0  0  0  0  0  0  0
    5.9310    0.1150   -1.1250 C   0  0  0  0  0  0  0  0  0  0  0  0
    7.3320    0.0990   -2.2040 Cl  0  0  0  0  0  0  0  0  0  0  0  0
    4.6910    0.3690   -1.6330 C   0  0  0  0  0  0  0  0  0  0  0  0
    3.5850    0.3860   -0.8070 C   0  0  0  0  0  0  0  0  0  0  0  0
    2.2780    0.6670   -1.4270 C   0  0  0  0  0  0  0  0  0  0  0  0
   -4.7180    0.6410    0.2980 C   0  0  0  0  0  0  0  0  0  0  0  0
  2  1  1  6
  2  3  1  0
  2 23  1  0
  3  4  1  0
  4  5  1  0
  5  6  1  0
  5  9  1  0
  6  7  2  0
  6 23  1  0
  7  8  1  0
  8  9  2  0
  9 10  1  0
 10 11  1  0
 11 12  1  0
 11 22  1  0
 12 13  1  0
 13 14  1  0
 14 15  2  0
 14 21  1  0
 15 16  1  0
 16 17  1  0
 16 18  2  0
 18 19  1  0
 18 20  1  0
 20 21  2  0
 21 22  1  0
M  END
