
     RDKit          3D

 25 26  0  0  0  0  0  0  0  0999 V2000
   -2.5680    3.7140    1.5940 C   0  0  0  0  0  0  0  0  0  0  0  0
   -2.5700    2.6250    0.6780 O   0  0  0  0  0  0  0  0  0  0  0  0
   -1.9800    1.4100    0.9730 C   0  0  0  0  0  0  0  0  0  0  0  0
   -1.4100    1.2060    2.0710 O   0  0  0  0  0  0  0  0  0  0  0  0
   -2.0310    0.3540   -0.0280 C   0  0  2  0  0  0  0  0  0  0  0  0
   -3.4370   -0.0950   -0.3640 C   0  0  0  0  0  0  0  0  0  0  0  0
   -4.6130    0.7880   -0.2580 C   0  0  0  0  0  0  0  0  0  0  0  0
   -3.4160   -1.3580   -0.7470 C   0  0  0  0  0  0  0  0  0  0  0  0
   -4.5060   -2.2190   -1.1620 C   0  0  0  0  0  0  0  0  0  0  0  0
   -4.2750   -3.5700   -1.5380 N   0  0  0  0  0  0  0  0  0  0  0  0
   -5.7180   -1.8390   -1.2200 O   0  0  0  0  0  0  0  0  0  0  0  0
   -1.9770   -1.8480   -0.6990 C   0  0  2  0  0  0  0  0  0  0  0  0
   -1.9200   -3.1960   -0.4090 O   0  0  0  0  0  0  0  0  0  0  0  0
   -1.5000   -0.9890    0.4510 C   0  0  1  0  0  0  0  0  0  0  0  0
   -0.1410   -1.0730    0.8380 C   0  0  0  0  0  0  0  0  0  0  0  0
    0.3820   -1.5430    1.7620 O   0  0  0  0  0  0  0  0  0  0  0  0
    0.9320   -0.3210   -0.2990 N   0  0  0  0  0  0  0  0  0  0  0  0
    2.1710   -0.6090    0.4320 C   0  0  0  0  0  0  0  0  0  0  0  0
    2.3770   -1.2790    1.3700 O   0  0  0  0  0  0  0  0  0  0  0  0
    3.2620    0.1330   -0.2360 N   0  0  0  0  0  0  0  0  0  0  0  0
    4.5690    0.0110    0.2490 C   0  0  2  0  0  0  0  0  0  0  0  0
    5.0730    1.2400    0.9540 C   0  0  0  0  0  0  0  0  0  0  0  0
    6.3600    1.5360    0.2570 C   0  0  0  0  0  0  0  0  0  0  0  0
    6.7140    0.3750   -0.4190 O   0  0  0  0  0  0  0  0  0  0  0  0
    5.5780   -0.2470   -0.8200 C   0  0  0  0  0  0  0  0  0  0  0  0
  1  2  1  0
  2  3  1  0
  3  4  2  0
  5  3  1  1
  5  6  1  0
  5 14  1  0
  6  7  1  0
  6  8  2  0
  8  9  1  0
  8 12  1  0
  9 10  1  0
  9 11  2  0
 12 13  1  1
 12 14  1  0
 14 15  1  6
 15 16  2  0
 15 17  1  0
 17 18  1  0
 18 19  2  0
 18 20  1  0
 21 20  1  6
 21 22  1  0
 21 25  1  0
 22 23  1  0
 23 24  1  0
 24 25  1  0
M  END
