
     RDKit          3D

 37 41  0  0  0  0  0  0  0  0999 V2000
   -7.6840    0.3770    1.7650 C   0  0  0  0  0  0  0  0  0  0  0  0
   -7.8930   -0.1940    0.6170 C   0  0  0  0  0  0  0  0  0  0  0  0
   -7.1160    0.0770   -0.5730 C   0  0  0  0  0  0  0  0  0  0  0  0
   -7.5140   -0.6300   -1.6430 C   0  0  0  0  0  0  0  0  0  0  0  0
   -6.9690   -0.6150   -3.0030 C   0  0  0  0  0  0  0  0  0  0  0  0
   -5.5130   -0.6490   -3.1030 C   0  0  0  0  0  0  0  0  0  0  0  0
   -4.5660   -0.2570   -2.2360 C   0  0  0  0  0  0  0  0  0  0  0  0
   -4.7980    0.3070   -0.9660 N   0  0  0  0  0  0  0  0  0  0  0  0
   -3.8300    0.1390    0.0580 C   0  0  0  0  0  0  0  0  0  0  0  0
   -2.4780   -0.3650   -0.2890 C   0  0  1  0  0  0  0  0  0  0  0  0
   -1.6550    0.4820   -1.2030 C   0  0  0  0  0  0  0  0  0  0  0  0
   -0.2850    0.7220   -0.5040 C   0  0  0  0  0  0  0  0  0  0  0  0
   -0.5640    1.3440    0.7480 N   0  0  2  0  0  0  0  0  0  0  0  0
    0.4430    2.1870    1.2860 C   0  0  0  0  0  0  0  0  0  0  0  0
    1.6900    1.6380    1.7550 C   0  0  0  0  0  0  0  0  0  0  0  0
    2.5540    2.4530    2.2570 O   0  0  0  0  0  0  0  0  0  0  0  0
    2.0870    0.2920    1.7320 N   0  0  0  0  0  0  0  0  0  0  0  0
    3.4020   -0.0810    2.2730 C   0  0  1  0  0  0  0  0  0  0  0  0
    3.1600   -1.1050    3.3630 C   0  0  0  0  0  0  0  0  0  0  0  0
    2.6000   -2.2770    2.6920 N   0  0  0  0  0  0  0  0  0  0  0  0
    3.4200   -2.8440    1.6800 C   0  0  0  0  0  0  0  0  0  0  0  0
    3.3630   -4.0830    1.4450 O   0  0  0  0  0  0  0  0  0  0  0  0
    4.3060   -1.9520    0.9450 C   0  0  0  0  0  0  0  0  0  0  0  0
    5.1540   -2.4680   -0.0350 C   0  0  0  0  0  0  0  0  0  0  0  0
    5.9780   -1.6040   -0.6660 N   0  0  0  0  0  0  0  0  0  0  0  0
    5.9980   -0.2920   -0.3780 C   0  0  0  0  0  0  0  0  0  0  0  0
    6.9210    0.5880   -1.0970 C   0  0  0  0  0  0  0  0  0  0  0  0
    7.0840    1.9510   -0.9460 C   0  0  0  0  0  0  0  0  0  0  0  0
    8.0640    2.4010   -1.8170 C   0  0  0  0  0  0  0  0  0  0  0  0
    8.4700    1.2930   -2.4730 N   0  0  0  0  0  0  0  0  0  0  0  0
    7.7980    0.2380   -2.0480 N   0  0  0  0  0  0  0  0  0  0  0  0
    7.9890   -1.1050   -2.5410 C   0  0  0  0  0  0  0  0  0  0  0  0
    5.1710    0.1690    0.5670 N   0  0  0  0  0  0  0  0  0  0  0  0
    4.3120   -0.6190    1.2510 C   0  0  0  0  0  0  0  0  0  0  0  0
   -1.1370    0.4160    1.6690 C   0  0  0  0  0  0  0  0  0  0  0  0
   -1.7010   -0.7790    0.9560 C   0  0  0  0  0  0  0  0  0  0  0  0
   -6.0140    1.0330   -0.5700 C   0  0  0  0  0  0  0  0  0  0  0  0
  1  2  2  0
  2  3  1  0
  3  4  2  0
  3 37  1  0
  4  5  1  0
  5  6  1  0
  6  7  2  0
  7  8  1  0
  8  9  1  0
  8 37  1  0
 10  9  1  1
 10 11  1  0
 10 36  1  0
 11 12  1  0
 12 13  1  0
 13 14  1  1
 13 35  1  0
 14 15  1  0
 15 16  2  0
 15 17  1  0
 18 17  1  6
 18 19  1  0
 18 34  1  0
 19 20  1  0
 20 21  1  0
 21 22  2  0
 21 23  1  0
 23 24  2  0
 23 34  1  0
 24 25  1  0
 25 26  2  0
 26 27  1  0
 26 33  1  0
 27 28  2  0
 27 31  1  0
 28 29  1  0
 29 30  2  0
 30 31  1  0
 31 32  1  0
 33 34  2  0
 35 36  1  0
M  CHG  1  13   1
M  END
