
     RDKit          3D

 36 40  0  0  0  0  0  0  0  0999 V2000
    4.1290   -3.4170   -1.0410 C   0  0  0  0  0  0  0  0  0  0  0  0
    3.2870   -2.5350   -0.2660 N   0  0  0  0  0  0  0  0  0  0  0  0
    3.2190   -1.1880   -0.9110 C   0  0  0  0  0  0  0  0  0  0  0  0
    2.3360   -0.3630   -0.1390 C   0  0  0  0  0  0  0  0  0  0  0  0
    2.8010    0.8900    0.4080 C   0  0  0  0  0  0  0  0  0  0  0  0
    4.1690    1.2700    0.1820 C   0  0  0  0  0  0  0  0  0  0  0  0
    4.8480    0.2140   -0.3010 O   0  0  0  0  0  0  0  0  0  0  0  0
    5.0080    2.3640    0.2480 N   0  0  0  0  0  0  0  0  0  0  0  0
    4.7260    3.6140    0.8360 C   0  0  0  0  0  0  0  0  0  0  0  0
    6.2630    2.2330   -0.5880 C   0  0  0  0  0  0  0  0  0  0  0  0
    7.2160    1.2740   -0.0630 C   0  0  0  0  0  0  0  0  0  0  0  0
    8.1730    1.5130    0.9440 C   0  0  0  0  0  0  0  0  0  0  0  0
    8.8730    0.3800    1.0630 N   0  0  0  0  0  0  0  0  0  0  0  0
    8.4580   -0.5570    0.2460 N   0  0  0  0  0  0  0  0  0  0  0  0
    7.4100   -0.0190   -0.4780 C   0  0  0  0  0  0  0  0  0  0  0  0
    1.8810    1.6480    0.9710 N   0  0  0  0  0  0  0  0  0  0  0  0
    0.5720    1.3600    1.0570 N   0  0  0  0  0  0  0  0  0  0  0  0
    0.0840    0.2460    0.5680 C   0  0  0  0  0  0  0  0  0  0  0  0
    1.0330   -0.6110   -0.0380 C   0  0  0  0  0  0  0  0  0  0  0  0
    0.3540   -1.6380   -0.9410 C   0  0  0  0  0  0  0  0  0  0  0  0
   -0.4820   -0.6550   -1.8660 C   0  0  0  0  0  0  0  0  0  0  0  0
   -1.5610   -0.0340   -1.0990 C   0  0  0  0  0  0  0  0  0  0  0  0
   -1.3370   -0.1880    0.4710 C   0  0  2  0  0  0  0  0  0  0  0  0
   -2.3390    0.6950    1.0180 C   0  0  0  0  0  0  0  0  0  0  0  0
   -2.0080    1.8750    1.4830 O   0  0  0  0  0  0  0  0  0  0  0  0
   -3.7030    0.3500    1.0490 N   0  0  0  0  0  0  0  0  0  0  0  0
   -4.1170   -0.9780    0.7550 C   0  0  0  0  0  0  0  0  0  0  0  0
   -5.5480   -1.1040    0.3730 C   0  0  0  0  0  0  0  0  0  0  0  0
   -6.4370   -0.1640    0.5830 C   0  0  0  0  0  0  0  0  0  0  0  0
   -7.8250   -0.3140    0.2150 N   0  0  0  0  0  0  0  0  0  0  0  0
   -8.7980    0.5930    0.3510 C   0  0  0  0  0  0  0  0  0  0  0  0
   -9.9890    0.0840   -0.1080 C   0  0  0  0  0  0  0  0  0  0  0  0
   -9.7230   -1.1790   -0.5440 C   0  0  0  0  0  0  0  0  0  0  0  0
   -8.3840   -1.3890   -0.3260 C   0  0  0  0  0  0  0  0  0  0  0  0
   -6.0630    1.1230    1.1930 C   0  0  0  0  0  0  0  0  0  0  0  0
   -4.6300    1.4510    1.3010 C   0  0  0  0  0  0  0  0  0  0  0  0
  1  2  1  0
  2  3  1  0
  3  4  1  0
  4  5  2  0
  4 19  1  0
  5  6  1  0
  5 16  1  0
  6  7  2  0
  6  8  1  0
  8  9  1  0
  8 10  1  0
 10 11  1  0
 11 12  1  0
 11 15  2  0
 12 13  2  0
 13 14  1  0
 14 15  1  0
 16 17  2  0
 17 18  1  0
 18 19  2  0
 18 23  1  0
 19 20  1  0
 20 21  1  0
 21 22  1  0
 22 23  1  0
 23 24  1  1
 24 25  2  0
 24 26  1  0
 26 27  1  0
 26 36  1  0
 27 28  1  0
 28 29  2  0
 29 30  1  0
 29 35  1  0
 30 31  1  0
 30 34  1  0
 31 32  2  0
 32 33  1  0
 33 34  2  0
 35 36  1  0
M  CHG  1   2   1
M  END
