
     RDKit          3D

 37 41  0  0  0  0  0  0  0  0999 V2000
    3.8810    6.1390    2.1060 C   0  0  0  0  0  0  0  0  0  0  0  0
    3.4860    4.9850    1.5490 C   0  0  0  0  0  0  0  0  0  0  0  0
    4.3150    3.7650    1.4850 C   0  0  0  0  0  0  0  0  0  0  0  0
    3.4350    2.7940    0.7870 C   0  0  0  0  0  0  0  0  0  0  0  0
    3.6240    1.5390    0.4410 C   0  0  0  0  0  0  0  0  0  0  0  0
    2.5840    0.7370   -0.2670 C   0  0  0  0  0  0  0  0  0  0  0  0
    2.9020   -0.6300   -0.5820 C   0  0  0  0  0  0  0  0  0  0  0  0
    4.0860   -1.0430   -0.1800 O   0  0  0  0  0  0  0  0  0  0  0  0
    2.1810   -1.6100   -1.2400 N   0  0  0  0  0  0  0  0  0  0  0  0
    2.8120   -2.9700   -1.3420 C   0  0  0  0  0  0  0  0  0  0  0  0
    2.3600   -3.7140   -0.1280 C   0  0  0  0  0  0  0  0  0  0  0  0
    2.9080   -5.0940   -0.0690 C   0  0  0  0  0  0  0  0  0  0  0  0
    3.6640   -5.4320    0.9590 C   0  0  0  0  0  0  0  0  0  0  0  0
    3.9770   -4.4580    2.0590 C   0  0  0  0  0  0  0  0  0  0  0  0
    0.9100   -1.4940   -1.8840 C   0  0  0  0  0  0  0  0  0  0  0  0
   -0.1650   -1.7810   -0.8690 C   0  0  0  0  0  0  0  0  0  0  0  0
   -0.1030   -1.4270    0.4130 N   0  0  0  0  0  0  0  0  0  0  0  0
   -1.2230   -1.8510    0.9760 N   0  0  0  0  0  0  0  0  0  0  0  0
   -1.9620   -2.4610    0.0300 C   0  0  0  0  0  0  0  0  0  0  0  0
   -3.3090   -3.0850    0.2550 C   0  0  0  0  0  0  0  0  0  0  0  0
   -4.3240   -2.0680    0.1400 N   0  0  0  0  0  0  0  0  0  0  0  0
   -5.7120   -2.4540    0.2770 C   0  0  0  0  0  0  0  0  0  0  0  0
   -4.0160   -0.7090   -0.0920 C   0  0  0  0  0  0  0  0  0  0  0  0
   -3.8760    0.1260    0.9940 C   0  0  0  0  0  0  0  0  0  0  0  0
   -3.5840    1.4580    0.8560 C   0  0  0  0  0  0  0  0  0  0  0  0
   -3.4330    1.9290   -0.4440 C   0  0  0  0  0  0  0  0  0  0  0  0
   -3.5690    1.1060   -1.5280 C   0  0  0  0  0  0  0  0  0  0  0  0
   -3.3980    1.6470   -2.9040 C   0  0  0  0  0  0  0  0  0  0  0  0
   -3.8620   -0.2130   -1.3260 N   0  0  0  0  0  0  0  0  0  0  0  0
   -3.1330    3.3600   -0.3420 C   0  0  0  0  0  0  0  0  0  0  0  0
   -3.4060    3.7660    1.0200 N   0  0  0  0  0  0  0  0  0  0  0  0
   -3.3840    2.5580    1.8200 C   0  0  0  0  0  0  0  0  0  0  0  0
   -1.2990   -2.4130   -1.1080 O   0  0  0  0  0  0  0  0  0  0  0  0
    1.4800    1.3730   -0.5140 C   0  0  0  0  0  0  0  0  0  0  0  0
    1.1960    2.7470   -0.1680 N   0  0  0  0  0  0  0  0  0  0  0  0
    2.1960    3.4920    0.5040 C   0  0  0  0  0  0  0  0  0  0  0  0
    2.2530    4.6970    0.9340 N   0  0  0  0  0  0  0  0  0  0  0  0
  1  2  2  0
  2  3  1  0
  2 37  1  0
  3  4  1  0
  4  5  2  0
  4 36  1  0
  5  6  1  0
  6  7  1  0
  6 34  2  0
  7  8  2  0
  7  9  1  0
  9 10  1  0
  9 15  1  0
 10 11  1  0
 11 12  1  0
 12 13  2  3
 13 14  1  0
 15 16  1  0
 16 17  2  0
 16 33  1  0
 17 18  1  0
 18 19  2  0
 19 20  1  0
 19 33  1  0
 20 21  1  0
 21 22  1  0
 21 23  1  0
 23 24  2  0
 23 29  1  0
 24 25  1  0
 25 26  2  0
 25 32  1  0
 26 27  1  0
 26 30  1  0
 27 28  1  0
 27 29  2  0
 30 31  1  0
 31 32  1  0
 34 35  1  0
 35 36  1  0
 36 37  2  0
M  CHG  1  37   1
M  END
