
     RDKit          3D

 37 41  0  0  0  0  0  0  0  0999 V2000
  -10.9320   -0.0570   -0.1710 C   0  0  0  0  0  0  0  0  0  0  0  0
   -9.5000    0.3100   -0.2400 C   0  0  0  0  0  0  0  0  0  0  0  0
   -9.0850    1.2920   -1.1240 C   0  0  0  0  0  0  0  0  0  0  0  0
   -7.7900    1.6530   -1.2200 N   0  0  0  0  0  0  0  0  0  0  0  0
   -6.8560    1.0590   -0.4490 C   0  0  0  0  0  0  0  0  0  0  0  0
   -7.2560    0.0800    0.4340 C   0  0  0  0  0  0  0  0  0  0  0  0
   -6.1700   -0.5550    1.2620 C   0  0  0  0  0  0  0  0  0  0  0  0
   -4.9520   -0.6530    0.5440 N   0  0  0  0  0  0  0  0  0  0  0  0
   -5.0430   -1.4480   -0.6050 C   0  0  0  0  0  0  0  0  0  0  0  0
   -3.9910   -1.3000   -1.6420 C   0  0  0  0  0  0  0  0  0  0  0  0
   -2.7220   -0.6140   -1.1880 C   0  0  0  0  0  0  0  0  0  0  0  0
   -1.9860   -1.3840   -0.2240 N   0  0  1  0  0  0  0  0  0  0  0  0
   -0.7340   -0.7690    0.0030 C   0  0  0  0  0  0  0  0  0  0  0  0
    0.1190   -1.3950    0.9120 C   0  0  0  0  0  0  0  0  0  0  0  0
    1.3650   -0.8520    1.1970 C   0  0  0  0  0  0  0  0  0  0  0  0
    1.7460    0.2970    0.5820 C   0  0  0  0  0  0  0  0  0  0  0  0
    2.9680    0.9680    0.8370 N   0  0  0  0  0  0  0  0  0  0  0  0
    3.0670    1.6160    2.0270 C   0  0  0  0  0  0  0  0  0  0  0  0
    4.1800    2.3140    2.3080 N   0  0  0  0  0  0  0  0  0  0  0  0
    5.1900    2.3740    1.4210 C   0  0  0  0  0  0  0  0  0  0  0  0
    5.1260    1.7180    0.1810 C   0  0  0  0  0  0  0  0  0  0  0  0
    6.2250    1.7750   -0.7330 C   0  0  0  0  0  0  0  0  0  0  0  0
    6.1620    2.5430   -1.7230 O   0  0  0  0  0  0  0  0  0  0  0  0
    7.4040    0.9950   -0.5560 N   0  0  0  0  0  0  0  0  0  0  0  0
    8.5070    1.0650   -1.4820 C   0  0  0  0  0  0  0  0  0  0  0  0
    9.6630    0.2560   -1.0320 C   0  0  0  0  0  0  0  0  0  0  0  0
    9.7340   -0.4490    0.0760 C   0  0  0  0  0  0  0  0  0  0  0  0
   11.0840   -1.1210    0.1550 C   0  0  0  0  0  0  0  0  0  0  0  0
   11.7170   -0.6600   -1.0810 C   0  0  0  0  0  0  0  0  0  0  0  0
   10.9100    0.1000   -1.7210 N   0  0  0  0  0  0  0  0  0  0  0  0
    3.9680    1.0150   -0.0620 C   0  0  0  0  0  0  0  0  0  0  0  0
    3.8730    0.4030   -1.1800 O   0  0  0  0  0  0  0  0  0  0  0  0
    0.8870    0.9090   -0.3220 C   0  0  0  0  0  0  0  0  0  0  0  0
   -0.3580    0.3920   -0.6260 C   0  0  0  0  0  0  0  0  0  0  0  0
   -2.6890   -1.5320    1.0320 C   0  0  0  0  0  0  0  0  0  0  0  0
   -3.7650   -0.5040    1.2450 C   0  0  0  0  0  0  0  0  0  0  0  0
   -8.5380   -0.2670    0.5190 N   0  0  0  0  0  0  0  0  0  0  0  0
  1  2  1  0
  2  3  2  0
  2 37  1  0
  3  4  1  0
  4  5  2  0
  5  6  1  0
  6  7  1  0
  6 37  2  0
  7  8  1  0
  8  9  1  0
  8 36  1  0
  9 10  1  0
 10 11  1  0
 11 12  1  0
 12 13  1  1
 12 35  1  0
 13 14  2  0
 13 34  1  0
 14 15  1  0
 15 16  2  0
 16 17  1  0
 16 33  1  0
 17 18  1  0
 17 31  1  0
 18 19  2  0
 19 20  1  0
 20 21  2  0
 21 22  1  0
 21 31  1  0
 22 23  2  0
 22 24  1  0
 24 25  1  0
 25 26  1  0
 26 27  2  0
 26 30  1  0
 27 28  1  0
 28 29  1  0
 29 30  2  0
 31 32  2  0
 33 34  2  0
 35 36  1  0
M  CHG  1  12   1
M  END
