
     RDKit          3D

 14 14  0  0  0  0  0  0  0  0999 V2000
   -1.6730   -1.3050   -1.9480 N   0  0  0  0  0  0  0  0  0  0  0  0
   -1.5080   -0.0040   -1.3760 C   0  0  2  0  0  0  0  0  0  0  0  0
   -0.7940    0.7640   -2.3270 O   0  0  0  0  0  0  0  0  0  0  0  0
   -0.7220    0.0400   -0.1150 C   0  0  1  0  0  0  0  0  0  0  0  0
   -1.4560   -0.5070    1.0880 C   0  0  0  0  0  0  0  0  0  0  0  0
   -2.7280    0.2620    1.3700 C   0  0  1  0  0  0  0  0  0  0  0  0
   -3.3240   -0.3220    2.4950 O   0  0  0  0  0  0  0  0  0  0  0  0
   -2.4270    1.5800    1.7350 O   0  0  0  0  0  0  0  0  0  0  0  0
    0.5620   -0.4240   -0.2220 O   0  0  0  0  0  0  0  0  0  0  0  0
    1.5590    0.4730   -0.0380 C   0  0  1  0  0  0  0  0  0  0  0  0
    2.4720   -0.0450    1.0730 C   0  0  0  0  0  0  0  0  0  0  0  0
    3.7720   -0.3160    0.3550 C   0  0  0  0  0  0  0  0  0  0  0  0
    3.3020   -0.7020   -0.9150 O   0  0  0  0  0  0  0  0  0  0  0  0
    2.4990    0.4040   -1.2300 C   0  0  0  0  0  0  0  0  0  0  0  0
  2  1  1  6
  2  3  1  0
  2  4  1  0
  4  5  1  1
  4  9  1  0
  5  6  1  0
  6  7  1  1
  6  8  1  0
 10  9  1  6
 10 11  1  0
 10 14  1  0
 11 12  1  0
 12 13  1  0
 13 14  1  0
M  END
