
     RDKit          3D

 22 22  0  0  0  0  0  0  0  0999 V2000
   -1.6680   -3.1010    0.7040 C   0  0  0  0  0  0  0  0  0  0  0  0
   -0.3420   -2.5600    0.1670 C   0  0  0  0  0  0  0  0  0  0  0  0
   -0.3740   -1.0270    0.2020 C   0  0  2  0  0  0  0  0  0  0  0  0
   -1.4440   -0.5370   -0.6060 N   0  0  0  0  0  0  0  0  0  0  0  0
   -2.5320    0.1820   -0.0370 C   0  0  0  0  0  0  0  0  0  0  0  0
   -2.5370    0.3830    1.2140 O   0  0  0  0  0  0  0  0  0  0  0  0
   -3.6600    0.6980   -0.8920 C   0  0  0  0  0  0  0  0  0  0  0  0
   -4.6490    1.4120    0.0040 C   0  0  0  0  0  0  0  0  0  0  0  0
   -5.7580    1.9230   -0.8140 C   0  0  0  0  0  0  0  0  0  0  0  0
   -6.8010    2.6250   -0.1940 N   0  0  0  0  0  0  0  0  0  0  0  0
   -5.7920    1.7470   -2.0430 O   0  0  0  0  0  0  0  0  0  0  0  0
    0.9620   -0.5770   -0.2680 C   0  0  0  0  0  0  0  0  0  0  0  0
    1.0340    0.1590   -1.2840 O   0  0  0  0  0  0  0  0  0  0  0  0
    2.1430   -0.9610    0.4050 N   0  0  0  0  0  0  0  0  0  0  0  0
    3.4620   -0.5520    0.0010 C   0  0  0  0  0  0  0  0  0  0  0  0
    4.3430   -1.4260   -0.3970 C   0  0  0  0  0  0  0  0  0  0  0  0
    5.6880   -1.0760   -0.8170 C   0  0  0  0  0  0  0  0  0  0  0  0
    6.0150    0.3600   -0.7610 C   0  0  0  0  0  0  0  0  0  0  0  0
    5.1330    1.2500   -0.3580 C   0  0  0  0  0  0  0  0  0  0  0  0
    3.7760    0.8540    0.0580 C   0  0  0  0  0  0  0  0  0  0  0  0
    2.9180    1.7960    0.4850 C   0  0  0  0  0  0  0  0  0  0  0  0
    3.4840    3.5030    0.4840 S   0  0  0  0  0  0  0  0  0  0  0  0
  1  2  1  0
  3  2  1  6
  3  4  1  0
  3 12  1  0
  4  5  1  0
  5  6  2  0
  5  7  1  0
  7  8  1  0
  8  9  1  0
  9 10  1  0
  9 11  2  0
 12 13  2  0
 12 14  1  0
 14 15  1  0
 15 16  2  0
 15 20  1  0
 16 17  1  0
 17 18  1  0
 18 19  2  0
 19 20  1  0
 20 21  2  3
 21 22  1  0
M  END
