
     RDKit          3D

 14 14  0  0  0  0  0  0  0  0999 V2000
    2.7880   -0.4240    0.1910 N   0  0  0  0  0  0  0  0  0  0  0  0
    1.6200    0.1020    0.8300 C   0  0  0  0  0  0  0  0  0  0  0  0
    0.3920   -0.3000    0.0030 C   0  0  2  0  0  0  0  0  0  0  0  0
    0.3940   -1.7650   -0.0190 C   0  0  0  0  0  0  0  0  0  0  0  0
   -0.3780   -2.3890    0.7500 O   0  0  0  0  0  0  0  0  0  0  0  0
    1.1930   -2.5640   -0.8280 O   0  0  0  0  0  0  0  0  0  0  0  0
    0.4800    0.3690   -1.3430 C   0  0  0  0  0  0  0  0  0  0  0  0
    0.3260    1.8660   -1.1270 C   0  0  0  0  0  0  0  0  0  0  0  0
   -0.8370    2.1960   -0.4720 O   0  0  0  0  0  0  0  0  0  0  0  0
   -0.8230    1.7100    0.8140 C   0  0  0  0  0  0  0  0  0  0  0  0
   -0.8760    0.1820    0.6840 C   0  0  2  0  0  0  0  0  0  0  0  0
   -0.9770   -0.4200    1.9090 O   0  0  0  0  0  0  0  0  0  0  0  0
   -2.0680   -0.0850   -0.1820 C   0  0  0  0  0  0  0  0  0  0  0  0
   -2.3240   -1.3880   -0.4900 O   0  0  0  0  0  0  0  0  0  0  0  0
  1  2  1  0
  3  2  1  1
  3  4  1  0
  3  7  1  0
  3 11  1  0
  4  5  2  0
  4  6  1  0
  7  8  1  0
  8  9  1  0
  9 10  1  0
 10 11  1  0
 11 12  1  1
 11 13  1  0
 13 14  1  0
M  END
