
     RDKit          3D

 21 24  0  0  0  0  0  0  0  0999 V2000
   -1.5640    0.4250    1.9390 O   0  0  0  0  0  0  0  0  0  0  0  0
   -1.2760    0.0870    0.7560 C   0  0  0  0  0  0  0  0  0  0  0  0
   -2.2230   -0.2010   -0.1520 N   0  0  0  0  0  0  0  0  0  0  0  0
   -3.6490   -0.1680    0.0880 C   0  0  0  0  0  0  0  0  0  0  0  0
   -4.2350    1.0860    0.2350 C   0  0  0  0  0  0  0  0  0  0  0  0
   -5.5790    1.2350    0.4660 C   0  0  0  0  0  0  0  0  0  0  0  0
   -6.3390    0.0880    0.5490 C   0  0  0  0  0  0  0  0  0  0  0  0
   -5.7770   -1.1630    0.4060 C   0  0  0  0  0  0  0  0  0  0  0  0
   -4.4130   -1.2880    0.1720 C   0  0  0  0  0  0  0  0  0  0  0  0
   -1.6230   -0.5120   -1.2730 N   0  0  0  0  0  0  0  0  0  0  0  0
   -0.2630   -0.4130   -1.0510 C   0  0  0  0  0  0  0  0  0  0  0  0
    1.3660   -0.5710   -1.7390 S   0  0  0  0  0  0  0  0  0  0  0  0
    2.2310   -0.1270   -0.2890 C   0  0  0  0  0  0  0  0  0  0  0  0
    3.6760   -0.0360   -0.1060 C   0  0  0  0  0  0  0  0  0  0  0  0
    4.1590    0.3330    1.1220 C   0  0  0  0  0  0  0  0  0  0  0  0
    5.5240    0.4380    1.3600 C   0  0  0  0  0  0  0  0  0  0  0  0
    6.4250    0.1650    0.3450 C   0  0  0  0  0  0  0  0  0  0  0  0
    5.9380   -0.2060   -0.8850 C   0  0  0  0  0  0  0  0  0  0  0  0
    4.5600   -0.3060   -1.1090 C   0  0  0  0  0  0  0  0  0  0  0  0
    1.2160    0.1080    0.6060 C   0  0  0  0  0  0  0  0  0  0  0  0
   -0.0190   -0.0440    0.1920 N   0  0  0  0  0  0  0  0  0  0  0  0
  1  2  2  0
  2  3  1  0
  2 21  1  0
  3  4  1  0
  3 10  1  0
  4  5  2  0
  4  9  1  0
  5  6  1  0
  6  7  2  0
  7  8  1  0
  8  9  2  0
 10 11  2  0
 11 12  1  0
 11 21  1  0
 12 13  1  0
 13 14  1  0
 13 20  2  0
 14 15  2  0
 14 19  1  0
 15 16  1  0
 16 17  2  0
 17 18  1  0
 18 19  2  0
 20 21  1  0
M  END
