
     RDKit          3D

 23 24  0  0  0  0  0  0  0  0999 V2000
    5.4060    1.0760    1.5750 O   0  0  0  0  0  0  0  0  0  0  0  0
    4.0170    1.1960    1.5700 C   0  0  0  0  0  0  0  0  0  0  0  0
    3.4440   -0.2010    1.6170 C   0  0  1  0  0  0  0  0  0  0  0  0
    2.0720   -0.2200    1.6170 O   0  0  0  0  0  0  0  0  0  0  0  0
    1.5050    0.1470    0.4110 C   0  0  2  0  0  0  0  0  0  0  0  0
    0.1420   -0.0200    0.4860 O   0  0  0  0  0  0  0  0  0  0  0  0
   -0.5630    1.1570    0.2480 C   0  0  0  0  0  0  0  0  0  0  0  0
   -2.0410    0.8810    0.3500 C   0  0  1  0  0  0  0  0  0  0  0  0
   -2.8190    1.9790    0.1310 O   0  0  0  0  0  0  0  0  0  0  0  0
   -4.1650    1.7800    0.2000 C   0  0  2  0  0  0  0  0  0  0  0  0
   -4.4900    1.5470    1.5540 O   0  0  0  0  0  0  0  0  0  0  0  0
   -4.6410    0.5650   -0.5610 C   0  0  2  0  0  0  0  0  0  0  0  0
   -6.0010    0.3490   -0.3500 O   0  0  0  0  0  0  0  0  0  0  0  0
   -3.8330   -0.6640   -0.2120 C   0  0  1  0  0  0  0  0  0  0  0  0
   -4.1800   -1.7540   -0.9760 O   0  0  0  0  0  0  0  0  0  0  0  0
   -2.3720   -0.3100   -0.5010 C   0  0  2  0  0  0  0  0  0  0  0  0
   -1.6260   -1.3930    0.0100 O   0  0  0  0  0  0  0  0  0  0  0  0
    2.0300   -0.6720   -0.7450 C   0  0  2  0  0  0  0  0  0  0  0  0
    1.0430   -1.1840   -1.5520 O   0  0  0  0  0  0  0  0  0  0  0  0
    2.9550   -1.7570   -0.1900 C   0  0  1  0  0  0  0  0  0  0  0  0
    3.4640   -2.5370   -1.2140 O   0  0  0  0  0  0  0  0  0  0  0  0
    4.0790   -1.0010    0.5230 C   0  0  1  0  0  0  0  0  0  0  0  0
    4.6890   -0.1730   -0.4370 O   0  0  0  0  0  0  0  0  0  0  0  0
  1  2  1  0
  3  2  1  6
  3  4  1  0
  3 22  1  0
  4  5  1  0
  5  6  1  1
  5 18  1  0
  6  7  1  0
  8  7  1  6
  8  9  1  0
  8 16  1  0
  9 10  1  0
 10 11  1  1
 10 12  1  0
 12 13  1  1
 12 14  1  0
 14 15  1  6
 14 16  1  0
 16 17  1  1
 18 19  1  1
 18 20  1  0
 20 21  1  6
 20 22  1  0
 22 23  1  6
M  END
