
     RDKit          3D

 12 13  0  0  0  0  0  0  0  0999 V2000
   -3.1020   -1.0430   -0.3100 C   0  0  0  0  0  0  0  0  0  0  0  0
   -2.5210    0.1430    0.1930 O   0  0  0  0  0  0  0  0  0  0  0  0
   -1.1430    0.2720    0.1130 C   0  0  0  0  0  0  0  0  0  0  0  0
   -0.3390   -0.7170   -0.4400 C   0  0  0  0  0  0  0  0  0  0  0  0
    1.0280   -0.5420   -0.4970 C   0  0  0  0  0  0  0  0  0  0  0  0
    1.6350    0.6090   -0.0130 C   0  0  0  0  0  0  0  0  0  0  0  0
    0.7960    1.5600    0.5250 C   0  0  0  0  0  0  0  0  0  0  0  0
   -0.5590    1.4350    0.6050 C   0  0  0  0  0  0  0  0  0  0  0  0
   -1.3720    2.4280    1.1600 O   0  0  0  0  0  0  0  0  0  0  0  0
    3.0170    0.5000   -0.2070 O   0  0  0  0  0  0  0  0  0  0  0  0
    3.2680   -0.9080   -0.2840 C   0  0  0  0  0  0  0  0  0  0  0  0
    2.0830   -1.3260   -0.9770 O   0  0  0  0  0  0  0  0  0  0  0  0
  1  2  1  0
  2  3  1  0
  3  4  2  0
  3  8  1  0
  4  5  1  0
  5  6  2  0
  5 12  1  0
  6  7  1  0
  6 10  1  0
  7  8  2  0
  8  9  1  0
 10 11  1  0
 11 12  1  0
M  END
