
     RDKit          3D

 13 14  0  0  0  0  0  0  0  0999 V2000
   -4.4320   -0.0800    0.7640 C   0  0  0  0  0  0  0  0  0  0  0  0
   -3.0410   -0.1660    0.8640 O   0  0  0  0  0  0  0  0  0  0  0  0
   -2.2540    0.1490   -0.2490 C   0  0  0  0  0  0  0  0  0  0  0  0
   -2.7720    0.5060   -1.3330 O   0  0  0  0  0  0  0  0  0  0  0  0
   -0.7990    0.0460   -0.1040 C   0  0  0  0  0  0  0  0  0  0  0  0
    0.0740    0.3290   -1.1250 C   0  0  0  0  0  0  0  0  0  0  0  0
    1.3560    0.1140   -0.5970 C   0  0  0  0  0  0  0  0  0  0  0  0
    1.1680   -0.2810    0.6980 C   0  0  0  0  0  0  0  0  0  0  0  0
   -0.1390   -0.3120    0.9650 O   0  0  0  0  0  0  0  0  0  0  0  0
    2.2290   -0.5560    1.4470 C   0  0  0  0  0  0  0  0  0  0  0  0
    3.5040   -0.4580    0.9690 O   0  0  0  0  0  0  0  0  0  0  0  0
    3.7680   -0.0630   -0.3330 C   0  0  0  0  0  0  0  0  0  0  0  0
    2.5510    0.2270   -1.1110 C   0  0  0  0  0  0  0  0  0  0  0  0
  1  2  1  0
  2  3  1  0
  3  4  2  0
  3  5  1  0
  5  6  2  0
  5  9  1  0
  6  7  1  0
  7  8  1  0
  7 13  2  0
  8  9  1  0
  8 10  2  0
 10 11  1  0
 11 12  1  0
 12 13  1  0
M  END
