
     RDKit          3D

 13 13  0  0  0  0  0  0  0  0999 V2000
   -1.3550   -2.4270   -0.2870 C   0  0  0  0  0  0  0  0  0  0  0  0
   -1.0300   -1.3480   -1.1180 O   0  0  0  0  0  0  0  0  0  0  0  0
   -1.0540   -0.0390   -0.6950 C   0  0  0  0  0  0  0  0  0  0  0  0
   -2.1810    0.6560   -0.7060 C   0  0  0  0  0  0  0  0  0  0  0  0
   -3.3850    0.1140   -1.1360 O   0  0  0  0  0  0  0  0  0  0  0  0
   -2.1440    2.0250   -0.2510 C   0  0  0  0  0  0  0  0  0  0  0  0
   -1.0400    2.6240    0.1770 C   0  0  0  0  0  0  0  0  0  0  0  0
    0.1500    1.9080    0.1940 O   0  0  0  0  0  0  0  0  0  0  0  0
    0.1780    0.5820   -0.2330 C   0  0  0  0  0  0  0  0  0  0  0  0
    1.2960   -0.1180   -0.2260 C   0  0  0  0  0  0  0  0  0  0  0  0
    2.5630    0.4440    0.2240 C   0  0  0  0  0  0  0  0  0  0  0  0
    3.7770   -0.3990    0.2040 C   0  0  0  0  0  0  0  0  0  0  0  0
    2.6200    1.6330    0.6240 O   0  0  0  0  0  0  0  0  0  0  0  0
  1  2  1  0
  2  3  1  0
  3  4  2  0
  3  9  1  0
  4  5  1  0
  4  6  1  0
  6  7  2  0
  7  8  1  0
  8  9  1  0
  9 10  2  3
 10 11  1  0
 11 12  1  0
 11 13  2  0
M  END
