
     RDKit          3D

 16 18  0  0  0  0  0  0  0  0999 V2000
    3.7830    1.6860   -0.8860 C   0  0  0  0  0  0  0  0  0  0  0  0
    2.8040    0.6770   -0.4850 N   0  0  0  0  0  0  0  0  0  0  0  0
    1.5110    0.9010   -0.4150 N   0  0  0  0  0  0  0  0  0  0  0  0
    0.8510   -0.1990   -0.0210 C   0  0  0  0  0  0  0  0  0  0  0  0
   -0.5900   -0.3050    0.1630 C   0  0  0  0  0  0  0  0  0  0  0  0
   -1.1750   -1.4900    0.5740 C   0  0  0  0  0  0  0  0  0  0  0  0
   -2.5400   -1.5950    0.7490 C   0  0  0  0  0  0  0  0  0  0  0  0
   -3.3880   -0.5310    0.5240 C   0  0  0  0  0  0  0  0  0  0  0  0
   -2.8110    0.6520    0.1150 C   0  0  0  0  0  0  0  0  0  0  0  0
   -1.4450    0.7550   -0.0600 C   0  0  0  0  0  0  0  0  0  0  0  0
   -3.8550    1.5520   -0.0410 O   0  0  0  0  0  0  0  0  0  0  0  0
   -5.0460    1.0020    0.4960 C   0  0  0  0  0  0  0  0  0  0  0  0
   -4.7760   -0.3730    0.6240 O   0  0  0  0  0  0  0  0  0  0  0  0
    1.7880   -1.1700    0.1670 C   0  0  0  0  0  0  0  0  0  0  0  0
    3.0030   -0.5980   -0.1300 C   0  0  0  0  0  0  0  0  0  0  0  0
    4.2880   -1.2170   -0.0830 N   0  0  0  0  0  0  0  0  0  0  0  0
  1  2  1  0
  2  3  1  0
  2 15  1  0
  3  4  2  0
  4  5  1  0
  4 14  1  0
  5  6  2  0
  5 10  1  0
  6  7  1  0
  7  8  2  0
  8  9  1  0
  8 13  1  0
  9 10  2  0
  9 11  1  0
 11 12  1  0
 12 13  1  0
 14 15  2  0
 15 16  1  0
M  END
