
     RDKit          3D

 16 18  0  0  0  0  0  0  0  0999 V2000
   -3.6810   -1.2070    0.0530 N   0  0  0  0  0  0  0  0  0  0  0  0
   -3.3580    0.1030   -0.3200 C   0  0  0  0  0  0  0  0  0  0  0  0
   -4.2980    1.0620   -0.6380 C   0  0  0  0  0  0  0  0  0  0  0  0
   -3.6430    2.1940   -0.9470 N   0  0  0  0  0  0  0  0  0  0  0  0
   -2.3720    1.9480   -0.8270 N   0  0  0  0  0  0  0  0  0  0  0  0
   -2.1320    0.6740   -0.4430 C   0  0  0  0  0  0  0  0  0  0  0  0
   -0.8250    0.0930   -0.2230 C   0  0  0  0  0  0  0  0  0  0  0  0
   -0.6160   -1.2030    0.1660 C   0  0  0  0  0  0  0  0  0  0  0  0
    0.6500   -1.7380    0.3710 C   0  0  0  0  0  0  0  0  0  0  0  0
    1.7590   -0.9570    0.1820 C   0  0  0  0  0  0  0  0  0  0  0  0
    1.5940    0.3640   -0.2140 C   0  0  0  0  0  0  0  0  0  0  0  0
    0.3200    0.8640   -0.4080 C   0  0  0  0  0  0  0  0  0  0  0  0
    2.7350    1.1450   -0.4020 O   0  0  0  0  0  0  0  0  0  0  0  0
    3.8850    0.7660    0.3620 C   0  0  0  0  0  0  0  0  0  0  0  0
    4.1800   -0.6720   -0.0090 C   0  0  0  0  0  0  0  0  0  0  0  0
    3.0540   -1.4420    0.3730 O   0  0  0  0  0  0  0  0  0  0  0  0
  1  2  1  0
  2  3  1  0
  2  6  2  0
  3  4  2  0
  4  5  1  0
  5  6  1  0
  6  7  1  0
  7  8  2  0
  7 12  1  0
  8  9  1  0
  9 10  2  0
 10 11  1  0
 10 16  1  0
 11 12  2  0
 11 13  1  0
 13 14  1  0
 14 15  1  0
 15 16  1  0
M  END
