
     RDKit          3D

 16 17  0  0  0  0  0  0  0  0999 V2000
   -0.8230   -0.9140   -1.1590 O   0  0  0  0  0  0  0  0  0  0  0  0
   -0.5480   -0.2090   -0.1640 C   0  0  0  0  0  0  0  0  0  0  0  0
   -1.5810    0.4320    0.5330 N   0  0  0  0  0  0  0  0  0  0  0  0
   -2.9360    0.3350    0.1610 C   0  0  0  0  0  0  0  0  0  0  0  0
   -3.5320   -0.3350   -0.7830 C   0  0  0  0  0  0  0  0  0  0  0  0
   -4.9970   -0.1090   -0.7780 C   0  0  0  0  0  0  0  0  0  0  0  0
   -5.1560    0.8220    0.3300 C   0  0  0  0  0  0  0  0  0  0  0  0
   -4.0010    1.0760    0.8650 C   0  0  0  0  0  0  0  0  0  0  0  0
    0.8140   -0.0130    0.2950 C   0  0  0  0  0  0  0  0  0  0  0  0
    1.2380    0.4960    1.3360 O   0  0  0  0  0  0  0  0  0  0  0  0
    1.8290   -0.4270   -0.5370 N   0  0  0  0  0  0  0  0  0  0  0  0
    3.2030   -0.3150   -0.2010 C   0  0  0  0  0  0  0  0  0  0  0  0
    3.8940   -0.2140   -1.2490 N   0  0  0  0  0  0  0  0  0  0  0  0
    5.2720   -0.1170   -0.8990 C   0  0  0  0  0  0  0  0  0  0  0  0
    5.3490   -0.3050    0.5750 C   0  0  0  0  0  0  0  0  0  0  0  0
    4.0890   -0.3990    0.9230 C   0  0  0  0  0  0  0  0  0  0  0  0
  1  2  2  0
  2  3  1  0
  2  9  1  0
  3  4  1  0
  4  5  2  0
  4  8  1  0
  5  6  1  0
  6  7  1  0
  7  8  2  0
  9 10  2  0
  9 11  1  0
 11 12  1  0
 12 13  2  0
 12 16  1  0
 13 14  1  0
 14 15  1  0
 15 16  2  0
M  END
