
     RDKit          3D

 16 18  0  0  0  0  0  0  0  0999 V2000
    0.3790    2.6960   -0.2690 C   0  0  0  0  0  0  0  0  0  0  0  0
    0.1570    1.2630   -0.1440 N   0  0  0  0  0  0  0  0  0  0  0  0
    1.1250    0.3310   -0.1060 C   0  0  0  0  0  0  0  0  0  0  0  0
    2.5060    0.4850   -0.1720 C   0  0  0  0  0  0  0  0  0  0  0  0
    3.2710   -0.6600   -0.1090 C   0  0  0  0  0  0  0  0  0  0  0  0
    2.7050   -1.9110    0.0150 C   0  0  0  0  0  0  0  0  0  0  0  0
    1.3410   -2.0600    0.0800 C   0  0  0  0  0  0  0  0  0  0  0  0
    0.5690   -0.9230    0.0180 C   0  0  0  0  0  0  0  0  0  0  0  0
   -0.7860   -0.7440    0.0560 C   0  0  0  0  0  0  0  0  0  0  0  0
   -1.8690   -1.6240    0.1690 C   0  0  0  0  0  0  0  0  0  0  0  0
   -1.5970   -2.8490    0.2580 O   0  0  0  0  0  0  0  0  0  0  0  0
   -3.0920   -1.1220    0.1760 N   0  0  0  0  0  0  0  0  0  0  0  0
   -3.3080    0.2000    0.0770 C   0  0  0  0  0  0  0  0  0  0  0  0
   -4.4790    0.6550    0.0850 O   0  0  0  0  0  0  0  0  0  0  0  0
   -2.2880    1.0680   -0.0330 N   0  0  0  0  0  0  0  0  0  0  0  0
   -1.0150    0.6100   -0.0460 C   0  0  0  0  0  0  0  0  0  0  0  0
  1  2  1  0
  2  3  1  0
  2 16  1  0
  3  4  2  0
  3  8  1  0
  4  5  1  0
  5  6  2  0
  6  7  1  0
  7  8  2  0
  8  9  1  0
  9 10  1  0
  9 16  2  0
 10 11  2  0
 10 12  1  0
 12 13  1  0
 13 14  2  0
 13 15  1  0
 15 16  1  0
M  END
