
     RDKit          3D

 22 24  0  0  0  0  0  0  0  0999 V2000
    1.6060    4.1870    0.0870 C   0  0  0  0  0  0  0  0  0  0  0  0
    0.6950    3.0280   -0.2300 C   0  0  0  0  0  0  0  0  0  0  0  0
    1.1110    1.7600   -0.0090 C   0  0  0  0  0  0  0  0  0  0  0  0
    0.3510    0.6510   -0.2480 C   0  0  0  0  0  0  0  0  0  0  0  0
    0.7890   -0.5840   -0.0320 O   0  0  0  0  0  0  0  0  0  0  0  0
    1.7700   -1.3680    0.3570 C   0  0  0  0  0  0  0  0  0  0  0  0
    2.4200   -1.3600    1.7200 C   0  0  1  0  0  0  0  0  0  0  0  0
    3.6330   -2.3250    1.6690 C   0  0  0  0  0  0  0  0  0  0  0  0
    4.5200   -1.7550    2.7370 C   0  0  0  0  0  0  0  0  0  0  0  0
    4.2010   -0.2710    2.5820 C   0  0  0  0  0  0  0  0  0  0  0  0
    2.9660   -0.1680    2.0050 O   0  0  0  0  0  0  0  0  0  0  0  0
   -1.0030    0.8150   -0.7740 C   0  0  0  0  0  0  0  0  0  0  0  0
   -1.7570   -0.3980   -0.9000 C   0  0  2  0  0  0  0  0  0  0  0  0
   -2.1230   -0.9740   -2.2190 C   0  0  0  0  0  0  0  0  0  0  0  0
   -1.9810   -2.5170   -1.9490 C   0  0  0  0  0  0  0  0  0  0  0  0
   -2.8600   -2.7910   -0.7610 C   0  0  0  0  0  0  0  0  0  0  0  0
   -3.8050   -1.7270   -0.3450 C   0  0  0  0  0  0  0  0  0  0  0  0
   -3.1360   -0.3800   -0.1560 C   0  0  0  0  0  0  0  0  0  0  0  0
   -1.3750    2.0970   -0.9780 C   0  0  0  0  0  0  0  0  0  0  0  0
   -2.8090    2.3980   -1.3820 C   0  0  0  0  0  0  0  0  0  0  0  0
   -0.5980    3.2450   -0.7400 C   0  0  0  0  0  0  0  0  0  0  0  0
   -0.9830    4.5180   -0.9480 O   0  0  0  0  0  0  0  0  0  0  0  0
  1  2  1  0
  2  3  2  0
  2 21  1  0
  3  4  1  0
  4  5  1  0
  4 12  2  0
  5  6  1  0
  7  6  1  6
  7  8  1  0
  7 11  1  0
  8  9  1  0
  9 10  1  0
 10 11  1  0
 13 12  1  6
 12 19  1  0
 13 14  1  0
 13 18  1  0
 14 15  1  0
 15 16  1  0
 16 17  1  0
 17 18  1  0
 19 20  1  0
 19 21  2  0
 21 22  1  0
M  END
