
     RDKit          3D

 22 24  0  0  0  0  0  0  0  0999 V2000
    5.4420   -1.9210    0.5230 C   0  0  0  0  0  0  0  0  0  0  0  0
    4.7710   -0.6960   -0.0220 C   0  0  0  0  0  0  0  0  0  0  0  0
    3.3480   -0.5810    0.5480 C   0  0  0  0  0  0  0  0  0  0  0  0
    2.6870    0.6840   -0.0290 C   0  0  0  0  0  0  0  0  0  0  0  0
    1.3140    0.8270    0.5040 C   0  0  2  0  0  0  0  0  0  0  0  0
    1.2570    0.9490    1.8640 O   0  0  0  0  0  0  0  0  0  0  0  0
    0.4930   -0.4910    0.1360 C   0  0  0  0  0  0  0  0  0  0  0  0
   -0.8240    0.0420    0.5300 C   0  0  1  0  0  0  0  0  0  0  0  0
   -0.8440    1.3730   -0.1510 C   0  0  0  0  0  0  0  0  0  0  0  0
    0.4420    1.8180   -0.1430 C   0  0  0  0  0  0  0  0  0  0  0  0
    0.8150    3.0890   -0.7040 C   0  0  0  0  0  0  0  0  0  0  0  0
    2.1760    3.6680   -0.7410 C   0  0  0  0  0  0  0  0  0  0  0  0
   -0.1060    3.8130   -1.2310 O   0  0  0  0  0  0  0  0  0  0  0  0
   -2.1540    1.5920   -0.5110 O   0  0  0  0  0  0  0  0  0  0  0  0
   -2.8900    0.3990   -0.3290 C   0  0  0  0  0  0  0  0  0  0  0  0
   -4.2370    0.2050   -0.6270 C   0  0  0  0  0  0  0  0  0  0  0  0
   -5.0790    1.3160   -1.1610 C   0  0  0  0  0  0  0  0  0  0  0  0
   -4.7490   -1.0550   -0.4050 C   0  0  0  0  0  0  0  0  0  0  0  0
   -3.9550   -2.0640    0.0880 C   0  0  0  0  0  0  0  0  0  0  0  0
   -4.5670   -3.4120    0.3040 C   0  0  0  0  0  0  0  0  0  0  0  0
   -2.6340   -1.8520    0.3780 C   0  0  0  0  0  0  0  0  0  0  0  0
   -2.0670   -0.5830    0.1730 C   0  0  0  0  0  0  0  0  0  0  0  0
  1  2  1  0
  2  3  1  0
  3  4  1  0
  4  5  1  0
  5  6  1  1
  5  7  1  0
  5 10  1  0
  8  7  1  6
  8  9  1  0
  8 22  1  0
  9 10  2  0
  9 14  1  0
 10 11  1  0
 11 12  1  0
 11 13  2  0
 14 15  1  0
 15 16  2  0
 15 22  1  0
 16 17  1  0
 16 18  1  0
 18 19  2  0
 19 20  1  0
 19 21  1  0
 21 22  2  0
M  END
