
     RDKit          3D

 17 19  0  0  0  0  0  0  0  0999 V2000
    1.7930    2.1560    0.7330 C   0  0  0  0  0  0  0  0  0  0  0  0
    2.1320    0.8250    0.2950 N   0  0  0  0  0  0  0  0  0  0  0  0
    3.3920    0.3720    0.2040 N   0  0  0  0  0  0  0  0  0  0  0  0
    3.4160   -0.8920   -0.2260 C   0  0  0  0  0  0  0  0  0  0  0  0
    4.5710   -1.6900   -0.4410 N   0  0  0  0  0  0  0  0  0  0  0  0
    2.1010   -1.2220   -0.4050 C   0  0  0  0  0  0  0  0  0  0  0  0
    1.2840   -0.1210   -0.0700 C   0  0  0  0  0  0  0  0  0  0  0  0
   -0.1710   -0.1500   -0.1530 C   0  0  0  0  0  0  0  0  0  0  0  0
   -0.8000   -1.3190   -0.5830 C   0  0  0  0  0  0  0  0  0  0  0  0
   -2.1710   -1.4380   -0.6920 C   0  0  0  0  0  0  0  0  0  0  0  0
   -2.9610   -3.0680   -1.2860 Br  0  0  0  0  0  0  0  0  0  0  0  0
   -2.9970   -0.3850   -0.3760 C   0  0  0  0  0  0  0  0  0  0  0  0
   -2.4000    0.7750    0.0490 C   0  0  0  0  0  0  0  0  0  0  0  0
   -1.0190    0.8730    0.1520 C   0  0  0  0  0  0  0  0  0  0  0  0
   -3.4360    1.6630    0.2990 O   0  0  0  0  0  0  0  0  0  0  0  0
   -4.6150    0.8800    0.5360 C   0  0  0  0  0  0  0  0  0  0  0  0
   -4.3870   -0.1980   -0.3820 O   0  0  0  0  0  0  0  0  0  0  0  0
  1  2  1  0
  2  3  1  0
  2  7  1  0
  3  4  2  0
  4  5  1  0
  4  6  1  0
  6  7  2  0
  7  8  1  0
  8  9  2  0
  8 14  1  0
  9 10  1  0
 10 11  1  0
 10 12  2  0
 12 13  1  0
 12 17  1  0
 13 14  2  0
 13 15  1  0
 15 16  1  0
 16 17  1  0
M  END
