
     RDKit          3D

 22 23  0  0  0  0  0  0  0  0999 V2000
   -1.1400   -3.8000    1.1240 C   0  0  0  0  0  0  0  0  0  0  0  0
   -2.0730   -3.1130    0.5980 C   0  0  0  0  0  0  0  0  0  0  0  0
   -2.2650   -1.8070    0.0800 C   0  0  0  0  0  0  0  0  0  0  0  0
   -3.5110   -1.5270   -0.3980 C   0  0  0  0  0  0  0  0  0  0  0  0
   -4.5610   -2.5940   -0.3420 C   0  0  0  0  0  0  0  0  0  0  0  0
   -1.2580   -0.7680    0.0220 C   0  0  0  0  0  0  0  0  0  0  0  0
   -0.0170   -0.8850    0.4400 C   0  0  0  0  0  0  0  0  0  0  0  0
    1.0170    0.1680    0.3850 C   0  0  0  0  0  0  0  0  0  0  0  0
    2.3160   -0.1640    0.9330 C   0  0  0  0  0  0  0  0  0  0  0  0
    3.3100    0.5880    0.9910 O   0  0  0  0  0  0  0  0  0  0  0  0
    2.5310   -1.4430    1.4620 O   0  0  0  0  0  0  0  0  0  0  0  0
    3.7850   -1.7710    1.9930 C   0  0  0  0  0  0  0  0  0  0  0  0
    4.8960   -1.6590    0.9810 C   0  0  0  0  0  0  0  0  0  0  0  0
    0.7760    1.3570   -0.1060 C   0  0  0  0  0  0  0  0  0  0  0  0
    1.8160    2.4480   -0.1790 C   0  0  0  0  0  0  0  0  0  0  0  0
    1.4270    3.3340   -1.3820 C   0  0  0  0  0  0  0  0  0  0  0  0
    0.1010    3.9310   -1.0740 C   0  0  0  0  0  0  0  0  0  0  0  0
   -0.9180    2.8440   -1.0760 C   0  0  0  0  0  0  0  0  0  0  0  0
   -2.2810    3.0740   -1.5770 C   0  0  0  0  0  0  0  0  0  0  0  0
   -0.5680    1.6540   -0.6140 C   0  0  0  0  0  0  0  0  0  0  0  0
   -1.5660    0.5560   -0.5330 C   0  0  0  0  0  0  0  0  0  0  0  0
   -2.6790    0.8380   -0.9690 O   0  0  0  0  0  0  0  0  0  0  0  0
  1  2  2  0
  2  3  1  0
  3  4  2  3
  3  6  1  0
  4  5  1  0
  6  7  2  0
  6 21  1  0
  7  8  1  0
  8  9  1  0
  8 14  2  0
  9 10  2  0
  9 11  1  0
 11 12  1  0
 12 13  1  0
 14 15  1  0
 14 20  1  0
 15 16  1  0
 16 17  1  0
 17 18  1  0
 18 19  1  0
 18 20  2  0
 20 21  1  0
 21 22  2  0
M  END
