
     RDKit          3D

 22 22  0  0  0  0  0  0  0  0999 V2000
   -4.3060    0.9570   -1.4980 O   0  0  0  0  0  0  0  0  0  0  0  0
   -3.2170    1.4980   -1.2240 C   0  0  0  0  0  0  0  0  0  0  0  0
   -2.9810    2.7970   -1.7280 O   0  0  0  0  0  0  0  0  0  0  0  0
   -2.1280    0.9300   -0.4200 C   0  0  0  0  0  0  0  0  0  0  0  0
   -2.4240   -0.3820    0.1950 C   0  0  1  0  0  0  0  0  0  0  0  0
   -3.5430   -0.4520    1.1610 C   0  0  0  0  0  0  0  0  0  0  0  0
   -4.7940   -0.1150    0.7180 O   0  0  0  0  0  0  0  0  0  0  0  0
   -2.4730   -1.4540   -0.9130 C   0  0  2  0  0  0  0  0  0  0  0  0
   -3.1030   -2.5870   -0.4460 O   0  0  0  0  0  0  0  0  0  0  0  0
   -0.9760   -1.5720   -0.7070 C   0  0  0  0  0  0  0  0  0  0  0  0
   -1.2250   -1.1600    0.7020 C   0  0  2  0  0  0  0  0  0  0  0  0
   -1.6580   -2.2170    1.4800 O   0  0  0  0  0  0  0  0  0  0  0  0
   -0.1730   -0.3670    1.3950 C   0  0  2  0  0  0  0  0  0  0  0  0
   -0.7510    0.1290    2.5880 O   0  0  0  0  0  0  0  0  0  0  0  0
    0.3390    0.6740    0.6780 O   0  0  0  0  0  0  0  0  0  0  0  0
    1.7240    0.4810    0.5710 C   0  0  0  0  0  0  0  0  0  0  0  0
    2.3960    1.5610   -0.2020 C   0  0  0  0  0  0  0  0  0  0  0  0
    3.7550    1.3080   -0.2660 O   0  0  0  0  0  0  0  0  0  0  0  0
    4.1100    0.1470   -0.8980 C   0  0  2  0  0  0  0  0  0  0  0  0
    4.8640   -0.6950   -0.0460 O   0  0  0  0  0  0  0  0  0  0  0  0
    4.9950    0.3780   -2.1150 C   0  0  0  0  0  0  0  0  0  0  0  0
    6.1770    1.0130   -1.7900 O   0  0  0  0  0  0  0  0  0  0  0  0
  1  2  2  0
  2  3  1  0
  2  4  1  0
  5  4  1  6
  5  6  1  0
  5  8  1  0
  5 11  1  0
  6  7  1  0
  8  9  1  1
  8 10  1  0
 10 11  1  0
 11 12  1  1
 11 13  1  0
 13 14  1  1
 13 15  1  0
 15 16  1  0
 16 17  1  0
 17 18  1  0
 18 19  1  0
 19 20  1  1
 19 21  1  0
 21 22  1  0
M  END
