
     RDKit          3D

  8  8  0  0  0  0  0  0  0  0999 V2000
    2.0150   -0.2000    0.4900 C   0  0  0  0  0  0  0  0  0  0  0  0
    0.6480   -0.2630   -0.1560 C   0  0  1  0  0  0  0  0  0  0  0  0
    0.6880   -1.0040   -1.3410 O   0  0  0  0  0  0  0  0  0  0  0  0
   -0.2870   -0.9090    0.8370 C   0  0  0  0  0  0  0  0  0  0  0  0
   -1.7390   -0.7680    0.4360 C   0  0  0  0  0  0  0  0  0  0  0  0
   -2.1100    0.5060    0.1230 O   0  0  0  0  0  0  0  0  0  0  0  0
   -1.3120    1.1620   -0.7720 C   0  0  0  0  0  0  0  0  0  0  0  0
    0.1610    1.1320   -0.4090 C   0  0  0  0  0  0  0  0  0  0  0  0
  2  1  1  1
  2  3  1  0
  2  4  1  0
  2  8  1  0
  4  5  1  0
  5  6  1  0
  6  7  1  0
  7  8  1  0
M  END
