
     RDKit          3D

 37 39  0  0  0  0  0  0  0  0999 V2000
   -6.6560   -4.3970    0.5440 C   0  0  0  0  0  0  0  0  0  0  0  0
   -6.2840   -2.9650    0.2610 C   0  0  0  0  0  0  0  0  0  0  0  0
   -7.2500   -1.9860    0.1710 C   0  0  0  0  0  0  0  0  0  0  0  0
   -6.8550   -0.6730   -0.0940 C   0  0  0  0  0  0  0  0  0  0  0  0
   -7.8320    0.3280   -0.1880 N   0  0  0  0  0  0  0  0  0  0  0  0
   -7.4570    1.6970   -0.4580 C   0  0  0  0  0  0  0  0  0  0  0  0
   -6.5520    2.2790    0.6050 C   0  0  0  0  0  0  0  0  0  0  0  0
   -6.2020    3.6960    0.2650 C   0  0  0  0  0  0  0  0  0  0  0  0
   -7.4010    4.4280    0.2000 O   0  0  0  0  0  0  0  0  0  0  0  0
   -5.5460   -0.4290   -0.2480 N   0  0  0  0  0  0  0  0  0  0  0  0
   -4.5920   -1.3730   -0.1630 C   0  0  0  0  0  0  0  0  0  0  0  0
   -3.1910   -1.0110   -0.3460 C   0  0  0  0  0  0  0  0  0  0  0  0
   -2.8350    0.2800   -0.6030 C   0  0  0  0  0  0  0  0  0  0  0  0
   -1.5030    0.6570   -0.7830 C   0  0  0  0  0  0  0  0  0  0  0  0
   -0.5060   -0.2910   -0.7010 C   0  0  0  0  0  0  0  0  0  0  0  0
    0.8400    0.0050   -0.8670 O   0  0  0  0  0  0  0  0  0  0  0  0
    1.6740    0.3650    0.1580 C   0  0  0  0  0  0  0  0  0  0  0  0
    1.1650    0.4230    1.3030 O   0  0  0  0  0  0  0  0  0  0  0  0
    3.1380    0.6950   -0.0080 C   0  0  1  0  0  0  0  0  0  0  0  0
    3.4570    1.2330    1.2770 O   0  0  0  0  0  0  0  0  0  0  0  0
    3.9670   -0.5140   -0.1960 C   0  0  0  0  0  0  0  0  0  0  0  0
    3.3790   -1.5580   -0.8980 C   0  0  0  0  0  0  0  0  0  0  0  0
    4.0820   -2.7350   -1.0310 C   0  0  0  0  0  0  0  0  0  0  0  0
    5.3310   -2.8990   -0.4940 C   0  0  0  0  0  0  0  0  0  0  0  0
    5.8820   -1.8340    0.1970 C   0  0  0  0  0  0  0  0  0  0  0  0
    5.2080   -0.6140    0.3580 C   0  0  0  0  0  0  0  0  0  0  0  0
    5.8730    0.4450    1.0320 N   0  0  0  0  0  0  0  0  0  0  0  0
    7.2060    0.2820    1.5460 C   0  0  0  0  0  0  0  0  0  0  0  0
    8.3440    0.3760    0.6130 C   0  0  0  0  0  0  0  0  0  0  0  0
    8.5280    1.7080   -0.0260 C   0  0  0  0  0  0  0  0  0  0  0  0
    7.2250    2.3230   -1.1020 P   0  0  0  0  0  0  0  0  0  0  0  0
    6.1690    3.4150   -0.3430 O   0  0  0  0  0  0  0  0  0  0  0  0
    6.4130    1.1160   -1.9700 O   0  0  0  0  0  0  0  0  0  0  0  0
   -0.8640   -1.6020   -0.4400 C   0  0  0  0  0  0  0  0  0  0  0  0
   -2.1970   -1.9630   -0.2630 C   0  0  0  0  0  0  0  0  0  0  0  0
   -2.6620   -3.7770    0.0950 Br  0  0  0  0  0  0  0  0  0  0  0  0
   -4.9940   -2.6220    0.0910 N   0  0  0  0  0  0  0  0  0  0  0  0
  1  2  1  0
  2  3  2  0
  2 37  1  0
  3  4  1  0
  4  5  1  0
  4 10  2  0
  5  6  1  0
  6  7  1  0
  7  8  1  0
  8  9  1  0
 10 11  1  0
 11 12  1  0
 11 37  2  0
 12 13  2  0
 12 35  1  0
 13 14  1  0
 14 15  2  0
 15 16  1  0
 15 34  1  0
 16 17  1  0
 17 18  2  0
 17 19  1  0
 19 20  1  1
 19 21  1  0
 21 22  2  0
 21 26  1  0
 22 23  1  0
 23 24  2  0
 24 25  1  0
 25 26  2  0
 26 27  1  0
 27 28  1  0
 28 29  1  0
 29 30  1  0
 30 31  1  0
 31 32  1  0
 31 33  1  0
 34 35  2  0
 35 36  1  0
M  END
