
     RDKit          3D

 37 40  0  0  0  0  0  0  0  0999 V2000
   -6.5460   -0.7110   -1.9310 C   0  0  0  0  0  0  0  0  0  0  0  0
   -5.3280   -0.0180   -1.7540 O   0  0  0  0  0  0  0  0  0  0  0  0
   -4.1220   -0.4360   -2.2530 C   0  0  0  0  0  0  0  0  0  0  0  0
   -4.1180   -1.5060   -2.9050 O   0  0  0  0  0  0  0  0  0  0  0  0
   -2.8690    0.2490   -2.0980 C   0  0  0  0  0  0  0  0  0  0  0  0
   -1.7280   -0.1970   -2.6690 C   0  0  0  0  0  0  0  0  0  0  0  0
   -0.5310    0.5740   -2.4500 N   0  0  0  0  0  0  0  0  0  0  0  0
    0.7450   -0.0640   -2.4650 C   0  0  0  0  0  0  0  0  0  0  0  0
    1.8410    0.5610   -2.0680 C   0  0  0  0  0  0  0  0  0  0  0  0
    3.1530   -0.0760   -2.0780 C   0  0  0  0  0  0  0  0  0  0  0  0
    3.3580   -1.3760   -2.4990 C   0  0  0  0  0  0  0  0  0  0  0  0
    4.7030   -1.6280   -2.3700 C   0  0  0  0  0  0  0  0  0  0  0  0
    5.2490   -0.4710   -1.8770 C   0  0  0  0  0  0  0  0  0  0  0  0
    6.6960   -0.2710   -1.5730 C   0  0  0  0  0  0  0  0  0  0  0  0
    7.0050    0.9420   -1.0710 O   0  0  0  0  0  0  0  0  0  0  0  0
    6.4510    1.4450    0.0350 C   0  0  0  0  0  0  0  0  0  0  0  0
    6.6530    0.6300    1.2640 C   0  0  0  0  0  0  0  0  0  0  0  0
    5.8670   -1.0260    1.1300 P   0  0  0  0  0  0  0  0  0  0  0  0
    7.0300   -2.2550    1.4750 O   0  0  0  0  0  0  0  0  0  0  0  0
    4.4950   -1.1560    2.1870 O   0  0  0  0  0  0  0  0  0  0  0  0
    4.9690   -1.0630    3.5010 C   0  0  0  0  0  0  0  0  0  0  0  0
    4.2980    0.4060   -1.7240 O   0  0  0  0  0  0  0  0  0  0  0  0
    1.7370    1.9130   -1.6060 N   0  0  0  0  0  0  0  0  0  0  0  0
    0.4340    2.3010   -1.1070 C   0  0  2  0  0  0  0  0  0  0  0  0
    0.0750    1.2290    0.4610 Br  0  0  0  0  0  0  0  0  0  0  0  0
   -0.5600    1.9910   -2.2300 C   0  0  2  0  0  0  0  0  0  0  0  0
   -1.9270    2.5460   -1.8800 C   0  0  0  0  0  0  0  0  0  0  0  0
   -2.7700    1.4470   -1.2780 C   0  0  0  0  0  0  0  0  0  0  0  0
   -3.2680    1.5300   -0.0810 C   0  0  0  0  0  0  0  0  0  0  0  0
   -3.9740    0.5780    0.7130 C   0  0  0  0  0  0  0  0  0  0  0  0
   -4.4300    0.8710    1.9000 N   0  0  0  0  0  0  0  0  0  0  0  0
   -5.1300   -0.0470    2.7070 C   0  0  0  0  0  0  0  0  0  0  0  0
   -4.5800   -0.7790    3.6450 C   0  0  0  0  0  0  0  0  0  0  0  0
   -5.3240   -1.7120    4.4570 C   0  0  0  0  0  0  0  0  0  0  0  0
   -6.6200   -1.8660    4.2800 C   0  0  0  0  0  0  0  0  0  0  0  0
   -7.3660   -1.1030    3.2570 C   0  0  0  0  0  0  0  0  0  0  0  0
   -6.5290   -0.2020    2.5040 N   0  0  0  0  0  0  0  0  0  0  0  0
  1  2  1  0
  2  3  1  0
  3  4  2  0
  3  5  1  0
  5  6  2  0
  5 28  1  0
  6  7  1  0
  7  8  1  0
  7 26  1  0
  8  9  2  0
  9 10  1  0
  9 23  1  0
 10 11  2  0
 10 22  1  0
 11 12  1  0
 12 13  2  0
 13 14  1  0
 13 22  1  0
 14 15  1  0
 15 16  1  0
 16 17  1  0
 17 18  1  0
 18 19  1  0
 18 20  1  0
 20 21  1  0
 23 24  1  0
 24 25  1  1
 24 26  1  0
 26 27  1  1
 27 28  1  0
 28 29  2  3
 29 30  1  0
 30 31  2  3
 31 32  1  0
 32 33  2  0
 32 37  1  0
 33 34  1  0
 34 35  2  0
 35 36  1  0
 36 37  1  0
M  END
