
     RDKit          3D

 37 40  0  0  0  0  0  0  0  0999 V2000
  -10.2950    1.6780   -0.4180 C   0  0  0  0  0  0  0  0  0  0  0  0
   -9.5160    2.7100   -1.0690 N   0  0  0  0  0  0  0  0  0  0  0  0
   -8.5480    2.3680   -2.0510 C   0  0  0  0  0  0  0  0  0  0  0  0
   -7.4530    1.7110   -1.7270 C   0  0  0  0  0  0  0  0  0  0  0  0
   -7.2340    1.3320   -0.3530 C   0  0  0  0  0  0  0  0  0  0  0  0
   -6.1510    0.6790   -0.0160 C   0  0  0  0  0  0  0  0  0  0  0  0
   -5.2180    0.3530   -0.9760 O   0  0  0  0  0  0  0  0  0  0  0  0
   -3.9340   -0.1550   -0.6540 C   0  0  0  0  0  0  0  0  0  0  0  0
   -3.9390   -0.9860    0.5860 C   0  0  1  0  0  0  0  0  0  0  0  0
   -2.7120   -0.8030    1.4590 C   0  0  2  0  0  0  0  0  0  0  0  0
   -1.7760   -1.8530    1.2430 N   0  0  0  0  0  0  0  0  0  0  0  0
   -0.4060   -1.5730    1.0090 C   0  0  0  0  0  0  0  0  0  0  0  0
   -0.0740   -0.3600    1.0040 O   0  0  0  0  0  0  0  0  0  0  0  0
    0.5880   -2.6370    0.7820 C   0  0  0  0  0  0  0  0  0  0  0  0
    0.2500   -3.9470    0.7540 C   0  0  0  0  0  0  0  0  0  0  0  0
    1.2300   -4.8900    0.5380 C   0  0  0  0  0  0  0  0  0  0  0  0
    2.5300   -4.5270    0.3510 C   0  0  0  0  0  0  0  0  0  0  0  0
    3.9290   -5.7950    0.0470 Br  0  0  0  0  0  0  0  0  0  0  0  0
    2.8910   -3.1730    0.3760 C   0  0  0  0  0  0  0  0  0  0  0  0
    4.2340   -2.7810    0.2260 N   0  0  0  0  0  0  0  0  0  0  0  0
    4.6190   -1.4500    0.0310 C   0  0  0  0  0  0  0  0  0  0  0  0
    3.9340   -0.6060   -0.8250 C   0  0  0  0  0  0  0  0  0  0  0  0
    4.3080    0.7150   -0.9900 C   0  0  0  0  0  0  0  0  0  0  0  0
    5.3750    1.2400   -0.3100 C   0  0  0  0  0  0  0  0  0  0  0  0
    5.8560    3.0060   -0.5460 P   0  0  0  0  0  0  0  0  0  0  0  0
    5.7880    3.3470   -2.2460 O   0  0  0  0  0  0  0  0  0  0  0  0
    7.4910    3.2300   -0.0230 O   0  0  0  0  0  0  0  0  0  0  0  0
    8.3740    2.5500   -0.8910 C   0  0  0  0  0  0  0  0  0  0  0  0
    9.8060    2.7370   -0.4450 C   0  0  0  0  0  0  0  0  0  0  0  0
   10.1240    4.0880   -0.4510 O   0  0  0  0  0  0  0  0  0  0  0  0
    6.0640    0.4140    0.5410 C   0  0  0  0  0  0  0  0  0  0  0  0
    5.7070   -0.8980    0.7170 C   0  0  0  0  0  0  0  0  0  0  0  0
    1.9060   -2.2520    0.5930 C   0  0  0  0  0  0  0  0  0  0  0  0
   -3.6970   -0.9750    2.5800 C   0  0  0  0  0  0  0  0  0  0  0  0
   -4.7120   -0.4230    1.6740 N   0  0  0  0  0  0  0  0  0  0  0  0
   -5.9000    0.2830    1.3580 C   0  0  0  0  0  0  0  0  0  0  0  0
   -6.7100    0.5460    2.2960 O   0  0  0  0  0  0  0  0  0  0  0  0
  1  2  1  0
  2  3  1  0
  3  4  2  3
  4  5  1  0
  5  6  2  3
  6  7  1  0
  6 36  1  0
  7  8  1  0
  9  8  1  6
  9 10  1  0
  9 35  1  0
 10 11  1  6
 10 34  1  0
 11 12  1  0
 12 13  2  0
 12 14  1  0
 14 15  2  0
 14 33  1  0
 15 16  1  0
 16 17  2  0
 17 18  1  0
 17 19  1  0
 19 20  1  0
 19 33  2  0
 20 21  1  0
 21 22  2  0
 21 32  1  0
 22 23  1  0
 23 24  2  0
 24 25  1  0
 24 31  1  0
 25 26  1  0
 25 27  1  0
 27 28  1  0
 28 29  1  0
 29 30  1  0
 31 32  2  0
 34 35  1  0
 35 36  1  0
 36 37  2  0
M  END
