
     RDKit          3D

 35 37  0  0  0  0  0  0  0  0999 V2000
   -3.7370   -2.6660    2.5950 C   0  0  0  0  0  0  0  0  0  0  0  0
   -3.9780   -2.3970    1.2060 C   0  0  0  0  0  0  0  0  0  0  0  0
   -4.4670   -1.4260    0.5270 C   0  0  0  0  0  0  0  0  0  0  0  0
   -4.4870   -1.6970   -0.9980 C   0  0  0  0  0  0  0  0  0  0  0  0
   -4.9290   -0.1470    0.9110 C   0  0  0  0  0  0  0  0  0  0  0  0
   -5.4600    0.8720    0.3120 C   0  0  0  0  0  0  0  0  0  0  0  0
   -5.8960    1.3780   -0.9390 C   0  0  0  0  0  0  0  0  0  0  0  0
   -6.4260    2.6370   -1.0330 C   0  0  0  0  0  0  0  0  0  0  0  0
   -6.8080    2.9570   -2.3990 C   0  0  0  0  0  0  0  0  0  0  0  0
   -6.4700    1.7700   -3.1550 C   0  0  0  0  0  0  0  0  0  0  0  0
   -5.9480    0.8840   -2.2840 C   0  0  0  0  0  0  0  0  0  0  0  0
   -4.7170    0.1310    2.4440 C   0  0  0  0  0  0  0  0  0  0  0  0
   -3.3640    0.0230    2.6880 O   0  0  0  0  0  0  0  0  0  0  0  0
   -2.4470    0.8390    2.0450 C   0  0  0  0  0  0  0  0  0  0  0  0
   -2.9020    1.6840    1.2250 O   0  0  0  0  0  0  0  0  0  0  0  0
   -1.0010    0.7650    2.2710 C   0  0  2  0  0  0  0  0  0  0  0  0
   -0.7210    1.0190    3.7570 C   0  0  0  0  0  0  0  0  0  0  0  0
   -0.3360    1.7030    1.4790 O   0  0  0  0  0  0  0  0  0  0  0  0
    0.6420    1.2460    0.5850 C   0  0  0  0  0  0  0  0  0  0  0  0
    0.8780    0.0330    0.5310 O   0  0  0  0  0  0  0  0  0  0  0  0
    1.3650    2.2140   -0.2680 C   0  0  0  0  0  0  0  0  0  0  0  0
    2.3080    1.4970   -1.0800 N   0  0  0  0  0  0  0  0  0  0  0  0
    3.3480    0.7190   -0.5080 C   0  0  0  0  0  0  0  0  0  0  0  0
    3.4320    0.6630    0.7460 O   0  0  0  0  0  0  0  0  0  0  0  0
    4.2960    0.0040   -1.2820 N   0  0  0  0  0  0  0  0  0  0  0  0
    5.3300   -0.7650   -0.5930 C   0  0  1  0  0  0  0  0  0  0  0  0
    5.3760   -2.1460   -1.1850 C   0  0  0  0  0  0  0  0  0  0  0  0
    6.6590   -2.8680   -0.9840 C   0  0  0  0  0  0  0  0  0  0  0  0
    7.6790   -2.0920   -0.1900 C   0  0  0  0  0  0  0  0  0  0  0  0
    7.8450   -0.7210   -0.8500 C   0  0  0  0  0  0  0  0  0  0  0  0
    8.9350   -0.1340   -1.2270 N   0  0  0  0  0  0  0  0  0  0  0  0
    8.8200    1.1140   -1.8010 C   0  0  0  0  0  0  0  0  0  0  0  0
    9.7440    1.9090   -2.2610 O   0  0  0  0  0  0  0  0  0  0  0  0
    7.0490    1.3860   -1.7620 S   0  0  0  0  0  0  0  0  0  0  0  0
    6.6400   -0.1040   -1.0250 C   0  0  0  0  0  0  0  0  0  0  0  0
  1  2  1  0
  2  3  2  3
  3  4  1  0
  3  5  1  0
  5  6  2  3
  5 12  1  0
  6  7  1  0
  7  8  2  0
  7 11  1  0
  8  9  1  0
  9 10  1  0
 10 11  2  0
 12 13  1  0
 13 14  1  0
 14 15  2  0
 14 16  1  0
 16 17  1  1
 16 18  1  0
 18 19  1  0
 19 20  2  0
 19 21  1  0
 21 22  1  0
 22 23  1  0
 23 24  2  0
 23 25  1  0
 26 25  1  6
 26 27  1  0
 26 35  1  0
 27 28  1  0
 28 29  1  0
 29 30  1  0
 30 31  1  0
 30 35  2  0
 31 32  1  0
 32 33  2  0
 32 34  1  0
 34 35  1  0
M  END
