
     RDKit          3D

 35 37  0  0  0  0  0  0  0  0999 V2000
   -6.1710   -3.2030    2.0520 C   0  0  0  0  0  0  0  0  0  0  0  0
   -6.4120   -2.1190    1.1510 O   0  0  0  0  0  0  0  0  0  0  0  0
   -5.6780   -0.9480    1.1880 C   0  0  0  0  0  0  0  0  0  0  0  0
   -4.7740   -0.8290    2.0370 O   0  0  0  0  0  0  0  0  0  0  0  0
   -5.9430    0.1610    0.2460 C   0  0  0  0  0  0  0  0  0  0  0  0
   -6.8980    0.0390   -0.6520 C   0  0  0  0  0  0  0  0  0  0  0  0
   -7.7280   -1.2190   -0.7310 C   0  0  0  0  0  0  0  0  0  0  0  0
   -7.1550    1.1000   -1.5620 N   0  0  0  0  0  0  0  0  0  0  0  0
   -6.3790    2.2730   -1.4890 C   0  0  0  0  0  0  0  0  0  0  0  0
   -6.7930    3.3350   -1.9840 O   0  0  0  0  0  0  0  0  0  0  0  0
   -5.0670    2.2320   -0.8210 C   0  0  1  0  0  0  0  0  0  0  0  0
   -4.7680    3.6520   -0.3320 C   0  0  0  0  0  0  0  0  0  0  0  0
   -5.0810    1.3610    0.3980 C   0  0  2  0  0  0  0  0  0  0  0  0
   -3.7330    0.9390    0.8200 C   0  0  0  0  0  0  0  0  0  0  0  0
   -3.2750    1.3540    1.9070 O   0  0  0  0  0  0  0  0  0  0  0  0
   -2.9710    0.0710   -0.0040 N   0  0  0  0  0  0  0  0  0  0  0  0
   -1.6070   -0.3680    0.4040 C   0  0  1  0  0  0  0  0  0  0  0  0
   -1.6760   -1.8910    0.5330 C   0  0  0  0  0  0  0  0  0  0  0  0
   -0.5240   -2.5000    0.9110 O   0  0  0  0  0  0  0  0  0  0  0  0
   -0.6260    0.0340   -0.6370 C   0  0  0  0  0  0  0  0  0  0  0  0
    0.7870   -0.2890   -0.3610 C   0  0  0  0  0  0  0  0  0  0  0  0
    1.2250   -0.7310    0.7320 O   0  0  0  0  0  0  0  0  0  0  0  0
    1.7730   -0.1030   -1.3840 N   0  0  0  0  0  0  0  0  0  0  0  0
    3.1660   -0.3870   -1.2090 C   0  0  0  0  0  0  0  0  0  0  0  0
    3.7310    0.4690   -0.1170 C   0  0  0  0  0  0  0  0  0  0  0  0
    5.1800    0.2080    0.1020 C   0  0  0  0  0  0  0  0  0  0  0  0
    5.8060   -0.6860    0.9360 C   0  0  0  0  0  0  0  0  0  0  0  0
    7.1450   -0.7260    0.9450 C   0  0  0  0  0  0  0  0  0  0  0  0
    7.8320    0.1050    0.1440 C   0  0  0  0  0  0  0  0  0  0  0  0
    9.2620    0.2850   -0.0600 C   0  0  0  0  0  0  0  0  0  0  0  0
   10.2170   -0.3810    0.5470 C   0  0  0  0  0  0  0  0  0  0  0  0
   11.5220    0.1130    0.0500 C   0  0  0  0  0  0  0  0  0  0  0  0
   11.1760    1.1690   -0.9390 C   0  0  0  0  0  0  0  0  0  0  0  0
    9.8660    1.2400   -0.9750 C   0  0  0  0  0  0  0  0  0  0  0  0
    6.5530    1.0250   -0.7000 S   0  0  0  0  0  0  0  0  0  0  0  0
  1  2  1  0
  2  3  1  0
  3  4  2  0
  3  5  1  0
  5  6  2  0
  5 13  1  0
  6  7  1  0
  6  8  1  0
  8  9  1  0
  9 10  2  0
  9 11  1  0
 11 12  1  1
 11 13  1  0
 13 14  1  6
 14 15  2  0
 14 16  1  0
 16 17  1  0
 17 18  1  6
 17 20  1  0
 18 19  1  0
 20 21  1  0
 21 22  2  0
 21 23  1  0
 23 24  1  0
 24 25  1  0
 25 26  1  0
 26 27  2  0
 26 35  1  0
 27 28  1  0
 28 29  2  0
 29 30  1  0
 29 35  1  0
 30 31  2  0
 30 34  1  0
 31 32  1  0
 32 33  1  0
 33 34  2  0
M  END
