
     RDKit          3D

 36 39  0  0  0  0  0  0  0  0999 V2000
  -10.1390    1.3300   -0.6090 C   0  0  0  0  0  0  0  0  0  0  0  0
   -9.2140    0.4010   -1.3830 C   0  0  0  0  0  0  0  0  0  0  0  0
   -8.0020    0.1850   -0.6270 N   0  0  0  0  0  0  0  0  0  0  0  0
   -7.8230   -0.7960    0.2520 N   0  0  0  0  0  0  0  0  0  0  0  0
   -6.5630   -0.7090    0.7720 C   0  0  0  0  0  0  0  0  0  0  0  0
   -5.9920   -1.6310    1.7980 C   0  0  0  0  0  0  0  0  0  0  0  0
   -5.9630    0.3690    0.1810 C   0  0  0  0  0  0  0  0  0  0  0  0
   -4.6330    0.8510    0.3760 N   0  0  0  0  0  0  0  0  0  0  0  0
   -3.6400    0.6270   -0.5760 N   0  0  0  0  0  0  0  0  0  0  0  0
   -2.6600   -0.3720   -0.4070 C   0  0  0  0  0  0  0  0  0  0  0  0
   -1.3570   -0.0210   -0.1670 C   0  0  0  0  0  0  0  0  0  0  0  0
   -0.3310   -0.9390   -0.0080 C   0  0  0  0  0  0  0  0  0  0  0  0
    0.9770   -0.5570    0.2490 N   0  0  0  0  0  0  0  0  0  0  0  0
    2.1730   -1.2600    0.0490 C   0  0  0  0  0  0  0  0  0  0  0  0
    2.0700   -2.4190   -0.4510 O   0  0  0  0  0  0  0  0  0  0  0  0
    3.5410   -0.7160    0.3860 C   0  0  1  0  0  0  0  0  0  0  0  0
    3.6920   -0.6980    1.9050 C   0  0  0  0  0  0  0  0  0  0  0  0
    4.5240   -1.6590   -0.1220 N   0  0  0  0  0  0  0  0  0  0  0  0
    5.5420   -0.9070   -1.2970 S   0  0  1  0  0  0  0  0  0  0  0  0
    5.4690   -1.7680   -2.5330 O   0  0  0  0  0  0  0  0  0  0  0  0
    4.9580    0.4220   -1.6610 O   0  0  0  0  0  0  0  0  0  0  0  0
    7.1390   -0.7090   -0.7750 N   0  0  0  0  0  0  0  0  0  0  0  0
    7.3370   -0.0150    0.4550 C   0  0  1  0  0  0  0  0  0  0  0  0
    8.2500   -0.7300    1.3630 C   0  0  0  0  0  0  0  0  0  0  0  0
    8.0330   -1.8430    1.9240 O   0  0  0  0  0  0  0  0  0  0  0  0
    9.4250    0.0310    1.5130 N   0  0  0  0  0  0  0  0  0  0  0  0
    9.3020    1.2930    0.7570 C   0  0  0  0  0  0  0  0  0  0  0  0
   10.0850    2.3680    0.5900 C   0  0  0  0  0  0  0  0  0  0  0  0
    9.5850    3.4400   -0.1970 C   0  0  0  0  0  0  0  0  0  0  0  0
    7.9750    2.7940   -0.6520 S   0  0  0  0  0  0  0  0  0  0  0  0
    8.0720    1.2480    0.1810 C   0  0  0  0  0  0  0  0  0  0  0  0
   -0.6940   -2.2640   -0.1050 C   0  0  0  0  0  0  0  0  0  0  0  0
   -2.0290   -2.6310   -0.3510 C   0  0  0  0  0  0  0  0  0  0  0  0
   -2.9730   -1.6930   -0.4950 N   0  0  0  0  0  0  0  0  0  0  0  0
   -6.8850    0.9200   -0.6970 C   0  0  0  0  0  0  0  0  0  0  0  0
   -6.6100    2.1150   -1.5440 C   0  0  0  0  0  0  0  0  0  0  0  0
  1  2  1  0
  2  3  1  0
  3  4  1  0
  3 35  1  0
  4  5  2  0
  5  6  1  0
  5  7  1  0
  7  8  1  0
  7 35  2  0
  8  9  1  0
  9 10  1  0
 10 11  2  0
 10 34  1  0
 11 12  1  0
 12 13  1  0
 12 32  2  0
 13 14  1  0
 14 15  2  0
 14 16  1  0
 16 17  1  1
 16 18  1  0
 19 18  1  1
 19 20  2  0
 19 21  2  0
 19 22  1  0
 23 22  1  6
 23 24  1  0
 23 31  1  0
 24 25  2  0
 24 26  1  0
 26 27  1  0
 27 28  1  0
 27 31  2  0
 28 29  2  0
 29 30  1  0
 30 31  1  0
 32 33  1  0
 33 34  2  0
 35 36  1  0
M  END
