
     RDKit          3D

 36 39  0  0  0  0  0  0  0  0999 V2000
   -8.3070    0.6000   -0.0750 C   0  0  0  0  0  0  0  0  0  0  0  0
   -8.1600   -0.8250    0.1910 C   0  0  2  0  0  0  0  0  0  0  0  0
   -8.1190   -1.3340    1.5490 C   0  0  0  0  0  0  0  0  0  0  0  0
   -6.9030   -1.5140    0.6890 C   0  0  2  0  0  0  0  0  0  0  0  0
   -5.7250   -0.7870    0.9340 N   0  0  0  0  0  0  0  0  0  0  0  0
   -5.1120    0.1240    0.0950 C   0  0  0  0  0  0  0  0  0  0  0  0
   -5.7230    0.3360   -1.0920 O   0  0  0  0  0  0  0  0  0  0  0  0
   -3.9250    0.9600    0.2850 C   0  0  1  0  0  0  0  0  0  0  0  0
   -4.3480    2.3370    0.5660 N   0  0  0  0  0  0  0  0  0  0  0  0
   -4.7480    2.5380    1.9730 C   0  0  0  0  0  0  0  0  0  0  0  0
   -5.5980    3.3630    2.3400 O   0  0  0  0  0  0  0  0  0  0  0  0
   -4.1080    1.7190    2.9290 N   0  0  0  0  0  0  0  0  0  0  0  0
   -3.1540    0.7530    2.5030 C   0  0  0  0  0  0  0  0  0  0  0  0
   -1.8320   -0.1580    3.3810 S   0  0  0  0  0  0  0  0  0  0  0  0
   -0.9750   -0.7180    1.8290 C   0  0  0  0  0  0  0  0  0  0  0  0
    0.1720   -1.4920    1.7740 C   0  0  0  0  0  0  0  0  0  0  0  0
    0.8090   -1.9370    2.6520 O   0  0  0  0  0  0  0  0  0  0  0  0
    0.6640   -1.7700    0.3780 N   0  0  0  0  0  0  0  0  0  0  0  0
   -0.1140   -1.1800   -0.4560 C   0  0  0  0  0  0  0  0  0  0  0  0
    0.6570   -1.1830   -2.2040 S   0  0  0  0  0  0  0  0  0  0  0  0
    2.0960   -0.0560   -2.1380 C   0  0  0  0  0  0  0  0  0  0  0  0
    3.3550   -0.5160   -2.5270 C   0  0  0  0  0  0  0  0  0  0  0  0
    3.3390   -0.8640   -3.8500 O   0  0  0  0  0  0  0  0  0  0  0  0
    4.6090   -0.6940   -2.0170 N   0  0  0  0  0  0  0  0  0  0  0  0
    5.6510   -1.0650   -3.0690 C   0  0  0  0  0  0  0  0  0  0  0  0
    6.1570    0.4000   -3.4690 C   0  0  0  0  0  0  0  0  0  0  0  0
    5.2260    1.1660   -3.6650 C   0  0  0  0  0  0  0  0  0  0  0  0
    4.1010    2.0830   -3.8770 N   0  0  0  0  0  0  0  0  0  0  0  0
    5.0940   -0.6640   -0.6720 C   0  0  0  0  0  0  0  0  0  0  0  0
    5.4780    0.6380   -0.1040 C   0  0  0  0  0  0  0  0  0  0  0  0
    6.1290    0.4850    1.3160 C   0  0  0  0  0  0  0  0  0  0  0  0
    7.3620   -0.2160    1.0650 N   0  0  0  0  0  0  0  0  0  0  0  0
    8.1430   -0.3800    2.2690 N   0  0  0  0  0  0  0  0  0  0  0  0
   -1.1830   -0.4740   -0.4290 N   0  0  0  0  0  0  0  0  0  0  0  0
   -1.7420   -0.1820    0.8830 C   0  0  0  0  0  0  0  0  0  0  0  0
   -2.8320    0.5370    1.2020 C   0  0  0  0  0  0  0  0  0  0  0  0
  2  1  1  1
  2  3  1  0
  2  4  1  0
  3  4  1  0
  4  5  1  1
  5  6  1  0
  6  7  2  0
  8  6  1  1
  8  9  1  0
  8 36  1  0
  9 10  1  0
 10 11  2  0
 10 12  1  0
 12 13  1  0
 13 14  1  0
 13 36  2  0
 14 15  1  0
 15 16  1  0
 15 35  2  0
 16 17  2  0
 16 18  1  0
 18 19  1  0
 19 20  1  0
 19 34  2  0
 20 21  1  0
 21 22  1  0
 22 23  2  0
 22 24  1  0
 24 25  1  0
 24 29  1  0
 25 26  1  0
 26 27  1  0
 27 28  3  0
 29 30  1  0
 30 31  1  0
 31 32  1  0
 32 33  1  0
 34 35  1  0
 35 36  1  0
M  END
