
     RDKit          3D

 36 39  0  0  0  0  0  0  0  0999 V2000
   10.1570    1.1610   -0.4020 C   0  0  0  0  0  0  0  0  0  0  0  0
    8.8910    1.9530   -0.4500 C   0  0  0  0  0  0  0  0  0  0  0  0
    7.7090    1.0800   -0.0060 C   0  0  2  0  0  0  0  0  0  0  0  0
    8.0530    0.6440    1.4040 C   0  0  0  0  0  0  0  0  0  0  0  0
    7.0480   -0.1620    1.8930 O   0  0  0  0  0  0  0  0  0  0  0  0
    7.5700   -0.0120   -0.9760 C   0  0  0  0  0  0  0  0  0  0  0  0
    8.5720   -0.4590   -1.8050 N   0  0  0  0  0  0  0  0  0  0  0  0
    8.0940   -1.4750   -2.4950 N   0  0  0  0  0  0  0  0  0  0  0  0
    6.8420   -1.6880   -2.1420 N   0  0  0  0  0  0  0  0  0  0  0  0
    6.4810   -0.7860   -1.1920 C   0  0  0  0  0  0  0  0  0  0  0  0
    5.1780   -0.6050   -0.5380 C   0  0  0  0  0  0  0  0  0  0  0  0
    4.5510    0.0170    0.2580 N   0  0  0  0  0  0  0  0  0  0  0  0
    3.3120   -0.1280    0.5750 N   0  0  0  0  0  0  0  0  0  0  0  0
    2.6010   -0.9730    0.0610 C   0  0  0  0  0  0  0  0  0  0  0  0
    1.2570   -1.4610    0.1040 N   0  0  0  0  0  0  0  0  0  0  0  0
    0.2980   -0.9180    0.9900 C   0  0  0  0  0  0  0  0  0  0  0  0
    0.7540    0.0160    1.7410 O   0  0  0  0  0  0  0  0  0  0  0  0
   -1.0410   -1.3280    1.0760 N   0  0  0  0  0  0  0  0  0  0  0  0
   -1.5750   -2.3630    0.2330 C   0  0  0  0  0  0  0  0  0  0  0  0
   -2.5860   -1.6410   -0.6620 C   0  0  0  0  0  0  0  0  0  0  0  0
   -3.5920   -1.0560    0.1480 N   0  0  0  0  0  0  0  0  0  0  0  0
   -4.6790   -0.5640   -0.6300 C   0  0  2  0  0  0  0  0  0  0  0  0
   -4.2390    0.5540   -1.5600 C   0  0  0  0  0  0  0  0  0  0  0  0
   -5.7900   -0.0430    0.2250 C   0  0  1  0  0  0  0  0  0  0  0  0
   -5.3370    1.0420    0.9570 O   0  0  0  0  0  0  0  0  0  0  0  0
   -6.9700    0.3500   -0.5910 C   0  0  0  0  0  0  0  0  0  0  0  0
   -7.0330    0.2890   -2.3550 S   0  0  0  0  0  0  0  0  0  0  0  0
   -8.7510    0.9120   -2.5300 C   0  0  0  0  0  0  0  0  0  0  0  0
   -9.0750    1.0940   -1.2150 C   0  0  0  0  0  0  0  0  0  0  0  0
   -8.2020    0.8200   -0.2470 C   0  0  0  0  0  0  0  0  0  0  0  0
   -8.5110    1.0020    1.2010 C   0  0  0  0  0  0  0  0  0  0  0  0
   -9.7680    1.5340    1.5910 N   0  0  0  0  0  0  0  0  0  0  0  0
   -7.6850    0.6970    2.0950 O   0  0  0  0  0  0  0  0  0  0  0  0
   -3.2080   -0.3060    1.2680 C   0  0  0  0  0  0  0  0  0  0  0  0
   -1.9620   -0.7280    2.0060 C   0  0  0  0  0  0  0  0  0  0  0  0
    3.8300   -1.7660   -1.1090 S   0  0  0  0  0  0  0  0  0  0  0  0
  1  2  1  0
  3  2  1  6
  3  4  1  0
  3  6  1  0
  4  5  1  0
  6  7  1  0
  6 10  2  0
  7  8  2  0
  8  9  1  0
  9 10  1  0
 10 11  1  0
 11 12  2  0
 11 36  1  0
 12 13  1  0
 13 14  2  0
 14 15  1  0
 14 36  1  0
 15 16  1  0
 16 17  2  0
 16 18  1  0
 18 19  1  0
 18 35  1  0
 19 20  1  0
 20 21  1  0
 21 22  1  0
 21 34  1  0
 22 23  1  6
 22 24  1  0
 24 25  1  6
 24 26  1  0
 26 27  1  0
 26 30  2  0
 27 28  1  0
 28 29  2  0
 29 30  1  0
 30 31  1  0
 31 32  1  0
 31 33  2  0
 34 35  1  0
M  END
