
     RDKit          3D

 16 17  0  0  0  0  0  0  0  0999 V2000
    3.8990   -0.3040   -0.8060 C   0  0  0  0  0  0  0  0  0  0  0  0
    3.1870    0.3190    0.3810 C   0  0  2  0  0  0  0  0  0  0  0  0
    3.8330   -0.0500    1.6770 C   0  0  0  0  0  0  0  0  0  0  0  0
    1.7910   -0.0540    0.3060 N   0  0  0  0  0  0  0  0  0  0  0  0
    0.7570    0.8890    0.1080 C   0  0  0  0  0  0  0  0  0  0  0  0
    1.0610    2.0980   -0.0080 O   0  0  0  0  0  0  0  0  0  0  0  0
   -0.6420    0.5020    0.0350 C   0  0  0  0  0  0  0  0  0  0  0  0
   -1.7390    1.3140   -0.1530 C   0  0  0  0  0  0  0  0  0  0  0  0
   -2.9020    0.5730   -0.1650 C   0  0  0  0  0  0  0  0  0  0  0  0
   -4.2470    0.8290   -0.3090 C   0  0  0  0  0  0  0  0  0  0  0  0
   -5.2120   -0.1550   -0.2750 C   0  0  0  0  0  0  0  0  0  0  0  0
   -6.9190    0.2110   -0.4630 Cl  0  0  0  0  0  0  0  0  0  0  0  0
   -4.7660   -1.4210   -0.0890 N   0  0  0  0  0  0  0  0  0  0  0  0
   -3.4580   -1.7130    0.0560 C   0  0  0  0  0  0  0  0  0  0  0  0
   -2.4780   -0.7420    0.0250 C   0  0  0  0  0  0  0  0  0  0  0  0
   -1.1390   -0.7550    0.1400 N   0  0  0  0  0  0  0  0  0  0  0  0
  2  1  1  6
  2  3  1  0
  2  4  1  0
  4  5  1  0
  5  6  2  0
  5  7  1  0
  7  8  2  0
  7 16  1  0
  8  9  1  0
  9 10  2  0
  9 15  1  0
 10 11  1  0
 11 12  1  0
 11 13  2  0
 13 14  1  0
 14 15  2  0
 15 16  1  0
M  END
