
     RDKit          3D

 24 26  0  0  0  0  0  0  0  0999 V2000
   -3.4230   -0.1320    3.3540 C   0  0  0  0  0  0  0  0  0  0  0  0
   -3.7040    0.1820    2.0800 O   0  0  0  0  0  0  0  0  0  0  0  0
   -3.5710    1.3950    1.5490 C   0  0  2  0  0  0  0  0  0  0  0  0
   -2.2490    2.1030    1.4440 C   0  0  0  0  0  0  0  0  0  0  0  0
   -1.6430    2.3790    2.7330 C   0  0  0  0  0  0  0  0  0  0  0  0
   -0.5310    2.0120    3.2900 C   0  0  0  0  0  0  0  0  0  0  0  0
    0.4970    1.1720    2.7660 C   0  0  0  0  0  0  0  0  0  0  0  0
    1.5390    1.0780    3.5980 O   0  0  0  0  0  0  0  0  0  0  0  0
    0.6440    0.4450    1.6220 N   0  0  0  0  0  0  0  0  0  0  0  0
    1.8110   -0.3260    1.3740 N   0  0  0  0  0  0  0  0  0  0  0  0
    2.2760   -0.5360    0.1750 C   0  0  0  0  0  0  0  0  0  0  0  0
    3.5010   -1.3560   -0.0470 C   0  0  0  0  0  0  0  0  0  0  0  0
    3.6490   -1.4250   -1.5130 C   0  0  0  0  0  0  0  0  0  0  0  0
    4.5750   -2.0590   -2.3350 C   0  0  0  0  0  0  0  0  0  0  0  0
    4.5230   -1.9450   -3.6940 C   0  0  0  0  0  0  0  0  0  0  0  0
    5.6520   -2.7490   -4.8140 S   0  0  0  0  0  0  0  0  0  0  0  0
    4.9030   -4.3310   -5.3170 C   0  0  0  0  0  0  0  0  0  0  0  0
    3.5030   -1.1650   -4.2410 C   0  0  0  0  0  0  0  0  0  0  0  0
    2.6090   -0.5550   -3.4590 C   0  0  0  0  0  0  0  0  0  0  0  0
    2.6200   -0.6400   -2.0500 C   0  0  0  0  0  0  0  0  0  0  0  0
    1.8220   -0.1210   -1.0500 O   0  0  0  0  0  0  0  0  0  0  0  0
   -4.6000    2.4200    2.0830 C   0  0  0  0  0  0  0  0  0  0  0  0
   -5.5370    2.0260    0.9890 C   0  0  0  0  0  0  0  0  0  0  0  0
   -4.3180    1.5340    0.2150 C   0  0  0  0  0  0  0  0  0  0  0  0
  1  2  1  0
  2  3  1  0
  3  4  1  6
  3 22  1  0
  3 24  1  0
  4  5  1  0
  5  6  2  3
  6  7  1  0
  7  8  2  0
  7  9  1  0
  9 10  1  0
 10 11  2  3
 11 12  1  0
 11 21  1  0
 12 13  1  0
 13 14  2  0
 13 20  1  0
 14 15  1  0
 15 16  1  0
 15 18  2  0
 16 17  1  0
 18 19  1  0
 19 20  2  0
 20 21  1  0
 22 23  1  0
 23 24  1  0
M  END
