
     RDKit          3D

 16 17  0  0  0  0  0  0  0  0999 V2000
    4.5550    1.0600   -0.7390 C   0  0  0  0  0  0  0  0  0  0  0  0
    3.4520    0.1340   -0.3480 C   0  0  0  0  0  0  0  0  0  0  0  0
    3.6000   -1.1890    0.0730 C   0  0  0  0  0  0  0  0  0  0  0  0
    2.3580   -1.7030    0.3410 C   0  0  0  0  0  0  0  0  0  0  0  0
    1.4400   -0.7130    0.0910 C   0  0  0  0  0  0  0  0  0  0  0  0
   -0.0260   -0.8120    0.2410 C   0  0  0  0  0  0  0  0  0  0  0  0
   -0.5030   -1.8950    0.6340 O   0  0  0  0  0  0  0  0  0  0  0  0
   -0.8500    0.2790   -0.0500 N   0  0  0  0  0  0  0  0  0  0  0  0
   -2.2610    0.3370    0.0440 C   0  0  0  0  0  0  0  0  0  0  0  0
   -2.9400    1.5170   -0.2880 C   0  0  0  0  0  0  0  0  0  0  0  0
   -4.2660    1.6520   -0.2260 N   0  0  0  0  0  0  0  0  0  0  0  0
   -5.0780    0.6560    0.1650 C   0  0  0  0  0  0  0  0  0  0  0  0
   -4.4670   -0.5300    0.5050 C   0  0  0  0  0  0  0  0  0  0  0  0
   -5.4820   -1.8720    1.0270 Cl  0  0  0  0  0  0  0  0  0  0  0  0
   -3.0760   -0.6930    0.4470 C   0  0  0  0  0  0  0  0  0  0  0  0
    2.1290    0.3680   -0.3180 N   0  0  0  0  0  0  0  0  0  0  0  0
  1  2  1  0
  2  3  2  0
  2 16  1  0
  3  4  1  0
  4  5  2  0
  5  6  1  0
  5 16  1  0
  6  7  2  0
  6  8  1  0
  8  9  1  0
  9 10  2  0
  9 15  1  0
 10 11  1  0
 11 12  2  0
 12 13  1  0
 13 14  1  0
 13 15  2  0
M  END
