
     RDKit          3D

 16 17  0  0  0  0  0  0  0  0999 V2000
    4.4650   -0.9880    0.5480 C   0  0  0  0  0  0  0  0  0  0  0  0
    3.3460   -0.0320    0.2840 C   0  0  0  0  0  0  0  0  0  0  0  0
    3.6180    1.3000    0.0650 C   0  0  0  0  0  0  0  0  0  0  0  0
    2.5900    2.1810   -0.1780 C   0  0  0  0  0  0  0  0  0  0  0  0
    1.2960    1.6640   -0.1910 C   0  0  0  0  0  0  0  0  0  0  0  0
    1.0110    0.3510    0.0240 C   0  0  0  0  0  0  0  0  0  0  0  0
   -0.2950   -0.2110    0.0190 N   0  0  0  0  0  0  0  0  0  0  0  0
   -1.5120    0.4610   -0.2020 C   0  0  0  0  0  0  0  0  0  0  0  0
   -1.4960    1.6950   -0.4240 O   0  0  0  0  0  0  0  0  0  0  0  0
   -2.7920   -0.2700   -0.1740 C   0  0  0  0  0  0  0  0  0  0  0  0
   -2.9920   -1.6060    0.0510 C   0  0  0  0  0  0  0  0  0  0  0  0
   -4.3410   -1.8500   -0.0150 C   0  0  0  0  0  0  0  0  0  0  0  0
   -4.9550   -0.6550   -0.2810 C   0  0  0  0  0  0  0  0  0  0  0  0
   -6.6840   -0.4060   -0.4670 Cl  0  0  0  0  0  0  0  0  0  0  0  0
   -3.9820    0.3030   -0.3750 N   0  0  0  0  0  0  0  0  0  0  0  0
    2.0810   -0.4520    0.2560 N   0  0  0  0  0  0  0  0  0  0  0  0
  1  2  1  0
  2  3  2  0
  2 16  1  0
  3  4  1  0
  4  5  2  0
  5  6  1  0
  6  7  1  0
  6 16  2  0
  7  8  1  0
  8  9  2  0
  8 10  1  0
 10 11  2  0
 10 15  1  0
 11 12  1  0
 12 13  2  0
 13 14  1  0
 13 15  1  0
M  END
