
     RDKit          3D

 16 17  0  0  0  0  0  0  0  0999 V2000
   -5.1620   -0.0190   -0.7090 C   0  0  0  0  0  0  0  0  0  0  0  0
   -3.9060    0.4200   -0.0730 C   0  0  0  0  0  0  0  0  0  0  0  0
   -2.6730   -0.2350   -0.0130 C   0  0  0  0  0  0  0  0  0  0  0  0
   -1.8330    0.5790    0.6830 C   0  0  0  0  0  0  0  0  0  0  0  0
   -0.4200    0.3480    1.0210 C   0  0  0  0  0  0  0  0  0  0  0  0
    0.1920    1.2170    1.6710 O   0  0  0  0  0  0  0  0  0  0  0  0
    0.2210   -0.8340    0.6170 N   0  0  0  0  0  0  0  0  0  0  0  0
    1.5600   -1.2530    0.8120 C   0  0  0  0  0  0  0  0  0  0  0  0
    2.6770   -0.5430    0.1860 C   0  0  0  0  0  0  0  0  0  0  0  0
    3.4390   -1.1300   -0.7690 C   0  0  0  0  0  0  0  0  0  0  0  0
    4.4640   -0.2020   -1.2010 C   0  0  0  0  0  0  0  0  0  0  0  0
    4.2480    0.9960   -0.3760 C   0  0  0  0  0  0  0  0  0  0  0  0
    3.1950    0.7790    0.4280 C   0  0  0  0  0  0  0  0  0  0  0  0
    2.8290    1.7410    1.3050 F   0  0  0  0  0  0  0  0  0  0  0  0
   -2.5420    1.6610    1.0140 N   0  0  0  0  0  0  0  0  0  0  0  0
   -3.7710    1.5890    0.5770 N   0  0  0  0  0  0  0  0  0  0  0  0
  1  2  1  0
  2  3  2  0
  2 16  1  0
  3  4  1  0
  4  5  1  0
  4 15  2  0
  5  6  2  0
  5  7  1  0
  7  8  1  0
  8  9  1  0
  9 10  2  0
  9 13  1  0
 10 11  1  0
 11 12  1  0
 12 13  2  0
 13 14  1  0
 15 16  1  0
M  END
