
     RDKit          3D

 26 30  0  0  0  0  0  0  0  0999 V2000
   -6.3170    1.1080    0.6120 C   0  0  0  0  0  0  0  0  0  0  0  0
   -5.3510    0.0800    0.5310 O   0  0  0  0  0  0  0  0  0  0  0  0
   -3.9960    0.3520    0.6450 C   0  0  0  0  0  0  0  0  0  0  0  0
   -3.5180    1.6210    0.8410 C   0  0  0  0  0  0  0  0  0  0  0  0
   -2.1580    1.9240    0.9550 C   0  0  0  0  0  0  0  0  0  0  0  0
   -1.2750    0.8610    0.8610 C   0  0  0  0  0  0  0  0  0  0  0  0
   -1.7250   -0.4200    0.6720 C   0  0  0  0  0  0  0  0  0  0  0  0
   -3.0510   -0.6810    0.5610 C   0  0  0  0  0  0  0  0  0  0  0  0
   -3.5700   -1.9530    0.3630 O   0  0  0  0  0  0  0  0  0  0  0  0
   -3.7930   -2.5080   -0.9110 C   0  0  0  0  0  0  0  0  0  0  0  0
   -0.7920   -1.5980    0.7790 C   0  0  0  0  0  0  0  0  0  0  0  0
    0.4820   -1.2100    0.1780 N   0  0  0  0  0  0  0  0  0  0  0  0
    1.0850   -2.0580   -0.8210 C   0  0  0  0  0  0  0  0  0  0  0  0
    1.0240    0.0690    0.4480 C   0  0  0  0  0  0  0  0  0  0  0  0
    0.1490    1.1320    0.7730 C   0  0  0  0  0  0  0  0  0  0  0  0
    0.6680    2.3860    0.9880 C   0  0  0  0  0  0  0  0  0  0  0  0
    2.0270    2.5780    0.8890 C   0  0  0  0  0  0  0  0  0  0  0  0
    2.8920    1.5580    0.5850 C   0  0  0  0  0  0  0  0  0  0  0  0
    4.2420    1.7850    0.5360 C   0  0  0  0  0  0  0  0  0  0  0  0
    5.0980    0.7440    0.2720 C   0  0  0  0  0  0  0  0  0  0  0  0
    4.6050   -0.5190    0.0620 C   0  0  0  0  0  0  0  0  0  0  0  0
    3.2290   -0.7790    0.1050 C   0  0  0  0  0  0  0  0  0  0  0  0
    2.3800    0.2580    0.3590 C   0  0  0  0  0  0  0  0  0  0  0  0
    5.6540   -1.3720   -0.1750 O   0  0  0  0  0  0  0  0  0  0  0  0
    6.8360   -0.5940   -0.2710 C   0  0  0  0  0  0  0  0  0  0  0  0
    6.4810    0.7030    0.1660 O   0  0  0  0  0  0  0  0  0  0  0  0
  1  2  1  0
  2  3  1  0
  3  4  2  0
  3  8  1  0
  4  5  1  0
  5  6  2  0
  6  7  1  0
  6 15  1  0
  7  8  2  0
  7 11  1  0
  8  9  1  0
  9 10  1  0
 11 12  1  0
 12 13  1  0
 12 14  1  0
 14 15  2  0
 14 23  1  0
 15 16  1  0
 16 17  2  0
 17 18  1  0
 18 19  2  0
 18 23  1  0
 19 20  1  0
 20 21  2  0
 20 26  1  0
 21 22  1  0
 21 24  1  0
 22 23  2  0
 24 25  1  0
 25 26  1  0
M  END
