
     RDKit          3D

 16 17  0  0  0  0  0  0  0  0999 V2000
   -0.1440    0.7790   -0.4060 O   0  0  0  0  0  0  0  0  0  0  0  0
    0.0060   -0.1830    0.3440 C   0  0  0  0  0  0  0  0  0  0  0  0
   -1.1670   -0.7280    0.9670 N   0  0  0  0  0  0  0  0  0  0  0  0
   -2.4510   -0.1680    0.7180 C   0  0  0  0  0  0  0  0  0  0  0  0
   -3.4680   -0.8270    0.1890 C   0  0  0  0  0  0  0  0  0  0  0  0
   -4.6600    0.0320    0.0600 C   0  0  0  0  0  0  0  0  0  0  0  0
   -4.2000    1.3220    0.5970 C   0  0  0  0  0  0  0  0  0  0  0  0
   -2.9460    1.1780    0.9620 C   0  0  0  0  0  0  0  0  0  0  0  0
    1.2810   -0.7250    0.5800 N   0  0  0  0  0  0  0  0  0  0  0  0
    2.5070   -0.2930    0.0390 C   0  0  0  0  0  0  0  0  0  0  0  0
    2.6980    0.7470   -0.8280 C   0  0  0  0  0  0  0  0  0  0  0  0
    3.9320    1.1070   -1.3120 C   0  0  0  0  0  0  0  0  0  0  0  0
    5.0040    0.4120   -0.9200 N   0  0  0  0  0  0  0  0  0  0  0  0
    4.8910   -0.6130   -0.0780 C   0  0  0  0  0  0  0  0  0  0  0  0
    6.3190   -1.4900    0.4040 Cl  0  0  0  0  0  0  0  0  0  0  0  0
    3.6730   -0.9850    0.4130 C   0  0  0  0  0  0  0  0  0  0  0  0
  1  2  2  0
  2  3  1  0
  2  9  1  0
  3  4  1  0
  4  5  2  0
  4  8  1  0
  5  6  1  0
  6  7  1  0
  7  8  2  0
  9 10  1  0
 10 11  2  0
 10 16  1  0
 11 12  1  0
 12 13  2  0
 13 14  1  0
 14 15  1  0
 14 16  2  0
M  END
