
     RDKit          3D

 16 17  0  0  0  0  0  0  0  0999 V2000
    4.0740    0.3360    0.5540 C   0  0  0  0  0  0  0  0  0  0  0  0
    2.6270   -0.0460    0.5370 C   0  0  0  0  0  0  0  0  0  0  0  0
    1.7420    0.6800   -0.0270 N   0  0  0  0  0  0  0  0  0  0  0  0
    0.3540    0.3540   -0.0670 N   0  0  0  0  0  0  0  0  0  0  0  0
   -0.5730    1.2270   -0.7070 C   0  0  0  0  0  0  0  0  0  0  0  0
    0.2050    2.4310   -1.2130 C   0  0  0  0  0  0  0  0  0  0  0  0
   -0.5150    3.4420   -1.8890 N   0  0  0  0  0  0  0  0  0  0  0  0
    1.4280    2.5580   -1.0570 O   0  0  0  0  0  0  0  0  0  0  0  0
   -0.0830   -0.8200    0.5380 C   0  0  0  0  0  0  0  0  0  0  0  0
   -1.4450   -1.3030    0.6180 C   0  0  1  0  0  0  0  0  0  0  0  0
   -2.6090   -0.5340    0.9170 C   0  0  0  0  0  0  0  0  0  0  0  0
   -3.1330   -0.6750   -0.4510 C   0  0  0  0  0  0  0  0  0  0  0  0
   -1.9990   -1.5990   -0.7420 C   0  0  0  0  0  0  0  0  0  0  0  0
    0.8510   -1.5800    1.1310 C   0  0  0  0  0  0  0  0  0  0  0  0
    0.3760   -3.1120    1.9360 Cl  0  0  0  0  0  0  0  0  0  0  0  0
    2.2770   -1.2990    1.2040 C   0  0  0  0  0  0  0  0  0  0  0  0
  1  2  1  0
  2  3  2  0
  2 16  1  0
  3  4  1  0
  4  5  1  0
  4  9  1  0
  5  6  1  0
  6  7  1  0
  6  8  2  0
 10  9  1  6
  9 14  2  0
 10 11  1  0
 10 13  1  0
 11 12  1  0
 12 13  1  0
 14 15  1  0
 14 16  1  0
M  END
