
     RDKit          3D

 22 23  0  0  0  0  0  0  0  0999 V2000
   -4.1730   -3.4750    0.2140 C   0  0  0  0  0  0  0  0  0  0  0  0
   -3.6070   -2.0820    0.5520 C   0  0  0  0  0  0  0  0  0  0  0  0
   -2.8320   -1.5600   -0.5940 C   0  0  0  0  0  0  0  0  0  0  0  0
   -2.2110   -0.3090   -0.5040 N   0  0  0  0  0  0  0  0  0  0  0  0
   -2.7480    0.8790   -0.8360 C   0  0  0  0  0  0  0  0  0  0  0  0
   -3.8930    1.0390   -1.2790 O   0  0  0  0  0  0  0  0  0  0  0  0
   -1.8740    1.8760   -0.6220 N   0  0  0  0  0  0  0  0  0  0  0  0
   -2.1210    3.2890   -0.8680 C   0  0  0  0  0  0  0  0  0  0  0  0
   -2.7100    3.9580    0.3530 C   0  0  0  0  0  0  0  0  0  0  0  0
   -0.7400    1.3150   -0.1370 C   0  0  0  0  0  0  0  0  0  0  0  0
    0.4230    1.9000    0.2340 N   0  0  0  0  0  0  0  0  0  0  0  0
    1.3940    1.1250    0.6890 C   0  0  0  0  0  0  0  0  0  0  0  0
    2.7600    1.5590    1.1300 C   0  0  0  0  0  0  0  0  0  0  0  0
    3.7060    0.9290    0.1420 C   0  0  0  0  0  0  0  0  0  0  0  0
    3.8880    1.3500   -1.0080 O   0  0  0  0  0  0  0  0  0  0  0  0
    4.3750   -0.1820    0.5890 O   0  0  0  0  0  0  0  0  0  0  0  0
    5.2900   -0.9350   -0.1450 C   0  0  0  0  0  0  0  0  0  0  0  0
    6.5340   -0.2070   -0.5580 C   0  0  0  0  0  0  0  0  0  0  0  0
    1.1840   -0.1920    0.7580 N   0  0  0  0  0  0  0  0  0  0  0  0
    0.0580   -0.8350    0.4060 C   0  0  0  0  0  0  0  0  0  0  0  0
   -0.0500   -2.3020    0.4960 C   0  0  0  0  0  0  0  0  0  0  0  0
   -0.9650   -0.0660   -0.0660 C   0  0  0  0  0  0  0  0  0  0  0  0
  1  2  1  0
  2  3  1  0
  3  4  1  0
  4  5  1  0
  4 22  1  0
  5  6  2  0
  5  7  1  0
  7  8  1  0
  7 10  1  0
  8  9  1  0
 10 11  2  0
 10 22  1  0
 11 12  1  0
 12 13  1  0
 12 19  2  0
 13 14  1  0
 14 15  2  0
 14 16  1  0
 16 17  1  0
 17 18  1  0
 19 20  1  0
 20 21  1  0
 20 22  2  0
M  END
