
     RDKit          3D

 22 23  0  0  0  0  0  0  0  0999 V2000
   -3.1410   -3.2020   -0.7330 C   0  0  0  0  0  0  0  0  0  0  0  0
   -3.1930   -2.6240    0.6410 C   0  0  0  0  0  0  0  0  0  0  0  0
   -2.5140   -1.3810    0.7270 O   0  0  0  0  0  0  0  0  0  0  0  0
   -1.1790   -1.2150    0.4520 C   0  0  0  0  0  0  0  0  0  0  0  0
   -0.5150   -2.2200    0.1030 O   0  0  0  0  0  0  0  0  0  0  0  0
   -0.4970    0.1070    0.5540 C   0  0  2  0  0  0  0  0  0  0  0  0
   -1.4670    1.0630    0.9630 N   0  0  0  0  0  0  0  0  0  0  0  0
   -2.0590    0.8670    2.2310 C   0  0  0  0  0  0  0  0  0  0  0  0
   -2.2260    1.5700    0.0110 O   0  0  0  0  0  0  0  0  0  0  0  0
   -2.3700    2.9300   -0.0130 C   0  0  0  0  0  0  0  0  0  0  0  0
   -3.2740    3.2860   -1.1760 C   0  0  0  0  0  0  0  0  0  0  0  0
    0.0010    0.4880   -0.8240 C   0  0  0  0  0  0  0  0  0  0  0  0
    1.2600   -0.2170   -1.2300 C   0  0  0  0  0  0  0  0  0  0  0  0
    2.2740    0.0190   -0.2410 N   0  0  0  0  0  0  0  0  0  0  0  0
    3.6240   -0.2820   -0.5490 C   0  0  0  0  0  0  0  0  0  0  0  0
    3.9240   -0.8260   -1.7720 C   0  0  0  0  0  0  0  0  0  0  0  0
    5.2010   -1.1160   -2.0780 N   0  0  0  0  0  0  0  0  0  0  0  0
    6.1740   -0.8600   -1.1620 C   0  0  0  0  0  0  0  0  0  0  0  0
    5.8740   -0.3150    0.0640 C   0  0  0  0  0  0  0  0  0  0  0  0
    4.6000   -0.0270    0.3700 N   0  0  0  0  0  0  0  0  0  0  0  0
    1.9190    0.5600    1.0630 C   0  0  0  0  0  0  0  0  0  0  0  0
    0.6220   -0.0500    1.5520 C   0  0  0  0  0  0  0  0  0  0  0  0
  1  2  1  0
  2  3  1  0
  3  4  1  0
  4  5  2  0
  4  6  1  0
  6  7  1  1
  6 12  1  0
  6 22  1  0
  7  8  1  0
  7  9  1  0
  9 10  1  0
 10 11  1  0
 12 13  1  0
 13 14  1  0
 14 15  1  0
 14 21  1  0
 15 16  2  0
 15 20  1  0
 16 17  1  0
 17 18  2  0
 18 19  1  0
 19 20  2  0
 21 22  1  0
M  END
