
     RDKit          3D

 22 23  0  0  0  0  0  0  0  0999 V2000
    7.9900    0.0680    0.3960 C   0  0  0  0  0  0  0  0  0  0  0  0
    7.0930    0.1580   -0.8240 C   0  0  0  0  0  0  0  0  0  0  0  0
    5.6720    0.3670   -0.4530 C   0  0  0  0  0  0  0  0  0  0  0  0
    5.0540    1.5410   -0.2760 N   0  0  0  0  0  0  0  0  0  0  0  0
    3.7970    1.3240    0.0480 N   0  0  0  0  0  0  0  0  0  0  0  0
    3.6090    0.0030    0.0780 C   0  0  0  0  0  0  0  0  0  0  0  0
    2.4310   -0.7750    0.3750 C   0  0  0  0  0  0  0  0  0  0  0  0
    1.1750   -0.4610    0.1360 C   0  0  0  0  0  0  0  0  0  0  0  0
    0.1740   -1.4180    0.5310 N   0  0  0  0  0  0  0  0  0  0  0  0
   -1.1050   -1.2170    0.7750 C   0  0  0  0  0  0  0  0  0  0  0  0
   -1.8850    0.0120    0.7180 C   0  0  0  0  0  0  0  0  0  0  0  0
   -3.2850   -0.1230    1.1780 C   0  0  0  0  0  0  0  0  0  0  0  0
   -4.1310   -0.9920    0.4890 N   0  0  0  0  0  0  0  0  0  0  0  0
   -3.9780   -2.3850    0.5500 C   0  0  0  0  0  0  0  0  0  0  0  0
   -4.7880   -0.5000   -0.6940 C   0  0  0  0  0  0  0  0  0  0  0  0
   -5.8090    0.5370   -0.2850 C   0  0  0  0  0  0  0  0  0  0  0  0
   -1.5250    1.2360    0.3120 C   0  0  0  0  0  0  0  0  0  0  0  0
   -2.5580    2.3110    0.3720 C   0  0  0  0  0  0  0  0  0  0  0  0
   -0.2750    1.6150   -0.1670 O   0  0  0  0  0  0  0  0  0  0  0  0
    0.8370    0.8060   -0.4890 C   0  0  0  0  0  0  0  0  0  0  0  0
    1.6290    1.1640   -1.3780 O   0  0  0  0  0  0  0  0  0  0  0  0
    4.7720   -0.5370   -0.2340 O   0  0  0  0  0  0  0  0  0  0  0  0
  1  2  1  0
  2  3  1  0
  3  4  2  0
  3 22  1  0
  4  5  1  0
  5  6  2  0
  6  7  1  0
  6 22  1  0
  7  8  2  3
  8  9  1  0
  8 20  1  0
  9 10  2  0
 10 11  1  0
 11 12  1  0
 11 17  2  0
 12 13  1  0
 13 14  1  0
 13 15  1  0
 15 16  1  0
 17 18  1  0
 17 19  1  0
 19 20  1  0
 20 21  2  0
M  END
