
     RDKit          3D

 28 28  0  0  0  0  0  0  0  0999 V2000
   -6.1730   -2.2120   -1.0760 C   0  0  0  0  0  0  0  0  0  0  0  0
   -5.7120   -1.0790   -0.6120 C   0  0  0  0  0  0  0  0  0  0  0  0
   -4.3110   -0.7800   -0.6900 C   0  0  0  0  0  0  0  0  0  0  0  0
   -3.4770   -1.7120   -1.2680 F   0  0  0  0  0  0  0  0  0  0  0  0
   -3.7930    0.3160   -0.2470 C   0  0  0  0  0  0  0  0  0  0  0  0
   -4.5160    1.3940    0.3880 C   0  0  0  0  0  0  0  0  0  0  0  0
   -3.9130    2.4910    0.8110 C   0  0  0  0  0  0  0  0  0  0  0  0
   -4.6730    3.5460    1.4400 C   0  0  0  0  0  0  0  0  0  0  0  0
   -4.1190    4.5910    1.8460 O   0  0  0  0  0  0  0  0  0  0  0  0
   -2.5530    2.6330    0.6520 O   0  0  0  0  0  0  0  0  0  0  0  0
   -1.6770    2.1140    1.6000 C   0  0  0  0  0  0  0  0  0  0  0  0
   -0.2190    2.3820    1.2490 C   0  0  0  0  0  0  0  0  0  0  0  0
    0.1790    1.8260   -0.0020 N   0  0  0  0  0  0  0  0  0  0  0  0
   -0.3440    2.3510   -1.2510 C   0  0  0  0  0  0  0  0  0  0  0  0
    1.0890    0.7560   -0.0590 C   0  0  0  0  0  0  0  0  0  0  0  0
    2.4270    1.0060   -0.1940 C   0  0  0  0  0  0  0  0  0  0  0  0
    3.3560   -0.0360   -0.2570 C   0  0  0  0  0  0  0  0  0  0  0  0
    2.8860   -1.3230   -0.1790 C   0  0  0  0  0  0  0  0  0  0  0  0
    3.7960   -2.4640   -0.2430 C   0  0  0  0  0  0  0  0  0  0  0  0
    3.3410   -3.6420   -0.1590 O   0  0  0  0  0  0  0  0  0  0  0  0
    5.1960   -2.3410   -0.3970 N   0  0  0  0  0  0  0  0  0  0  0  0
    6.0500   -3.5030   -0.4600 C   0  0  0  0  0  0  0  0  0  0  0  0
    5.5650   -4.6510   -0.3740 O   0  0  0  0  0  0  0  0  0  0  0  0
    7.4840   -3.3130   -0.6260 C   0  0  0  0  0  0  0  0  0  0  0  0
    7.9620   -2.1430   -0.7080 O   0  0  0  0  0  0  0  0  0  0  0  0
    8.3730   -4.3620   -0.7000 O   0  0  0  0  0  0  0  0  0  0  0  0
    1.5310   -1.5480   -0.0420 C   0  0  0  0  0  0  0  0  0  0  0  0
    0.6530   -0.5010    0.0150 N   0  0  0  0  0  0  0  0  0  0  0  0
  1  2  2  0
  2  3  1  0
  3  4  1  0
  3  5  2  3
  5  6  1  0
  6  7  2  3
  7  8  1  0
  7 10  1  0
  8  9  2  0
 10 11  1  0
 11 12  1  0
 12 13  1  0
 13 14  1  0
 13 15  1  0
 15 16  2  0
 15 28  1  0
 16 17  1  0
 17 18  2  0
 18 19  1  0
 18 27  1  0
 19 20  2  0
 19 21  1  0
 21 22  1  0
 22 23  2  0
 22 24  1  0
 24 25  2  0
 24 26  1  0
 27 28  2  0
M  END
