
     RDKit          3D

 28 29  0  0  0  0  0  0  0  0999 V2000
   -7.9660    2.1870   -0.8760 C   0  0  0  0  0  0  0  0  0  0  0  0
   -6.7990    1.5640   -0.8620 C   0  0  0  0  0  0  0  0  0  0  0  0
   -5.6020    1.0340   -0.8030 C   0  0  0  0  0  0  0  0  0  0  0  0
   -4.5700    1.8220   -0.1250 C   0  0  0  0  0  0  0  0  0  0  0  0
   -3.2740    1.1870   -0.2020 N   0  0  0  0  0  0  0  0  0  0  0  0
   -2.8160   -0.0400    0.4170 C   0  0  0  0  0  0  0  0  0  0  0  0
   -1.8890   -0.6120   -0.6200 C   0  0  2  0  0  0  0  0  0  0  0  0
   -1.0360   -1.5950   -0.1780 O   0  0  0  0  0  0  0  0  0  0  0  0
   -1.1230   -2.6770   -1.0410 C   0  0  0  0  0  0  0  0  0  0  0  0
   -2.3850   -3.2460   -1.1220 O   0  0  0  0  0  0  0  0  0  0  0  0
   -2.7770   -3.7170    0.1050 C   0  0  0  0  0  0  0  0  0  0  0  0
   -1.1090    0.6530   -0.9330 C   0  0  0  0  0  0  0  0  0  0  0  0
    0.1760    0.7670   -1.1330 C   0  0  0  0  0  0  0  0  0  0  0  0
    0.7280    2.0000   -1.4080 O   0  0  0  0  0  0  0  0  0  0  0  0
    0.9930   -0.3790   -1.0660 O   0  0  0  0  0  0  0  0  0  0  0  0
    2.2430   -0.3450   -0.4720 C   0  0  0  0  0  0  0  0  0  0  0  0
    2.9290   -1.5100   -0.4720 N   0  0  0  0  0  0  0  0  0  0  0  0
    4.1470   -1.6340    0.0650 C   0  0  0  0  0  0  0  0  0  0  0  0
    4.7560   -0.5480    0.6500 C   0  0  0  0  0  0  0  0  0  0  0  0
    6.0170   -0.6230    1.2200 O   0  0  0  0  0  0  0  0  0  0  0  0
    6.6530    0.4760    1.8210 C   0  0  0  0  0  0  0  0  0  0  0  0
    8.0180    0.0780    2.3530 C   0  0  1  0  0  0  0  0  0  0  0  0
    7.9050   -0.9330    3.3060 O   0  0  0  0  0  0  0  0  0  0  0  0
    8.7730   -0.3980    1.2890 F   0  0  0  0  0  0  0  0  0  0  0  0
    4.0270    0.6380    0.6350 C   0  0  0  0  0  0  0  0  0  0  0  0
    2.8040    0.7170    0.0840 N   0  0  0  0  0  0  0  0  0  0  0  0
   -2.1280    1.6750   -0.9500 C   0  0  0  0  0  0  0  0  0  0  0  0
   -2.0490    2.8570   -1.5410 C   0  0  0  0  0  0  0  0  0  0  0  0
  1  2  2  0
  2  3  2  0
  3  4  1  0
  4  5  1  0
  5  6  1  0
  5 27  1  0
  6  7  1  0
  7  8  1  1
  7 12  1  0
  8  9  1  0
  9 10  1  0
 10 11  1  0
 12 13  2  3
 12 27  1  0
 13 14  1  0
 13 15  1  0
 15 16  1  0
 16 17  2  0
 16 26  1  0
 17 18  1  0
 18 19  2  0
 19 20  1  0
 19 25  1  0
 20 21  1  0
 21 22  1  0
 22 23  1  1
 22 24  1  0
 25 26  2  0
 27 28  2  0
M  END
