
     RDKit          3D

 19 20  0  0  0  0  0  0  0  0999 V2000
    5.0820   -0.5470   -0.0040 N   0  0  0  0  0  0  0  0  0  0  0  0
    3.9070    0.3220   -0.2360 C   0  0  1  0  0  0  0  0  0  0  0  0
    2.7830   -0.5910   -0.4640 C   0  0  0  0  0  0  0  0  0  0  0  0
    1.7450   -0.6440    0.3280 C   0  0  0  0  0  0  0  0  0  0  0  0
    0.6340   -1.6150    0.0150 C   0  0  0  0  0  0  0  0  0  0  0  0
   -0.6140   -0.9050   -0.1870 N   0  0  0  0  0  0  0  0  0  0  0  0
   -0.7120    0.0620   -1.2230 C   0  0  0  0  0  0  0  0  0  0  0  0
    0.3130    0.2540   -1.9270 O   0  0  0  0  0  0  0  0  0  0  0  0
   -1.9140    0.8410   -1.5240 C   0  0  0  0  0  0  0  0  0  0  0  0
   -3.0240    0.5420   -0.6590 N   0  0  0  0  0  0  0  0  0  0  0  0
   -3.9870   -0.3570   -0.7920 N   0  0  0  0  0  0  0  0  0  0  0  0
   -4.8260   -0.3050    0.2460 C   0  0  0  0  0  0  0  0  0  0  0  0
   -5.8650   -1.0050    0.4730 O   0  0  0  0  0  0  0  0  0  0  0  0
   -4.3840    0.6500    1.0560 N   0  0  0  0  0  0  0  0  0  0  0  0
   -3.2670    1.1750    0.4960 C   0  0  0  0  0  0  0  0  0  0  0  0
   -2.6280    2.1060    1.0470 O   0  0  0  0  0  0  0  0  0  0  0  0
    1.6430    0.2180    1.5080 C   0  0  0  0  0  0  0  0  0  0  0  0
    2.6490    1.0390    1.7170 C   0  0  0  0  0  0  0  0  0  0  0  0
    3.7370    1.1000    0.8940 O   0  0  0  0  0  0  0  0  0  0  0  0
  2  1  1  1
  2  3  1  0
  2 19  1  0
  3  4  2  0
  4  5  1  0
  4 17  1  0
  5  6  1  0
  6  7  1  0
  7  8  2  0
  7  9  1  0
  9 10  1  0
 10 11  1  0
 10 15  1  0
 11 12  1  0
 12 13  2  0
 12 14  1  0
 14 15  1  0
 15 16  2  0
 17 18  2  0
 18 19  1  0
M  END
