
     RDKit          3D

 19 20  0  0  0  0  0  0  0  0999 V2000
    4.9750    0.7000   -0.2560 C   0  0  0  0  0  0  0  0  0  0  0  0
    3.5610    0.1670   -0.1030 C   0  0  2  0  0  0  0  0  0  0  0  0
    3.3690   -1.0770   -0.7840 N   0  0  0  0  0  0  0  0  0  0  0  0
    1.9100   -1.1440   -1.0310 C   0  0  1  0  0  0  0  0  0  0  0  0
    1.2790   -1.5820    0.2200 C   0  0  0  0  0  0  0  0  0  0  0  0
   -0.1240   -1.7440    0.2930 N   0  0  0  0  0  0  0  0  0  0  0  0
   -1.0230   -0.6740    0.1160 C   0  0  0  0  0  0  0  0  0  0  0  0
   -0.5740    0.4630   -0.1030 O   0  0  0  0  0  0  0  0  0  0  0  0
   -2.5180   -0.8680    0.1860 C   0  0  0  0  0  0  0  0  0  0  0  0
   -3.2630    0.4110   -0.0010 C   0  0  2  0  0  0  0  0  0  0  0  0
   -2.8930    1.3350    1.0290 N   0  0  0  0  0  0  0  0  0  0  0  0
   -4.0570    2.1170    1.2850 C   0  0  0  0  0  0  0  0  0  0  0  0
   -4.0370    3.2500    1.8350 O   0  0  0  0  0  0  0  0  0  0  0  0
   -5.2080    1.4040    0.8220 N   0  0  0  0  0  0  0  0  0  0  0  0
   -4.7060    0.1780    0.2830 C   0  0  0  0  0  0  0  0  0  0  0  0
   -5.3460   -0.8880    0.0830 O   0  0  0  0  0  0  0  0  0  0  0  0
    1.7030    0.2120   -1.4660 N   0  0  0  0  0  0  0  0  0  0  0  0
    2.5870    1.0700   -0.7510 C   0  0  0  0  0  0  0  0  0  0  0  0
    2.5730    2.3200   -0.6670 O   0  0  0  0  0  0  0  0  0  0  0  0
  2  1  1  6
  2  3  1  0
  2 18  1  0
  3  4  1  0
  4  5  1  1
  4 17  1  0
  5  6  1  0
  6  7  1  0
  7  8  2  0
  7  9  1  0
 10  9  1  1
 10 11  1  0
 10 15  1  0
 11 12  1  0
 12 13  2  0
 12 14  1  0
 14 15  1  0
 15 16  2  0
 17 18  1  0
 18 19  2  0
M  END
