
     RDKit          3D

 19 20  0  0  0  0  0  0  0  0999 V2000
    4.0300   -1.0250    0.8080 C   0  0  0  0  0  0  0  0  0  0  0  0
    2.6940   -1.3060    0.3020 C   0  0  0  0  0  0  0  0  0  0  0  0
    1.7010   -0.4540    0.3300 C   0  0  0  0  0  0  0  0  0  0  0  0
    1.7920    0.8900    0.8690 C   0  0  0  0  0  0  0  0  0  0  0  0
    3.0000    1.3810    1.4240 N   0  0  0  0  0  0  0  0  0  0  0  0
    0.7370    1.6750    0.8490 N   0  0  0  0  0  0  0  0  0  0  0  0
   -0.5190    1.2620    0.3120 C   0  0  0  0  0  0  0  0  0  0  0  0
   -0.6530    0.0470   -0.1900 C   0  0  0  0  0  0  0  0  0  0  0  0
    0.4310   -0.8780   -0.2150 N   0  0  0  0  0  0  0  0  0  0  0  0
    0.2760   -2.1450   -0.7440 N   0  0  0  0  0  0  0  0  0  0  0  0
    0.6400   -2.4020   -1.9200 O   0  0  0  0  0  0  0  0  0  0  0  0
   -1.9750   -0.3890   -0.7150 C   0  0  2  0  0  0  0  0  0  0  0  0
   -2.7440   -0.9220    0.4860 C   0  0  0  0  0  0  0  0  0  0  0  0
   -1.8230   -1.4620   -1.5920 O   0  0  0  0  0  0  0  0  0  0  0  0
   -2.6670    0.7780   -1.3460 C   0  0  2  0  0  0  0  0  0  0  0  0
   -1.8460    1.3470   -2.3150 O   0  0  0  0  0  0  0  0  0  0  0  0
   -2.8300    1.8100   -0.2590 C   0  0  0  0  0  0  0  0  0  0  0  0
   -3.9180    2.2660    0.1130 O   0  0  0  0  0  0  0  0  0  0  0  0
   -1.5940    2.2190    0.3130 N   0  0  0  0  0  0  0  0  0  0  0  0
  1  2  1  0
  2  3  2  3
  3  4  1  0
  3  9  1  0
  4  5  1  0
  4  6  2  0
  6  7  1  0
  7  8  2  0
  7 19  1  0
  8  9  1  0
  8 12  1  0
  9 10  1  0
 10 11  2  0
 12 13  1  1
 12 14  1  0
 12 15  1  0
 15 16  1  6
 15 17  1  0
 17 18  2  0
 17 19  1  0
M  END
