
     RDKit          3D

 19 20  0  0  0  0  0  0  0  0999 V2000
   -2.5390    3.0550   -0.3700 C   0  0  0  0  0  0  0  0  0  0  0  0
   -2.1080    1.7180   -0.0820 N   0  0  0  0  0  0  0  0  0  0  0  0
   -3.1660    0.7180    0.0790 C   0  0  0  0  0  0  0  0  0  0  0  0
   -2.7990   -0.5180   -0.5960 N   0  0  0  0  0  0  0  0  0  0  0  0
   -1.6120   -1.2880   -0.5670 C   0  0  0  0  0  0  0  0  0  0  0  0
   -1.7220   -2.7490   -0.7940 C   0  0  1  0  0  0  0  0  0  0  0  0
   -2.5290   -3.5880    0.0950 C   0  0  0  0  0  0  0  0  0  0  0  0
   -2.9490   -3.2680   -1.1990 O   0  0  0  0  0  0  0  0  0  0  0  0
   -0.4200   -0.8470   -0.3610 N   0  0  0  0  0  0  0  0  0  0  0  0
    0.0440    0.4720   -0.1130 C   0  0  0  0  0  0  0  0  0  0  0  0
    1.4880    0.6480    0.0280 C   0  0  0  0  0  0  0  0  0  0  0  0
    1.9240    1.8050    0.2480 O   0  0  0  0  0  0  0  0  0  0  0  0
    2.3620   -0.4240   -0.0760 O   0  0  0  0  0  0  0  0  0  0  0  0
    3.7400   -0.1500    0.0760 C   0  0  0  0  0  0  0  0  0  0  0  0
    4.5740   -1.3470   -0.0500 C   0  0  0  0  0  0  0  0  0  0  0  0
    5.9830   -1.2140    0.0810 N   0  0  0  0  0  0  0  0  0  0  0  0
    4.0680   -2.4570   -0.2680 O   0  0  0  0  0  0  0  0  0  0  0  0
   -0.6940    1.5630    0.0040 C   0  0  0  0  0  0  0  0  0  0  0  0
    0.0190    2.7910    0.2560 N   0  0  0  0  0  0  0  0  0  0  0  0
  1  2  1  0
  2  3  1  0
  2 18  1  0
  3  4  1  0
  4  5  1  0
  6  5  1  1
  5  9  2  0
  6  7  1  0
  6  8  1  0
  7  8  1  0
  9 10  1  0
 10 11  1  0
 10 18  2  0
 11 12  2  0
 11 13  1  0
 13 14  1  0
 14 15  1  0
 15 16  1  0
 15 17  2  0
 18 19  1  0
M  END
