
     RDKit          3D

 19 20  0  0  0  0  0  0  0  0999 V2000
    5.4900    0.0640    1.7860 N   0  0  0  0  0  0  0  0  0  0  0  0
    5.1990   -0.6660    0.5680 C   0  0  0  0  0  0  0  0  0  0  0  0
    3.9670   -0.1190   -0.0710 C   0  0  0  0  0  0  0  0  0  0  0  0
    2.7560   -0.6150    0.2370 N   0  0  0  0  0  0  0  0  0  0  0  0
    1.6170   -0.1650   -0.3020 C   0  0  0  0  0  0  0  0  0  0  0  0
    0.3650   -0.7210    0.0420 N   0  0  0  0  0  0  0  0  0  0  0  0
   -0.9090   -0.2940   -0.4840 C   0  0  1  0  0  0  0  0  0  0  0  0
   -1.9700   -1.2330    0.0650 C   0  0  0  0  0  0  0  0  0  0  0  0
   -3.3450   -0.6790    0.0690 C   0  0  2  0  0  0  0  0  0  0  0  0
   -4.0330   -0.8890   -1.2660 C   0  0  0  0  0  0  0  0  0  0  0  0
   -5.3090   -0.3840   -1.2900 O   0  0  0  0  0  0  0  0  0  0  0  0
   -3.3790    0.7360    0.5220 C   0  0  0  0  0  0  0  0  0  0  0  0
   -2.1420    1.0990    1.0220 O   0  0  0  0  0  0  0  0  0  0  0  0
   -1.1610    1.1160    0.0240 C   0  0  2  0  0  0  0  0  0  0  0  0
   -1.6990    1.8560   -1.0220 O   0  0  0  0  0  0  0  0  0  0  0  0
    1.7090    0.8320   -1.1940 N   0  0  0  0  0  0  0  0  0  0  0  0
    2.9140    1.3740   -1.5440 C   0  0  0  0  0  0  0  0  0  0  0  0
    2.9650    2.3130   -2.3880 O   0  0  0  0  0  0  0  0  0  0  0  0
    4.0170    0.8810   -0.9700 N   0  0  0  0  0  0  0  0  0  0  0  0
  1  2  1  0
  2  3  1  0
  3  4  1  0
  3 19  2  0
  4  5  2  0
  5  6  1  0
  5 16  1  0
  7  6  1  1
  7  8  1  0
  7 14  1  0
  8  9  1  0
  9 10  1  6
  9 12  1  0
 10 11  1  0
 12 13  1  0
 13 14  1  0
 14 15  1  6
 16 17  1  0
 17 18  2  0
 17 19  1  0
M  END
