
     RDKit          3D

 19 20  0  0  0  0  0  0  0  0999 V2000
   -6.0860   -0.7580    2.3240 N   0  0  0  0  0  0  0  0  0  0  0  0
   -5.1880   -0.3070    1.3390 C   0  0  0  0  0  0  0  0  0  0  0  0
   -5.6240    0.3300    0.3560 O   0  0  0  0  0  0  0  0  0  0  0  0
   -3.7550   -0.6060    1.5050 C   0  0  0  0  0  0  0  0  0  0  0  0
   -3.3310   -1.2260    2.4610 O   0  0  0  0  0  0  0  0  0  0  0  0
   -2.8180   -0.2030    0.5930 N   0  0  0  0  0  0  0  0  0  0  0  0
   -1.4700   -0.2470    0.3470 C   0  0  0  0  0  0  0  0  0  0  0  0
   -1.3120    0.3920   -0.7700 O   0  0  0  0  0  0  0  0  0  0  0  0
   -0.3160   -0.7430    0.9080 N   0  0  0  0  0  0  0  0  0  0  0  0
    0.9510   -0.5440    0.2660 C   0  0  0  0  0  0  0  0  0  0  0  0
    1.5990   -1.6260   -0.1300 C   0  0  0  0  0  0  0  0  0  0  0  0
    2.8610   -1.4470   -0.7700 N   0  0  0  0  0  0  0  0  0  0  0  0
    3.3990   -0.1400   -0.9740 C   0  0  0  0  0  0  0  0  0  0  0  0
    4.5340    0.0720   -1.5480 N   0  0  0  0  0  0  0  0  0  0  0  0
    5.0560    1.3870   -1.7420 C   0  0  0  0  0  0  0  0  0  0  0  0
    4.4110    2.4750   -1.3490 C   0  0  0  0  0  0  0  0  0  0  0  0
    3.1840    2.2860   -0.7260 O   0  0  0  0  0  0  0  0  0  0  0  0
    2.6460    1.0230   -0.5200 C   0  0  0  0  0  0  0  0  0  0  0  0
    1.4810    0.8090    0.0690 C   0  0  0  0  0  0  0  0  0  0  0  0
  1  2  1  0
  2  3  2  0
  2  4  1  0
  4  5  2  0
  4  6  1  0
  6  7  1  0
  7  8  2  0
  7  9  1  0
  9 10  1  0
 10 11  2  0
 10 19  1  0
 11 12  1  0
 12 13  1  0
 13 14  2  0
 13 18  1  0
 14 15  1  0
 15 16  2  0
 16 17  1  0
 17 18  1  0
 18 19  2  0
M  END
