
     RDKit          3D

 19 21  0  0  0  0  0  0  0  0999 V2000
    5.1990    0.7690   -0.1190 N   0  0  0  0  0  0  0  0  0  0  0  0
    4.1670   -0.1970   -0.1280 C   0  0  0  0  0  0  0  0  0  0  0  0
    4.3980   -1.5060   -0.1110 N   0  0  0  0  0  0  0  0  0  0  0  0
    3.3680   -2.3790   -0.1210 C   0  0  0  0  0  0  0  0  0  0  0  0
    2.0920   -1.9510   -0.1490 N   0  0  0  0  0  0  0  0  0  0  0  0
    1.7900   -0.6320   -0.1680 C   0  0  0  0  0  0  0  0  0  0  0  0
    2.8500    0.2500   -0.1570 C   0  0  0  0  0  0  0  0  0  0  0  0
    2.3290    1.4730   -0.1790 N   0  0  0  0  0  0  0  0  0  0  0  0
    0.9930    1.3900   -0.2030 C   0  0  0  0  0  0  0  0  0  0  0  0
    0.6590    0.0890   -0.1960 N   0  0  0  0  0  0  0  0  0  0  0  0
   -0.6670   -0.4260   -0.2150 C   0  0  2  0  0  0  0  0  0  0  0  0
   -1.4700    0.1190   -1.2080 O   0  0  0  0  0  0  0  0  0  0  0  0
   -2.7770   -0.0340   -0.8290 C   0  0  2  0  0  0  0  0  0  0  0  0
   -3.4460    1.3410   -0.8630 C   0  0  0  0  0  0  0  0  0  0  0  0
   -2.8100    2.2210    0.0070 O   0  0  0  0  0  0  0  0  0  0  0  0
   -2.8260   -0.5190    0.6000 C   0  0  1  0  0  0  0  0  0  0  0  0
   -2.9260   -1.9070    0.5930 O   0  0  0  0  0  0  0  0  0  0  0  0
   -1.4340   -0.1640    1.0650 C   0  0  1  0  0  0  0  0  0  0  0  0
   -1.0030   -0.9840    2.1010 O   0  0  0  0  0  0  0  0  0  0  0  0
  1  2  1  0
  2  3  2  0
  2  7  1  0
  3  4  1  0
  4  5  2  0
  5  6  1  0
  6  7  2  0
  6 10  1  0
  7  8  1  0
  8  9  2  0
  9 10  1  0
 11 10  1  1
 11 12  1  0
 11 18  1  0
 12 13  1  0
 13 14  1  1
 13 16  1  0
 14 15  1  0
 16 17  1  6
 16 18  1  0
 18 19  1  1
M  END
