
     RDKit          3D

 38 41  0  0  0  0  0  0  0  0999 V2000
    0.5510   -5.0580   -2.4730 C   0  0  0  0  0  0  0  0  0  0  0  0
    1.0830   -4.2310   -1.4950 O   0  0  0  0  0  0  0  0  0  0  0  0
    0.3850   -3.0860   -1.0570 C   0  0  0  0  0  0  0  0  0  0  0  0
   -0.8220   -2.8980   -1.6790 C   0  0  0  0  0  0  0  0  0  0  0  0
   -1.5840   -1.8240   -1.3420 C   0  0  0  0  0  0  0  0  0  0  0  0
   -1.1780   -0.9200   -0.3930 C   0  0  0  0  0  0  0  0  0  0  0  0
   -2.0780    0.2430   -0.1200 C   0  0  0  0  0  0  0  0  0  0  0  0
   -1.7290    1.1140    0.7150 O   0  0  0  0  0  0  0  0  0  0  0  0
   -3.2730    0.4030   -0.7420 O   0  0  0  0  0  0  0  0  0  0  0  0
   -4.1730    1.4570   -0.5460 C   0  0  1  0  0  0  0  0  0  0  0  0
   -3.5950    2.8110   -0.8700 C   0  0  0  0  0  0  0  0  0  0  0  0
   -5.3110    1.2310   -1.5380 C   0  0  0  0  0  0  0  0  0  0  0  0
   -6.3470    2.3040   -1.4610 C   0  0  0  0  0  0  0  0  0  0  0  0
   -6.8360    2.5050   -0.0650 C   0  0  0  0  0  0  0  0  0  0  0  0
   -5.7730    2.5520    0.9810 C   0  0  0  0  0  0  0  0  0  0  0  0
   -4.7420    1.4620    0.8390 C   0  0  1  0  0  0  0  0  0  0  0  0
   -5.3720    0.2580    1.1350 O   0  0  0  0  0  0  0  0  0  0  0  0
    0.0450   -1.0990    0.2500 C   0  0  0  0  0  0  0  0  0  0  0  0
    0.8860   -2.2140   -0.0680 C   0  0  0  0  0  0  0  0  0  0  0  0
    2.0580   -2.4240    0.5160 O   0  0  0  0  0  0  0  0  0  0  0  0
    2.9250   -3.0490    1.3340 C   0  0  2  0  0  0  0  0  0  0  0  0
    2.5260   -3.5130    2.6800 C   0  0  0  0  0  0  0  0  0  0  0  0
    4.2750   -2.2680    1.3400 C   0  0  0  0  0  0  0  0  0  0  0  0
    3.8900   -0.9140    1.8620 C   0  0  1  0  0  0  0  0  0  0  0  0
    3.7850   -1.0260    3.2220 O   0  0  0  0  0  0  0  0  0  0  0  0
    4.7370    0.2360    1.4950 C   0  0  0  0  0  0  0  0  0  0  0  0
    4.0840    1.1240    0.4720 C   0  0  0  0  0  0  0  0  0  0  0  0
    4.7930    1.2390   -0.7060 C   0  0  0  0  0  0  0  0  0  0  0  0
    4.3890    1.9980   -1.7760 C   0  0  0  0  0  0  0  0  0  0  0  0
    5.2180    2.0600   -3.0030 C   0  0  0  0  0  0  0  0  0  0  0  0
    3.2030    2.6890   -1.6700 C   0  0  0  0  0  0  0  0  0  0  0  0
    2.4960    2.5760   -0.4980 C   0  0  0  0  0  0  0  0  0  0  0  0
    2.9100    1.7940    0.6070 C   0  0  0  0  0  0  0  0  0  0  0  0
    2.0580    1.8280    1.6570 O   0  0  0  0  0  0  0  0  0  0  0  0
    1.5840    1.1860    2.6950 C   0  0  0  0  0  0  0  0  0  0  0  0
    1.8260    1.3820    3.9410 O   0  0  0  0  0  0  0  0  0  0  0  0
    0.6080    0.0370    2.4940 C   0  0  0  0  0  0  0  0  0  0  0  0
    0.3680   -0.1610    1.1680 O   0  0  0  0  0  0  0  0  0  0  0  0
  1  2  1  0
  2  3  1  0
  3  4  2  0
  3 19  1  0
  4  5  1  0
  5  6  2  0
  6  7  1  0
  6 18  1  0
  7  8  2  0
  7  9  1  0
  9 10  1  0
 10 11  1  6
 10 12  1  0
 10 16  1  0
 12 13  1  0
 13 14  1  0
 14 15  1  0
 15 16  1  0
 16 17  1  6
 18 19  2  0
 18 38  1  0
 19 20  1  0
 20 21  1  0
 21 22  1  1
 21 23  1  0
 23 24  1  0
 24 25  1  1
 24 26  1  0
 26 27  1  0
 27 28  2  0
 27 33  1  0
 28 29  1  0
 29 30  1  0
 29 31  2  0
 31 32  1  0
 32 33  2  0
 33 34  1  0
 34 35  1  0
 35 36  2  0
 35 37  1  0
 37 38  1  0
M  END
