
     RDKit          3D

 38 42  0  0  0  0  0  0  0  0999 V2000
   -6.1300    3.3790    0.0540 C   0  0  0  0  0  0  0  0  0  0  0  0
   -6.0660    1.9350    0.3830 C   0  0  0  0  0  0  0  0  0  0  0  0
   -6.8130    1.4060    1.4010 C   0  0  0  0  0  0  0  0  0  0  0  0
   -6.7770    0.0720    1.7330 C   0  0  0  0  0  0  0  0  0  0  0  0
   -5.9650   -0.7490    1.0190 C   0  0  0  0  0  0  0  0  0  0  0  0
   -5.9370   -2.0960    1.3640 O   0  0  0  0  0  0  0  0  0  0  0  0
   -5.1710   -0.2790   -0.0370 C   0  0  0  0  0  0  0  0  0  0  0  0
   -4.4060   -1.1600   -0.6770 O   0  0  0  0  0  0  0  0  0  0  0  0
   -3.5050   -1.1620   -1.6970 C   0  0  0  0  0  0  0  0  0  0  0  0
   -2.2500   -0.3240   -1.4670 C   0  0  0  0  0  0  0  0  0  0  0  0
   -1.5050   -0.7910   -0.2740 C   0  0  1  0  0  0  0  0  0  0  0  0
   -1.0380   -2.2570   -0.3830 C   0  0  0  0  0  0  0  0  0  0  0  0
   -0.4260   -2.5270    0.8010 O   0  0  0  0  0  0  0  0  0  0  0  0
    0.9150   -2.9190    0.7340 C   0  0  1  0  0  0  0  0  0  0  0  0
    1.2990   -3.4380   -0.6050 C   0  0  0  0  0  0  0  0  0  0  0  0
    1.8400   -1.9450    1.3300 C   0  0  0  0  0  0  0  0  0  0  0  0
    2.7470   -1.3740    0.3840 O   0  0  0  0  0  0  0  0  0  0  0  0
    3.6380   -0.3250    0.6370 C   0  0  0  0  0  0  0  0  0  0  0  0
    5.0760   -0.8850    0.8300 C   0  0  2  0  0  0  0  0  0  0  0  0
    6.1160   -0.5150   -0.1760 C   0  0  0  0  0  0  0  0  0  0  0  0
    5.4950   -1.8410   -0.2390 C   0  0  2  0  0  0  0  0  0  0  0  0
    4.7690   -2.1380   -1.4930 C   0  0  0  0  0  0  0  0  0  0  0  0
    4.6290   -0.9490   -2.2460 O   0  0  0  0  0  0  0  0  0  0  0  0
    3.4980    0.9690    0.6820 C   0  0  0  0  0  0  0  0  0  0  0  0
    4.7540    1.6720    1.0970 C   0  0  0  0  0  0  0  0  0  0  0  0
    5.7960    1.0720    1.4940 O   0  0  0  0  0  0  0  0  0  0  0  0
    4.9230    3.0450    1.1220 O   0  0  0  0  0  0  0  0  0  0  0  0
    3.9050    3.8510    0.7610 C   0  0  0  0  0  0  0  0  0  0  0  0
    4.0770    5.1120    0.7970 O   0  0  0  0  0  0  0  0  0  0  0  0
    2.6430    3.2470    0.3430 C   0  0  0  0  0  0  0  0  0  0  0  0
    1.7100    4.2280   -0.0250 C   0  0  0  0  0  0  0  0  0  0  0  0
    0.4830    3.8630   -0.4810 C   0  0  0  0  0  0  0  0  0  0  0  0
    0.2390    2.5310   -0.5570 C   0  0  0  0  0  0  0  0  0  0  0  0
    1.1590    1.5220   -0.1940 C   0  0  0  0  0  0  0  0  0  0  0  0
    2.3860    1.8570    0.2780 C   0  0  0  0  0  0  0  0  0  0  0  0
    0.5710    0.2130   -0.6010 C   0  0  0  0  0  0  0  0  0  0  0  0
   -0.4920   -0.0290    0.2020 O   0  0  0  0  0  0  0  0  0  0  0  0
   -5.2430    1.0570   -0.3290 C   0  0  0  0  0  0  0  0  0  0  0  0
  1  2  1  0
  2  3  2  0
  2 38  1  0
  3  4  1  0
  4  5  2  0
  5  6  1  0
  5  7  1  0
  7  8  1  0
  7 38  2  0
  8  9  1  0
  9 10  1  0
 11 10  1  6
 11 12  1  0
 11 37  1  0
 12 13  1  0
 13 14  1  0
 14 15  1  6
 14 16  1  0
 16 17  1  0
 17 18  1  0
 19 18  1  6
 18 24  2  0
 19 20  1  0
 19 21  1  0
 20 21  1  0
 21 22  1  6
 22 23  1  0
 24 25  1  0
 24 35  1  0
 25 26  2  0
 25 27  1  0
 27 28  1  0
 28 29  2  0
 28 30  1  0
 30 31  2  0
 30 35  1  0
 31 32  1  0
 32 33  2  0
 33 34  1  0
 34 35  2  0
 34 36  1  0
 36 37  1  0
M  END
