
     RDKit          3D

 38 41  0  0  0  0  0  0  0  0999 V2000
    3.3070    3.3600   -0.7960 C   0  0  0  0  0  0  0  0  0  0  0  0
    2.4710    2.5780   -1.8660 C   0  0  2  0  0  0  0  0  0  0  0  0
    1.4590    1.7930   -1.0920 C   0  0  0  0  0  0  0  0  0  0  0  0
    0.4120    1.1100   -1.4030 C   0  0  0  0  0  0  0  0  0  0  0  0
   -0.6030    0.3260   -0.6520 C   0  0  0  0  0  0  0  0  0  0  0  0
   -1.9190    0.5640   -0.9320 C   0  0  0  0  0  0  0  0  0  0  0  0
   -3.0180   -0.1050   -0.3010 C   0  0  0  0  0  0  0  0  0  0  0  0
   -2.9610   -1.4980   -0.2920 C   0  0  0  0  0  0  0  0  0  0  0  0
   -3.9500   -2.2360    0.2650 C   0  0  0  0  0  0  0  0  0  0  0  0
   -5.0350   -1.6460    0.8360 C   0  0  0  0  0  0  0  0  0  0  0  0
   -5.1050   -0.2750    0.8350 C   0  0  0  0  0  0  0  0  0  0  0  0
   -4.0910    0.5200    0.2640 C   0  0  0  0  0  0  0  0  0  0  0  0
   -4.2630    1.8390    0.3230 O   0  0  0  0  0  0  0  0  0  0  0  0
   -3.5980    2.9780    0.0120 C   0  0  1  0  0  0  0  0  0  0  0  0
   -4.2950    3.8800   -1.0340 C   0  0  0  0  0  0  0  0  0  0  0  0
   -5.0300    4.5230    0.1260 C   0  0  0  0  0  0  0  0  0  0  0  0
   -3.8310    4.1570    0.9850 C   0  0  0  0  0  0  0  0  0  0  0  0
   -6.0390   -2.4380    1.4010 O   0  0  0  0  0  0  0  0  0  0  0  0
   -5.7590   -3.7460    1.8460 C   0  0  0  0  0  0  0  0  0  0  0  0
   -5.0530   -4.5060    0.7320 C   0  0  0  0  0  0  0  0  0  0  0  0
   -3.8970   -3.7090    0.2790 C   0  0  0  0  0  0  0  0  0  0  0  0
   -2.8440   -4.2570   -0.1040 O   0  0  0  0  0  0  0  0  0  0  0  0
   -0.3710   -0.7040    0.3430 C   0  0  0  0  0  0  0  0  0  0  0  0
   -1.0250   -0.7510    1.4270 O   0  0  0  0  0  0  0  0  0  0  0  0
    0.6450   -1.8090    0.2160 C   0  0  0  0  0  0  0  0  0  0  0  0
    1.6830   -1.7310    1.3150 C   0  0  1  0  0  0  0  0  0  0  0  0
    1.9640   -3.0030    1.8300 O   0  0  0  0  0  0  0  0  0  0  0  0
    2.9950   -1.1580    0.7840 C   0  0  0  0  0  0  0  0  0  0  0  0
    4.1820   -1.9410    1.2360 C   0  0  0  0  0  0  0  0  0  0  0  0
    5.1640   -2.1860    0.1040 C   0  0  0  0  0  0  0  0  0  0  0  0
    6.3650   -1.2750    0.2040 C   0  0  0  0  0  0  0  0  0  0  0  0
    5.9800    0.1020    0.6080 C   0  0  0  0  0  0  0  0  0  0  0  0
    6.3690    0.4950    1.7390 O   0  0  0  0  0  0  0  0  0  0  0  0
    5.2330    0.8480   -0.2690 O   0  0  0  0  0  0  0  0  0  0  0  0
    5.4490    0.9590   -1.6420 C   0  0  0  0  0  0  0  0  0  0  0  0
    4.2130    0.8850   -2.4670 C   0  0  0  0  0  0  0  0  0  0  0  0
    3.9890   -0.2510   -3.0290 O   0  0  0  0  0  0  0  0  0  0  0  0
    3.3180    1.8690   -2.6850 O   0  0  0  0  0  0  0  0  0  0  0  0
  2  1  1  1
  2  3  1  0
  2 38  1  0
  3  4  2  0
  4  5  1  0
  5  6  2  3
  5 23  1  0
  6  7  1  0
  7  8  2  0
  7 12  1  0
  8  9  1  0
  9 10  2  0
  9 21  1  0
 10 11  1  0
 10 18  1  0
 11 12  2  0
 12 13  1  0
 14 13  1  1
 14 15  1  0
 14 17  1  0
 15 16  1  0
 16 17  1  0
 18 19  1  0
 19 20  1  0
 20 21  1  0
 21 22  2  0
 23 24  2  0
 23 25  1  0
 25 26  1  0
 26 27  1  6
 26 28  1  0
 28 29  1  0
 29 30  1  0
 30 31  1  0
 31 32  1  0
 32 33  2  0
 32 34  1  0
 34 35  1  0
 35 36  1  0
 36 37  2  0
 36 38  1  0
M  END
