
     RDKit          3D

 38 41  0  0  0  0  0  0  0  0999 V2000
    3.5680    1.5830    2.3830 C   0  0  0  0  0  0  0  0  0  0  0  0
    2.6800    1.5850    1.1350 C   0  0  1  0  0  0  0  0  0  0  0  0
    1.8260    2.7060    1.3010 O   0  0  0  0  0  0  0  0  0  0  0  0
    0.4480    2.6750    1.1490 C   0  0  0  0  0  0  0  0  0  0  0  0
   -0.2560    3.3660    1.8820 O   0  0  0  0  0  0  0  0  0  0  0  0
   -0.0430    1.7640    0.0630 C   0  0  0  0  0  0  0  0  0  0  0  0
   -1.5290    1.9320   -0.1520 C   0  0  0  0  0  0  0  0  0  0  0  0
   -2.0610    3.1280    0.0130 O   0  0  0  0  0  0  0  0  0  0  0  0
   -3.0210    4.0120    0.1250 C   0  0  0  0  0  0  0  0  0  0  0  0
   -2.4580    5.4440    0.3450 C   0  0  0  0  0  0  0  0  0  0  0  0
   -3.4930    6.3560    0.4580 O   0  0  0  0  0  0  0  0  0  0  0  0
   -2.1830    0.8470   -0.4950 C   0  0  0  0  0  0  0  0  0  0  0  0
   -1.6310   -0.4920   -0.6920 C   0  0  0  0  0  0  0  0  0  0  0  0
   -2.3680   -1.5010   -0.1860 C   0  0  0  0  0  0  0  0  0  0  0  0
   -3.6200   -1.2490    0.5030 C   0  0  0  0  0  0  0  0  0  0  0  0
   -4.0970   -2.0590    1.4450 C   0  0  0  0  0  0  0  0  0  0  0  0
   -3.3950   -3.2930    1.8780 C   0  0  0  0  0  0  0  0  0  0  0  0
   -4.4570   -4.1780    2.4990 C   0  0  0  0  0  0  0  0  0  0  0  0
   -5.5300   -3.1910    2.8620 C   0  0  0  0  0  0  0  0  0  0  0  0
   -5.2390   -1.9800    2.1870 O   0  0  0  0  0  0  0  0  0  0  0  0
   -4.4100   -0.0710    0.1740 C   0  0  0  0  0  0  0  0  0  0  0  0
   -3.6800    0.9590   -0.6970 C   0  0  2  0  0  0  0  0  0  0  0  0
   -4.0560    0.7920   -2.1120 C   0  0  0  0  0  0  0  0  0  0  0  0
   -4.6480    1.7230   -2.7020 O   0  0  0  0  0  0  0  0  0  0  0  0
   -3.7910   -0.3530   -2.8470 O   0  0  0  0  0  0  0  0  0  0  0  0
   -0.3930   -0.8670   -1.3930 C   0  0  0  0  0  0  0  0  0  0  0  0
    0.4790   -1.8460   -0.6240 C   0  0  0  0  0  0  0  0  0  0  0  0
    1.1990   -2.8040   -1.5040 C   0  0  0  0  0  0  0  0  0  0  0  0
    2.6880   -2.6010   -1.2990 C   0  0  0  0  0  0  0  0  0  0  0  0
    3.1990   -1.4120   -2.0570 C   0  0  0  0  0  0  0  0  0  0  0  0
    4.0550   -0.4750   -1.2200 C   0  0  1  0  0  0  0  0  0  0  0  0
    4.5660   -1.0950    0.0350 C   0  0  0  0  0  0  0  0  0  0  0  0
    5.9140   -0.4610    0.3170 C   0  0  0  0  0  0  0  0  0  0  0  0
    6.3870    0.1310   -0.9920 C   0  0  0  0  0  0  0  0  0  0  0  0
    5.3670   -0.3180   -2.0160 C   0  0  0  0  0  0  0  0  0  0  0  0
    3.5280    0.7990   -1.1160 O   0  0  0  0  0  0  0  0  0  0  0  0
    3.4950    1.7040   -0.1040 C   0  0  0  0  0  0  0  0  0  0  0  0
    4.1980    2.7760   -0.1530 O   0  0  0  0  0  0  0  0  0  0  0  0
  2  1  1  1
  2  3  1  0
  2 37  1  0
  3  4  1  0
  4  5  2  0
  4  6  1  0
  6  7  1  0
  7  8  1  0
  7 12  2  0
  8  9  1  0
  9 10  1  0
 10 11  1  0
 12 13  1  0
 12 22  1  0
 13 14  2  0
 13 26  1  0
 14 15  1  0
 15 16  2  3
 15 21  1  0
 16 17  1  0
 16 20  1  0
 17 18  1  0
 18 19  1  0
 19 20  1  0
 21 22  1  0
 22 23  1  6
 23 24  2  0
 23 25  1  0
 26 27  1  0
 27 28  1  0
 28 29  1  0
 29 30  1  0
 31 30  1  6
 31 32  1  0
 31 35  1  0
 31 36  1  0
 32 33  1  0
 33 34  1  0
 34 35  1  0
 36 37  1  0
 37 38  2  0
M  END
