
     RDKit          3D

 15 16  0  0  0  0  0  0  0  0999 V2000
   -2.4330    1.3600    1.6540 C   0  0  0  0  0  0  0  0  0  0  0  0
   -1.6270    0.5150    0.7380 C   0  0  0  0  0  0  0  0  0  0  0  0
   -0.2640    0.6660    0.6920 C   0  0  0  0  0  0  0  0  0  0  0  0
    0.5580   -0.0990   -0.1490 C   0  0  0  0  0  0  0  0  0  0  0  0
    2.0000    0.1440   -0.1190 C   0  0  0  0  0  0  0  0  0  0  0  0
    3.0170   -0.4540   -0.8290 C   0  0  0  0  0  0  0  0  0  0  0  0
    4.2390    0.1210   -0.4530 C   0  0  0  0  0  0  0  0  0  0  0  0
    3.8740    1.0580    0.4890 C   0  0  0  0  0  0  0  0  0  0  0  0
    2.5980    1.0450    0.6540 O   0  0  0  0  0  0  0  0  0  0  0  0
   -0.0470   -1.0300   -0.9500 C   0  0  0  0  0  0  0  0  0  0  0  0
    0.7390   -1.7980   -1.7890 O   0  0  0  0  0  0  0  0  0  0  0  0
   -1.4290   -1.1790   -0.8990 C   0  0  0  0  0  0  0  0  0  0  0  0
   -2.2360   -0.4230   -0.0680 C   0  0  0  0  0  0  0  0  0  0  0  0
   -3.6850   -0.5860   -0.0220 C   0  0  0  0  0  0  0  0  0  0  0  0
   -4.4610   -0.9430   -1.4220 S   0  0  0  0  0  0  0  0  0  0  0  0
  1  2  1  0
  2  3  2  0
  2 13  1  0
  3  4  1  0
  4  5  1  0
  4 10  2  0
  5  6  2  0
  5  9  1  0
  6  7  1  0
  7  8  2  0
  8  9  1  0
 10 11  1  0
 10 12  1  0
 12 13  2  0
 13 14  1  0
 14 15  2  0
M  END
