
     RDKit          3D

 15 16  0  0  0  0  0  0  0  0999 V2000
    1.7630   -2.1950   -1.1030 O   0  0  0  0  0  0  0  0  0  0  0  0
    1.6400   -1.5130    0.1100 C   0  0  2  0  0  0  0  0  0  0  0  0
    0.2350   -1.4760    0.5960 C   0  0  0  0  0  0  0  0  0  0  0  0
   -0.7930   -0.8920   -0.2930 C   0  0  2  0  0  0  0  0  0  0  0  0
   -0.7610   -1.7010   -1.4730 O   0  0  0  0  0  0  0  0  0  0  0  0
   -0.6450    0.4970   -0.7640 C   0  0  0  0  0  0  0  0  0  0  0  0
   -1.1860    1.4500    0.2780 C   0  0  0  0  0  0  0  0  0  0  0  0
   -2.6990    1.3640    0.1990 C   0  0  0  0  0  0  0  0  0  0  0  0
   -3.1620   -0.0530   -0.0240 C   0  0  0  0  0  0  0  0  0  0  0  0
   -2.1410   -1.0810    0.3640 C   0  0  0  0  0  0  0  0  0  0  0  0
    2.3830   -0.2330    0.1070 C   0  0  0  0  0  0  0  0  0  0  0  0
    2.2410    0.9220    0.7550 C   0  0  0  0  0  0  0  0  0  0  0  0
    3.1110    1.9210    0.5050 C   0  0  0  0  0  0  0  0  0  0  0  0
    4.0650    1.7100   -0.3690 C   0  0  0  0  0  0  0  0  0  0  0  0
    3.7780    0.0070   -0.9170 S   0  0  0  0  0  0  0  0  0  0  0  0
  2  1  1  6
  2  3  1  0
  2 11  1  0
  3  4  1  0
  4  5  1  6
  4  6  1  0
  4 10  1  0
  6  7  1  0
  7  8  1  0
  8  9  1  0
  9 10  1  0
 11 12  2  0
 11 15  1  0
 12 13  1  0
 13 14  2  0
 14 15  1  0
M  END
