
     RDKit          3D

 15 15  0  0  0  0  0  0  0  0999 V2000
    4.4460    0.2310   -0.1880 C   0  0  0  0  0  0  0  0  0  0  0  0
    3.1270   -0.4920   -0.0250 C   0  0  0  0  0  0  0  0  0  0  0  0
    2.0350    0.2080    0.0340 C   0  0  0  0  0  0  0  0  0  0  0  0
    0.6660   -0.2180    0.1840 C   0  0  0  0  0  0  0  0  0  0  0  0
    0.3570   -1.5580    0.2900 C   0  0  0  0  0  0  0  0  0  0  0  0
    1.3100   -2.5510    0.2610 O   0  0  0  0  0  0  0  0  0  0  0  0
   -0.9820   -1.9340    0.4350 C   0  0  0  0  0  0  0  0  0  0  0  0
   -1.3090   -3.2670    0.5420 O   0  0  0  0  0  0  0  0  0  0  0  0
   -1.9680   -0.9470    0.4680 C   0  0  0  0  0  0  0  0  0  0  0  0
   -3.3820   -1.3240    0.6190 C   0  0  0  0  0  0  0  0  0  0  0  0
   -1.6650    0.3770    0.3630 C   0  0  0  0  0  0  0  0  0  0  0  0
   -2.6920    1.4280    0.3960 C   0  0  0  0  0  0  0  0  0  0  0  0
   -0.3500    0.7480    0.2210 C   0  0  0  0  0  0  0  0  0  0  0  0
    0.0700    2.4540    0.0830 S   0  0  0  0  0  0  0  0  0  0  0  0
    0.0960    3.0370   -1.6200 C   0  0  0  0  0  0  0  0  0  0  0  0
  1  2  1  0
  2  3  2  3
  3  4  1  0
  4  5  2  0
  4 13  1  0
  5  6  1  0
  5  7  1  0
  7  8  1  0
  7  9  2  0
  9 10  1  0
  9 11  1  0
 11 12  1  0
 11 13  2  0
 13 14  1  0
 14 15  1  0
M  END
