
     RDKit          3D

 15 16  0  0  0  0  0  0  0  0999 V2000
    4.6440    1.1500    0.7050 O   0  0  0  0  0  0  0  0  0  0  0  0
    4.4390   -0.0230    0.0020 C   0  0  0  0  0  0  0  0  0  0  0  0
    3.2290   -0.4310   -0.2250 C   0  0  0  0  0  0  0  0  0  0  0  0
    3.0490   -1.6260   -0.9410 O   0  0  0  0  0  0  0  0  0  0  0  0
    2.0480    0.2940    0.2290 C   0  0  0  0  0  0  0  0  0  0  0  0
    0.8520   -0.1470   -0.0180 C   0  0  0  0  0  0  0  0  0  0  0  0
   -0.3700    0.5360    0.4110 C   0  0  0  0  0  0  0  0  0  0  0  0
   -0.2530    1.7010    1.1090 C   0  0  0  0  0  0  0  0  0  0  0  0
   -1.8990    2.1930    1.4300 S   0  0  0  0  0  0  0  0  0  0  0  0
   -2.6440    0.8490    0.6330 C   0  0  0  0  0  0  0  0  0  0  0  0
   -4.0170    0.5270    0.4600 C   0  0  0  0  0  0  0  0  0  0  0  0
   -4.3750   -0.6120   -0.2200 C   0  0  0  0  0  0  0  0  0  0  0  0
   -3.3360   -1.3740   -0.6930 C   0  0  0  0  0  0  0  0  0  0  0  0
   -2.0350   -1.0470   -0.5160 C   0  0  0  0  0  0  0  0  0  0  0  0
   -1.6410    0.1090    0.1730 C   0  0  0  0  0  0  0  0  0  0  0  0
  1  2  1  0
  2  3  2  3
  3  4  1  0
  3  5  1  0
  5  6  2  3
  6  7  1  0
  7  8  2  0
  7 15  1  0
  8  9  1  0
  9 10  1  0
 10 11  2  0
 10 15  1  0
 11 12  1  0
 12 13  2  0
 13 14  1  0
 14 15  2  0
M  END
