
     RDKit          3D

 15 16  0  0  0  0  0  0  0  0999 V2000
    3.5080    0.5310    1.3010 C   0  0  0  0  0  0  0  0  0  0  0  0
    2.1560   -0.1370    1.0560 C   0  0  0  0  0  0  0  0  0  0  0  0
    2.1800   -0.8270   -0.2950 C   0  0  0  0  0  0  0  0  0  0  0  0
    0.8720   -1.5120   -0.6090 C   0  0  0  0  0  0  0  0  0  0  0  0
   -0.2700   -0.6120   -0.6450 C   0  0  0  0  0  0  0  0  0  0  0  0
   -0.4740    0.2210   -1.7210 C   0  0  0  0  0  0  0  0  0  0  0  0
    0.4040    0.2050   -2.7630 O   0  0  0  0  0  0  0  0  0  0  0  0
   -1.5760    1.0290   -1.6660 C   0  0  0  0  0  0  0  0  0  0  0  0
   -2.4730    1.0640   -0.6280 C   0  0  0  0  0  0  0  0  0  0  0  0
   -3.5720    1.9420   -0.6870 O   0  0  0  0  0  0  0  0  0  0  0  0
   -2.2710    0.2170    0.4740 C   0  0  0  0  0  0  0  0  0  0  0  0
   -3.0540    0.1300    1.5700 C   0  0  0  0  0  0  0  0  0  0  0  0
   -2.7340   -0.7330    2.5590 C   0  0  0  0  0  0  0  0  0  0  0  0
   -1.1780   -1.5130    1.9020 S   0  0  0  0  0  0  0  0  0  0  0  0
   -1.1770   -0.5850    0.4170 C   0  0  0  0  0  0  0  0  0  0  0  0
  1  2  1  0
  2  3  1  0
  3  4  1  0
  4  5  1  0
  5  6  2  0
  5 15  1  0
  6  7  1  0
  6  8  1  0
  8  9  2  0
  9 10  1  0
  9 11  1  0
 11 12  1  0
 11 15  2  0
 12 13  2  0
 13 14  1  0
 14 15  1  0
M  END
