
     RDKit          3D

 13 14  0  0  0  0  0  0  0  0999 V2000
   -0.8950   -2.0310   -0.7560 C   0  0  0  0  0  0  0  0  0  0  0  0
   -0.7760   -0.7570   -0.3610 C   0  0  0  0  0  0  0  0  0  0  0  0
   -1.7870    0.1480   -0.1370 C   0  0  0  0  0  0  0  0  0  0  0  0
   -3.0820   -0.0580   -0.2680 C   0  0  0  0  0  0  0  0  0  0  0  0
   -4.0260    0.9770   -0.0010 N   0  0  0  0  0  0  0  0  0  0  0  0
   -1.2280    1.3310    0.2540 N   0  0  0  0  0  0  0  0  0  0  0  0
    0.0980    1.2260    0.2910 C   0  0  0  0  0  0  0  0  0  0  0  0
    1.0890    2.1270    0.6180 C   0  0  0  0  0  0  0  0  0  0  0  0
    2.4020    1.7100    0.5600 C   0  0  0  0  0  0  0  0  0  0  0  0
    2.7100    0.4040    0.1770 C   0  0  0  0  0  0  0  0  0  0  0  0
    4.0580   -0.0100    0.1210 N   0  0  0  0  0  0  0  0  0  0  0  0
    1.6890   -0.4760   -0.1450 C   0  0  0  0  0  0  0  0  0  0  0  0
    0.3910   -0.0720   -0.0900 C   0  0  0  0  0  0  0  0  0  0  0  0
  1  2  2  0
  2  3  1  0
  2 13  1  0
  3  4  2  3
  3  6  1  0
  4  5  1  0
  6  7  1  0
  7  8  2  0
  7 13  1  0
  8  9  1  0
  9 10  2  0
 10 11  1  0
 10 12  1  0
 12 13  2  0
M  END
