
     RDKit          3D

 19 20  0  0  0  0  0  0  0  0999 V2000
    6.7580   -0.6110    0.8850 C   0  0  0  0  0  0  0  0  0  0  0  0
    5.6630   -0.3440    0.0050 O   0  0  0  0  0  0  0  0  0  0  0  0
    4.3540   -0.3870    0.4720 C   0  0  0  0  0  0  0  0  0  0  0  0
    4.2200   -0.6740    1.7060 O   0  0  0  0  0  0  0  0  0  0  0  0
    3.1920   -0.1150   -0.4130 C   0  0  0  0  0  0  0  0  0  0  0  0
    1.9470   -0.2510    0.4300 C   0  0  0  0  0  0  0  0  0  0  0  0
    0.7260    0.0230   -0.4530 C   0  0  0  0  0  0  0  0  0  0  0  0
    0.8840    0.2970   -1.6240 O   0  0  0  0  0  0  0  0  0  0  0  0
   -0.5480   -0.0520    0.1230 N   0  0  0  0  0  0  0  0  0  0  0  0
   -1.8340    0.1280   -0.3410 C   0  0  0  0  0  0  0  0  0  0  0  0
   -2.3250    0.4450   -1.5070 C   0  0  0  0  0  0  0  0  0  0  0  0
   -1.4610    0.7220   -2.6910 C   0  0  0  0  0  0  0  0  0  0  0  0
   -3.7960    0.3640   -1.7150 C   0  0  0  0  0  0  0  0  0  0  0  0
   -4.6800   -0.0290   -0.8220 C   0  0  0  0  0  0  0  0  0  0  0  0
   -4.2280   -0.4480    0.4850 C   0  0  2  0  0  0  0  0  0  0  0  0
   -4.9610   -0.2270    1.6510 N   0  0  0  0  0  0  0  0  0  0  0  0
   -4.2520    0.3850    2.5310 C   0  0  0  0  0  0  0  0  0  0  0  0
   -2.9300    0.6350    1.9600 C   0  0  0  0  0  0  0  0  0  0  0  0
   -2.9070    0.1540    0.7280 C   0  0  0  0  0  0  0  0  0  0  0  0
  1  2  1  0
  2  3  1  0
  3  4  2  0
  3  5  1  0
  5  6  1  0
  6  7  1  0
  7  8  2  0
  7  9  1  0
  9 10  1  0
 10 11  2  0
 10 19  1  0
 11 12  1  0
 11 13  1  0
 13 14  2  0
 15 14  1  6
 15 16  1  0
 15 19  1  0
 16 17  2  0
 17 18  1  0
 18 19  2  0
M  END
