
     RDKit          3D

 19 20  0  0  0  0  0  0  0  0999 V2000
   -0.8810    2.5760   -1.1260 C   0  0  0  0  0  0  0  0  0  0  0  0
   -1.0280    1.2090   -1.4590 O   0  0  0  0  0  0  0  0  0  0  0  0
   -1.7300    0.3590   -0.6240 C   0  0  0  0  0  0  0  0  0  0  0  0
   -3.0860    0.1760   -0.7830 C   0  0  0  0  0  0  0  0  0  0  0  0
   -3.7800    0.8450   -1.7900 O   0  0  0  0  0  0  0  0  0  0  0  0
   -3.7520   -0.6720    0.0600 C   0  0  0  0  0  0  0  0  0  0  0  0
   -3.0720   -1.3390    1.0610 C   0  0  0  0  0  0  0  0  0  0  0  0
   -3.7820   -2.2710    1.9950 C   0  0  0  0  0  0  0  0  0  0  0  0
   -1.6950   -1.1380    1.2040 C   0  0  0  0  0  0  0  0  0  0  0  0
   -1.0070   -0.2870    0.3640 C   0  0  0  0  0  0  0  0  0  0  0  0
    0.3740   -0.1210    0.5510 N   0  0  0  0  0  0  0  0  0  0  0  0
    1.2520   -0.1830   -0.3880 C   0  0  0  0  0  0  0  0  0  0  0  0
    2.6560    0.0070   -0.0670 C   0  0  0  0  0  0  0  0  0  0  0  0
    2.9990    0.2430    1.2110 N   0  0  0  0  0  0  0  0  0  0  0  0
    4.2690    0.4310    1.6020 C   0  0  0  0  0  0  0  0  0  0  0  0
    5.2610    0.3810    0.6650 C   0  0  0  0  0  0  0  0  0  0  0  0
    4.9450    0.1410   -0.6510 C   0  0  0  0  0  0  0  0  0  0  0  0
    3.6390   -0.0490   -1.0350 C   0  0  0  0  0  0  0  0  0  0  0  0
    3.3640   -0.2870   -2.3680 O   0  0  0  0  0  0  0  0  0  0  0  0
  1  2  1  0
  2  3  1  0
  3  4  2  0
  3 10  1  0
  4  5  1  0
  4  6  1  0
  6  7  2  0
  7  8  1  0
  7  9  1  0
  9 10  2  0
 10 11  1  0
 11 12  2  3
 12 13  1  0
 13 14  2  0
 13 18  1  0
 14 15  1  0
 15 16  2  0
 16 17  1  0
 17 18  2  0
 18 19  1  0
M  END
