
     RDKit          3D

 19 20  0  0  0  0  0  0  0  0999 V2000
    3.5900    1.6470   -0.1040 C   0  0  0  0  0  0  0  0  0  0  0  0
    3.7630    0.3060   -0.1600 C   0  0  0  0  0  0  0  0  0  0  0  0
    5.1430   -0.2000   -0.2480 C   0  0  0  0  0  0  0  0  0  0  0  0
    5.2390   -1.6440   -0.3020 C   0  0  0  0  0  0  0  0  0  0  0  0
    4.1840   -2.4200   -0.2760 C   0  0  0  0  0  0  0  0  0  0  0  0
    2.8430   -1.9330   -0.1900 C   0  0  0  0  0  0  0  0  0  0  0  0
    2.6270   -0.5770   -0.1320 C   0  0  0  0  0  0  0  0  0  0  0  0
    1.3500   -0.1720   -0.0530 O   0  0  0  0  0  0  0  0  0  0  0  0
    0.5720    0.8960    0.0330 C   0  0  0  0  0  0  0  0  0  0  0  0
   -0.8780    0.4250    0.0810 C   0  0  0  0  0  0  0  0  0  0  0  0
   -1.1290   -0.7900    0.0390 O   0  0  0  0  0  0  0  0  0  0  0  0
   -1.8940    1.3840    0.1740 N   0  0  0  0  0  0  0  0  0  0  0  0
   -3.2820    1.0400    0.2250 C   0  0  0  0  0  0  0  0  0  0  0  0
   -3.8740   -0.1380    0.2010 C   0  0  0  0  0  0  0  0  0  0  0  0
   -5.3190   -0.0010    0.2760 C   0  0  0  0  0  0  0  0  0  0  0  0
   -6.3200   -1.1270    0.2740 C   0  0  0  0  0  0  0  0  0  0  0  0
   -5.5880    1.2560    0.3460 N   0  0  0  0  0  0  0  0  0  0  0  0
   -4.3970    2.0150    0.3230 C   0  0  0  0  0  0  0  0  0  0  0  0
   -4.2450    3.2710    0.3720 O   0  0  0  0  0  0  0  0  0  0  0  0
  1  2  2  0
  2  3  1  0
  2  7  1  0
  3  4  1  0
  4  5  2  0
  5  6  1  0
  6  7  2  0
  7  8  1  0
  8  9  1  0
  9 10  1  0
 10 11  2  0
 10 12  1  0
 12 13  1  0
 13 14  2  0
 13 18  1  0
 14 15  1  0
 15 16  1  0
 15 17  2  0
 17 18  1  0
 18 19  2  0
M  END
