
     RDKit          3D

 19 20  0  0  0  0  0  0  0  0999 V2000
    3.6390    1.8270   -0.2600 C   0  0  0  0  0  0  0  0  0  0  0  0
    4.3210    0.7050   -0.1890 C   0  0  0  0  0  0  0  0  0  0  0  0
    3.8630   -0.4480    0.5530 C   0  0  0  0  0  0  0  0  0  0  0  0
    4.6130   -1.5560    0.5950 C   0  0  0  0  0  0  0  0  0  0  0  0
    5.8950   -1.5960   -0.1110 C   0  0  0  0  0  0  0  0  0  0  0  0
    2.6270   -0.4160    1.2450 N   0  0  0  0  0  0  0  0  0  0  0  0
    1.4250   -0.2800    0.4540 C   0  0  0  0  0  0  0  0  0  0  0  0
    1.5430   -0.2080   -0.7660 O   0  0  0  0  0  0  0  0  0  0  0  0
    0.1570   -0.2310    1.0450 N   0  0  0  0  0  0  0  0  0  0  0  0
   -1.0950   -0.1110    0.4070 C   0  0  0  0  0  0  0  0  0  0  0  0
   -1.2520   -0.2140   -0.9440 C   0  0  0  0  0  0  0  0  0  0  0  0
   -2.5260   -0.0640   -1.4770 C   0  0  0  0  0  0  0  0  0  0  0  0
   -3.6060    0.1830   -0.6570 C   0  0  0  0  0  0  0  0  0  0  0  0
   -3.4730    0.2910    0.7140 C   0  0  0  0  0  0  0  0  0  0  0  0
   -2.2140    0.1420    1.2300 C   0  0  0  0  0  0  0  0  0  0  0  0
   -4.5890    0.5400    1.5020 O   0  0  0  0  0  0  0  0  0  0  0  0
   -5.7700    1.0620    0.8770 C   0  0  0  0  0  0  0  0  0  0  0  0
   -6.0290    0.2220   -0.3790 C   0  0  0  0  0  0  0  0  0  0  0  0
   -4.8670    0.3300   -1.1980 O   0  0  0  0  0  0  0  0  0  0  0  0
  1  2  2  0
  2  3  1  0
  3  4  2  3
  3  6  1  0
  4  5  1  0
  6  7  1  0
  7  8  2  0
  7  9  1  0
  9 10  1  0
 10 11  2  0
 10 15  1  0
 11 12  1  0
 12 13  2  0
 13 14  1  0
 13 19  1  0
 14 15  2  0
 14 16  1  0
 16 17  1  0
 17 18  1  0
 18 19  1  0
M  END
