
     RDKit          3D

 21 24  0  0  0  0  0  0  0  0999 V2000
    4.2660   -2.0640    0.9990 C   0  0  0  0  0  0  0  0  0  0  0  0
    3.5710   -0.9370    0.2920 C   0  0  0  0  0  0  0  0  0  0  0  0
    2.1800   -0.8770    0.2690 C   0  0  0  0  0  0  0  0  0  0  0  0
    1.5750    0.1570   -0.3780 C   0  0  0  0  0  0  0  0  0  0  0  0
    0.1430    0.2290   -0.5380 C   0  0  0  0  0  0  0  0  0  0  0  0
   -0.3750    0.5360   -1.8160 C   0  0  0  0  0  0  0  0  0  0  0  0
   -1.7240    0.6380   -2.0430 C   0  0  0  0  0  0  0  0  0  0  0  0
   -2.5450    0.4290   -0.9730 C   0  0  0  0  0  0  0  0  0  0  0  0
   -2.0890    0.1310    0.2910 C   0  0  0  0  0  0  0  0  0  0  0  0
   -2.9860   -0.0300    1.3200 C   0  0  0  0  0  0  0  0  0  0  0  0
   -2.5970   -0.2900    2.6050 C   0  0  0  0  0  0  0  0  0  0  0  0
   -1.2430   -0.3840    2.8270 C   0  0  0  0  0  0  0  0  0  0  0  0
   -0.3200   -0.2240    1.7930 C   0  0  0  0  0  0  0  0  0  0  0  0
   -0.7140    0.0300    0.5140 C   0  0  0  0  0  0  0  0  0  0  0  0
   -4.4370    0.0840    1.0180 C   0  0  0  0  0  0  0  0  0  0  0  0
   -4.7030    0.8990   -0.0530 O   0  0  0  0  0  0  0  0  0  0  0  0
   -4.0000    0.5320   -1.2000 C   0  0  0  0  0  0  0  0  0  0  0  0
    2.3880    1.0760   -0.9720 N   0  0  0  0  0  0  0  0  0  0  0  0
    3.7170    1.0310   -0.9590 C   0  0  0  0  0  0  0  0  0  0  0  0
    4.5040    2.0430   -1.6110 N   0  0  0  0  0  0  0  0  0  0  0  0
    4.2890    0.0040   -0.3140 N   0  0  0  0  0  0  0  0  0  0  0  0
  1  2  1  0
  2  3  2  0
  2 21  1  0
  3  4  1  0
  4  5  1  0
  4 18  2  0
  5  6  2  0
  5 14  1  0
  6  7  1  0
  7  8  2  0
  8  9  1  0
  8 17  1  0
  9 10  2  0
  9 14  1  0
 10 11  1  0
 10 15  1  0
 11 12  2  0
 12 13  1  0
 13 14  2  0
 15 16  1  0
 16 17  1  0
 18 19  1  0
 19 20  1  0
 19 21  2  0
M  END
