
     RDKit          3D

 17 18  0  0  0  0  0  0  0  0999 V2000
    4.8420   -0.0170   -0.1350 C   0  0  0  0  0  0  0  0  0  0  0  0
    3.9160   -0.3340    0.8860 O   0  0  0  0  0  0  0  0  0  0  0  0
    2.5690   -0.1670    0.6220 C   0  0  0  0  0  0  0  0  0  0  0  0
    2.1270    0.2950   -0.5970 C   0  0  0  0  0  0  0  0  0  0  0  0
    0.7630    0.4620   -0.8590 C   0  0  0  0  0  0  0  0  0  0  0  0
   -0.1090    0.1430    0.1590 C   0  0  0  0  0  0  0  0  0  0  0  0
   -1.5070    0.2970   -0.0600 N   0  0  0  0  0  0  0  0  0  0  0  0
   -2.3130   -0.7870    0.0150 C   0  0  0  0  0  0  0  0  0  0  0  0
   -1.7970   -2.0750    0.3080 N   0  0  0  0  0  0  0  0  0  0  0  0
   -3.6690   -0.5930   -0.2050 C   0  0  0  0  0  0  0  0  0  0  0  0
   -4.1070    0.6720   -0.4830 C   0  0  0  0  0  0  0  0  0  0  0  0
   -5.3480    0.8770   -0.6890 O   0  0  0  0  0  0  0  0  0  0  0  0
   -3.2590    1.7150   -0.5450 N   0  0  0  0  0  0  0  0  0  0  0  0
   -1.9470    1.5350   -0.3340 C   0  0  0  0  0  0  0  0  0  0  0  0
   -1.1210    2.5080   -0.3870 O   0  0  0  0  0  0  0  0  0  0  0  0
    0.2820   -0.3210    1.3950 C   0  0  0  0  0  0  0  0  0  0  0  0
    1.6560   -0.4690    1.6010 C   0  0  0  0  0  0  0  0  0  0  0  0
  1  2  1  0
  2  3  1  0
  3  4  2  0
  3 17  1  0
  4  5  1  0
  5  6  2  0
  6  7  1  0
  6 16  1  0
  7  8  1  0
  7 14  1  0
  8  9  1  0
  8 10  2  0
 10 11  1  0
 11 12  2  0
 11 13  1  0
 13 14  1  0
 14 15  2  0
 16 17  2  0
M  END
