
     RDKit          3D

 16 17  0  0  0  0  0  0  0  0999 V2000
   -4.2280    1.6640   -1.0880 C   0  0  0  0  0  0  0  0  0  0  0  0
   -3.4830    1.4300    0.5500 S   0  0  0  0  0  0  0  0  0  0  0  0
   -2.1510    0.2500    0.4970 C   0  0  0  0  0  0  0  0  0  0  0  0
   -2.4440   -1.0440    0.6940 N   0  0  0  0  0  0  0  0  0  0  0  0
   -1.4530   -1.9530    0.6590 C   0  0  0  0  0  0  0  0  0  0  0  0
   -1.6480   -3.3420    0.8540 N   0  0  0  0  0  0  0  0  0  0  0  0
   -0.2030   -1.5220    0.4250 N   0  0  0  0  0  0  0  0  0  0  0  0
    0.1070   -0.2340    0.2250 C   0  0  0  0  0  0  0  0  0  0  0  0
    1.4830    0.1760   -0.0240 C   0  0  0  0  0  0  0  0  0  0  0  0
    1.7870    1.5040   -0.2280 C   0  0  0  0  0  0  0  0  0  0  0  0
    3.0690    1.9400   -0.4670 C   0  0  0  0  0  0  0  0  0  0  0  0
    4.0880    1.0170   -0.5050 C   0  0  0  0  0  0  0  0  0  0  0  0
    3.8350   -0.3240   -0.3070 C   0  0  0  0  0  0  0  0  0  0  0  0
    2.5180   -0.7300   -0.0660 C   0  0  0  0  0  0  0  0  0  0  0  0
    2.1450   -2.4190    0.1900 Cl  0  0  0  0  0  0  0  0  0  0  0  0
   -0.8950    0.6570    0.2650 N   0  0  0  0  0  0  0  0  0  0  0  0
  1  2  1  0
  2  3  1  0
  3  4  2  0
  3 16  1  0
  4  5  1  0
  5  6  1  0
  5  7  2  0
  7  8  1  0
  8  9  1  0
  8 16  2  0
  9 10  2  0
  9 14  1  0
 10 11  1  0
 11 12  2  0
 12 13  1  0
 13 14  2  0
 14 15  1  0
M  END
