
     RDKit          3D

 17 17  0  0  0  0  0  0  0  0999 V2000
   -1.9280   -0.2390    2.5040 C   0  0  0  0  0  0  0  0  0  0  0  0
   -1.9710   -1.0790    1.2740 C   0  0  0  0  0  0  0  0  0  0  0  0
   -2.9260   -2.0230    1.2680 C   0  0  0  0  0  0  0  0  0  0  0  0
   -3.0760   -2.8570    0.2090 O   0  0  0  0  0  0  0  0  0  0  0  0
   -2.2300   -2.7900   -0.8820 C   0  0  0  0  0  0  0  0  0  0  0  0
   -1.2050   -1.7460   -0.8360 C   0  0  0  0  0  0  0  0  0  0  0  0
   -1.0270   -0.8690    0.2020 C   0  0  0  0  0  0  0  0  0  0  0  0
    0.0110    0.0990    0.1190 C   0  0  0  0  0  0  0  0  0  0  0  0
    0.5670    1.0610    0.7150 C   0  0  0  0  0  0  0  0  0  0  0  0
    0.2830    1.6560    1.9820 C   0  0  0  0  0  0  0  0  0  0  0  0
    0.0530    2.1680    3.0250 N   0  0  0  0  0  0  0  0  0  0  0  0
    1.7430    1.7880    0.0730 C   0  0  0  0  0  0  0  0  0  0  0  0
    2.2910    2.7500    0.6910 O   0  0  0  0  0  0  0  0  0  0  0  0
    2.2550    1.4480   -1.1750 N   0  0  0  0  0  0  0  0  0  0  0  0
    3.3820    2.1880   -1.7310 C   0  0  0  0  0  0  0  0  0  0  0  0
    3.8720    1.8250   -2.9900 N   0  0  0  0  0  0  0  0  0  0  0  0
    3.8640    3.1180   -1.0590 O   0  0  0  0  0  0  0  0  0  0  0  0
  1  2  1  0
  2  3  2  0
  2  7  1  0
  3  4  1  0
  4  5  1  0
  5  6  1  0
  6  7  2  0
  7  8  1  0
  8  9  2  3
  9 10  1  0
  9 12  1  0
 10 11  3  0
 12 13  2  0
 12 14  1  0
 14 15  1  0
 15 16  1  0
 15 17  2  0
M  END
