
     RDKit          3D

 17 18  0  0  0  0  0  0  0  0999 V2000
   -5.2600   -0.2990   -0.3290 N   0  0  0  0  0  0  0  0  0  0  0  0
   -3.8440   -0.1300   -0.1960 C   0  0  0  0  0  0  0  0  0  0  0  0
   -3.2790    0.3900    0.9450 C   0  0  0  0  0  0  0  0  0  0  0  0
   -1.9170    0.5310    1.0500 C   0  0  0  0  0  0  0  0  0  0  0  0
   -1.0420    0.1610    0.0160 C   0  0  0  0  0  0  0  0  0  0  0  0
    0.3920    0.2960    0.1890 C   0  0  0  0  0  0  0  0  0  0  0  0
    0.7860    1.0430    1.1690 O   0  0  0  0  0  0  0  0  0  0  0  0
    1.3800   -0.3070   -0.6040 N   0  0  0  0  0  0  0  0  0  0  0  0
    2.7690   -0.1070   -0.3470 C   0  0  0  0  0  0  0  0  0  0  0  0
    3.6160   -1.0770   -0.0410 C   0  0  0  0  0  0  0  0  0  0  0  0
    4.9520   -0.5280    0.1570 C   0  0  0  0  0  0  0  0  0  0  0  0
    4.8750    0.7750   -0.0380 C   0  0  0  0  0  0  0  0  0  0  0  0
    3.5010    1.1420   -0.3690 C   0  0  0  0  0  0  0  0  0  0  0  0
    3.0470    2.2980   -0.6210 O   0  0  0  0  0  0  0  0  0  0  0  0
   -1.6500   -0.3500   -1.0980 C   0  0  0  0  0  0  0  0  0  0  0  0
   -0.9640   -0.7140   -2.0890 O   0  0  0  0  0  0  0  0  0  0  0  0
   -3.0090   -0.4840   -1.1830 N   0  0  0  0  0  0  0  0  0  0  0  0
  1  2  1  0
  2  3  2  0
  2 17  1  0
  3  4  1  0
  4  5  2  0
  5  6  1  0
  5 15  1  0
  6  7  2  0
  6  8  1  0
  8  9  1  0
  9 10  2  0
  9 13  1  0
 10 11  1  0
 11 12  2  0
 12 13  1  0
 13 14  2  0
 15 16  2  0
 15 17  1  0
M  END
