
     RDKit          3D

 12 11  0  0  0  0  0  0  0  0999 V2000
   -1.3640    2.8700   -0.4000 N   0  0  0  0  0  0  0  0  0  0  0  0
   -0.8720    1.5720   -0.7960 C   0  0  0  0  0  0  0  0  0  0  0  0
   -0.4610    0.8610    0.3430 O   0  0  0  0  0  0  0  0  0  0  0  0
    0.0210   -0.3960    0.0080 C   0  0  1  0  0  0  0  0  0  0  0  0
    1.4620   -0.5280    0.4550 C   0  0  0  0  0  0  0  0  0  0  0  0
    2.2860    0.4120   -0.1360 O   0  0  0  0  0  0  0  0  0  0  0  0
    3.5760    0.1950    0.3460 C   0  0  0  0  0  0  0  0  0  0  0  0
    4.4980    1.0840   -0.1800 O   0  0  0  0  0  0  0  0  0  0  0  0
   -0.7720   -1.4560    0.7030 C   0  0  0  0  0  0  0  0  0  0  0  0
   -2.2380   -1.4200    0.3370 C   0  0  1  0  0  0  0  0  0  0  0  0
   -2.3950   -1.6080   -1.0160 O   0  0  0  0  0  0  0  0  0  0  0  0
   -2.9470   -2.3400    1.0910 O   0  0  0  0  0  0  0  0  0  0  0  0
  1  2  1  0
  2  3  1  0
  3  4  1  0
  4  5  1  1
  4  9  1  0
  5  6  1  0
  6  7  1  0
  7  8  1  0
  9 10  1  0
 10 11  1  6
 10 12  1  0
M  CHG  1   1   1
M  END
