
     RDKit          3D

 12 11  0  0  0  0  0  0  0  0999 V2000
   -1.9730   -2.4450   -0.1290 N   0  0  0  0  0  0  0  0  0  0  0  0
   -2.0870   -1.1390   -0.2250 O   0  0  0  0  0  0  0  0  0  0  0  0
   -1.2010   -0.5160   -1.0810 C   0  0  0  0  0  0  0  0  0  0  0  0
   -0.3620    0.4190   -0.1700 C   0  0  2  0  0  0  0  0  0  0  0  0
   -1.1860    0.6200    1.0840 C   0  0  0  0  0  0  0  0  0  0  0  0
   -2.2840    1.4150    0.6620 O   0  0  0  0  0  0  0  0  0  0  0  0
   -0.1460    1.7300   -0.8180 C   0  0  0  0  0  0  0  0  0  0  0  0
   -0.5310    2.8020    0.0260 O   0  0  0  0  0  0  0  0  0  0  0  0
    0.7850   -0.3210    0.0360 O   0  0  0  0  0  0  0  0  0  0  0  0
    1.8030    0.2600    0.6980 C   0  0  0  0  0  0  0  0  0  0  0  0
    3.1340   -0.2300    0.0830 C   0  0  0  0  0  0  0  0  0  0  0  0
    3.2020   -1.5940   -0.0180 O   0  0  0  0  0  0  0  0  0  0  0  0
  1  2  1  0
  2  3  1  0
  4  3  1  6
  4  5  1  0
  4  7  1  0
  4  9  1  0
  5  6  1  0
  7  8  1  0
  9 10  1  0
 10 11  1  0
 11 12  1  0
M  CHG  1   1   1
M  END
