
     RDKit          3D

 12 11  0  0  0  0  0  0  0  0999 V2000
   -1.6940   -1.7790    0.4380 O   0  0  0  0  0  0  0  0  0  0  0  0
   -2.4320   -0.6290    0.6810 C   0  0  0  0  0  0  0  0  0  0  0  0
   -1.7730    0.5880    0.0370 C   0  0  2  0  0  0  0  0  0  0  0  0
   -1.8320    0.4300   -1.4460 C   0  0  0  0  0  0  0  0  0  0  0  0
   -3.1970    0.2530   -1.7770 O   0  0  0  0  0  0  0  0  0  0  0  0
   -0.4590    0.7800    0.5640 N   0  0  0  0  0  0  0  0  0  0  0  0
    0.4670   -0.2620    0.2960 C   0  0  0  0  0  0  0  0  0  0  0  0
    1.8750    0.3030    0.3080 C   0  0  1  0  0  0  0  0  0  0  0  0
    1.9890    1.2940   -0.6720 O   0  0  0  0  0  0  0  0  0  0  0  0
    2.2020    0.8310    1.5510 O   0  0  0  0  0  0  0  0  0  0  0  0
    2.8890   -0.7810   -0.0700 C   0  0  0  0  0  0  0  0  0  0  0  0
    4.1480   -0.1930   -0.0740 O   0  0  0  0  0  0  0  0  0  0  0  0
  1  2  1  0
  3  2  1  1
  3  4  1  0
  3  6  1  0
  4  5  1  0
  6  7  1  0
  7  8  1  0
  8  9  1  6
  8 10  1  0
  8 11  1  0
 11 12  1  0
M  CHG  1   6   1
M  END
