
     RDKit          3D

 13 12  0  0  0  0  0  0  0  0999 V2000
    0.2550   -1.4050    0.6070 N   0  0  0  0  0  0  0  0  0  0  0  0
   -0.0090   -0.0190    0.3110 C   0  0  1  0  0  0  0  0  0  0  0  0
    0.3710    0.2730   -1.1060 C   0  0  0  0  0  0  0  0  0  0  0  0
    1.8020    0.0100   -1.3100 C   0  0  0  0  0  0  0  0  0  0  0  0
    2.2480    0.1910   -2.4860 O   0  0  0  0  0  0  0  0  0  0  0  0
    2.7030   -0.4080   -0.3650 O   0  0  0  0  0  0  0  0  0  0  0  0
   -1.4400    0.3770    0.6160 C   0  0  0  0  0  0  0  0  0  0  0  0
   -2.4330   -0.3760   -0.1220 C   0  0  0  0  0  0  0  0  0  0  0  0
   -3.1210   -1.2540    0.4620 O   0  0  0  0  0  0  0  0  0  0  0  0
   -2.7070   -0.2040   -1.4820 O   0  0  0  0  0  0  0  0  0  0  0  0
    0.8590    0.8110    1.1840 C   0  0  0  0  0  0  0  0  0  0  0  0
    1.6670    0.2970    1.9900 O   0  0  0  0  0  0  0  0  0  0  0  0
    0.7920    2.1940    1.1190 O   0  0  0  0  0  0  0  0  0  0  0  0
  2  1  1  1
  2  3  1  0
  2  7  1  0
  2 11  1  0
  3  4  1  0
  4  5  2  0
  4  6  1  0
  7  8  1  0
  8  9  2  0
  8 10  1  0
 11 12  2  0
 11 13  1  0
M  CHG  1   1   1
M  END
