
     RDKit          3D

 25 27  0  0  0  0  0  0  0  0999 V2000
    4.3040   -1.6430   -0.0970 C   0  0  0  0  0  0  0  0  0  0  0  0
    3.6330   -0.5520   -0.3150 C   0  0  0  0  0  0  0  0  0  0  0  0
    3.4630    0.1560   -1.6100 C   0  0  0  0  0  0  0  0  0  0  0  0
    2.0560    0.6630   -1.5290 C   0  0  0  0  0  0  0  0  0  0  0  0
    1.7050    0.7380   -0.1550 N   0  0  0  0  0  0  0  0  0  0  0  0
    0.4690    1.1580    0.4820 C   0  0  0  0  0  0  0  0  0  0  0  0
   -0.6640    0.2150    0.2270 C   0  0  0  0  0  0  0  0  0  0  0  0
   -1.7240    0.6460   -0.3570 C   0  0  0  0  0  0  0  0  0  0  0  0
   -1.9560    2.0240   -0.8250 C   0  0  0  0  0  0  0  0  0  0  0  0
   -1.1680    2.8420   -1.5890 C   0  0  0  0  0  0  0  0  0  0  0  0
   -1.8560    4.0480   -1.7380 C   0  0  0  0  0  0  0  0  0  0  0  0
   -3.0390    3.9010   -1.0520 C   0  0  0  0  0  0  0  0  0  0  0  0
   -4.1160    4.9450   -0.9260 C   0  0  0  0  0  0  0  0  0  0  0  0
   -3.0420    2.7170   -0.5470 O   0  0  0  0  0  0  0  0  0  0  0  0
   -0.5160   -1.1590    0.6670 C   0  0  0  0  0  0  0  0  0  0  0  0
    0.6160   -1.4800    1.2360 O   0  0  0  0  0  0  0  0  0  0  0  0
   -1.4350   -2.2360    0.5740 N   0  0  0  0  0  0  0  0  0  0  0  0
   -0.9940   -3.5680    1.0980 C   0  0  0  0  0  0  0  0  0  0  0  0
   -1.8440   -4.5430    0.3130 C   0  0  0  0  0  0  0  0  0  0  0  0
   -3.1590   -3.8060    0.3300 C   0  0  0  0  0  0  0  0  0  0  0  0
   -2.7620   -2.3770    0.0820 C   0  0  0  0  0  0  0  0  0  0  0  0
    2.8520    0.3020    0.6080 C   0  0  0  0  0  0  0  0  0  0  0  0
    3.1570    0.6190    1.8350 C   0  0  0  0  0  0  0  0  0  0  0  0
    4.3570    0.1920    2.5580 C   0  0  0  0  0  0  0  0  0  0  0  0
    4.0830   -0.5700    3.6850 F   0  0  0  0  0  0  0  0  0  0  0  0
  1  2  2  0
  2  3  1  0
  2 22  1  0
  3  4  1  0
  4  5  1  0
  5  6  1  0
  5 22  1  0
  6  7  1  0
  7  8  2  3
  7 15  1  0
  8  9  1  0
  9 10  2  0
  9 14  1  0
 10 11  1  0
 11 12  2  0
 12 13  1  0
 12 14  1  0
 15 16  2  0
 15 17  1  0
 17 18  1  0
 17 21  1  0
 18 19  1  0
 19 20  1  0
 20 21  1  0
 22 23  2  3
 23 24  1  0
 24 25  1  0
M  END
