
     RDKit          3D

 25 27  0  0  0  0  0  0  0  0999 V2000
   -0.4940    0.7160    1.5200 C   0  0  0  0  0  0  0  0  0  0  0  0
   -0.7530    0.2170    0.1170 C   0  0  2  0  0  0  0  0  0  0  0  0
   -2.1570    0.5900   -0.3310 C   0  0  0  0  0  0  0  0  0  0  0  0
   -2.8990   -0.6920   -0.2530 C   0  0  2  0  0  0  0  0  0  0  0  0
   -3.7670   -0.9400   -1.4780 C   0  0  0  0  0  0  0  0  0  0  0  0
   -4.5900    0.3080   -1.6930 C   0  0  0  0  0  0  0  0  0  0  0  0
   -4.9030    1.0150   -0.4940 N   0  0  0  0  0  0  0  0  0  0  0  0
   -6.1570    1.7310   -0.7000 C   0  0  0  0  0  0  0  0  0  0  0  0
   -5.0830    0.1560    0.6560 C   0  0  0  0  0  0  0  0  0  0  0  0
   -3.8850   -0.7060    0.9250 C   0  0  0  0  0  0  0  0  0  0  0  0
   -1.9180   -1.7850   -0.0190 C   0  0  0  0  0  0  0  0  0  0  0  0
   -0.5630   -1.1780   -0.0200 N   0  0  0  0  0  0  0  0  0  0  0  0
    0.6030   -1.9510   -0.1400 C   0  0  0  0  0  0  0  0  0  0  0  0
    0.3790   -3.2320   -0.2890 O   0  0  0  0  0  0  0  0  0  0  0  0
    1.9700   -1.5850   -0.1270 C   0  0  0  0  0  0  0  0  0  0  0  0
    2.5220   -0.4200    0.0060 C   0  0  0  0  0  0  0  0  0  0  0  0
    4.0090   -0.2950   -0.0100 C   0  0  0  0  0  0  0  0  0  0  0  0
    4.5640    0.8790    0.1090 C   0  0  0  0  0  0  0  0  0  0  0  0
    5.9750    1.1780    0.1090 C   0  0  0  0  0  0  0  0  0  0  0  0
    7.0080    0.8000   -0.7170 C   0  0  0  0  0  0  0  0  0  0  0  0
    8.1510    1.3910   -0.2270 C   0  0  0  0  0  0  0  0  0  0  0  0
    7.7870    2.1130    0.8830 C   0  0  0  0  0  0  0  0  0  0  0  0
    6.5070    1.9590    1.0410 O   0  0  0  0  0  0  0  0  0  0  0  0
    4.8520   -1.5070   -0.1020 C   0  0  0  0  0  0  0  0  0  0  0  0
    4.5620   -2.3750    0.9610 F   0  0  0  0  0  0  0  0  0  0  0  0
  2  1  1  1
  2  3  1  0
  2 12  1  0
  4  3  1  6
  4  5  1  0
  4 10  1  0
  4 11  1  0
  5  6  1  0
  6  7  1  0
  7  8  1  0
  7  9  1  0
  9 10  1  0
 11 12  1  0
 12 13  1  0
 13 14  2  0
 13 15  1  0
 15 16  2  3
 16 17  1  0
 17 18  2  3
 17 24  1  0
 18 19  1  0
 19 20  2  0
 19 23  1  0
 20 21  1  0
 21 22  2  0
 22 23  1  0
 24 25  1  0
M  END
