
     RDKit          3D

 25 26  0  0  0  0  0  0  0  0999 V2000
    1.3990   -4.1690   -3.8210 C   0  0  0  0  0  0  0  0  0  0  0  0
    2.2270   -3.1680   -3.1650 C   0  0  0  0  0  0  0  0  0  0  0  0
    1.7620   -2.4710   -2.1190 C   0  0  0  0  0  0  0  0  0  0  0  0
    2.6360   -1.5010   -1.5230 C   0  0  0  0  0  0  0  0  0  0  0  0
    2.4210   -0.7060   -0.5050 C   0  0  0  0  0  0  0  0  0  0  0  0
    3.4670    0.1620   -0.1230 O   0  0  0  0  0  0  0  0  0  0  0  0
    3.4980    1.2910    0.6900 C   0  0  0  0  0  0  0  0  0  0  0  0
    2.2960    2.0100    0.8630 N   0  0  0  0  0  0  0  0  0  0  0  0
    1.0190    1.7630    0.9320 C   0  0  0  0  0  0  0  0  0  0  0  0
    0.2000    2.9370    1.1280 C   0  0  0  0  0  0  0  0  0  0  0  0
    1.1170    4.1830    0.9380 C   0  0  0  0  0  0  0  0  0  0  0  0
    0.2570    5.4050    1.1460 C   0  0  0  0  0  0  0  0  0  0  0  0
    0.4450    0.4410    0.8490 C   0  0  0  0  0  0  0  0  0  0  0  0
   -0.7180    0.1960    1.3310 C   0  0  0  0  0  0  0  0  0  0  0  0
   -1.7260    1.0120    2.0200 C   0  0  0  0  0  0  0  0  0  0  0  0
   -1.7620    0.6560    3.5230 C   0  0  0  0  0  0  0  0  0  0  0  0
   -1.1630   -1.2030    1.1780 N   0  0  0  0  0  0  0  0  0  0  0  0
   -2.0480   -1.6130    0.1600 C   0  0  0  0  0  0  0  0  0  0  0  0
   -3.0380   -2.4710    0.3520 C   0  0  0  0  0  0  0  0  0  0  0  0
   -3.3760   -3.0980    1.5300 F   0  0  0  0  0  0  0  0  0  0  0  0
   -3.7620   -2.6800   -0.9020 C   0  0  0  0  0  0  0  0  0  0  0  0
   -3.0720   -1.8240   -1.8820 C   0  0  0  0  0  0  0  0  0  0  0  0
   -2.0890   -1.2180   -1.2590 C   0  0  0  0  0  0  0  0  0  0  0  0
    1.1400   -0.7220    0.2100 C   0  0  0  0  0  0  0  0  0  0  0  0
    0.6280   -1.8420    0.2590 O   0  0  0  0  0  0  0  0  0  0  0  0
  1  2  1  0
  2  3  2  3
  3  4  1  0
  4  5  2  3
  5  6  1  0
  5 24  1  0
  6  7  1  0
  7  8  1  0
  8  9  2  0
  9 10  1  0
  9 13  1  0
 10 11  1  0
 11 12  1  0
 13 14  2  3
 13 24  1  0
 14 15  1  0
 14 17  1  0
 15 16  1  0
 17 18  1  0
 18 19  2  0
 18 23  1  0
 19 20  1  0
 19 21  1  0
 21 22  1  0
 22 23  2  0
 24 25  2  0
M  END
