
     RDKit          3D

 25 27  0  0  0  0  0  0  0  0999 V2000
   -2.4790    4.4350   -0.6290 C   0  0  0  0  0  0  0  0  0  0  0  0
   -2.3160    3.6520    0.6450 C   0  0  0  0  0  0  0  0  0  0  0  0
   -1.6960    2.4020    0.3690 N   0  0  0  0  0  0  0  0  0  0  0  0
   -2.4160    1.4550   -0.3670 C   0  0  0  0  0  0  0  0  0  0  0  0
   -2.6810    0.1570    0.3730 C   0  0  0  0  0  0  0  0  0  0  0  0
   -2.9900   -0.8990   -0.6380 C   0  0  0  0  0  0  0  0  0  0  0  0
   -2.5610   -2.2230   -0.2310 N   0  0  0  0  0  0  0  0  0  0  0  0
   -3.3240   -3.2550    0.1920 C   0  0  0  0  0  0  0  0  0  0  0  0
   -2.5450   -4.3550    0.4900 C   0  0  0  0  0  0  0  0  0  0  0  0
   -1.2570   -3.9210    0.2190 C   0  0  0  0  0  0  0  0  0  0  0  0
   -1.2930   -2.6140   -0.2210 C   0  0  0  0  0  0  0  0  0  0  0  0
   -0.1420   -1.7440   -0.6250 C   0  0  0  0  0  0  0  0  0  0  0  0
    0.7530   -1.4750    0.5230 C   0  0  0  0  0  0  0  0  0  0  0  0
    1.1840   -2.4700    1.1500 O   0  0  0  0  0  0  0  0  0  0  0  0
    1.0590   -0.1890    0.8380 O   0  0  0  0  0  0  0  0  0  0  0  0
    1.5880    0.8250    0.0550 C   0  0  1  0  0  0  0  0  0  0  0  0
    2.4590    0.3290   -1.0780 C   0  0  0  0  0  0  0  0  0  0  0  0
    3.6250   -0.4540   -0.5370 C   0  0  0  0  0  0  0  0  0  0  0  0
    3.8660   -0.6840    0.7430 C   0  0  0  0  0  0  0  0  0  0  0  0
    5.1030   -1.4910    0.9090 C   0  0  0  0  0  0  0  0  0  0  0  0
    5.5400   -1.6900   -0.4910 C   0  0  0  0  0  0  0  0  0  0  0  0
    4.6860   -1.0930   -1.2850 C   0  0  0  0  0  0  0  0  0  0  0  0
    4.8090   -1.0930   -2.6490 F   0  0  0  0  0  0  0  0  0  0  0  0
    0.5780    1.8420   -0.4370 C   0  0  0  0  0  0  0  0  0  0  0  0
   -0.3470    2.2770    0.6330 C   0  0  0  0  0  0  0  0  0  0  0  0
  1  2  1  0
  2  3  1  0
  3  4  1  0
  3 25  1  0
  4  5  1  0
  5  6  1  0
  6  7  1  0
  7  8  1  0
  7 11  1  0
  8  9  2  0
  9 10  1  0
 10 11  2  0
 11 12  1  0
 12 13  1  0
 13 14  2  0
 13 15  1  0
 15 16  1  0
 16 17  1  6
 16 24  1  0
 17 18  1  0
 18 19  2  0
 18 22  1  0
 19 20  1  0
 20 21  1  0
 21 22  2  0
 22 23  1  0
 24 25  1  0
M  END
