
     RDKit          3D

 19 19  0  0  0  0  0  0  0  0999 V2000
   -3.7500   -1.1840   -1.3280 C   0  0  0  0  0  0  0  0  0  0  0  0
   -3.6410   -0.6230    0.0760 C   0  0  2  0  0  0  0  0  0  0  0  0
   -3.5870   -1.7560    1.0740 C   0  0  0  0  0  0  0  0  0  0  0  0
   -4.8950    0.1760    0.3570 C   0  0  0  0  0  0  0  0  0  0  0  0
   -5.0650    1.3200   -0.6220 C   0  0  0  0  0  0  0  0  0  0  0  0
   -6.2280    1.9920   -0.2940 O   0  0  0  0  0  0  0  0  0  0  0  0
   -2.4880    0.2210    0.1270 N   0  0  0  0  0  0  0  0  0  0  0  0
   -1.1690   -0.2150   -0.1340 C   0  0  0  0  0  0  0  0  0  0  0  0
   -0.9700   -1.4000   -0.4290 O   0  0  0  0  0  0  0  0  0  0  0  0
   -0.0440    0.6690   -0.0700 N   0  0  0  0  0  0  0  0  0  0  0  0
    1.3040    0.1460   -0.3550 C   0  0  0  0  0  0  0  0  0  0  0  0
    2.2570    1.3010   -0.2090 C   0  0  0  0  0  0  0  0  0  0  0  0
    3.5710    1.0300   -0.4380 O   0  0  0  0  0  0  0  0  0  0  0  0
    4.0400    0.0710    0.4380 C   0  0  0  0  0  0  0  0  0  0  0  0
    5.4250   -0.1850    0.2080 C   0  0  0  0  0  0  0  0  0  0  0  0
    6.6030    0.3410    0.6320 C   0  0  0  0  0  0  0  0  0  0  0  0
    7.7880   -0.1190    0.2370 C   0  0  0  0  0  0  0  0  0  0  0  0
    7.7830   -1.2090   -0.6680 C   0  0  0  0  0  0  0  0  0  0  0  0
    6.0320   -1.5500   -0.9310 S   0  0  0  0  0  0  0  0  0  0  0  0
  2  1  1  6
  2  3  1  0
  2  4  1  0
  2  7  1  0
  4  5  1  0
  5  6  1  0
  7  8  1  0
  8  9  2  0
  8 10  1  0
 10 11  1  0
 11 12  1  0
 12 13  1  0
 13 14  1  0
 14 15  1  0
 15 16  2  0
 15 19  1  0
 16 17  1  0
 17 18  2  0
 18 19  1  0
M  END
