
     RDKit          3D

 22 24  0  0  0  0  0  0  0  0999 V2000
    1.0590   -2.0540   -0.3740 C   0  0  0  0  0  0  0  0  0  0  0  0
    1.9910   -0.8700   -0.3890 C   0  0  0  0  0  0  0  0  0  0  0  0
    1.3050    0.3800   -0.2220 C   0  0  0  0  0  0  0  0  0  0  0  0
   -0.0750    0.2610   -0.6410 C   0  0  0  0  0  0  0  0  0  0  0  0
   -1.2410    0.0770   -0.0260 N   0  0  0  0  0  0  0  0  0  0  0  0
   -1.9690   -0.8300   -1.0330 C   0  0  0  0  0  0  0  0  0  0  0  0
   -3.3980   -0.3680   -1.1790 C   0  0  0  0  0  0  0  0  0  0  0  0
   -4.0190   -0.7130    0.1510 C   0  0  2  0  0  0  0  0  0  0  0  0
   -5.4130   -0.8450    0.2070 N   0  0  0  0  0  0  0  0  0  0  0  0
   -6.3040    0.2390    0.2070 C   0  0  0  0  0  0  0  0  0  0  0  0
   -6.0470    1.3770   -0.2890 N   0  0  0  0  0  0  0  0  0  0  0  0
   -3.3720    0.2010    1.1630 C   0  0  0  0  0  0  0  0  0  0  0  0
   -2.1490    0.9150    0.5760 C   0  0  0  0  0  0  0  0  0  0  0  0
    2.0960    1.4610   -0.0330 C   0  0  0  0  0  0  0  0  0  0  0  0
    3.4990    1.3130   -0.0300 C   0  0  0  0  0  0  0  0  0  0  0  0
    4.1070    0.1200   -0.2060 C   0  0  0  0  0  0  0  0  0  0  0  0
    3.3190   -1.0320   -0.3940 C   0  0  0  0  0  0  0  0  0  0  0  0
    3.9510   -2.3520   -0.6130 C   0  0  0  0  0  0  0  0  0  0  0  0
    5.4800   -0.0300   -0.2210 O   0  0  0  0  0  0  0  0  0  0  0  0
    6.3210    1.0920   -0.1370 C   0  0  0  0  0  0  0  0  0  0  0  0
    5.6210    2.2120    0.6310 C   0  0  0  0  0  0  0  0  0  0  0  0
    4.3050    2.4500    0.1530 O   0  0  0  0  0  0  0  0  0  0  0  0
  1  2  1  0
  2  3  2  0
  2 17  1  0
  3  4  1  0
  3 14  1  0
  4  5  1  0
  5  6  1  0
  5 13  1  0
  6  7  1  0
  7  8  1  0
  8  9  1  6
  8 12  1  0
  9 10  1  0
 10 11  2  0
 12 13  1  0
 14 15  2  0
 15 16  1  0
 15 22  1  0
 16 17  2  0
 16 19  1  0
 17 18  1  0
 19 20  1  0
 20 21  1  0
 21 22  1  0
M  CHG  1  11   1
M  END
