
     RDKit          3D

 19 19  0  0  0  0  0  0  0  0999 V2000
   -3.9090    1.9240   -1.0680 C   0  0  0  0  0  0  0  0  0  0  0  0
   -4.8040    1.0610   -0.3050 C   0  0  2  0  0  0  0  0  0  0  0  0
   -6.0010    1.8790    0.2600 C   0  0  0  0  0  0  0  0  0  0  0  0
   -4.2860    0.2350    0.7880 C   0  0  0  0  0  0  0  0  0  0  0  0
   -3.3030   -0.8190    0.6890 C   0  0  0  0  0  0  0  0  0  0  0  0
   -2.0360   -1.0140    0.6140 N   0  0  0  0  0  0  0  0  0  0  0  0
   -0.6930   -0.7730   -0.3080 C   0  0  0  0  0  0  0  0  0  0  0  0
   -1.5350   -0.0120   -1.1770 O   0  0  0  0  0  0  0  0  0  0  0  0
    0.0820   -1.3230    0.2590 N   0  0  0  0  0  0  0  0  0  0  0  0
    1.3090   -1.4570   -1.0860 C   0  0  0  0  0  0  0  0  0  0  0  0
    0.7970   -0.9510   -1.9990 O   0  0  0  0  0  0  0  0  0  0  0  0
    2.4220   -2.1040   -0.5900 C   0  0  0  0  0  0  0  0  0  0  0  0
    3.6210   -1.3420   -0.2140 C   0  0  0  0  0  0  0  0  0  0  0  0
    4.5390   -1.7160    0.7890 C   0  0  0  0  0  0  0  0  0  0  0  0
    5.5890   -0.8990    1.0310 C   0  0  0  0  0  0  0  0  0  0  0  0
    5.6790    0.2910    0.2260 C   0  0  0  0  0  0  0  0  0  0  0  0
    6.7880    1.2520    0.2180 C   0  0  0  0  0  0  0  0  0  0  0  0
    6.3720    2.5740    0.2570 O   0  0  0  0  0  0  0  0  0  0  0  0
    4.2760    0.1170   -0.7810 S   0  0  0  0  0  0  0  0  0  0  0  0
  2  1  1  1
  2  3  1  0
  2  4  1  0
  4  5  1  0
  5  6  1  0
  6  7  1  0
  7  8  2  0
  7  9  1  0
  9 10  1  0
 10 11  2  0
 10 12  1  0
 12 13  1  0
 13 14  2  0
 13 19  1  0
 14 15  1  0
 15 16  2  0
 16 17  1  0
 16 19  1  0
 17 18  1  0
M  END
