
     RDKit          3D

 19 19  0  0  0  0  0  0  0  0999 V2000
   -3.9970   -1.9080    0.3720 C   0  0  0  0  0  0  0  0  0  0  0  0
   -4.3890   -0.7520    1.2190 C   0  0  0  0  0  0  0  0  0  0  0  0
   -4.7260    0.4910    0.4010 C   0  0  0  0  0  0  0  0  0  0  0  0
   -5.9370    0.8780    0.1390 N   0  0  0  0  0  0  0  0  0  0  0  0
   -6.1200    1.9780   -0.6030 C   0  0  0  0  0  0  0  0  0  0  0  0
   -7.2540    2.5450   -0.9860 O   0  0  0  0  0  0  0  0  0  0  0  0
   -4.4630    2.5180   -0.9630 S   0  0  0  0  0  0  0  0  0  0  0  0
   -3.6640    1.2240   -0.0900 C   0  0  0  0  0  0  0  0  0  0  0  0
   -2.2270    1.0530    0.0380 C   0  0  0  0  0  0  0  0  0  0  0  0
   -1.7780    0.1060    0.6970 O   0  0  0  0  0  0  0  0  0  0  0  0
   -1.3970    1.9410   -0.5710 O   0  0  0  0  0  0  0  0  0  0  0  0
    0.0360    1.8740   -0.5160 C   0  0  0  0  0  0  0  0  0  0  0  0
    0.5470    0.5930   -1.0860 C   0  0  0  0  0  0  0  0  0  0  0  0
    1.9860    0.5480   -1.0270 N   0  0  0  0  0  0  0  0  0  0  0  0
    2.4150    0.4560    0.3340 C   0  0  0  0  0  0  0  0  0  0  0  0
    3.9360    0.3670    0.3700 C   0  0  0  0  0  0  0  0  0  0  0  0
    4.3820   -0.8450   -0.3830 C   0  0  2  0  0  0  0  0  0  0  0  0
    3.8170   -2.1000    0.2180 C   0  0  0  0  0  0  0  0  0  0  0  0
    5.9040   -0.8820   -0.3550 C   0  0  0  0  0  0  0  0  0  0  0  0
  1  2  1  0
  2  3  1  0
  3  4  1  0
  3  8  2  0
  4  5  1  0
  5  6  2  0
  5  7  1  0
  7  8  1  0
  8  9  1  0
  9 10  2  0
  9 11  1  0
 11 12  1  0
 12 13  1  0
 13 14  1  0
 14 15  1  0
 15 16  1  0
 16 17  1  0
 17 18  1  1
 17 19  1  0
M  END
