
     RDKit          3D

 19 19  0  0  0  0  0  0  0  0999 V2000
    5.6160   -0.4730    0.1510 C   0  0  0  0  0  0  0  0  0  0  0  0
    4.5230   -1.2870    0.8080 C   0  0  0  0  0  0  0  0  0  0  0  0
    3.2160   -0.9130    0.3600 N   0  0  0  0  0  0  0  0  0  0  0  0
    2.7570    0.4550    0.6250 C   0  0  0  0  0  0  0  0  0  0  0  0
    3.4870    1.3470    1.2910 C   0  0  0  0  0  0  0  0  0  0  0  0
    3.0350    2.6120    1.5290 C   0  0  0  0  0  0  0  0  0  0  0  0
    1.4050    2.5750    0.7410 S   0  0  0  0  0  0  0  0  0  0  0  0
    1.5390    0.8030    0.1710 C   0  0  0  0  0  0  0  0  0  0  0  0
    0.4570    0.1930   -0.5630 C   0  0  0  0  0  0  0  0  0  0  0  0
    0.5810   -0.9780   -0.9240 O   0  0  0  0  0  0  0  0  0  0  0  0
   -0.7460    0.8380   -0.9030 N   0  0  0  0  0  0  0  0  0  0  0  0
   -1.8700    0.3620   -1.6000 C   0  0  0  0  0  0  0  0  0  0  0  0
   -2.6920   -0.7490   -1.1220 C   0  0  2  0  0  0  0  0  0  0  0  0
   -2.0700   -2.1260   -1.1180 C   0  0  0  0  0  0  0  0  0  0  0  0
   -3.7520   -0.8920   -2.0830 O   0  0  0  0  0  0  0  0  0  0  0  0
   -3.3700   -0.4230    0.1680 C   0  0  0  0  0  0  0  0  0  0  0  0
   -4.2930    0.7380    0.1240 C   0  0  0  0  0  0  0  0  0  0  0  0
   -4.9550    1.0800    1.4330 C   0  0  0  0  0  0  0  0  0  0  0  0
   -4.5650    1.4200   -0.8160 O   0  0  0  0  0  0  0  0  0  0  0  0
  1  2  1  0
  2  3  1  0
  3  4  1  0
  4  5  1  0
  4  8  2  0
  5  6  2  0
  6  7  1  0
  7  8  1  0
  8  9  1  0
  9 10  2  0
  9 11  1  0
 11 12  1  0
 12 13  1  0
 13 14  1  1
 13 15  1  0
 13 16  1  0
 16 17  1  0
 17 18  1  0
 17 19  2  0
M  END
