
     RDKit          3D

 20 20  0  0  0  0  0  0  0  0999 V2000
   -0.0730    1.3480    1.9930 N   0  0  0  0  0  0  0  0  0  0  0  0
    0.4730    0.3320    1.1200 C   0  0  2  0  0  0  0  0  0  0  0  0
    1.2210    0.9160    0.1350 O   0  0  0  0  0  0  0  0  0  0  0  0
    2.5320    0.5070    0.2250 C   0  0  0  0  0  0  0  0  0  0  0  0
    3.4310    1.0980   -0.8170 C   0  0  2  0  0  0  0  0  0  0  0  0
    3.0580    0.7930   -2.1060 O   0  0  0  0  0  0  0  0  0  0  0  0
    4.8260    0.5140   -0.5930 C   0  0  0  0  0  0  0  0  0  0  0  0
    4.7380   -0.8600   -0.7840 O   0  0  0  0  0  0  0  0  0  0  0  0
   -0.7160   -0.4610    0.5510 C   0  0  1  0  0  0  0  0  0  0  0  0
   -1.4630   -0.9690    1.7420 C   0  0  0  0  0  0  0  0  0  0  0  0
   -2.5470   -1.7520    1.4700 O   0  0  0  0  0  0  0  0  0  0  0  0
   -1.5030    0.5140   -0.2810 C   0  0  0  0  0  0  0  0  0  0  0  0
   -2.9430    0.1480   -0.4320 C   0  0  1  0  0  0  0  0  0  0  0  0
   -3.5850    1.2660   -1.2690 C   0  0  0  0  0  0  0  0  0  0  0  0
   -3.4050    2.4910   -0.6110 O   0  0  0  0  0  0  0  0  0  0  0  0
   -3.1500   -1.0420   -1.1270 O   0  0  0  0  0  0  0  0  0  0  0  0
   -2.2660   -2.1150   -1.2530 C   0  0  0  0  0  0  0  0  0  0  0  0
   -2.6840   -2.9410   -2.1370 O   0  0  0  0  0  0  0  0  0  0  0  0
   -1.0030   -2.4660   -0.5950 C   0  0  0  0  0  0  0  0  0  0  0  0
   -0.1930   -1.4170   -0.2710 O   0  0  0  0  0  0  0  0  0  0  0  0
  2  1  1  1
  2  3  1  0
  2  9  1  0
  3  4  1  0
  4  5  1  0
  5  6  1  6
  5  7  1  0
  7  8  1  0
  9 10  1  1
  9 12  1  0
  9 20  1  0
 10 11  1  0
 12 13  1  0
 13 14  1  6
 13 16  1  0
 14 15  1  0
 16 17  1  0
 17 18  2  0
 17 19  1  0
 19 20  1  0
M  END
