
     RDKit          3D

 21 21  0  0  0  0  0  0  0  0999 V2000
   -3.4970    1.5450   -0.0030 N   0  0  0  0  0  0  0  0  0  0  0  0
   -3.9210    0.3710   -0.6840 C   0  0  0  0  0  0  0  0  0  0  0  0
   -4.4470    0.5150   -1.8130 O   0  0  0  0  0  0  0  0  0  0  0  0
   -3.7420   -0.9940   -0.0650 C   0  0  2  0  0  0  0  0  0  0  0  0
   -5.1040   -1.6290   -0.0920 C   0  0  0  0  0  0  0  0  0  0  0  0
   -5.9640   -0.8350    0.6620 O   0  0  0  0  0  0  0  0  0  0  0  0
   -3.1630   -0.8410    1.1230 O   0  0  0  0  0  0  0  0  0  0  0  0
   -1.9350   -1.2790    1.4210 C   0  0  0  0  0  0  0  0  0  0  0  0
   -0.8610   -0.6300    0.5870 C   0  0  2  0  0  0  0  0  0  0  0  0
   -0.9510   -0.8190   -0.7610 O   0  0  0  0  0  0  0  0  0  0  0  0
    0.5050   -1.1020    1.1000 C   0  0  0  0  0  0  0  0  0  0  0  0
    1.5340   -0.4140    0.2210 C   0  0  2  0  0  0  0  0  0  0  0  0
    2.8360   -0.7760    0.6020 O   0  0  0  0  0  0  0  0  0  0  0  0
    3.6460   -0.4650   -0.5130 C   0  0  0  0  0  0  0  0  0  0  0  0
    3.5830    1.0290   -0.7460 C   0  0  2  0  0  0  0  0  0  0  0  0
    4.0410    1.3350   -2.0360 O   0  0  0  0  0  0  0  0  0  0  0  0
    4.4870    1.7670    0.2160 C   0  0  0  0  0  0  0  0  0  0  0  0
    4.1380    1.5470    1.5440 O   0  0  0  0  0  0  0  0  0  0  0  0
    2.1850    1.5570   -0.6370 C   0  0  1  0  0  0  0  0  0  0  0  0
    1.4990    1.3050   -1.8430 O   0  0  0  0  0  0  0  0  0  0  0  0
    1.4520    0.9690    0.3900 O   0  0  0  0  0  0  0  0  0  0  0  0
  1  2  1  0
  2  3  2  0
  2  4  1  0
  4  5  1  1
  4  7  1  0
  5  6  1  0
  7  8  1  0
  8  9  1  0
  9 10  1  6
  9 11  1  0
 12 11  1  1
 12 13  1  0
 12 21  1  0
 13 14  1  0
 14 15  1  0
 15 16  1  6
 15 17  1  0
 15 19  1  0
 17 18  1  0
 19 20  1  6
 19 21  1  0
M  END
