
     RDKit          3D

 40 44  0  0  0  0  0  0  0  0999 V2000
    7.2910   -0.7490    1.9820 N   0  0  0  0  0  0  0  0  0  0  0  0
    6.5380    0.8140    1.6030 P   0  0  0  0  0  0  0  0  0  0  0  0
    7.5200    1.6730    0.4640 O   0  0  0  0  0  0  0  0  0  0  0  0
    4.7920    0.5590    0.9500 C   0  0  0  0  0  0  0  0  0  0  0  0
    4.3990   -0.7330    1.0750 O   0  0  0  0  0  0  0  0  0  0  0  0
    3.1890   -1.1550    0.7090 C   0  0  1  0  0  0  0  0  0  0  0  0
    2.0780   -0.4810    1.3370 C   0  0  0  0  0  0  0  0  0  0  0  0
    1.0090    0.1600    1.8520 C   0  0  0  0  0  0  0  0  0  0  0  0
    0.7850    0.3930    3.1980 N   0  0  0  0  0  0  0  0  0  0  0  0
   -0.0410    1.2760    3.6240 N   0  0  0  0  0  0  0  0  0  0  0  0
   -0.6880    1.9730    2.6030 O   0  0  0  0  0  0  0  0  0  0  0  0
   -1.2060    1.1320    1.5240 C   0  0  1  0  0  0  0  0  0  0  0  0
   -2.0080    0.1930    2.1730 O   0  0  0  0  0  0  0  0  0  0  0  0
   -2.0340    1.9890    0.7890 O   0  0  0  0  0  0  0  0  0  0  0  0
   -2.7820    1.2660   -0.5090 S   0  0  0  0  0  0  0  0  0  0  0  0
   -4.3670    0.6390   -0.2120 N   0  0  0  0  0  0  0  0  0  0  0  0
   -4.6920   -0.7520   -0.0200 C   0  0  0  0  0  0  0  0  0  0  0  0
   -6.1370   -0.8270    0.2050 C   0  0  0  0  0  0  0  0  0  0  0  0
   -6.6210    0.4050    0.1490 C   0  0  0  0  0  0  0  0  0  0  0  0
   -5.5690    1.3750   -0.1100 C   0  0  0  0  0  0  0  0  0  0  0  0
   -5.7300    2.6700   -0.2230 N   0  0  0  0  0  0  0  0  0  0  0  0
   -6.9670    3.2320   -0.0970 O   0  0  0  0  0  0  0  0  0  0  0  0
   -8.3780    2.8240   -1.0190 P   0  0  0  0  0  0  0  0  0  0  0  0
   -0.0540    0.5740    0.8420 C   0  0  2  0  0  0  0  0  0  0  0  0
   -0.2490   -0.6140   -0.0370 C   0  0  0  0  0  0  0  0  0  0  0  0
   -1.4810   -1.1090   -0.3210 O   0  0  0  0  0  0  0  0  0  0  0  0
   -1.5970   -2.1860   -1.1520 O   0  0  0  0  0  0  0  0  0  0  0  0
   -1.7090   -1.7070   -2.3950 O   0  0  0  0  0  0  0  0  0  0  0  0
   -0.5320   -1.3820   -2.9200 O   0  0  0  0  0  0  0  0  0  0  0  0
   -0.2420   -0.1290   -3.4370 C   0  0  0  0  0  0  0  0  0  0  0  0
   -1.1630    0.7430   -3.3990 O   0  0  0  0  0  0  0  0  0  0  0  0
    0.8840   -1.1330   -0.5050 N   0  0  0  0  0  0  0  0  0  0  0  0
    2.1360   -0.4580   -0.0860 C   0  0  2  0  0  0  0  0  0  0  0  0
    2.8070    0.2140   -1.0900 N   0  0  0  0  0  0  0  0  0  0  0  0
    3.5910   -0.4850   -2.0940 C   0  0  0  0  0  0  0  0  0  0  0  0
    3.9910    0.1810   -3.0780 O   0  0  0  0  0  0  0  0  0  0  0  0
    3.9670   -1.8490   -2.1010 O   0  0  0  0  0  0  0  0  0  0  0  0
    3.1790   -2.8530   -1.6360 O   0  0  0  0  0  0  0  0  0  0  0  0
    3.1000   -2.9000    0.0940 P   0  0  0  0  0  0  0  0  0  0  0  0
    4.4230   -3.8600    0.6670 O   0  0  0  0  0  0  0  0  0  0  0  0
  1  2  1  0
  2  3  1  0
  2  4  1  0
  4  5  1  0
  6  5  1  1
  6  7  1  0
  6 33  1  0
  6 39  1  0
  7  8  2  0
  7 33  1  0
  8  9  1  0
  8 24  1  0
  9 10  2  0
 10 11  1  0
 11 12  1  0
 12 13  1  1
 12 14  1  0
 12 24  1  0
 14 15  1  0
 15 16  1  0
 16 17  1  0
 16 20  1  0
 17 18  1  0
 18 19  2  0
 19 20  1  0
 20 21  2  3
 21 22  1  0
 22 23  1  0
 24 25  1  1
 25 26  1  0
 25 32  2  0
 26 27  1  0
 27 28  1  0
 28 29  1  0
 29 30  1  0
 30 31  2  0
 32 33  1  0
 33 34  1  6
 34 35  1  0
 35 36  2  0
 35 37  1  0
 37 38  1  0
 38 39  1  0
 39 40  1  0
M  END
