
     RDKit          3D

 42 42  0  0  0  0  0  0  0  0999 V2000
   -3.9270   -5.0860   -4.4520 C   0  0  0  0  0  0  0  0  0  0  0  0
   -3.4450   -4.9620   -3.0770 C   0  0  0  0  0  0  0  0  0  0  0  0
   -3.0330   -3.8070   -2.5000 O   0  0  0  0  0  0  0  0  0  0  0  0
   -3.7130   -2.6400   -2.3340 C   0  0  0  0  0  0  0  0  0  0  0  0
   -4.8650   -2.4590   -2.7370 O   0  0  0  0  0  0  0  0  0  0  0  0
   -3.0620   -1.4300   -1.6580 C   0  0  2  0  0  0  0  0  0  0  0  0
   -3.6440   -0.1770   -2.1180 C   0  0  0  0  0  0  0  0  0  0  0  0
   -4.2610    0.7030   -1.1090 C   0  0  0  0  0  0  0  0  0  0  0  0
   -4.2280    2.0720   -1.7110 C   0  0  0  0  0  0  0  0  0  0  0  0
   -3.9580    3.0360   -0.9780 C   0  0  0  0  0  0  0  0  0  0  0  0
   -3.6230    3.4330    0.3920 C   0  0  0  0  0  0  0  0  0  0  0  0
   -4.4420    4.3490    0.8410 C   0  0  0  0  0  0  0  0  0  0  0  0
   -5.6610    4.9680    0.2100 C   0  0  0  0  0  0  0  0  0  0  0  0
   -5.7680    6.2090    0.9080 C   0  0  0  0  0  0  0  0  0  0  0  0
   -6.9000    6.9190    0.3990 O   0  0  0  0  0  0  0  0  0  0  0  0
   -2.6360    2.9290    1.2290 C   0  0  0  0  0  0  0  0  0  0  0  0
   -3.1120    2.5760    2.5490 O   0  0  0  0  0  0  0  0  0  0  0  0
   -1.2650    2.6330    1.2840 N   0  0  0  0  0  0  0  0  0  0  0  0
   -0.7690    1.4970    0.4690 C   0  0  0  0  0  0  0  0  0  0  0  0
    0.0500    1.8950   -0.4210 O   0  0  0  0  0  0  0  0  0  0  0  0
   -1.2130    0.1470    0.7570 C   0  0  0  0  0  0  0  0  0  0  0  0
   -0.3160   -1.0330    0.4740 C   0  0  2  0  0  0  0  0  0  0  0  0
   -0.1180   -1.6900    1.8480 C   0  0  0  0  0  0  0  0  0  0  0  0
    0.5280   -0.8370    2.7850 N   0  0  0  0  0  0  0  0  0  0  0  0
    0.8520   -1.6740    3.9580 C   0  0  1  0  0  0  0  0  0  0  0  0
    1.3170   -0.9070    5.1110 C   0  0  0  0  0  0  0  0  0  0  0  0
   -0.4010   -2.4590    4.3480 C   0  0  0  0  0  0  0  0  0  0  0  0
    0.9400   -0.4500    0.0670 C   0  0  0  0  0  0  0  0  0  0  0  0
    2.1200   -1.3330   -0.2260 C   0  0  0  0  0  0  0  0  0  0  0  0
    2.2640   -2.3810   -0.7310 O   0  0  0  0  0  0  0  0  0  0  0  0
    3.3180   -0.6310    0.3470 N   0  0  0  0  0  0  0  0  0  0  0  0
    3.2070    0.6080    1.0200 C   0  0  0  0  0  0  0  0  0  0  0  0
    4.5740   -1.2750    0.1220 C   0  0  0  0  0  0  0  0  0  0  0  0
    5.4010   -0.8020   -1.4350 P   0  0  0  0  0  0  0  0  0  0  0  0
    5.3760    0.5850   -2.1850 O   0  0  0  0  0  0  0  0  0  0  0  0
    4.7290    1.7420   -2.1160 C   0  0  0  0  0  0  0  0  0  0  0  0
    6.0030    2.7220   -1.8720 C   0  0  0  0  0  0  0  0  0  0  0  0
    7.1080   -1.2200   -1.0120 O   0  0  0  0  0  0  0  0  0  0  0  0
    7.8930   -0.1330   -0.8470 C   0  0  0  0  0  0  0  0  0  0  0  0
    8.0590    0.0000    0.6910 C   0  0  0  0  0  0  0  0  0  0  0  0
   -0.9950   -2.0360   -0.3890 C   0  0  0  0  0  0  0  0  0  0  0  0
   -1.5660   -1.5710   -1.6990 C   0  0  0  0  0  0  0  0  0  0  0  0
  1  2  1  0
  2  3  1  0
  3  4  1  0
  4  5  2  0
  6  4  1  6
  6  7  1  0
  6 42  1  0
  7  8  1  0
  8  9  1  0
  9 10  2  0
 10 11  1  0
 11 12  2  3
 11 16  1  0
 12 13  1  0
 13 14  2  3
 14 15  1  0
 16 17  2  0
 16 18  1  0
 18 19  1  0
 19 20  2  0
 19 21  1  0
 21 22  1  0
 22 23  1  1
 22 28  1  0
 22 41  1  0
 23 24  1  0
 24 25  1  0
 25 26  1  1
 25 27  1  0
 28 29  1  0
 29 30  2  0
 29 31  1  0
 31 32  1  0
 31 33  1  0
 33 34  1  0
 34 35  1  0
 34 38  1  0
 35 36  1  0
 36 37  1  0
 38 39  1  0
 39 40  1  0
 41 42  1  0
M  END
