
     RDKit          3D

 40 44  0  0  0  0  0  0  0  0999 V2000
   -2.3320   -0.7460    2.0200 C   0  0  0  0  0  0  0  0  0  0  0  0
   -2.2330   -0.5180    0.1850 P   0  0  0  0  0  0  0  0  0  0  0  0
   -0.5300   -0.1560   -0.3670 C   0  0  0  0  0  0  0  0  0  0  0  0
    0.3390   -1.0070   -0.7140 N   0  0  0  0  0  0  0  0  0  0  0  0
    1.6390   -0.6270   -1.1350 N   0  0  0  0  0  0  0  0  0  0  0  0
    2.6420   -1.4850   -1.3130 N   0  0  0  0  0  0  0  0  0  0  0  0
    2.3890   -2.8200   -1.2580 O   0  0  0  0  0  0  0  0  0  0  0  0
    2.5280   -3.2740    0.0360 O   0  0  0  0  0  0  0  0  0  0  0  0
    2.6470   -2.0700    0.6400 N   0  0  0  0  0  0  0  0  0  0  0  0
    2.1110   -1.0820    1.4690 C   0  0  0  0  0  0  0  0  0  0  0  0
    1.1210   -1.1990    2.2270 O   0  0  0  0  0  0  0  0  0  0  0  0
    2.8910    0.1160    1.3130 O   0  0  0  0  0  0  0  0  0  0  0  0
    3.9340   -0.1860    0.4030 C   0  0  0  0  0  0  0  0  0  0  0  0
    4.9270    0.5260    0.0280 N   0  0  0  0  0  0  0  0  0  0  0  0
    5.9000    0.0150   -0.8350 O   0  0  0  0  0  0  0  0  0  0  0  0
    5.7470   -1.2860   -1.2280 N   0  0  0  0  0  0  0  0  0  0  0  0
    4.7570   -2.0590   -0.8830 C   0  0  0  0  0  0  0  0  0  0  0  0
    4.8040   -3.3700   -1.3490 O   0  0  0  0  0  0  0  0  0  0  0  0
    3.6880   -1.4930   -0.1010 C   0  0  2  0  0  0  0  0  0  0  0  0
    1.8900    0.6810   -1.4730 O   0  0  0  0  0  0  0  0  0  0  0  0
    1.2410    1.5860   -0.7190 N   0  0  0  0  0  0  0  0  0  0  0  0
    1.9570    2.7490   -0.3910 C   0  0  0  0  0  0  0  0  0  0  0  0
    3.1280    2.9580   -0.8450 O   0  0  0  0  0  0  0  0  0  0  0  0
    1.4380    3.7490    0.4530 N   0  0  0  0  0  0  0  0  0  0  0  0
    2.2680    4.9290    0.7270 C   0  0  0  0  0  0  0  0  0  0  0  0
    1.6010    5.7940    1.5670 O   0  0  0  0  0  0  0  0  0  0  0  0
    2.3870    6.8290    1.7770 O   0  0  0  0  0  0  0  0  0  0  0  0
   -0.0830    1.2600   -0.3610 C   0  0  0  0  0  0  0  0  0  0  0  0
   -1.1410    2.4000    0.0170 S   0  0  0  0  0  0  0  0  0  0  0  0
   -3.1390   -2.1650   -0.9180 P   0  0  0  0  0  0  0  0  0  0  0  0
   -3.3840   -1.6560   -2.5620 O   0  0  0  0  0  0  0  0  0  0  0  0
   -4.8200   -2.4870   -0.1900 C   0  0  1  0  0  0  0  0  0  0  0  0
   -4.7200   -3.4370    0.8460 O   0  0  0  0  0  0  0  0  0  0  0  0
   -5.2830   -1.2840    0.4210 O   0  0  0  0  0  0  0  0  0  0  0  0
   -6.3040   -0.5200   -0.1050 C   0  0  0  0  0  0  0  0  0  0  0  0
   -6.5960    0.6230    0.3690 O   0  0  0  0  0  0  0  0  0  0  0  0
   -7.0550   -0.9640   -1.1730 O   0  0  0  0  0  0  0  0  0  0  0  0
   -6.7890   -2.1810   -1.7240 O   0  0  0  0  0  0  0  0  0  0  0  0
   -5.7730   -2.9660   -1.2170 C   0  0  0  0  0  0  0  0  0  0  0  0
   -5.6580   -4.1390   -1.6510 O   0  0  0  0  0  0  0  0  0  0  0  0
  1  2  1  0
  2  3  1  0
  2 30  1  0
  3  4  2  0
  3 28  1  0
  4  5  1  0
  5  6  1  0
  5 20  1  0
  6  7  1  0
 19  6  1  6
  7  8  1  0
  8  9  1  0
  9 10  1  0
  9 19  1  0
 10 11  2  0
 10 12  1  0
 12 13  1  0
 13 14  2  0
 13 19  1  0
 14 15  1  0
 15 16  1  0
 16 17  2  0
 17 18  1  0
 17 19  1  0
 20 21  1  0
 21 22  1  0
 21 28  1  0
 22 23  2  0
 22 24  1  0
 24 25  1  0
 25 26  1  0
 26 27  1  0
 28 29  2  0
 30 31  1  0
 30 32  1  0
 32 33  1  1
 32 34  1  0
 32 39  1  0
 34 35  1  0
 35 36  2  0
 35 37  1  0
 37 38  1  0
 38 39  1  0
 39 40  2  0
M  END
