
     RDKit          3D

 40 42  0  0  0  0  0  0  0  0999 V2000
   -2.5850    1.8640   -2.4730 N   0  0  0  0  0  0  0  0  0  0  0  0
   -2.8160    2.5810   -1.4080 C   0  0  0  0  0  0  0  0  0  0  0  0
   -2.0670    2.3440   -0.2760 O   0  0  0  0  0  0  0  0  0  0  0  0
   -1.5340    1.0930    0.0080 N   0  0  0  0  0  0  0  0  0  0  0  0
   -2.5110    0.2740    0.5500 O   0  0  0  0  0  0  0  0  0  0  0  0
   -2.5050   -0.9430    0.0110 N   0  0  0  0  0  0  0  0  0  0  0  0
   -2.6230   -1.9610    0.9940 C   0  0  0  0  0  0  0  0  0  0  0  0
   -2.9730   -3.2610    0.3630 C   0  0  0  0  0  0  0  0  0  0  0  0
   -3.9450   -3.8570    0.8470 O   0  0  0  0  0  0  0  0  0  0  0  0
   -2.0510   -3.9030   -0.9930 S   0  0  0  0  0  0  0  0  0  0  0  0
   -1.4530   -5.5790   -0.7680 C   0  0  0  0  0  0  0  0  0  0  0  0
    0.0110   -5.6340   -0.9020 O   0  0  0  0  0  0  0  0  0  0  0  0
    0.6840   -4.4830   -0.6320 C   0  0  0  0  0  0  0  0  0  0  0  0
    0.1110   -3.3710   -1.2060 N   0  0  0  0  0  0  0  0  0  0  0  0
    0.6590   -2.2790   -0.9850 N   0  0  0  0  0  0  0  0  0  0  0  0
    1.8050   -2.0050   -0.2200 C   0  0  0  0  0  0  0  0  0  0  0  0
    2.3770   -3.0640    0.3320 C   0  0  0  0  0  0  0  0  0  0  0  0
    3.5530   -3.3930    1.2270 C   0  0  1  0  0  0  0  0  0  0  0  0
    4.7560   -2.7500    0.9020 N   0  0  0  0  0  0  0  0  0  0  0  0
    4.8000   -1.5630    0.7470 O   0  0  0  0  0  0  0  0  0  0  0  0
    3.1670   -3.0550    2.5180 O   0  0  0  0  0  0  0  0  0  0  0  0
    3.1710   -4.0890    3.3310 O   0  0  0  0  0  0  0  0  0  0  0  0
    1.7420   -4.3100    0.0760 N   0  0  0  0  0  0  0  0  0  0  0  0
    1.8820   -0.4810   -0.1280 C   0  0  0  0  0  0  0  0  0  0  0  0
    0.7770    0.0060    0.5950 C   0  0  0  0  0  0  0  0  0  0  0  0
   -0.1790    0.7050   -0.2430 C   0  0  0  0  0  0  0  0  0  0  0  0
    0.2160    0.8880   -1.9330 P   0  0  0  0  0  0  0  0  0  0  0  0
    2.4250    1.5660   -1.9530 P   0  0  0  0  0  0  0  0  0  0  0  0
    2.5910    3.1840   -1.4120 O   0  0  0  0  0  0  0  0  0  0  0  0
    3.6860    3.7180   -0.7850 C   0  0  0  0  0  0  0  0  0  0  0  0
    4.6810    2.9840   -0.5660 O   0  0  0  0  0  0  0  0  0  0  0  0
    3.6800    5.4670   -0.2850 P   0  0  0  0  0  0  0  0  0  0  0  0
    3.5110    5.7050    1.4020 O   0  0  0  0  0  0  0  0  0  0  0  0
    5.0150    6.3140   -0.9480 O   0  0  0  0  0  0  0  0  0  0  0  0
    2.8320    0.3910   -0.6430 O   0  0  0  0  0  0  0  0  0  0  0  0
   -3.8450    3.6240   -1.3900 C   0  0  0  0  0  0  0  0  0  0  0  0
   -4.5000    3.8030   -2.4410 O   0  0  0  0  0  0  0  0  0  0  0  0
   -4.0560    4.3770   -0.2020 N   0  0  0  0  0  0  0  0  0  0  0  0
   -5.0060    5.3370   -0.1850 O   0  0  0  0  0  0  0  0  0  0  0  0
   -5.9740    5.1080    0.6500 O   0  0  0  0  0  0  0  0  0  0  0  0
  1  2  2  0
  2  3  1  0
  2 36  1  0
  3  4  1  0
  4  5  1  0
  4 26  1  0
  5  6  1  0
  6  7  1  0
  7  8  1  0
  8  9  2  0
  8 10  1  0
 10 11  1  0
 11 12  1  0
 12 13  1  0
 13 14  2  0
 13 23  1  0
 14 15  1  0
 15 16  2  0
 16 17  1  0
 16 24  1  0
 17 18  1  0
 17 23  2  0
 18 19  1  0
 18 21  1  1
 19 20  2  0
 21 22  1  0
 24 25  2  0
 24 35  1  0
 25 26  1  0
 26 27  2  0
 27 28  1  0
 28 29  1  0
 28 35  1  0
 29 30  1  0
 30 31  2  0
 30 32  1  0
 32 33  1  0
 32 34  1  0
 36 37  2  0
 36 38  1  0
 38 39  1  0
 39 40  1  0
M  END
