
     RDKit          3D

 15 15  0  0  0  0  0  0  0  0999 V2000
    1.4990    1.2890    0.8230 O   0  0  0  0  0  0  0  0  0  0  0  0
    1.3210    0.3590   -0.0070 C   0  0  0  0  0  0  0  0  0  0  0  0
    0.0250   -0.2040   -0.1760 N   0  0  0  0  0  0  0  0  0  0  0  0
   -1.0420    0.3360    0.6370 C   0  0  0  0  0  0  0  0  0  0  0  0
   -2.3650   -0.3190    0.3900 C   0  0  1  0  0  0  0  0  0  0  0  0
   -2.3650   -1.6730    0.6460 O   0  0  0  0  0  0  0  0  0  0  0  0
   -3.3760    0.3400    1.3140 C   0  0  0  0  0  0  0  0  0  0  0  0
   -4.6460    0.1430    0.5170 C   0  0  0  0  0  0  0  0  0  0  0  0
   -4.3170    0.1190   -0.8110 O   0  0  0  0  0  0  0  0  0  0  0  0
   -2.9590    0.0120   -0.9500 C   0  0  0  0  0  0  0  0  0  0  0  0
    2.4560   -0.0740   -0.7370 N   0  0  0  0  0  0  0  0  0  0  0  0
    3.7840    0.5190   -0.5500 C   0  0  2  0  0  0  0  0  0  0  0  0
    4.1670    1.0540   -1.7690 O   0  0  0  0  0  0  0  0  0  0  0  0
    4.7020   -0.5940   -0.0880 C   0  0  0  0  0  0  0  0  0  0  0  0
    4.1620   -1.0810    1.1190 O   0  0  0  0  0  0  0  0  0  0  0  0
  1  2  2  0
  2  3  1  0
  2 11  1  0
  3  4  1  0
  4  5  1  0
  5  6  1  1
  5  7  1  0
  5 10  1  0
  7  8  1  0
  8  9  1  0
  9 10  1  0
 11 12  1  0
 12 13  1  6
 12 14  1  0
 14 15  1  0
M  END
