
     RDKit          3D

 28 29  0  0  0  0  0  0  0  0999 V2000
    2.0150    2.1780    0.7340 C   0  0  0  0  0  0  0  0  0  0  0  0
    1.2480    1.2280    1.5900 C   0  0  2  0  0  0  0  0  0  0  0  0
    0.8680    1.9780    2.7360 O   0  0  0  0  0  0  0  0  0  0  0  0
    2.0730    0.0840    2.0710 C   0  0  0  0  0  0  0  0  0  0  0  0
    2.5280   -0.7900    1.1860 O   0  0  0  0  0  0  0  0  0  0  0  0
    3.2690   -1.0700    0.1420 C   0  0  0  0  0  0  0  0  0  0  0  0
    4.0900   -0.2270   -0.5810 C   0  0  0  0  0  0  0  0  0  0  0  0
    4.8080   -0.6850   -1.6680 C   0  0  0  0  0  0  0  0  0  0  0  0
    4.7470   -1.9920   -2.0880 C   0  0  0  0  0  0  0  0  0  0  0  0
    5.6710   -2.5410   -3.4720 Cl  0  0  0  0  0  0  0  0  0  0  0  0
    3.9390   -2.8500   -1.3870 C   0  0  0  0  0  0  0  0  0  0  0  0
    3.8630   -4.1560   -1.7860 F   0  0  0  0  0  0  0  0  0  0  0  0
    3.2340   -2.4090   -0.3230 C   0  0  0  0  0  0  0  0  0  0  0  0
    0.0250    0.7800    0.8540 C   0  0  0  0  0  0  0  0  0  0  0  0
    0.1370    0.1030   -0.1890 O   0  0  0  0  0  0  0  0  0  0  0  0
   -1.2770    1.1060    1.3090 N   0  0  0  0  0  0  0  0  0  0  0  0
   -2.5060    0.7480    0.7130 C   0  0  0  0  0  0  0  0  0  0  0  0
   -3.6710    1.2420    1.3070 C   0  0  0  0  0  0  0  0  0  0  0  0
   -4.9260    0.9760    0.8430 C   0  0  0  0  0  0  0  0  0  0  0  0
   -5.0760    0.1780   -0.2720 C   0  0  0  0  0  0  0  0  0  0  0  0
   -6.4030   -0.0920   -0.7470 C   0  0  0  0  0  0  0  0  0  0  0  0
   -7.4920   -0.2960   -1.1450 N   0  0  0  0  0  0  0  0  0  0  0  0
   -3.9550   -0.3290   -0.8870 C   0  0  0  0  0  0  0  0  0  0  0  0
   -4.1320   -1.1820   -2.0800 C   0  0  2  0  0  0  0  0  0  0  0  0
   -4.7930   -0.4200   -3.0530 F   0  0  0  0  0  0  0  0  0  0  0  0
   -4.9990   -2.2450   -1.8080 F   0  0  0  0  0  0  0  0  0  0  0  0
   -2.9550   -1.6060   -2.6170 F   0  0  0  0  0  0  0  0  0  0  0  0
   -2.6790   -0.0370   -0.3860 C   0  0  0  0  0  0  0  0  0  0  0  0
  2  1  1  6
  2  3  1  0
  2  4  1  0
  2 14  1  0
  4  5  1  0
  5  6  1  0
  6  7  2  0
  6 13  1  0
  7  8  1  0
  8  9  2  0
  9 10  1  0
  9 11  1  0
 11 12  1  0
 11 13  2  0
 14 15  2  0
 14 16  1  0
 16 17  1  0
 17 18  2  0
 17 28  1  0
 18 19  1  0
 19 20  2  0
 20 21  1  0
 20 23  1  0
 21 22  3  0
 23 24  1  0
 23 28  2  0
 24 25  1  6
 24 26  1  0
 24 27  1  0
M  END
