
     RDKit          3D

 15 15  0  0  0  0  0  0  0  0999 V2000
   -0.7120    3.1140    0.5940 C   0  0  0  0  0  0  0  0  0  0  0  0
   -0.5390    1.6670    0.1050 C   0  0  2  0  0  0  0  0  0  0  0  0
   -1.8520    1.2170   -0.4510 C   0  0  0  0  0  0  0  0  0  0  0  0
   -2.0790   -0.1170   -0.4380 O   0  0  0  0  0  0  0  0  0  0  0  0
   -1.5680   -0.8590    0.5790 C   0  0  1  0  0  0  0  0  0  0  0  0
   -1.5210   -2.3010    0.1030 C   0  0  0  0  0  0  0  0  0  0  0  0
   -2.8640   -2.6390   -0.1940 O   0  0  0  0  0  0  0  0  0  0  0  0
   -0.2770   -0.3980    1.1630 C   0  0  1  0  0  0  0  0  0  0  0  0
    0.9080   -1.1050    0.6270 C   0  0  0  0  0  0  0  0  0  0  0  0
    0.9750   -2.3500    0.5130 O   0  0  0  0  0  0  0  0  0  0  0  0
    2.0370   -0.3580    0.2140 N   0  0  0  0  0  0  0  0  0  0  0  0
    3.2170   -0.9980   -0.3160 C   0  0  0  0  0  0  0  0  0  0  0  0
    4.3470   -0.2360   -0.7280 N   0  0  0  0  0  0  0  0  0  0  0  0
    3.2350   -2.2410   -0.4100 O   0  0  0  0  0  0  0  0  0  0  0  0
   -0.0600    0.9480    1.1540 O   0  0  0  0  0  0  0  0  0  0  0  0
  2  1  1  1
  2  3  1  0
  2 15  1  0
  3  4  1  0
  4  5  1  0
  5  6  1  6
  5  8  1  0
  6  7  1  0
  8  9  1  6
  8 15  1  0
  9 10  2  0
  9 11  1  0
 11 12  1  0
 12 13  1  0
 12 14  2  0
M  END
