
     RDKit          3D

 17 18  0  0  0  0  0  0  0  0999 V2000
    4.5940   -1.3540    0.3030 C   0  0  0  0  0  0  0  0  0  0  0  0
    3.1510   -1.6280   -0.0470 C   0  0  0  0  0  0  0  0  0  0  0  0
    2.4580   -0.3900    0.1140 O   0  0  0  0  0  0  0  0  0  0  0  0
    1.0600   -0.3010   -0.1350 C   0  0  0  0  0  0  0  0  0  0  0  0
    0.5770   -1.3830   -0.4870 O   0  0  0  0  0  0  0  0  0  0  0  0
    0.4110    0.9880    0.0500 C   0  0  0  0  0  0  0  0  0  0  0  0
    1.2250    2.0810    0.3080 N   0  0  0  0  0  0  0  0  0  0  0  0
    0.7570    3.3260    0.3830 C   0  0  0  0  0  0  0  0  0  0  0  0
   -0.5840    3.5780    0.2020 C   0  0  0  0  0  0  0  0  0  0  0  0
   -1.3780    2.5480   -0.0410 N   0  0  0  0  0  0  0  0  0  0  0  0
   -0.9000    1.2410   -0.1170 C   0  0  0  0  0  0  0  0  0  0  0  0
   -1.9050    0.1900   -0.1470 C   0  0  0  0  0  0  0  0  0  0  0  0
   -1.8620   -0.9360    0.4780 C   0  0  0  0  0  0  0  0  0  0  0  0
   -2.9220   -1.9550    0.3840 C   0  0  0  0  0  0  0  0  0  0  0  0
   -3.9790   -1.5860   -0.4060 O   0  0  0  0  0  0  0  0  0  0  0  0
   -4.0640   -0.4060   -1.0840 C   0  0  0  0  0  0  0  0  0  0  0  0
   -3.0900    0.4820   -0.9910 C   0  0  0  0  0  0  0  0  0  0  0  0
  1  2  1  0
  2  3  1  0
  3  4  1  0
  4  5  2  0
  4  6  1  0
  6  7  2  0
  6 11  1  0
  7  8  1  0
  8  9  2  0
  9 10  1  0
 10 11  2  0
 11 12  1  0
 12 13  2  0
 12 17  1  0
 13 14  1  0
 14 15  1  0
 15 16  1  0
 16 17  2  0
M  END
