
     RDKit          3D

 17 17  0  0  0  0  0  0  0  0999 V2000
   -3.8120    1.9890   -1.4760 C   0  0  0  0  0  0  0  0  0  0  0  0
   -2.8490    1.3040   -0.5580 C   0  0  0  0  0  0  0  0  0  0  0  0
   -2.6300   -0.1470   -0.9250 C   0  0  0  0  0  0  0  0  0  0  0  0
   -1.7040   -0.7950   -0.0350 N   0  0  0  0  0  0  0  0  0  0  0  0
   -2.1190   -1.0100    1.3350 C   0  0  0  0  0  0  0  0  0  0  0  0
   -0.4120   -1.2500   -0.3970 C   0  0  0  0  0  0  0  0  0  0  0  0
   -0.2140   -2.2690   -1.1590 N   0  0  0  0  0  0  0  0  0  0  0  0
    1.0720   -2.7260   -1.5220 C   0  0  0  0  0  0  0  0  0  0  0  0
    1.2160   -3.7430   -2.2860 O   0  0  0  0  0  0  0  0  0  0  0  0
    2.2770   -2.0400   -1.0290 C   0  0  0  0  0  0  0  0  0  0  0  0
    1.9860   -0.8820   -0.1620 C   0  0  0  0  0  0  0  0  0  0  0  0
    3.1480   -0.1390    0.3740 C   0  0  0  0  0  0  0  0  0  0  0  0
    4.3350   -0.5090    0.0770 O   0  0  0  0  0  0  0  0  0  0  0  0
    3.0700    0.9490    1.1910 O   0  0  0  0  0  0  0  0  0  0  0  0
    4.2230    1.6240    1.6760 C   0  0  0  0  0  0  0  0  0  0  0  0
    0.7500   -0.5350    0.1160 C   0  0  0  0  0  0  0  0  0  0  0  0
    0.5350    0.6270    0.9880 C   0  0  0  0  0  0  0  0  0  0  0  0
  1  2  1  0
  2  3  1  0
  3  4  1  0
  4  5  1  0
  4  6  1  0
  6  7  2  0
  6 16  1  0
  7  8  1  0
  8  9  2  0
  8 10  1  0
 10 11  1  0
 11 12  1  0
 11 16  2  0
 12 13  2  0
 12 14  1  0
 14 15  1  0
 16 17  1  0
M  END
