
     RDKit          3D

 16 17  0  0  0  0  0  0  0  0999 V2000
   -3.3150   -0.8620   -0.7690 C   0  0  0  0  0  0  0  0  0  0  0  0
   -2.2240    0.1440   -0.5740 C   0  0  0  0  0  0  0  0  0  0  0  0
   -2.2260    1.3330   -1.2040 N   0  0  0  0  0  0  0  0  0  0  0  0
   -1.2550    2.2490   -1.0420 C   0  0  0  0  0  0  0  0  0  0  0  0
   -1.2970    3.3490   -1.6520 O   0  0  0  0  0  0  0  0  0  0  0  0
   -0.2100    1.9310   -0.1790 C   0  0  0  0  0  0  0  0  0  0  0  0
    0.7340    2.7590    0.0130 O   0  0  0  0  0  0  0  0  0  0  0  0
   -0.1680    0.7510    0.4730 N   0  0  0  0  0  0  0  0  0  0  0  0
    0.9400    0.4890    1.3490 C   0  0  0  0  0  0  0  0  0  0  0  0
    2.0820   -0.1740    0.6360 C   0  0  0  0  0  0  0  0  0  0  0  0
    3.1200    0.5020    0.0130 C   0  0  0  0  0  0  0  0  0  0  0  0
    3.9280   -0.4900   -0.5020 C   0  0  0  0  0  0  0  0  0  0  0  0
    3.3570   -1.7170   -0.1760 C   0  0  0  0  0  0  0  0  0  0  0  0
    2.2770   -1.4500    0.4910 O   0  0  0  0  0  0  0  0  0  0  0  0
   -1.1690   -0.1570    0.2870 C   0  0  0  0  0  0  0  0  0  0  0  0
   -1.1100   -1.4420    1.0050 C   0  0  0  0  0  0  0  0  0  0  0  0
  1  2  1  0
  2  3  1  0
  2 15  2  0
  3  4  1  0
  4  5  2  0
  4  6  1  0
  6  7  2  0
  6  8  1  0
  8  9  1  0
  8 15  1  0
  9 10  1  0
 10 11  2  0
 10 14  1  0
 11 12  1  0
 12 13  2  0
 13 14  1  0
 15 16  1  0
M  END
