
     RDKit          3D

 17 18  0  0  0  0  0  0  0  0999 V2000
    4.1460    0.0620    1.5530 C   0  0  0  0  0  0  0  0  0  0  0  0
    3.4510    0.4100    0.3050 C   0  0  0  0  0  0  0  0  0  0  0  0
    3.4020    1.5660   -0.0600 O   0  0  0  0  0  0  0  0  0  0  0  0
    2.7970   -0.6190   -0.5230 C   0  0  0  0  0  0  0  0  0  0  0  0
    1.4770   -0.1340   -0.9780 N   0  0  0  0  0  0  0  0  0  0  0  0
    0.3890   -0.3340   -0.2860 N   0  0  0  0  0  0  0  0  0  0  0  0
   -0.8390    0.1280   -0.6530 C   0  0  0  0  0  0  0  0  0  0  0  0
   -1.9960   -0.1510    0.1930 C   0  0  0  0  0  0  0  0  0  0  0  0
   -3.2060    0.2930   -0.0560 C   0  0  0  0  0  0  0  0  0  0  0  0
   -4.4040    0.0270    0.7820 C   0  0  0  0  0  0  0  0  0  0  0  0
   -4.1730   -0.8190    1.8650 O   0  0  0  0  0  0  0  0  0  0  0  0
   -2.9060   -1.2890    2.1420 C   0  0  0  0  0  0  0  0  0  0  0  0
   -1.8690   -0.9980    1.3840 C   0  0  0  0  0  0  0  0  0  0  0  0
   -0.9050    0.8430   -1.8220 C   0  0  0  0  0  0  0  0  0  0  0  0
    0.2390    1.0790   -2.5980 C   0  0  0  0  0  0  0  0  0  0  0  0
    1.4170    0.5660   -2.1300 C   0  0  0  0  0  0  0  0  0  0  0  0
    2.5220    0.7190   -2.7610 O   0  0  0  0  0  0  0  0  0  0  0  0
  1  2  1  0
  2  3  2  0
  2  4  1  0
  4  5  1  0
  5  6  1  0
  5 16  1  0
  6  7  2  0
  7  8  1  0
  7 14  1  0
  8  9  2  0
  8 13  1  0
  9 10  1  0
 10 11  1  0
 11 12  1  0
 12 13  2  0
 14 15  2  0
 15 16  1  0
 16 17  2  0
M  END
