
     RDKit          3D

 17 18  0  0  0  0  0  0  0  0999 V2000
    4.1600   -0.4910   -1.0570 C   0  0  0  0  0  0  0  0  0  0  0  0
    3.7460    0.9360   -0.9070 C   0  0  0  0  0  0  0  0  0  0  0  0
    3.0550    1.2610    0.3850 C   0  0  0  0  0  0  0  0  0  0  0  0
    1.8280    0.4990    0.5870 N   0  0  0  0  0  0  0  0  0  0  0  0
    1.8960   -0.6730    1.2380 C   0  0  0  0  0  0  0  0  0  0  0  0
    3.0200   -1.1020    1.6760 O   0  0  0  0  0  0  0  0  0  0  0  0
    0.7980   -1.3660    1.4180 O   0  0  0  0  0  0  0  0  0  0  0  0
   -0.3640   -0.9520    0.9830 C   0  0  0  0  0  0  0  0  0  0  0  0
   -1.5360   -1.6700    1.1630 C   0  0  0  0  0  0  0  0  0  0  0  0
   -2.7560   -1.2110    0.6930 C   0  0  0  0  0  0  0  0  0  0  0  0
   -2.8250   -0.0070    0.0250 C   0  0  0  0  0  0  0  0  0  0  0  0
   -4.0780    0.4580   -0.4540 N   0  0  0  0  0  0  0  0  0  0  0  0
   -5.2670   -0.3060   -0.2480 C   0  0  0  0  0  0  0  0  0  0  0  0
   -1.6770    0.7200   -0.1650 C   0  0  0  0  0  0  0  0  0  0  0  0
   -0.4720    0.2460    0.3100 C   0  0  0  0  0  0  0  0  0  0  0  0
    0.6560    0.9700    0.1190 C   0  0  0  0  0  0  0  0  0  0  0  0
    0.6280    2.0870   -0.4950 O   0  0  0  0  0  0  0  0  0  0  0  0
  1  2  1  0
  2  3  1  0
  3  4  1  0
  4  5  1  0
  4 16  1  0
  5  6  2  0
  5  7  1  0
  7  8  1  0
  8  9  2  0
  8 15  1  0
  9 10  1  0
 10 11  2  0
 11 12  1  0
 11 14  1  0
 12 13  1  0
 14 15  2  0
 15 16  1  0
 16 17  2  0
M  END
