
     RDKit          3D

 17 17  0  0  0  0  0  0  0  0999 V2000
    6.0370   -0.7850    0.3070 C   0  0  0  0  0  0  0  0  0  0  0  0
    4.9510    0.1020    0.5690 O   0  0  0  0  0  0  0  0  0  0  0  0
    3.6600   -0.2600    0.2420 C   0  0  0  0  0  0  0  0  0  0  0  0
    3.4910   -1.3950   -0.2900 O   0  0  0  0  0  0  0  0  0  0  0  0
    2.4930    0.6180    0.4890 C   0  0  0  0  0  0  0  0  0  0  0  0
    1.2340   -0.0570    0.0260 N   0  0  0  0  0  0  0  0  0  0  0  0
    0.0120    0.5830    0.1590 C   0  0  0  0  0  0  0  0  0  0  0  0
    0.1900    1.7550    0.7220 O   0  0  0  0  0  0  0  0  0  0  0  0
   -1.2930    0.2020   -0.1930 C   0  0  0  0  0  0  0  0  0  0  0  0
   -1.5740   -0.9290   -0.7970 C   0  0  0  0  0  0  0  0  0  0  0  0
   -0.5040   -1.8660   -1.1470 C   0  0  0  0  0  0  0  0  0  0  0  0
   -2.9000   -1.3870   -1.1610 N   0  0  0  0  0  0  0  0  0  0  0  0
   -4.0280   -1.1600   -0.5800 C   0  0  0  0  0  0  0  0  0  0  0  0
   -4.3060   -0.3510    0.6510 C   0  0  0  0  0  0  0  0  0  0  0  0
   -3.5570    0.9540    0.5390 C   0  0  0  0  0  0  0  0  0  0  0  0
   -2.3310    1.2310    0.1990 C   0  0  0  0  0  0  0  0  0  0  0  0
   -1.8730    2.6310    0.1600 C   0  0  0  0  0  0  0  0  0  0  0  0
  1  2  1  0
  2  3  1  0
  3  4  2  0
  3  5  1  0
  5  6  1  0
  6  7  1  0
  7  8  2  0
  7  9  1  0
  9 10  2  0
  9 16  1  0
 10 11  1  0
 10 12  1  0
 12 13  2  0
 13 14  1  0
 14 15  1  0
 15 16  2  0
 16 17  1  0
M  END
