
     RDKit          3D

 31 35  0  0  0  0  0  0  0  0999 V2000
    0.3910    0.6720   -1.6160 C   0  0  0  0  0  0  0  0  0  0  0  0
   -0.0420   -0.3740   -0.6640 C   0  0  0  0  0  0  0  0  0  0  0  0
   -1.2880   -0.9440   -0.5120 C   0  0  0  0  0  0  0  0  0  0  0  0
   -2.4950   -0.6140   -1.2980 C   0  0  0  0  0  0  0  0  0  0  0  0
   -3.5870   -1.1940   -1.0780 O   0  0  0  0  0  0  0  0  0  0  0  0
   -2.4590    0.3440   -2.2970 O   0  0  0  0  0  0  0  0  0  0  0  0
   -3.6040    0.6740   -3.0560 C   0  0  0  0  0  0  0  0  0  0  0  0
   -4.7030    1.1790   -2.2240 C   0  0  0  0  0  0  0  0  0  0  0  0
   -4.4850    1.5470   -0.9220 C   0  0  0  0  0  0  0  0  0  0  0  0
   -5.5110    2.0070   -0.1370 C   0  0  0  0  0  0  0  0  0  0  0  0
   -6.7400    2.0960   -0.6590 N   0  0  0  0  0  0  0  0  0  0  0  0
   -7.8860    2.5060   -0.1060 C   0  0  0  0  0  0  0  0  0  0  0  0
   -8.8420    2.3940   -1.0790 C   0  0  0  0  0  0  0  0  0  0  0  0
   -8.2810    1.9220   -2.2060 N   0  0  0  0  0  0  0  0  0  0  0  0
   -6.9800    1.7380   -1.9470 C   0  0  0  0  0  0  0  0  0  0  0  0
   -5.9720    1.2690   -2.7710 C   0  0  0  0  0  0  0  0  0  0  0  0
   -1.2770   -1.8530    0.4550 N   0  0  0  0  0  0  0  0  0  0  0  0
   -0.0200   -1.9060    0.9670 C   0  0  0  0  0  0  0  0  0  0  0  0
    0.5390   -2.6600    1.9690 C   0  0  0  0  0  0  0  0  0  0  0  0
    1.8600   -2.4790    2.2570 C   0  0  0  0  0  0  0  0  0  0  0  0
    2.6860   -1.5660    1.5910 C   0  0  0  0  0  0  0  0  0  0  0  0
    4.0330   -1.4290    1.9670 N   0  0  0  0  0  0  0  0  0  0  0  0
    5.0650   -0.7660    1.2830 C   0  0  0  0  0  0  0  0  0  0  0  0
    4.8220   -0.2170    0.1990 O   0  0  0  0  0  0  0  0  0  0  0  0
    6.4080   -0.7020    1.8070 N   0  0  0  0  0  0  0  0  0  0  0  0
    7.5680   -0.0670    1.2260 C   0  0  0  0  0  0  0  0  0  0  0  0
    8.3120    0.3520    2.4890 C   0  0  0  0  0  0  0  0  0  0  0  0
    7.7630   -0.3520    3.5270 O   0  0  0  0  0  0  0  0  0  0  0  0
    6.8580   -1.2740    3.0500 C   0  0  0  0  0  0  0  0  0  0  0  0
    2.1190   -0.8200    0.5950 C   0  0  0  0  0  0  0  0  0  0  0  0
    0.7590   -0.9860    0.2760 C   0  0  0  0  0  0  0  0  0  0  0  0
  1  2  1  0
  2  3  2  0
  2 31  1  0
  3  4  1  0
  3 17  1  0
  4  5  2  0
  4  6  1  0
  6  7  1  0
  7  8  1  0
  8  9  1  0
  8 16  2  0
  9 10  2  0
 10 11  1  0
 11 12  1  0
 11 15  1  0
 12 13  2  0
 13 14  1  0
 14 15  2  0
 15 16  1  0
 17 18  1  0
 18 19  2  0
 18 31  1  0
 19 20  1  0
 20 21  2  0
 21 22  1  0
 21 30  1  0
 22 23  1  0
 23 24  2  0
 23 25  1  0
 25 26  1  0
 25 29  1  0
 26 27  1  0
 27 28  1  0
 28 29  1  0
 30 31  2  0
M  END
