
     RDKit          3D

 31 35  0  0  0  0  0  0  0  0999 V2000
   -6.5750   -1.5590   -1.1140 C   0  0  0  0  0  0  0  0  0  0  0  0
   -5.3250   -0.7520   -0.9220 C   0  0  0  0  0  0  0  0  0  0  0  0
   -4.0310   -1.1940   -1.0560 C   0  0  0  0  0  0  0  0  0  0  0  0
   -3.2310   -0.1490   -0.7940 N   0  0  0  0  0  0  0  0  0  0  0  0
   -1.8010   -0.1360   -0.8110 C   0  0  0  0  0  0  0  0  0  0  0  0
   -1.2510   -0.4830    0.5400 C   0  0  0  0  0  0  0  0  0  0  0  0
   -2.0540   -0.7220    1.4390 O   0  0  0  0  0  0  0  0  0  0  0  0
    0.1390   -0.5390    0.7860 N   0  0  0  0  0  0  0  0  0  0  0  0
    0.7920   -0.8510    1.9880 C   0  0  0  0  0  0  0  0  0  0  0  0
    0.1080   -1.3820    3.0720 C   0  0  0  0  0  0  0  0  0  0  0  0
    0.8760   -1.7250    4.1930 C   0  0  0  0  0  0  0  0  0  0  0  0
    0.2310   -2.2070    5.1700 O   0  0  0  0  0  0  0  0  0  0  0  0
    2.2080   -1.5500    4.2200 N   0  0  0  0  0  0  0  0  0  0  0  0
    2.8330   -1.0420    3.1730 N   0  0  0  0  0  0  0  0  0  0  0  0
    2.1610   -0.6790    2.0400 C   0  0  0  0  0  0  0  0  0  0  0  0
    2.8870   -0.1250    0.9270 C   0  0  0  0  0  0  0  0  0  0  0  0
    2.5670    1.0560    0.3060 C   0  0  0  0  0  0  0  0  0  0  0  0
    3.3040    1.5370   -0.7790 C   0  0  0  0  0  0  0  0  0  0  0  0
    4.3760    0.8440   -1.2610 C   0  0  0  0  0  0  0  0  0  0  0  0
    4.7190   -0.3560   -0.6450 C   0  0  0  0  0  0  0  0  0  0  0  0
    3.9900   -0.8100    0.4090 C   0  0  0  0  0  0  0  0  0  0  0  0
    5.8180   -1.0180   -1.1780 O   0  0  0  0  0  0  0  0  0  0  0  0
    6.9240   -0.3380   -1.7490 C   0  0  0  0  0  0  0  0  0  0  0  0
    6.5590    0.9640   -2.3790 C   0  0  0  0  0  0  0  0  0  0  0  0
    5.1640    1.2360   -2.3240 O   0  0  0  0  0  0  0  0  0  0  0  0
   -3.9890    0.9180   -0.5050 C   0  0  0  0  0  0  0  0  0  0  0  0
   -3.7190    2.2430   -0.1620 C   0  0  0  0  0  0  0  0  0  0  0  0
   -4.7230    3.1550    0.0900 C   0  0  0  0  0  0  0  0  0  0  0  0
   -6.0170    2.7810    0.0110 N   0  0  0  0  0  0  0  0  0  0  0  0
   -6.3270    1.5130   -0.3160 C   0  0  0  0  0  0  0  0  0  0  0  0
   -5.3210    0.5790   -0.5740 C   0  0  0  0  0  0  0  0  0  0  0  0
  1  2  1  0
  2  3  2  0
  2 31  1  0
  3  4  1  0
  4  5  1  0
  4 26  1  0
  5  6  1  0
  6  7  2  0
  6  8  1  0
  8  9  1  0
  9 10  2  0
  9 15  1  0
 10 11  1  0
 11 12  2  0
 11 13  1  0
 13 14  1  0
 14 15  2  0
 15 16  1  0
 16 17  2  0
 16 21  1  0
 17 18  1  0
 18 19  2  0
 19 20  1  0
 19 25  1  0
 20 21  2  0
 20 22  1  0
 22 23  1  0
 23 24  1  0
 24 25  1  0
 26 27  2  0
 26 31  1  0
 27 28  1  0
 28 29  2  0
 29 30  1  0
 30 31  2  0
M  END
