
     RDKit          3D

 31 35  0  0  0  0  0  0  0  0999 V2000
    8.3350    0.9800   -0.3220 C   0  0  0  0  0  0  0  0  0  0  0  0
    8.0810   -0.4780   -0.0950 C   0  0  0  0  0  0  0  0  0  0  0  0
    7.3080   -0.7160    1.0340 O   0  0  0  0  0  0  0  0  0  0  0  0
    6.0180   -0.2420    1.1860 C   0  0  0  0  0  0  0  0  0  0  0  0
    5.3700    0.5040    0.2280 C   0  0  0  0  0  0  0  0  0  0  0  0
    4.0630    0.9610    0.4330 C   0  0  0  0  0  0  0  0  0  0  0  0
    3.3730    0.6860    1.5920 C   0  0  0  0  0  0  0  0  0  0  0  0
    2.0460    1.1520    1.7950 N   0  0  0  0  0  0  0  0  0  0  0  0
    1.0230    0.6590    1.2190 C   0  0  0  0  0  0  0  0  0  0  0  0
   -0.2100    1.1350    1.4440 N   0  0  0  0  0  0  0  0  0  0  0  0
   -1.3050    0.6130    0.8330 C   0  0  0  0  0  0  0  0  0  0  0  0
   -2.4470    1.0820    1.0600 O   0  0  0  0  0  0  0  0  0  0  0  0
   -1.1450   -0.4270   -0.0330 C   0  0  0  0  0  0  0  0  0  0  0  0
   -2.2050   -0.9820   -0.6840 C   0  0  0  0  0  0  0  0  0  0  0  0
   -3.5730   -0.5770   -0.4540 C   0  0  0  0  0  0  0  0  0  0  0  0
   -4.1810   -0.7960    0.7490 C   0  0  0  0  0  0  0  0  0  0  0  0
   -5.5050   -0.3820    0.9230 C   0  0  0  0  0  0  0  0  0  0  0  0
   -6.1950    0.2390   -0.1000 C   0  0  0  0  0  0  0  0  0  0  0  0
   -5.5820    0.4610   -1.3160 C   0  0  0  0  0  0  0  0  0  0  0  0
   -4.2730    0.0400   -1.4560 C   0  0  0  0  0  0  0  0  0  0  0  0
   -6.2990    1.0870   -2.3250 O   0  0  0  0  0  0  0  0  0  0  0  0
   -7.7290    0.9640   -2.3510 C   0  0  0  0  0  0  0  0  0  0  0  0
   -8.2310    1.3140   -0.9770 C   0  0  0  0  0  0  0  0  0  0  0  0
   -7.5090    0.6680    0.0260 O   0  0  0  0  0  0  0  0  0  0  0  0
   -1.9280   -2.0380   -1.5730 C   0  0  0  0  0  0  0  0  0  0  0  0
   -0.6960   -2.4830   -1.7740 N   0  0  0  0  0  0  0  0  0  0  0  0
    0.2990   -1.9180   -1.1210 N   0  0  0  0  0  0  0  0  0  0  0  0
    0.1430   -0.9140   -0.2610 C   0  0  0  0  0  0  0  0  0  0  0  0
    1.1920   -0.3660    0.3650 N   0  0  0  0  0  0  0  0  0  0  0  0
    4.0140   -0.0600    2.5550 C   0  0  0  0  0  0  0  0  0  0  0  0
    5.2960   -0.5100    2.3580 C   0  0  0  0  0  0  0  0  0  0  0  0
  1  2  1  0
  2  3  1  0
  3  4  1  0
  4  5  2  0
  4 31  1  0
  5  6  1  0
  6  7  2  0
  7  8  1  0
  7 30  1  0
  8  9  2  3
  9 10  1  0
  9 29  1  0
 10 11  1  0
 11 12  2  0
 11 13  1  0
 13 14  2  0
 13 28  1  0
 14 15  1  0
 14 25  1  0
 15 16  2  0
 15 20  1  0
 16 17  1  0
 17 18  2  0
 18 19  1  0
 18 24  1  0
 19 20  2  0
 19 21  1  0
 21 22  1  0
 22 23  1  0
 23 24  1  0
 25 26  2  0
 26 27  1  0
 27 28  2  0
 28 29  1  0
 30 31  2  0
M  END
