
     RDKit          3D

 33 35  0  0  0  0  0  0  0  0999 V2000
    8.1840   -2.5700    0.7650 C   0  0  0  0  0  0  0  0  0  0  0  0
    7.5800   -1.2620    0.8990 N   0  0  0  0  0  0  0  0  0  0  0  0
    8.0060   -0.1760    0.0870 C   0  0  0  0  0  0  0  0  0  0  0  0
    9.1060   -0.1910   -0.7880 C   0  0  0  0  0  0  0  0  0  0  0  0
    9.2200    1.0000   -1.3690 N   0  0  0  0  0  0  0  0  0  0  0  0
    8.2240    1.7730   -0.8900 C   0  0  0  0  0  0  0  0  0  0  0  0
    7.4640    1.0690    0.0180 C   0  0  0  0  0  0  0  0  0  0  0  0
    6.2680    1.6660    0.6860 C   0  0  0  0  0  0  0  0  0  0  0  0
    5.0540    1.2220    0.0000 C   0  0  0  0  0  0  0  0  0  0  0  0
    5.2660    0.3230   -0.9440 O   0  0  0  0  0  0  0  0  0  0  0  0
    3.7160    1.5750    0.1880 N   0  0  0  0  0  0  0  0  0  0  0  0
    2.7790    0.8450   -0.6570 C   0  0  0  0  0  0  0  0  0  0  0  0
    1.3970    0.8290   -0.1760 C   0  0  0  0  0  0  0  0  0  0  0  0
    0.9020   -0.4670    0.1460 C   0  0  0  0  0  0  0  0  0  0  0  0
    1.8950   -1.5860    0.2180 C   0  0  0  0  0  0  0  0  0  0  0  0
   -0.3310   -0.6580    0.4830 N   0  0  0  0  0  0  0  0  0  0  0  0
   -1.2230    0.4200    0.5320 C   0  0  0  0  0  0  0  0  0  0  0  0
   -2.5680   -0.0330    0.8600 C   0  0  0  0  0  0  0  0  0  0  0  0
   -3.6960    0.7750    0.5870 N   0  0  0  0  0  0  0  0  0  0  0  0
   -4.9360    0.0130    0.6230 C   0  0  0  0  0  0  0  0  0  0  0  0
   -4.8500   -1.2510    0.9050 O   0  0  0  0  0  0  0  0  0  0  0  0
   -6.2420    0.4900    0.3550 N   0  0  0  0  0  0  0  0  0  0  0  0
   -7.3520   -0.3850    0.3800 C   0  0  0  0  0  0  0  0  0  0  0  0
   -7.3920   -1.5200    1.1200 C   0  0  0  0  0  0  0  0  0  0  0  0
   -8.4830   -2.4360    1.0990 C   0  0  0  0  0  0  0  0  0  0  0  0
   -9.5370   -2.1810    0.3130 C   0  0  0  0  0  0  0  0  0  0  0  0
   -9.5670   -1.0340   -0.4720 C   0  0  0  0  0  0  0  0  0  0  0  0
   -8.4990   -0.1360   -0.4560 C   0  0  0  0  0  0  0  0  0  0  0  0
   -8.4340    0.9780   -1.1950 O   0  0  0  0  0  0  0  0  0  0  0  0
   -9.1500    1.6260   -2.1080 C   0  0  0  0  0  0  0  0  0  0  0  0
   -0.8060    1.6890    0.2320 C   0  0  0  0  0  0  0  0  0  0  0  0
    0.5600    1.8940   -0.1340 C   0  0  0  0  0  0  0  0  0  0  0  0
    0.9140    3.0730   -0.3980 O   0  0  0  0  0  0  0  0  0  0  0  0
  1  2  1  0
  2  3  1  0
  3  4  2  0
  3  7  1  0
  4  5  1  0
  5  6  1  0
  6  7  2  0
  7  8  1  0
  8  9  1  0
  9 10  2  0
  9 11  1  0
 11 12  1  0
 12 13  1  0
 13 14  2  0
 13 32  1  0
 14 15  1  0
 14 16  1  0
 16 17  1  0
 17 18  1  0
 17 31  2  0
 18 19  1  0
 19 20  1  0
 20 21  2  0
 20 22  1  0
 22 23  1  0
 23 24  2  0
 23 28  1  0
 24 25  1  0
 25 26  2  0
 26 27  1  0
 27 28  2  0
 28 29  1  0
 29 30  1  0
 31 32  1  0
 32 33  2  0
M  END
