
     RDKit          3D

 32 35  0  0  0  0  0  0  0  0999 V2000
    5.1230   -2.5350   -0.9560 C   0  0  0  0  0  0  0  0  0  0  0  0
    3.9360   -2.7050   -0.1870 N   0  0  1  0  0  0  0  0  0  0  0  0
    4.0370   -4.0590    0.3920 C   0  0  0  0  0  0  0  0  0  0  0  0
    3.6730   -1.8060    0.8620 C   0  0  2  0  0  0  0  0  0  0  0  0
    2.4870   -0.9790    0.5440 C   0  0  0  0  0  0  0  0  0  0  0  0
    2.5210    0.2450    0.0860 C   0  0  0  0  0  0  0  0  0  0  0  0
    1.2280    0.9670   -0.1940 C   0  0  0  0  0  0  0  0  0  0  0  0
    0.0030    0.3390    0.0630 N   0  0  0  0  0  0  0  0  0  0  0  0
   -1.1330    0.3980   -0.8180 C   0  0  0  0  0  0  0  0  0  0  0  0
   -2.1790   -0.5830   -0.2920 C   0  0  2  0  0  0  0  0  0  0  0  0
   -3.3970   -0.5340   -1.2400 C   0  0  0  0  0  0  0  0  0  0  0  0
   -4.1140   -1.8340   -1.1320 C   0  0  0  0  0  0  0  0  0  0  0  0
   -4.9710   -2.0460    0.0510 C   0  0  0  0  0  0  0  0  0  0  0  0
   -4.9070   -1.0920    1.1450 C   0  0  0  0  0  0  0  0  0  0  0  0
   -6.1100   -1.0460    1.8690 C   0  0  0  0  0  0  0  0  0  0  0  0
   -6.2480   -0.2340    2.9220 N   0  0  0  0  0  0  0  0  0  0  0  0
   -5.2840    0.5810    3.3690 C   0  0  0  0  0  0  0  0  0  0  0  0
   -4.0940    0.5590    2.6840 C   0  0  0  0  0  0  0  0  0  0  0  0
   -2.7960    1.5980    3.2140 Cl  0  0  0  0  0  0  0  0  0  0  0  0
   -3.9050   -0.2720    1.5780 C   0  0  0  0  0  0  0  0  0  0  0  0
   -2.5990   -0.1360    1.0170 N   0  0  0  0  0  0  0  0  0  0  0  0
    1.2930    2.1150   -0.7090 N   0  0  0  0  0  0  0  0  0  0  0  0
    0.2950    3.0280   -1.0780 C   0  0  0  0  0  0  0  0  0  0  0  0
   -0.1030    3.1940   -2.4100 C   0  0  0  0  0  0  0  0  0  0  0  0
   -1.0530    4.1000   -2.7860 C   0  0  0  0  0  0  0  0  0  0  0  0
   -1.6590    4.8950   -1.8320 C   0  0  0  0  0  0  0  0  0  0  0  0
   -1.3000    4.7640   -0.5270 C   0  0  0  0  0  0  0  0  0  0  0  0
   -1.9130    5.5660    0.3990 F   0  0  0  0  0  0  0  0  0  0  0  0
   -0.3320    3.8390   -0.1500 C   0  0  0  0  0  0  0  0  0  0  0  0
    3.7910    0.9500   -0.1590 C   0  0  0  0  0  0  0  0  0  0  0  0
    4.9770    0.2710    0.3890 C   0  0  0  0  0  0  0  0  0  0  0  0
    4.7430   -0.8830    1.2970 C   0  0  0  0  0  0  0  0  0  0  0  0
  2  1  1  1
  2  3  1  0
  2  4  1  0
  4  5  1  0
  4 32  1  6
  5  6  2  0
  6  7  1  0
  6 30  1  0
  7  8  1  0
  7 22  2  3
  8  9  1  0
 10  9  1  6
 10 11  1  0
 10 21  1  0
 11 12  1  0
 12 13  1  0
 13 14  1  0
 14 15  2  0
 14 20  1  0
 15 16  1  0
 16 17  2  0
 17 18  1  0
 18 19  1  0
 18 20  2  0
 20 21  1  0
 22 23  1  0
 23 24  2  0
 23 29  1  0
 24 25  1  0
 25 26  2  0
 26 27  1  0
 27 28  1  0
 27 29  2  0
 30 31  1  0
 31 32  1  0
M  CHG  2   2   1  22   1
M  END
