
     RDKit          3D

 32 35  0  0  0  0  0  0  0  0999 V2000
   -1.9820   -2.5370    2.4220 C   0  0  0  0  0  0  0  0  0  0  0  0
   -1.5540   -1.4390    1.5180 C   0  0  0  0  0  0  0  0  0  0  0  0
   -1.9690   -1.3620    0.2920 C   0  0  0  0  0  0  0  0  0  0  0  0
   -2.8970   -2.4840   -0.0740 C   0  0  0  0  0  0  0  0  0  0  0  0
   -3.1260   -3.0270   -1.2460 C   0  0  0  0  0  0  0  0  0  0  0  0
   -4.0590   -4.0460   -1.1810 F   0  0  0  0  0  0  0  0  0  0  0  0
   -2.6430   -2.8270   -2.5220 N   0  0  0  0  0  0  0  0  0  0  0  0
   -1.7340   -1.8010   -2.8250 C   0  0  0  0  0  0  0  0  0  0  0  0
   -0.8900   -1.2070   -1.7870 C   0  0  0  0  0  0  0  0  0  0  0  0
   -1.6190   -0.3630   -0.7090 C   0  0  1  0  0  0  0  0  0  0  0  0
   -2.9320    0.1350   -1.3360 C   0  0  0  0  0  0  0  0  0  0  0  0
   -0.8000    0.8060   -0.3920 C   0  0  1  0  0  0  0  0  0  0  0  0
   -1.1650    1.8060    0.5980 C   0  0  0  0  0  0  0  0  0  0  0  0
   -2.4340    2.6010    0.4130 C   0  0  0  0  0  0  0  0  0  0  0  0
   -2.5640    3.5800    1.5120 N   0  0  2  0  0  0  0  0  0  0  0  0
   -3.1340    2.9510    2.6760 C   0  0  0  0  0  0  0  0  0  0  0  0
   -3.4370    4.6250    1.0060 C   0  0  0  0  0  0  0  0  0  0  0  0
    0.6830    0.5090   -0.4020 C   0  0  0  0  0  0  0  0  0  0  0  0
    1.3700   -0.1380    0.5410 N   0  0  0  0  0  0  0  0  0  0  0  0
    2.6740   -0.2360    0.2300 C   0  0  0  0  0  0  0  0  0  0  0  0
    2.8150    0.3900   -0.9870 C   0  0  0  0  0  0  0  0  0  0  0  0
    4.0210    0.4960   -1.6390 C   0  0  0  0  0  0  0  0  0  0  0  0
    5.1360   -0.0440   -1.0580 C   0  0  0  0  0  0  0  0  0  0  0  0
    6.4470    0.0650   -1.7570 C   0  0  0  0  0  0  0  0  0  0  0  0
    5.0200   -0.6770    0.1630 C   0  0  0  0  0  0  0  0  0  0  0  0
    6.1530   -1.2190    0.7420 C   0  0  0  0  0  0  0  0  0  0  0  0
    6.0220   -1.8490    1.9630 C   0  0  0  0  0  0  0  0  0  0  0  0
    7.4440   -2.5360    2.7020 Cl  0  0  0  0  0  0  0  0  0  0  0  0
    4.7840   -1.9240    2.5700 C   0  0  0  0  0  0  0  0  0  0  0  0
    3.6840   -1.3870    1.9870 N   0  0  0  0  0  0  0  0  0  0  0  0
    3.8040   -0.7770    0.8080 C   0  0  0  0  0  0  0  0  0  0  0  0
    1.5910    0.8260   -1.3350 N   0  0  0  0  0  0  0  0  0  0  0  0
  1  2  1  0
  2  3  2  3
  3  4  1  0
  3 10  1  0
  4  5  2  0
  5  6  1  0
  5  7  1  0
  7  8  1  0
  8  9  1  0
  9 10  1  0
 10 11  1  6
 10 12  1  0
 12 13  1  1
 12 18  1  0
 13 14  1  0
 14 15  1  0
 15 16  1  1
 15 17  1  0
 18 19  2  0
 18 32  1  0
 19 20  1  0
 20 21  2  0
 20 31  1  0
 21 22  1  0
 21 32  1  0
 22 23  2  0
 23 24  1  0
 23 25  1  0
 25 26  2  0
 25 31  1  0
 26 27  1  0
 27 28  1  0
 27 29  2  0
 29 30  1  0
 30 31  2  0
M  CHG  2   7   1  15   1
M  END
