
     RDKit          3D

 29 33  0  0  0  0  0  0  0  0999 V2000
   -5.6760    2.3250    1.6660 C   0  0  0  0  0  0  0  0  0  0  0  0
   -4.7860    3.4760    1.2440 C   0  0  0  0  0  0  0  0  0  0  0  0
   -3.5250    2.9530    0.6750 C   0  0  0  0  0  0  0  0  0  0  0  0
   -2.5630    3.8230    0.2240 C   0  0  0  0  0  0  0  0  0  0  0  0
   -1.3730    3.3300   -0.3140 C   0  0  0  0  0  0  0  0  0  0  0  0
   -1.1570    1.9730   -0.3960 C   0  0  0  0  0  0  0  0  0  0  0  0
   -0.0160    1.4550   -0.9110 N   0  0  0  0  0  0  0  0  0  0  0  0
    0.1790    0.1340   -0.9840 C   0  0  0  0  0  0  0  0  0  0  0  0
    1.3880   -0.3830   -1.5360 N   0  0  0  0  0  0  0  0  0  0  0  0
    1.5120   -1.0950   -2.6650 C   0  0  0  0  0  0  0  0  0  0  0  0
    2.8450   -1.3810   -2.8170 C   0  0  0  0  0  0  0  0  0  0  0  0
    3.4740   -0.8280   -1.7690 N   0  0  0  0  0  0  0  0  0  0  0  0
    2.5920   -0.2060   -0.9650 C   0  0  0  0  0  0  0  0  0  0  0  0
    2.8820    0.5010    0.2520 N   0  0  0  0  0  0  0  0  0  0  0  0
    2.9080   -0.1190    1.5550 C   0  0  0  0  0  0  0  0  0  0  0  0
    4.3190   -0.2000    2.1150 C   0  0  0  0  0  0  0  0  0  0  0  0
    5.1830    1.3480    1.8400 S   0  0  0  0  0  0  0  0  0  0  0  0
    4.6780    2.1190    0.2810 C   0  0  0  0  0  0  0  0  0  0  0  0
    3.1630    1.9130    0.1650 C   0  0  0  0  0  0  0  0  0  0  0  0
   -0.7970   -0.7270   -0.5270 C   0  0  0  0  0  0  0  0  0  0  0  0
   -0.6730   -2.1440   -0.5600 N   0  0  0  0  0  0  0  0  0  0  0  0
    0.3540   -2.8300    0.1670 C   0  0  0  0  0  0  0  0  0  0  0  0
    0.0720   -4.3090    0.3150 C   0  0  0  0  0  0  0  0  0  0  0  0
   -0.3600   -4.8120   -0.9290 O   0  0  0  0  0  0  0  0  0  0  0  0
   -1.6510   -4.3350   -1.1110 C   0  0  0  0  0  0  0  0  0  0  0  0
   -1.6540   -2.8530   -1.3780 C   0  0  0  0  0  0  0  0  0  0  0  0
   -1.9350   -0.1880   -0.0130 N   0  0  0  0  0  0  0  0  0  0  0  0
   -2.1480    1.1340    0.0680 C   0  0  0  0  0  0  0  0  0  0  0  0
   -3.3050    1.6360    0.5900 N   0  0  0  0  0  0  0  0  0  0  0  0
  1  2  1  0
  2  3  1  0
  3  4  2  0
  3 29  1  0
  4  5  1  0
  5  6  2  0
  6  7  1  0
  6 28  1  0
  7  8  2  0
  8  9  1  0
  8 20  1  0
  9 10  1  0
  9 13  1  0
 10 11  2  0
 11 12  1  0
 12 13  2  0
 13 14  1  0
 14 15  1  0
 14 19  1  0
 15 16  1  0
 16 17  1  0
 17 18  1  0
 18 19  1  0
 20 21  1  0
 20 27  2  0
 21 22  1  0
 21 26  1  0
 22 23  1  0
 23 24  1  0
 24 25  1  0
 25 26  1  0
 27 28  1  0
 28 29  2  0
M  END
