
     RDKit          3D

 30 33  0  0  0  0  0  0  0  0999 V2000
   -0.5420   -2.9710   -3.1230 C   0  0  0  0  0  0  0  0  0  0  0  0
   -1.1630   -1.6560   -2.6210 C   0  0  0  0  0  0  0  0  0  0  0  0
   -1.2320   -1.6360   -1.1380 C   0  0  0  0  0  0  0  0  0  0  0  0
   -1.8020   -0.4650   -0.5360 N   0  0  0  0  0  0  0  0  0  0  0  0
   -3.2320   -0.4930   -0.3490 C   0  0  0  0  0  0  0  0  0  0  0  0
   -3.8440   -1.6210   -0.2840 O   0  0  0  0  0  0  0  0  0  0  0  0
   -4.0270    0.7270   -0.2300 C   0  0  0  0  0  0  0  0  0  0  0  0
   -5.3000    1.0410   -0.0590 C   0  0  0  0  0  0  0  0  0  0  0  0
   -5.4180    2.5280   -0.0240 C   0  0  0  0  0  0  0  0  0  0  0  0
   -4.0280    3.0120   -0.2010 C   0  0  0  0  0  0  0  0  0  0  0  0
   -3.2400    1.9530   -0.3170 C   0  0  0  0  0  0  0  0  0  0  0  0
   -1.8320    1.8900   -0.5030 N   0  0  0  0  0  0  0  0  0  0  0  0
   -1.1420    0.7050   -0.0720 C   0  0  2  0  0  0  0  0  0  0  0  0
    0.3030    0.7350   -0.1890 C   0  0  0  0  0  0  0  0  0  0  0  0
    1.0300    0.2650    0.8840 C   0  0  0  0  0  0  0  0  0  0  0  0
    2.3790    0.3300    1.1610 C   0  0  0  0  0  0  0  0  0  0  0  0
    3.3610    0.4930    0.2020 C   0  0  0  0  0  0  0  0  0  0  0  0
    3.2160    0.8710   -1.1410 C   0  0  0  0  0  0  0  0  0  0  0  0
    4.2380    0.7400   -1.8660 O   0  0  0  0  0  0  0  0  0  0  0  0
    2.1180    1.3550   -1.7440 N   0  0  0  0  0  0  0  0  0  0  0  0
    2.3770    2.1100   -2.9560 C   0  0  0  0  0  0  0  0  0  0  0  0
    0.8110    1.2260   -1.3610 C   0  0  0  0  0  0  0  0  0  0  0  0
    0.0550    1.6400   -2.2740 O   0  0  0  0  0  0  0  0  0  0  0  0
    2.6840    0.2120    2.6020 C   0  0  0  0  0  0  0  0  0  0  0  0
    1.8690   -0.8900    3.1240 C   0  0  0  0  0  0  0  0  0  0  0  0
    2.2230   -1.8020    3.9700 C   0  0  0  0  0  0  0  0  0  0  0  0
    3.5610   -1.8730    4.5600 C   0  0  0  0  0  0  0  0  0  0  0  0
    3.9270   -2.7920    5.4160 C   0  0  0  0  0  0  0  0  0  0  0  0
    5.6710   -2.8710    6.1760 Br  0  0  0  0  0  0  0  0  0  0  0  0
    0.3240   -0.6230    2.3000 S   0  0  0  0  0  0  0  0  0  0  0  0
  1  2  1  0
  2  3  1  0
  3  4  1  0
  4  5  1  0
  4 13  1  0
  5  6  2  0
  5  7  1  0
  7  8  2  0
  7 11  1  0
  8  9  1  0
  9 10  1  0
 10 11  2  0
 11 12  1  0
 12 13  1  0
 13 14  1  6
 14 15  2  0
 14 22  1  0
 15 16  1  0
 15 30  1  0
 16 17  2  0
 16 24  1  0
 17 18  1  0
 18 19  2  0
 18 20  1  0
 20 21  1  0
 20 22  1  0
 22 23  2  0
 24 25  1  0
 25 26  2  3
 25 30  1  0
 26 27  1  0
 27 28  2  3
 28 29  1  0
M  END
