
     RDKit          3D

 30 33  0  0  0  0  0  0  0  0999 V2000
   -3.1820   -3.1070   -2.0010 C   0  0  0  0  0  0  0  0  0  0  0  0
   -3.3630   -1.6040   -1.3850 S   0  0  0  0  0  0  0  0  0  0  0  0
   -3.9830   -0.4490   -2.9840 O   0  0  0  0  0  0  0  0  0  0  0  0
   -1.8080   -0.7170   -1.1640 C   0  0  0  0  0  0  0  0  0  0  0  0
   -0.7850   -1.5250   -0.7730 C   0  0  0  0  0  0  0  0  0  0  0  0
    0.4770   -0.9340   -0.5920 C   0  0  0  0  0  0  0  0  0  0  0  0
    0.6310    0.4210   -0.8120 C   0  0  0  0  0  0  0  0  0  0  0  0
    1.8770    1.0560   -0.6410 C   0  0  0  0  0  0  0  0  0  0  0  0
    2.9910    0.2270   -0.2390 C   0  0  0  0  0  0  0  0  0  0  0  0
    4.2610    0.8000   -0.0100 N   0  0  0  0  0  0  0  0  0  0  0  0
    5.3150   -0.1470    0.2150 C   0  0  0  0  0  0  0  0  0  0  0  0
    5.1250   -0.7260    1.5850 C   0  0  0  0  0  0  0  0  0  0  0  0
    5.0390    0.2270    2.5680 O   0  0  0  0  0  0  0  0  0  0  0  0
    5.1970    1.5150    2.1200 C   0  0  2  0  0  0  0  0  0  0  0  0
    4.9000    2.4260    3.2170 C   0  0  0  0  0  0  0  0  0  0  0  0
    4.6740    3.1740    4.1090 N   0  0  0  0  0  0  0  0  0  0  0  0
    4.3350    1.8660    0.9320 C   0  0  0  0  0  0  0  0  0  0  0  0
    1.9090    2.3910   -0.8860 C   0  0  0  0  0  0  0  0  0  0  0  0
    0.7940    3.1060   -1.2810 C   0  0  0  0  0  0  0  0  0  0  0  0
    0.9030    4.3460   -1.4890 O   0  0  0  0  0  0  0  0  0  0  0  0
   -0.3830    2.5050   -1.4410 N   0  0  0  0  0  0  0  0  0  0  0  0
   -0.4330    1.1890   -1.2050 C   0  0  0  0  0  0  0  0  0  0  0  0
   -1.6760    0.6010   -1.3830 C   0  0  0  0  0  0  0  0  0  0  0  0
   -4.5040   -1.2440   -0.1940 C   0  0  0  0  0  0  0  0  0  0  0  0
   -5.8570   -1.5470   -0.4390 C   0  0  0  0  0  0  0  0  0  0  0  0
   -6.8090   -1.2840    0.4980 C   0  0  0  0  0  0  0  0  0  0  0  0
   -6.4500   -0.7140    1.7030 C   0  0  0  0  0  0  0  0  0  0  0  0
   -5.1510   -0.4130    1.9620 C   0  0  0  0  0  0  0  0  0  0  0  0
   -4.2070   -0.6860    1.0030 C   0  0  0  0  0  0  0  0  0  0  0  0
   -2.3850   -0.2500    1.4340 Br  0  0  0  0  0  0  0  0  0  0  0  0
  1  2  1  0
  2  3  2  0
  2  4  1  0
  2 24  1  0
  4  5  2  0
  4 23  1  0
  5  6  1  0
  6  7  2  0
  7  8  1  0
  7 22  1  0
  8  9  1  0
  8 18  2  0
  9 10  1  0
 10 11  1  0
 10 17  1  0
 11 12  1  0
 12 13  1  0
 13 14  1  0
 14 15  1  1
 14 17  1  0
 15 16  3  0
 18 19  1  0
 19 20  2  0
 19 21  1  0
 21 22  1  0
 22 23  2  0
 24 25  2  0
 24 29  1  0
 25 26  1  0
 26 27  2  0
 27 28  1  0
 28 29  2  0
 29 30  1  0
M  END
