
     RDKit          3D

 30 33  0  0  0  0  0  0  0  0999 V2000
   -2.6280    3.3830    2.4780 C   0  0  0  0  0  0  0  0  0  0  0  0
   -3.1920    2.0180    2.6340 C   0  0  2  0  0  0  0  0  0  0  0  0
   -2.3080    0.8830    2.3750 C   0  0  0  0  0  0  0  0  0  0  0  0
   -1.1950    0.9130    1.6990 C   0  0  0  0  0  0  0  0  0  0  0  0
   -0.4320    2.4290    0.8700 Br  0  0  0  0  0  0  0  0  0  0  0  0
   -0.4690   -0.3810    1.5970 C   0  0  0  0  0  0  0  0  0  0  0  0
    0.6450   -0.4380    0.9380 C   0  0  0  0  0  0  0  0  0  0  0  0
    1.4330   -1.6480    0.7790 C   0  0  0  0  0  0  0  0  0  0  0  0
    1.0140   -2.8380    1.3610 C   0  0  0  0  0  0  0  0  0  0  0  0
    1.9540   -3.7930    1.0510 C   0  0  0  0  0  0  0  0  0  0  0  0
    2.8770   -3.1090    0.3010 C   0  0  0  0  0  0  0  0  0  0  0  0
    4.4650   -3.3440   -0.5940 S   0  0  0  0  0  0  0  0  0  0  0  0
    4.5650   -1.6380   -1.1220 C   0  0  0  0  0  0  0  0  0  0  0  0
    5.5440   -1.1310   -1.8440 C   0  0  0  0  0  0  0  0  0  0  0  0
    6.6440   -1.9580   -2.2700 C   0  0  0  0  0  0  0  0  0  0  0  0
    7.3000   -2.9270   -1.5150 C   0  0  0  0  0  0  0  0  0  0  0  0
    8.2970   -3.4970   -2.2650 C   0  0  0  0  0  0  0  0  0  0  0  0
    8.2630   -2.8980   -3.4600 N   0  0  0  0  0  0  0  0  0  0  0  0
    7.2800   -1.9700   -3.4910 C   0  0  0  0  0  0  0  0  0  0  0  0
    3.4330   -1.0850   -0.5900 C   0  0  0  0  0  0  0  0  0  0  0  0
    3.2620    0.1930   -0.8370 O   0  0  0  0  0  0  0  0  0  0  0  0
    2.6280   -1.8520    0.1080 N   0  0  0  0  0  0  0  0  0  0  0  0
   -4.5170    1.7830    2.0490 C   0  0  0  0  0  0  0  0  0  0  0  0
   -5.3870    1.1920    2.7870 O   0  0  0  0  0  0  0  0  0  0  0  0
   -4.9410    2.1360    0.7570 N   0  0  0  0  0  0  0  0  0  0  0  0
   -6.3210    1.7970    0.3150 C   0  0  0  0  0  0  0  0  0  0  0  0
   -6.1500    0.8760   -0.8640 C   0  0  0  0  0  0  0  0  0  0  0  0
   -5.3950    1.4620   -1.8470 O   0  0  0  0  0  0  0  0  0  0  0  0
   -4.9650    2.7250   -1.5710 C   0  0  0  0  0  0  0  0  0  0  0  0
   -4.1780    2.8350   -0.2470 C   0  0  0  0  0  0  0  0  0  0  0  0
  2  1  1  6
  2  3  1  0
  2 23  1  0
  3  4  2  3
  4  5  1  0
  4  6  1  0
  6  7  2  3
  7  8  1  0
  8  9  2  0
  8 22  1  0
  9 10  1  0
 10 11  2  0
 11 12  1  0
 11 22  1  0
 12 13  1  0
 13 14  2  3
 13 20  1  0
 14 15  1  0
 15 16  1  0
 15 19  2  0
 16 17  2  0
 17 18  1  0
 18 19  1  0
 20 21  2  0
 20 22  1  0
 23 24  2  0
 23 25  1  0
 25 26  1  0
 25 30  1  0
 26 27  1  0
 27 28  1  0
 28 29  1  0
 29 30  1  0
M  END
