
     RDKit          3D

 21 24  0  0  0  0  0  0  0  0999 V2000
   -2.3900    1.3630    1.7560 O   0  0  0  0  0  0  0  0  0  0  0  0
   -2.7190    0.9210    0.4960 C   0  0  0  0  0  0  0  0  0  0  0  0
   -1.7800    0.4810   -0.3060 C   0  0  0  0  0  0  0  0  0  0  0  0
   -0.3640    0.4500    0.1150 C   0  0  0  0  0  0  0  0  0  0  0  0
    0.5190   -0.0070   -0.7540 C   0  0  0  0  0  0  0  0  0  0  0  0
    0.3120   -0.5120   -2.1320 C   0  0  0  0  0  0  0  0  0  0  0  0
    1.6140   -0.2050   -2.8030 C   0  0  0  0  0  0  0  0  0  0  0  0
    2.6210   -0.2300   -1.7260 C   0  0  0  0  0  0  0  0  0  0  0  0
    3.9970   -0.3420   -1.6990 C   0  0  0  0  0  0  0  0  0  0  0  0
    4.6740   -0.3320   -0.4780 C   0  0  0  0  0  0  0  0  0  0  0  0
    4.0120   -0.2150    0.7180 C   0  0  0  0  0  0  0  0  0  0  0  0
    2.6280   -0.1030    0.6950 C   0  0  0  0  0  0  0  0  0  0  0  0
    1.9690   -0.1130   -0.5110 C   0  0  0  0  0  0  0  0  0  0  0  0
    5.0140   -0.2430    1.8100 C   0  0  0  0  0  0  0  0  0  0  0  0
    6.2980    0.0870    1.0840 C   0  0  0  0  0  0  0  0  0  0  0  0
    6.0560   -0.4310   -0.2130 O   0  0  0  0  0  0  0  0  0  0  0  0
   -4.1220    0.9410    0.0510 C   0  0  2  0  0  0  0  0  0  0  0  0
   -4.5890    2.2620    0.0900 O   0  0  0  0  0  0  0  0  0  0  0  0
   -5.0230    0.1390    0.9650 C   0  0  2  0  0  0  0  0  0  0  0  0
   -4.7760   -1.3110    1.1630 C   0  0  0  0  0  0  0  0  0  0  0  0
   -5.9060   -0.8520    0.2500 C   0  0  0  0  0  0  0  0  0  0  0  0
  1  2  1  0
  2  3  2  3
  2 17  1  0
  3  4  1  0
  4  5  2  3
  5  6  1  0
  5 13  1  0
  6  7  1  0
  7  8  1  0
  8  9  2  0
  8 13  1  0
  9 10  1  0
 10 11  2  0
 10 16  1  0
 11 12  1  0
 11 14  1  0
 12 13  2  0
 14 15  1  0
 15 16  1  0
 17 18  1  1
 17 19  1  0
 19 20  1  1
 19 21  1  0
 20 21  1  0
M  END
