
     RDKit          3D

 21 24  0  0  0  0  0  0  0  0999 V2000
    4.5230   -2.8340    0.0510 O   0  0  0  0  0  0  0  0  0  0  0  0
    3.5960   -1.7910   -0.0330 C   0  0  0  0  0  0  0  0  0  0  0  0
    4.0370   -0.5070   -0.2660 C   0  0  0  0  0  0  0  0  0  0  0  0
    3.1290    0.5120   -0.3480 C   0  0  0  0  0  0  0  0  0  0  0  0
    1.7910    0.2620   -0.2000 C   0  0  0  0  0  0  0  0  0  0  0  0
    1.3530   -1.0480    0.0360 C   0  0  0  0  0  0  0  0  0  0  0  0
    2.2690   -2.0960    0.1220 C   0  0  0  0  0  0  0  0  0  0  0  0
   -0.0580   -1.4150    0.2130 C   0  0  1  0  0  0  0  0  0  0  0  0
   -0.2340   -2.1250    1.4340 O   0  0  0  0  0  0  0  0  0  0  0  0
   -1.0410   -0.3220    0.1230 C   0  0  1  0  0  0  0  0  0  0  0  0
   -1.9800   -0.6470   -1.0560 C   0  0  0  0  0  0  0  0  0  0  0  0
   -2.9710   -1.6280   -0.5120 C   0  0  0  0  0  0  0  0  0  0  0  0
   -2.9390   -1.4810    0.9750 C   0  0  0  0  0  0  0  0  0  0  0  0
   -1.9990   -0.3600    1.2990 C   0  0  0  0  0  0  0  0  0  0  0  0
   -0.5410    1.0290   -0.1350 C   0  0  0  0  0  0  0  0  0  0  0  0
   -1.4730    2.0910   -0.2350 C   0  0  0  0  0  0  0  0  0  0  0  0
   -1.0230    3.3660   -0.4750 C   0  0  0  0  0  0  0  0  0  0  0  0
   -1.9730    4.3840   -0.5670 O   0  0  0  0  0  0  0  0  0  0  0  0
    0.3160    3.6220   -0.6190 C   0  0  0  0  0  0  0  0  0  0  0  0
    1.2490    2.5850   -0.5240 C   0  0  0  0  0  0  0  0  0  0  0  0
    0.7810    1.3110   -0.2830 C   0  0  0  0  0  0  0  0  0  0  0  0
  1  2  1  0
  2  3  2  0
  2  7  1  0
  3  4  1  0
  4  5  2  0
  5  6  1  0
  5 21  1  0
  6  7  2  0
  6  8  1  0
  8  9  1  1
  8 10  1  0
 10 11  1  6
 10 14  1  0
 10 15  1  0
 11 12  1  0
 12 13  1  0
 13 14  1  0
 15 16  2  0
 15 21  1  0
 16 17  1  0
 17 18  1  0
 17 19  2  0
 19 20  1  0
 20 21  2  0
M  END
