
     RDKit          3D

 13 14  0  0  0  0  0  0  0  0999 V2000
    0.6440   -2.9910   -0.5350 O   0  0  0  0  0  0  0  0  0  0  0  0
    0.9350   -1.7820   -0.3170 C   0  0  0  0  0  0  0  0  0  0  0  0
    2.3200   -1.3600   -0.2370 C   0  0  0  0  0  0  0  0  0  0  0  0
    2.5610   -0.0890   -0.0090 C   0  0  0  0  0  0  0  0  0  0  0  0
    1.4710    0.8990    0.1660 C   0  0  0  0  0  0  0  0  0  0  0  0
    1.7550    2.1010    0.3820 O   0  0  0  0  0  0  0  0  0  0  0  0
    0.0720    0.5060    0.0910 C   0  0  0  0  0  0  0  0  0  0  0  0
   -0.9520    1.4290    0.2540 C   0  0  0  0  0  0  0  0  0  0  0  0
   -0.7730    2.7540    0.4920 O   0  0  0  0  0  0  0  0  0  0  0  0
   -2.2870    0.9700    0.1680 C   0  0  0  0  0  0  0  0  0  0  0  0
   -2.5140   -0.3600   -0.0720 C   0  0  0  0  0  0  0  0  0  0  0  0
   -1.4810   -1.2520   -0.2290 C   0  0  0  0  0  0  0  0  0  0  0  0
   -0.1780   -0.8330   -0.1500 C   0  0  0  0  0  0  0  0  0  0  0  0
  1  2  2  0
  2  3  1  0
  2 13  1  0
  3  4  2  0
  4  5  1  0
  5  6  2  0
  5  7  1  0
  7  8  2  0
  7 13  1  0
  8  9  1  0
  8 10  1  0
 10 11  2  0
 11 12  1  0
 12 13  2  0
M  END
