
     RDKit          3D

 29 30  0  0  0  0  0  0  0  0999 V2000
   -8.2190    2.0420    1.0370 C   0  0  0  0  0  0  0  0  0  0  0  0
   -8.7430    0.8220    0.3300 C   0  0  0  0  0  0  0  0  0  0  0  0
   -7.8090    0.4710   -0.7220 N   0  0  0  0  0  0  0  0  0  0  0  0
   -6.4650    0.1540   -0.3930 C   0  0  0  0  0  0  0  0  0  0  0  0
   -6.1190    0.1860    0.8050 O   0  0  0  0  0  0  0  0  0  0  0  0
   -5.5380   -0.1950   -1.4490 C   0  0  0  0  0  0  0  0  0  0  0  0
   -4.1140   -0.4330   -1.0470 C   0  0  2  0  0  0  0  0  0  0  0  0
   -3.4280   -0.7710   -2.2000 O   0  0  0  0  0  0  0  0  0  0  0  0
   -2.1080   -1.0640   -2.0740 C   0  0  0  0  0  0  0  0  0  0  0  0
   -1.3280   -0.0120   -1.5530 O   0  0  0  0  0  0  0  0  0  0  0  0
    0.0210   -0.1690   -1.3770 C   0  0  0  0  0  0  0  0  0  0  0  0
    0.9850    0.7020   -1.1910 C   0  0  0  0  0  0  0  0  0  0  0  0
    2.1500    0.4220   -0.7470 C   0  0  0  0  0  0  0  0  0  0  0  0
    2.9970    1.3460    0.0390 C   0  0  0  0  0  0  0  0  0  0  0  0
    4.1960    0.9970    0.4720 C   0  0  0  0  0  0  0  0  0  0  0  0
    5.0250    1.8920    1.2370 C   0  0  0  0  0  0  0  0  0  0  0  0
    6.2190    1.6020    1.6920 C   0  0  0  0  0  0  0  0  0  0  0  0
    6.9060    0.3150    1.4950 C   0  0  0  0  0  0  0  0  0  0  0  0
    8.4780    0.7200    0.5770 S   0  0  1  0  0  0  0  0  0  0  0  0
    9.1850   -0.8790    0.4130 C   0  0  0  0  0  0  0  0  0  0  0  0
    7.7970    1.0170   -1.0100 C   0  0  0  0  0  0  0  0  0  0  0  0
    2.5720   -0.8810   -1.0780 O   0  0  0  0  0  0  0  0  0  0  0  0
    1.0220   -1.7400   -1.3350 P   0  0  0  0  0  0  0  0  0  0  0  0
    0.6330   -2.5460    0.3060 C   0  0  0  0  0  0  0  0  0  0  0  0
    0.7220   -1.4650    1.3560 C   0  0  0  0  0  0  0  0  0  0  0  0
   -4.0030   -1.5460   -0.0530 C   0  0  0  0  0  0  0  0  0  0  0  0
   -3.0250   -1.0270    0.9440 C   0  0  0  0  0  0  0  0  0  0  0  0
   -2.7050    0.2700    0.6670 O   0  0  0  0  0  0  0  0  0  0  0  0
   -3.5050    0.7410   -0.3330 C   0  0  0  0  0  0  0  0  0  0  0  0
  1  2  1  0
  2  3  1  0
  3  4  1  0
  4  5  2  0
  4  6  1  0
  7  6  1  6
  7  8  1  0
  7 26  1  0
  7 29  1  0
  8  9  1  0
  9 10  1  0
 10 11  1  0
 11 12  2  0
 11 23  1  0
 12 13  2  0
 13 14  1  0
 13 22  1  0
 14 15  2  3
 15 16  1  0
 16 17  2  3
 17 18  1  0
 18 19  1  0
 19 20  1  6
 19 21  1  0
 22 23  1  0
 23 24  1  0
 24 25  1  0
 26 27  1  0
 27 28  1  0
 28 29  1  0
M  END
