
     RDKit          3D

 29 30  0  0  0  0  0  0  0  0999 V2000
   -5.0680   -1.6340    1.7930 C   0  0  0  0  0  0  0  0  0  0  0  0
   -4.4330   -2.9410    1.3880 C   0  0  0  0  0  0  0  0  0  0  0  0
   -3.0740   -2.6360    0.8290 C   0  0  0  0  0  0  0  0  0  0  0  0
   -2.5690   -1.4450    0.7320 C   0  0  0  0  0  0  0  0  0  0  0  0
   -1.3060   -1.0100    0.2280 C   0  0  0  0  0  0  0  0  0  0  0  0
   -0.3000   -1.7770   -0.2890 C   0  0  0  0  0  0  0  0  0  0  0  0
   -0.1850   -3.5510   -0.5240 P   0  0  0  0  0  0  0  0  0  0  0  0
   -1.1530   -4.2530   -1.8940 C   0  0  0  0  0  0  0  0  0  0  0  0
    0.0110   -4.5120    0.9090 N   0  0  0  0  0  0  0  0  0  0  0  0
    0.6870   -0.9570   -0.6320 O   0  0  0  0  0  0  0  0  0  0  0  0
    0.3710    0.2790   -0.3650 C   0  0  0  0  0  0  0  0  0  0  0  0
    1.2710    1.3920   -0.6360 C   0  0  0  0  0  0  0  0  0  0  0  0
    2.4700    1.2100   -1.2040 C   0  0  0  0  0  0  0  0  0  0  0  0
    3.0110   -0.0950   -1.6120 C   0  0  2  0  0  0  0  0  0  0  0  0
    3.2980   -0.9590   -0.5470 O   0  0  0  0  0  0  0  0  0  0  0  0
    4.5450   -1.5740   -0.3920 C   0  0  0  0  0  0  0  0  0  0  0  0
    4.7290   -2.8770    0.2520 C   0  0  0  0  0  0  0  0  0  0  0  0
    5.5660   -0.8830   -0.8750 C   0  0  0  0  0  0  0  0  0  0  0  0
    5.1960    0.4230   -1.4970 C   0  0  1  0  0  0  0  0  0  0  0  0
    6.6410    1.2300   -2.3050 P   0  0  0  0  0  0  0  0  0  0  0  0
    4.1630    0.1360   -2.3870 O   0  0  0  0  0  0  0  0  0  0  0  0
   -0.8830    0.3510    0.1860 C   0  0  0  0  0  0  0  0  0  0  0  0
   -1.6020    1.3380    0.6020 O   0  0  0  0  0  0  0  0  0  0  0  0
   -1.8530    2.6440    0.8150 C   0  0  2  0  0  0  0  0  0  0  0  0
   -0.7920    3.3120    1.6650 C   0  0  0  0  0  0  0  0  0  0  0  0
   -3.1790    2.9040    1.5420 C   0  0  0  0  0  0  0  0  0  0  0  0
   -1.9870    3.3420   -0.5050 C   0  0  0  0  0  0  0  0  0  0  0  0
   -2.3640    4.6060   -0.6060 O   0  0  0  0  0  0  0  0  0  0  0  0
   -1.6700    5.6100   -0.0650 C   0  0  0  0  0  0  0  0  0  0  0  0
  1  2  1  0
  2  3  1  0
  3  4  2  3
  4  5  1  0
  5  6  2  0
  5 22  1  0
  6  7  1  0
  6 10  1  0
  7  8  1  0
  7  9  1  0
 10 11  1  0
 11 12  1  0
 11 22  2  0
 12 13  2  3
 14 13  1  1
 14 15  1  0
 14 21  1  0
 15 16  1  0
 16 17  1  0
 16 18  2  0
 18 19  1  0
 19 20  1  6
 19 21  1  0
 22 23  1  0
 23 24  1  0
 24 25  1  1
 24 26  1  0
 24 27  1  0
 27 28  1  0
 28 29  1  0
M  END
