
     RDKit          3D

 29 30  0  0  0  0  0  0  0  0999 V2000
   -3.1920    2.6790   -2.1910 C   0  0  0  0  0  0  0  0  0  0  0  0
   -2.6670    2.6290   -0.7280 C   0  0  1  0  0  0  0  0  0  0  0  0
   -3.7860    3.2390    0.0720 C   0  0  0  0  0  0  0  0  0  0  0  0
   -4.1710    2.7970    1.1320 O   0  0  0  0  0  0  0  0  0  0  0  0
   -2.1930    0.9890   -0.2300 P   0  0  0  0  0  0  0  0  0  0  0  0
   -1.3830    0.2870    0.9150 C   0  0  0  0  0  0  0  0  0  0  0  0
   -0.7170    0.8970    2.0240 C   0  0  0  0  0  0  0  0  0  0  0  0
   -0.6080    2.1420    2.3670 C   0  0  0  0  0  0  0  0  0  0  0  0
    0.1340    2.4460    3.5480 O   0  0  0  0  0  0  0  0  0  0  0  0
   -1.1240    3.2220    1.7310 O   0  0  0  0  0  0  0  0  0  0  0  0
   -1.3010   -1.1480    0.8610 N   0  0  0  0  0  0  0  0  0  0  0  0
   -0.3760   -1.9240    0.6240 C   0  0  0  0  0  0  0  0  0  0  0  0
   -0.7970   -3.2860    0.6910 O   0  0  0  0  0  0  0  0  0  0  0  0
   -2.0360   -3.6820    1.1800 C   0  0  1  0  0  0  0  0  0  0  0  0
   -2.2770   -3.2810    2.6230 C   0  0  0  0  0  0  0  0  0  0  0  0
   -3.2000   -3.2230    0.3640 C   0  0  0  0  0  0  0  0  0  0  0  0
   -2.0420   -5.2120    1.1630 C   0  0  0  0  0  0  0  0  0  0  0  0
    1.0270   -1.6790    0.2970 C   0  0  0  0  0  0  0  0  0  0  0  0
    1.8600   -2.7130    0.0820 C   0  0  0  0  0  0  0  0  0  0  0  0
    3.2850   -2.5210   -0.2510 C   0  0  0  0  0  0  0  0  0  0  0  0
    3.4820   -1.3850   -1.0350 O   0  0  0  0  0  0  0  0  0  0  0  0
    2.7800   -0.2300   -0.7170 C   0  0  0  0  0  0  0  0  0  0  0  0
    3.1420    0.9290   -1.2030 C   0  0  0  0  0  0  0  0  0  0  0  0
    4.2690    1.1420   -2.0920 C   0  0  0  0  0  0  0  0  0  0  0  0
    4.6030    2.3280   -2.5650 C   0  0  0  0  0  0  0  0  0  0  0  0
    3.8240    3.5220   -2.2050 C   0  0  0  0  0  0  0  0  0  0  0  0
    3.1210    3.3340   -0.8990 C   0  0  0  0  0  0  0  0  0  0  0  0
    2.4240    2.0780   -0.8730 O   0  0  0  0  0  0  0  0  0  0  0  0
    1.6100   -0.3310    0.1840 C   0  0  0  0  0  0  0  0  0  0  0  0
  2  1  1  6
  2  3  1  0
  2  5  1  0
  3  4  2  0
  5  6  2  3
  6  7  1  0
  6 11  1  0
  7  8  2  3
  8  9  1  0
  8 10  1  0
 11 12  2  3
 12 13  1  0
 12 18  1  0
 13 14  1  0
 14 15  1  1
 14 16  1  0
 14 17  1  0
 18 19  2  0
 18 29  1  0
 19 20  1  0
 20 21  1  0
 21 22  1  0
 22 23  2  3
 22 29  1  0
 23 24  1  0
 23 28  1  0
 24 25  2  0
 25 26  1  0
 26 27  1  0
 27 28  1  0
M  END
