
     RDKit          3D

 29 31  0  0  0  0  0  0  0  0999 V2000
   -1.8920   -5.7800    1.4580 C   0  0  0  0  0  0  0  0  0  0  0  0
   -1.5490   -4.7570    0.3700 C   0  0  0  0  0  0  0  0  0  0  0  0
   -0.2690   -5.0460   -0.0530 O   0  0  0  0  0  0  0  0  0  0  0  0
    0.3040   -4.0020   -1.2820 P   0  0  0  0  0  0  0  0  0  0  0  0
   -0.9670   -3.6510   -2.5760 C   0  0  0  0  0  0  0  0  0  0  0  0
    0.8920   -2.3740   -0.5370 C   0  0  0  0  0  0  0  0  0  0  0  0
   -0.1160   -1.4450   -0.7440 N   0  0  0  0  0  0  0  0  0  0  0  0
    0.0250   -0.0680   -0.3060 C   0  0  1  0  0  0  0  0  0  0  0  0
   -1.0120    0.6930   -0.8160 O   0  0  0  0  0  0  0  0  0  0  0  0
   -2.0380    1.2980   -0.1060 C   0  0  0  0  0  0  0  0  0  0  0  0
   -3.1360    1.8780   -0.7780 O   0  0  0  0  0  0  0  0  0  0  0  0
   -3.2820    3.2530   -0.7180 C   0  0  0  0  0  0  0  0  0  0  0  0
   -4.3730    3.8040   -1.3890 C   0  0  0  0  0  0  0  0  0  0  0  0
   -4.5930    5.1680   -1.3790 C   0  0  0  0  0  0  0  0  0  0  0  0
   -3.6880    5.9580   -0.6780 C   0  0  0  0  0  0  0  0  0  0  0  0
   -2.6070    5.4050   -0.0130 C   0  0  0  0  0  0  0  0  0  0  0  0
   -1.7270    6.2280    0.6740 O   0  0  0  0  0  0  0  0  0  0  0  0
   -2.3910    4.0420   -0.0260 C   0  0  0  0  0  0  0  0  0  0  0  0
   -1.9560    1.3150    1.2120 C   0  0  0  0  0  0  0  0  0  0  0  0
   -0.8070    0.6760    1.8400 C   0  0  0  0  0  0  0  0  0  0  0  0
    0.1380    0.0500    1.1890 C   0  0  0  0  0  0  0  0  0  0  0  0
    1.4820   -0.4930    1.4900 C   0  0  0  0  0  0  0  0  0  0  0  0
    2.2530   -0.2940    0.3960 C   0  0  0  0  0  0  0  0  0  0  0  0
    3.5520   -0.6270    0.2280 O   0  0  0  0  0  0  0  0  0  0  0  0
    4.6250   -0.2080    1.0400 C   0  0  1  0  0  0  0  0  0  0  0  0
    5.8900   -0.8200    0.4840 C   0  0  0  0  0  0  0  0  0  0  0  0
    4.7990    1.2950    1.0290 C   0  0  0  0  0  0  0  0  0  0  0  0
    1.3900    0.3760   -0.6350 C   0  0  0  0  0  0  0  0  0  0  0  0
    1.8340    1.3730   -1.8560 P   0  0  0  0  0  0  0  0  0  0  0  0
  1  2  1  0
  2  3  1  0
  3  4  1  0
  4  5  1  0
  4  6  1  0
  6  7  1  0
  8  7  1  1
  8  9  1  0
  8 21  1  0
  8 28  1  0
  9 10  1  0
 10 11  1  0
 10 19  2  0
 11 12  1  0
 12 13  2  0
 12 18  1  0
 13 14  1  0
 14 15  2  0
 15 16  1  0
 16 17  1  0
 16 18  2  0
 19 20  1  0
 20 21  2  0
 21 22  1  0
 22 23  2  0
 23 24  1  0
 23 28  1  0
 24 25  1  0
 25 26  1  6
 25 27  1  0
 28 29  2  0
M  END
