
     RDKit          3D

 29 31  0  0  0  0  0  0  0  0999 V2000
    2.7170    0.9260    4.6110 C   0  0  0  0  0  0  0  0  0  0  0  0
    2.7540   -0.0420    3.6180 O   0  0  0  0  0  0  0  0  0  0  0  0
    3.2160    0.4520    2.4170 C   0  0  0  0  0  0  0  0  0  0  0  0
    3.2520   -0.5850    1.3540 C   0  0  0  0  0  0  0  0  0  0  0  0
    1.9320   -1.1920    0.9640 C   0  0  2  0  0  0  0  0  0  0  0  0
    1.2900   -1.8590    2.1130 C   0  0  0  0  0  0  0  0  0  0  0  0
   -0.3570   -2.5890    1.5510 P   0  0  0  0  0  0  0  0  0  0  0  0
   -1.3480   -3.0340    2.6460 O   0  0  0  0  0  0  0  0  0  0  0  0
    2.1870   -2.0490   -0.2530 C   0  0  1  0  0  0  0  0  0  0  0  0
    3.1310   -3.1630   -0.0980 C   0  0  0  0  0  0  0  0  0  0  0  0
    2.5000   -4.4860   -0.2730 C   0  0  0  0  0  0  0  0  0  0  0  0
    1.3180   -4.7200   -0.7830 C   0  0  0  0  0  0  0  0  0  0  0  0
    0.5340   -3.5780   -1.2270 C   0  0  0  0  0  0  0  0  0  0  0  0
   -0.6150   -3.8040   -1.7220 O   0  0  0  0  0  0  0  0  0  0  0  0
    1.0630   -2.2830   -1.0950 N   0  0  0  0  0  0  0  0  0  0  0  0
    0.4470   -1.2270   -1.8350 C   0  0  0  0  0  0  0  0  0  0  0  0
    0.9350   -0.0900   -1.7310 O   0  0  0  0  0  0  0  0  0  0  0  0
   -0.7140   -1.4770   -2.6790 C   0  0  0  0  0  0  0  0  0  0  0  0
   -1.1680   -0.2720   -3.4860 C   0  0  0  0  0  0  0  0  0  0  0  0
   -1.5820    0.9010   -2.6700 C   0  0  0  0  0  0  0  0  0  0  0  0
   -2.7350    0.5890   -1.7400 C   0  0  0  0  0  0  0  0  0  0  0  0
   -3.1270    1.7670   -0.9370 C   0  0  0  0  0  0  0  0  0  0  0  0
   -2.5590    2.9620   -0.9790 C   0  0  0  0  0  0  0  0  0  0  0  0
   -1.5360    3.6950   -1.6030 O   0  0  0  0  0  0  0  0  0  0  0  0
   -1.5400    5.0000   -1.0950 C   0  0  0  0  0  0  0  0  0  0  0  0
   -2.6200    5.0760   -0.1080 C   0  0  0  0  0  0  0  0  0  0  0  0
   -3.2000    3.8810   -0.0560 C   0  0  0  0  0  0  0  0  0  0  0  0
   -4.2850    3.1620    0.6270 C   0  0  0  0  0  0  0  0  0  0  0  0
   -4.2450    1.7850    0.0600 C   0  0  0  0  0  0  0  0  0  0  0  0
  1  2  1  0
  2  3  1  0
  3  4  1  0
  5  4  1  1
  5  6  1  0
  5  9  1  0
  6  7  1  0
  7  8  2  0
  9 10  1  1
  9 15  1  0
 10 11  1  0
 11 12  2  0
 12 13  1  0
 13 14  2  0
 13 15  1  0
 15 16  1  0
 16 17  2  0
 16 18  1  0
 18 19  1  0
 19 20  1  0
 20 21  1  0
 21 22  1  0
 22 23  2  0
 22 29  1  0
 23 24  1  0
 23 27  1  0
 24 25  1  0
 25 26  1  0
 26 27  2  0
 27 28  1  0
 28 29  1  0
M  END
