
     RDKit          3D

 29 30  0  0  0  0  0  0  0  0999 V2000
   -1.0920   -3.3190   -1.3110 C   0  0  0  0  0  0  0  0  0  0  0  0
   -1.6640   -2.0200   -1.8840 C   0  0  2  0  0  0  0  0  0  0  0  0
   -1.6390   -1.0420   -0.8250 N   0  0  0  0  0  0  0  0  0  0  0  0
   -0.7970    0.1030   -0.8320 C   0  0  0  0  0  0  0  0  0  0  0  0
   -0.0460    0.2100   -1.8610 O   0  0  0  0  0  0  0  0  0  0  0  0
   -0.7250    1.1180    0.1970 C   0  0  2  0  0  0  0  0  0  0  0  0
   -0.2190    0.4860    1.4740 C   0  0  0  0  0  0  0  0  0  0  0  0
    1.1210   -0.1090    1.3370 C   0  0  0  0  0  0  0  0  0  0  0  0
    1.3030   -1.4230    0.9670 C   0  0  0  0  0  0  0  0  0  0  0  0
    2.5870   -1.9650    0.8420 C   0  0  0  0  0  0  0  0  0  0  0  0
    3.7080   -1.2020    1.0860 C   0  0  0  0  0  0  0  0  0  0  0  0
    5.0560   -1.7670    0.9560 C   0  0  0  0  0  0  0  0  0  0  0  0
    6.0990   -1.3360    1.7260 C   0  0  0  0  0  0  0  0  0  0  0  0
    7.3640   -1.8750    1.5950 C   0  0  0  0  0  0  0  0  0  0  0  0
    7.6080   -2.8710    0.6740 C   0  0  0  0  0  0  0  0  0  0  0  0
    6.5610   -3.3190   -0.1150 C   0  0  0  0  0  0  0  0  0  0  0  0
    5.2910   -2.7620    0.0330 C   0  0  0  0  0  0  0  0  0  0  0  0
    3.5220    0.1120    1.4560 C   0  0  0  0  0  0  0  0  0  0  0  0
    2.2550    0.6430    1.5780 C   0  0  0  0  0  0  0  0  0  0  0  0
   -2.0120    1.8430    0.5380 C   0  0  0  0  0  0  0  0  0  0  0  0
   -2.8540    2.7270   -0.5680 P   0  0  0  0  0  0  0  0  0  0  0  0
   -3.1810    1.3420   -1.4430 O   0  0  0  0  0  0  0  0  0  0  0  0
   -1.5040    3.6460   -0.9750 O   0  0  0  0  0  0  0  0  0  0  0  0
   -4.0670    3.4040    0.4640 C   0  0  2  0  0  0  0  0  0  0  0  0
   -5.4420    2.8600    0.0310 C   0  0  0  0  0  0  0  0  0  0  0  0
   -4.2120    4.8700    0.3600 N   0  0  0  0  0  0  0  0  0  0  0  0
   -3.0090   -2.2410   -2.4540 C   0  0  0  0  0  0  0  0  0  0  0  0
   -3.9780   -1.5970   -1.9950 O   0  0  0  0  0  0  0  0  0  0  0  0
   -3.1280   -3.1600   -3.4780 O   0  0  0  0  0  0  0  0  0  0  0  0
  2  1  1  1
  2  3  1  0
  2 27  1  0
  3  4  1  0
  4  5  2  0
  4  6  1  0
  6  7  1  1
  6 20  1  0
  7  8  1  0
  8  9  2  0
  8 19  1  0
  9 10  1  0
 10 11  2  0
 11 12  1  0
 11 18  1  0
 12 13  2  0
 12 17  1  0
 13 14  1  0
 14 15  2  0
 15 16  1  0
 16 17  2  0
 18 19  2  0
 20 21  1  0
 21 22  1  0
 21 23  1  0
 21 24  1  0
 24 25  1  6
 24 26  1  0
 27 28  2  0
 27 29  1  0
M  CHG  1  26   1
M  END
