
     RDKit          3D

  9 10  0  0  0  0  0  0  0  0999 V2000
   -1.8370    0.7520    0.4860 C   0  0  0  0  0  0  0  0  0  0  0  0
   -2.0140   -0.5230    0.0580 C   0  0  0  0  0  0  0  0  0  0  0  0
   -0.9690   -1.2970   -0.3400 N   0  0  0  0  0  0  0  0  0  0  0  0
    0.2920   -0.8520   -0.3350 C   0  0  0  0  0  0  0  0  0  0  0  0
    1.4680   -1.4100   -0.6730 N   0  0  0  0  0  0  0  0  0  0  0  0
    2.4510   -0.5010   -0.4710 C   0  0  0  0  0  0  0  0  0  0  0  0
    1.9050    0.6840    0.0120 C   0  0  0  0  0  0  0  0  0  0  0  0
    0.5400    0.5140    0.1160 C   0  0  0  0  0  0  0  0  0  0  0  0
   -0.5430    1.2590    0.5090 C   0  0  0  0  0  0  0  0  0  0  0  0
  1  2  2  0
  1  9  1  0
  2  3  1  0
  3  4  1  0
  4  5  2  0
  4  8  1  0
  5  6  1  0
  6  7  2  0
  7  8  1  0
  8  9  2  0
M  END
