
     RDKit          3D

  9 10  0  0  0  0  0  0  0  0999 V2000
   -2.2110    0.1750   -0.0660 C   0  0  0  0  0  0  0  0  0  0  0  0
   -1.9480   -1.1790   -0.0450 C   0  0  0  0  0  0  0  0  0  0  0  0
   -0.6650   -1.6130   -0.0030 N   0  0  0  0  0  0  0  0  0  0  0  0
    0.3820   -0.7700    0.0190 C   0  0  0  0  0  0  0  0  0  0  0  0
    1.7530   -0.9850    0.0610 C   0  0  0  0  0  0  0  0  0  0  0  0
    2.3710    0.2470    0.0670 C   0  0  0  0  0  0  0  0  0  0  0  0
    1.3780    1.1520    0.0280 N   0  0  0  0  0  0  0  0  0  0  0  0
    0.1720    0.5980   -0.0010 C   0  0  0  0  0  0  0  0  0  0  0  0
   -1.1440    1.0470   -0.0440 C   0  0  0  0  0  0  0  0  0  0  0  0
  1  2  2  0
  1  9  1  0
  2  3  1  0
  3  4  2  0
  4  5  1  0
  4  8  1  0
  5  6  2  0
  6  7  1  0
  7  8  1  0
  8  9  2  0
M  END
