
     RDKit          3D

  9 10  0  0  0  0  0  0  0  0999 V2000
    2.0920   -0.8340   -0.1890 C   0  0  0  0  0  0  0  0  0  0  0  0
    2.8020    0.2850   -0.4440 N   0  0  0  0  0  0  0  0  0  0  0  0
    1.9240    1.2750   -0.5170 N   0  0  0  0  0  0  0  0  0  0  0  0
    0.6790    0.8360   -0.3190 C   0  0  0  0  0  0  0  0  0  0  0  0
    0.7480   -0.5260   -0.1040 C   0  0  0  0  0  0  0  0  0  0  0  0
   -0.4090   -1.3890    0.1540 C   0  0  0  0  0  0  0  0  0  0  0  0
   -1.7000   -0.6320    0.1090 C   0  0  0  0  0  0  0  0  0  0  0  0
   -1.5290    0.7540    0.6430 C   0  0  0  0  0  0  0  0  0  0  0  0
   -0.6410    1.5620   -0.3040 C   0  0  0  0  0  0  0  0  0  0  0  0
  1  2  1  0
  1  5  2  0
  2  3  1  0
  3  4  2  0
  4  5  1  0
  4  9  1  0
  5  6  1  0
  6  7  1  0
  7  8  1  0
  8  9  1  0
M  END
