
     RDKit          3D

  9 10  0  0  0  0  0  0  0  0999 V2000
    2.3460    0.3940    0.1570 C   0  0  0  0  0  0  0  0  0  0  0  0
    1.2100    1.1780    0.1410 C   0  0  0  0  0  0  0  0  0  0  0  0
   -0.0490    0.6250    0.0360 C   0  0  0  0  0  0  0  0  0  0  0  0
   -1.3340    1.1270   -0.0060 C   0  0  0  0  0  0  0  0  0  0  0  0
   -2.2460    0.0940   -0.1210 C   0  0  0  0  0  0  0  0  0  0  0  0
   -1.5080   -1.0320   -0.1490 N   0  0  0  0  0  0  0  0  0  0  0  0
   -0.1960   -0.7450   -0.0570 C   0  0  0  0  0  0  0  0  0  0  0  0
    0.9580   -1.5110   -0.0390 C   0  0  0  0  0  0  0  0  0  0  0  0
    2.1750   -0.9370    0.0650 N   0  0  0  0  0  0  0  0  0  0  0  0
  1  2  2  0
  1  9  1  0
  2  3  1  0
  3  4  1  0
  3  7  2  0
  4  5  2  0
  5  6  1  0
  6  7  1  0
  7  8  1  0
  8  9  2  0
M  END
