
     RDKit          3D

 21 21  0  0  0  0  0  0  0  0999 V2000
    4.7710   -0.4530    1.1300 C   0  0  0  0  0  0  0  0  0  0  0  0
    3.8120   -0.6290   -0.0280 C   0  0  2  0  0  0  0  0  0  0  0  0
    2.4340   -0.5280    0.4140 N   0  0  0  0  0  0  0  0  0  0  0  0
    1.6200    0.5070   -0.0600 C   0  0  0  0  0  0  0  0  0  0  0  0
    2.0730    1.3470   -0.8610 O   0  0  0  0  0  0  0  0  0  0  0  0
    0.1640    0.6790    0.3580 C   0  0  1  0  0  0  0  0  0  0  0  0
   -0.3310    1.9000   -0.3220 C   0  0  0  0  0  0  0  0  0  0  0  0
   -1.6830    2.3400   -0.0470 C   0  0  0  0  0  0  0  0  0  0  0  0
   -2.3580    1.8580    0.8840 O   0  0  0  0  0  0  0  0  0  0  0  0
   -2.2630    3.3490   -0.8580 N   0  0  0  0  0  0  0  0  0  0  0  0
   -3.5350    3.7890   -0.6290 O   0  0  0  0  0  0  0  0  0  0  0  0
   -0.4420   -0.6200   -0.1190 C   0  0  0  0  0  0  0  0  0  0  0  0
   -1.8460   -0.8520    0.0750 C   0  0  0  0  0  0  0  0  0  0  0  0
   -2.4100   -1.3510    1.2200 C   0  0  0  0  0  0  0  0  0  0  0  0
   -3.7620   -1.5920    1.3310 C   0  0  0  0  0  0  0  0  0  0  0  0
   -4.6180   -1.3400    0.2800 C   0  0  0  0  0  0  0  0  0  0  0  0
   -4.0730   -0.8400   -0.8770 C   0  0  0  0  0  0  0  0  0  0  0  0
   -2.7210   -0.5970   -0.9940 C   0  0  0  0  0  0  0  0  0  0  0  0
    4.0350   -1.9110   -0.7360 C   0  0  0  0  0  0  0  0  0  0  0  0
    3.0710   -2.7040   -0.8610 O   0  0  0  0  0  0  0  0  0  0  0  0
    5.2590   -2.2680   -1.2630 O   0  0  0  0  0  0  0  0  0  0  0  0
  2  1  1  1
  2  3  1  0
  2 19  1  0
  3  4  1  0
  4  5  2  0
  4  6  1  0
  6  7  1  6
  6 12  1  0
  7  8  1  0
  8  9  2  0
  8 10  1  0
 10 11  1  0
 12 13  1  0
 13 14  2  0
 13 18  1  0
 14 15  1  0
 15 16  2  0
 16 17  1  0
 17 18  2  0
 19 20  2  0
 19 21  1  0
M  END
