
     RDKit          3D

  9 10  0  0  0  0  0  0  0  0999 V2000
    2.0150    1.2920    0.0640 C   0  0  0  0  0  0  0  0  0  0  0  0
    2.8310    0.3190   -0.3660 N   0  0  0  0  0  0  0  0  0  0  0  0
    2.1530   -0.7880   -0.6160 N   0  0  0  0  0  0  0  0  0  0  0  0
    0.8660   -0.5220   -0.3390 C   0  0  0  0  0  0  0  0  0  0  0  0
    0.7330    0.7710    0.0900 C   0  0  0  0  0  0  0  0  0  0  0  0
   -0.5820    1.3770    0.4780 C   0  0  0  0  0  0  0  0  0  0  0  0
   -1.6910    0.4710    0.0150 C   0  0  0  0  0  0  0  0  0  0  0  0
   -1.3450   -0.9330    0.5260 C   0  0  0  0  0  0  0  0  0  0  0  0
   -0.2980   -1.4530   -0.4610 C   0  0  0  0  0  0  0  0  0  0  0  0
  1  2  2  0
  1  5  1  0
  2  3  1  0
  3  4  1  0
  4  5  2  0
  4  9  1  0
  5  6  1  0
  6  7  1  0
  7  8  1  0
  8  9  1  0
M  END
