
     RDKit          3D

 25 26  0  0  0  0  0  0  0  0999 V2000
   -6.2570   -1.8080   -0.2570 C   0  0  0  0  0  0  0  0  0  0  0  0
   -5.1520   -0.7900   -0.2250 C   0  0  2  0  0  0  0  0  0  0  0  0
   -4.9260   -0.3680    1.2150 C   0  0  0  0  0  0  0  0  0  0  0  0
   -5.4430    0.3840   -1.1040 C   0  0  0  0  0  0  0  0  0  0  0  0
   -4.3000    1.3490   -1.0550 C   0  0  0  0  0  0  0  0  0  0  0  0
   -4.4410    2.5570   -1.3150 O   0  0  0  0  0  0  0  0  0  0  0  0
   -2.9890    0.8650   -0.6990 C   0  0  0  0  0  0  0  0  0  0  0  0
   -2.7580   -0.4690   -0.5320 C   0  0  0  0  0  0  0  0  0  0  0  0
   -1.5010   -0.6510   -0.1960 N   0  0  0  0  0  0  0  0  0  0  0  0
   -0.8880    0.5450   -0.1300 C   0  0  0  0  0  0  0  0  0  0  0  0
    0.5510    0.5560    0.0420 C   0  0  0  0  0  0  0  0  0  0  0  0
    1.1740    0.3770   -1.0880 O   0  0  0  0  0  0  0  0  0  0  0  0
    1.2900    0.7040    1.1890 N   0  0  0  0  0  0  0  0  0  0  0  0
    2.8110    0.5550    1.0100 C   0  0  0  0  0  0  0  0  0  0  0  0
    3.0000   -0.8760    0.5850 C   0  0  0  0  0  0  0  0  0  0  0  0
    4.2700   -1.3450    0.1600 C   0  0  0  0  0  0  0  0  0  0  0  0
    4.3210   -2.5120   -0.3530 O   0  0  0  0  0  0  0  0  0  0  0  0
    5.5190   -0.6880    0.2340 N   0  0  0  0  0  0  0  0  0  0  0  0
    6.7320   -1.3430   -0.2900 C   0  0  0  0  0  0  0  0  0  0  0  0
    7.8830   -0.4080   -0.1160 C   0  0  0  0  0  0  0  0  0  0  0  0
    7.6570    0.8600   -0.8070 N   0  0  0  0  0  0  0  0  0  0  0  0
   -1.7980    1.5260   -0.4370 C   0  0  0  0  0  0  0  0  0  0  0  0
   -1.6270    2.9750   -0.6260 C   0  0  0  0  0  0  0  0  0  0  0  0
   -1.6480    3.7160    0.5940 O   0  0  0  0  0  0  0  0  0  0  0  0
   -3.8750   -1.4960   -0.6920 C   0  0  0  0  0  0  0  0  0  0  0  0
  2  1  1  1
  2  3  1  0
  2  4  1  0
  2 25  1  0
  4  5  1  0
  5  6  2  0
  5  7  1  0
  7  8  2  0
  7 22  1  0
  8  9  1  0
  8 25  1  0
  9 10  1  0
 10 11  1  0
 10 22  2  0
 11 12  2  0
 11 13  1  0
 13 14  1  0
 14 15  1  0
 15 16  1  0
 16 17  2  0
 16 18  1  0
 18 19  1  0
 19 20  1  0
 20 21  1  0
 22 23  1  0
 23 24  1  0
M  END
