
     RDKit          3D

 25 26  0  0  0  0  0  0  0  0999 V2000
   -2.8780   -3.8690   -0.3960 C   0  0  0  0  0  0  0  0  0  0  0  0
   -2.4510   -2.5870   -0.6220 O   0  0  0  0  0  0  0  0  0  0  0  0
   -1.5860   -2.4580   -1.6840 C   0  0  0  0  0  0  0  0  0  0  0  0
   -1.0840   -1.1170   -1.9900 C   0  0  0  0  0  0  0  0  0  0  0  0
   -0.3080   -0.3870   -1.0170 N   0  0  0  0  0  0  0  0  0  0  0  0
    1.1260   -0.5310   -1.0150 C   0  0  0  0  0  0  0  0  0  0  0  0
    1.6760   -1.2720   -1.8840 O   0  0  0  0  0  0  0  0  0  0  0  0
    1.9310    0.1230   -0.0800 N   0  0  0  0  0  0  0  0  0  0  0  0
    3.3430    0.0740    0.0240 C   0  0  0  0  0  0  0  0  0  0  0  0
    3.9950    0.5230    1.1730 C   0  0  0  0  0  0  0  0  0  0  0  0
    5.3590    0.5140    1.3170 C   0  0  0  0  0  0  0  0  0  0  0  0
    6.1270    0.0390    0.2790 C   0  0  0  0  0  0  0  0  0  0  0  0
    7.5140    0.0160    0.3950 O   0  0  0  0  0  0  0  0  0  0  0  0
    5.5270   -0.4090   -0.8610 C   0  0  0  0  0  0  0  0  0  0  0  0
    4.1280   -0.3880   -0.9820 C   0  0  0  0  0  0  0  0  0  0  0  0
   -0.9820    0.5320   -0.1730 C   0  0  1  0  0  0  0  0  0  0  0  0
   -2.0940    1.3370   -0.7110 C   0  0  0  0  0  0  0  0  0  0  0  0
   -2.5690    2.2610    0.3860 C   0  0  0  0  0  0  0  0  0  0  0  0
   -2.1100    2.4150    1.6120 C   0  0  0  0  0  0  0  0  0  0  0  0
   -2.8920    3.4500    2.3600 C   0  0  0  0  0  0  0  0  0  0  0  0
   -3.8490    3.8530    1.3800 N   0  0  0  0  0  0  0  0  0  0  0  0
   -3.6930    3.2090    0.2760 C   0  0  0  0  0  0  0  0  0  0  0  0
   -1.5930   -0.3610    0.9240 C   0  0  0  0  0  0  0  0  0  0  0  0
   -2.9120   -0.1980    1.3440 N   0  0  0  0  0  0  0  0  0  0  0  0
   -0.8350   -1.2220    1.3950 O   0  0  0  0  0  0  0  0  0  0  0  0
  1  2  1  0
  2  3  1  0
  3  4  1  0
  4  5  1  0
  5  6  1  0
  5 16  1  0
  6  7  2  0
  6  8  1  0
  8  9  1  0
  9 10  2  0
  9 15  1  0
 10 11  1  0
 11 12  2  0
 12 13  1  0
 12 14  1  0
 14 15  2  0
 16 17  1  6
 16 23  1  0
 17 18  1  0
 18 19  2  0
 18 22  1  0
 19 20  1  0
 20 21  1  0
 21 22  2  0
 23 24  1  0
 23 25  2  0
M  END
