
     RDKit          3D

 25 26  0  0  0  0  0  0  0  0999 V2000
   -3.4320   -2.6650   -1.1090 C   0  0  0  0  0  0  0  0  0  0  0  0
   -4.2730   -2.1230   -0.0120 C   0  0  0  0  0  0  0  0  0  0  0  0
   -4.1300   -0.7140    0.2610 N   0  0  0  0  0  0  0  0  0  0  0  0
   -3.1550   -0.2590    1.2120 C   0  0  0  0  0  0  0  0  0  0  0  0
   -1.7940    0.0220    0.5940 C   0  0  0  0  0  0  0  0  0  0  0  0
   -0.8960    0.4630    1.7170 C   0  0  0  0  0  0  0  0  0  0  0  0
    0.4970    0.8010    1.3470 C   0  0  0  0  0  0  0  0  0  0  0  0
    1.2820   -0.2960    0.7420 C   0  0  0  0  0  0  0  0  0  0  0  0
    0.8030   -1.4320    0.4710 O   0  0  0  0  0  0  0  0  0  0  0  0
    2.6730   -0.1100    0.4290 N   0  0  0  0  0  0  0  0  0  0  0  0
    3.4290   -1.1850   -0.1600 C   0  0  0  0  0  0  0  0  0  0  0  0
    4.8550   -0.7380   -0.3090 C   0  0  0  0  0  0  0  0  0  0  0  0
    5.5100   -0.2750   -1.4230 C   0  0  0  0  0  0  0  0  0  0  0  0
    6.7950   -0.0090   -1.0060 C   0  0  0  0  0  0  0  0  0  0  0  0
    8.0380    0.4350   -1.3720 C   0  0  0  0  0  0  0  0  0  0  0  0
    8.8760    0.4090   -0.2960 N   0  0  0  0  0  0  0  0  0  0  0  0
    8.1540   -0.0540    0.7530 C   0  0  0  0  0  0  0  0  0  0  0  0
    6.8770   -0.3140    0.3260 C   0  0  0  0  0  0  0  0  0  0  0  0
    5.6910   -0.7520    0.7280 O   0  0  0  0  0  0  0  0  0  0  0  0
   -4.9500    0.1920   -0.4130 C   0  0  0  0  0  0  0  0  0  0  0  0
   -5.7790   -0.2120   -1.2830 O   0  0  0  0  0  0  0  0  0  0  0  0
   -4.8950    1.6430   -0.1420 C   0  0  0  0  0  0  0  0  0  0  0  0
   -5.9160    2.3820   -0.9550 C   0  0  0  0  0  0  0  0  0  0  0  0
   -6.8350    3.2790   -0.3500 N   0  0  0  0  0  0  0  0  0  0  0  0
   -5.9680    2.2120   -2.1900 O   0  0  0  0  0  0  0  0  0  0  0  0
  1  2  1  0
  2  3  1  0
  3  4  1  0
  3 20  1  0
  4  5  1  0
  5  6  1  0
  6  7  1  0
  7  8  1  0
  8  9  2  0
  8 10  1  0
 10 11  1  0
 11 12  1  0
 12 13  2  0
 12 19  1  0
 13 14  1  0
 14 15  2  0
 14 18  1  0
 15 16  1  0
 16 17  1  0
 17 18  2  0
 18 19  1  0
 20 21  2  0
 20 22  1  0
 22 23  1  0
 23 24  1  0
 23 25  2  0
M  END
