
     RDKit          3D

 25 27  0  0  0  0  0  0  0  0999 V2000
   -6.2680    0.3330    1.0250 C   0  0  0  0  0  0  0  0  0  0  0  0
   -5.6520   -0.8440    0.3250 C   0  0  0  0  0  0  0  0  0  0  0  0
   -4.1580   -0.6770    0.3400 C   0  0  0  0  0  0  0  0  0  0  0  0
   -3.4910   -0.9860    1.5090 C   0  0  0  0  0  0  0  0  0  0  0  0
   -4.2550   -1.4650    2.6860 C   0  0  0  0  0  0  0  0  0  0  0  0
   -2.1320   -0.8280    1.5080 C   0  0  0  0  0  0  0  0  0  0  0  0
   -1.4480   -0.3730    0.3680 C   0  0  0  0  0  0  0  0  0  0  0  0
   -0.0840   -0.2330    0.4150 C   0  0  0  0  0  0  0  0  0  0  0  0
    0.6600    0.2140   -0.6870 C   0  0  0  0  0  0  0  0  0  0  0  0
    2.0580    0.3280   -0.5870 N   0  0  0  0  0  0  0  0  0  0  0  0
    2.9010    0.9620   -1.5150 C   0  0  0  0  0  0  0  0  0  0  0  0
    2.4560    1.4970   -2.5350 O   0  0  0  0  0  0  0  0  0  0  0  0
    4.3580    0.9740   -1.2340 C   0  0  0  0  0  0  0  0  0  0  0  0
    4.9910    0.4120   -0.1530 C   0  0  0  0  0  0  0  0  0  0  0  0
    6.3640    0.6370   -0.2450 C   0  0  0  0  0  0  0  0  0  0  0  0
    7.3870    0.2040    0.6940 C   0  0  0  0  0  0  0  0  0  0  0  0
    7.0830   -0.5370    1.8650 N   0  0  0  0  0  0  0  0  0  0  0  0
    8.5850    0.4920    0.4690 O   0  0  0  0  0  0  0  0  0  0  0  0
    6.5200    1.3510   -1.4200 C   0  0  0  0  0  0  0  0  0  0  0  0
    5.3110    1.5380   -1.9890 N   0  0  0  0  0  0  0  0  0  0  0  0
   -0.0840    0.4970   -1.8060 C   0  0  0  0  0  0  0  0  0  0  0  0
   -1.4660    0.3630   -1.8780 C   0  0  0  0  0  0  0  0  0  0  0  0
   -2.1480   -0.0760   -0.7770 C   0  0  0  0  0  0  0  0  0  0  0  0
   -3.5340   -0.2310   -0.7910 C   0  0  0  0  0  0  0  0  0  0  0  0
   -4.2260    0.1300   -2.0630 C   0  0  0  0  0  0  0  0  0  0  0  0
  1  2  1  0
  2  3  1  0
  3  4  2  0
  3 24  1  0
  4  5  1  0
  4  6  1  0
  6  7  2  0
  7  8  1  0
  7 23  1  0
  8  9  2  0
  9 10  1  0
  9 21  1  0
 10 11  1  0
 11 12  2  0
 11 13  1  0
 13 14  2  0
 13 20  1  0
 14 15  1  0
 15 16  1  0
 15 19  2  0
 16 17  1  0
 16 18  2  0
 19 20  1  0
 21 22  2  0
 22 23  1  0
 23 24  2  0
 24 25  1  0
M  CHG  1  17   1
M  END
