
     RDKit          3D

 25 28  0  0  0  0  0  0  0  0999 V2000
    3.2240    0.4440    3.4710 C   0  0  0  0  0  0  0  0  0  0  0  0
    2.9560    0.3440    2.0120 C   0  0  0  0  0  0  0  0  0  0  0  0
    3.9170    0.5050    1.0600 C   0  0  0  0  0  0  0  0  0  0  0  0
    3.6240    0.4040   -0.2940 C   0  0  0  0  0  0  0  0  0  0  0  0
    4.6080    0.5710   -1.2400 C   0  0  0  0  0  0  0  0  0  0  0  0
    4.3160    0.4730   -2.5700 C   0  0  0  0  0  0  0  0  0  0  0  0
    3.0280    0.2020   -3.0030 C   0  0  0  0  0  0  0  0  0  0  0  0
    2.0340    0.0330   -2.0560 C   0  0  0  0  0  0  0  0  0  0  0  0
    2.3120    0.1290   -0.7160 C   0  0  0  0  0  0  0  0  0  0  0  0
    1.3550   -0.0300    0.2840 C   0  0  0  0  0  0  0  0  0  0  0  0
    0.0370   -0.3050   -0.1120 C   0  0  0  0  0  0  0  0  0  0  0  0
   -0.9840   -0.4780    0.7730 C   0  0  0  0  0  0  0  0  0  0  0  0
   -2.3920   -0.6820    0.4790 C   0  0  0  0  0  0  0  0  0  0  0  0
   -3.1400   -1.3110    1.4550 N   0  0  0  0  0  0  0  0  0  0  0  0
   -4.4560   -1.4720    1.3820 C   0  0  0  0  0  0  0  0  0  0  0  0
   -5.1250   -2.0540    2.2930 O   0  0  0  0  0  0  0  0  0  0  0  0
   -5.1410   -1.0230    0.3320 N   0  0  0  0  0  0  0  0  0  0  0  0
   -4.4530   -0.4020   -0.6480 C   0  0  0  0  0  0  0  0  0  0  0  0
   -5.1350    0.0050   -1.6190 O   0  0  0  0  0  0  0  0  0  0  0  0
   -3.0730   -0.2140   -0.6070 C   0  0  0  0  0  0  0  0  0  0  0  0
   -2.3390    0.4430   -1.7050 C   0  0  0  0  0  0  0  0  0  0  0  0
   -3.2460    0.9690   -2.7310 N   0  0  0  0  0  0  0  0  0  0  0  0
   -0.5980   -0.3580    2.1320 C   0  0  0  0  0  0  0  0  0  0  0  0
    0.6580   -0.0960    2.5520 C   0  0  0  0  0  0  0  0  0  0  0  0
    1.6680    0.0750    1.6210 C   0  0  0  0  0  0  0  0  0  0  0  0
  1  2  1  0
  2  3  2  0
  2 25  1  0
  3  4  1  0
  4  5  2  0
  4  9  1  0
  5  6  1  0
  6  7  2  0
  7  8  1  0
  8  9  2  0
  9 10  1  0
 10 11  2  0
 10 25  1  0
 11 12  1  0
 12 13  1  0
 12 23  2  0
 13 14  1  0
 13 20  2  0
 14 15  1  0
 15 16  2  0
 15 17  1  0
 17 18  1  0
 18 19  2  0
 18 20  1  0
 20 21  1  0
 21 22  1  0
 23 24  1  0
 24 25  2  0
M  CHG  1  22   1
M  END
