
     RDKit          3D

 25 28  0  0  0  0  0  0  0  0999 V2000
    0.3880    1.5470    2.2690 C   0  0  0  0  0  0  0  0  0  0  0  0
    1.4390    0.9150    1.3770 C   0  0  0  0  0  0  0  0  0  0  0  0
    2.7270    0.8730    1.4840 N   0  0  0  0  0  0  0  0  0  0  0  0
    3.2420    0.3510    0.3980 C   0  0  0  0  0  0  0  0  0  0  0  0
    2.2110    0.0450   -0.5020 C   0  0  0  0  0  0  0  0  0  0  0  0
    1.0220    0.3820    0.1210 C   0  0  0  0  0  0  0  0  0  0  0  0
   -0.3530   -0.0590   -0.1110 C   0  0  0  0  0  0  0  0  0  0  0  0
   -1.2300    0.3950   -1.0990 N   0  0  0  0  0  0  0  0  0  0  0  0
   -2.4860    0.6630   -0.2040 C   0  0  0  0  0  0  0  0  0  0  0  0
   -2.9870   -0.6800    0.1980 C   0  0  1  0  0  0  0  0  0  0  0  0
   -3.9330   -0.6430    1.3820 C   0  0  0  0  0  0  0  0  0  0  0  0
   -5.0710    0.2820    1.3160 C   0  0  0  0  0  0  0  0  0  0  0  0
   -5.2600    0.8410   -0.0070 N   0  0  0  0  0  0  0  0  0  0  0  0
   -5.1520   -0.1550   -1.0400 C   0  0  0  0  0  0  0  0  0  0  0  0
   -4.0110   -1.1020   -0.9320 C   0  0  1  0  0  0  0  0  0  0  0  0
   -3.3150   -1.2680   -2.1090 O   0  0  0  0  0  0  0  0  0  0  0  0
    2.5120   -0.5140   -1.7400 C   0  0  0  0  0  0  0  0  0  0  0  0
    1.5820   -0.7710   -2.4940 O   0  0  0  0  0  0  0  0  0  0  0  0
    3.8180   -0.7430   -1.9760 N   0  0  0  0  0  0  0  0  0  0  0  0
    4.8390   -0.5180   -1.1680 C   0  0  0  0  0  0  0  0  0  0  0  0
    6.1400   -0.7930   -1.4130 C   0  0  0  0  0  0  0  0  0  0  0  0
    7.1270   -0.5810   -0.5020 C   0  0  0  0  0  0  0  0  0  0  0  0
    6.8180   -0.0500    0.7230 C   0  0  0  0  0  0  0  0  0  0  0  0
    5.5320    0.3080    1.0710 C   0  0  0  0  0  0  0  0  0  0  0  0
    4.5380    0.0550    0.0790 C   0  0  0  0  0  0  0  0  0  0  0  0
  1  2  1  0
  2  3  1  0
  2  6  2  0
  3  4  1  0
  4  5  2  0
  4 25  1  0
  5  6  1  0
  5 17  1  0
  6  7  1  0
  7  8  1  0
  8  9  1  0
 10  9  1  6
 10 11  1  0
 10 15  1  0
 11 12  1  0
 12 13  1  0
 13 14  1  0
 14 15  1  0
 15 16  1  6
 17 18  2  0
 17 19  1  0
 19 20  1  0
 20 21  2  0
 20 25  1  0
 21 22  1  0
 22 23  2  0
 23 24  1  0
 24 25  2  0
M  CHG  1   8   1
M  END
