
     RDKit          3D

 11 10  0  0  0  0  0  0  0  0999 V2000
   -1.4580   -0.6980   -1.7630 O   0  0  0  0  0  0  0  0  0  0  0  0
   -2.0190   -0.0870   -0.8210 C   0  0  0  0  0  0  0  0  0  0  0  0
   -3.4710   -0.2110   -0.5820 C   0  0  0  0  0  0  0  0  0  0  0  0
   -3.8220    0.5580    0.5040 O   0  0  0  0  0  0  0  0  0  0  0  0
   -1.2740    0.7230    0.0170 O   0  0  0  0  0  0  0  0  0  0  0  0
    0.0370    0.8080   -0.2350 O   0  0  0  0  0  0  0  0  0  0  0  0
    0.6660   -0.3480    0.1880 C   0  0  0  0  0  0  0  0  0  0  0  0
    2.1560   -0.1780   -0.1310 C   0  0  0  0  0  0  0  0  0  0  0  0
    2.5600    0.9590    0.5930 O   0  0  0  0  0  0  0  0  0  0  0  0
    3.8530    1.1900    0.3780 O   0  0  0  0  0  0  0  0  0  0  0  0
    4.5750    0.1760    0.8330 O   0  0  0  0  0  0  0  0  0  0  0  0
  1  2  2  0
  2  3  1  0
  2  5  1  0
  3  4  1  0
  5  6  1  0
  6  7  1  0
  7  8  1  0
  8  9  1  0
  9 10  1  0
 10 11  1  0
M  END
