
     RDKit          3D

 13 14  0  0  0  0  0  0  0  0999 V2000
   -0.8810   -2.2080    0.6470 C   0  0  0  0  0  0  0  0  0  0  0  0
   -0.8930   -0.7070    0.4580 C   0  0  0  0  0  0  0  0  0  0  0  0
   -1.7180   -0.0470    1.2400 C   0  0  0  0  0  0  0  0  0  0  0  0
   -1.7490    1.7970    1.0260 P   0  0  0  0  0  0  0  0  0  0  0  0
   -3.3850    2.3460    0.8320 O   0  0  0  0  0  0  0  0  0  0  0  0
   -0.9480    2.0600   -0.5050 O   0  0  0  0  0  0  0  0  0  0  0  0
    0.1600    1.3010   -0.6200 C   0  0  1  0  0  0  0  0  0  0  0  0
    1.1820    1.5390    0.3150 O   0  0  0  0  0  0  0  0  0  0  0  0
    2.0770    0.4600    0.1560 C   0  0  0  0  0  0  0  0  0  0  0  0
    3.4730    0.4690    0.4920 N   0  0  0  0  0  0  0  0  0  0  0  0
    1.4260   -0.5680   -0.3540 C   0  0  0  0  0  0  0  0  0  0  0  0
    0.0070   -0.1810   -0.5590 C   0  0  1  0  0  0  0  0  0  0  0  0
   -0.4760   -0.6470   -1.8630 N   0  0  0  0  0  0  0  0  0  0  0  0
  1  2  1  0
  2  3  2  0
  2 12  1  0
  3  4  1  0
  4  5  1  0
  4  6  1  0
  7  6  1  1
  7  8  1  0
  7 12  1  0
  8  9  1  0
  9 10  1  0
  9 11  2  0
 11 12  1  0
 12 13  1  6
M  END
