
     RDKit          3D

 11 10  0  0  0  0  0  0  0  0999 V2000
   -2.0230   -1.4880   -0.8880 C   0  0  0  0  0  0  0  0  0  0  0  0
   -0.9120   -0.6910   -0.6180 O   0  0  0  0  0  0  0  0  0  0  0  0
   -1.2200    0.3280    0.2810 C   0  0  0  0  0  0  0  0  0  0  0  0
    0.0490    1.1250    0.5000 C   0  0  1  0  0  0  0  0  0  0  0  0
   -0.1780    2.1680    1.3920 O   0  0  0  0  0  0  0  0  0  0  0  0
    0.0310    3.3340    0.8310 O   0  0  0  0  0  0  0  0  0  0  0  0
    1.0010    0.2760    1.0330 O   0  0  0  0  0  0  0  0  0  0  0  0
    2.0220    0.2120    0.1970 O   0  0  0  0  0  0  0  0  0  0  0  0
    2.4220   -0.9860   -0.3890 C   0  0  0  0  0  0  0  0  0  0  0  0
    1.8320   -2.0590   -0.1510 O   0  0  0  0  0  0  0  0  0  0  0  0
    3.5030   -1.0140   -1.2640 O   0  0  0  0  0  0  0  0  0  0  0  0
  1  2  1  0
  2  3  1  0
  4  3  1  1
  4  5  1  0
  4  7  1  0
  5  6  1  0
  7  8  1  0
  8  9  1  0
  9 10  2  0
  9 11  1  0
M  END
