
     RDKit          3D

 17 18  0  0  0  0  0  0  0  0999 V2000
    4.1430    1.0960   -1.1580 C   0  0  0  0  0  0  0  0  0  0  0  0
    3.7310    0.1730   -0.0460 C   0  0  1  0  0  0  0  0  0  0  0  0
    4.6700    0.2670    1.1440 C   0  0  0  0  0  0  0  0  0  0  0  0
    2.3770    0.3530    0.3360 O   0  0  0  0  0  0  0  0  0  0  0  0
    1.4530   -0.6470    0.2050 C   0  0  0  0  0  0  0  0  0  0  0  0
    1.8420   -1.7530   -0.2710 O   0  0  0  0  0  0  0  0  0  0  0  0
    0.0110   -0.4730    0.6060 C   0  0  1  0  0  0  0  0  0  0  0  0
   -0.6100    0.6840   -0.1440 C   0  0  0  0  0  0  0  0  0  0  0  0
   -2.0710    0.7320    0.2470 C   0  0  1  0  0  0  0  0  0  0  0  0
   -2.7900    1.7790   -0.4320 N   0  0  0  0  0  0  0  0  0  0  0  0
   -4.1650    1.2670   -0.4120 C   0  0  0  0  0  0  0  0  0  0  0  0
   -4.0000   -0.2020   -0.5950 C   0  0  0  0  0  0  0  0  0  0  0  0
   -2.7710   -0.4970   -0.2040 C   0  0  0  0  0  0  0  0  0  0  0  0
   -2.0330   -1.7470   -0.1460 C   0  0  0  0  0  0  0  0  0  0  0  0
   -2.5910   -2.8830   -0.5370 C   0  0  0  0  0  0  0  0  0  0  0  0
   -1.6350   -4.5140   -0.4640 Br  0  0  0  0  0  0  0  0  0  0  0  0
   -0.6990   -1.7030    0.3450 N   0  0  0  0  0  0  0  0  0  0  0  0
  2  1  1  6
  2  3  1  0
  2  4  1  0
  4  5  1  0
  5  6  2  0
  7  5  1  6
  7  8  1  0
  7 17  1  0
  9  8  1  6
  9 10  1  0
  9 13  1  0
 10 11  1  0
 11 12  1  0
 12 13  2  0
 13 14  1  0
 14 15  2  3
 14 17  1  0
 15 16  1  0
M  CHG  1  10   1
M  END
