
     RDKit          3D

 17 18  0  0  0  0  0  0  0  0999 V2000
    3.6660    2.1380   -1.4550 N   0  0  0  0  0  0  0  0  0  0  0  0
    2.7720    1.8820   -0.3430 C   0  0  2  0  0  0  0  0  0  0  0  0
    3.5050    1.0230    0.6200 C   0  0  0  0  0  0  0  0  0  0  0  0
    2.7980   -0.0790    0.7720 C   0  0  0  0  0  0  0  0  0  0  0  0
    2.7150   -1.3930    1.4530 C   0  0  0  0  0  0  0  0  0  0  0  0
    1.8850   -2.2050    0.4460 C   0  0  0  0  0  0  0  0  0  0  0  0
    0.8440   -1.2140    0.1050 N   0  0  0  0  0  0  0  0  0  0  0  0
   -0.5270   -1.4950    0.0160 C   0  0  0  0  0  0  0  0  0  0  0  0
   -0.8860   -2.7110    0.2420 O   0  0  0  0  0  0  0  0  0  0  0  0
   -1.6240   -0.5730   -0.3080 C   0  0  0  0  0  0  0  0  0  0  0  0
   -2.9320   -1.2620    0.0840 C   0  0  0  0  0  0  0  0  0  0  0  0
   -4.1490   -0.4570   -0.1890 C   0  0  0  0  0  0  0  0  0  0  0  0
   -4.1060    0.8320    0.5820 C   0  0  0  0  0  0  0  0  0  0  0  0
   -5.2760    1.5720    0.3110 O   0  0  0  0  0  0  0  0  0  0  0  0
    1.5810   -0.0160   -0.0750 C   0  0  0  0  0  0  0  0  0  0  0  0
    1.5700    1.1290   -0.7310 C   0  0  0  0  0  0  0  0  0  0  0  0
    0.2580    1.7230   -1.9680 Br  0  0  0  0  0  0  0  0  0  0  0  0
  2  1  1  6
  2  3  1  0
  2 16  1  0
  3  4  2  0
  4  5  1  0
  4 15  1  0
  5  6  1  0
  6  7  1  0
  7  8  1  0
  7 15  1  0
  8  9  2  0
  8 10  1  0
 10 11  1  0
 11 12  1  0
 12 13  1  0
 13 14  1  0
 15 16  2  0
 16 17  1  0
M  CHG  1   1   1
M  END
