
     RDKit          3D

 17 17  0  0  0  0  0  0  0  0999 V2000
    4.2580   -0.9700    2.0140 C   0  0  0  0  0  0  0  0  0  0  0  0
    2.9790   -0.6780    1.3290 C   0  0  0  0  0  0  0  0  0  0  0  0
    2.9380   -0.2110    0.0910 C   0  0  0  0  0  0  0  0  0  0  0  0
    4.2160    0.0210   -0.6130 C   0  0  0  0  0  0  0  0  0  0  0  0
    4.3040   -1.0630   -2.2240 Br  0  0  0  0  0  0  0  0  0  0  0  0
    1.6550    0.0580   -0.5330 C   0  0  0  0  0  0  0  0  0  0  0  0
    1.6570    0.5010   -1.7100 O   0  0  0  0  0  0  0  0  0  0  0  0
    0.4570   -0.1440    0.0870 O   0  0  0  0  0  0  0  0  0  0  0  0
   -0.7490    0.1380   -0.5800 C   0  0  2  0  0  0  0  0  0  0  0  0
   -0.8560   -0.7000   -1.8280 C   0  0  0  0  0  0  0  0  0  0  0  0
   -0.9090    1.6140   -0.8850 C   0  0  0  0  0  0  0  0  0  0  0  0
   -2.3560    1.7360   -1.0270 N   0  0  0  0  0  0  0  0  0  0  0  0
   -2.9520    0.7970   -0.3900 C   0  0  0  0  0  0  0  0  0  0  0  0
   -4.3730    0.6070   -0.3120 N   0  0  0  0  0  0  0  0  0  0  0  0
   -1.9610   -0.0920    0.2740 C   0  0  2  0  0  0  0  0  0  0  0  0
   -1.7850    0.4000    1.6820 C   0  0  0  0  0  0  0  0  0  0  0  0
   -2.4060   -1.5210    0.3230 C   0  0  0  0  0  0  0  0  0  0  0  0
  1  2  1  0
  2  3  2  3
  3  4  1  0
  3  6  1  0
  4  5  1  0
  6  7  2  0
  6  8  1  0
  8  9  1  0
  9 10  1  6
  9 11  1  0
  9 15  1  0
 11 12  1  0
 12 13  2  0
 13 14  1  0
 13 15  1  0
 15 16  1  1
 15 17  1  0
M  CHG  1  12   1
M  END
