
     RDKit          3D

 17 18  0  0  0  0  0  0  0  0999 V2000
   -2.2820   -2.1740   -0.0780 C   0  0  0  0  0  0  0  0  0  0  0  0
   -2.5520   -0.7390   -0.0350 C   0  0  0  0  0  0  0  0  0  0  0  0
   -3.9650   -0.4130    0.2370 N   0  0  0  0  0  0  0  0  0  0  0  0
   -1.7360    0.2680   -0.1960 C   0  0  0  0  0  0  0  0  0  0  0  0
   -2.3170    1.6180   -0.0920 C   0  0  0  0  0  0  0  0  0  0  0  0
   -1.6120    2.7100   -0.2290 C   0  0  0  0  0  0  0  0  0  0  0  0
   -2.4390    4.4480   -0.0800 Br  0  0  0  0  0  0  0  0  0  0  0  0
   -0.3290    0.1830   -0.4480 C   0  0  2  0  0  0  0  0  0  0  0  0
    0.0530    0.9550   -1.5950 O   0  0  0  0  0  0  0  0  0  0  0  0
    0.3270   -1.1410   -0.6790 C   0  0  0  0  0  0  0  0  0  0  0  0
    1.8080   -0.6450   -0.6830 C   0  0  0  0  0  0  0  0  0  0  0  0
    1.8030    0.1340    0.5300 N   0  0  0  0  0  0  0  0  0  0  0  0
    2.9870    0.3370    1.3560 C   0  0  2  0  0  0  0  0  0  0  0  0
    4.2680    0.6450    0.5340 C   0  0  0  0  0  0  0  0  0  0  0  0
    4.1180   -0.5980    1.3200 C   0  0  0  0  0  0  0  0  0  0  0  0
    0.4910    0.6310    0.7450 C   0  0  0  0  0  0  0  0  0  0  0  0
    0.1530    1.2950    1.7400 O   0  0  0  0  0  0  0  0  0  0  0  0
  1  2  1  0
  2  3  1  0
  2  4  2  3
  4  5  1  0
  4  8  1  0
  5  6  2  3
  6  7  1  0
  8  9  1  6
  8 10  1  0
  8 16  1  0
 10 11  1  0
 11 12  1  0
 13 12  1  6
 12 16  1  0
 13 14  1  0
 13 15  1  0
 14 15  1  0
 16 17  2  0
M  CHG  1   3   1
M  END
