
     RDKit          3D

 23 25  0  0  0  0  0  0  0  0999 V2000
   -4.5130    2.6360    0.5930 C   0  0  0  0  0  0  0  0  0  0  0  0
   -4.6150    1.2030    0.1740 C   0  0  0  0  0  0  0  0  0  0  0  0
   -3.4600    0.4510   -0.0550 C   0  0  0  0  0  0  0  0  0  0  0  0
   -3.5370   -0.8460   -0.4350 C   0  0  0  0  0  0  0  0  0  0  0  0
   -2.4340   -1.6880   -0.6950 N   0  0  0  0  0  0  0  0  0  0  0  0
   -1.1170   -1.1890   -0.6580 C   0  0  0  0  0  0  0  0  0  0  0  0
   -0.7660   -0.0410   -1.1290 N   0  0  0  0  0  0  0  0  0  0  0  0
    0.5980    0.1860   -0.9540 N   0  0  0  0  0  0  0  0  0  0  0  0
    1.1520   -0.8120   -0.3670 C   0  0  0  0  0  0  0  0  0  0  0  0
    2.5520   -0.9680   -0.0030 C   0  0  0  0  0  0  0  0  0  0  0  0
    3.1310   -2.0450    0.6260 C   0  0  0  0  0  0  0  0  0  0  0  0
    4.4680   -1.7440    0.7610 C   0  0  0  0  0  0  0  0  0  0  0  0
    4.6650   -0.4820    0.2050 C   0  0  0  0  0  0  0  0  0  0  0  0
    5.9170    0.2560    0.1160 C   0  0  0  0  0  0  0  0  0  0  0  0
    5.9210    1.4470   -0.4470 C   0  0  0  0  0  0  0  0  0  0  0  0
    7.1600    2.2630   -0.5750 C   0  0  0  0  0  0  0  0  0  0  0  0
    8.6250    1.2470    0.2090 Br  0  0  0  0  0  0  0  0  0  0  0  0
    3.5130   -0.0890   -0.2200 O   0  0  0  0  0  0  0  0  0  0  0  0
    0.1110   -1.8240   -0.1090 C   0  0  0  0  0  0  0  0  0  0  0  0
   -4.8150   -1.4010   -0.5870 C   0  0  0  0  0  0  0  0  0  0  0  0
   -5.9460   -0.6560   -0.3600 C   0  0  0  0  0  0  0  0  0  0  0  0
   -5.8700    0.6580    0.0240 C   0  0  0  0  0  0  0  0  0  0  0  0
   -6.9940    1.4410    0.2620 O   0  0  0  0  0  0  0  0  0  0  0  0
  1  2  1  0
  2  3  2  0
  2 22  1  0
  3  4  1  0
  4  5  1  0
  4 20  2  0
  5  6  1  0
  6  7  2  0
  6 19  1  0
  7  8  1  0
  8  9  2  0
  9 10  1  0
  9 19  1  0
 10 11  2  0
 10 18  1  0
 11 12  1  0
 12 13  2  0
 13 14  1  0
 13 18  1  0
 14 15  2  3
 15 16  1  0
 16 17  1  0
 20 21  1  0
 21 22  2  0
 22 23  1  0
M  END
