
     RDKit          3D

 23 25  0  0  0  0  0  0  0  0999 V2000
    5.6370   -0.9820   -1.0120 C   0  0  0  0  0  0  0  0  0  0  0  0
    5.4560   -0.0320   -0.0460 O   0  0  0  0  0  0  0  0  0  0  0  0
    4.1090    0.1420    0.2140 C   0  0  0  0  0  0  0  0  0  0  0  0
    3.3710    0.5840   -1.0000 C   0  0  0  0  0  0  0  0  0  0  0  0
    1.9340    0.7880   -0.7530 N   0  0  0  0  0  0  0  0  0  0  0  0
    1.1140   -0.2970   -0.4220 C   0  0  0  0  0  0  0  0  0  0  0  0
    1.7150   -1.4780   -0.2680 N   0  0  0  0  0  0  0  0  0  0  0  0
    1.1280   -2.5970    0.0870 C   0  0  0  0  0  0  0  0  0  0  0  0
   -0.2540   -2.5140    0.3060 C   0  0  0  0  0  0  0  0  0  0  0  0
   -0.8860   -3.6910    0.5770 C   0  0  0  0  0  0  0  0  0  0  0  0
   -2.2520   -3.7700    0.7040 C   0  0  0  0  0  0  0  0  0  0  0  0
   -2.9340   -2.5900    0.5340 C   0  0  0  0  0  0  0  0  0  0  0  0
   -4.8510   -2.6370    0.6880 Br  0  0  0  0  0  0  0  0  0  0  0  0
   -2.3470   -1.3580    0.2570 C   0  0  0  0  0  0  0  0  0  0  0  0
   -3.2300   -0.2600   -0.2180 C   0  0  0  0  0  0  0  0  0  0  0  0
   -0.9540   -1.3220    0.1590 C   0  0  0  0  0  0  0  0  0  0  0  0
   -0.2990   -0.1850   -0.1920 C   0  0  0  0  0  0  0  0  0  0  0  0
   -0.8180    1.1280   -0.3390 C   0  0  0  0  0  0  0  0  0  0  0  0
   -0.3180    1.8700   -1.2640 O   0  0  0  0  0  0  0  0  0  0  0  0
   -1.7800    1.7700    0.4110 N   0  0  0  0  0  0  0  0  0  0  0  0
   -2.2340    3.1470    0.1340 C   0  0  1  0  0  0  0  0  0  0  0  0
   -3.6110    3.5150    0.5850 C   0  0  0  0  0  0  0  0  0  0  0  0
   -2.4290    4.0480    1.3390 C   0  0  0  0  0  0  0  0  0  0  0  0
  1  2  1  0
  2  3  1  0
  3  4  1  0
  4  5  1  0
  5  6  1  0
  6  7  2  0
  6 17  1  0
  7  8  1  0
  8  9  2  0
  9 10  1  0
  9 16  1  0
 10 11  2  0
 11 12  1  0
 12 13  1  0
 12 14  2  0
 14 15  1  0
 14 16  1  0
 16 17  2  0
 17 18  1  0
 18 19  2  0
 18 20  1  0
 21 20  1  1
 21 22  1  0
 21 23  1  0
 22 23  1  0
M  END
