
     RDKit          3D

 23 25  0  0  0  0  0  0  0  0999 V2000
    5.4920   -0.8390   -1.5710 C   0  0  0  0  0  0  0  0  0  0  0  0
    5.6040   -0.9720   -0.0780 C   0  0  0  0  0  0  0  0  0  0  0  0
    4.5420   -0.1400    0.5770 C   0  0  0  0  0  0  0  0  0  0  0  0
    3.2150   -0.5640    0.1740 N   0  0  0  0  0  0  0  0  0  0  0  0
    2.0790    0.1260    0.7070 C   0  0  0  0  0  0  0  0  0  0  0  0
    2.2470    1.1730    1.5870 C   0  0  0  0  0  0  0  0  0  0  0  0
    1.1370    1.8490    2.1100 C   0  0  0  0  0  0  0  0  0  0  0  0
   -0.1380    1.4530    1.7320 C   0  0  0  0  0  0  0  0  0  0  0  0
   -0.3160    0.4070    0.8520 C   0  0  0  0  0  0  0  0  0  0  0  0
   -1.6420    0.0370    0.4940 N   0  0  0  0  0  0  0  0  0  0  0  0
   -2.2410   -1.0560    1.0470 C   0  0  0  0  0  0  0  0  0  0  0  0
   -1.6070   -1.7490    1.8890 O   0  0  0  0  0  0  0  0  0  0  0  0
   -3.5020   -1.3760    0.6820 N   0  0  0  0  0  0  0  0  0  0  0  0
   -4.2210   -0.6900   -0.1960 C   0  0  0  0  0  0  0  0  0  0  0  0
   -5.5030   -1.0040   -0.5760 C   0  0  0  0  0  0  0  0  0  0  0  0
   -6.1710   -0.2250   -1.5010 C   0  0  0  0  0  0  0  0  0  0  0  0
   -5.5970    0.8870   -2.0810 C   0  0  0  0  0  0  0  0  0  0  0  0
   -6.5140    1.9650   -3.3570 Br  0  0  0  0  0  0  0  0  0  0  0  0
   -4.2920    1.2160   -1.7010 C   0  0  0  0  0  0  0  0  0  0  0  0
   -3.6390    0.4250   -0.7740 C   0  0  0  0  0  0  0  0  0  0  0  0
   -2.3680    0.7420   -0.4030 C   0  0  0  0  0  0  0  0  0  0  0  0
   -1.8110    1.7580   -0.9160 O   0  0  0  0  0  0  0  0  0  0  0  0
    0.8040   -0.2550    0.3410 C   0  0  0  0  0  0  0  0  0  0  0  0
  1  2  1  0
  2  3  1  0
  3  4  1  0
  4  5  1  0
  5  6  2  0
  5 23  1  0
  6  7  1  0
  7  8  2  0
  8  9  1  0
  9 10  1  0
  9 23  2  0
 10 11  1  0
 10 21  1  0
 11 12  2  0
 11 13  1  0
 13 14  1  0
 14 15  2  0
 14 20  1  0
 15 16  1  0
 16 17  2  0
 17 18  1  0
 17 19  1  0
 19 20  2  0
 20 21  1  0
 21 22  2  0
M  END
