
     RDKit          3D

 23 25  0  0  0  0  0  0  0  0999 V2000
    3.6310    1.0670    2.2860 C   0  0  0  0  0  0  0  0  0  0  0  0
    4.3380    0.3770    1.1800 C   0  0  0  0  0  0  0  0  0  0  0  0
    5.6780    0.1330    1.2890 N   0  0  0  0  0  0  0  0  0  0  0  0
    6.3820   -0.4710    0.3740 N   0  0  0  0  0  0  0  0  0  0  0  0
    5.8370   -0.9070   -0.7670 C   0  0  0  0  0  0  0  0  0  0  0  0
    6.5110   -1.4930   -1.6620 O   0  0  0  0  0  0  0  0  0  0  0  0
    4.4950   -0.7030   -0.9590 C   0  0  0  0  0  0  0  0  0  0  0  0
    3.7420   -0.0560    0.0220 C   0  0  0  0  0  0  0  0  0  0  0  0
    2.3160    0.1810   -0.1540 C   0  0  0  0  0  0  0  0  0  0  0  0
    1.7710    1.4180    0.1000 C   0  0  0  0  0  0  0  0  0  0  0  0
    0.3960    1.5650   -0.0910 C   0  0  0  0  0  0  0  0  0  0  0  0
   -0.3970    0.5420   -0.5110 C   0  0  0  0  0  0  0  0  0  0  0  0
    0.1270   -0.6980   -0.7700 C   0  0  0  0  0  0  0  0  0  0  0  0
    1.4870   -0.8420   -0.5810 C   0  0  0  0  0  0  0  0  0  0  0  0
   -0.7340   -1.8190   -1.2320 C   0  0  0  0  0  0  0  0  0  0  0  0
   -1.9180   -1.4450   -1.7910 O   0  0  0  0  0  0  0  0  0  0  0  0
   -2.1160   -0.1110   -1.9930 C   0  0  0  0  0  0  0  0  0  0  0  0
   -1.8550    0.7070   -0.7160 C   0  0  1  0  0  0  0  0  0  0  0  0
   -2.6130    0.1900    0.3980 N   0  0  0  0  0  0  0  0  0  0  0  0
   -4.0230    0.3060    0.1150 C   0  0  0  0  0  0  0  0  0  0  0  0
   -4.8560   -0.2140    1.2900 C   0  0  0  0  0  0  0  0  0  0  0  0
   -6.3040   -0.0510    0.8830 C   0  0  0  0  0  0  0  0  0  0  0  0
   -6.6590    1.8090    0.5450 Br  0  0  0  0  0  0  0  0  0  0  0  0
  1  2  1  0
  2  3  2  0
  2  8  1  0
  3  4  1  0
  4  5  1  0
  5  6  2  0
  5  7  1  0
  7  8  2  0
  8  9  1  0
  9 10  2  0
  9 14  1  0
 10 11  1  0
 11 12  2  0
 12 13  1  0
 12 18  1  0
 13 14  2  0
 13 15  1  0
 15 16  1  0
 16 17  1  0
 17 18  1  0
 18 19  1  1
 19 20  1  0
 20 21  1  0
 21 22  1  0
 22 23  1  0
M  END
