
     RDKit          3D

 23 24  0  0  0  0  0  0  0  0999 V2000
   -2.6430    2.5290    0.1060 C   0  0  0  0  0  0  0  0  0  0  0  0
   -3.0760    1.2880    0.8210 C   0  0  0  0  0  0  0  0  0  0  0  0
   -3.5680    0.1770   -0.0100 C   0  0  0  0  0  0  0  0  0  0  0  0
   -2.6360   -0.4990   -0.9560 C   0  0  0  0  0  0  0  0  0  0  0  0
   -1.5150   -1.1210   -0.3470 N   0  0  0  0  0  0  0  0  0  0  0  0
   -0.1930   -0.7580   -0.0950 C   0  0  0  0  0  0  0  0  0  0  0  0
    0.3490   -1.6930    0.6270 O   0  0  0  0  0  0  0  0  0  0  0  0
    0.5200    0.3890   -0.5040 C   0  0  0  0  0  0  0  0  0  0  0  0
    1.7620    0.6180   -0.0920 C   0  0  0  0  0  0  0  0  0  0  0  0
    2.3290   -0.3630    0.8050 C   0  0  0  0  0  0  0  0  0  0  0  0
    3.6250   -0.9130    0.2300 C   0  0  0  0  0  0  0  0  0  0  0  0
    4.7300   -0.0180    0.7480 C   0  0  0  0  0  0  0  0  0  0  0  0
    6.0810   -0.8010    1.7750 Br  0  0  0  0  0  0  0  0  0  0  0  0
    4.7630    1.3040    0.4920 C   0  0  0  0  0  0  0  0  0  0  0  0
    3.8200    2.0990   -0.2800 C   0  0  0  0  0  0  0  0  0  0  0  0
    2.5270    1.8160   -0.5420 C   0  0  0  0  0  0  0  0  0  0  0  0
    1.9710    2.7720   -1.4260 N   0  0  0  0  0  0  0  0  0  0  0  0
    0.6570    2.5340   -1.8620 C   0  0  0  0  0  0  0  0  0  0  0  0
    0.0800    3.3500   -2.6640 O   0  0  0  0  0  0  0  0  0  0  0  0
   -0.0040    1.3790   -1.3990 N   0  0  0  0  0  0  0  0  0  0  0  0
   -1.9000   -2.5310    0.1550 C   0  0  2  0  0  0  0  0  0  0  0  0
   -1.7140   -2.4770    1.6570 C   0  0  0  0  0  0  0  0  0  0  0  0
   -0.9560   -3.5250   -0.4100 C   0  0  0  0  0  0  0  0  0  0  0  0
  1  2  1  0
  2  3  1  0
  3  4  1  0
  4  5  1  0
  5  6  1  0
  5 21  1  0
  6  7  2  0
  6  8  1  0
  8  9  2  0
  8 20  1  0
  9 10  1  0
  9 16  1  0
 10 11  1  0
 11 12  1  0
 12 13  1  0
 12 14  2  0
 14 15  1  0
 15 16  2  0
 16 17  1  0
 17 18  1  0
 18 19  2  0
 18 20  1  0
 21 22  1  1
 21 23  1  0
M  END
