
     RDKit          3D

 22 24  0  0  0  0  0  0  0  0999 V2000
   -3.8480    1.3600    3.0830 C   0  0  0  0  0  0  0  0  0  0  0  0
   -3.2230    0.8860    1.8530 C   0  0  0  0  0  0  0  0  0  0  0  0
   -3.8580    0.5910    0.7800 C   0  0  0  0  0  0  0  0  0  0  0  0
   -5.3070    0.6890    0.6340 C   0  0  0  0  0  0  0  0  0  0  0  0
   -5.8860    1.1390    1.8060 O   0  0  0  0  0  0  0  0  0  0  0  0
   -3.1100    0.1190   -0.4090 C   0  0  0  0  0  0  0  0  0  0  0  0
   -3.5880   -0.2360   -1.6140 N   0  0  0  0  0  0  0  0  0  0  0  0
   -2.5910   -0.5970   -2.3930 N   0  0  0  0  0  0  0  0  0  0  0  0
   -1.3990   -0.4880   -1.7080 C   0  0  0  0  0  0  0  0  0  0  0  0
   -0.1480   -0.8030   -2.2730 N   0  0  0  0  0  0  0  0  0  0  0  0
    1.0750   -0.6900   -1.5660 C   0  0  0  0  0  0  0  0  0  0  0  0
    1.1860   -0.2670   -0.2650 C   0  0  0  0  0  0  0  0  0  0  0  0
    2.4240   -0.1790    0.3710 C   0  0  0  0  0  0  0  0  0  0  0  0
    3.5920   -0.5100   -0.2670 C   0  0  0  0  0  0  0  0  0  0  0  0
    4.8730   -0.3970    0.4580 C   0  0  0  0  0  0  0  0  0  0  0  0
    5.3440   -0.0990    1.4920 N   0  0  0  0  0  0  0  0  0  0  0  0
    6.5990   -0.1070    1.8480 C   0  0  0  0  0  0  0  0  0  0  0  0
    7.5060   -0.5080    0.9200 C   0  0  0  0  0  0  0  0  0  0  0  0
    6.4480   -0.8660   -0.4710 S   0  0  0  0  0  0  0  0  0  0  0  0
    3.4870   -0.9330   -1.5670 C   0  0  0  0  0  0  0  0  0  0  0  0
    2.2780   -1.0260   -2.2100 C   0  0  0  0  0  0  0  0  0  0  0  0
   -1.7840   -0.0490   -0.5120 N   0  0  0  0  0  0  0  0  0  0  0  0
  1  2  1  0
  2  3  2  3
  3  4  1  0
  3  6  1  0
  4  5  1  0
  6  7  2  0
  6 22  1  0
  7  8  1  0
  8  9  1  0
  9 10  1  0
  9 22  2  0
 10 11  1  0
 11 12  2  0
 11 21  1  0
 12 13  1  0
 13 14  2  0
 14 15  1  0
 14 20  1  0
 15 16  2  0
 15 19  1  0
 16 17  1  0
 17 18  2  0
 18 19  1  0
 20 21  2  0
M  END
