
     RDKit          3D

 22 24  0  0  0  0  0  0  0  0999 V2000
    2.2420   -0.1700   -3.3150 C   0  0  0  0  0  0  0  0  0  0  0  0
    2.5120   -0.1940   -1.8970 N   0  0  0  0  0  0  0  0  0  0  0  0
    3.6980   -0.6550   -1.3320 N   0  0  0  0  0  0  0  0  0  0  0  0
    3.6420   -0.5420   -0.0370 C   0  0  0  0  0  0  0  0  0  0  0  0
    4.6100   -0.8810    0.9870 C   0  0  0  0  0  0  0  0  0  0  0  0
    4.3490   -0.6880    2.2750 C   0  0  0  0  0  0  0  0  0  0  0  0
    3.0520   -0.1230    2.6150 C   0  0  0  0  0  0  0  0  0  0  0  0
    2.1400    0.2020    1.7140 C   0  0  0  0  0  0  0  0  0  0  0  0
    2.3890    0.0100    0.3320 N   0  0  0  0  0  0  0  0  0  0  0  0
    1.6230    0.2530   -0.8430 C   0  0  0  0  0  0  0  0  0  0  0  0
    0.4240    0.6990   -1.0120 C   0  0  0  0  0  0  0  0  0  0  0  0
   -0.5480    1.1740   -0.0670 C   0  0  0  0  0  0  0  0  0  0  0  0
   -0.3940    2.1600    0.8190 N   0  0  0  0  0  0  0  0  0  0  0  0
   -1.3210    2.5660    1.6940 C   0  0  0  0  0  0  0  0  0  0  0  0
   -1.0860    3.6340    2.6170 N   0  0  0  0  0  0  0  0  0  0  0  0
   -2.5700    1.9360    1.7230 C   0  0  0  0  0  0  0  0  0  0  0  0
   -2.7990    0.9080    0.8350 C   0  0  0  0  0  0  0  0  0  0  0  0
   -1.7970    0.5460   -0.0380 C   0  0  0  0  0  0  0  0  0  0  0  0
   -2.0830   -0.7900   -1.1880 S   0  0  0  0  0  0  0  0  0  0  0  0
   -3.7260   -1.4810   -0.9720 C   0  0  0  0  0  0  0  0  0  0  0  0
   -3.8910   -2.5900   -1.9840 C   0  0  0  0  0  0  0  0  0  0  0  0
   -2.9050   -3.5500   -1.7380 O   0  0  0  0  0  0  0  0  0  0  0  0
  1  2  1  0
  2  3  1  0
  2 10  1  0
  3  4  2  0
  4  5  1  0
  4  9  1  0
  5  6  2  0
  6  7  1  0
  7  8  2  0
  8  9  1  0
  9 10  1  0
 10 11  2  3
 11 12  1  0
 12 13  2  0
 12 18  1  0
 13 14  1  0
 14 15  1  0
 14 16  2  0
 16 17  1  0
 17 18  2  0
 18 19  1  0
 19 20  1  0
 20 21  1  0
 21 22  1  0
M  END
