
     RDKit          3D

 22 24  0  0  0  0  0  0  0  0999 V2000
   -3.4900   -3.9660    0.8310 C   0  0  0  0  0  0  0  0  0  0  0  0
   -2.6350   -2.8490    0.3690 C   0  0  0  0  0  0  0  0  0  0  0  0
   -3.1790   -1.6380    0.3890 C   0  0  0  0  0  0  0  0  0  0  0  0
   -2.6020   -0.3450   -0.0000 C   0  0  0  0  0  0  0  0  0  0  0  0
   -3.5050    0.7790   -0.1510 C   0  0  0  0  0  0  0  0  0  0  0  0
   -3.1360    1.9950   -0.4940 C   0  0  0  0  0  0  0  0  0  0  0  0
   -1.7580    2.4130   -0.7780 C   0  0  0  0  0  0  0  0  0  0  0  0
   -4.3460    2.8880   -0.5490 C   0  0  0  0  0  0  0  0  0  0  0  0
   -5.4010    1.9870   -0.1910 N   0  0  0  0  0  0  0  0  0  0  0  0
   -4.9430    0.7900    0.0370 C   0  0  0  0  0  0  0  0  0  0  0  0
   -1.3450   -0.1520   -0.2140 N   0  0  0  0  0  0  0  0  0  0  0  0
   -0.2150   -1.0210   -0.1540 C   0  0  0  0  0  0  0  0  0  0  0  0
    1.3960   -0.2260   -0.1780 S   0  0  0  0  0  0  0  0  0  0  0  0
    2.6530   -1.5050   -0.0950 C   0  0  0  0  0  0  0  0  0  0  0  0
    4.0230   -0.9830   -0.1080 C   0  0  0  0  0  0  0  0  0  0  0  0
    4.9950   -1.7620   -0.0550 O   0  0  0  0  0  0  0  0  0  0  0  0
    4.2740    0.4060   -0.1790 N   0  0  0  0  0  0  0  0  0  0  0  0
    5.6200    0.9650   -0.1940 C   0  0  1  0  0  0  0  0  0  0  0  0
    5.8880    2.2640   -0.8360 C   0  0  0  0  0  0  0  0  0  0  0  0
    5.7710    2.2290    0.6500 C   0  0  0  0  0  0  0  0  0  0  0  0
   -0.2340   -2.3200   -0.0850 N   0  0  0  0  0  0  0  0  0  0  0  0
   -1.3070   -3.2260   -0.0490 N   0  0  0  0  0  0  0  0  0  0  0  0
  1  2  1  0
  2  3  2  0
  2 22  1  0
  3  4  1  0
  4  5  1  0
  4 11  2  0
  5  6  2  0
  5 10  1  0
  6  7  1  0
  6  8  1  0
  8  9  1  0
  9 10  2  0
 11 12  1  0
 12 13  1  0
 12 21  2  0
 13 14  1  0
 14 15  1  0
 15 16  2  0
 15 17  1  0
 18 17  1  6
 18 19  1  0
 18 20  1  0
 19 20  1  0
 21 22  1  0
M  END
