
     RDKit          3D

 12 12  0  0  0  0  0  0  0  0999 V2000
   -1.1990   -0.8670    1.0230 N   0  0  0  0  0  0  0  0  0  0  0  0
   -1.0000    0.2950    0.2110 C   0  0  1  0  0  0  0  0  0  0  0  0
   -0.0770   -0.0490   -0.9270 C   0  0  0  0  0  0  0  0  0  0  0  0
    1.2470   -0.5160   -0.4250 C   0  0  0  0  0  0  0  0  0  0  0  0
    1.5020   -1.9210   -0.4710 N   0  0  0  0  0  0  0  0  0  0  0  0
    3.1860   -2.0080    0.2240 S   0  0  0  0  0  0  0  0  0  0  0  0
    3.3530   -0.3490    0.4750 N   0  0  0  0  0  0  0  0  0  0  0  0
    2.2170    0.2250    0.0610 C   0  0  0  0  0  0  0  0  0  0  0  0
    2.1220    1.5320    0.1640 O   0  0  0  0  0  0  0  0  0  0  0  0
   -2.2670    0.8330   -0.3090 C   0  0  0  0  0  0  0  0  0  0  0  0
   -3.3820    0.3120   -0.0550 O   0  0  0  0  0  0  0  0  0  0  0  0
   -2.2330    1.9750   -1.1210 O   0  0  0  0  0  0  0  0  0  0  0  0
  2  1  1  6
  2  3  1  0
  2 10  1  0
  3  4  1  0
  4  5  2  0
  4  8  1  0
  5  6  1  0
  6  7  1  0
  7  8  1  0
  8  9  2  0
 10 11  2  0
 10 12  1  0
M  CHG  1   1   1
M  END
