
     RDKit          3D

 12 12  0  0  0  0  0  0  0  0999 V2000
   -1.7950   -1.5550    1.0060 N   0  0  0  0  0  0  0  0  0  0  0  0
   -0.7570   -0.8960    0.2730 C   0  0  2  0  0  0  0  0  0  0  0  0
   -0.2550    0.3050    1.0370 C   0  0  0  0  0  0  0  0  0  0  0  0
    0.8560    0.9730    0.2070 C   0  0  0  0  0  0  0  0  0  0  0  0
    0.5190    2.1300   -0.4630 N   0  0  0  0  0  0  0  0  0  0  0  0
    2.0880    2.5610   -1.2880 S   0  0  0  0  0  0  0  0  0  0  0  0
    2.9600    1.2430   -0.6910 N   0  0  0  0  0  0  0  0  0  0  0  0
    2.0990    0.5230    0.0900 C   0  0  0  0  0  0  0  0  0  0  0  0
    2.5180   -0.5670    0.6860 O   0  0  0  0  0  0  0  0  0  0  0  0
   -1.2940   -0.4650   -1.0380 C   0  0  0  0  0  0  0  0  0  0  0  0
   -2.4990   -0.6900   -1.3450 O   0  0  0  0  0  0  0  0  0  0  0  0
   -0.5280    0.1900   -1.9740 O   0  0  0  0  0  0  0  0  0  0  0  0
  2  1  1  1
  2  3  1  0
  2 10  1  0
  3  4  1  0
  4  5  2  0
  4  8  1  0
  5  6  1  0
  6  7  1  0
  7  8  1  0
  8  9  2  0
 10 11  2  0
 10 12  1  0
M  CHG  1   1   1
M  END
