
     RDKit          3D

  7  6  0  0  0  0  0  0  0  0999 V2000
    2.6110   -0.6470    0.7060 O   0  0  0  0  0  0  0  0  0  0  0  0
    2.1260    0.0020   -0.2430 N   0  0  0  0  0  0  0  0  0  0  0  0
    0.7930    0.4600   -0.0910 C   0  0  0  0  0  0  0  0  0  0  0  0
    0.6320    1.7040    0.1210 O   0  0  0  0  0  0  0  0  0  0  0  0
   -0.3090   -0.4590   -0.1770 C   0  0  0  0  0  0  0  0  0  0  0  0
   -1.5690   -0.0700   -0.0410 C   0  0  0  0  0  0  0  0  0  0  0  0
   -1.8260    1.2690    0.1920 O   0  0  0  0  0  0  0  0  0  0  0  0
  1  2  2  0
  2  3  1  0
  3  4  2  0
  3  5  1  0
  5  6  2  3
  6  7  1  0
M  CHG  1   7  -1
M  END
