
     RDKit          3D

 20 23  0  0  0  0  0  0  0  0999 V2000
    2.5060    0.3420   -2.1940 O   0  0  0  0  0  0  0  0  0  0  0  0
    2.9780    0.1540   -1.0490 C   0  0  0  0  0  0  0  0  0  0  0  0
    4.3320   -0.0800   -0.7740 O   0  0  0  0  0  0  0  0  0  0  0  0
    4.4590   -0.8280    0.4310 C   0  0  0  0  0  0  0  0  0  0  0  0
    3.0110   -1.1340    0.8430 C   0  0  0  0  0  0  0  0  0  0  0  0
    2.3410    0.1150    0.2860 C   0  0  2  0  0  0  0  0  0  0  0  0
    0.8600    0.0650    0.2870 C   0  0  1  0  0  0  0  0  0  0  0  0
    0.3040    1.2750   -0.3600 C   0  0  0  0  0  0  0  0  0  0  0  0
   -1.1680    1.2310   -0.6400 C   0  0  1  0  0  0  0  0  0  0  0  0
   -1.7120   -0.1090   -0.9560 C   0  0  0  0  0  0  0  0  0  0  0  0
   -1.1740   -1.2160   -0.0940 C   0  0  2  0  0  0  0  0  0  0  0  0
   -1.8700   -2.5160   -0.4260 C   0  0  0  0  0  0  0  0  0  0  0  0
   -2.6150   -2.4720    0.8910 C   0  0  0  0  0  0  0  0  0  0  0  0
   -1.7120   -1.3160    1.2910 C   0  0  2  0  0  0  0  0  0  0  0  0
   -2.4690   -0.2710    1.7620 O   0  0  0  0  0  0  0  0  0  0  0  0
    0.3190   -1.2370   -0.2490 C   0  0  0  0  0  0  0  0  0  0  0  0
   -1.9100    1.8910    0.3650 O   0  0  0  0  0  0  0  0  0  0  0  0
   -1.6160    3.2270    0.1960 C   0  0  0  0  0  0  0  0  0  0  0  0
   -1.0950    3.3310   -1.2270 C   0  0  0  0  0  0  0  0  0  0  0  0
   -1.4370    2.0740   -1.7310 O   0  0  0  0  0  0  0  0  0  0  0  0
  1  2  2  0
  2  3  1  0
  2  6  1  0
  3  4  1  0
  4  5  1  0
  6  5  1  6
  6  7  1  0
  7  8  1  6
  7 16  1  0
  9  8  1  1
  9 10  1  0
  9 17  1  0
  9 20  1  0
 11 10  1  6
 11 12  1  0
 11 14  1  0
 11 16  1  0
 12 13  1  0
 13 14  1  0
 14 15  1  6
 17 18  1  0
 18 19  1  0
 19 20  1  0
M  END
