
     RDKit          3D

 20 22  0  0  0  0  0  0  0  0999 V2000
   -2.3430   -1.9980    0.9350 C   0  0  0  0  0  0  0  0  0  0  0  0
   -1.0150   -1.3220    0.9500 C   0  0  0  0  0  0  0  0  0  0  0  0
   -0.7810   -0.3260   -0.1500 C   0  0  1  0  0  0  0  0  0  0  0  0
   -0.8680   -0.9500   -1.5150 C   0  0  0  0  0  0  0  0  0  0  0  0
   -1.7930    0.7840   -0.0310 C   0  0  2  0  0  0  0  0  0  0  0  0
   -3.1260    0.5390   -0.6300 C   0  0  0  0  0  0  0  0  0  0  0  0
   -1.1980    1.9860   -0.7420 C   0  0  0  0  0  0  0  0  0  0  0  0
    0.2710    1.7480   -0.7090 C   0  0  0  0  0  0  0  0  0  0  0  0
    0.4960    0.4390    0.0640 C   0  0  2  0  0  0  0  0  0  0  0  0
    1.7470   -0.2090   -0.3960 C   0  0  1  0  0  0  0  0  0  0  0  0
    1.7660   -0.5150   -1.7450 O   0  0  0  0  0  0  0  0  0  0  0  0
    2.9480    0.7450   -0.2090 C   0  0  0  0  0  0  0  0  0  0  0  0
    4.0120   -0.0700    0.4420 C   0  0  0  0  0  0  0  0  0  0  0  0
    3.6210   -1.3780    0.3060 O   0  0  0  0  0  0  0  0  0  0  0  0
    2.2210   -1.3930    0.3690 C   0  0  0  0  0  0  0  0  0  0  0  0
    0.5330    0.8450    1.4890 C   0  0  0  0  0  0  0  0  0  0  0  0
    1.5210    0.7300    2.2460 O   0  0  0  0  0  0  0  0  0  0  0  0
   -0.6300    1.4020    2.0350 O   0  0  0  0  0  0  0  0  0  0  0  0
   -1.8730    1.1590    1.4110 C   0  0  0  0  0  0  0  0  0  0  0  0
   -2.9690    1.2430    1.9920 O   0  0  0  0  0  0  0  0  0  0  0  0
  1  2  1  0
  2  3  1  0
  3  4  1  6
  3  5  1  0
  3  9  1  0
  5  6  1  6
  5  7  1  0
  5 19  1  0
  7  8  1  0
  9  8  1  6
  9 10  1  0
  9 16  1  0
 10 11  1  6
 10 12  1  0
 10 15  1  0
 12 13  1  0
 13 14  1  0
 14 15  1  0
 16 17  2  0
 16 18  1  0
 18 19  1  0
 19 20  2  0
M  END
