
     RDKit          3D

  6  6  0  0  0  0  0  0  0  0999 V2000
    2.5440   -0.3110   -0.0440 O   0  0  0  0  0  0  0  0  0  0  0  0
    1.1650   -0.3010   -0.0060 C   0  0  0  0  0  0  0  0  0  0  0  0
    0.3220    0.7140   -0.0260 C   0  0  0  0  0  0  0  0  0  0  0  0
   -1.0540    0.0980    0.0390 C   0  0  0  0  0  0  0  0  0  0  0  0
   -0.8000   -1.1710   -0.4580 O   0  0  0  0  0  0  0  0  0  0  0  0
    0.3970   -1.4500    0.0650 O   0  0  0  0  0  0  0  0  0  0  0  0
  1  2  1  0
  2  3  2  0
  2  6  1  0
  3  4  1  0
  4  5  1  0
  5  6  1  0
M  CHG  1   1  -1
M  END
