
     RDKit          3D

 20 22  0  0  0  0  0  0  0  0999 V2000
   -2.1290    2.3160    0.7800 C   0  0  0  0  0  0  0  0  0  0  0  0
   -2.8260    1.0270    0.4460 C   0  0  2  0  0  0  0  0  0  0  0  0
   -3.4020    0.4760    1.7280 C   0  0  0  0  0  0  0  0  0  0  0  0
   -4.3620   -0.5200    1.3320 O   0  0  0  0  0  0  0  0  0  0  0  0
   -3.9140   -1.3090    0.2810 C   0  0  0  0  0  0  0  0  0  0  0  0
   -4.6250   -1.9610   -0.5020 O   0  0  0  0  0  0  0  0  0  0  0  0
   -2.4050   -1.3250    0.1400 C   0  0  0  0  0  0  0  0  0  0  0  0
   -1.9330    0.0470   -0.2860 C   0  0  1  0  0  0  0  0  0  0  0  0
   -2.1720    0.2480   -1.6540 O   0  0  0  0  0  0  0  0  0  0  0  0
   -0.5000    0.2100    0.0100 C   0  0  0  0  0  0  0  0  0  0  0  0
    0.4890   -0.6560   -0.6320 C   0  0  2  0  0  0  0  0  0  0  0  0
    0.4520   -2.1170   -0.4240 C   0  0  0  0  0  0  0  0  0  0  0  0
    1.9520   -2.4950   -0.3320 C   0  0  0  0  0  0  0  0  0  0  0  0
    2.4880   -1.3980    0.3550 O   0  0  0  0  0  0  0  0  0  0  0  0
    1.9030   -0.2910   -0.2690 C   0  0  1  0  0  0  0  0  0  0  0  0
    2.7500   -0.0310   -1.5120 C   0  0  0  0  0  0  0  0  0  0  0  0
    3.6690    1.1340   -1.3040 C   0  0  0  0  0  0  0  0  0  0  0  0
    4.3530    1.0350   -0.1100 O   0  0  0  0  0  0  0  0  0  0  0  0
    3.5190    1.0380    0.9750 C   0  0  0  0  0  0  0  0  0  0  0  0
    2.0380    0.9150    0.6110 C   0  0  0  0  0  0  0  0  0  0  0  0
  2  1  1  1
  2  3  1  0
  2  8  1  0
  3  4  1  0
  4  5  1  0
  5  6  2  0
  5  7  1  0
  7  8  1  0
  8  9  1  6
  8 10  1  0
 11 10  1  1
 11 12  1  0
 11 15  1  0
 12 13  1  0
 13 14  1  0
 14 15  1  0
 15 16  1  6
 15 20  1  0
 16 17  1  0
 17 18  1  0
 18 19  1  0
 19 20  1  0
M  END
