
     RDKit          3D

 35 36  0  0  0  0  0  0  0  0999 V2000
    3.5550    4.7280   -0.1380 C   0  0  0  0  0  0  0  0  0  0  0  0
    2.8790    3.5210    0.4710 C   0  0  1  0  0  0  0  0  0  0  0  0
    1.4220    3.8170    0.7620 C   0  0  0  0  0  0  0  0  0  0  0  0
    2.9800    2.3810   -0.5460 C   0  0  0  0  0  0  0  0  0  0  0  0
    2.3670    1.1900   -0.0530 N   0  0  0  0  0  0  0  0  0  0  0  0
    1.5980    0.5450   -1.0600 C   0  0  0  0  0  0  0  0  0  0  0  0
    0.3310   -0.0400   -0.4490 C   0  0  0  0  0  0  0  0  0  0  0  0
   -0.4550   -0.6880   -1.4810 N   0  0  0  0  0  0  0  0  0  0  0  0
   -1.7900   -1.0130   -0.9510 C   0  0  0  0  0  0  0  0  0  0  0  0
   -1.7160   -1.4740    0.4780 C   0  0  0  0  0  0  0  0  0  0  0  0
   -2.9740   -1.7990    1.0770 N   0  0  0  0  0  0  0  0  0  0  0  0
   -3.7120   -2.8160    0.4770 C   0  0  0  0  0  0  0  0  0  0  0  0
   -3.9520   -4.0860    1.1980 C   0  0  2  0  0  0  0  0  0  0  0  0
   -4.6910   -4.0030    2.4880 C   0  0  0  0  0  0  0  0  0  0  0  0
   -2.6970   -4.8940    1.4370 C   0  0  0  0  0  0  0  0  0  0  0  0
   -3.7040   -0.6020    1.9710 S   0  0  1  0  0  0  0  0  0  0  0  0
   -4.9450   -1.0430    2.7120 O   0  0  0  0  0  0  0  0  0  0  0  0
   -2.7710   -0.1000    3.0720 O   0  0  0  0  0  0  0  0  0  0  0  0
   -4.0890    0.7960    1.0100 C   0  0  0  0  0  0  0  0  0  0  0  0
   -5.3490    0.8920    0.4250 C   0  0  0  0  0  0  0  0  0  0  0  0
   -5.6070    2.0250   -0.3030 C   0  0  0  0  0  0  0  0  0  0  0  0
   -4.6890    3.0560   -0.4800 C   0  0  0  0  0  0  0  0  0  0  0  0
   -5.0530    4.2190   -1.2600 N   0  0  0  0  0  0  0  0  0  0  0  0
   -3.4640    2.9110    0.1170 C   0  0  0  0  0  0  0  0  0  0  0  0
   -3.1600    1.7950    0.8560 C   0  0  0  0  0  0  0  0  0  0  0  0
    3.4200    0.1290    0.7380 S   0  0  2  0  0  0  0  0  0  0  0  0
    2.6840   -1.0170    1.3660 O   0  0  0  0  0  0  0  0  0  0  0  0
    4.0660    0.8920    1.8840 O   0  0  0  0  0  0  0  0  0  0  0  0
    4.7120   -0.4930   -0.2570 C   0  0  0  0  0  0  0  0  0  0  0  0
    4.5050   -1.6780   -0.9730 C   0  0  0  0  0  0  0  0  0  0  0  0
    5.4890   -2.2150   -1.7640 C   0  0  0  0  0  0  0  0  0  0  0  0
    6.7300   -1.6340   -1.9040 C   0  0  0  0  0  0  0  0  0  0  0  0
    7.7390   -2.2080   -2.7200 N   0  0  0  0  0  0  0  0  0  0  0  0
    6.9300   -0.4510   -1.1870 C   0  0  0  0  0  0  0  0  0  0  0  0
    5.9460    0.0940   -0.3910 C   0  0  0  0  0  0  0  0  0  0  0  0
  2  1  1  6
  2  3  1  0
  2  4  1  0
  4  5  1  0
  5  6  1  0
 26  5  1  6
  6  7  1  0
  7  8  1  0
  8  9  1  0
  9 10  1  0
 10 11  1  0
 11 12  1  0
 16 11  1  6
 12 13  1  0
 13 14  1  1
 13 15  1  0
 16 17  2  0
 16 18  2  0
 16 19  1  0
 19 20  2  0
 19 25  1  0
 20 21  1  0
 21 22  2  0
 22 23  1  0
 22 24  1  0
 24 25  2  0
 26 27  2  0
 26 28  2  0
 26 29  1  0
 29 30  2  0
 29 35  1  0
 30 31  1  0
 31 32  2  0
 32 33  1  0
 32 34  1  0
 34 35  2  0
M  CHG  1   8   1
M  END
