
     RDKit          3D

 34 38  0  0  0  0  0  0  0  0999 V2000
   -3.4160   -0.8210    3.1510 C   0  0  0  0  0  0  0  0  0  0  0  0
   -2.7650   -0.2210    2.0730 O   0  0  0  0  0  0  0  0  0  0  0  0
   -2.3970   -0.9550    0.9190 C   0  0  0  0  0  0  0  0  0  0  0  0
   -2.6950   -2.3160    0.9060 C   0  0  0  0  0  0  0  0  0  0  0  0
   -2.3600   -3.1210   -0.1580 C   0  0  0  0  0  0  0  0  0  0  0  0
   -1.7140   -2.5500   -1.2320 C   0  0  0  0  0  0  0  0  0  0  0  0
   -1.4070   -1.2130   -1.2540 C   0  0  0  0  0  0  0  0  0  0  0  0
   -1.7590   -0.3960   -0.1540 C   0  0  0  0  0  0  0  0  0  0  0  0
   -1.5870    1.0340   -0.2670 C   0  0  0  0  0  0  0  0  0  0  0  0
   -0.7140    1.5350   -1.0370 N   0  0  0  0  0  0  0  0  0  0  0  0
    0.2290    1.1200   -1.8940 N   0  0  0  0  0  0  0  0  0  0  0  0
    1.4720    0.6060   -1.3650 C   0  0  0  0  0  0  0  0  0  0  0  0
    1.6250    0.5640   -0.1290 O   0  0  0  0  0  0  0  0  0  0  0  0
    2.5310    0.1410   -2.2740 C   0  0  0  0  0  0  0  0  0  0  0  0
    3.6540   -0.3180   -1.5230 N   0  0  2  0  0  0  0  0  0  0  0  0
    4.9170   -0.0900   -2.2420 C   0  0  0  0  0  0  0  0  0  0  0  0
    5.9730    0.0930   -1.1810 C   0  0  0  0  0  0  0  0  0  0  0  0
    6.0010   -1.2780   -0.4630 C   0  0  0  0  0  0  0  0  0  0  0  0
    7.0620   -1.7300    0.2290 C   0  0  0  0  0  0  0  0  0  0  0  0
    6.9900   -2.9490    0.8260 C   0  0  0  0  0  0  0  0  0  0  0  0
    5.3800   -3.5250    0.4240 S   0  0  0  0  0  0  0  0  0  0  0  0
    4.8910   -2.0510   -0.5470 C   0  0  0  0  0  0  0  0  0  0  0  0
    3.6300   -1.7420   -1.2510 C   0  0  0  0  0  0  0  0  0  0  0  0
   -2.4080    2.0060    0.4200 C   0  0  0  0  0  0  0  0  0  0  0  0
   -3.6870    1.7890    0.8070 C   0  0  0  0  0  0  0  0  0  0  0  0
   -4.4250    2.7210    1.5480 C   0  0  0  0  0  0  0  0  0  0  0  0
   -3.8240    3.9090    1.8940 C   0  0  0  0  0  0  0  0  0  0  0  0
   -4.5720    4.9340    2.6850 C   0  0  0  0  0  0  0  0  0  0  0  0
   -2.5320    4.1600    1.5160 C   0  0  0  0  0  0  0  0  0  0  0  0
   -1.9200    5.4600    1.9110 C   0  0  0  0  0  0  0  0  0  0  0  0
   -1.8200    3.2320    0.7890 C   0  0  0  0  0  0  0  0  0  0  0  0
   -1.4680   -3.6280   -2.2300 C   0  0  0  0  0  0  0  0  0  0  0  0
   -2.3160   -4.7070   -1.8200 N   0  0  0  0  0  0  0  0  0  0  0  0
   -2.5640   -4.5730   -0.4080 C   0  0  0  0  0  0  0  0  0  0  0  0
  1  2  1  0
  2  3  1  0
  3  4  2  0
  3  8  1  0
  4  5  1  0
  5  6  2  0
  5 34  1  0
  6  7  1  0
  6 32  1  0
  7  8  2  0
  8  9  1  0
  9 10  2  3
  9 24  1  0
 10 11  1  0
 11 12  1  0
 12 13  2  0
 12 14  1  0
 15 14  1  6
 15 16  1  0
 15 23  1  0
 16 17  1  0
 17 18  1  0
 18 19  1  0
 18 22  2  0
 19 20  2  0
 20 21  1  0
 21 22  1  0
 22 23  1  0
 24 25  2  0
 24 31  1  0
 25 26  1  0
 26 27  2  0
 27 28  1  0
 27 29  1  0
 29 30  1  0
 29 31  2  0
 32 33  1  0
 33 34  1  0
M  CHG  1  15   1
M  END
