
     RDKit          3D

 34 37  0  0  0  0  0  0  0  0999 V2000
   -4.4560    5.1850   -1.4470 C   0  0  0  0  0  0  0  0  0  0  0  0
   -4.9020    3.9780   -0.6500 C   0  0  0  0  0  0  0  0  0  0  0  0
   -3.7420    3.0160   -0.5550 C   0  0  0  0  0  0  0  0  0  0  0  0
   -3.1320    2.4530   -2.0710 Cl  0  0  0  0  0  0  0  0  0  0  0  0
   -3.2720    2.6750    0.6130 C   0  0  0  0  0  0  0  0  0  0  0  0
   -2.2170    1.8110    0.9820 C   0  0  0  0  0  0  0  0  0  0  0  0
   -1.9230    1.6290    2.2830 C   0  0  0  0  0  0  0  0  0  0  0  0
   -2.9240    2.5240    3.4440 Cl  0  0  0  0  0  0  0  0  0  0  0  0
   -0.8490    0.7530    2.8050 C   0  0  0  0  0  0  0  0  0  0  0  0
   -0.8270   -0.4870    1.9530 C   0  0  0  0  0  0  0  0  0  0  0  0
   -0.3150   -1.5510    2.3140 O   0  0  0  0  0  0  0  0  0  0  0  0
   -1.4590   -0.3530    0.6470 C   0  0  0  0  0  0  0  0  0  0  0  0
   -2.1170   -1.3410    0.0830 C   0  0  0  0  0  0  0  0  0  0  0  0
   -2.2970   -2.6780    0.6750 C   0  0  0  0  0  0  0  0  0  0  0  0
   -3.0580   -3.5040   -0.3400 C   0  0  1  0  0  0  0  0  0  0  0  0
   -4.2240   -4.2410    0.2760 C   0  0  0  0  0  0  0  0  0  0  0  0
   -3.6310   -2.4910   -1.3070 C   0  0  0  0  0  0  0  0  0  0  0  0
   -2.7640   -1.3240   -1.1700 N   0  0  0  0  0  0  0  0  0  0  0  0
   -1.3230    1.0240    0.0430 C   0  0  2  0  0  0  0  0  0  0  0  0
    0.0060    1.6560    0.1810 C   0  0  0  0  0  0  0  0  0  0  0  0
    0.0380    2.9700    0.6900 C   0  0  0  0  0  0  0  0  0  0  0  0
    1.1960    3.5710    0.8690 N   0  0  0  0  0  0  0  0  0  0  0  0
    2.3890    3.0530    0.6110 C   0  0  0  0  0  0  0  0  0  0  0  0
    2.4100    1.7470    0.1000 C   0  0  0  0  0  0  0  0  0  0  0  0
    3.6050    1.1450   -0.2090 C   0  0  0  0  0  0  0  0  0  0  0  0
    3.6290   -0.1220   -0.7250 C   0  0  0  0  0  0  0  0  0  0  0  0
    4.9230   -0.7710   -1.0540 C   0  0  0  0  0  0  0  0  0  0  0  0
    5.3560   -1.7970   -0.0640 C   0  0  1  0  0  0  0  0  0  0  0  0
    6.6830   -2.3660   -0.5370 C   0  0  0  0  0  0  0  0  0  0  0  0
    5.5980   -1.2270    1.3160 C   0  0  0  0  0  0  0  0  0  0  0  0
    2.4500   -0.7850   -0.9310 C   0  0  0  0  0  0  0  0  0  0  0  0
    2.3950   -2.1680   -1.4900 C   0  0  0  0  0  0  0  0  0  0  0  0
    1.2410   -0.2130   -0.6330 C   0  0  0  0  0  0  0  0  0  0  0  0
    1.2240    1.0800   -0.1040 C   0  0  0  0  0  0  0  0  0  0  0  0
  1  2  1  0
  2  3  1  0
  3  4  1  0
  3  5  2  3
  5  6  1  0
  6  7  2  0
  6 19  1  0
  7  8  1  0
  7  9  1  0
  9 10  1  0
 10 11  2  0
 10 12  1  0
 12 13  2  3
 12 19  1  0
 13 14  1  0
 13 18  1  0
 14 15  1  0
 15 16  1  1
 15 17  1  0
 17 18  1  0
 19 20  1  1
 20 21  2  0
 20 34  1  0
 21 22  1  0
 22 23  2  0
 23 24  1  0
 24 25  2  0
 24 34  1  0
 25 26  1  0
 26 27  1  0
 26 31  2  0
 27 28  1  0
 28 29  1  6
 28 30  1  0
 31 32  1  0
 31 33  1  0
 33 34  2  0
M  END
