
     RDKit          3D

 41 44  0  0  0  0  0  0  0  0999 V2000
    7.6000   -4.3000    0.8720 C   0  0  0  0  0  0  0  0  0  0  0  0
    6.7910   -4.7560    1.9460 O   0  0  0  0  0  0  0  0  0  0  0  0
    5.5540   -4.1880    2.1180 C   0  0  0  0  0  0  0  0  0  0  0  0
    4.7370   -4.5980    3.1450 C   0  0  0  0  0  0  0  0  0  0  0  0
    3.4910   -4.0500    3.3460 C   0  0  0  0  0  0  0  0  0  0  0  0
    3.0240   -3.0600    2.5070 C   0  0  0  0  0  0  0  0  0  0  0  0
    1.8780   -2.3570    2.4580 N   0  0  0  0  0  0  0  0  0  0  0  0
    1.9500   -1.5020    1.4120 C   0  0  0  0  0  0  0  0  0  0  0  0
    0.9080   -0.5660    1.0240 C   0  0  0  0  0  0  0  0  0  0  0  0
    1.1220    0.1680    0.0200 O   0  0  0  0  0  0  0  0  0  0  0  0
   -0.2970   -0.4050    1.6490 O   0  0  0  0  0  0  0  0  0  0  0  0
   -1.2770    0.5480    1.1950 C   0  0  2  0  0  0  0  0  0  0  0  0
   -1.4700    1.6100    2.2280 C   0  0  0  0  0  0  0  0  0  0  0  0
   -2.4710   -0.2030    0.7720 C   0  0  1  0  0  0  0  0  0  0  0  0
   -3.1150   -1.0330    1.8590 C   0  0  0  0  0  0  0  0  0  0  0  0
   -3.4670    0.4940   -0.0820 C   0  0  2  0  0  0  0  0  0  0  0  0
   -2.9110    0.9800   -1.4140 C   0  0  0  0  0  0  0  0  0  0  0  0
   -3.8420    1.9730   -2.0370 C   0  0  0  0  0  0  0  0  0  0  0  0
   -5.3220    1.6940   -1.6730 C   0  0  2  0  0  0  0  0  0  0  0  0
   -6.0700    2.6460   -2.5790 C   0  0  0  0  0  0  0  0  0  0  0  0
   -7.8210    2.6080   -2.4670 S   0  0  0  0  0  0  0  0  0  0  0  0
   -8.3340    3.7030   -1.5780 O   0  0  0  0  0  0  0  0  0  0  0  0
   -5.4820    1.9310   -0.2210 C   0  0  1  0  0  0  0  0  0  0  0  0
   -6.6530    1.3460    0.4640 C   0  0  0  0  0  0  0  0  0  0  0  0
   -6.7750   -0.0840    0.4080 N   0  0  0  0  0  0  0  0  0  0  0  0
   -4.1980    1.6320    0.5670 C   0  0  0  0  0  0  0  0  0  0  0  0
    3.1630   -1.6580    0.7780 C   0  0  0  0  0  0  0  0  0  0  0  0
    3.5830   -0.9560   -0.3260 O   0  0  0  0  0  0  0  0  0  0  0  0
    3.4040   -1.3700   -1.6320 C   0  0  0  0  0  0  0  0  0  0  0  0
    2.8350   -2.4430   -1.8610 O   0  0  0  0  0  0  0  0  0  0  0  0
    3.8890   -0.5340   -2.7750 C   0  0  0  0  0  0  0  0  0  0  0  0
    4.5110    0.7270   -2.2670 C   0  0  0  0  0  0  0  0  0  0  0  0
    4.0830    1.9540   -2.5680 C   0  0  0  0  0  0  0  0  0  0  0  0
    4.9540    2.9010   -1.8760 C   0  0  0  0  0  0  0  0  0  0  0  0
    4.8320    4.1520   -1.9400 O   0  0  0  0  0  0  0  0  0  0  0  0
    5.9340    2.1870   -1.1380 N   0  0  0  0  0  0  0  0  0  0  0  0
    6.9650    2.7880   -0.3290 C   0  0  0  0  0  0  0  0  0  0  0  0
    5.6630    0.8170   -1.3790 C   0  0  0  0  0  0  0  0  0  0  0  0
    6.3450   -0.1140   -0.8760 O   0  0  0  0  0  0  0  0  0  0  0  0
    3.8290   -2.6280    1.4610 C   0  0  0  0  0  0  0  0  0  0  0  0
    5.0760   -3.1990    1.2870 C   0  0  0  0  0  0  0  0  0  0  0  0
  1  2  1  0
  2  3  1  0
  3  4  2  0
  3 41  1  0
  4  5  1  0
  5  6  2  0
  6  7  1  0
  6 40  1  0
  7  8  1  0
  8  9  1  0
  8 27  2  0
  9 10  2  0
  9 11  1  0
 11 12  1  0
 12 13  1  1
 12 14  1  0
 14 15  1  1
 14 16  1  0
 16 17  1  6
 16 26  1  0
 17 18  1  0
 18 19  1  0
 19 20  1  6
 19 23  1  0
 20 21  1  0
 21 22  2  0
 23 24  1  1
 23 26  1  0
 24 25  1  0
 27 28  1  0
 27 40  1  0
 28 29  1  0
 29 30  2  0
 29 31  1  0
 31 32  1  0
 32 33  2  0
 32 38  1  0
 33 34  1  0
 34 35  2  0
 34 36  1  0
 36 37  1  0
 36 38  1  0
 38 39  2  0
 40 41  2  0
M  CHG  1  25   1
M  END
