
     RDKit          3D

 41 44  0  0  0  0  0  0  0  0999 V2000
    4.4300   -1.7080   -2.2940 C   0  0  0  0  0  0  0  0  0  0  0  0
    3.8460   -0.8310   -1.2250 C   0  0  0  0  0  0  0  0  0  0  0  0
    4.4810    0.1270   -0.5520 C   0  0  0  0  0  0  0  0  0  0  0  0
    5.9020    0.4740   -0.7700 C   0  0  0  0  0  0  0  0  0  0  0  0
    6.5220    1.4120   -0.1090 C   0  0  0  0  0  0  0  0  0  0  0  0
    7.9310    1.6850   -0.3930 C   0  0  0  0  0  0  0  0  0  0  0  0
    8.5020    2.6050    0.2670 O   0  0  0  0  0  0  0  0  0  0  0  0
    8.6280    0.8930   -1.4220 C   0  0  0  0  0  0  0  0  0  0  0  0
   10.3580    1.2960   -1.5330 S   0  0  0  0  0  0  0  0  0  0  0  0
   11.3870    0.7470   -0.1990 C   0  0  1  0  0  0  0  0  0  0  0  0
   12.8150    1.2690   -0.3580 C   0  0  0  0  0  0  0  0  0  0  0  0
   10.9300    1.1010    1.1930 C   0  0  0  0  0  0  0  0  0  0  0  0
   11.9120    0.2080    1.9960 C   0  0  0  0  0  0  0  0  0  0  0  0
   11.9340   -0.9850    1.2170 O   0  0  0  0  0  0  0  0  0  0  0  0
   11.4400   -0.7490   -0.0700 C   0  0  0  0  0  0  0  0  0  0  0  0
   11.1330   -1.6450   -0.8730 O   0  0  0  0  0  0  0  0  0  0  0  0
    3.5510    0.7360    0.3890 C   0  0  0  0  0  0  0  0  0  0  0  0
    3.7730    1.6790    1.2070 O   0  0  0  0  0  0  0  0  0  0  0  0
    2.2890    0.0690    0.2360 N   0  0  0  0  0  0  0  0  0  0  0  0
    1.0220    0.0250    0.6800 N   0  0  0  0  0  0  0  0  0  0  0  0
    0.3540   -0.9270    0.0250 C   0  0  0  0  0  0  0  0  0  0  0  0
   -1.0750   -1.3360    0.1760 C   0  0  0  0  0  0  0  0  0  0  0  0
   -1.7490   -0.7180    1.0180 O   0  0  0  0  0  0  0  0  0  0  0  0
   -1.6290   -2.3060   -0.5380 O   0  0  0  0  0  0  0  0  0  0  0  0
   -2.8660   -2.8540   -0.5890 C   0  0  0  0  0  0  0  0  0  0  0  0
   -3.9590   -1.9200   -0.9070 C   0  0  0  0  0  0  0  0  0  0  0  0
   -4.2960   -0.8930   -0.0840 O   0  0  0  0  0  0  0  0  0  0  0  0
   -4.9310   -1.3190    1.0850 C   0  0  1  0  0  0  0  0  0  0  0  0
   -4.5930   -0.4730    2.2520 C   0  0  0  0  0  0  0  0  0  0  0  0
   -4.6560    0.9750    1.7690 C   0  0  0  0  0  0  0  0  0  0  0  0
   -5.3000    1.0990    0.5730 O   0  0  0  0  0  0  0  0  0  0  0  0
   -6.5250    0.4520    0.4600 C   0  0  2  0  0  0  0  0  0  0  0  0
   -7.5720    1.2810    1.0880 C   0  0  0  0  0  0  0  0  0  0  0  0
   -8.8980    0.7780    1.0740 N   0  0  0  0  0  0  0  0  0  0  0  0
   -9.5810    0.7570   -0.1770 C   0  0  1  0  0  0  0  0  0  0  0  0
   -9.4370   -0.5660   -0.9080 C   0  0  0  0  0  0  0  0  0  0  0  0
  -11.0830    0.8740    0.1430 C   0  0  0  0  0  0  0  0  0  0  0  0
   -9.2690    1.9200   -1.0850 C   0  0  0  0  0  0  0  0  0  0  0  0
   -6.4740   -0.9720    0.8600 C   0  0  0  0  0  0  0  0  0  0  0  0
    1.2480   -1.4910   -0.8590 C   0  0  0  0  0  0  0  0  0  0  0  0
    2.4820   -0.8490   -0.7180 C   0  0  0  0  0  0  0  0  0  0  0  0
  1  2  1  0
  2  3  2  0
  2 41  1  0
  3  4  1  0
  3 17  1  0
  4  5  2  3
  5  6  1  0
  6  7  2  0
  6  8  1  0
  8  9  1  0
  9 10  1  0
 10 11  1  6
 10 12  1  0
 10 15  1  0
 12 13  1  0
 13 14  1  0
 14 15  1  0
 15 16  2  0
 17 18  2  0
 17 19  1  0
 19 20  1  0
 19 41  1  0
 20 21  2  0
 21 22  1  0
 21 40  1  0
 22 23  2  0
 22 24  1  0
 24 25  1  0
 25 26  1  0
 26 27  1  0
 28 27  1  6
 28 29  1  0
 28 39  1  0
 29 30  1  0
 30 31  1  0
 31 32  1  0
 32 33  1  1
 32 39  1  0
 33 34  1  0
 34 35  1  0
 35 36  1  6
 35 37  1  0
 35 38  1  0
 40 41  2  0
M  CHG  1  34   1
M  END
