
     RDKit          3D

 25 28  0  0  0  0  0  0  0  0999 V2000
   -0.7400    0.4960   -1.3510 O   0  0  0  0  0  0  0  0  0  0  0  0
   -0.8660    0.9070   -0.1830 C   0  0  0  0  0  0  0  0  0  0  0  0
    0.3110    1.4640    0.4430 N   0  0  0  0  0  0  0  0  0  0  0  0
    1.4830    1.5110   -0.2610 O   0  0  0  0  0  0  0  0  0  0  0  0
    2.6290    0.8480    0.0340 C   0  0  0  0  0  0  0  0  0  0  0  0
    2.6020   -0.2080    0.9120 C   0  0  0  0  0  0  0  0  0  0  0  0
    3.7470   -0.9160    1.2440 C   0  0  0  0  0  0  0  0  0  0  0  0
    4.9650   -0.5610    0.6840 C   0  0  0  0  0  0  0  0  0  0  0  0
    6.1090   -1.2570    1.0060 C   0  0  0  0  0  0  0  0  0  0  0  0
    7.2910   -0.8790    0.4350 C   0  0  0  0  0  0  0  0  0  0  0  0
    7.3390    0.1900   -0.4580 C   0  0  0  0  0  0  0  0  0  0  0  0
    8.8580    0.6570   -1.1770 Cl  0  0  0  0  0  0  0  0  0  0  0  0
    6.1770    0.8710   -0.7650 C   0  0  0  0  0  0  0  0  0  0  0  0
    4.9680    0.5040   -0.1960 C   0  0  0  0  0  0  0  0  0  0  0  0
    3.8260    1.2130   -0.5300 C   0  0  0  0  0  0  0  0  0  0  0  0
   -2.0990    0.8190    0.4580 N   0  0  0  0  0  0  0  0  0  0  0  0
   -3.3160    0.3040   -0.0300 C   0  0  0  0  0  0  0  0  0  0  0  0
   -3.4870   -0.2120   -1.2800 C   0  0  0  0  0  0  0  0  0  0  0  0
   -4.7380   -0.7100   -1.7000 C   0  0  0  0  0  0  0  0  0  0  0  0
   -5.8290   -0.6960   -0.8700 C   0  0  0  0  0  0  0  0  0  0  0  0
   -7.1040   -1.1130   -1.0530 N   0  0  0  0  0  0  0  0  0  0  0  0
   -7.7490   -0.8560    0.0980 C   0  0  0  0  0  0  0  0  0  0  0  0
   -6.8930   -0.2830    1.0030 C   0  0  0  0  0  0  0  0  0  0  0  0
   -5.6540   -0.1740    0.3940 C   0  0  0  0  0  0  0  0  0  0  0  0
   -4.4310    0.3190    0.8180 C   0  0  0  0  0  0  0  0  0  0  0  0
  1  2  2  0
  2  3  1  0
  2 16  1  0
  3  4  1  0
  4  5  1  0
  5  6  2  0
  5 15  1  0
  6  7  1  0
  7  8  2  0
  8  9  1  0
  8 14  1  0
  9 10  2  0
 10 11  1  0
 11 12  1  0
 11 13  2  0
 13 14  1  0
 14 15  2  0
 16 17  1  0
 17 18  2  0
 17 25  1  0
 18 19  1  0
 19 20  2  0
 20 21  1  0
 20 24  1  0
 21 22  1  0
 22 23  2  0
 23 24  1  0
 24 25  2  0
M  END
