
     RDKit          3D

 18 20  0  0  0  0  0  0  0  0999 V2000
   -3.4090    1.9560    1.5500 C   0  0  0  0  0  0  0  0  0  0  0  0
   -2.9610    0.5690    1.3710 N   0  0  0  0  0  0  0  0  0  0  0  0
   -3.5800    0.0850    0.1730 C   0  0  0  0  0  0  0  0  0  0  0  0
   -3.0290   -1.2060   -0.3350 C   0  0  0  0  0  0  0  0  0  0  0  0
   -1.5770   -1.2450   -0.3620 N   0  0  1  0  0  0  0  0  0  0  0  0
   -1.0840   -1.7870   -1.5970 C   0  0  0  0  0  0  0  0  0  0  0  0
   -1.1100    0.0970   -0.1120 C   0  0  2  0  0  0  0  0  0  0  0  0
    0.3380    0.2530   -0.2150 C   0  0  0  0  0  0  0  0  0  0  0  0
    0.8450    1.3380   -0.8980 C   0  0  0  0  0  0  0  0  0  0  0  0
    2.1970    1.5690   -1.0480 C   0  0  0  0  0  0  0  0  0  0  0  0
    3.1040    0.6910   -0.4990 C   0  0  0  0  0  0  0  0  0  0  0  0
    4.4570    0.9100   -0.6410 C   0  0  0  0  0  0  0  0  0  0  0  0
    5.2830    0.0070   -0.0780 N   0  0  0  0  0  0  0  0  0  0  0  0
    4.8510   -1.0660    0.5980 C   0  0  0  0  0  0  0  0  0  0  0  0
    3.5050   -1.3000    0.7490 C   0  0  0  0  0  0  0  0  0  0  0  0
    2.6070   -0.4000    0.1870 C   0  0  0  0  0  0  0  0  0  0  0  0
    1.2550   -0.6300    0.3360 C   0  0  0  0  0  0  0  0  0  0  0  0
   -1.5300    0.4990    1.2870 C   0  0  0  0  0  0  0  0  0  0  0  0
  1  2  1  0
  2  3  1  0
  2 18  1  0
  3  4  1  0
  4  5  1  0
  5  6  1  6
  5  7  1  0
  7  8  1  1
  7 18  1  0
  8  9  2  0
  8 17  1  0
  9 10  1  0
 10 11  2  0
 11 12  1  0
 11 16  1  0
 12 13  2  0
 13 14  1  0
 14 15  2  0
 15 16  1  0
 16 17  2  0
M  CHG  2   5   1  13   1
M  END
