
     RDKit          3D

 19 21  0  0  0  0  0  0  0  0999 V2000
    4.7680    0.0870    0.1580 C   0  0  0  0  0  0  0  0  0  0  0  0
    3.5110    0.7120    0.7550 C   0  0  1  0  0  0  0  0  0  0  0  0
    3.3400    2.1150    0.2660 C   0  0  0  0  0  0  0  0  0  0  0  0
    2.3760   -0.1300    0.5560 N   0  0  1  0  0  0  0  0  0  0  0  0
    1.3060    0.1260    1.4700 C   0  0  0  0  0  0  0  0  0  0  0  0
    0.2700   -0.9680    1.4310 C   0  0  0  0  0  0  0  0  0  0  0  0
   -0.0650   -1.4810    0.0860 C   0  0  2  0  0  0  0  0  0  0  0  0
    0.9220   -1.1960   -0.9980 C   0  0  1  0  0  0  0  0  0  0  0  0
    0.2630   -0.9850   -2.3600 C   0  0  0  0  0  0  0  0  0  0  0  0
   -0.6540    0.1870   -2.2500 C   0  0  0  0  0  0  0  0  0  0  0  0
   -1.4310    0.2070   -0.9460 C   0  0  0  0  0  0  0  0  0  0  0  0
   -1.3810   -1.1310   -0.4030 N   0  0  2  0  0  0  0  0  0  0  0  0
   -2.4580   -1.4700    0.4560 C   0  0  0  0  0  0  0  0  0  0  0  0
   -3.4260   -0.3190    0.5640 C   0  0  0  0  0  0  0  0  0  0  0  0
   -4.7030   -0.2800    0.2460 C   0  0  0  0  0  0  0  0  0  0  0  0
   -5.2140    1.0670    0.5330 C   0  0  0  0  0  0  0  0  0  0  0  0
   -4.0400    1.7740    1.0580 C   0  0  0  0  0  0  0  0  0  0  0  0
   -3.0460    0.9540    1.0590 N   0  0  0  0  0  0  0  0  0  0  0  0
    1.7850    0.0050   -0.7720 C   0  0  0  0  0  0  0  0  0  0  0  0
  2  1  1  6
  2  3  1  0
  2  4  1  0
  4  5  1  1
  4 19  1  0
  5  6  1  0
  7  6  1  1
  7  8  1  0
  7 12  1  0
  8  9  1  6
  8 19  1  0
  9 10  1  0
 10 11  1  0
 11 12  1  0
 12 13  1  1
 13 14  1  0
 14 15  2  0
 14 18  1  0
 15 16  1  0
 16 17  1  0
 17 18  2  0
M  CHG  2   4   1  12   1
M  END
