
     RDKit          3D

 19 21  0  0  0  0  0  0  0  0999 V2000
   -3.6190    1.4350   -2.6600 C   0  0  0  0  0  0  0  0  0  0  0  0
   -2.7160    0.4490   -1.9730 C   0  0  0  0  0  0  0  0  0  0  0  0
   -2.7410    0.3640   -0.6600 C   0  0  0  0  0  0  0  0  0  0  0  0
   -3.6080    1.1780    0.2280 C   0  0  0  0  0  0  0  0  0  0  0  0
   -3.5030    0.4940    1.4990 N   0  0  0  0  0  0  0  0  0  0  0  0
   -2.5520   -0.3510    1.4780 C   0  0  0  0  0  0  0  0  0  0  0  0
   -2.2340   -1.1860    2.6910 C   0  0  0  0  0  0  0  0  0  0  0  0
   -1.9740   -0.5180    0.1920 N   0  0  0  0  0  0  0  0  0  0  0  0
   -0.8500   -1.2360   -0.2970 C   0  0  0  0  0  0  0  0  0  0  0  0
    0.5250   -0.6710   -0.1190 C   0  0  2  0  0  0  0  0  0  0  0  0
    0.8270   -0.4200    1.3030 C   0  0  0  0  0  0  0  0  0  0  0  0
    1.7360    0.7850    1.5240 C   0  0  0  0  0  0  0  0  0  0  0  0
    3.1470    0.3090    1.5630 C   0  0  0  0  0  0  0  0  0  0  0  0
    3.7970    0.6240    0.2560 C   0  0  0  0  0  0  0  0  0  0  0  0
    3.1420   -0.0050   -0.9010 N   0  0  2  0  0  0  0  0  0  0  0  0
    2.0950    0.7970   -1.4580 C   0  0  0  0  0  0  0  0  0  0  0  0
    0.7050    0.5100   -1.0440 C   0  0  0  0  0  0  0  0  0  0  0  0
    2.8590   -1.3850   -0.7290 C   0  0  0  0  0  0  0  0  0  0  0  0
    1.4460   -1.7760   -0.6910 C   0  0  0  0  0  0  0  0  0  0  0  0
  1  2  1  0
  2  3  2  3
  3  4  1  0
  3  8  1  0
  4  5  1  0
  5  6  2  0
  6  7  1  0
  6  8  1  0
  8  9  1  0
 10  9  1  1
 10 11  1  0
 10 17  1  0
 10 19  1  0
 11 12  1  0
 12 13  1  0
 13 14  1  0
 15 14  1  1
 15 16  1  0
 15 18  1  0
 16 17  1  0
 18 19  1  0
M  CHG  2   5   1  15   1
M  END
