
     RDKit          3D

 18 19  0  0  0  0  0  0  0  0999 V2000
   -5.5070    0.1950    0.3660 N   0  0  0  0  0  0  0  0  0  0  0  0
   -4.5890   -0.8600    0.5370 C   0  0  0  0  0  0  0  0  0  0  0  0
   -4.9790   -2.0210    0.7990 O   0  0  0  0  0  0  0  0  0  0  0  0
   -3.1530   -0.5900    0.4060 C   0  0  0  0  0  0  0  0  0  0  0  0
   -2.3550   -1.6320    0.5810 C   0  0  0  0  0  0  0  0  0  0  0  0
   -0.9480   -1.6660    0.5140 N   0  0  0  0  0  0  0  0  0  0  0  0
   -0.0830   -0.6960   -0.1020 C   0  0  0  0  0  0  0  0  0  0  0  0
    1.0480   -1.1400   -0.5090 N   0  0  0  0  0  0  0  0  0  0  0  0
    1.9550   -0.2470   -1.1260 C   0  0  0  0  0  0  0  0  0  0  0  0
    1.6930    0.1810   -2.2810 O   0  0  0  0  0  0  0  0  0  0  0  0
    3.1530    0.1470   -0.4140 C   0  0  0  0  0  0  0  0  0  0  0  0
    4.0680    0.9710   -0.8870 C   0  0  0  0  0  0  0  0  0  0  0  0
    5.0980    1.1160    0.1010 N   0  0  0  0  0  0  0  0  0  0  0  0
    4.9220   -0.0710    0.9490 C   0  0  0  0  0  0  0  0  0  0  0  0
    3.5250   -0.2670    0.8480 O   0  0  0  0  0  0  0  0  0  0  0  0
   -0.3300    0.6840   -0.3120 N   0  0  0  0  0  0  0  0  0  0  0  0
   -1.6000    1.3290   -0.2020 C   0  0  0  0  0  0  0  0  0  0  0  0
   -2.7790    0.7820    0.1010 C   0  0  0  0  0  0  0  0  0  0  0  0
  1  2  1  0
  2  3  2  0
  2  4  1  0
  4  5  2  0
  4 18  1  0
  5  6  1  0
  6  7  1  0
  7  8  2  3
  7 16  1  0
  8  9  1  0
  9 10  2  0
  9 11  1  0
 11 12  2  0
 11 15  1  0
 12 13  1  0
 13 14  1  0
 14 15  1  0
 16 17  1  0
 17 18  2  0
M  END
