
     RDKit          3D

 19 20  0  0  0  0  0  0  0  0999 V2000
    4.1600    1.0710    2.4590 O   0  0  0  0  0  0  0  0  0  0  0  0
    3.4760    1.2970    1.4200 C   0  0  0  0  0  0  0  0  0  0  0  0
    3.7300    2.4920    0.6970 N   0  0  0  0  0  0  0  0  0  0  0  0
    2.9630    2.7250   -0.4500 N   0  0  0  0  0  0  0  0  0  0  0  0
    1.9740    1.7790   -0.8470 C   0  0  0  0  0  0  0  0  0  0  0  0
    1.3250    2.0760   -1.9020 O   0  0  0  0  0  0  0  0  0  0  0  0
    1.7280    0.5860   -0.1140 N   0  0  0  0  0  0  0  0  0  0  0  0
    0.7060   -0.3330   -0.5740 C   0  0  1  0  0  0  0  0  0  0  0  0
    1.2500   -1.6990   -0.8900 C   0  0  0  0  0  0  0  0  0  0  0  0
    0.3070   -2.7760   -0.3370 C   0  0  0  0  0  0  0  0  0  0  0  0
   -1.0790   -2.3910   -0.8160 C   0  0  0  0  0  0  0  0  0  0  0  0
   -1.5360   -1.2430    0.0750 C   0  0  2  0  0  0  0  0  0  0  0  0
   -2.5450   -0.5000   -0.6500 N   0  0  0  0  0  0  0  0  0  0  0  0
   -3.1340    0.6300   -0.0260 C   0  0  0  0  0  0  0  0  0  0  0  0
   -3.2320    1.8210   -0.7110 O   0  0  0  0  0  0  0  0  0  0  0  0
   -3.5950    0.5460    1.2260 C   0  0  0  0  0  0  0  0  0  0  0  0
   -4.1660    1.6440    1.8280 O   0  0  0  0  0  0  0  0  0  0  0  0
   -0.3730   -0.3720    0.4840 C   0  0  0  0  0  0  0  0  0  0  0  0
    2.4870    0.3450    1.0300 N   0  0  0  0  0  0  0  0  0  0  0  0
  1  2  2  0
  2  3  1  0
  2 19  1  0
  3  4  1  0
  4  5  1  0
  5  6  2  0
  5  7  1  0
  8  7  1  1
  7 19  1  0
  8  9  1  0
  8 18  1  0
  9 10  1  0
 10 11  1  0
 11 12  1  0
 12 13  1  6
 12 18  1  0
 13 14  1  0
 14 15  1  0
 14 16  2  3
 16 17  1  0
M  END
