
     RDKit          3D

 19 20  0  0  0  0  0  0  0  0999 V2000
   -4.8340    1.9120   -0.8030 N   0  0  0  0  0  0  0  0  0  0  0  0
   -3.7550    1.0800   -0.3580 C   0  0  0  0  0  0  0  0  0  0  0  0
   -3.7440    0.6030    0.8200 O   0  0  0  0  0  0  0  0  0  0  0  0
   -2.6570    0.7440   -1.1800 N   0  0  0  0  0  0  0  0  0  0  0  0
   -1.6220   -0.0840   -0.6770 C   0  0  0  0  0  0  0  0  0  0  0  0
   -0.3850    0.4120   -0.6410 C   0  0  0  0  0  0  0  0  0  0  0  0
    0.8190   -0.1990   -0.1910 N   0  0  0  0  0  0  0  0  0  0  0  0
    1.9190    0.6830    0.0710 C   0  0  1  0  0  0  0  0  0  0  0  0
    2.3450    0.5100    1.5250 C   0  0  0  0  0  0  0  0  0  0  0  0
    3.7660    0.9400    1.4560 C   0  0  0  0  0  0  0  0  0  0  0  0
    4.4290    1.6220    2.2780 O   0  0  0  0  0  0  0  0  0  0  0  0
    4.2680    0.4050    0.2140 N   0  0  0  0  0  0  0  0  0  0  0  0
    3.1450    0.3020   -0.6530 C   0  0  0  0  0  0  0  0  0  0  0  0
    3.2000   -0.0610   -1.8540 O   0  0  0  0  0  0  0  0  0  0  0  0
    1.0800   -1.5770    0.0370 C   0  0  0  0  0  0  0  0  0  0  0  0
    2.2740   -1.9620   -0.0530 O   0  0  0  0  0  0  0  0  0  0  0  0
    0.0790   -2.5620    0.3610 N   0  0  0  0  0  0  0  0  0  0  0  0
   -1.3450   -2.4650    0.1920 C   0  0  0  0  0  0  0  0  0  0  0  0
   -2.0290   -1.4130   -0.2450 C   0  0  0  0  0  0  0  0  0  0  0  0
  1  2  1  0
  2  3  2  0
  2  4  1  0
  4  5  1  0
  5  6  2  0
  5 19  1  0
  6  7  1  0
  8  7  1  6
  7 15  1  0
  8  9  1  0
  8 13  1  0
  9 10  1  0
 10 11  2  0
 10 12  1  0
 12 13  1  0
 13 14  2  0
 15 16  2  0
 15 17  1  0
 17 18  1  0
 18 19  2  0
M  END
