
     RDKit          3D

 18 19  0  0  0  0  0  0  0  0999 V2000
    2.7440    2.3400   -0.1840 C   0  0  0  0  0  0  0  0  0  0  0  0
    2.8790    1.1810   -1.1620 C   0  0  0  0  0  0  0  0  0  0  0  0
    2.7140   -0.0650   -0.4110 C   0  0  0  0  0  0  0  0  0  0  0  0
    3.6970   -0.8980   -0.0250 N   0  0  0  0  0  0  0  0  0  0  0  0
    3.1650   -1.9350    0.6500 C   0  0  0  0  0  0  0  0  0  0  0  0
    3.7470   -2.9210    1.1710 O   0  0  0  0  0  0  0  0  0  0  0  0
    1.8500   -1.7250    0.6710 N   0  0  0  0  0  0  0  0  0  0  0  0
    1.5370   -0.5890    0.0300 C   0  0  0  0  0  0  0  0  0  0  0  0
    0.1740   -0.0940   -0.1180 C   0  0  0  0  0  0  0  0  0  0  0  0
   -0.0990    0.9710   -0.7310 O   0  0  0  0  0  0  0  0  0  0  0  0
   -0.9470   -0.7960    0.4300 N   0  0  0  0  0  0  0  0  0  0  0  0
   -2.2980   -0.3560    0.3150 C   0  0  1  0  0  0  0  0  0  0  0  0
   -2.7750   -0.2240   -1.1090 C   0  0  0  0  0  0  0  0  0  0  0  0
   -3.1890   -1.4110    0.9960 C   0  0  0  0  0  0  0  0  0  0  0  0
   -2.9740   -1.0820    2.3500 O   0  0  0  0  0  0  0  0  0  0  0  0
   -3.0100    0.2900    2.4020 N   0  0  0  0  0  0  0  0  0  0  0  0
   -2.6340    0.8140    1.1430 C   0  0  0  0  0  0  0  0  0  0  0  0
   -2.6030    2.0420    0.8100 N   0  0  0  0  0  0  0  0  0  0  0  0
  1  2  1  0
  2  3  1  0
  3  4  1  0
  3  8  2  0
  4  5  1  0
  5  6  2  0
  5  7  1  0
  7  8  1  0
  8  9  1  0
  9 10  2  0
  9 11  1  0
 11 12  1  0
 12 13  1  6
 12 14  1  0
 12 17  1  0
 14 15  1  0
 15 16  1  0
 16 17  1  0
 17 18  2  0
M  END
