
     RDKit          3D

 24 26  0  0  0  0  0  0  0  0999 V2000
    1.5670    3.3080   -0.7710 C   0  0  0  0  0  0  0  0  0  0  0  0
    1.7550    1.8750   -0.3670 C   0  0  0  0  0  0  0  0  0  0  0  0
    0.7630    1.2650    0.3590 C   0  0  0  0  0  0  0  0  0  0  0  0
    0.9010   -0.0500    0.7480 C   0  0  0  0  0  0  0  0  0  0  0  0
   -0.0020   -0.6790    1.4360 O   0  0  0  0  0  0  0  0  0  0  0  0
   -1.1610   -0.8220    2.0770 C   0  0  0  0  0  0  0  0  0  0  0  0
   -2.3380   -0.6850    1.1960 C   0  0  0  0  0  0  0  0  0  0  0  0
   -3.1550   -1.7410    1.1110 C   0  0  0  0  0  0  0  0  0  0  0  0
   -4.3400   -1.7360    0.2850 C   0  0  0  0  0  0  0  0  0  0  0  0
   -5.1490   -2.6920    0.2360 O   0  0  0  0  0  0  0  0  0  0  0  0
   -4.6180   -0.5430   -0.5470 C   0  0  0  0  0  0  0  0  0  0  0  0
   -4.0330    0.7080    0.0310 C   0  0  2  0  0  0  0  0  0  0  0  0
   -4.8800    1.2650    1.1650 C   0  0  0  0  0  0  0  0  0  0  0  0
   -4.0320    1.7540   -1.0890 C   0  0  0  0  0  0  0  0  0  0  0  0
   -2.5930    0.5620    0.4750 C   0  0  0  0  0  0  0  0  0  0  0  0
    2.1000   -0.7390    0.3710 C   0  0  0  0  0  0  0  0  0  0  0  0
    2.1120   -2.0830    0.8350 N   0  0  0  0  0  0  0  0  0  0  0  0
    3.0800   -0.1470   -0.3430 C   0  0  0  0  0  0  0  0  0  0  0  0
    4.2980   -0.8640   -0.7200 C   0  0  0  0  0  0  0  0  0  0  0  0
    5.3060   -0.3200   -1.4300 C   0  0  0  0  0  0  0  0  0  0  0  0
    6.3370   -1.3210   -1.6120 C   0  0  0  0  0  0  0  0  0  0  0  0
    5.8520   -2.5230   -0.9400 C   0  0  0  0  0  0  0  0  0  0  0  0
    4.6550   -2.2310   -0.4250 C   0  0  0  0  0  0  0  0  0  0  0  0
    2.8820    1.1790   -0.7050 C   0  0  0  0  0  0  0  0  0  0  0  0
  1  2  1  0
  2  3  2  0
  2 24  1  0
  3  4  1  0
  4  5  1  0
  4 16  2  0
  5  6  1  0
  6  7  1  0
  7  8  2  0
  7 15  1  0
  8  9  1  0
  9 10  2  0
  9 11  1  0
 11 12  1  0
 12 13  1  1
 12 14  1  0
 12 15  1  0
 16 17  1  0
 16 18  1  0
 18 19  1  0
 18 24  2  0
 19 20  2  0
 19 23  1  0
 20 21  1  0
 21 22  1  0
 22 23  2  0
M  END
