
     RDKit          3D

 23 26  0  0  0  0  0  0  0  0999 V2000
   -6.5030    0.6990   -0.5670 O   0  0  0  0  0  0  0  0  0  0  0  0
   -5.6420   -0.1780   -0.4290 C   0  0  0  0  0  0  0  0  0  0  0  0
   -4.3590    0.0660    0.1700 C   0  0  0  0  0  0  0  0  0  0  0  0
   -3.9590    1.2890    0.6460 C   0  0  0  0  0  0  0  0  0  0  0  0
   -4.7450    2.4170    0.6020 O   0  0  0  0  0  0  0  0  0  0  0  0
   -2.6720    1.3740    1.2060 C   0  0  0  0  0  0  0  0  0  0  0  0
   -1.8510    0.2800    1.2720 C   0  0  0  0  0  0  0  0  0  0  0  0
   -0.5090    0.4960    1.8630 C   0  0  0  0  0  0  0  0  0  0  0  0
    0.5780    0.6420    0.9000 C   0  0  0  0  0  0  0  0  0  0  0  0
    0.7630    1.8530    0.2480 C   0  0  0  0  0  0  0  0  0  0  0  0
    1.7980    2.0530   -0.6740 C   0  0  0  0  0  0  0  0  0  0  0  0
    2.6530    1.0090   -0.9360 C   0  0  0  0  0  0  0  0  0  0  0  0
    2.4890   -0.1980   -0.3030 C   0  0  0  0  0  0  0  0  0  0  0  0
    1.4490   -0.3810    0.6170 C   0  0  0  0  0  0  0  0  0  0  0  0
    3.4350   -1.2870   -0.6190 C   0  0  0  0  0  0  0  0  0  0  0  0
    4.8220   -0.7180   -0.5410 C   0  0  0  0  0  0  0  0  0  0  0  0
    5.0080    0.5990   -1.2160 C   0  0  0  0  0  0  0  0  0  0  0  0
    3.7700    1.1380   -1.8960 C   0  0  0  0  0  0  0  0  0  0  0  0
   -2.2440   -0.9500    0.7980 C   0  0  0  0  0  0  0  0  0  0  0  0
   -1.6580   -2.1630    0.7430 N   0  0  0  0  0  0  0  0  0  0  0  0
   -2.4910   -3.0640    0.1700 C   0  0  0  0  0  0  0  0  0  0  0  0
   -3.6330   -2.3610   -0.1340 C   0  0  0  0  0  0  0  0  0  0  0  0
   -3.4870   -1.0420    0.2550 C   0  0  0  0  0  0  0  0  0  0  0  0
  1  2  2  0
  2  3  1  0
  3  4  2  0
  3 23  1  0
  4  5  1  0
  4  6  1  0
  6  7  2  0
  7  8  1  0
  7 19  1  0
  8  9  1  0
  9 10  2  0
  9 14  1  0
 10 11  1  0
 11 12  2  0
 12 13  1  0
 12 18  1  0
 13 14  2  0
 13 15  1  0
 15 16  1  0
 16 17  1  0
 17 18  1  0
 19 20  1  0
 19 23  2  0
 20 21  1  0
 21 22  2  0
 22 23  1  0
M  END
