
     RDKit          3D

 24 27  0  0  0  0  0  0  0  0999 V2000
    5.9370   -1.3710   -0.9990 C   0  0  0  0  0  0  0  0  0  0  0  0
    5.7490    0.1120   -1.0830 C   0  0  0  0  0  0  0  0  0  0  0  0
    4.3330    0.5150   -1.3340 C   0  0  0  0  0  0  0  0  0  0  0  0
    3.7530    0.9550   -2.5060 C   0  0  0  0  0  0  0  0  0  0  0  0
    2.4900    1.2020   -2.2870 O   0  0  0  0  0  0  0  0  0  0  0  0
    2.1520    0.9640   -1.0440 C   0  0  0  0  0  0  0  0  0  0  0  0
    0.9360    1.0800   -0.3570 C   0  0  0  0  0  0  0  0  0  0  0  0
    0.8390    0.7600    0.9790 C   0  0  0  0  0  0  0  0  0  0  0  0
   -0.4090    0.8610    1.7520 C   0  0  1  0  0  0  0  0  0  0  0  0
   -0.7900    2.1950    2.0140 O   0  0  0  0  0  0  0  0  0  0  0  0
   -1.5680    0.1650    1.1380 C   0  0  0  0  0  0  0  0  0  0  0  0
   -1.8890   -1.1330    1.5240 C   0  0  0  0  0  0  0  0  0  0  0  0
   -2.9820   -1.7850    0.9570 C   0  0  0  0  0  0  0  0  0  0  0  0
   -3.7730   -1.1830    0.0110 C   0  0  0  0  0  0  0  0  0  0  0  0
   -3.4650    0.1060   -0.3810 C   0  0  0  0  0  0  0  0  0  0  0  0
   -2.3760    0.7470    0.1880 C   0  0  0  0  0  0  0  0  0  0  0  0
   -4.2850    0.8120   -1.4020 C   0  0  0  0  0  0  0  0  0  0  0  0
   -5.5260    0.0950   -1.8010 C   0  0  0  0  0  0  0  0  0  0  0  0
   -5.9660   -0.7860   -0.7570 N   0  0  0  0  0  0  0  0  0  0  0  0
   -4.9680   -1.8440   -0.6190 C   0  0  0  0  0  0  0  0  0  0  0  0
    2.0120    0.3180    1.6040 C   0  0  0  0  0  0  0  0  0  0  0  0
    1.9240   -0.0280    3.0420 C   0  0  0  0  0  0  0  0  0  0  0  0
    3.2060    0.2060    0.9230 C   0  0  0  0  0  0  0  0  0  0  0  0
    3.2980    0.5270   -0.4150 C   0  0  0  0  0  0  0  0  0  0  0  0
  1  2  1  0
  2  3  1  0
  3  4  2  0
  3 24  1  0
  4  5  1  0
  5  6  1  0
  6  7  2  0
  6 24  1  0
  7  8  1  0
  8  9  1  0
  8 21  2  0
  9 10  1  6
  9 11  1  0
 11 12  2  0
 11 16  1  0
 12 13  1  0
 13 14  2  0
 14 15  1  0
 14 20  1  0
 15 16  2  0
 15 17  1  0
 17 18  1  0
 18 19  1  0
 19 20  1  0
 21 22  1  0
 21 23  1  0
 23 24  2  0
M  END
