
     RDKit          3D

 24 27  0  0  0  0  0  0  0  0999 V2000
   -4.5570   -3.7270    0.1080 O   0  0  0  0  0  0  0  0  0  0  0  0
   -3.3790   -3.2670   -0.0060 C   0  0  0  0  0  0  0  0  0  0  0  0
   -2.3980   -4.1580   -0.3270 O   0  0  0  0  0  0  0  0  0  0  0  0
   -3.2150   -1.8400    0.2180 C   0  0  0  0  0  0  0  0  0  0  0  0
   -4.2880   -1.0180    0.5380 C   0  0  0  0  0  0  0  0  0  0  0  0
   -4.1250    0.3350    0.7490 C   0  0  0  0  0  0  0  0  0  0  0  0
   -2.8750    0.9090    0.6440 C   0  0  0  0  0  0  0  0  0  0  0  0
   -1.8060    0.0860    0.3250 C   0  0  0  0  0  0  0  0  0  0  0  0
   -0.4600    0.3460    0.1500 C   0  0  0  0  0  0  0  0  0  0  0  0
    0.1770    1.6500    0.2740 C   0  0  0  0  0  0  0  0  0  0  0  0
   -0.1480    2.7210   -0.5340 C   0  0  0  0  0  0  0  0  0  0  0  0
    0.4640    3.9480   -0.4030 C   0  0  0  0  0  0  0  0  0  0  0  0
    1.4250    4.1170    0.5570 C   0  0  0  0  0  0  0  0  0  0  0  0
    1.7900    3.0790    1.3940 C   0  0  0  0  0  0  0  0  0  0  0  0
    1.1510    1.8640    1.2290 C   0  0  0  0  0  0  0  0  0  0  0  0
    0.1980   -0.8040   -0.1600 C   0  0  0  0  0  0  0  0  0  0  0  0
    1.6270   -0.9330   -0.4170 C   0  0  0  0  0  0  0  0  0  0  0  0
    2.4630   -1.7200    0.3570 C   0  0  0  0  0  0  0  0  0  0  0  0
    3.8170   -1.8290    0.0970 C   0  0  0  0  0  0  0  0  0  0  0  0
    4.3770   -1.1420   -0.9610 C   0  0  0  0  0  0  0  0  0  0  0  0
    3.5730   -0.3600   -1.7380 C   0  0  0  0  0  0  0  0  0  0  0  0
    2.2140   -0.2580   -1.4670 C   0  0  0  0  0  0  0  0  0  0  0  0
   -0.7470   -1.7920   -0.1790 N   0  0  0  0  0  0  0  0  0  0  0  0
   -1.9590   -1.2890    0.1080 C   0  0  0  0  0  0  0  0  0  0  0  0
  1  2  2  0
  2  3  1  0
  2  4  1  0
  4  5  2  0
  4 24  1  0
  5  6  1  0
  6  7  2  0
  7  8  1  0
  8  9  1  0
  8 24  2  0
  9 10  1  0
  9 16  2  0
 10 11  2  0
 10 15  1  0
 11 12  1  0
 12 13  2  0
 13 14  1  0
 14 15  2  0
 16 17  1  0
 16 23  1  0
 17 18  2  0
 17 22  1  0
 18 19  1  0
 19 20  2  0
 20 21  1  0
 21 22  2  0
 23 24  1  0
M  END
