
     RDKit          3D

 27 28  0  0  0  0  0  0  0  0999 V2000
   -4.3900   -2.3560   -0.3810 O   0  0  0  0  0  0  0  0  0  0  0  0
   -3.1820   -2.6350   -0.6700 C   0  0  0  0  0  0  0  0  0  0  0  0
   -2.8110   -3.9690   -0.5650 O   0  0  0  0  0  0  0  0  0  0  0  0
   -2.2110   -1.5570   -1.1050 C   0  0  0  0  0  0  0  0  0  0  0  0
   -2.2090   -0.5610   -0.0180 C   0  0  1  0  0  0  0  0  0  0  0  0
   -3.5400   -0.0810    0.1020 O   0  0  0  0  0  0  0  0  0  0  0  0
   -1.9760   -1.2400    1.3090 C   0  0  0  0  0  0  0  0  0  0  0  0
   -0.7640   -1.8300    1.4700 O   0  0  0  0  0  0  0  0  0  0  0  0
   -1.2850    0.6580   -0.2380 C   0  0  2  0  0  0  0  0  0  0  0  0
   -2.0410    1.4200   -1.3550 C   0  0  0  0  0  0  0  0  0  0  0  0
   -1.4200    2.7050   -1.7750 C   0  0  0  0  0  0  0  0  0  0  0  0
   -1.3920    3.6470   -0.7440 O   0  0  0  0  0  0  0  0  0  0  0  0
    0.0780    0.2410   -0.6940 C   0  0  0  0  0  0  0  0  0  0  0  0
    1.2020    0.6320    0.2280 C   0  0  2  0  0  0  0  0  0  0  0  0
    1.7270    1.9830   -0.3680 C   0  0  0  0  0  0  0  0  0  0  0  0
    2.8640    2.4230    0.3060 O   0  0  0  0  0  0  0  0  0  0  0  0
    2.4190   -0.2130    0.1920 C   0  0  1  0  0  0  0  0  0  0  0  0
    3.3290    0.2350    1.3200 C   0  0  0  0  0  0  0  0  0  0  0  0
    2.9880    0.9390    2.2810 O   0  0  0  0  0  0  0  0  0  0  0  0
    4.6390   -0.2730    1.1230 O   0  0  0  0  0  0  0  0  0  0  0  0
    4.6600   -1.3940    0.2090 C   0  0  0  0  0  0  0  0  0  0  0  0
    3.6420   -2.2300    0.5720 O   0  0  0  0  0  0  0  0  0  0  0  0
    2.3400   -1.6820    0.3780 C   0  0  2  0  0  0  0  0  0  0  0  0
    1.8950   -2.2810   -0.7920 O   0  0  0  0  0  0  0  0  0  0  0  0
    0.8150    0.7940    1.5070 O   0  0  0  0  0  0  0  0  0  0  0  0
   -0.3250    1.5210    1.7170 C   0  0  0  0  0  0  0  0  0  0  0  0
   -1.3650    1.4180    0.8680 O   0  0  0  0  0  0  0  0  0  0  0  0
  1  2  2  0
  2  3  1  0
  2  4  1  0
  4  5  1  0
  5  6  1  1
  5  7  1  0
  5  9  1  0
  7  8  1  0
  9 10  1  6
  9 13  1  0
  9 27  1  0
 10 11  1  0
 11 12  1  0
 13 14  1  0
 14 15  1  6
 14 17  1  0
 14 25  1  0
 15 16  1  0
 17 18  1  1
 17 23  1  0
 18 19  2  0
 18 20  1  0
 20 21  1  0
 21 22  1  0
 22 23  1  0
 23 24  1  6
 25 26  1  0
 26 27  1  0
M  END
