
     RDKit          3D

 36 39  0  0  0  0  0  0  0  0999 V2000
    4.0380    0.9070    1.0440 C   0  0  0  0  0  0  0  0  0  0  0  0
    3.7160   -0.0970    0.0230 C   0  0  0  0  0  0  0  0  0  0  0  0
    2.6760   -0.9020    0.0650 C   0  0  0  0  0  0  0  0  0  0  0  0
    1.6670   -0.9110    1.1570 C   0  0  0  0  0  0  0  0  0  0  0  0
    0.3320   -0.5360    0.7140 N   0  0  2  0  0  0  0  0  0  0  0  0
   -0.0900    0.7790    0.9410 C   0  0  0  0  0  0  0  0  0  0  0  0
    0.7030    1.9510    0.6150 C   0  0  0  0  0  0  0  0  0  0  0  0
    1.2440    2.7970    1.5100 C   0  0  0  0  0  0  0  0  0  0  0  0
    1.9660    3.8580    0.8610 C   0  0  0  0  0  0  0  0  0  0  0  0
    2.7110    4.9840    1.0650 N   0  0  0  0  0  0  0  0  0  0  0  0
    3.0980    5.5230   -0.0900 C   0  0  0  0  0  0  0  0  0  0  0  0
    2.5920    4.7270   -1.0860 C   0  0  0  0  0  0  0  0  0  0  0  0
    1.8940    3.7010   -0.4830 C   0  0  0  0  0  0  0  0  0  0  0  0
    1.0720    2.4580   -0.6930 C   0  0  0  0  0  0  0  0  0  0  0  0
    0.7810    1.9500   -1.8070 N   0  0  0  0  0  0  0  0  0  0  0  0
    0.1800    0.9810   -2.4590 N   0  0  0  0  0  0  0  0  0  0  0  0
   -1.1670    1.0090   -2.9100 C   0  0  0  0  0  0  0  0  0  0  0  0
   -1.4280    0.6860   -4.1350 O   0  0  0  0  0  0  0  0  0  0  0  0
   -2.3640    1.3760   -2.1260 C   0  0  0  0  0  0  0  0  0  0  0  0
   -3.0870    0.1540   -1.5330 C   0  0  2  0  0  0  0  0  0  0  0  0
   -3.8080    0.6220   -0.3710 C   0  0  0  0  0  0  0  0  0  0  0  0
   -4.7220    1.7080   -0.4020 N   0  0  0  0  0  0  0  0  0  0  0  0
   -3.6560    0.0790    0.7420 O   0  0  0  0  0  0  0  0  0  0  0  0
   -2.1960   -0.9590   -1.3920 N   0  0  2  0  0  0  0  0  0  0  0  0
   -2.3570   -1.7280   -2.6810 C   0  0  0  0  0  0  0  0  0  0  0  0
   -2.3410   -1.8940   -0.3850 C   0  0  0  0  0  0  0  0  0  0  0  0
   -1.7340   -1.8770    0.9390 C   0  0  0  0  0  0  0  0  0  0  0  0
   -0.6550   -1.3460    1.4440 C   0  0  0  0  0  0  0  0  0  0  0  0
   -0.2340   -1.4620    2.9030 C   0  0  0  0  0  0  0  0  0  0  0  0
   -1.2840   -2.0520    3.7950 C   0  0  0  0  0  0  0  0  0  0  0  0
   -1.7520   -3.3060    3.0160 C   0  0  0  0  0  0  0  0  0  0  0  0
   -2.5930   -2.6870    1.9430 C   0  0  0  0  0  0  0  0  0  0  0  0
    2.5400   -1.8660   -1.0400 C   0  0  0  0  0  0  0  0  0  0  0  0
    3.5780   -1.8290   -2.1530 C   0  0  0  0  0  0  0  0  0  0  0  0
    1.6110   -2.7640   -1.1720 C   0  0  0  0  0  0  0  0  0  0  0  0
    1.5750   -3.8430   -2.5490 Cl  0  0  0  0  0  0  0  0  0  0  0  0
  1  2  1  0
  2  3  2  3
  3  4  1  0
  3 33  1  0
  5  4  1  1
  5  6  1  0
  5 28  1  0
  6  7  1  0
  7  8  2  0
  7 14  1  0
  8  9  1  0
  9 10  1  0
  9 13  2  0
 10 11  1  0
 11 12  2  0
 12 13  1  0
 13 14  1  0
 14 15  2  0
 15 16  1  0
 16 17  1  0
 17 18  2  0
 17 19  1  0
 19 20  1  0
 20 21  1  1
 20 24  1  0
 21 22  1  0
 21 23  2  0
 24 25  1  6
 24 26  1  0
 26 27  1  0
 27 28  2  0
 27 32  1  0
 28 29  1  0
 29 30  1  0
 30 31  1  0
 31 32  1  0
 33 34  1  0
 33 35  2  3
 35 36  1  0
M  CHG  2   5   1  24   1
M  END
