
     RDKit          3D

 36 39  0  0  0  0  0  0  0  0999 V2000
   -2.0370   -1.0460   -2.8960 C   0  0  0  0  0  0  0  0  0  0  0  0
   -1.6690   -0.2120   -1.6400 C   0  0  0  0  0  0  0  0  0  0  0  0
   -1.3360    1.0580   -1.8710 C   0  0  0  0  0  0  0  0  0  0  0  0
   -0.9470    2.1490   -1.0010 C   0  0  0  0  0  0  0  0  0  0  0  0
   -1.9270    2.4680    0.0050 N   0  0  0  0  0  0  0  0  0  0  0  0
   -1.6180    3.4520    0.9650 C   0  0  0  0  0  0  0  0  0  0  0  0
   -2.5210    3.9070    1.7650 O   0  0  0  0  0  0  0  0  0  0  0  0
   -0.2350    3.9640    1.0510 C   0  0  0  0  0  0  0  0  0  0  0  0
    0.7110    3.0340    1.6410 N   0  0  0  0  0  0  0  0  0  0  0  0
    0.0450    1.9330    2.1890 C   0  0  0  0  0  0  0  0  0  0  0  0
    0.5510    0.5630    2.1270 C   0  0  2  0  0  0  0  0  0  0  0  0
   -0.0880   -0.0330    3.2850 O   0  0  0  0  0  0  0  0  0  0  0  0
    1.9860    0.5280    2.6380 C   0  0  0  0  0  0  0  0  0  0  0  0
    2.8370    1.0820    1.6840 N   0  0  0  0  0  0  0  0  0  0  0  0
    2.5650    0.5830    0.4210 N   0  0  0  0  0  0  0  0  0  0  0  0
    3.5130    1.0160   -0.5640 C   0  0  0  0  0  0  0  0  0  0  0  0
    3.0940    1.6190   -1.6940 C   0  0  0  0  0  0  0  0  0  0  0  0
    4.0460    2.0280   -2.6400 C   0  0  0  0  0  0  0  0  0  0  0  0
    5.3770    1.7980   -2.3770 C   0  0  0  0  0  0  0  0  0  0  0  0
    5.7420    1.1770   -1.2010 C   0  0  0  0  0  0  0  0  0  0  0  0
    4.7970    0.8050   -0.3290 N   0  0  0  0  0  0  0  0  0  0  0  0
    1.4470   -0.2630    0.1260 C   0  0  0  0  0  0  0  0  0  0  0  0
    1.5680   -1.0750   -1.0820 C   0  0  0  0  0  0  0  0  0  0  0  0
    2.7220   -2.0760   -1.0060 C   0  0  0  0  0  0  0  0  0  0  0  0
    2.7920   -2.8790   -2.2900 C   0  0  0  0  0  0  0  0  0  0  0  0
    4.1200   -4.0270   -2.1940 Cl  0  0  0  0  0  0  0  0  0  0  0  0
    0.3700   -0.3110    0.9700 C   0  0  0  0  0  0  0  0  0  0  0  0
   -0.6990   -1.2380    0.6350 C   0  0  1  0  0  0  0  0  0  0  0  0
   -1.2580   -1.9620    1.8370 C   0  0  0  0  0  0  0  0  0  0  0  0
   -2.4310   -1.4200    2.5120 C   0  0  0  0  0  0  0  0  0  0  0  0
   -3.5930   -2.2960    2.0600 C   0  0  0  0  0  0  0  0  0  0  0  0
   -3.6660   -2.2360    0.6430 N   0  0  0  0  0  0  0  0  0  0  0  0
   -4.6410   -3.2030    0.0920 C   0  0  0  0  0  0  0  0  0  0  0  0
   -3.0080   -1.4350   -0.3490 C   0  0  0  0  0  0  0  0  0  0  0  0
   -3.7890   -1.0990   -1.5500 C   0  0  0  0  0  0  0  0  0  0  0  0
   -1.7230   -0.9490   -0.3900 C   0  0  0  0  0  0  0  0  0  0  0  0
  1  2  1  0
  2  3  2  0
  2 36  1  0
  3  4  1  0
  4  5  1  0
  5  6  1  0
  6  7  2  0
  6  8  1  0
  8  9  1  0
  9 10  1  0
 10 11  1  0
 11 12  1  1
 11 13  1  0
 11 27  1  0
 13 14  1  0
 14 15  1  0
 15 16  1  0
 15 22  1  0
 16 17  2  0
 16 21  1  0
 17 18  1  0
 18 19  2  0
 19 20  1  0
 20 21  2  0
 22 23  1  0
 22 27  2  0
 23 24  1  0
 24 25  1  0
 25 26  1  0
 27 28  1  0
 28 29  1  1
 28 36  1  0
 29 30  1  0
 30 31  1  0
 31 32  1  0
 32 33  1  0
 32 34  1  0
 34 35  1  0
 34 36  2  0
M  CHG  1   9   1
M  END
