
     RDKit          3D

 35 39  0  0  0  0  0  0  0  0999 V2000
    0.8360    1.4010   -2.0110 C   0  0  0  0  0  0  0  0  0  0  0  0
    1.1470    0.6660   -0.7450 C   0  0  0  0  0  0  0  0  0  0  0  0
    0.2990   -0.3310   -0.3970 C   0  0  0  0  0  0  0  0  0  0  0  0
   -0.8860   -0.6320   -1.3030 C   0  0  1  0  0  0  0  0  0  0  0  0
   -0.8950   -2.0550   -1.7970 C   0  0  0  0  0  0  0  0  0  0  0  0
   -2.4050   -2.2720   -2.0810 C   0  0  1  0  0  0  0  0  0  0  0  0
   -2.6780   -3.7580   -2.1110 C   0  0  0  0  0  0  0  0  0  0  0  0
   -2.9470   -1.6310   -0.8100 C   0  0  0  0  0  0  0  0  0  0  0  0
   -2.1390   -0.4660   -0.6380 N   0  0  0  0  0  0  0  0  0  0  0  0
   -2.9050    0.6750   -1.0470 C   0  0  0  0  0  0  0  0  0  0  0  0
   -4.0170    0.9830   -0.0940 C   0  0  0  0  0  0  0  0  0  0  0  0
   -4.1720    0.2740    0.9940 C   0  0  0  0  0  0  0  0  0  0  0  0
   -5.2540    0.5610    1.9320 C   0  0  0  0  0  0  0  0  0  0  0  0
   -6.0650    1.5410    1.6620 C   0  0  0  0  0  0  0  0  0  0  0  0
   -5.9860    2.3640    0.5180 N   0  0  0  0  0  0  0  0  0  0  0  0
   -4.9350    2.1080   -0.3900 C   0  0  0  0  0  0  0  0  0  0  0  0
    0.3570   -1.0970    0.8170 C   0  0  0  0  0  0  0  0  0  0  0  0
   -0.8400   -1.1960    1.3790 O   0  0  0  0  0  0  0  0  0  0  0  0
    1.3210   -1.7480    1.5490 N   0  0  0  0  0  0  0  0  0  0  0  0
    2.0340   -2.9790    1.4230 C   0  0  0  0  0  0  0  0  0  0  0  0
    1.6510   -3.9070    0.3560 C   0  0  0  0  0  0  0  0  0  0  0  0
    2.0800   -3.7050   -1.0170 C   0  0  0  0  0  0  0  0  0  0  0  0
    2.5090   -2.4560   -1.5190 N   0  0  0  0  0  0  0  0  0  0  0  0
    3.5590   -1.5770   -1.1860 C   0  0  0  0  0  0  0  0  0  0  0  0
    4.4650   -1.4650   -2.1560 O   0  0  0  0  0  0  0  0  0  0  0  0
    3.8640   -0.8040   -0.0760 N   0  0  0  0  0  0  0  0  0  0  0  0
    3.4410    0.4950    0.3760 C   0  0  0  0  0  0  0  0  0  0  0  0
    4.3540    1.2060    1.1850 C   0  0  0  0  0  0  0  0  0  0  0  0
    4.1890    2.4930    1.6120 C   0  0  0  0  0  0  0  0  0  0  0  0
    3.0420    3.1700    1.2300 C   0  0  0  0  0  0  0  0  0  0  0  0
    2.1520    2.5010    0.4530 C   0  0  0  0  0  0  0  0  0  0  0  0
    2.3060    1.1600    0.0050 C   0  0  0  0  0  0  0  0  0  0  0  0
    3.0400    4.4860    1.7560 N   0  0  0  0  0  0  0  0  0  0  0  0
    4.3120    4.7060    2.3520 C   0  0  0  0  0  0  0  0  0  0  0  0
    5.0260    3.4060    2.4600 C   0  0  0  0  0  0  0  0  0  0  0  0
  1  2  1  0
  2  3  2  0
  2 32  1  0
  4  3  1  1
  3 17  1  0
  4  5  1  0
  4  9  1  0
  5  6  1  0
  6  7  1  1
  6  8  1  0
  8  9  1  0
  9 10  1  0
 10 11  1  0
 11 12  2  0
 11 16  1  0
 12 13  1  0
 13 14  2  0
 14 15  1  0
 15 16  1  0
 17 18  2  0
 17 19  1  0
 19 20  1  0
 20 21  1  0
 21 22  1  0
 22 23  1  0
 23 24  1  0
 24 25  2  0
 24 26  1  0
 26 27  1  0
 27 28  2  0
 27 32  1  0
 28 29  1  0
 29 30  2  0
 29 35  1  0
 30 31  1  0
 30 33  1  0
 31 32  2  0
 33 34  1  0
 34 35  1  0
M  CHG  2  15   1  33   1
M  END
