
     RDKit          3D

 36 38  0  0  0  0  0  0  0  0999 V2000
    2.2820    1.0740   -0.0710 O   0  0  0  0  0  0  0  0  0  0  0  0
    2.3270    0.6950   -1.2660 C   0  0  0  0  0  0  0  0  0  0  0  0
    1.2310    0.8280   -2.2140 C   0  0  0  0  0  0  0  0  0  0  0  0
   -0.0780    1.2990   -1.7360 C   0  0  0  0  0  0  0  0  0  0  0  0
   -0.7760    0.4290   -0.7270 C   0  0  2  0  0  0  0  0  0  0  0  0
   -0.0330    0.3020    0.4070 O   0  0  0  0  0  0  0  0  0  0  0  0
   -0.9280   -0.8370   -1.3760 O   0  0  0  0  0  0  0  0  0  0  0  0
   -2.1920    0.9110   -0.4990 C   0  0  2  0  0  0  0  0  0  0  0  0
   -2.2870    2.3420   -0.0560 C   0  0  0  0  0  0  0  0  0  0  0  0
   -3.7240    2.7260    0.1470 C   0  0  0  0  0  0  0  0  0  0  0  0
   -4.3630    2.5740    1.3620 C   0  0  0  0  0  0  0  0  0  0  0  0
   -5.7000    2.9390    1.5180 C   0  0  0  0  0  0  0  0  0  0  0  0
   -6.3870    3.4580    0.4390 C   0  0  0  0  0  0  0  0  0  0  0  0
   -5.7820    3.6200   -0.7750 C   0  0  0  0  0  0  0  0  0  0  0  0
   -4.4580    3.2530   -0.9090 C   0  0  0  0  0  0  0  0  0  0  0  0
   -2.9230   -0.0080    0.3670 N   0  0  0  0  0  0  0  0  0  0  0  0
   -3.9640   -0.8320   -0.1130 C   0  0  0  0  0  0  0  0  0  0  0  0
   -4.2610   -0.7610   -1.3400 O   0  0  0  0  0  0  0  0  0  0  0  0
   -4.7080   -1.7540    0.7310 C   0  0  0  0  0  0  0  0  0  0  0  0
   -5.5450   -2.7170    0.1660 C   0  0  0  0  0  0  0  0  0  0  0  0
   -6.2620   -3.5980    0.9410 C   0  0  0  0  0  0  0  0  0  0  0  0
   -6.1870   -3.5710    2.3290 C   0  0  0  0  0  0  0  0  0  0  0  0
   -5.3620   -2.6220    2.8880 C   0  0  0  0  0  0  0  0  0  0  0  0
   -4.6350   -1.7310    2.1060 C   0  0  0  0  0  0  0  0  0  0  0  0
    3.5870    0.0930   -1.6520 N   0  0  0  0  0  0  0  0  0  0  0  0
    4.6950   -0.0550   -0.7240 C   0  0  1  0  0  0  0  0  0  0  0  0
    5.0550   -1.4790   -0.4970 C   0  0  0  0  0  0  0  0  0  0  0  0
    6.1840   -1.5940    0.4450 C   0  0  0  0  0  0  0  0  0  0  0  0
    7.5120   -1.6760    0.0610 C   0  0  0  0  0  0  0  0  0  0  0  0
    8.5510   -1.7820    0.9630 C   0  0  0  0  0  0  0  0  0  0  0  0
    8.3010   -1.8100    2.3180 C   0  0  0  0  0  0  0  0  0  0  0  0
    6.9880   -1.7300    2.7280 C   0  0  0  0  0  0  0  0  0  0  0  0
    5.9520   -1.6250    1.8240 C   0  0  0  0  0  0  0  0  0  0  0  0
    5.8340    0.7880   -1.0870 C   0  0  0  0  0  0  0  0  0  0  0  0
    5.7560    1.4880   -2.1550 O   0  0  0  0  0  0  0  0  0  0  0  0
    7.0190    0.9240   -0.3960 O   0  0  0  0  0  0  0  0  0  0  0  0
  1  2  2  0
  2  3  1  0
  2 25  1  0
  3  4  1  0
  4  5  1  0
  5  6  1  1
  5  7  1  0
  5  8  1  0
  8  9  1  1
  8 16  1  0
  9 10  1  0
 10 11  2  0
 10 15  1  0
 11 12  1  0
 12 13  2  0
 13 14  1  0
 14 15  2  0
 16 17  1  0
 17 18  2  0
 17 19  1  0
 19 20  2  0
 19 24  1  0
 20 21  1  0
 21 22  2  0
 22 23  1  0
 23 24  2  0
 25 26  1  0
 26 27  1  6
 26 34  1  0
 27 28  1  0
 28 29  2  0
 28 33  1  0
 29 30  1  0
 30 31  2  0
 31 32  1  0
 32 33  2  0
 34 35  2  0
 34 36  1  0
M  END
