
     RDKit          3D

 39 43  0  0  0  0  0  0  0  0999 V2000
   -6.3100   -3.1850    1.9520 C   0  0  0  0  0  0  0  0  0  0  0  0
   -5.2070   -2.6840    2.8910 C   0  0  0  0  0  0  0  0  0  0  0  0
   -4.0170   -2.3970    2.1530 C   0  0  0  0  0  0  0  0  0  0  0  0
   -3.4890   -1.4420    1.4340 C   0  0  0  0  0  0  0  0  0  0  0  0
   -2.2240   -1.6800    0.9070 N   0  0  0  0  0  0  0  0  0  0  0  0
   -1.5590   -0.8110    0.1630 C   0  0  0  0  0  0  0  0  0  0  0  0
   -0.2470   -1.1440   -0.3420 N   0  0  0  0  0  0  0  0  0  0  0  0
    0.4360   -0.1580   -1.1490 C   0  0  0  0  0  0  0  0  0  0  0  0
    1.7710   -0.7120   -1.5500 C   0  0  2  0  0  0  0  0  0  0  0  0
    2.6920   -1.0660   -0.4120 C   0  0  0  0  0  0  0  0  0  0  0  0
    2.9530    0.1220    0.3690 N   0  0  0  0  0  0  0  0  0  0  0  0
    4.0140   -0.2530    1.6920 S   0  0  2  0  0  0  0  0  0  0  0  0
    3.3430   -1.3510    2.5020 O   0  0  0  0  0  0  0  0  0  0  0  0
    4.1860    0.8880    2.6160 O   0  0  0  0  0  0  0  0  0  0  0  0
    5.5210   -0.8240    1.0590 C   0  0  0  0  0  0  0  0  0  0  0  0
    5.9470   -2.0840    1.5000 C   0  0  0  0  0  0  0  0  0  0  0  0
    7.1190   -2.5810    0.9980 C   0  0  0  0  0  0  0  0  0  0  0  0
    7.8690   -1.8720    0.0840 C   0  0  0  0  0  0  0  0  0  0  0  0
    9.0760   -2.4290   -0.4070 N   0  0  0  0  0  0  0  0  0  0  0  0
    7.4130   -0.6480   -0.3150 C   0  0  0  0  0  0  0  0  0  0  0  0
    6.2230   -0.0870    0.1620 C   0  0  0  0  0  0  0  0  0  0  0  0
    5.9090    1.2460   -0.3520 C   0  0  0  0  0  0  0  0  0  0  0  0
    6.3790    2.3860    0.4950 C   0  0  0  0  0  0  0  0  0  0  0  0
    5.9600    3.6890   -0.2040 C   0  0  0  0  0  0  0  0  0  0  0  0
    2.4480   -0.2230   -2.7810 C   0  0  0  0  0  0  0  0  0  0  0  0
    1.7690   -1.5730   -2.7700 C   0  0  0  0  0  0  0  0  0  0  0  0
   -2.0920    0.3860   -0.1310 N   0  0  0  0  0  0  0  0  0  0  0  0
   -3.3000    0.7190    0.3220 C   0  0  0  0  0  0  0  0  0  0  0  0
   -3.9920   -0.2050    1.1060 C   0  0  0  0  0  0  0  0  0  0  0  0
   -5.1870    0.1140    1.5440 C   0  0  0  0  0  0  0  0  0  0  0  0
   -5.7960    1.4270    1.2360 C   0  0  0  0  0  0  0  0  0  0  0  0
   -5.3720    1.9070   -0.1020 C   0  0  1  0  0  0  0  0  0  0  0  0
   -5.6840    0.9590   -1.2040 C   0  0  0  0  0  0  0  0  0  0  0  0
   -7.1600    1.0860   -1.5190 C   0  0  0  0  0  0  0  0  0  0  0  0
   -7.3320    2.8730   -1.4800 S   0  0  1  0  0  0  0  0  0  0  0  0
   -7.1620    3.4440   -2.8500 O   0  0  0  0  0  0  0  0  0  0  0  0
   -8.6030    3.2860   -0.8430 O   0  0  0  0  0  0  0  0  0  0  0  0
   -5.9060    3.2590   -0.4580 C   0  0  0  0  0  0  0  0  0  0  0  0
   -3.8350    2.0510   -0.0590 C   0  0  0  0  0  0  0  0  0  0  0  0
  1  2  1  0
  2  3  1  0
  3  4  2  3
  4  5  1  0
  4 29  1  0
  5  6  2  0
  6  7  1  0
  6 27  1  0
  7  8  1  0
  9  8  1  1
  9 10  1  0
  9 25  1  0
  9 26  1  0
 10 11  1  0
 12 11  1  6
 12 13  2  0
 12 14  2  0
 12 15  1  0
 15 16  2  0
 15 21  1  0
 16 17  1  0
 17 18  2  0
 18 19  1  0
 18 20  1  0
 20 21  2  0
 21 22  1  0
 22 23  1  0
 23 24  1  0
 25 26  1  0
 27 28  2  0
 28 29  1  0
 28 39  1  0
 29 30  2  0
 30 31  1  0
 32 31  1  1
 32 33  1  0
 32 38  1  0
 32 39  1  0
 33 34  1  0
 35 34  1  6
 35 36  2  0
 35 37  2  0
 35 38  1  0
M  END
