
     RDKit          3D

 39 43  0  0  0  0  0  0  0  0999 V2000
   -9.2000    2.8660   -0.8350 C   0  0  0  0  0  0  0  0  0  0  0  0
   -7.9450    2.1020   -0.4630 C   0  0  0  0  0  0  0  0  0  0  0  0
   -7.7650    0.8750   -0.8110 C   0  0  0  0  0  0  0  0  0  0  0  0
   -8.6570   -0.0550   -1.6020 C   0  0  0  0  0  0  0  0  0  0  0  0
   -8.5890   -1.4480   -0.4350 S   0  0  1  0  0  0  0  0  0  0  0  0
   -9.7430   -1.4400    0.4860 O   0  0  0  0  0  0  0  0  0  0  0  0
   -8.3190   -2.7250   -1.1240 O   0  0  0  0  0  0  0  0  0  0  0  0
   -7.1850   -0.9030    0.4990 N   0  0  0  0  0  0  0  0  0  0  0  0
   -6.5790    0.0800   -0.4010 C   0  0  2  0  0  0  0  0  0  0  0  0
   -5.5870    0.8620    0.3340 C   0  0  0  0  0  0  0  0  0  0  0  0
   -4.2680    0.2830    0.7030 C   0  0  0  0  0  0  0  0  0  0  0  0
   -3.4320    0.9660    1.3410 O   0  0  0  0  0  0  0  0  0  0  0  0
   -3.8850   -1.0340    0.3620 N   0  0  0  0  0  0  0  0  0  0  0  0
   -2.6470   -1.6400    0.7070 C   0  0  0  0  0  0  0  0  0  0  0  0
   -1.7420   -1.2000    1.6230 C   0  0  0  0  0  0  0  0  0  0  0  0
   -0.5350   -1.8870    1.8560 C   0  0  0  0  0  0  0  0  0  0  0  0
   -0.1950   -3.0320    1.1830 C   0  0  0  0  0  0  0  0  0  0  0  0
    1.0660   -3.7710    1.3830 C   0  0  0  0  0  0  0  0  0  0  0  0
    2.3680   -3.3990    0.2290 S   0  0  0  0  0  0  0  0  0  0  0  0
    2.9400   -1.7340    0.4410 C   0  0  0  0  0  0  0  0  0  0  0  0
    3.9620   -1.2860   -0.4080 C   0  0  0  0  0  0  0  0  0  0  0  0
    4.4710    0.0070   -0.3110 C   0  0  0  0  0  0  0  0  0  0  0  0
    5.5490    0.4480   -1.2200 C   0  0  0  0  0  0  0  0  0  0  0  0
    6.9070    0.1580   -0.5990 C   0  0  0  0  0  0  0  0  0  0  0  0
    7.9750    0.6080   -1.5290 C   0  0  0  0  0  0  0  0  0  0  0  0
    7.6950    1.1160   -2.6390 O   0  0  0  0  0  0  0  0  0  0  0  0
    9.3360    0.4660   -1.1670 N   0  0  0  0  0  0  0  0  0  0  0  0
   10.3540    0.9150   -2.0990 C   0  0  2  0  0  0  0  0  0  0  0  0
   11.7080    0.2740   -2.0640 C   0  0  0  0  0  0  0  0  0  0  0  0
   11.5700    1.6410   -1.4520 C   0  0  0  0  0  0  0  0  0  0  0  0
    3.9400    0.8290    0.6430 C   0  0  0  0  0  0  0  0  0  0  0  0
    2.9420    0.3800    1.4670 C   0  0  0  0  0  0  0  0  0  0  0  0
    2.3920    1.3030    2.4900 C   0  0  0  0  0  0  0  0  0  0  0  0
    2.4700   -0.8800    1.3480 N   0  0  0  0  0  0  0  0  0  0  0  0
   -1.1150   -3.4850    0.2490 C   0  0  0  0  0  0  0  0  0  0  0  0
   -2.2890   -2.8190    0.0210 C   0  0  0  0  0  0  0  0  0  0  0  0
   -5.7930    2.1330    0.6910 C   0  0  0  0  0  0  0  0  0  0  0  0
   -4.7900    2.9260    1.4430 C   0  0  0  0  0  0  0  0  0  0  0  0
   -7.0020    2.8200    0.3000 N   0  0  0  0  0  0  0  0  0  0  0  0
  1  2  1  0
  2  3  2  0
  2 39  1  0
  3  4  1  0
  3  9  1  0
  5  4  1  6
  5  6  2  0
  5  7  2  0
  5  8  1  0
  9  8  1  1
  9 10  1  0
 10 11  1  0
 10 37  2  0
 11 12  2  0
 11 13  1  0
 13 14  1  0
 14 15  2  0
 14 36  1  0
 15 16  1  0
 16 17  2  0
 17 18  1  0
 17 35  1  0
 18 19  1  0
 19 20  1  0
 20 21  2  0
 20 34  1  0
 21 22  1  0
 22 23  1  0
 22 31  2  0
 23 24  1  0
 24 25  1  0
 25 26  2  0
 25 27  1  0
 28 27  1  1
 28 29  1  0
 28 30  1  0
 29 30  1  0
 31 32  1  0
 32 33  1  0
 32 34  2  0
 35 36  2  0
 37 38  1  0
 37 39  1  0
M  END
