
     RDKit          3D

 39 44  0  0  0  0  0  0  0  0999 V2000
    5.7890   -1.2020    1.2930 O   0  0  0  0  0  0  0  0  0  0  0  0
    6.0360   -0.3940    0.3340 C   0  0  0  0  0  0  0  0  0  0  0  0
    4.9740   -0.1400   -0.5680 N   0  0  0  0  0  0  0  0  0  0  0  0
    3.6700   -0.6660   -0.5540 C   0  0  2  0  0  0  0  0  0  0  0  0
    2.8350   -0.1250    0.5250 C   0  0  0  0  0  0  0  0  0  0  0  0
    1.7310    0.2680    0.7700 N   0  0  0  0  0  0  0  0  0  0  0  0
    1.2200    0.7310    1.8570 C   0  0  0  0  0  0  0  0  0  0  0  0
   -0.1950    1.2050    2.0670 C   0  0  0  0  0  0  0  0  0  0  0  0
   -0.5810    1.6270    3.1740 O   0  0  0  0  0  0  0  0  0  0  0  0
   -1.1220    1.1790    0.9980 N   0  0  0  0  0  0  0  0  0  0  0  0
   -2.5100    1.6190    1.1230 C   0  0  2  0  0  0  0  0  0  0  0  0
   -3.4290    0.5010    0.7280 C   0  0  0  0  0  0  0  0  0  0  0  0
   -2.9830   -0.5600    0.2560 O   0  0  0  0  0  0  0  0  0  0  0  0
   -4.8260    0.6480    0.8950 N   0  0  0  0  0  0  0  0  0  0  0  0
   -5.8250   -0.2770    0.5820 C   0  0  0  0  0  0  0  0  0  0  0  0
   -7.1660    0.0710    0.7110 C   0  0  0  0  0  0  0  0  0  0  0  0
   -8.1690   -0.8130    0.4190 C   0  0  0  0  0  0  0  0  0  0  0  0
   -7.8840   -2.0900   -0.0170 C   0  0  0  0  0  0  0  0  0  0  0  0
   -8.6620   -3.1820   -0.3820 C   0  0  0  0  0  0  0  0  0  0  0  0
   -7.8530   -4.1960   -0.7320 N   0  0  0  0  0  0  0  0  0  0  0  0
   -6.5830   -3.7660   -0.5960 C   0  0  0  0  0  0  0  0  0  0  0  0
   -6.5710   -2.4660   -0.1550 C   0  0  0  0  0  0  0  0  0  0  0  0
   -5.5610   -1.5400    0.1520 C   0  0  0  0  0  0  0  0  0  0  0  0
   -2.6270    2.7650    0.1420 C   0  0  1  0  0  0  0  0  0  0  0  0
   -2.3050    2.2250   -1.2480 C   0  0  0  0  0  0  0  0  0  0  0  0
   -2.8690    3.2220   -2.2350 C   0  0  0  0  0  0  0  0  0  0  0  0
   -4.3700    3.3080   -1.9460 C   0  0  0  0  0  0  0  0  0  0  0  0
   -4.3120    3.3600   -0.1080 S   0  0  0  0  0  0  0  0  0  0  0  0
    2.1130    0.7900    2.9640 C   0  0  0  0  0  0  0  0  0  0  0  0
    3.6300    0.1210    2.1840 S   0  0  0  0  0  0  0  0  0  0  0  0
    3.4610   -2.1190   -0.7480 C   0  0  1  0  0  0  0  0  0  0  0  0
    3.9090   -2.7300   -2.1120 C   0  0  0  0  0  0  0  0  0  0  0  0
    4.6320   -3.0820   -0.8710 C   0  0  0  0  0  0  0  0  0  0  0  0
    7.3450    0.2130    0.2090 C   0  0  0  0  0  0  0  0  0  0  0  0
    8.3010   -0.0750    1.1020 C   0  0  0  0  0  0  0  0  0  0  0  0
    9.6580    0.4850    1.0650 C   0  0  0  0  0  0  0  0  0  0  0  0
    9.8610    1.3520   -0.0100 O   0  0  0  0  0  0  0  0  0  0  0  0
    8.9120    1.6730   -0.9430 C   0  0  0  0  0  0  0  0  0  0  0  0
    7.7010    1.1290   -0.8440 C   0  0  0  0  0  0  0  0  0  0  0  0
  1  2  2  0
  2  3  1  0
  2 34  1  0
  4  3  1  1
  4  5  1  0
  4 31  1  0
  5  6  2  0
  5 30  1  0
  6  7  1  0
  7  8  1  0
  7 29  2  0
  8  9  2  0
  8 10  1  0
 11 10  1  6
 11 12  1  0
 11 24  1  0
 12 13  2  0
 12 14  1  0
 14 15  1  0
 15 16  1  0
 15 23  2  0
 16 17  2  0
 17 18  1  0
 18 19  2  0
 18 22  1  0
 19 20  1  0
 20 21  1  0
 21 22  2  0
 22 23  1  0
 24 25  1  6
 24 28  1  0
 25 26  1  0
 26 27  1  0
 27 28  1  0
 29 30  1  0
 31 32  1  6
 31 33  1  0
 32 33  1  0
 34 35  2  0
 34 39  1  0
 35 36  1  0
 36 37  1  0
 37 38  1  0
 38 39  2  0
M  END
