
     RDKit          3D

 39 43  0  0  0  0  0  0  0  0999 V2000
   -0.3350    1.3530   -2.3410 C   0  0  0  0  0  0  0  0  0  0  0  0
    0.6490    0.6690   -1.4780 C   0  0  0  0  0  0  0  0  0  0  0  0
    0.5900    0.8690   -0.0150 C   0  0  2  0  0  0  0  0  0  0  0  0
    0.7880    2.2250    0.5360 C   0  0  0  0  0  0  0  0  0  0  0  0
   -0.0840    3.3140    0.1950 N   0  0  0  0  0  0  0  0  0  0  0  0
    0.3020    4.1090   -0.9770 C   0  0  0  0  0  0  0  0  0  0  0  0
   -1.1990    3.6060    0.9730 C   0  0  0  0  0  0  0  0  0  0  0  0
   -1.3430    2.8280    2.0020 O   0  0  0  0  0  0  0  0  0  0  0  0
   -2.2280    4.6640    0.7910 C   0  0  0  0  0  0  0  0  0  0  0  0
   -3.3140    4.7410    1.5900 C   0  0  0  0  0  0  0  0  0  0  0  0
   -4.2280    5.7460    1.4070 C   0  0  0  0  0  0  0  0  0  0  0  0
   -3.5750    6.6700    0.0460 S   0  0  0  0  0  0  0  0  0  0  0  0
   -2.0850    5.6100   -0.1830 C   0  0  0  0  0  0  0  0  0  0  0  0
    1.7480    0.0390    0.5730 C   0  0  0  0  0  0  0  0  0  0  0  0
    1.6270   -1.4160    0.4380 C   0  0  2  0  0  0  0  0  0  0  0  0
    2.6500   -2.0480   -0.5180 C   0  0  0  0  0  0  0  0  0  0  0  0
    4.0330   -1.7810   -0.0380 C   0  0  0  0  0  0  0  0  0  0  0  0
    4.8800   -0.9550   -0.1690 N   0  0  0  0  0  0  0  0  0  0  0  0
    6.0700   -0.9250    0.3720 C   0  0  0  0  0  0  0  0  0  0  0  0
    6.3860   -1.9780    1.1970 C   0  0  0  0  0  0  0  0  0  0  0  0
    4.8890   -2.9510    1.1180 S   0  0  0  0  0  0  0  0  0  0  0  0
    7.5290   -2.1250    1.8290 C   0  0  0  0  0  0  0  0  0  0  0  0
    8.5580   -1.1980    1.7180 O   0  0  0  0  0  0  0  0  0  0  0  0
    8.3370   -0.0810    0.8970 C   0  0  0  0  0  0  0  0  0  0  0  0
    7.0400    0.0000    0.2340 C   0  0  0  0  0  0  0  0  0  0  0  0
    0.2640   -1.9450    0.2080 C   0  0  0  0  0  0  0  0  0  0  0  0
    0.1000   -3.1650    0.0960 O   0  0  0  0  0  0  0  0  0  0  0  0
   -0.8680   -1.0990    0.1110 N   0  0  0  0  0  0  0  0  0  0  0  0
   -2.1530   -1.4930   -0.3790 C   0  0  0  0  0  0  0  0  0  0  0  0
   -3.0680   -2.0100    0.6880 C   0  0  0  0  0  0  0  0  0  0  0  0
   -4.3600   -2.3910    0.0590 C   0  0  0  0  0  0  0  0  0  0  0  0
   -5.5060   -1.6060    0.0630 C   0  0  0  0  0  0  0  0  0  0  0  0
   -6.5090   -2.1880   -0.5950 N   0  0  0  0  0  0  0  0  0  0  0  0
   -6.0170   -3.3680   -1.0370 C   0  0  0  0  0  0  0  0  0  0  0  0
   -4.6970   -3.5110   -0.6440 C   0  0  0  0  0  0  0  0  0  0  0  0
   -3.8570   -4.6640   -0.9240 C   0  0  0  0  0  0  0  0  0  0  0  0
   -4.3590   -5.7220   -1.7110 N   0  0  0  0  0  0  0  0  0  0  0  0
   -2.6810   -4.7180   -0.4620 O   0  0  0  0  0  0  0  0  0  0  0  0
   -0.6920    0.2850    0.5580 C   0  0  0  0  0  0  0  0  0  0  0  0
  1  2  1  0
  3  2  1  6
  3  4  1  0
  3 14  1  0
  3 39  1  0
  4  5  1  0
  5  6  1  0
  5  7  1  0
  7  8  2  0
  7  9  1  0
  9 10  1  0
  9 13  2  0
 10 11  2  0
 11 12  1  0
 12 13  1  0
 14 15  1  0
 15 16  1  6
 15 26  1  0
 16 17  1  0
 17 18  2  0
 17 21  1  0
 18 19  1  0
 19 20  1  0
 19 25  2  0
 20 21  1  0
 20 22  2  0
 22 23  1  0
 23 24  1  0
 24 25  1  0
 26 27  2  0
 26 28  1  0
 28 29  1  0
 28 39  1  0
 29 30  1  0
 30 31  1  0
 31 32  2  0
 31 35  1  0
 32 33  1  0
 33 34  1  0
 34 35  2  0
 35 36  1  0
 36 37  1  0
 36 38  2  0
M  END
