
     RDKit          3D

 39 43  0  0  0  0  0  0  0  0999 V2000
    5.9490   -1.2750   -1.5460 C   0  0  0  0  0  0  0  0  0  0  0  0
    5.9890   -1.2000   -0.0440 C   0  0  0  0  0  0  0  0  0  0  0  0
    4.8160   -0.5260    0.4860 N   0  0  0  0  0  0  0  0  0  0  0  0
    4.4940    0.8110    0.1920 C   0  0  0  0  0  0  0  0  0  0  0  0
    5.3070    1.5750   -0.6150 C   0  0  0  0  0  0  0  0  0  0  0  0
    5.0190    2.9060   -0.9240 C   0  0  0  0  0  0  0  0  0  0  0  0
    3.8790    3.4380   -0.3880 C   0  0  0  0  0  0  0  0  0  0  0  0
    3.0650    2.6740    0.4190 C   0  0  0  0  0  0  0  0  0  0  0  0
    3.3490    1.3640    0.7230 C   0  0  0  0  0  0  0  0  0  0  0  0
    2.4510    0.5360    1.6070 C   0  0  0  0  0  0  0  0  0  0  0  0
    1.2700    1.3210    2.0720 C   0  0  0  0  0  0  0  0  0  0  0  0
    0.2370    0.3170    3.1120 S   0  0  0  0  0  0  0  0  0  0  0  0
    0.9470   -0.0780    4.3980 O   0  0  0  0  0  0  0  0  0  0  0  0
   -0.3460   -1.1040    2.2290 C   0  0  0  0  0  0  0  0  0  0  0  0
    0.5190   -1.9640    1.5100 N   0  0  0  0  0  0  0  0  0  0  0  0
   -1.6480   -1.3830    2.2330 C   0  0  0  0  0  0  0  0  0  0  0  0
   -2.1430   -2.5440    1.5150 C   0  0  1  0  0  0  0  0  0  0  0  0
   -2.8640   -3.4350    2.5540 C   0  0  0  0  0  0  0  0  0  0  0  0
   -3.0260   -4.8290    2.0300 C   0  0  0  0  0  0  0  0  0  0  0  0
   -3.4500   -4.7420    0.6400 N   0  0  0  0  0  0  0  0  0  0  0  0
   -3.6110   -5.8170   -0.2680 C   0  0  0  0  0  0  0  0  0  0  0  0
   -2.8790   -6.8660   -0.3550 O   0  0  0  0  0  0  0  0  0  0  0  0
   -4.7620   -5.6520   -1.1850 C   0  0  0  0  0  0  0  0  0  0  0  0
   -4.9990   -3.8530   -1.1660 S   0  0  0  0  0  0  0  0  0  0  0  0
   -3.7410   -3.4780    0.0610 C   0  0  0  0  0  0  0  0  0  0  0  0
   -3.1230   -2.3320    0.4400 C   0  0  0  0  0  0  0  0  0  0  0  0
   -3.4990   -1.1290   -0.2370 C   0  0  0  0  0  0  0  0  0  0  0  0
   -4.4010   -1.2590   -1.1400 O   0  0  0  0  0  0  0  0  0  0  0  0
   -3.0260    0.1760   -0.0600 N   0  0  0  0  0  0  0  0  0  0  0  0
   -3.4010    1.3700   -0.7330 C   0  0  0  0  0  0  0  0  0  0  0  0
   -2.8890    2.5960   -0.3170 C   0  0  0  0  0  0  0  0  0  0  0  0
   -3.2250    3.7540   -0.9490 C   0  0  0  0  0  0  0  0  0  0  0  0
   -4.0750    3.7700   -2.0150 C   0  0  0  0  0  0  0  0  0  0  0  0
   -4.4390    5.0560   -2.7060 C   0  0  0  0  0  0  0  0  0  0  0  0
   -4.5900    2.5770   -2.4390 C   0  0  0  0  0  0  0  0  0  0  0  0
   -4.2530    1.3810   -1.7990 C   0  0  0  0  0  0  0  0  0  0  0  0
    3.7790    4.7590   -0.8150 O   0  0  0  0  0  0  0  0  0  0  0  0
    5.0020    5.1480   -1.4070 C   0  0  0  0  0  0  0  0  0  0  0  0
    5.6580    3.8970   -1.7030 N   0  0  0  0  0  0  0  0  0  0  0  0
  1  2  1  0
  2  3  1  0
  3  4  1  0
  4  5  2  0
  4  9  1  0
  5  6  1  0
  6  7  2  0
  6 39  1  0
  7  8  1  0
  7 37  1  0
  8  9  2  0
  9 10  1  0
 10 11  1  0
 12 11  1  6
 12 13  2  0
 12 14  1  0
 14 15  1  0
 14 16  2  3
 17 16  1  1
 17 18  1  0
 17 26  1  0
 18 19  1  0
 19 20  1  0
 20 21  1  0
 20 25  1  0
 21 22  2  0
 21 23  1  0
 23 24  1  0
 24 25  1  0
 25 26  2  0
 26 27  1  0
 27 28  2  0
 27 29  1  0
 29 30  1  0
 30 31  2  0
 30 36  1  0
 31 32  1  0
 32 33  2  0
 33 34  1  0
 33 35  1  0
 35 36  2  0
 37 38  1  0
 38 39  1  0
M  END
