
     RDKit          3D

 39 43  0  0  0  0  0  0  0  0999 V2000
   -5.7200    0.8550   -2.1990 C   0  0  0  0  0  0  0  0  0  0  0  0
   -4.4330    0.1010   -2.4670 C   0  0  2  0  0  0  0  0  0  0  0  0
   -4.7860   -1.0000   -3.4380 C   0  0  0  0  0  0  0  0  0  0  0  0
   -3.5010   -1.8240   -3.6150 C   0  0  0  0  0  0  0  0  0  0  0  0
   -3.0930   -2.0250   -1.8320 S   0  0  0  0  0  0  0  0  0  0  0  0
   -3.8920   -0.5160   -1.2150 C   0  0  1  0  0  0  0  0  0  0  0  0
   -2.6840    0.3430   -0.6640 C   0  0  1  0  0  0  0  0  0  0  0  0
   -3.2030    1.6930   -0.3840 C   0  0  0  0  0  0  0  0  0  0  0  0
   -2.2620   -0.3670    0.4920 N   0  0  0  0  0  0  0  0  0  0  0  0
   -3.1970   -0.1880    1.6660 C   0  0  0  0  0  0  0  0  0  0  0  0
   -2.7460    0.9260    2.5000 C   0  0  0  0  0  0  0  0  0  0  0  0
   -1.7070    1.5550    2.1890 O   0  0  0  0  0  0  0  0  0  0  0  0
   -3.4360    1.3370    3.6620 N   0  0  0  0  0  0  0  0  0  0  0  0
   -2.9720    2.4450    4.4720 C   0  0  1  0  0  0  0  0  0  0  0  0
   -3.9440    3.1810    5.3230 C   0  0  0  0  0  0  0  0  0  0  0  0
   -3.0240    2.2430    6.0110 C   0  0  0  0  0  0  0  0  0  0  0  0
   -1.1620   -1.1730    0.7510 C   0  0  0  0  0  0  0  0  0  0  0  0
   -1.3060   -1.7960    1.9490 O   0  0  0  0  0  0  0  0  0  0  0  0
    0.0500   -1.5570    0.1330 C   0  0  0  0  0  0  0  0  0  0  0  0
    0.5120   -2.8790    0.4360 C   0  0  0  0  0  0  0  0  0  0  0  0
   -0.3240   -3.7210    1.2450 N   0  0  0  0  0  0  0  0  0  0  0  0
    1.6680   -3.2900   -0.0350 N   0  0  0  0  0  0  0  0  0  0  0  0
    2.4840   -2.5580   -0.7980 C   0  0  0  0  0  0  0  0  0  0  0  0
    3.5700   -3.0330   -1.2160 O   0  0  0  0  0  0  0  0  0  0  0  0
    2.1060   -1.2660   -1.1230 C   0  0  0  0  0  0  0  0  0  0  0  0
    0.8790   -0.7960   -0.6370 C   0  0  0  0  0  0  0  0  0  0  0  0
    0.8760    0.5950   -1.0790 C   0  0  0  0  0  0  0  0  0  0  0  0
   -0.0320    1.4240   -0.8440 O   0  0  0  0  0  0  0  0  0  0  0  0
    2.0480    0.8830   -1.7970 N   0  0  0  0  0  0  0  0  0  0  0  0
    2.8000   -0.2070   -1.8390 C   0  0  0  0  0  0  0  0  0  0  0  0
    4.3710   -0.1410   -2.6240 S   0  0  0  0  0  0  0  0  0  0  0  0
    5.5900   -1.3250   -2.3120 C   0  0  0  0  0  0  0  0  0  0  0  0
    6.2020   -1.3450   -0.9180 C   0  0  0  0  0  0  0  0  0  0  0  0
    6.8760   -0.0270   -0.6420 C   0  0  0  0  0  0  0  0  0  0  0  0
    8.1990    0.1990   -0.9340 C   0  0  0  0  0  0  0  0  0  0  0  0
    8.7740    1.4220   -0.6650 C   0  0  0  0  0  0  0  0  0  0  0  0
    8.0250    2.4500   -0.0920 C   0  0  0  0  0  0  0  0  0  0  0  0
    6.6990    2.1960    0.1920 C   0  0  0  0  0  0  0  0  0  0  0  0
    6.1080    0.9630   -0.0770 C   0  0  0  0  0  0  0  0  0  0  0  0
  2  1  1  1
  2  3  1  0
  2  6  1  0
  3  4  1  0
  4  5  1  0
  6  5  1  6
  6  7  1  0
  7  8  1  1
  7  9  1  0
  9 10  1  0
  9 17  1  0
 10 11  1  0
 11 12  2  0
 11 13  1  0
 14 13  1  6
 14 15  1  0
 14 16  1  0
 15 16  1  0
 17 18  2  0
 17 19  1  0
 19 20  2  0
 19 26  1  0
 20 21  1  0
 20 22  1  0
 22 23  1  0
 23 24  2  0
 23 25  1  0
 25 26  2  0
 25 30  1  0
 26 27  1  0
 27 28  2  0
 27 29  1  0
 29 30  2  0
 30 31  1  0
 31 32  1  0
 32 33  1  0
 33 34  1  0
 34 35  2  0
 34 39  1  0
 35 36  1  0
 36 37  2  0
 37 38  1  0
 38 39  2  0
M  END
