
     RDKit          3D

 13 13  0  0  0  0  0  0  0  0999 V2000
   -3.0830    0.4440    1.3810 C   0  0  0  0  0  0  0  0  0  0  0  0
   -2.6740    0.4150    0.0060 N   0  0  0  0  0  0  0  0  0  0  0  0
   -3.6940    0.5120   -1.0090 C   0  0  0  0  0  0  0  0  0  0  0  0
   -1.2800    0.2980   -0.2890 C   0  0  0  0  0  0  0  0  0  0  0  0
   -0.3570    1.2080   -0.5810 N   0  0  0  0  0  0  0  0  0  0  0  0
    0.8250    0.8730   -0.8050 N   0  0  0  0  0  0  0  0  0  0  0  0
    1.2500   -0.3410   -0.7760 C   0  0  0  0  0  0  0  0  0  0  0  0
    2.5370   -0.9700   -1.0100 C   0  0  0  0  0  0  0  0  0  0  0  0
    3.4590   -1.0090    0.5050 S   0  0  1  0  0  0  0  0  0  0  0  0
    3.7000    0.6040    1.0810 N   0  0  0  0  0  0  0  0  0  0  0  0
    2.6930   -1.7510    1.5640 O   0  0  0  0  0  0  0  0  0  0  0  0
    4.7670   -1.7260    0.3150 O   0  0  0  0  0  0  0  0  0  0  0  0
   -0.3030   -1.1910   -0.3520 S   0  0  0  0  0  0  0  0  0  0  0  0
  1  2  1  0
  2  3  1  0
  2  4  1  0
  4  5  2  0
  4 13  1  0
  5  6  1  0
  6  7  2  0
  7  8  1  0
  7 13  1  0
  8  9  1  0
  9 10  1  1
  9 11  2  0
  9 12  2  0
M  END
