
     RDKit          3D

  9  9  0  0  0  0  0  0  0  0999 V2000
   -3.4070   -0.0830   -0.2830 O   0  0  0  0  0  0  0  0  0  0  0  0
   -2.1650    0.1340   -0.3110 C   0  0  0  0  0  0  0  0  0  0  0  0
   -1.6490    1.2760   -0.9080 O   0  0  0  0  0  0  0  0  0  0  0  0
   -1.2710   -0.8750    0.3150 C   0  0  0  0  0  0  0  0  0  0  0  0
    0.1570   -0.4050    0.2110 C   0  0  0  0  0  0  0  0  0  0  0  0
    0.8430    0.3680    1.1270 C   0  0  0  0  0  0  0  0  0  0  0  0
    2.1220    0.5760    0.6580 C   0  0  0  0  0  0  0  0  0  0  0  0
    2.2140   -0.0760   -0.5520 C   0  0  0  0  0  0  0  0  0  0  0  0
    1.0220   -0.6510   -0.7880 N   0  0  0  0  0  0  0  0  0  0  0  0
  1  2  2  0
  2  3  1  0
  2  4  1  0
  4  5  1  0
  5  6  2  0
  5  9  1  0
  6  7  1  0
  7  8  2  0
  8  9  1  0
M  END
