
     RDKit          3D

 24 26  0  0  0  0  0  0  0  0999 V2000
   -2.4530   -1.9120    1.9380 C   0  0  0  0  0  0  0  0  0  0  0  0
   -2.8620   -1.3440    0.6040 C   0  0  1  0  0  0  0  0  0  0  0  0
   -4.2220   -0.6610    0.6420 C   0  0  0  0  0  0  0  0  0  0  0  0
   -4.0390    0.4890   -0.2820 C   0  0  0  0  0  0  0  0  0  0  0  0
   -4.9170    1.3180   -0.9180 C   0  0  0  0  0  0  0  0  0  0  0  0
   -4.5310    2.3550   -1.7670 C   0  0  0  0  0  0  0  0  0  0  0  0
   -3.1780    2.5590   -1.9820 C   0  0  0  0  0  0  0  0  0  0  0  0
   -2.2830    1.7090   -1.3290 C   0  0  0  0  0  0  0  0  0  0  0  0
   -2.6690    0.6930   -0.4960 C   0  0  0  0  0  0  0  0  0  0  0  0
   -1.9480   -0.2820    0.2800 N   0  0  0  0  0  0  0  0  0  0  0  0
   -0.6140   -0.1720    0.6400 N   0  0  0  0  0  0  0  0  0  0  0  0
    0.4030   -0.8590   -0.0560 C   0  0  0  0  0  0  0  0  0  0  0  0
    0.0830   -1.5910   -1.0190 O   0  0  0  0  0  0  0  0  0  0  0  0
    1.7940   -0.6650    0.3990 C   0  0  0  0  0  0  0  0  0  0  0  0
    2.1190   -0.4750    1.7260 C   0  0  0  0  0  0  0  0  0  0  0  0
    3.4390   -0.2590    2.1200 C   0  0  0  0  0  0  0  0  0  0  0  0
    4.4660   -0.2280    1.1870 C   0  0  0  0  0  0  0  0  0  0  0  0
    6.1330    0.0470    1.6650 Cl  0  0  0  0  0  0  0  0  0  0  0  0
    4.1530   -0.4160   -0.1330 C   0  0  0  0  0  0  0  0  0  0  0  0
    5.3860   -0.3760   -1.4010 S   0  0  2  0  0  0  0  0  0  0  0  0
    6.1910    1.1120   -1.4720 N   0  0  0  0  0  0  0  0  0  0  0  0
    4.7170   -0.5950   -2.7500 O   0  0  0  0  0  0  0  0  0  0  0  0
    6.3690   -1.4910   -1.2160 O   0  0  0  0  0  0  0  0  0  0  0  0
    2.8300   -0.6310   -0.5120 C   0  0  0  0  0  0  0  0  0  0  0  0
  2  1  1  1
  2  3  1  0
  2 10  1  0
  3  4  1  0
  4  5  2  0
  4  9  1  0
  5  6  1  0
  6  7  2  0
  7  8  1  0
  8  9  2  0
  9 10  1  0
 10 11  1  0
 11 12  1  0
 12 13  2  0
 12 14  1  0
 14 15  2  0
 14 24  1  0
 15 16  1  0
 16 17  2  0
 17 18  1  0
 17 19  1  0
 19 20  1  0
 19 24  2  0
 20 21  1  6
 20 22  2  0
 20 23  2  0
M  END
