
     RDKit          3D

 22 23  0  0  0  0  0  0  0  0999 V2000
    3.1040    1.2210   -0.1210 O   0  0  0  0  0  0  0  0  0  0  0  0
    2.7190    2.1060    0.7030 C   0  0  0  0  0  0  0  0  0  0  0  0
    1.3470    2.1360    1.0680 N   0  0  0  0  0  0  0  0  0  0  0  0
    0.4070    1.1700    0.5060 C   0  0  0  0  0  0  0  0  0  0  0  0
    0.7310   -0.2390    0.9790 C   0  0  0  0  0  0  0  0  0  0  0  0
    1.7240   -0.4340    1.8840 C   0  0  0  0  0  0  0  0  0  0  0  0
    1.9610   -1.7130    2.3180 C   0  0  0  0  0  0  0  0  0  0  0  0
    0.7620   -2.6710    1.4360 S   0  0  0  0  0  0  0  0  0  0  0  0
    0.0320   -1.3050    0.5560 C   0  0  0  0  0  0  0  0  0  0  0  0
   -1.0930   -1.4990   -0.3780 C   0  0  0  0  0  0  0  0  0  0  0  0
   -1.7690   -0.5570   -1.0500 C   0  0  0  0  0  0  0  0  0  0  0  0
   -2.8360   -0.8100   -1.9130 C   0  0  0  0  0  0  0  0  0  0  0  0
   -3.4810    0.2510   -2.5800 C   0  0  0  0  0  0  0  0  0  0  0  0
   -4.0460    1.1840   -3.1560 C   0  0  0  0  0  0  0  0  0  0  0  0
   -4.6500    2.2040   -3.7590 F   0  0  0  0  0  0  0  0  0  0  0  0
   -3.2000   -2.1130   -2.0690 C   0  0  0  0  0  0  0  0  0  0  0  0
   -2.5280   -3.1330   -1.3900 C   0  0  0  0  0  0  0  0  0  0  0  0
   -2.8730   -4.3420   -1.5410 O   0  0  0  0  0  0  0  0  0  0  0  0
   -1.5260   -2.7810   -0.5910 N   0  0  0  0  0  0  0  0  0  0  0  0
    3.6950    3.0760    1.2600 C   0  0  2  0  0  0  0  0  0  0  0  0
    4.9370    2.8450    0.6400 F   0  0  0  0  0  0  0  0  0  0  0  0
    3.8570    2.9160    2.6230 F   0  0  0  0  0  0  0  0  0  0  0  0
  1  2  2  0
  2  3  1  0
  2 20  1  0
  3  4  1  0
  4  5  1  0
  5  6  1  0
  5  9  2  0
  6  7  2  0
  7  8  1  0
  8  9  1  0
  9 10  1  0
 10 11  2  0
 10 19  1  0
 11 12  1  0
 12 13  1  0
 12 16  2  0
 13 14  3  0
 14 15  1  0
 16 17  1  0
 17 18  2  0
 17 19  1  0
 20 21  1  6
 20 22  1  0
M  END
