
     RDKit          3D

 23 24  0  0  0  0  0  0  0  0999 V2000
    3.1100    1.2850   -0.5530 O   0  0  0  0  0  0  0  0  0  0  0  0
    3.5730    0.2150   -0.1240 C   0  0  0  0  0  0  0  0  0  0  0  0
    2.7870   -0.8220    0.3900 N   0  0  0  0  0  0  0  0  0  0  0  0
    1.3960   -0.8060    0.4870 C   0  0  0  0  0  0  0  0  0  0  0  0
    0.7800   -1.7450    1.3360 C   0  0  0  0  0  0  0  0  0  0  0  0
   -0.5880   -1.7310    1.4080 C   0  0  0  0  0  0  0  0  0  0  0  0
   -1.3410   -0.8430    0.6860 C   0  0  0  0  0  0  0  0  0  0  0  0
   -0.7580    0.0770   -0.1460 C   0  0  0  0  0  0  0  0  0  0  0  0
   -1.7360    1.2490   -1.1000 S   0  0  0  0  0  0  0  0  0  0  0  0
   -3.4420    0.9580   -0.7430 C   0  0  0  0  0  0  0  0  0  0  0  0
   -4.1430    0.0580   -1.5220 C   0  0  0  0  0  0  0  0  0  0  0  0
   -5.4660   -0.1560   -1.2320 C   0  0  0  0  0  0  0  0  0  0  0  0
   -6.1680   -1.0300   -1.9790 F   0  0  0  0  0  0  0  0  0  0  0  0
   -6.0770    0.5000   -0.2030 C   0  0  0  0  0  0  0  0  0  0  0  0
   -5.3870    1.3750    0.5510 N   0  0  0  0  0  0  0  0  0  0  0  0
   -4.0880    1.6050    0.2890 C   0  0  0  0  0  0  0  0  0  0  0  0
   -3.4100    2.4230    0.9790 O   0  0  0  0  0  0  0  0  0  0  0  0
    0.6400    0.0800   -0.2340 C   0  0  0  0  0  0  0  0  0  0  0  0
    5.0650    0.0290   -0.1620 C   0  0  1  0  0  0  0  0  0  0  0  0
    5.6050    1.1630   -0.7640 O   0  0  0  0  0  0  0  0  0  0  0  0
    5.6290   -0.0090    1.2630 C   0  0  1  0  0  0  0  0  0  0  0  0
    5.0870   -1.0370    1.9710 F   0  0  0  0  0  0  0  0  0  0  0  0
    7.0000   -0.0890    1.1440 F   0  0  0  0  0  0  0  0  0  0  0  0
  1  2  2  0
  2  3  1  0
  2 19  1  0
  3  4  1  0
  4  5  2  0
  4 18  1  0
  5  6  1  0
  6  7  2  0
  7  8  1  0
  8  9  1  0
  8 18  2  0
  9 10  1  0
 10 11  2  0
 10 16  1  0
 11 12  1  0
 12 13  1  0
 12 14  2  0
 14 15  1  0
 15 16  1  0
 16 17  2  0
 19 20  1  6
 19 21  1  0
 21 22  1  6
 21 23  1  0
M  END
