
     RDKit          3D

 23 24  0  0  0  0  0  0  0  0999 V2000
    3.3340    1.8030    1.8090 O   0  0  0  0  0  0  0  0  0  0  0  0
    3.7280    1.3460    0.6880 C   0  0  0  0  0  0  0  0  0  0  0  0
    5.0320    1.3160    0.3630 N   0  0  0  0  0  0  0  0  0  0  0  0
    5.4320    0.8300   -0.8250 C   0  0  0  0  0  0  0  0  0  0  0  0
    7.0310    0.7970   -1.2180 S   0  0  0  0  0  0  0  0  0  0  0  0
    4.4930    0.3780   -1.6720 N   0  0  0  0  0  0  0  0  0  0  0  0
    3.1780    0.3890   -1.3890 C   0  0  0  0  0  0  0  0  0  0  0  0
    2.2270   -0.0790   -2.2680 C   0  0  0  0  0  0  0  0  0  0  0  0
    0.8940   -0.0430   -1.9230 C   0  0  0  0  0  0  0  0  0  0  0  0
    0.4870    0.4590   -0.6970 C   0  0  0  0  0  0  0  0  0  0  0  0
   -0.9440    0.4890   -0.3470 C   0  0  0  0  0  0  0  0  0  0  0  0
   -1.3470   -0.7130    0.3090 O   0  0  0  0  0  0  0  0  0  0  0  0
   -2.7090   -0.7530    0.6740 C   0  0  0  0  0  0  0  0  0  0  0  0
   -3.0960   -0.0600    1.6850 C   0  0  0  0  0  0  0  0  0  0  0  0
   -4.4340    0.0820    2.2780 C   0  0  0  0  0  0  0  0  0  0  0  0
   -4.7520    1.4490    2.1900 F   0  0  0  0  0  0  0  0  0  0  0  0
   -3.5440   -1.5890   -0.1490 C   0  0  0  0  0  0  0  0  0  0  0  0
   -4.9260   -1.7640    0.0470 O   0  0  0  0  0  0  0  0  0  0  0  0
   -3.0420   -2.2720   -1.1820 C   0  0  0  0  0  0  0  0  0  0  0  0
   -1.7330   -2.1640   -1.4420 F   0  0  0  0  0  0  0  0  0  0  0  0
   -3.8290   -3.0380   -1.9290 F   0  0  0  0  0  0  0  0  0  0  0  0
    1.4180    0.9310    0.1960 C   0  0  0  0  0  0  0  0  0  0  0  0
    2.7460    0.8870   -0.1650 C   0  0  0  0  0  0  0  0  0  0  0  0
  1  2  2  0
  2  3  1  0
  2 23  1  0
  3  4  1  0
  4  5  2  0
  4  6  1  0
  6  7  1  0
  7  8  2  0
  7 23  1  0
  8  9  1  0
  9 10  2  0
 10 11  1  0
 10 22  1  0
 11 12  1  0
 12 13  1  0
 13 14  2  3
 13 17  1  0
 14 15  1  0
 15 16  1  0
 17 18  1  0
 17 19  2  3
 19 20  1  0
 19 21  1  0
 22 23  2  0
M  END
