
     RDKit          3D

 23 24  0  0  0  0  0  0  0  0999 V2000
    1.4270   -2.7910   -0.4830 N   0  0  0  0  0  0  0  0  0  0  0  0
    1.6070   -1.4300   -0.8220 C   0  0  0  0  0  0  0  0  0  0  0  0
    2.7190   -0.7200   -0.3640 C   0  0  0  0  0  0  0  0  0  0  0  0
    2.8660    0.6060   -0.7110 C   0  0  0  0  0  0  0  0  0  0  0  0
    3.9520    1.3640   -0.2850 O   0  0  0  0  0  0  0  0  0  0  0  0
    4.9800    0.8640    0.5210 C   0  0  0  0  0  0  0  0  0  0  0  0
    5.9810    1.9720    0.7760 C   0  0  2  0  0  0  0  0  0  0  0  0
    6.5170    2.4290   -0.4090 F   0  0  0  0  0  0  0  0  0  0  0  0
    7.0350    1.4980    1.5550 F   0  0  0  0  0  0  0  0  0  0  0  0
    5.3460    3.0450    1.3820 F   0  0  0  0  0  0  0  0  0  0  0  0
    1.8910    1.1680   -1.5050 C   0  0  0  0  0  0  0  0  0  0  0  0
    0.8180    0.4640   -1.9410 N   0  0  0  0  0  0  0  0  0  0  0  0
    0.6440   -0.8350   -1.6190 C   0  0  0  0  0  0  0  0  0  0  0  0
   -0.7750   -1.7650   -2.1970 S   0  0  0  0  0  0  0  0  0  0  0  0
   -2.0860   -1.6090   -0.9850 C   0  0  0  0  0  0  0  0  0  0  0  0
   -2.5880   -0.2130   -0.8980 C   0  0  0  0  0  0  0  0  0  0  0  0
   -2.0640    0.6530   -1.6400 O   0  0  0  0  0  0  0  0  0  0  0  0
   -3.6540    0.1560    0.0160 C   0  0  0  0  0  0  0  0  0  0  0  0
   -4.2060   -0.7470    0.7950 C   0  0  0  0  0  0  0  0  0  0  0  0
   -5.2950   -0.4820    1.7600 C   0  0  0  0  0  0  0  0  0  0  0  0
   -5.6830    0.8600    1.7520 O   0  0  0  0  0  0  0  0  0  0  0  0
   -5.1020    1.8130    0.9300 C   0  0  0  0  0  0  0  0  0  0  0  0
   -4.1350    1.5180    0.0910 C   0  0  0  0  0  0  0  0  0  0  0  0
  1  2  1  0
  2  3  2  0
  2 13  1  0
  3  4  1  0
  4  5  1  0
  4 11  2  0
  5  6  1  0
  6  7  1  0
  7  8  1  6
  7  9  1  0
  7 10  1  0
 11 12  1  0
 12 13  2  0
 13 14  1  0
 14 15  1  0
 15 16  1  0
 16 17  2  0
 16 18  1  0
 18 19  2  0
 18 23  1  0
 19 20  1  0
 20 21  1  0
 21 22  1  0
 22 23  2  0
M  END
