
     RDKit          3D

 13 14  0  0  0  0  0  0  0  0999 V2000
   -1.6760   -1.4740   -1.9770 N   0  0  0  0  0  0  0  0  0  0  0  0
   -1.6430   -0.4430   -1.0090 C   0  0  0  0  0  0  0  0  0  0  0  0
   -2.6810    0.2860   -0.6770 C   0  0  0  0  0  0  0  0  0  0  0  0
   -2.6140    1.3530    0.3350 C   0  0  0  0  0  0  0  0  0  0  0  0
   -1.5500    1.0760    1.3610 C   0  0  0  0  0  0  0  0  0  0  0  0
   -0.3390    0.8460    0.6230 O   0  0  0  0  0  0  0  0  0  0  0  0
   -0.3650   -0.1630   -0.3240 C   0  0  0  0  0  0  0  0  0  0  0  0
    0.6870   -0.8730   -0.6360 C   0  0  0  0  0  0  0  0  0  0  0  0
    1.9490   -0.5660    0.0690 C   0  0  0  0  0  0  0  0  0  0  0  0
    3.1000   -1.1810   -0.1210 C   0  0  0  0  0  0  0  0  0  0  0  0
    4.0520   -0.6340    0.7040 O   0  0  0  0  0  0  0  0  0  0  0  0
    3.5550    0.6120    1.1970 C   0  0  0  0  0  0  0  0  0  0  0  0
    2.1560    0.4000    1.0370 O   0  0  0  0  0  0  0  0  0  0  0  0
  1  2  1  0
  2  3  2  0
  2  7  1  0
  3  4  1  0
  4  5  1  0
  5  6  1  0
  6  7  1  0
  7  8  2  3
  8  9  1  0
  9 10  2  0
  9 13  1  0
 10 11  1  0
 11 12  1  0
 12 13  1  0
M  END
