
     RDKit          3D

 13 14  0  0  0  0  0  0  0  0999 V2000
    3.5310   -1.9480   -0.5290 O   0  0  0  0  0  0  0  0  0  0  0  0
    2.8230   -1.0050   -0.0940 C   0  0  0  0  0  0  0  0  0  0  0  0
    1.3700   -1.1550    0.1980 C   0  0  0  0  0  0  0  0  0  0  0  0
    0.7010    0.1180   -0.3070 C   0  0  1  0  0  0  0  0  0  0  0  0
   -0.7750    0.0490   -0.1850 C   0  0  0  0  0  0  0  0  0  0  0  0
   -1.6050    0.1440   -1.2030 C   0  0  0  0  0  0  0  0  0  0  0  0
   -2.9940    0.0340   -0.7220 C   0  0  0  0  0  0  0  0  0  0  0  0
   -2.8500   -0.1400    0.7330 C   0  0  0  0  0  0  0  0  0  0  0  0
   -1.5600   -0.1260    1.0040 C   0  0  0  0  0  0  0  0  0  0  0  0
    1.2650    1.2160    0.4300 N   0  0  0  0  0  0  0  0  0  0  0  0
    2.6770    1.3800    0.3890 C   0  0  0  0  0  0  0  0  0  0  0  0
    3.2340    2.5000    0.5820 O   0  0  0  0  0  0  0  0  0  0  0  0
    3.4310    0.2260    0.1190 O   0  0  0  0  0  0  0  0  0  0  0  0
  1  2  2  0
  2  3  1  0
  2 13  1  0
  3  4  1  0
  4  5  1  1
  4 10  1  0
  5  6  2  0
  5  9  1  0
  6  7  1  0
  7  8  1  0
  8  9  2  0
 10 11  1  0
 11 12  2  0
 11 13  1  0
M  END
