
     RDKit          3D

 13 14  0  0  0  0  0  0  0  0999 V2000
    1.1260    1.8950    1.5830 O   0  0  0  0  0  0  0  0  0  0  0  0
    1.6890    0.8720    0.8210 C   0  0  0  0  0  0  0  0  0  0  0  0
    2.9940    0.6550    0.8080 C   0  0  0  0  0  0  0  0  0  0  0  0
    3.6140   -0.3290    0.0850 O   0  0  0  0  0  0  0  0  0  0  0  0
    2.9120   -1.2070   -0.7180 C   0  0  0  0  0  0  0  0  0  0  0  0
    1.4590   -0.9720   -0.7070 C   0  0  0  0  0  0  0  0  0  0  0  0
    0.8860   -0.0210   -0.0050 C   0  0  0  0  0  0  0  0  0  0  0  0
   -0.5190    0.1820   -0.0160 N   0  0  0  0  0  0  0  0  0  0  0  0
   -1.2850    0.0960   -1.2460 C   0  0  0  0  0  0  0  0  0  0  0  0
   -2.2920   -1.0150   -1.0520 C   0  0  0  0  0  0  0  0  0  0  0  0
   -2.9730   -0.8710    0.1220 O   0  0  0  0  0  0  0  0  0  0  0  0
   -2.7450    0.2710    0.8390 C   0  0  0  0  0  0  0  0  0  0  0  0
   -1.2880    0.4840    1.1840 C   0  0  0  0  0  0  0  0  0  0  0  0
  1  2  1  0
  2  3  2  0
  2  7  1  0
  3  4  1  0
  4  5  1  0
  5  6  1  0
  6  7  2  0
  7  8  1  0
  8  9  1  0
  8 13  1  0
  9 10  1  0
 10 11  1  0
 11 12  1  0
 12 13  1  0
M  END
