
     RDKit          3D

 13 14  0  0  0  0  0  0  0  0999 V2000
   -1.8280    1.8330    0.0900 C   0  0  0  0  0  0  0  0  0  0  0  0
   -1.3030    0.6420    0.0420 C   0  0  0  0  0  0  0  0  0  0  0  0
   -2.0420   -0.6380   -0.0160 C   0  0  0  0  0  0  0  0  0  0  0  0
   -3.5200   -0.7940   -0.0310 C   0  0  0  0  0  0  0  0  0  0  0  0
   -1.1350   -1.5480   -0.0500 N   0  0  0  0  0  0  0  0  0  0  0  0
    0.1720   -1.0000   -0.0190 C   0  0  0  0  0  0  0  0  0  0  0  0
    0.1170    0.3220    0.0370 C   0  0  0  0  0  0  0  0  0  0  0  0
    1.1770    1.2300    0.0810 O   0  0  0  0  0  0  0  0  0  0  0  0
    2.5250    1.0480   -0.3690 C   0  0  0  0  0  0  0  0  0  0  0  0
    3.2210   -0.0560    0.3960 C   0  0  0  0  0  0  0  0  0  0  0  0
    2.7130   -1.3400    0.0700 O   0  0  0  0  0  0  0  0  0  0  0  0
    1.4040   -1.7920   -0.0460 C   0  0  0  0  0  0  0  0  0  0  0  0
    1.2970   -3.0340   -0.1910 O   0  0  0  0  0  0  0  0  0  0  0  0
  1  2  2  0
  2  3  1  0
  2  7  1  0
  3  4  1  0
  3  5  2  0
  5  6  1  0
  6  7  2  0
  6 12  1  0
  7  8  1  0
  8  9  1  0
  9 10  1  0
 10 11  1  0
 11 12  1  0
 12 13  2  0
M  END
