
     RDKit          3D

 28 31  0  0  0  0  0  0  0  0999 V2000
    0.1360   -2.8800   -1.8040 C   0  0  0  0  0  0  0  0  0  0  0  0
    0.8880   -1.7280   -1.2550 C   0  0  0  0  0  0  0  0  0  0  0  0
    2.2550   -1.7900   -1.2620 C   0  0  0  0  0  0  0  0  0  0  0  0
    3.0550   -0.7850   -0.7820 C   0  0  0  0  0  0  0  0  0  0  0  0
    4.3730   -0.8460   -0.7900 C   0  0  0  0  0  0  0  0  0  0  0  0
    5.2590    0.2040   -0.2880 C   0  0  2  0  0  0  0  0  0  0  0  0
    5.5770    1.3310   -1.2330 C   0  0  0  0  0  0  0  0  0  0  0  0
    6.6490    0.3370   -0.9010 C   0  0  0  0  0  0  0  0  0  0  0  0
    2.4220    0.2880   -0.2920 N   0  0  0  0  0  0  0  0  0  0  0  0
    1.0510    0.3900   -0.2660 C   0  0  0  0  0  0  0  0  0  0  0  0
    0.6250    1.4640    0.2340 O   0  0  0  0  0  0  0  0  0  0  0  0
    0.2480   -0.6000   -0.7400 C   0  0  0  0  0  0  0  0  0  0  0  0
   -1.0340   -0.5860   -0.6990 C   0  0  0  0  0  0  0  0  0  0  0  0
   -2.0450    0.3290   -0.2790 C   0  0  0  0  0  0  0  0  0  0  0  0
   -3.3380   -0.0640   -0.3150 N   0  0  0  0  0  0  0  0  0  0  0  0
   -3.6300   -1.3660   -0.7680 C   0  0  0  0  0  0  0  0  0  0  0  0
   -3.7300   -1.8040   -2.0930 C   0  0  0  0  0  0  0  0  0  0  0  0
   -4.0230   -3.1140   -2.0200 N   0  0  0  0  0  0  0  0  0  0  0  0
   -4.1060   -3.4900   -0.7520 N   0  0  0  0  0  0  0  0  0  0  0  0
   -3.8690   -2.4400    0.0370 C   0  0  0  0  0  0  0  0  0  0  0  0
   -1.9200    1.6710    0.1200 N   0  0  0  0  0  0  0  0  0  0  0  0
   -2.3480    2.1510    1.3740 C   0  0  0  0  0  0  0  0  0  0  0  0
   -2.9670    1.4090    2.3450 C   0  0  0  0  0  0  0  0  0  0  0  0
   -3.3620    1.9560    3.5610 C   0  0  0  0  0  0  0  0  0  0  0  0
   -3.1390    3.2710    3.8240 C   0  0  0  0  0  0  0  0  0  0  0  0
   -2.5160    4.0530    2.8690 C   0  0  0  0  0  0  0  0  0  0  0  0
   -2.3100    5.3550    3.1660 F   0  0  0  0  0  0  0  0  0  0  0  0
   -2.1310    3.4870    1.6650 C   0  0  0  0  0  0  0  0  0  0  0  0
  1  2  1  0
  2  3  2  0
  2 12  1  0
  3  4  1  0
  4  5  2  3
  4  9  1  0
  6  5  1  6
  6  7  1  0
  6  8  1  0
  7  8  1  0
  9 10  1  0
 10 11  2  0
 10 12  1  0
 12 13  2  3
 13 14  1  0
 14 15  2  3
 14 21  1  0
 15 16  1  0
 16 17  1  0
 16 20  2  0
 17 18  2  0
 18 19  1  0
 19 20  1  0
 21 22  1  0
 22 23  2  0
 22 28  1  0
 23 24  1  0
 24 25  2  0
 25 26  1  0
 26 27  1  0
 26 28  2  0
M  END
