
     RDKit          3D

 28 31  0  0  0  0  0  0  0  0999 V2000
   -1.0100   -3.0780    0.2640 C   0  0  0  0  0  0  0  0  0  0  0  0
   -1.9870   -3.0330    1.1220 C   0  0  0  0  0  0  0  0  0  0  0  0
   -2.8250   -1.9170    1.4290 C   0  0  0  0  0  0  0  0  0  0  0  0
   -3.8070   -2.0970    2.3380 C   0  0  0  0  0  0  0  0  0  0  0  0
   -3.8330   -3.4430    2.8570 N   0  0  0  0  0  0  0  0  0  0  0  0
   -4.6140   -4.3860    2.3180 F   0  0  0  0  0  0  0  0  0  0  0  0
   -4.8520   -1.2580    2.9030 C   0  0  0  0  0  0  0  0  0  0  0  0
   -4.9640    0.1330    2.4090 C   0  0  0  0  0  0  0  0  0  0  0  0
   -4.9540    0.2990    0.9030 C   0  0  0  0  0  0  0  0  0  0  0  0
   -3.4960    0.4000    0.5360 C   0  0  0  0  0  0  0  0  0  0  0  0
   -3.1060    1.5570   -0.0440 C   0  0  0  0  0  0  0  0  0  0  0  0
   -1.8010    1.6810   -0.3440 N   0  0  0  0  0  0  0  0  0  0  0  0
   -0.9020    0.6990   -0.0840 C   0  0  0  0  0  0  0  0  0  0  0  0
    0.4880    0.8990   -0.4210 N   0  0  0  0  0  0  0  0  0  0  0  0
    0.9920    0.5870   -1.5510 C   0  0  0  0  0  0  0  0  0  0  0  0
    0.1740    0.0120   -2.5510 N   0  0  0  0  0  0  0  0  0  0  0  0
    2.3930    0.8150   -1.8200 C   0  0  0  0  0  0  0  0  0  0  0  0
    3.0250    0.4970   -2.9970 C   0  0  0  0  0  0  0  0  0  0  0  0
    4.3570    0.7220   -3.2340 C   0  0  0  0  0  0  0  0  0  0  0  0
    5.1330    1.3020   -2.2500 C   0  0  0  0  0  0  0  0  0  0  0  0
    4.5270    1.6300   -1.0640 C   0  0  0  0  0  0  0  0  0  0  0  0
    3.1880    1.4010   -0.8330 C   0  0  0  0  0  0  0  0  0  0  0  0
    5.3700    2.2490   -0.0290 C   0  0  0  0  0  0  0  0  0  0  0  0
    6.6520    2.4830   -0.2200 C   0  0  0  0  0  0  0  0  0  0  0  0
    7.3320    2.1370   -1.4890 C   0  0  0  0  0  0  0  0  0  0  0  0
    6.4690    1.5500   -2.4300 O   0  0  0  0  0  0  0  0  0  0  0  0
   -1.3080   -0.4310    0.4860 N   0  0  0  0  0  0  0  0  0  0  0  0
   -2.5860   -0.6250    0.8110 C   0  0  0  0  0  0  0  0  0  0  0  0
  1  2  2  0
  2  3  1  0
  3  4  2  0
  3 28  1  0
  4  5  1  0
  4  7  1  0
  5  6  1  0
  7  8  1  0
  8  9  1  0
  9 10  1  0
 10 11  2  0
 10 28  1  0
 11 12  1  0
 12 13  2  0
 13 14  1  0
 13 27  1  0
 14 15  2  3
 15 16  1  0
 15 17  1  0
 17 18  2  0
 17 22  1  0
 18 19  1  0
 19 20  2  0
 20 21  1  0
 20 26  1  0
 21 22  2  0
 21 23  1  0
 23 24  2  0
 24 25  1  0
 25 26  1  0
 27 28  2  0
M  END
