
     RDKit          3D

 33 34  0  0  0  0  0  0  0  0999 V2000
    2.0500    4.5030    1.2620 C   0  0  0  0  0  0  0  0  0  0  0  0
    1.7190    3.6160    0.2270 O   0  0  0  0  0  0  0  0  0  0  0  0
    1.1140    2.4070    0.4450 C   0  0  0  0  0  0  0  0  0  0  0  0
    0.8250    2.0350    1.6030 O   0  0  0  0  0  0  0  0  0  0  0  0
    0.7800    1.5120   -0.5930 O   0  0  0  0  0  0  0  0  0  0  0  0
    0.1620    0.2940   -0.2910 C   0  0  0  0  0  0  0  0  0  0  0  0
   -1.5340    0.1000    0.1210 S   0  0  0  0  0  0  0  0  0  0  0  0
   -1.9630   -1.2930    0.4040 C   0  0  0  0  0  0  0  0  0  0  0  0
   -2.8710   -2.2080    0.7310 N   0  0  0  0  0  0  0  0  0  0  0  0
   -4.1960   -1.8420    0.9790 C   0  0  0  0  0  0  0  0  0  0  0  0
   -4.6700   -1.6770    2.1490 O   0  0  0  0  0  0  0  0  0  0  0  0
   -5.1220   -1.6270   -0.1560 C   0  0  2  0  0  0  0  0  0  0  0  0
   -4.5690   -0.5070   -0.9760 C   0  0  0  0  0  0  0  0  0  0  0  0
   -3.9860   -0.5150   -2.0690 O   0  0  0  0  0  0  0  0  0  0  0  0
   -4.8690    0.6640   -0.1870 N   0  0  0  0  0  0  0  0  0  0  0  0
   -5.9630    0.3700    0.6720 C   0  0  0  0  0  0  0  0  0  0  0  0
   -6.4570    1.0950    1.5680 O   0  0  0  0  0  0  0  0  0  0  0  0
   -6.4380   -0.9900    0.3130 C   0  0  2  0  0  0  0  0  0  0  0  0
   -6.9960   -1.6920    1.3860 O   0  0  0  0  0  0  0  0  0  0  0  0
   -8.2300   -2.2930    1.3410 N   0  0  0  0  0  0  0  0  0  0  0  0
   -8.5860   -3.0090    0.3680 O   0  0  0  0  0  0  0  0  0  0  0  0
   -0.3470   -2.2010    0.1570 S   0  0  0  0  0  0  0  0  0  0  0  0
    0.7550   -0.9170   -0.2660 C   0  0  0  0  0  0  0  0  0  0  0  0
    2.2060   -1.2520   -0.5590 C   0  0  0  0  0  0  0  0  0  0  0  0
    2.6080   -2.4410   -0.4750 O   0  0  0  0  0  0  0  0  0  0  0  0
    3.1210   -0.2580   -0.9280 N   0  0  0  0  0  0  0  0  0  0  0  0
    4.4990   -0.5590   -1.2040 C   0  0  0  0  0  0  0  0  0  0  0  0
    4.8530   -1.7610   -1.1000 O   0  0  0  0  0  0  0  0  0  0  0  0
    5.6410    0.7300   -1.6720 S   0  0  0  0  0  0  0  0  0  0  0  0
    7.2570   -0.0430   -1.9410 C   0  0  0  0  0  0  0  0  0  0  0  0
    7.8280   -0.5900   -0.7050 C   0  0  0  0  0  0  0  0  0  0  0  0
    8.9410   -1.1520   -0.7270 O   0  0  0  0  0  0  0  0  0  0  0  0
    7.1440   -0.4870    0.4840 O   0  0  0  0  0  0  0  0  0  0  0  0
  1  2  1  0
  2  3  1  0
  3  4  2  0
  3  5  1  0
  5  6  1  0
  6  7  1  0
  6 23  2  0
  7  8  1  0
  8  9  2  3
  8 22  1  0
  9 10  1  0
 10 11  2  0
 12 10  1  1
 12 13  1  0
 12 18  1  0
 13 14  2  0
 13 15  1  0
 15 16  1  0
 16 17  2  0
 16 18  1  0
 18 19  1  1
 19 20  1  0
 20 21  2  0
 22 23  1  0
 23 24  1  0
 24 25  2  0
 24 26  1  0
 26 27  1  0
 27 28  2  0
 27 29  1  0
 29 30  1  0
 30 31  1  0
 31 32  2  0
 31 33  1  0
M  END
