
     RDKit          3D

 32 33  0  0  0  0  0  0  0  0999 V2000
   -7.9290   -0.4780    0.6790 O   0  0  0  0  0  0  0  0  0  0  0  0
   -7.9520    0.7040    0.2550 C   0  0  0  0  0  0  0  0  0  0  0  0
   -7.1780    1.1760   -0.9210 C   0  0  0  0  0  0  0  0  0  0  0  0
   -6.4160    0.0980   -1.4870 O   0  0  0  0  0  0  0  0  0  0  0  0
   -5.4610   -0.5780   -0.7620 C   0  0  0  0  0  0  0  0  0  0  0  0
   -5.2620   -0.2280    0.4280 O   0  0  0  0  0  0  0  0  0  0  0  0
   -4.6520   -1.6960   -1.3020 C   0  0  0  0  0  0  0  0  0  0  0  0
   -3.7500   -2.2110   -0.3680 O   0  0  0  0  0  0  0  0  0  0  0  0
   -2.7520   -1.4440    0.2140 C   0  0  0  0  0  0  0  0  0  0  0  0
   -2.6830   -0.2280   -0.1400 O   0  0  0  0  0  0  0  0  0  0  0  0
   -1.8010   -1.9910    1.2010 C   0  0  0  0  0  0  0  0  0  0  0  0
   -0.8830   -1.0080    1.6330 O   0  0  0  0  0  0  0  0  0  0  0  0
   -0.0410   -0.3920    0.6910 C   0  0  0  0  0  0  0  0  0  0  0  0
   -0.1260   -0.7310   -0.5070 O   0  0  0  0  0  0  0  0  0  0  0  0
    0.9040    0.6110    1.0950 N   0  0  0  0  0  0  0  0  0  0  0  0
    1.7420    1.2140    0.1150 C   0  0  0  0  0  0  0  0  0  0  0  0
    1.6090    0.8360   -1.0640 O   0  0  0  0  0  0  0  0  0  0  0  0
    2.7170    2.2460    0.5450 C   0  0  1  0  0  0  0  0  0  0  0  0
    3.8900    1.5330    1.7630 S   0  0  0  0  0  0  0  0  0  0  0  0
    5.1160    0.7690    0.6950 C   0  0  0  0  0  0  0  0  0  0  0  0
    6.0250   -0.2240    1.0770 C   0  0  0  0  0  0  0  0  0  0  0  0
    6.8860   -0.7120    0.1760 N   0  0  0  0  0  0  0  0  0  0  0  0
    7.8080   -1.7020    0.5130 O   0  0  0  0  0  0  0  0  0  0  0  0
    6.8460   -0.2260   -1.0730 C   0  0  0  0  0  0  0  0  0  0  0  0
    7.8380   -0.8120   -2.0480 C   0  0  0  0  0  0  0  0  0  0  0  0
    9.3810    0.1020   -2.0460 S   0  0  0  0  0  0  0  0  0  0  0  0
   10.2120   -0.0380   -0.5690 O   0  0  0  0  0  0  0  0  0  0  0  0
    5.9920    0.7170   -1.4580 N   0  0  0  0  0  0  0  0  0  0  0  0
    5.0920    1.2480   -0.5760 C   0  0  0  0  0  0  0  0  0  0  0  0
    3.8560    2.5130   -0.8410 S   0  0  0  0  0  0  0  0  0  0  0  0
   -8.7590    1.6530    0.9270 N   0  0  0  0  0  0  0  0  0  0  0  0
   -9.5110    1.3350    2.0140 O   0  0  0  0  0  0  0  0  0  0  0  0
  1  2  2  0
  2  3  1  0
  2 31  1  0
  3  4  1  0
  4  5  1  0
  5  6  2  0
  5  7  1  0
  7  8  1  0
  8  9  1  0
  9 10  2  0
  9 11  1  0
 11 12  1  0
 12 13  1  0
 13 14  2  0
 13 15  1  0
 15 16  1  0
 16 17  2  0
 18 16  1  6
 18 19  1  0
 18 30  1  0
 19 20  1  0
 20 21  2  0
 20 29  1  0
 21 22  1  0
 22 23  1  0
 22 24  2  0
 24 25  1  0
 24 28  1  0
 25 26  1  0
 26 27  1  0
 28 29  2  0
 29 30  1  0
 31 32  1  0
M  CHG  2  22   1  23  -1
M  END
