
     RDKit          3D

 33 33  0  0  0  0  0  0  0  0999 V2000
    9.1230   -0.7540   -1.4480 C   0  0  0  0  0  0  0  0  0  0  0  0
    8.0040   -1.1790   -0.6990 O   0  0  0  0  0  0  0  0  0  0  0  0
    6.7210   -0.6600   -0.9170 C   0  0  0  0  0  0  0  0  0  0  0  0
    6.6670    0.2100   -1.8320 O   0  0  0  0  0  0  0  0  0  0  0  0
    5.5950   -1.0880   -0.1660 N   0  0  0  0  0  0  0  0  0  0  0  0
    5.8900   -2.0570    0.8120 O   0  0  0  0  0  0  0  0  0  0  0  0
    4.3980   -0.6760   -0.3200 C   0  0  0  0  0  0  0  0  0  0  0  0
    2.9770   -1.1980    0.6120 S   0  0  0  0  0  0  0  0  0  0  0  0
    1.6270   -0.1990   -0.0770 C   0  0  1  0  0  0  0  0  0  0  0  0
    1.5290    1.3240    0.8980 S   0  0  0  0  0  0  0  0  0  0  0  0
    0.9780    0.9580    2.5720 C   0  0  0  0  0  0  0  0  0  0  0  0
   -0.4400    0.5500    2.6330 C   0  0  0  0  0  0  0  0  0  0  0  0
   -0.8860    0.2010    3.7640 O   0  0  0  0  0  0  0  0  0  0  0  0
   -1.3190    0.5290    1.5100 N   0  0  0  0  0  0  0  0  0  0  0  0
   -2.6550    0.1280    1.6520 C   0  0  0  0  0  0  0  0  0  0  0  0
   -3.0210   -0.1980    2.8340 O   0  0  0  0  0  0  0  0  0  0  0  0
   -3.6440    0.0470    0.5990 C   0  0  0  0  0  0  0  0  0  0  0  0
   -4.8760   -0.3440    0.9160 N   0  0  0  0  0  0  0  0  0  0  0  0
   -5.1890   -0.6570    2.2030 O   0  0  0  0  0  0  0  0  0  0  0  0
   -5.3330   -2.0150    2.5660 C   0  0  0  0  0  0  0  0  0  0  0  0
   -5.6790   -2.1310    4.0500 C   0  0  0  0  0  0  0  0  0  0  0  0
   -6.8900   -1.4380    4.2230 O   0  0  0  0  0  0  0  0  0  0  0  0
   -3.3450    0.3720   -0.7650 C   0  0  0  0  0  0  0  0  0  0  0  0
   -4.2850    0.2820   -1.6270 O   0  0  0  0  0  0  0  0  0  0  0  0
   -2.1280    0.7710   -1.2070 O   0  0  0  0  0  0  0  0  0  0  0  0
   -1.8420    1.0860   -2.5400 C   0  0  0  0  0  0  0  0  0  0  0  0
   -2.6490    2.2540   -3.0770 C   0  0  0  0  0  0  0  0  0  0  0  0
   -2.2230    2.4310   -4.4530 N   0  0  0  0  0  0  0  0  0  0  0  0
   -3.0780    2.3440   -5.3520 O   0  0  0  0  0  0  0  0  0  0  0  0
   -0.8910    2.6890   -4.6730 O   0  0  0  0  0  0  0  0  0  0  0  0
    2.0350    0.1690   -1.4710 C   0  0  0  0  0  0  0  0  0  0  0  0
    3.8020    0.4960   -1.4680 S   0  0  0  0  0  0  0  0  0  0  0  0
    4.3140    0.1550   -2.8850 O   0  0  0  0  0  0  0  0  0  0  0  0
  1  2  1  0
  2  3  1  0
  3  4  2  0
  3  5  1  0
  5  6  1  0
  5  7  2  3
  7  8  1  0
  7 32  1  0
  8  9  1  0
  9 10  1  1
  9 31  1  0
 10 11  1  0
 11 12  1  0
 12 13  2  0
 12 14  1  0
 14 15  1  0
 15 16  2  0
 15 17  1  0
 17 18  2  3
 17 23  1  0
 18 19  1  0
 19 20  1  0
 20 21  1  0
 21 22  1  0
 23 24  2  0
 23 25  1  0
 25 26  1  0
 26 27  1  0
 27 28  1  0
 28 29  2  0
 28 30  1  0
 32 31  1  6
 32 33  2  0
M  CHG  4   5   1   6  -1  28   1  30  -1
M  END
