
     RDKit          3D

 33 34  0  0  0  0  0  0  0  0999 V2000
   -0.1490    2.9360   -2.7830 C   0  0  0  0  0  0  0  0  0  0  0  0
   -0.8370    1.5750   -2.6170 C   0  0  1  0  0  0  0  0  0  0  0  0
    0.1950    0.2620   -3.3310 S   0  0  0  0  0  0  0  0  0  0  0  0
    1.7160    0.0800   -2.4060 C   0  0  0  0  0  0  0  0  0  0  0  0
    1.9690    0.8400   -1.3600 N   0  0  0  0  0  0  0  0  0  0  0  0
    3.1200    0.7550   -0.5980 C   0  0  0  0  0  0  0  0  0  0  0  0
    3.4140    1.5680    0.5410 C   0  0  0  0  0  0  0  0  0  0  0  0
    4.9430    1.0210    1.0660 S   0  0  0  0  0  0  0  0  0  0  0  0
    5.1810   -0.2400   -0.1810 C   0  0  0  0  0  0  0  0  0  0  0  0
    6.5870   -1.2870   -0.3140 S   0  0  0  0  0  0  0  0  0  0  0  0
    7.8170   -0.6050    0.2560 O   0  0  0  0  0  0  0  0  0  0  0  0
    6.2760   -2.7030    0.6280 O   0  0  0  0  0  0  0  0  0  0  0  0
    6.6870   -2.7990    1.9440 N   0  0  0  0  0  0  0  0  0  0  0  0
    7.8470   -2.5620    2.3150 O   0  0  0  0  0  0  0  0  0  0  0  0
    4.0470   -0.1360   -0.9120 C   0  0  0  0  0  0  0  0  0  0  0  0
    3.7700   -0.9530   -2.0400 C   0  0  0  0  0  0  0  0  0  0  0  0
    4.5780   -1.8280   -2.4230 O   0  0  0  0  0  0  0  0  0  0  0  0
    2.6380   -0.8310   -2.7460 N   0  0  0  0  0  0  0  0  0  0  0  0
   -1.0030    1.3620   -1.1600 C   0  0  0  0  0  0  0  0  0  0  0  0
   -0.5410    0.3500   -0.6210 O   0  0  0  0  0  0  0  0  0  0  0  0
   -1.6730    2.2870   -0.3930 O   0  0  0  0  0  0  0  0  0  0  0  0
   -1.8670    2.1430    1.0020 C   0  0  0  0  0  0  0  0  0  0  0  0
   -2.6370    0.9270    1.3250 C   0  0  0  0  0  0  0  0  0  0  0  0
   -3.0450    0.1840    0.3840 O   0  0  0  0  0  0  0  0  0  0  0  0
   -2.9260    0.5770    2.6290 O   0  0  0  0  0  0  0  0  0  0  0  0
   -3.6790   -0.6060    2.9050 C   0  0  0  0  0  0  0  0  0  0  0  0
   -5.0140   -0.4860    2.2770 C   0  0  0  0  0  0  0  0  0  0  0  0
   -5.3230    0.5410    1.6400 O   0  0  0  0  0  0  0  0  0  0  0  0
   -5.9680   -1.5280    2.3830 N   0  0  0  0  0  0  0  0  0  0  0  0
   -7.2200   -1.4040    1.7900 O   0  0  0  0  0  0  0  0  0  0  0  0
   -7.3450   -1.1170    0.4430 C   0  0  0  0  0  0  0  0  0  0  0  0
   -6.3350   -0.9630   -0.2730 O   0  0  0  0  0  0  0  0  0  0  0  0
   -8.5950   -0.9920   -0.1460 O   0  0  0  0  0  0  0  0  0  0  0  0
  2  1  1  1
  2  3  1  0
  2 19  1  0
  3  4  1  0
  4  5  2  0
  4 18  1  0
  5  6  1  0
  6  7  2  0
  6 15  1  0
  7  8  1  0
  8  9  1  0
  9 10  1  0
  9 15  2  0
 10 11  2  0
 10 12  1  1
 12 13  1  0
 13 14  2  0
 15 16  1  0
 16 17  2  0
 16 18  1  0
 19 20  2  0
 19 21  1  0
 21 22  1  0
 22 23  1  0
 23 24  2  0
 23 25  1  0
 25 26  1  0
 26 27  1  0
 27 28  2  0
 27 29  1  0
 29 30  1  0
 30 31  1  0
 31 32  2  0
 31 33  1  0
M  CHG  2  13   1  33  -1
M  END
