
     RDKit          3D

 32 33  0  0  0  0  0  0  0  0999 V2000
   -4.1470    3.9250   -0.9790 C   0  0  0  0  0  0  0  0  0  0  0  0
   -4.4250    2.5420   -0.5210 C   0  0  0  0  0  0  0  0  0  0  0  0
   -3.5170    1.5840   -0.5430 C   0  0  0  0  0  0  0  0  0  0  0  0
   -3.8060    0.3010   -0.1080 O   0  0  0  0  0  0  0  0  0  0  0  0
   -3.6150   -0.7630   -1.0590 C   0  0  2  0  0  0  0  0  0  0  0  0
   -4.4920   -0.4970   -2.2080 C   0  0  0  0  0  0  0  0  0  0  0  0
   -5.2270    0.5020   -2.2110 O   0  0  0  0  0  0  0  0  0  0  0  0
   -4.5570   -1.3220   -3.3380 O   0  0  0  0  0  0  0  0  0  0  0  0
   -4.0090   -2.0570   -0.4290 C   0  0  0  0  0  0  0  0  0  0  0  0
   -3.3010   -3.2550   -0.9720 C   0  0  1  0  0  0  0  0  0  0  0  0
   -3.8590   -3.5740   -2.2140 O   0  0  0  0  0  0  0  0  0  0  0  0
   -1.8350   -3.0010   -1.0280 C   0  0  1  0  0  0  0  0  0  0  0  0
   -1.3420   -3.2250   -2.3190 O   0  0  0  0  0  0  0  0  0  0  0  0
   -1.5750   -1.5600   -0.6130 C   0  0  1  0  0  0  0  0  0  0  0  0
   -0.0550   -1.3830   -0.7170 C   0  0  2  0  0  0  0  0  0  0  0  0
    0.4290   -2.3690    0.1550 O   0  0  0  0  0  0  0  0  0  0  0  0
    0.3760   -0.0550   -0.2350 C   0  0  0  0  0  0  0  0  0  0  0  0
    1.6450    0.3030   -0.1430 O   0  0  0  0  0  0  0  0  0  0  0  0
    2.6090   -0.3260    0.5330 C   0  0  2  0  0  0  0  0  0  0  0  0
    3.1460   -1.5560   -0.1660 C   0  0  0  0  0  0  0  0  0  0  0  0
    2.8640   -1.7530   -1.3460 O   0  0  0  0  0  0  0  0  0  0  0  0
    3.9430   -2.4400    0.5210 O   0  0  0  0  0  0  0  0  0  0  0  0
    2.4280   -0.5580    1.9740 C   0  0  0  0  0  0  0  0  0  0  0  0
    2.4760    0.5060    2.7710 C   0  0  0  0  0  0  0  0  0  0  0  0
    2.7090    1.8260    2.1210 C   0  0  0  0  0  0  0  0  0  0  0  0
    3.6520    1.7180    0.9780 C   0  0  1  0  0  0  0  0  0  0  0  0
    5.0180    2.2620    1.3950 C   0  0  2  0  0  0  0  0  0  0  0  0
    4.8280    3.5160    1.9770 O   0  0  0  0  0  0  0  0  0  0  0  0
    5.9470    2.3730    0.2020 C   0  0  0  0  0  0  0  0  0  0  0  0
    6.1530    1.1480   -0.3930 O   0  0  0  0  0  0  0  0  0  0  0  0
    3.8030    0.4940    0.4060 O   0  0  0  0  0  0  0  0  0  0  0  0
   -2.2600   -0.6810   -1.4030 O   0  0  0  0  0  0  0  0  0  0  0  0
  1  2  1  0
  2  3  2  3
  3  4  1  0
  5  4  1  1
  5  6  1  0
  5  9  1  0
  5 32  1  0
  6  7  2  0
  6  8  1  0
  9 10  1  0
 10 11  1  6
 10 12  1  0
 12 13  1  6
 12 14  1  0
 14 15  1  0
 14 32  1  6
 15 16  1  1
 15 17  1  0
 17 18  1  0
 19 18  1  6
 19 20  1  0
 19 23  1  0
 19 31  1  0
 20 21  2  0
 20 22  1  0
 23 24  2  0
 24 25  1  0
 26 25  1  1
 26 27  1  0
 26 31  1  0
 27 28  1  6
 27 29  1  0
 29 30  1  0
M  END
