
     RDKit          3D

 33 33  0  0  0  0  0  0  0  0999 V2000
   -8.7730   -0.2240    1.0610 C   0  0  0  0  0  0  0  0  0  0  0  0
   -8.0980   -0.8280   -0.0170 O   0  0  0  0  0  0  0  0  0  0  0  0
   -6.7400   -1.1480    0.1740 C   0  0  0  0  0  0  0  0  0  0  0  0
   -6.1920   -0.8910    1.2710 O   0  0  0  0  0  0  0  0  0  0  0  0
   -5.9900   -1.7370   -0.8200 O   0  0  0  0  0  0  0  0  0  0  0  0
   -4.6310   -2.0790   -0.6900 C   0  0  2  0  0  0  0  0  0  0  0  0
   -4.3500   -3.0600    0.4130 C   0  0  0  0  0  0  0  0  0  0  0  0
   -3.8360   -0.7890   -0.4690 C   0  0  0  0  0  0  0  0  0  0  0  0
   -2.4880   -1.1590   -0.4650 O   0  0  0  0  0  0  0  0  0  0  0  0
   -1.4860   -0.2270   -0.2570 C   0  0  0  0  0  0  0  0  0  0  0  0
   -1.7540    0.9890   -0.0590 O   0  0  0  0  0  0  0  0  0  0  0  0
   -0.1390   -0.6400   -0.2670 C   0  0  0  0  0  0  0  0  0  0  0  0
    0.4390   -2.3390   -0.5610 S   0  0  0  0  0  0  0  0  0  0  0  0
    2.2570   -1.8650   -0.3850 C   0  0  0  0  0  0  0  0  0  0  0  0
    3.1680   -2.9370   -0.5470 N   0  0  0  0  0  0  0  0  0  0  0  0
    4.5740   -2.6990   -0.4560 C   0  0  0  0  0  0  0  0  0  0  0  0
    4.9280   -1.5260   -0.2340 O   0  0  0  0  0  0  0  0  0  0  0  0
    5.5330   -3.7240   -0.6080 N   0  0  0  0  0  0  0  0  0  0  0  0
    7.2250   -3.4040   -0.4990 S   0  0  1  0  0  0  0  0  0  0  0  0
    7.9660   -4.7180   -0.3170 O   0  0  0  0  0  0  0  0  0  0  0  0
    7.7450   -2.7530   -1.7480 O   0  0  0  0  0  0  0  0  0  0  0  0
    7.5110   -2.4880    0.8800 O   0  0  0  0  0  0  0  0  0  0  0  0
    2.1390   -0.6950   -0.1690 N   0  0  0  0  0  0  0  0  0  0  0  0
    1.0820    0.0410   -0.0790 C   0  0  0  0  0  0  0  0  0  0  0  0
    0.9580    1.8240    0.2630 S   0  0  0  0  0  0  0  0  0  0  0  0
    2.5880    2.5400    0.4950 C   0  0  1  0  0  0  0  0  0  0  0  0
    3.3380    2.4790   -0.8120 C   0  0  0  0  0  0  0  0  0  0  0  0
    2.4410    3.9570    0.9950 C   0  0  0  0  0  0  0  0  0  0  0  0
    1.7040    4.7700    0.0500 N   0  0  2  0  0  0  0  0  0  0  0  0
    2.0270    6.1850    0.3130 C   0  0  0  0  0  0  0  0  0  0  0  0
    0.3750    4.6040    0.2610 O   0  0  0  0  0  0  0  0  0  0  0  0
   -4.1640   -2.6020   -1.9600 N   0  0  0  0  0  0  0  0  0  0  0  0
   -3.8500   -3.7530   -2.0720 O   0  0  0  0  0  0  0  0  0  0  0  0
  1  2  1  0
  2  3  1  0
  3  4  2  0
  3  5  1  0
  5  6  1  0
  6  7  1  1
  6  8  1  0
  6 32  1  0
  8  9  1  0
  9 10  1  0
 10 11  2  0
 10 12  1  0
 12 13  1  0
 12 24  2  0
 13 14  1  0
 14 15  1  0
 14 23  2  0
 15 16  1  0
 16 17  2  0
 16 18  1  0
 18 19  1  0
 19 20  2  0
 19 21  2  0
 19 22  1  1
 23 24  1  0
 24 25  1  0
 25 26  1  0
 26 27  1  6
 26 28  1  0
 28 29  1  0
 29 30  1  1
 29 31  1  0
 32 33  2  0
M  CHG  2  29   1  31  -1
M  END
