
     RDKit          3D

 20 22  0  0  0  0  0  0  0  0999 V2000
   -4.0080    1.4270   -0.6430 C   0  0  0  0  0  0  0  0  0  0  0  0
   -2.8740    0.6060   -0.8010 O   0  0  0  0  0  0  0  0  0  0  0  0
   -2.6150   -0.5050   -0.0080 C   0  0  0  0  0  0  0  0  0  0  0  0
   -1.4500   -0.7570    0.5240 C   0  0  0  0  0  0  0  0  0  0  0  0
   -0.2770    0.0830    0.3590 C   0  0  0  0  0  0  0  0  0  0  0  0
   -0.3100    1.4560    0.3050 C   0  0  0  0  0  0  0  0  0  0  0  0
    0.8350    2.2420    0.1450 C   0  0  0  0  0  0  0  0  0  0  0  0
    0.7780    3.6270    0.0940 O   0  0  0  0  0  0  0  0  0  0  0  0
    2.0850    1.6530    0.0310 C   0  0  0  0  0  0  0  0  0  0  0  0
    2.1000    0.2830    0.0870 C   0  0  0  0  0  0  0  0  0  0  0  0
    3.3860   -0.1780   -0.0370 C   0  0  0  0  0  0  0  0  0  0  0  0
    3.5550   -1.5560    0.0020 C   0  0  0  0  0  0  0  0  0  0  0  0
    4.8470   -2.0480   -0.1220 O   0  0  0  0  0  0  0  0  0  0  0  0
    2.4590   -2.3670    0.1570 C   0  0  0  0  0  0  0  0  0  0  0  0
    1.1790   -1.8700    0.2790 C   0  0  0  0  0  0  0  0  0  0  0  0
    0.9760   -0.4970    0.2440 C   0  0  0  0  0  0  0  0  0  0  0  0
    4.2970    0.9910   -0.1860 C   0  0  0  0  0  0  0  0  0  0  0  0
    3.3970    2.0780   -0.1320 O   0  0  0  0  0  0  0  0  0  0  0  0
   -3.7380   -1.4360    0.2310 C   0  0  0  0  0  0  0  0  0  0  0  0
   -4.2430   -1.9840   -0.9400 O   0  0  0  0  0  0  0  0  0  0  0  0
  1  2  1  0
  2  3  1  0
  3  4  2  3
  3 19  1  0
  4  5  1  0
  5  6  2  0
  5 16  1  0
  6  7  1  0
  7  8  1  0
  7  9  2  0
  9 10  1  0
  9 18  1  0
 10 11  2  0
 10 16  1  0
 11 12  1  0
 11 17  1  0
 12 13  1  0
 12 14  2  0
 14 15  1  0
 15 16  2  0
 17 18  1  0
 19 20  1  0
M  END
