
     RDKit          3D

 20 22  0  0  0  0  0  0  0  0999 V2000
   -4.5340    0.4450    0.0570 C   0  0  0  0  0  0  0  0  0  0  0  0
   -3.5670   -0.2290   -0.6740 O   0  0  0  0  0  0  0  0  0  0  0  0
   -2.2140   -0.2630   -0.4160 C   0  0  0  0  0  0  0  0  0  0  0  0
   -1.7460   -1.2610    0.4000 C   0  0  0  0  0  0  0  0  0  0  0  0
   -2.7120   -2.2630    0.9750 C   0  0  0  0  0  0  0  0  0  0  0  0
   -0.4060   -1.3970    0.7300 C   0  0  0  0  0  0  0  0  0  0  0  0
    0.4810   -0.4880    0.2110 C   0  0  0  0  0  0  0  0  0  0  0  0
    0.0400    0.5390   -0.6220 C   0  0  0  0  0  0  0  0  0  0  0  0
   -1.3040    0.6200   -0.9120 C   0  0  0  0  0  0  0  0  0  0  0  0
   -1.8200    1.6250   -1.7440 O   0  0  0  0  0  0  0  0  0  0  0  0
    0.9050    1.5610   -1.2020 C   0  0  1  0  0  0  0  0  0  0  0  0
    0.4390    2.8020   -0.7220 O   0  0  0  0  0  0  0  0  0  0  0  0
    2.3520    1.4020   -0.9510 C   0  0  0  0  0  0  0  0  0  0  0  0
    2.7440    0.3210   -0.0550 C   0  0  0  0  0  0  0  0  0  0  0  0
    4.0980    0.2260    0.2330 C   0  0  0  0  0  0  0  0  0  0  0  0
    4.5410   -0.7780    1.0650 C   0  0  0  0  0  0  0  0  0  0  0  0
    5.7650   -0.9060    1.3580 O   0  0  0  0  0  0  0  0  0  0  0  0
    3.6950   -1.6370    1.5800 O   0  0  0  0  0  0  0  0  0  0  0  0
    2.3930   -1.5900    1.3370 C   0  0  0  0  0  0  0  0  0  0  0  0
    1.9050   -0.6150    0.5200 C   0  0  0  0  0  0  0  0  0  0  0  0
  1  2  1  0
  2  3  1  0
  3  4  2  0
  3  9  1  0
  4  5  1  0
  4  6  1  0
  6  7  2  0
  7  8  1  0
  7 20  1  0
  8  9  2  0
  8 11  1  0
  9 10  1  0
 11 12  1  1
 11 13  1  0
 13 14  1  0
 14 15  2  0
 14 20  1  0
 15 16  1  0
 16 17  2  0
 16 18  1  0
 18 19  1  0
 19 20  2  0
M  END
