
     RDKit          3D

 20 22  0  0  0  0  0  0  0  0999 V2000
    4.3920   -2.1000   -0.3960 C   0  0  0  0  0  0  0  0  0  0  0  0
    3.2110   -1.2000   -0.1990 C   0  0  0  0  0  0  0  0  0  0  0  0
    3.3650    0.1110    0.1990 C   0  0  0  0  0  0  0  0  0  0  0  0
    2.2740    0.9410    0.3810 C   0  0  0  0  0  0  0  0  0  0  0  0
    2.4220    2.2720    0.7830 O   0  0  0  0  0  0  0  0  0  0  0  0
    0.9830    0.5000    0.1740 C   0  0  0  0  0  0  0  0  0  0  0  0
    0.8290   -0.8190   -0.2260 C   0  0  0  0  0  0  0  0  0  0  0  0
    1.9240   -1.6470   -0.4070 C   0  0  0  0  0  0  0  0  0  0  0  0
   -0.5400   -1.2840   -0.4440 C   0  0  0  0  0  0  0  0  0  0  0  0
   -0.7180   -2.4730   -0.8070 O   0  0  0  0  0  0  0  0  0  0  0  0
   -1.6980   -0.4120   -0.2540 C   0  0  0  0  0  0  0  0  0  0  0  0
   -2.9990   -0.8230   -0.4530 C   0  0  0  0  0  0  0  0  0  0  0  0
   -4.0950   -0.0190   -0.2790 C   0  0  0  0  0  0  0  0  0  0  0  0
   -5.4050   -0.4550   -0.4850 O   0  0  0  0  0  0  0  0  0  0  0  0
   -3.8970    1.2840    0.1190 C   0  0  0  0  0  0  0  0  0  0  0  0
   -2.5940    1.7490    0.3330 C   0  0  0  0  0  0  0  0  0  0  0  0
   -2.3650    3.0600    0.7350 O   0  0  0  0  0  0  0  0  0  0  0  0
   -1.5240    0.8980    0.1440 C   0  0  0  0  0  0  0  0  0  0  0  0
   -0.1670    1.3830    0.3680 C   0  0  0  0  0  0  0  0  0  0  0  0
    0.0630    2.5760    0.7350 O   0  0  0  0  0  0  0  0  0  0  0  0
  1  2  1  0
  2  3  2  0
  2  8  1  0
  3  4  1  0
  4  5  1  0
  4  6  2  0
  6  7  1  0
  6 19  1  0
  7  8  2  0
  7  9  1  0
  9 10  2  0
  9 11  1  0
 11 12  2  0
 11 18  1  0
 12 13  1  0
 13 14  1  0
 13 15  2  0
 15 16  1  0
 16 17  1  0
 16 18  2  0
 18 19  1  0
 19 20  2  0
M  END
