
     RDKit          3D

 20 22  0  0  0  0  0  0  0  0999 V2000
    3.1480    1.9700   -0.9680 O   0  0  0  0  0  0  0  0  0  0  0  0
    4.0080    1.4970   -0.1780 C   0  0  0  0  0  0  0  0  0  0  0  0
    5.2780    1.2600   -0.7420 O   0  0  0  0  0  0  0  0  0  0  0  0
    3.7460    1.1950    1.2550 C   0  0  0  0  0  0  0  0  0  0  0  0
    2.4190    1.4670    1.5500 O   0  0  0  0  0  0  0  0  0  0  0  0
    1.2930    0.8820    1.0150 C   0  0  0  0  0  0  0  0  0  0  0  0
    1.3910   -0.1260    0.0680 C   0  0  0  0  0  0  0  0  0  0  0  0
    0.2230   -0.6470   -0.4090 C   0  0  0  0  0  0  0  0  0  0  0  0
   -1.0260   -0.2190    0.0070 C   0  0  0  0  0  0  0  0  0  0  0  0
   -1.0850    0.7820    0.9480 C   0  0  0  0  0  0  0  0  0  0  0  0
    0.0790    1.3520    1.4700 C   0  0  0  0  0  0  0  0  0  0  0  0
    0.0260    2.3680    2.4240 O   0  0  0  0  0  0  0  0  0  0  0  0
   -2.3700    1.3280    1.4590 C   0  0  0  0  0  0  0  0  0  0  0  0
   -3.4800    0.5960    1.1700 O   0  0  0  0  0  0  0  0  0  0  0  0
   -3.5590    0.0710   -0.1150 C   0  0  0  0  0  0  0  0  0  0  0  0
   -2.3400   -0.7230   -0.4450 C   0  0  0  0  0  0  0  0  0  0  0  0
   -2.5810   -1.8330   -1.1140 C   0  0  0  0  0  0  0  0  0  0  0  0
   -1.7280   -2.9250   -1.6370 C   0  0  0  0  0  0  0  0  0  0  0  0
   -0.3390   -2.5880   -1.8700 C   0  0  0  0  0  0  0  0  0  0  0  0
    0.4980   -1.6790   -1.4020 C   0  0  0  0  0  0  0  0  0  0  0  0
  1  2  2  0
  2  3  1  0
  2  4  1  0
  4  5  1  0
  5  6  1  0
  6  7  2  0
  6 11  1  0
  7  8  1  0
  8  9  2  0
  8 20  1  0
  9 10  1  0
  9 16  1  0
 10 11  2  0
 10 13  1  0
 11 12  1  0
 13 14  1  0
 14 15  1  0
 15 16  1  0
 16 17  2  0
 17 18  1  0
 18 19  1  0
 19 20  2  0
M  END
