
     RDKit          3D

 20 22  0  0  0  0  0  0  0  0999 V2000
   -2.8750    1.9500   -1.7290 O   0  0  0  0  0  0  0  0  0  0  0  0
   -3.0330    0.8400   -0.9320 C   0  0  0  0  0  0  0  0  0  0  0  0
   -4.1070   -0.0010   -1.1160 C   0  0  0  0  0  0  0  0  0  0  0  0
   -4.3150   -1.1250   -0.3490 C   0  0  0  0  0  0  0  0  0  0  0  0
   -3.4220   -1.4420    0.6530 C   0  0  0  0  0  0  0  0  0  0  0  0
   -3.5820   -2.5520    1.4480 O   0  0  0  0  0  0  0  0  0  0  0  0
   -2.3320   -0.6200    0.8660 C   0  0  0  0  0  0  0  0  0  0  0  0
   -1.4520   -0.9590    1.8750 O   0  0  0  0  0  0  0  0  0  0  0  0
   -0.2980   -0.2730    2.2400 C   0  0  0  0  0  0  0  0  0  0  0  0
    0.6700   -0.2190    1.1170 C   0  0  0  0  0  0  0  0  0  0  0  0
    0.5690   -0.9940   -0.0180 C   0  0  0  0  0  0  0  0  0  0  0  0
    1.4900   -0.9190   -1.0520 C   0  0  0  0  0  0  0  0  0  0  0  0
    1.3300   -1.7280   -2.1680 O   0  0  0  0  0  0  0  0  0  0  0  0
    2.5440   -0.0280   -0.9230 C   0  0  0  0  0  0  0  0  0  0  0  0
    2.6930    0.7700    0.1920 C   0  0  0  0  0  0  0  0  0  0  0  0
    1.7370    0.6490    1.1940 C   0  0  0  0  0  0  0  0  0  0  0  0
    3.9100    1.6030    0.0230 C   0  0  0  0  0  0  0  0  0  0  0  0
    4.6400    0.8850   -1.0910 C   0  0  0  0  0  0  0  0  0  0  0  0
    3.5840    0.2290   -1.8070 O   0  0  0  0  0  0  0  0  0  0  0  0
   -2.1390    0.5080    0.0840 C   0  0  0  0  0  0  0  0  0  0  0  0
  1  2  1  0
  2  3  2  0
  2 20  1  0
  3  4  1  0
  4  5  2  0
  5  6  1  0
  5  7  1  0
  7  8  1  0
  7 20  2  0
  8  9  1  0
  9 10  1  0
 10 11  2  0
 10 16  1  0
 11 12  1  0
 12 13  1  0
 12 14  2  0
 14 15  1  0
 14 19  1  0
 15 16  2  0
 15 17  1  0
 17 18  1  0
 18 19  1  0
M  END
