
     RDKit          3D

 12 12  0  0  0  0  0  0  0  0999 V2000
   -2.9830    0.6820   -0.5890 C   0  0  0  0  0  0  0  0  0  0  0  0
   -2.3500   -0.3760    0.1050 O   0  0  0  0  0  0  0  0  0  0  0  0
   -0.9540   -0.3640    0.1730 C   0  0  0  0  0  0  0  0  0  0  0  0
   -0.2180    0.6330   -0.4100 C   0  0  0  0  0  0  0  0  0  0  0  0
    1.1830    0.5960   -0.3120 C   0  0  0  0  0  0  0  0  0  0  0  0
    1.9070    1.6650   -0.9410 C   0  0  0  0  0  0  0  0  0  0  0  0
    3.1380    1.8210   -0.9720 O   0  0  0  0  0  0  0  0  0  0  0  0
    1.7690   -0.4300    0.3600 C   0  0  0  0  0  0  0  0  0  0  0  0
    3.1280   -0.5280    0.4940 O   0  0  0  0  0  0  0  0  0  0  0  0
    1.0030   -1.4560    0.9600 C   0  0  0  0  0  0  0  0  0  0  0  0
   -0.3550   -1.4140    0.8610 C   0  0  0  0  0  0  0  0  0  0  0  0
   -1.1600   -2.4120    1.4410 O   0  0  0  0  0  0  0  0  0  0  0  0
  1  2  1  0
  2  3  1  0
  3  4  2  0
  3 11  1  0
  4  5  1  0
  5  6  1  0
  5  8  2  0
  6  7  2  0
  8  9  1  0
  8 10  1  0
 10 11  2  0
 11 12  1  0
M  END
