
     RDKit          3D

 11 11  0  0  0  0  0  0  0  0999 V2000
   -3.0080    0.5210   -2.5340 O   0  0  0  0  0  0  0  0  0  0  0  0
   -2.2790    0.2120   -1.5710 C   0  0  0  0  0  0  0  0  0  0  0  0
   -2.8680   -0.3870   -0.3260 C   0  0  0  0  0  0  0  0  0  0  0  0
   -2.3370    0.4480    0.8230 C   0  0  0  0  0  0  0  0  0  0  0  0
   -0.8430    0.4010    0.8770 C   0  0  0  0  0  0  0  0  0  0  0  0
   -0.2320    0.8830   -0.3880 C   0  0  1  0  0  0  0  0  0  0  0  0
    1.2170    0.5990   -0.5520 C   0  0  0  0  0  0  0  0  0  0  0  0
    1.6070   -0.8360   -0.5360 C   0  0  0  0  0  0  0  0  0  0  0  0
    3.1310   -0.8870   -0.7180 C   0  0  0  0  0  0  0  0  0  0  0  0
    3.7800   -0.2160    0.2910 O   0  0  0  0  0  0  0  0  0  0  0  0
   -0.9030    0.3850   -1.5520 O   0  0  0  0  0  0  0  0  0  0  0  0
  1  2  2  0
  2  3  1  0
  2 11  1  0
  3  4  1  0
  4  5  1  0
  5  6  1  0
  6  7  1  6
  6 11  1  0
  7  8  1  0
  8  9  1  0
  9 10  1  0
M  END
