
     RDKit          3D

 12 12  0  0  0  0  0  0  0  0999 V2000
    3.2820    0.4780   -0.0300 C   0  0  0  0  0  0  0  0  0  0  0  0
    1.8320    0.1160   -0.0220 C   0  0  0  0  0  0  0  0  0  0  0  0
    1.4550   -1.2070    0.0950 C   0  0  0  0  0  0  0  0  0  0  0  0
    0.1190   -1.5550    0.1040 C   0  0  0  0  0  0  0  0  0  0  0  0
   -0.2200   -2.9110    0.2250 O   0  0  0  0  0  0  0  0  0  0  0  0
   -0.8430   -0.5730   -0.0050 C   0  0  0  0  0  0  0  0  0  0  0  0
   -2.1850   -0.9270    0.0040 O   0  0  0  0  0  0  0  0  0  0  0  0
   -3.2330   -0.0110   -0.1010 C   0  0  0  0  0  0  0  0  0  0  0  0
   -3.1420    0.6950   -1.3130 O   0  0  0  0  0  0  0  0  0  0  0  0
   -0.4700    0.7520   -0.1230 C   0  0  0  0  0  0  0  0  0  0  0  0
    0.8670    1.1000   -0.1320 C   0  0  0  0  0  0  0  0  0  0  0  0
    1.2610    2.4270   -0.2490 O   0  0  0  0  0  0  0  0  0  0  0  0
  1  2  1  0
  2  3  2  0
  2 11  1  0
  3  4  1  0
  4  5  1  0
  4  6  2  0
  6  7  1  0
  6 10  1  0
  7  8  1  0
  8  9  1  0
 10 11  2  0
 11 12  1  0
M  END
