
     RDKit          3D

 12 12  0  0  0  0  0  0  0  0999 V2000
   -3.6680   -0.8100    0.0180 O   0  0  0  0  0  0  0  0  0  0  0  0
   -2.4760   -0.5570   -0.1930 C   0  0  0  0  0  0  0  0  0  0  0  0
   -1.5640   -1.5640   -1.3290 S   0  0  0  0  0  0  0  0  0  0  0  0
    0.0930   -0.8670   -1.3420 C   0  0  0  0  0  0  0  0  0  0  0  0
    1.3600   -1.5350   -2.3260 Cl  0  0  0  0  0  0  0  0  0  0  0  0
    0.3260    0.1690   -0.5820 C   0  0  0  0  0  0  0  0  0  0  0  0
    1.6400    0.6840   -0.6220 O   0  0  0  0  0  0  0  0  0  0  0  0
    2.2330    1.0440    0.5230 O   0  0  0  0  0  0  0  0  0  0  0  0
    3.5260    0.7850    0.4960 O   0  0  0  0  0  0  0  0  0  0  0  0
   -0.5510    0.7970    0.2340 O   0  0  0  0  0  0  0  0  0  0  0  0
   -1.8530    0.5220    0.4650 N   0  0  0  0  0  0  0  0  0  0  0  0
   -2.7850    1.5180    1.5990 Cl  0  0  0  0  0  0  0  0  0  0  0  0
  1  2  2  0
  2  3  1  0
  2 11  1  0
  3  4  1  0
  4  5  1  0
  4  6  2  0
  6  7  1  0
  6 10  1  0
  7  8  1  0
  8  9  1  0
 10 11  1  0
 11 12  1  0
M  END
