
     RDKit          3D

 11 10  0  0  0  0  0  0  0  0999 V2000
    0.8170   -0.0460    1.0630 C   0  0  0  0  0  0  0  0  0  0  0  0
    0.5350    0.1070   -0.3780 C   0  0  0  0  0  0  0  0  0  0  0  0
   -0.6690    0.4210   -0.8120 C   0  0  0  0  0  0  0  0  0  0  0  0
   -1.6980    0.6130    0.1110 O   0  0  0  0  0  0  0  0  0  0  0  0
   -2.5970   -0.4120    0.2480 N   0  0  0  0  0  0  0  0  0  0  0  0
   -3.5120   -0.2140    1.1870 O   0  0  0  0  0  0  0  0  0  0  0  0
   -3.0080   -0.9540   -0.8780 O   0  0  0  0  0  0  0  0  0  0  0  0
    1.8510   -0.1390   -1.5540 S   0  0  0  0  0  0  0  0  0  0  0  0
    3.3230   -0.5380   -0.7790 O   0  0  0  0  0  0  0  0  0  0  0  0
    4.2660    0.3150   -1.1180 O   0  0  0  0  0  0  0  0  0  0  0  0
    5.6580   -0.1120   -0.2230 Cl  0  0  0  0  0  0  0  0  0  0  0  0
  1  2  1  0
  2  3  2  3
  2  8  1  0
  3  4  1  0
  4  5  1  0
  5  6  1  0
  5  7  1  0
  8  9  1  0
  9 10  1  0
 10 11  1  0
M  END
