
     RDKit          3D

 14 14  0  0  0  0  0  0  0  0999 V2000
    1.1930   -0.4720   -0.9060 N   0  0  0  0  0  0  0  0  0  0  0  0
    0.2470    0.0770    0.0530 C   0  0  1  0  0  0  0  0  0  0  0  0
    0.8720    0.1220    1.3000 O   0  0  0  0  0  0  0  0  0  0  0  0
    1.9440    0.8750    1.2750 O   0  0  0  0  0  0  0  0  0  0  0  0
    3.3000    0.0380    1.8980 Cl  0  0  0  0  0  0  0  0  0  0  0  0
   -0.0990    1.4660   -0.3160 C   0  0  0  0  0  0  0  0  0  0  0  0
    1.2200    2.4540   -0.9780 Cl  0  0  0  0  0  0  0  0  0  0  0  0
   -1.2450    2.0410   -0.2140 N   0  0  0  0  0  0  0  0  0  0  0  0
   -2.4130    1.4580    0.2750 O   0  0  0  0  0  0  0  0  0  0  0  0
   -2.9420    0.2500   -0.0480 O   0  0  0  0  0  0  0  0  0  0  0  0
   -1.9990   -0.4400   -0.6550 O   0  0  0  0  0  0  0  0  0  0  0  0
   -0.9780   -0.7850    0.1970 C   0  0  1  0  0  0  0  0  0  0  0  0
   -0.5730   -2.1100    0.0490 O   0  0  0  0  0  0  0  0  0  0  0  0
   -1.5840   -0.6170    1.8810 Cl  0  0  0  0  0  0  0  0  0  0  0  0
  2  1  1  6
  2  3  1  0
  2  6  1  0
  2 12  1  0
  3  4  1  0
  4  5  1  0
  6  7  1  0
  6  8  2  0
  8  9  1  0
  9 10  1  0
 10 11  1  0
 11 12  1  0
 12 13  1  6
 12 14  1  0
M  CHG  1   1   1
M  END
