
     RDKit          3D

 12 12  0  0  0  0  0  0  0  0999 V2000
    1.3470   -0.6380   -1.6550 N   0  0  0  0  0  0  0  0  0  0  0  0
    1.0530   -0.2080   -0.4750 C   0  0  0  0  0  0  0  0  0  0  0  0
    1.8930   -0.4040    0.5890 O   0  0  0  0  0  0  0  0  0  0  0  0
    3.0280   -1.0870    0.3810 O   0  0  0  0  0  0  0  0  0  0  0  0
   -0.2460    0.5160   -0.3060 C   0  0  1  0  0  0  0  0  0  0  0  0
   -0.1280    1.8100    0.1490 O   0  0  0  0  0  0  0  0  0  0  0  0
   -1.2790    2.3990    0.2800 O   0  0  0  0  0  0  0  0  0  0  0  0
   -1.3780    3.6130   -0.9100 Cl  0  0  0  0  0  0  0  0  0  0  0  0
   -1.2310    0.2890   -1.3390 O   0  0  0  0  0  0  0  0  0  0  0  0
   -1.3790   -0.3030    0.0040 C   0  0  0  0  0  0  0  0  0  0  0  0
   -2.1280   -1.0390    0.7350 N   0  0  0  0  0  0  0  0  0  0  0  0
   -3.6040   -1.7320    0.1350 Cl  0  0  0  0  0  0  0  0  0  0  0  0
  1  2  2  0
  2  3  1  0
  2  5  1  0
  3  4  1  0
  5  6  1  1
  5  9  1  0
  5 10  1  0
  6  7  1  0
  7  8  1  0
  9 10  1  0
 10 11  2  3
 11 12  1  0
M  CHG  1  11   1
M  END
