
     RDKit          3D

  8  7  0  0  0  0  0  0  0  0999 V2000
    1.7590    0.3490    1.7450 C   0  0  0  0  0  0  0  0  0  0  0  0
    1.3770   -0.4060    0.7420 C   0  0  0  0  0  0  0  0  0  0  0  0
    2.3130   -0.6770   -0.2910 N   0  0  0  0  0  0  0  0  0  0  0  0
    0.0690   -0.9520    0.6940 N   0  0  0  0  0  0  0  0  0  0  0  0
   -0.9610   -0.5030    0.1270 C   0  0  0  0  0  0  0  0  0  0  0  0
   -1.1740    0.6820   -0.6470 C   0  0  0  0  0  0  0  0  0  0  0  0
   -2.5350    1.0090   -1.2350 C   0  0  0  0  0  0  0  0  0  0  0  0
   -0.2910    1.5510   -0.9150 N   0  0  0  0  0  0  0  0  0  0  0  0
  1  2  2  0
  2  3  1  0
  2  4  1  0
  4  5  2  3
  5  6  1  0
  6  7  1  0
  6  8  2  0
M  CHG  1   4   1
M  END
