
     RDKit          3D

  8  8  0  0  0  0  0  0  0  0999 V2000
    1.7890    0.9300    0.4290 N   0  0  0  0  0  0  0  0  0  0  0  0
    1.6610   -0.3250   -0.2660 C   0  0  0  0  0  0  0  0  0  0  0  0
    0.5080   -1.1320    0.2420 C   0  0  0  0  0  0  0  0  0  0  0  0
   -0.7910   -0.4760    0.1000 C   0  0  0  0  0  0  0  0  0  0  0  0
   -1.0990    0.7400   -0.4280 C   0  0  0  0  0  0  0  0  0  0  0  0
   -2.4610    0.9090   -0.3320 C   0  0  0  0  0  0  0  0  0  0  0  0
   -2.9260   -0.2070    0.2490 N   0  0  0  0  0  0  0  0  0  0  0  0
   -1.9460   -1.0510    0.5180 N   0  0  0  0  0  0  0  0  0  0  0  0
  1  2  1  0
  2  3  1  0
  3  4  1  0
  4  5  2  0
  4  8  1  0
  5  6  1  0
  6  7  2  0
  7  8  1  0
M  CHG  1   1   1
M  END
