
     RDKit          3D

 11 11  0  0  0  0  0  0  0  0999 V2000
    2.8940   -0.9150    0.4310 C   0  0  0  0  0  0  0  0  0  0  0  0
    2.8570    0.4720   -0.0930 C   0  0  0  0  0  0  0  0  0  0  0  0
    1.6590    1.2440    0.3040 C   0  0  0  0  0  0  0  0  0  0  0  0
    0.3330    0.7240   -0.1350 C   0  0  2  0  0  0  0  0  0  0  0  0
    0.3720    0.6720   -1.5460 O   0  0  0  0  0  0  0  0  0  0  0  0
   -0.7880    1.6900    0.2880 C   0  0  0  0  0  0  0  0  0  0  0  0
   -1.9120    0.8260    0.8110 C   0  0  0  0  0  0  0  0  0  0  0  0
   -1.6080   -0.5180    0.1840 C   0  0  2  0  0  0  0  0  0  0  0  0
   -1.9830   -0.4960   -1.2530 C   0  0  0  0  0  0  0  0  0  0  0  0
   -2.2510   -1.6020    0.8690 N   0  0  0  0  0  0  0  0  0  0  0  0
   -0.1000   -0.5800    0.4070 C   0  0  0  0  0  0  0  0  0  0  0  0
  1  2  1  0
  2  3  1  0
  3  4  1  0
  4  5  1  6
  4  6  1  0
  4 11  1  0
  6  7  1  0
  7  8  1  0
  8  9  1  6
  8 10  1  0
  8 11  1  0
M  CHG  1  10   1
M  END
