
     RDKit          3D

 11 11  0  0  0  0  0  0  0  0999 V2000
   -3.2120    1.1230    0.0700 C   0  0  0  0  0  0  0  0  0  0  0  0
   -2.7720   -0.2660    0.4450 C   0  0  0  0  0  0  0  0  0  0  0  0
   -1.2860   -0.3390    0.7270 C   0  0  0  0  0  0  0  0  0  0  0  0
   -0.5470    0.0760   -0.4960 C   0  0  2  0  0  0  0  0  0  0  0  0
   -0.8840   -0.8050   -1.5730 N   0  0  0  0  0  0  0  0  0  0  0  0
    0.9300    0.1900   -0.3350 C   0  0  2  0  0  0  0  0  0  0  0  0
    1.4410    0.7000   -1.5490 O   0  0  0  0  0  0  0  0  0  0  0  0
    1.6310   -1.0960   -0.0660 C   0  0  0  0  0  0  0  0  0  0  0  0
    3.0380   -0.5800    0.2700 C   0  0  0  0  0  0  0  0  0  0  0  0
    2.7060    0.5060    1.2670 C   0  0  0  0  0  0  0  0  0  0  0  0
    1.3860    1.0880    0.7530 C   0  0  0  0  0  0  0  0  0  0  0  0
  1  2  1  0
  2  3  1  0
  3  4  1  0
  4  5  1  6
  4  6  1  0
  6  7  1  6
  6  8  1  0
  6 11  1  0
  8  9  1  0
  9 10  1  0
 10 11  1  0
M  CHG  1   5   1
M  END
