
     RDKit          3D

 11 11  0  0  0  0  0  0  0  0999 V2000
    3.5420    0.8730   -0.6590 C   0  0  0  0  0  0  0  0  0  0  0  0
    2.2800    0.1600   -1.1170 C   0  0  0  0  0  0  0  0  0  0  0  0
    1.4760   -0.1720    0.0800 C   0  0  0  0  0  0  0  0  0  0  0  0
    0.1900   -0.8800   -0.1740 C   0  0  1  0  0  0  0  0  0  0  0  0
    0.5200   -2.0950   -0.8260 O   0  0  0  0  0  0  0  0  0  0  0  0
   -0.4560   -1.3000    1.1290 C   0  0  0  0  0  0  0  0  0  0  0  0
   -1.0400   -0.1770    1.8920 C   0  0  0  0  0  0  0  0  0  0  0  0
   -1.4870    0.9910    1.0990 C   0  0  0  0  0  0  0  0  0  0  0  0
   -1.7120    0.7650   -0.3420 C   0  0  2  0  0  0  0  0  0  0  0  0
   -3.1280    0.4050   -0.5320 N   0  0  0  0  0  0  0  0  0  0  0  0
   -0.7910   -0.1760   -1.0230 C   0  0  0  0  0  0  0  0  0  0  0  0
  1  2  1  0
  2  3  1  0
  3  4  1  0
  4  5  1  6
  4  6  1  0
  4 11  1  0
  6  7  1  0
  7  8  1  0
  8  9  1  0
  9 10  1  1
  9 11  1  0
M  CHG  1  10   1
M  END
