
     RDKit          3D

 12 12  0  0  0  0  0  0  0  0999 V2000
    3.6130    1.3040   -0.8170 C   0  0  0  0  0  0  0  0  0  0  0  0
    3.1440    0.0040   -1.4230 C   0  0  0  0  0  0  0  0  0  0  0  0
    2.5830   -0.9200   -0.3430 C   0  0  0  0  0  0  0  0  0  0  0  0
    1.4130   -0.1680    0.2920 C   0  0  0  0  0  0  0  0  0  0  0  0
    0.8070   -1.0170    1.3690 C   0  0  0  0  0  0  0  0  0  0  0  0
   -0.2670   -0.3070    1.9390 O   0  0  0  0  0  0  0  0  0  0  0  0
   -1.3160    0.0560    1.0980 C   0  0  0  0  0  0  0  0  0  0  0  0
   -2.0060   -0.7910    0.3530 C   0  0  0  0  0  0  0  0  0  0  0  0
   -3.0190   -0.0290   -0.3880 C   0  0  1  0  0  0  0  0  0  0  0  0
   -4.3260   -0.5120    0.0150 N   0  0  0  0  0  0  0  0  0  0  0  0
   -2.8160    1.3760    0.0360 C   0  0  0  0  0  0  0  0  0  0  0  0
   -1.8290    1.4000    0.8930 C   0  0  0  0  0  0  0  0  0  0  0  0
  1  2  1  0
  2  3  1  0
  3  4  1  0
  4  5  1  0
  5  6  1  0
  6  7  1  0
  7  8  2  0
  7 12  1  0
  8  9  1  0
  9 10  1  1
  9 11  1  0
 11 12  2  0
M  CHG  1  10   1
M  END
