
     RDKit          3D

 22 24  0  0  0  0  0  0  0  0999 V2000
    0.2960    0.3080    1.1240 O   0  0  0  0  0  0  0  0  0  0  0  0
    0.8570    0.3050   -0.0570 C   0  0  0  0  0  0  0  0  0  0  0  0
    2.2840    0.3900   -0.1990 C   0  0  0  0  0  0  0  0  0  0  0  0
    2.9030    0.7260    1.1500 C   0  0  0  0  0  0  0  0  0  0  0  0
    4.3650    0.9310    1.1120 C   0  0  0  0  0  0  0  0  0  0  0  0
    5.1880   -0.2030    0.6330 C   0  0  0  0  0  0  0  0  0  0  0  0
    6.0790   -0.7980    1.4380 C   0  0  0  0  0  0  0  0  0  0  0  0
    6.7290   -1.8720    0.6760 C   0  0  0  0  0  0  0  0  0  0  0  0
    6.1060   -1.7920   -0.6570 C   0  0  0  0  0  0  0  0  0  0  0  0
    5.2080   -0.8220   -0.6830 C   0  0  0  0  0  0  0  0  0  0  0  0
   -0.1290    0.2270   -1.0640 N   0  0  0  0  0  0  0  0  0  0  0  0
   -1.4260    0.0350   -0.5290 C   0  0  0  0  0  0  0  0  0  0  0  0
   -2.2230    0.8650   -1.0020 N   0  0  0  0  0  0  0  0  0  0  0  0
   -3.5660    0.9500   -0.6440 C   0  0  0  0  0  0  0  0  0  0  0  0
   -4.0890    0.1270    0.2460 C   0  0  0  0  0  0  0  0  0  0  0  0
   -5.5020    0.1810    0.6550 C   0  0  0  0  0  0  0  0  0  0  0  0
   -6.3790    0.8300   -0.3520 C   0  0  0  0  0  0  0  0  0  0  0  0
   -5.6580    1.1850   -1.6230 C   0  0  0  0  0  0  0  0  0  0  0  0
   -4.4180    2.0130   -1.2130 C   0  0  0  0  0  0  0  0  0  0  0  0
   -3.1750   -0.8870    0.8480 C   0  0  0  0  0  0  0  0  0  0  0  0
   -3.2980   -1.3850    1.9460 O   0  0  0  0  0  0  0  0  0  0  0  0
   -2.0420   -1.2650   -0.0350 C   0  0  0  0  0  0  0  0  0  0  0  0
  1  2  2  0
  2  3  1  0
  2 11  1  0
  3  4  1  0
  4  5  1  0
  5  6  1  0
  6  7  2  0
  6 10  1  0
  7  8  1  0
  8  9  1  0
  9 10  2  0
 11 12  1  0
 12 13  2  0
 12 22  1  0
 13 14  1  0
 14 15  2  0
 14 19  1  0
 15 16  1  0
 15 20  1  0
 16 17  1  0
 17 18  1  0
 18 19  1  0
 20 21  2  0
 20 22  1  0
M  END
