
     RDKit          3D

 12 11  0  0  0  0  0  0  0  0999 V2000
   -3.3290    1.1930   -1.0730 C   0  0  0  0  0  0  0  0  0  0  0  0
   -1.7990    1.3770   -1.4010 C   0  0  0  0  0  0  0  0  0  0  0  0
   -1.1020    0.4460   -0.5150 C   0  0  0  0  0  0  0  0  0  0  0  0
    0.3400    0.3070   -0.4930 C   0  0  0  0  0  0  0  0  0  0  0  0
    0.8520   -0.7280    0.4690 C   0  0  0  0  0  0  0  0  0  0  0  0
    2.1780   -0.9800    0.6040 O   0  0  0  0  0  0  0  0  0  0  0  0
   -0.0030   -1.4300    1.2220 C   0  0  0  0  0  0  0  0  0  0  0  0
    0.4490   -2.4520    2.1760 C   0  0  0  0  0  0  0  0  0  0  0  0
    0.0410   -2.1360    3.5490 N   0  0  0  0  0  0  0  0  0  0  0  0
    1.2380    0.9490   -1.1880 C   0  0  0  0  0  0  0  0  0  0  0  0
    0.8970    2.0050   -2.1870 C   0  0  0  0  0  0  0  0  0  0  0  0
    2.7080    0.6950   -1.0560 C   0  0  0  0  0  0  0  0  0  0  0  0
  1  2  1  0
  2  3  1  0
  3  4  1  0
  4  5  1  0
  4 10  2  3
  5  6  1  0
  5  7  2  3
  7  8  1  0
  8  9  1  0
 10 11  1  0
 10 12  1  0
M  CHG  1   9   1
M  END
