
     RDKit          3D

 12 12  0  0  0  0  0  0  0  0999 V2000
    1.3370    2.2980   -0.1530 C   0  0  0  0  0  0  0  0  0  0  0  0
    0.6570    1.2110   -0.8930 C   0  0  0  0  0  0  0  0  0  0  0  0
    0.0870    0.0670   -0.1600 C   0  0  1  0  0  0  0  0  0  0  0  0
    0.9810   -0.7770    0.6590 C   0  0  2  0  0  0  0  0  0  0  0  0
    1.6120   -0.0010    1.7570 N   0  0  0  0  0  0  0  0  0  0  0  0
    2.1340   -1.4400   -0.0110 C   0  0  0  0  0  0  0  0  0  0  0  0
    1.8960   -2.2550   -1.0680 O   0  0  0  0  0  0  0  0  0  0  0  0
   -1.0290    0.6660    0.7530 C   0  0  0  0  0  0  0  0  0  0  0  0
   -2.3030    0.8760   -0.0020 C   0  0  0  0  0  0  0  0  0  0  0  0
   -2.9900   -0.4920   -0.1220 C   0  0  0  0  0  0  0  0  0  0  0  0
   -1.8720   -1.4660   -0.4410 C   0  0  0  0  0  0  0  0  0  0  0  0
   -0.7190   -0.7540   -1.1440 C   0  0  0  0  0  0  0  0  0  0  0  0
  1  2  1  0
  3  2  1  6
  3  4  1  0
  3  8  1  0
  3 12  1  0
  4  5  1  1
  4  6  1  0
  6  7  1  0
  8  9  1  0
  9 10  1  0
 10 11  1  0
 11 12  1  0
M  CHG  1   5   1
M  END
