
     RDKit          3D

 12 12  0  0  0  0  0  0  0  0999 V2000
    1.5730   -2.7920    0.5720 C   0  0  0  0  0  0  0  0  0  0  0  0
    2.0090   -1.5330    0.3650 C   0  0  0  0  0  0  0  0  0  0  0  0
    1.1090   -0.5480   -0.1820 C   0  0  0  0  0  0  0  0  0  0  0  0
    1.4390    0.6770   -0.4130 C   0  0  0  0  0  0  0  0  0  0  0  0
    2.6300    1.4780   -0.2610 C   0  0  0  0  0  0  0  0  0  0  0  0
    3.8300    0.9530    0.2540 N   0  0  0  0  0  0  0  0  0  0  0  0
   -0.2010   -1.0000   -0.4660 O   0  0  0  0  0  0  0  0  0  0  0  0
   -1.2930   -0.1730   -0.6000 C   0  0  1  0  0  0  0  0  0  0  0  0
   -2.5780   -0.9410   -0.8870 C   0  0  0  0  0  0  0  0  0  0  0  0
   -3.7040   -0.0950   -0.3350 C   0  0  0  0  0  0  0  0  0  0  0  0
   -3.0340    1.1530    0.1710 C   0  0  0  0  0  0  0  0  0  0  0  0
   -1.6930    0.5770    0.6520 C   0  0  0  0  0  0  0  0  0  0  0  0
  1  2  2  0
  2  3  1  0
  3  4  2  3
  3  7  1  0
  4  5  1  0
  5  6  1  0
  8  7  1  1
  8  9  1  0
  8 12  1  0
  9 10  1  0
 10 11  1  0
 11 12  1  0
M  CHG  1   6   1
M  END
