
     RDKit          3D

 16 17  0  0  0  0  0  0  0  0999 V2000
    4.6660    1.7970   -0.4860 N   0  0  0  0  0  0  0  0  0  0  0  0
    3.7320    0.8450    0.0710 C   0  0  0  0  0  0  0  0  0  0  0  0
    2.6980    0.4110   -0.9660 C   0  0  0  0  0  0  0  0  0  0  0  0
    1.7120   -0.5360   -0.4650 C   0  0  0  0  0  0  0  0  0  0  0  0
    1.9670   -1.9080   -0.4430 C   0  0  0  0  0  0  0  0  0  0  0  0
    0.9770   -2.7420    0.0340 C   0  0  0  0  0  0  0  0  0  0  0  0
   -0.2400   -2.3190    0.4880 C   0  0  0  0  0  0  0  0  0  0  0  0
   -1.1780   -3.2490    0.9510 O   0  0  0  0  0  0  0  0  0  0  0  0
   -0.4940   -0.9600    0.4650 C   0  0  0  0  0  0  0  0  0  0  0  0
   -1.7610   -0.5150    1.0630 C   0  0  2  0  0  0  0  0  0  0  0  0
   -3.0160   -0.7960    0.3380 C   0  0  0  0  0  0  0  0  0  0  0  0
   -3.3670   -0.0870   -0.8940 C   0  0  0  0  0  0  0  0  0  0  0  0
   -3.3890    1.4280   -0.6210 C   0  0  0  0  0  0  0  0  0  0  0  0
   -1.9400    1.6840   -0.1720 C   0  0  0  0  0  0  0  0  0  0  0  0
   -1.7250    1.0520    1.1450 C   0  0  0  0  0  0  0  0  0  0  0  0
    0.4610   -0.1020    0.0030 C   0  0  0  0  0  0  0  0  0  0  0  0
  1  2  1  0
  2  3  1  0
  3  4  1  0
  4  5  2  0
  4 16  1  0
  5  6  1  0
  6  7  2  0
  7  8  1  0
  7  9  1  0
 10  9  1  6
  9 16  2  0
 10 11  1  0
 10 15  1  0
 11 12  1  0
 12 13  1  0
 13 14  1  0
 14 15  1  0
M  CHG  1   1   1
M  END
