
     RDKit          3D

 27 28  0  0  0  0  0  0  0  0999 V2000
    6.7860    2.4280    1.5470 C   0  0  0  0  0  0  0  0  0  0  0  0
    6.4870    1.0360    1.4630 O   0  0  0  0  0  0  0  0  0  0  0  0
    6.8250    0.2970    0.3670 C   0  0  0  0  0  0  0  0  0  0  0  0
    7.4140    0.8050   -0.6210 O   0  0  0  0  0  0  0  0  0  0  0  0
    6.5140   -1.1410    0.2900 C   0  0  0  0  0  0  0  0  0  0  0  0
    5.8470   -1.6790    1.3480 O   0  0  0  0  0  0  0  0  0  0  0  0
    4.6060   -1.1950    1.6340 C   0  0  0  0  0  0  0  0  0  0  0  0
    3.7130   -1.4100    0.4270 C   0  0  0  0  0  0  0  0  0  0  0  0
    2.3980   -0.9250    0.6620 O   0  0  0  0  0  0  0  0  0  0  0  0
    1.4890   -1.0660   -0.3720 C   0  0  0  0  0  0  0  0  0  0  0  0
    1.7930   -1.6390   -1.5830 C   0  0  0  0  0  0  0  0  0  0  0  0
    0.8700   -1.7670   -2.5970 C   0  0  0  0  0  0  0  0  0  0  0  0
    1.1870   -2.3860   -3.9140 C   0  0  0  0  0  0  0  0  0  0  0  0
   -0.4030   -1.3010   -2.3770 C   0  0  0  0  0  0  0  0  0  0  0  0
   -0.7860   -0.7020   -1.1590 C   0  0  0  0  0  0  0  0  0  0  0  0
   -2.0970   -0.2320   -1.0130 N   0  0  0  0  0  0  0  0  0  0  0  0
   -2.6820    0.0990    0.2100 C   0  0  0  0  0  0  0  0  0  0  0  0
   -2.0930    0.0050    1.3130 O   0  0  0  0  0  0  0  0  0  0  0  0
   -4.0760    0.5910    0.2110 C   0  0  0  0  0  0  0  0  0  0  0  0
   -4.8620    0.7610   -0.8300 O   0  0  0  0  0  0  0  0  0  0  0  0
   -6.0300    1.2070   -0.4880 C   0  0  0  0  0  0  0  0  0  0  0  0
   -7.2060    1.5320   -1.3700 C   0  0  0  0  0  0  0  0  0  0  0  0
   -6.0130    1.3420    0.8830 C   0  0  0  0  0  0  0  0  0  0  0  0
   -7.1240    1.8220    1.7350 C   0  0  0  0  0  0  0  0  0  0  0  0
   -4.7570    0.9480    1.3510 C   0  0  0  0  0  0  0  0  0  0  0  0
   -4.2730    0.9220    2.7600 C   0  0  0  0  0  0  0  0  0  0  0  0
    0.1690   -0.6010   -0.1920 C   0  0  0  0  0  0  0  0  0  0  0  0
  1  2  1  0
  2  3  1  0
  3  4  2  0
  3  5  1  0
  5  6  1  0
  6  7  1  0
  7  8  1  0
  8  9  1  0
  9 10  1  0
 10 11  2  0
 10 27  1  0
 11 12  1  0
 12 13  1  0
 12 14  2  0
 14 15  1  0
 15 16  1  0
 15 27  2  0
 16 17  1  0
 17 18  2  0
 17 19  1  0
 19 20  1  0
 19 25  2  0
 20 21  1  0
 21 22  1  0
 21 23  2  0
 23 24  1  0
 23 25  1  0
 25 26  1  0
M  END
