
     RDKit          3D

 27 28  0  0  0  0  0  0  0  0999 V2000
   -6.3950    2.4260   -1.0700 C   0  0  0  0  0  0  0  0  0  0  0  0
   -6.3980    1.2170   -0.3450 O   0  0  0  0  0  0  0  0  0  0  0  0
   -5.1950    0.6090   -0.0380 C   0  0  0  0  0  0  0  0  0  0  0  0
   -3.9680    1.1430   -0.4180 C   0  0  0  0  0  0  0  0  0  0  0  0
   -2.7900    0.4690   -0.0710 C   0  0  0  0  0  0  0  0  0  0  0  0
   -1.4830    1.0490   -0.4820 C   0  0  0  0  0  0  0  0  0  0  0  0
   -1.1410    0.4960   -1.8280 C   0  0  0  0  0  0  0  0  0  0  0  0
    0.0920    0.9820   -2.3240 O   0  0  0  0  0  0  0  0  0  0  0  0
    1.2930    0.8030   -1.6950 C   0  0  0  0  0  0  0  0  0  0  0  0
    1.3510    0.1760   -0.6090 O   0  0  0  0  0  0  0  0  0  0  0  0
    2.5330    1.3500   -2.2950 C   0  0  0  0  0  0  0  0  0  0  0  0
    3.6690    1.0690   -1.5090 O   0  0  0  0  0  0  0  0  0  0  0  0
    4.0860   -0.2270   -1.2030 C   0  0  0  0  0  0  0  0  0  0  0  0
    3.3860   -1.1570   -1.6700 O   0  0  0  0  0  0  0  0  0  0  0  0
    5.2580   -0.4960   -0.3920 C   0  0  0  0  0  0  0  0  0  0  0  0
    5.7100   -1.7530   -0.0620 C   0  0  0  0  0  0  0  0  0  0  0  0
    6.8600   -1.6340    0.7270 C   0  0  0  0  0  0  0  0  0  0  0  0
    7.6770   -2.7220    1.3060 C   0  0  0  0  0  0  0  0  0  0  0  0
    7.0920   -0.3180    0.8660 N   0  0  0  0  0  0  0  0  0  0  0  0
    6.1320    0.3810    0.1950 C   0  0  0  0  0  0  0  0  0  0  0  0
    6.0220    1.8550    0.0960 C   0  0  0  0  0  0  0  0  0  0  0  0
   -2.8460   -0.7080    0.6370 C   0  0  0  0  0  0  0  0  0  0  0  0
   -4.0660   -1.2310    1.0100 C   0  0  0  0  0  0  0  0  0  0  0  0
   -4.0980   -2.4960    1.7700 C   0  0  0  0  0  0  0  0  0  0  0  0
   -5.2260   -0.5710    0.6700 C   0  0  0  0  0  0  0  0  0  0  0  0
   -6.4370   -1.1170    1.0560 O   0  0  0  0  0  0  0  0  0  0  0  0
   -7.0160   -0.7840    2.2860 C   0  0  0  0  0  0  0  0  0  0  0  0
  1  2  1  0
  2  3  1  0
  3  4  2  0
  3 25  1  0
  4  5  1  0
  5  6  1  0
  5 22  2  0
  6  7  1  0
  7  8  1  0
  8  9  1  0
  9 10  2  0
  9 11  1  0
 11 12  1  0
 12 13  1  0
 13 14  2  0
 13 15  1  0
 15 16  1  0
 15 20  2  0
 16 17  2  0
 17 18  1  0
 17 19  1  0
 19 20  1  0
 20 21  1  0
 22 23  1  0
 23 24  1  0
 23 25  2  0
 25 26  1  0
 26 27  1  0
M  END
