
     RDKit          3D

 26 27  0  0  0  0  0  0  0  0999 V2000
    9.3800    0.4400    1.6460 C   0  0  0  0  0  0  0  0  0  0  0  0
    8.5610    0.8620    0.5900 O   0  0  0  0  0  0  0  0  0  0  0  0
    7.1830    0.4490    0.5770 C   0  0  0  0  0  0  0  0  0  0  0  0
    6.9000   -0.2580    1.5510 O   0  0  0  0  0  0  0  0  0  0  0  0
    6.3600    0.8870   -0.5060 C   0  0  0  0  0  0  0  0  0  0  0  0
    5.1460    0.6880   -0.7760 C   0  0  0  0  0  0  0  0  0  0  0  0
    4.0450   -0.0290   -0.1810 C   0  0  0  0  0  0  0  0  0  0  0  0
    3.9350   -0.7770    0.9410 C   0  0  0  0  0  0  0  0  0  0  0  0
    2.6010   -1.2380    1.0220 C   0  0  0  0  0  0  0  0  0  0  0  0
    1.9720   -0.7260   -0.0830 C   0  0  0  0  0  0  0  0  0  0  0  0
    0.5550   -0.9690   -0.3820 C   0  0  0  0  0  0  0  0  0  0  0  0
   -0.1560   -1.6650    0.3680 O   0  0  0  0  0  0  0  0  0  0  0  0
    0.0170   -0.4150   -1.5110 O   0  0  0  0  0  0  0  0  0  0  0  0
   -1.3020   -0.5490   -1.9340 C   0  0  0  0  0  0  0  0  0  0  0  0
   -2.2020    0.0050   -0.8940 C   0  0  0  0  0  0  0  0  0  0  0  0
   -1.6770    0.8440    0.0560 C   0  0  0  0  0  0  0  0  0  0  0  0
   -2.5530    1.3290    1.0010 C   0  0  0  0  0  0  0  0  0  0  0  0
   -3.8860    1.0020    1.0110 C   0  0  0  0  0  0  0  0  0  0  0  0
   -4.7970    1.5480    2.0500 C   0  0  0  0  0  0  0  0  0  0  0  0
   -4.4480    0.1440    0.0490 C   0  0  0  0  0  0  0  0  0  0  0  0
   -5.8180   -0.1510    0.1140 N   0  0  0  0  0  0  0  0  0  0  0  0
   -6.4680   -0.9950   -0.8000 C   0  0  0  0  0  0  0  0  0  0  0  0
   -7.9520   -1.2200   -0.6030 C   0  0  0  0  0  0  0  0  0  0  0  0
   -5.9180   -1.5700   -1.7560 O   0  0  0  0  0  0  0  0  0  0  0  0
   -3.5650   -0.3290   -0.8830 C   0  0  0  0  0  0  0  0  0  0  0  0
    2.8220   -0.0340   -0.7600 O   0  0  0  0  0  0  0  0  0  0  0  0
  1  2  1  0
  2  3  1  0
  3  4  2  0
  3  5  1  0
  5  6  2  3
  6  7  1  0
  7  8  2  0
  7 26  1  0
  8  9  1  0
  9 10  2  0
 10 11  1  0
 10 26  1  0
 11 12  2  0
 11 13  1  0
 13 14  1  0
 14 15  1  0
 15 16  2  0
 15 25  1  0
 16 17  1  0
 17 18  2  0
 18 19  1  0
 18 20  1  0
 20 21  1  0
 20 25  2  0
 21 22  1  0
 22 23  1  0
 22 24  2  0
M  END
