
     RDKit          3D

 27 28  0  0  0  0  0  0  0  0999 V2000
   -2.7890    2.0740   -3.9720 C   0  0  0  0  0  0  0  0  0  0  0  0
   -2.6650    1.3030   -2.6690 C   0  0  0  0  0  0  0  0  0  0  0  0
   -3.7300    0.7890   -2.1300 C   0  0  0  0  0  0  0  0  0  0  0  0
   -4.9260    1.0370   -2.8820 O   0  0  0  0  0  0  0  0  0  0  0  0
   -3.9110    0.0340   -0.9340 C   0  0  0  0  0  0  0  0  0  0  0  0
   -5.1690   -0.3330   -0.7420 O   0  0  0  0  0  0  0  0  0  0  0  0
   -2.9780   -0.3560    0.0230 N   0  0  0  0  0  0  0  0  0  0  0  0
   -3.4850   -1.1960    1.1310 C   0  0  0  0  0  0  0  0  0  0  0  0
   -3.9470   -0.2700    2.2300 C   0  0  0  0  0  0  0  0  0  0  0  0
   -2.8590    0.4930    2.6410 O   0  0  0  0  0  0  0  0  0  0  0  0
   -3.2800    1.3500    3.6560 C   0  0  0  0  0  0  0  0  0  0  0  0
   -1.6040    0.0030    0.0420 C   0  0  0  0  0  0  0  0  0  0  0  0
   -0.8270   -1.0090   -0.7560 C   0  0  0  0  0  0  0  0  0  0  0  0
    0.5320   -0.8150   -0.8530 O   0  0  0  0  0  0  0  0  0  0  0  0
    1.3920   -0.8070    0.2210 C   0  0  0  0  0  0  0  0  0  0  0  0
    0.8710   -0.9940    1.3460 O   0  0  0  0  0  0  0  0  0  0  0  0
    2.8430   -0.5930    0.0770 C   0  0  0  0  0  0  0  0  0  0  0  0
    3.4300   -0.3860   -1.1450 C   0  0  0  0  0  0  0  0  0  0  0  0
    2.5670   -0.3810   -2.3400 C   0  0  0  0  0  0  0  0  0  0  0  0
    4.8010   -0.1840   -1.2840 C   0  0  0  0  0  0  0  0  0  0  0  0
    5.6000   -0.1890   -0.1680 C   0  0  0  0  0  0  0  0  0  0  0  0
    6.9700   -0.0230    0.0470 C   0  0  0  0  0  0  0  0  0  0  0  0
    7.1730   -0.1270    1.3230 O   0  0  0  0  0  0  0  0  0  0  0  0
    6.0690   -0.3470    1.9830 C   0  0  0  0  0  0  0  0  0  0  0  0
    5.0200   -0.3950    1.0600 C   0  0  0  0  0  0  0  0  0  0  0  0
    3.6450   -0.5980    1.2010 C   0  0  0  0  0  0  0  0  0  0  0  0
    3.1070   -0.8110    2.5430 C   0  0  0  0  0  0  0  0  0  0  0  0
  1  2  1  0
  2  3  2  3
  3  4  1  0
  3  5  1  0
  5  6  2  0
  5  7  1  0
  7  8  1  0
  7 12  1  0
  8  9  1  0
  9 10  1  0
 10 11  1  0
 12 13  1  0
 13 14  1  0
 14 15  1  0
 15 16  2  0
 15 17  1  0
 17 18  1  0
 17 26  2  0
 18 19  1  0
 18 20  2  0
 20 21  1  0
 21 22  2  0
 21 25  1  0
 22 23  1  0
 23 24  1  0
 24 25  2  0
 25 26  1  0
 26 27  1  0
M  END
