
     RDKit          3D

 27 28  0  0  0  0  0  0  0  0999 V2000
    5.3100   -2.2940    1.1850 C   0  0  0  0  0  0  0  0  0  0  0  0
    4.8090   -2.1130   -0.2420 C   0  0  0  0  0  0  0  0  0  0  0  0
    3.7520   -1.1110   -0.3030 C   0  0  0  0  0  0  0  0  0  0  0  0
    2.5710   -1.5060   -0.1060 O   0  0  0  0  0  0  0  0  0  0  0  0
    3.9840    0.2880   -0.5740 C   0  0  0  0  0  0  0  0  0  0  0  0
    5.1700    0.9510   -0.8010 C   0  0  0  0  0  0  0  0  0  0  0  0
    6.5680    0.4110   -0.8370 C   0  0  0  0  0  0  0  0  0  0  0  0
    4.8530    2.2300   -0.9950 O   0  0  0  0  0  0  0  0  0  0  0  0
    3.5710    2.4260   -0.9090 C   0  0  0  0  0  0  0  0  0  0  0  0
    2.8760    3.7410   -1.0740 C   0  0  0  0  0  0  0  0  0  0  0  0
    2.9410    1.2430   -0.6430 C   0  0  0  0  0  0  0  0  0  0  0  0
    1.5620    0.9830   -0.4690 N   0  0  0  0  0  0  0  0  0  0  0  0
    0.7230    0.6340   -1.5900 C   0  0  0  0  0  0  0  0  0  0  0  0
    1.3110    0.5830   -2.7010 O   0  0  0  0  0  0  0  0  0  0  0  0
   -0.7120    0.3530   -1.4720 C   0  0  0  0  0  0  0  0  0  0  0  0
   -1.1990    0.4560   -0.1680 O   0  0  0  0  0  0  0  0  0  0  0  0
   -2.5270    0.2240    0.1260 C   0  0  0  0  0  0  0  0  0  0  0  0
   -3.0430    0.3170    1.4010 C   0  0  0  0  0  0  0  0  0  0  0  0
   -4.3880    0.0780    1.6700 C   0  0  0  0  0  0  0  0  0  0  0  0
   -4.9480    0.1760    3.0430 C   0  0  0  0  0  0  0  0  0  0  0  0
   -5.2460   -0.2640    0.6400 C   0  0  0  0  0  0  0  0  0  0  0  0
   -6.5760   -0.5010    0.9010 O   0  0  0  0  0  0  0  0  0  0  0  0
   -7.1280   -1.7430    1.2280 C   0  0  0  0  0  0  0  0  0  0  0  0
   -4.7380   -0.3590   -0.6410 C   0  0  0  0  0  0  0  0  0  0  0  0
   -5.6450   -0.7200   -1.7230 C   0  0  0  0  0  0  0  0  0  0  0  0
   -5.2140   -0.8140   -2.8970 O   0  0  0  0  0  0  0  0  0  0  0  0
   -3.3850   -0.1150   -0.8910 C   0  0  0  0  0  0  0  0  0  0  0  0
  1  2  1  0
  2  3  1  0
  3  4  2  0
  3  5  1  0
  5  6  2  0
  5 11  1  0
  6  7  1  0
  6  8  1  0
  8  9  1  0
  9 10  1  0
  9 11  2  0
 11 12  1  0
 12 13  1  0
 13 14  2  0
 13 15  1  0
 15 16  1  0
 16 17  1  0
 17 18  2  0
 17 27  1  0
 18 19  1  0
 19 20  1  0
 19 21  2  0
 21 22  1  0
 21 24  1  0
 22 23  1  0
 24 25  1  0
 24 27  2  0
 25 26  2  0
M  END
