
     RDKit          3D

 38 43  0  0  0  0  0  0  0  0999 V2000
   -9.5480    0.6540   -2.7680 C   0  0  0  0  0  0  0  0  0  0  0  0
   -8.0650    0.3040   -2.6410 C   0  0  0  0  0  0  0  0  0  0  0  0
   -7.9640   -0.9080   -2.0120 O   0  0  0  0  0  0  0  0  0  0  0  0
   -6.6730   -1.3460   -1.8430 C   0  0  0  0  0  0  0  0  0  0  0  0
   -5.8540   -0.4460   -0.9730 C   0  0  0  0  0  0  0  0  0  0  0  0
   -6.1970    0.6570   -0.3670 O   0  0  0  0  0  0  0  0  0  0  0  0
   -5.1980    1.1650    0.3090 C   0  0  0  0  0  0  0  0  0  0  0  0
   -5.3190    2.3330    1.0340 O   0  0  0  0  0  0  0  0  0  0  0  0
   -5.6190    2.2330    2.4360 C   0  0  0  0  0  0  0  0  0  0  0  0
   -4.1070    0.3450    0.1450 C   0  0  0  0  0  0  0  0  0  0  0  0
   -2.7700    0.5430    0.7250 C   0  0  0  0  0  0  0  0  0  0  0  0
   -1.7480   -0.3100    0.5380 N   0  0  0  0  0  0  0  0  0  0  0  0
   -0.6570    0.0950    1.1670 C   0  0  0  0  0  0  0  0  0  0  0  0
    0.6410   -0.4200    1.2880 C   0  0  0  0  0  0  0  0  0  0  0  0
    1.5940    0.2400    2.0300 C   0  0  0  0  0  0  0  0  0  0  0  0
    1.2530    1.3840    2.6320 N   0  0  0  0  0  0  0  0  0  0  0  0
   -0.0070    1.9010    2.5260 C   0  0  0  0  0  0  0  0  0  0  0  0
   -0.9820    1.2740    1.7970 C   0  0  0  0  0  0  0  0  0  0  0  0
   -2.2870    1.5120    1.4990 N   0  0  0  0  0  0  0  0  0  0  0  0
    2.8440   -0.5130    1.9850 C   0  0  2  0  0  0  0  0  0  0  0  0
    3.9700    0.2210    1.4820 N   0  0  0  0  0  0  0  0  0  0  0  0
    4.7340    0.8760    2.5220 C   0  0  0  0  0  0  0  0  0  0  0  0
    6.1150    1.1460    1.9460 C   0  0  2  0  0  0  0  0  0  0  0  0
    6.0470    1.9750    0.8060 O   0  0  0  0  0  0  0  0  0  0  0  0
    6.6720    1.3280   -0.2690 C   0  0  0  0  0  0  0  0  0  0  0  0
    6.9460    1.7090   -1.5680 C   0  0  0  0  0  0  0  0  0  0  0  0
    7.5930    0.8530   -2.4460 C   0  0  0  0  0  0  0  0  0  0  0  0
    7.9840   -0.4120   -2.0420 C   0  0  0  0  0  0  0  0  0  0  0  0
    7.7020   -0.7760   -0.7430 C   0  0  0  0  0  0  0  0  0  0  0  0
    7.0540    0.0710    0.1500 C   0  0  0  0  0  0  0  0  0  0  0  0
    6.6680   -0.0750    1.4910 O   0  0  0  0  0  0  0  0  0  0  0  0
    2.6010   -1.6780    1.0240 C   0  0  0  0  0  0  0  0  0  0  0  0
    1.1540   -1.6610    0.6830 C   0  0  2  0  0  0  0  0  0  0  0  0
    0.8960   -1.5990   -0.7400 N   0  0  1  0  0  0  0  0  0  0  0  0
    0.9020   -0.2530   -1.2130 C   0  0  0  0  0  0  0  0  0  0  0  0
    1.8220   -2.4240   -1.4930 C   0  0  0  0  0  0  0  0  0  0  0  0
   -4.5150   -0.6800   -0.6680 C   0  0  0  0  0  0  0  0  0  0  0  0
   -3.5540   -2.0390   -1.2300 Cl  0  0  0  0  0  0  0  0  0  0  0  0
  1  2  1  0
  2  3  1  0
  3  4  1  0
  4  5  1  0
  5  6  1  0
  5 37  2  0
  6  7  1  0
  7  8  1  0
  7 10  2  0
  8  9  1  0
 10 11  1  0
 10 37  1  0
 11 12  2  0
 11 19  1  0
 12 13  1  0
 13 14  2  0
 13 18  1  0
 14 15  1  0
 14 33  1  0
 15 16  2  0
 15 20  1  0
 16 17  1  0
 17 18  2  0
 18 19  1  0
 20 21  1  6
 20 32  1  0
 21 22  1  0
 23 22  1  6
 23 24  1  0
 23 31  1  0
 24 25  1  0
 25 26  2  0
 25 30  1  0
 26 27  1  0
 27 28  2  0
 28 29  1  0
 29 30  2  0
 30 31  1  0
 33 32  1  6
 33 34  1  0
 34 35  1  6
 34 36  1  0
 37 38  1  0
M  CHG  2  21   1  34   1
M  END
