
     RDKit          3D

 38 42  0  0  0  0  0  0  0  0999 V2000
   -6.8180    2.4180   -0.6300 C   0  0  0  0  0  0  0  0  0  0  0  0
   -5.5300    2.2310    0.0880 C   0  0  0  0  0  0  0  0  0  0  0  0
   -5.1220    3.1600    1.0210 C   0  0  0  0  0  0  0  0  0  0  0  0
   -3.9290    2.9870    1.6860 C   0  0  0  0  0  0  0  0  0  0  0  0
   -3.1510    1.8660    1.4000 C   0  0  0  0  0  0  0  0  0  0  0  0
   -3.5680    0.9560    0.4740 C   0  0  0  0  0  0  0  0  0  0  0  0
   -2.7380   -0.2220    0.1190 C   0  0  0  0  0  0  0  0  0  0  0  0
   -1.5700   -0.3530    0.8950 O   0  0  0  0  0  0  0  0  0  0  0  0
   -1.7050   -0.5780    2.2570 C   0  0  0  0  0  0  0  0  0  0  0  0
   -2.8780   -0.6660    2.7180 O   0  0  0  0  0  0  0  0  0  0  0  0
   -0.5430   -0.7170    3.1650 C   0  0  0  0  0  0  0  0  0  0  0  0
    0.6960   -0.5310    2.5710 O   0  0  0  0  0  0  0  0  0  0  0  0
    1.2030   -1.2510    1.5200 C   0  0  0  0  0  0  0  0  0  0  0  0
    0.5670   -2.1640    0.9880 O   0  0  0  0  0  0  0  0  0  0  0  0
    2.5710   -0.9050    1.0170 C   0  0  0  0  0  0  0  0  0  0  0  0
    2.8540   -1.7620   -0.0940 N   0  0  1  0  0  0  0  0  0  0  0  0
    1.8050   -1.6270   -1.1180 C   0  0  0  0  0  0  0  0  0  0  0  0
    4.1350   -1.6390   -0.6700 C   0  0  0  0  0  0  0  0  0  0  0  0
    4.5460   -2.4320   -1.7180 N   0  0  0  0  0  0  0  0  0  0  0  0
    5.7540   -2.1050   -2.0430 N   0  0  0  0  0  0  0  0  0  0  0  0
    6.2030   -1.1090   -1.2570 C   0  0  0  0  0  0  0  0  0  0  0  0
    5.1780   -0.8320   -0.4080 N   0  0  0  0  0  0  0  0  0  0  0  0
    5.6290    0.2130    0.4220 C   0  0  0  0  0  0  0  0  0  0  0  0
    5.0090    0.7700    1.3360 O   0  0  0  0  0  0  0  0  0  0  0  0
    7.0020    0.5580    0.0250 C   0  0  0  0  0  0  0  0  0  0  0  0
    7.8730    1.5100    0.5330 C   0  0  0  0  0  0  0  0  0  0  0  0
    9.1430    1.6200   -0.0460 C   0  0  0  0  0  0  0  0  0  0  0  0
    9.5000    0.7980   -1.0900 C   0  0  0  0  0  0  0  0  0  0  0  0
    8.6140   -0.1400   -1.5770 C   0  0  0  0  0  0  0  0  0  0  0  0
    7.3560   -0.2600   -1.0140 C   0  0  0  0  0  0  0  0  0  0  0  0
   -4.7540    1.1130   -0.1980 C   0  0  0  0  0  0  0  0  0  0  0  0
   -5.2140    0.1350   -1.1830 C   0  0  0  0  0  0  0  0  0  0  0  0
   -5.0690    0.3420   -2.5390 C   0  0  0  0  0  0  0  0  0  0  0  0
   -5.5220   -0.6070   -3.4390 C   0  0  0  0  0  0  0  0  0  0  0  0
   -6.1210   -1.7670   -3.0400 N   0  0  0  0  0  0  0  0  0  0  0  0
   -6.2660   -1.9750   -1.7210 C   0  0  0  0  0  0  0  0  0  0  0  0
   -7.0420   -3.4790   -1.2280 Cl  0  0  0  0  0  0  0  0  0  0  0  0
   -5.8240   -1.0470   -0.8040 C   0  0  0  0  0  0  0  0  0  0  0  0
  1  2  1  0
  2  3  2  0
  2 31  1  0
  3  4  1  0
  4  5  2  0
  5  6  1  0
  6  7  1  0
  6 31  2  0
  7  8  1  0
  8  9  1  0
  9 10  2  0
  9 11  1  0
 11 12  1  0
 12 13  1  0
 13 14  2  0
 13 15  1  0
 15 16  1  0
 16 17  1  6
 16 18  1  0
 18 19  2  0
 18 22  1  0
 19 20  1  0
 20 21  2  0
 21 22  1  0
 21 30  1  0
 22 23  1  0
 23 24  2  0
 23 25  1  0
 25 26  2  0
 25 30  1  0
 26 27  1  0
 27 28  2  0
 28 29  1  0
 29 30  2  0
 31 32  1  0
 32 33  2  0
 32 38  1  0
 33 34  1  0
 34 35  2  0
 35 36  1  0
 36 37  1  0
 36 38  2  0
M  CHG  2  16   1  35   1
M  END
