
     RDKit          3D

 38 41  0  0  0  0  0  0  0  0999 V2000
   -5.4050   -2.0060   -2.2710 C   0  0  0  0  0  0  0  0  0  0  0  0
   -4.2800   -1.1500   -1.7340 C   0  0  2  0  0  0  0  0  0  0  0  0
   -3.1150   -1.3430   -2.7130 C   0  0  0  0  0  0  0  0  0  0  0  0
   -3.8390   -1.5870   -0.3670 C   0  0  0  0  0  0  0  0  0  0  0  0
   -2.7710   -0.7830    0.1630 N   0  0  0  0  0  0  0  0  0  0  0  0
   -1.6570   -1.5250    0.6850 C   0  0  0  0  0  0  0  0  0  0  0  0
   -0.3690   -0.8960    0.2180 C   0  0  1  0  0  0  0  0  0  0  0  0
   -0.2020    0.4180    0.6180 O   0  0  0  0  0  0  0  0  0  0  0  0
    0.8400   -1.6980    0.6330 C   0  0  2  0  0  0  0  0  0  0  0  0
    0.9420   -1.8840    2.1130 C   0  0  0  0  0  0  0  0  0  0  0  0
    2.1200   -2.7010    2.4860 C   0  0  0  0  0  0  0  0  0  0  0  0
    2.0540   -4.0970    2.4920 C   0  0  0  0  0  0  0  0  0  0  0  0
    3.1110   -4.8960    2.8470 C   0  0  0  0  0  0  0  0  0  0  0  0
    4.3040   -4.3440    3.2200 C   0  0  0  0  0  0  0  0  0  0  0  0
    4.4130   -2.9730    3.2280 C   0  0  0  0  0  0  0  0  0  0  0  0
    3.3310   -2.1740    2.8650 C   0  0  0  0  0  0  0  0  0  0  0  0
    2.0390   -1.1760    0.0230 N   0  0  0  0  0  0  0  0  0  0  0  0
    2.7080    0.0070    0.4190 C   0  0  0  0  0  0  0  0  0  0  0  0
    2.2590    0.6940    1.3700 O   0  0  0  0  0  0  0  0  0  0  0  0
    3.8630    0.4670   -0.1990 O   0  0  0  0  0  0  0  0  0  0  0  0
    4.5430    1.6260    0.1680 C   0  0  1  0  0  0  0  0  0  0  0  0
    5.9850    1.3840    0.5400 C   0  0  0  0  0  0  0  0  0  0  0  0
    6.7380    2.4280    0.0850 O   0  0  0  0  0  0  0  0  0  0  0  0
    5.9320    3.3750   -0.4880 C   0  0  1  0  0  0  0  0  0  0  0  0
    6.5310    3.8430   -1.6400 O   0  0  0  0  0  0  0  0  0  0  0  0
    6.2420    3.0000   -2.6720 C   0  0  0  0  0  0  0  0  0  0  0  0
    5.2280    1.9920   -2.2160 C   0  0  0  0  0  0  0  0  0  0  0  0
    4.6870    2.6140   -0.9680 C   0  0  1  0  0  0  0  0  0  0  0  0
   -3.4000    0.4140    1.1880 S   0  0  1  0  0  0  0  0  0  0  0  0
   -4.1140   -0.2660    2.3490 O   0  0  0  0  0  0  0  0  0  0  0  0
   -2.3340    1.2780    1.8350 O   0  0  0  0  0  0  0  0  0  0  0  0
   -4.4860    1.5340    0.4020 C   0  0  0  0  0  0  0  0  0  0  0  0
   -5.8670    1.3220    0.4370 C   0  0  0  0  0  0  0  0  0  0  0  0
   -6.6870    2.2240   -0.1920 C   0  0  0  0  0  0  0  0  0  0  0  0
   -6.2260    3.3420   -0.8670 C   0  0  0  0  0  0  0  0  0  0  0  0
   -7.1350    4.2460   -1.5040 N   0  0  0  0  0  0  0  0  0  0  0  0
   -4.8660    3.5520   -0.9020 C   0  0  0  0  0  0  0  0  0  0  0  0
   -4.0340    2.6510   -0.2730 C   0  0  0  0  0  0  0  0  0  0  0  0
  2  1  1  6
  2  3  1  0
  2  4  1  0
  4  5  1  0
  5  6  1  0
 29  5  1  6
  6  7  1  0
  7  8  1  1
  7  9  1  0
  9 10  1  1
  9 17  1  0
 10 11  1  0
 11 12  2  0
 11 16  1  0
 12 13  1  0
 13 14  2  0
 14 15  1  0
 15 16  2  0
 17 18  1  0
 18 19  2  0
 18 20  1  0
 21 20  1  6
 21 22  1  0
 21 28  1  0
 22 23  1  0
 24 23  1  6
 24 25  1  0
 24 28  1  0
 25 26  1  0
 26 27  1  0
 28 27  1  6
 29 30  2  0
 29 31  2  0
 29 32  1  0
 32 33  2  0
 32 38  1  0
 33 34  1  0
 34 35  2  0
 35 36  1  0
 35 37  1  0
 37 38  2  0
M  END
