
     RDKit          3D

 38 42  0  0  0  0  0  0  0  0999 V2000
    9.2070    0.7760    2.2930 C   0  0  0  0  0  0  0  0  0  0  0  0
    8.1430    1.7380    1.7670 C   0  0  0  0  0  0  0  0  0  0  0  0
    7.1960    0.9920    0.8660 C   0  0  0  0  0  0  0  0  0  0  0  0
    6.1280    1.6020    0.3560 N   0  0  0  0  0  0  0  0  0  0  0  0
    5.2720    0.9710   -0.4510 C   0  0  0  0  0  0  0  0  0  0  0  0
    5.5360   -0.3500   -0.7360 C   0  0  0  0  0  0  0  0  0  0  0  0
    6.6790   -1.0020   -0.1900 C   0  0  0  0  0  0  0  0  0  0  0  0
    6.8940   -2.1970   -0.4610 O   0  0  0  0  0  0  0  0  0  0  0  0
    7.4350   -0.2770    0.5800 O   0  0  0  0  0  0  0  0  0  0  0  0
    4.6820   -1.1710   -1.6150 C   0  0  0  0  0  0  0  0  0  0  0  0
    3.5120   -0.3880   -2.0600 C   0  0  0  0  0  0  0  0  0  0  0  0
    3.0500    0.5090   -0.9620 N   0  0  2  0  0  0  0  0  0  0  0  0
    1.7170    0.8390   -1.2680 C   0  0  0  0  0  0  0  0  0  0  0  0
    0.6490    0.3090   -0.4020 C   0  0  0  0  0  0  0  0  0  0  0  0
   -0.3910    0.9330    0.1690 N   0  0  0  0  0  0  0  0  0  0  0  0
   -1.2860    0.0350    0.6610 C   0  0  0  0  0  0  0  0  0  0  0  0
   -2.5990    0.3190    1.3590 C   0  0  2  0  0  0  0  0  0  0  0  0
   -3.0090   -0.8630    2.0900 C   0  0  0  0  0  0  0  0  0  0  0  0
   -4.3710   -1.3760    1.8770 C   0  0  0  0  0  0  0  0  0  0  0  0
   -5.0360   -0.9890    0.5310 C   0  0  0  0  0  0  0  0  0  0  0  0
   -4.9060    0.4080    0.3930 N   0  0  0  0  0  0  0  0  0  0  0  0
   -5.8680    1.3740    0.2440 C   0  0  0  0  0  0  0  0  0  0  0  0
   -5.3020    2.6060    0.3040 O   0  0  0  0  0  0  0  0  0  0  0  0
   -7.2870    1.4270    0.0530 C   0  0  0  0  0  0  0  0  0  0  0  0
   -7.9070    2.6230    0.2160 O   0  0  0  0  0  0  0  0  0  0  0  0
   -9.1550    2.5680    0.0160 C   0  0  0  0  0  0  0  0  0  0  0  0
   -9.4990    1.2990   -0.3070 C   0  0  0  0  0  0  0  0  0  0  0  0
   -8.2910    0.5890   -0.2790 C   0  0  0  0  0  0  0  0  0  0  0  0
   -8.2220   -0.8200   -0.6740 C   0  0  0  0  0  0  0  0  0  0  0  0
   -3.4930    0.8420    0.2850 C   0  0  0  0  0  0  0  0  0  0  0  0
   -0.7430   -1.1930    0.3790 N   0  0  0  0  0  0  0  0  0  0  0  0
    0.4340   -1.0580   -0.2600 C   0  0  0  0  0  0  0  0  0  0  0  0
    1.3900   -2.1260   -0.4620 C   0  0  0  0  0  0  0  0  0  0  0  0
    1.2040   -3.2360   -1.1340 C   0  0  0  0  0  0  0  0  0  0  0  0
    0.0070   -3.6230   -1.8540 C   0  0  0  0  0  0  0  0  0  0  0  0
   -0.0650   -4.7080   -2.4640 O   0  0  0  0  0  0  0  0  0  0  0  0
   -1.3980   -2.5900   -1.9120 Cl  0  0  0  0  0  0  0  0  0  0  0  0
    4.0310    1.6000   -1.0310 C   0  0  0  0  0  0  0  0  0  0  0  0
  1  2  1  0
  2  3  1  0
  3  4  2  0
  3  9  1  0
  4  5  1  0
  5  6  2  0
  5 38  1  0
  6  7  1  0
  6 10  1  0
  7  8  2  0
  7  9  1  0
 10 11  1  0
 11 12  1  0
 12 13  1  6
 12 38  1  0
 13 14  1  0
 14 15  1  0
 14 32  2  0
 15 16  1  0
 17 16  1  6
 16 31  2  0
 17 18  1  0
 17 30  1  0
 18 19  1  0
 19 20  1  0
 20 21  1  0
 21 22  1  0
 21 30  1  0
 22 23  2  0
 22 24  1  0
 24 25  1  0
 24 28  2  0
 25 26  1  0
 26 27  2  0
 27 28  1  0
 28 29  1  0
 31 32  1  0
 32 33  1  0
 33 34  2  3
 34 35  1  0
 35 36  2  0
 35 37  1  0
M  CHG  2   4   1  12   1
M  END
