
     RDKit          3D

 38 42  0  0  0  0  0  0  0  0999 V2000
   11.2710   -0.1960    0.1550 C   0  0  0  0  0  0  0  0  0  0  0  0
   10.2120    0.7470    0.4490 N   0  0  0  0  0  0  0  0  0  0  0  0
    9.3870    0.2220    1.5320 C   0  0  0  0  0  0  0  0  0  0  0  0
    8.0920   -0.2660    0.9870 C   0  0  0  0  0  0  0  0  0  0  0  0
    7.9550   -1.5620    0.5020 C   0  0  0  0  0  0  0  0  0  0  0  0
    6.7130   -1.9660   -0.0000 C   0  0  0  0  0  0  0  0  0  0  0  0
    5.6450   -1.1010   -0.0150 C   0  0  0  0  0  0  0  0  0  0  0  0
    4.4260   -1.4940   -0.5080 O   0  0  0  0  0  0  0  0  0  0  0  0
    3.3070   -0.6740   -0.5190 C   0  0  0  0  0  0  0  0  0  0  0  0
    3.0140    0.1820   -1.5550 C   0  0  0  0  0  0  0  0  0  0  0  0
    1.8890    1.0020   -1.5620 C   0  0  0  0  0  0  0  0  0  0  0  0
    1.0170    0.9640   -0.4850 C   0  0  0  0  0  0  0  0  0  0  0  0
   -0.1010    1.7660   -0.4720 O   0  0  0  0  0  0  0  0  0  0  0  0
   -1.3580    1.2450   -0.4330 C   0  0  0  0  0  0  0  0  0  0  0  0
   -1.9990    1.1150    0.7380 N   0  0  0  0  0  0  0  0  0  0  0  0
   -3.2160    0.6190    0.8450 N   0  0  0  0  0  0  0  0  0  0  0  0
   -3.8570    0.2190   -0.2610 C   0  0  0  0  0  0  0  0  0  0  0  0
   -5.1680   -0.3590   -0.1760 N   0  0  0  0  0  0  0  0  0  0  0  0
   -6.2010    0.3910   -0.0760 C   0  0  0  0  0  0  0  0  0  0  0  0
   -5.9050    1.8290   -0.0600 C   0  0  0  0  0  0  0  0  0  0  0  0
   -4.8120    2.1550   -0.5320 O   0  0  0  0  0  0  0  0  0  0  0  0
   -6.6620    2.9040    0.4070 O   0  0  0  0  0  0  0  0  0  0  0  0
   -8.0050    2.7610    0.8910 C   0  0  0  0  0  0  0  0  0  0  0  0
   -8.7730    2.0140   -0.1720 C   0  0  0  0  0  0  0  0  0  0  0  0
   -8.8820    0.5430    0.1320 C   0  0  0  0  0  0  0  0  0  0  0  0
   -7.5630   -0.1430    0.0110 C   0  0  0  0  0  0  0  0  0  0  0  0
   -7.6790   -1.4440   -0.0190 C   0  0  0  0  0  0  0  0  0  0  0  0
   -6.5700   -2.4100   -0.1320 C   0  0  0  0  0  0  0  0  0  0  0  0
   -5.2140   -1.8110   -0.1930 C   0  0  2  0  0  0  0  0  0  0  0  0
   -4.3790   -2.3450    0.9660 C   0  0  0  0  0  0  0  0  0  0  0  0
   -3.2410    0.3370   -1.4500 N   0  0  0  0  0  0  0  0  0  0  0  0
   -2.0050    0.8400   -1.5760 C   0  0  0  0  0  0  0  0  0  0  0  0
   -1.4260    0.9530   -2.6740 O   0  0  0  0  0  0  0  0  0  0  0  0
    1.2950    0.1180    0.5520 C   0  0  0  0  0  0  0  0  0  0  0  0
    0.2820   -0.0210    1.9790 Cl  0  0  0  0  0  0  0  0  0  0  0  0
    2.4320   -0.7020    0.5450 C   0  0  0  0  0  0  0  0  0  0  0  0
    5.8090    0.1760    0.4720 C   0  0  0  0  0  0  0  0  0  0  0  0
    7.0280    0.6060    0.9760 C   0  0  0  0  0  0  0  0  0  0  0  0
  1  2  1  0
  2  3  1  0
  3  4  1  0
  4  5  2  0
  4 38  1  0
  5  6  1  0
  6  7  2  0
  7  8  1  0
  7 37  1  0
  8  9  1  0
  9 10  2  0
  9 36  1  0
 10 11  1  0
 11 12  2  0
 12 13  1  0
 12 34  1  0
 13 14  1  0
 14 15  2  0
 14 32  1  0
 15 16  1  0
 16 17  2  0
 17 18  1  0
 17 31  1  0
 18 19  2  0
 18 29  1  0
 19 20  1  0
 19 26  1  0
 20 21  2  0
 20 22  1  0
 22 23  1  0
 23 24  1  0
 24 25  1  0
 25 26  1  0
 26 27  2  0
 27 28  1  0
 28 29  1  0
 29 30  1  1
 31 32  1  0
 32 33  2  0
 34 35  1  0
 34 36  2  0
 37 38  2  0
M  CHG  2   2   1  18   1
M  END
