
     RDKit          3D

 38 42  0  0  0  0  0  0  0  0999 V2000
   -8.6080    0.1050   -0.5010 C   0  0  0  0  0  0  0  0  0  0  0  0
   -7.5330    0.9230    0.0420 N   0  0  2  0  0  0  0  0  0  0  0  0
   -7.9530    2.2960    0.2550 C   0  0  0  0  0  0  0  0  0  0  0  0
   -6.9320    2.8950    1.2080 C   0  0  0  0  0  0  0  0  0  0  0  0
   -5.5720    2.2590    1.0200 C   0  0  0  0  0  0  0  0  0  0  0  0
   -5.3370    1.8210   -0.3960 C   0  0  1  0  0  0  0  0  0  0  0  0
   -4.0120    1.2120   -0.5050 C   0  0  0  0  0  0  0  0  0  0  0  0
   -3.1190    1.9170   -1.1020 O   0  0  0  0  0  0  0  0  0  0  0  0
   -3.6290   -0.0580   -0.0190 N   0  0  0  0  0  0  0  0  0  0  0  0
   -4.3560   -1.1020    0.6640 C   0  0  0  0  0  0  0  0  0  0  0  0
   -3.3160   -1.5790    1.6810 C   0  0  0  0  0  0  0  0  0  0  0  0
   -2.1680   -1.6990    0.7700 N   0  0  2  0  0  0  0  0  0  0  0  0
   -0.9850   -1.7580    1.5670 C   0  0  0  0  0  0  0  0  0  0  0  0
    0.0550   -2.6910    0.9820 C   0  0  0  0  0  0  0  0  0  0  0  0
    0.4090   -2.2330   -0.3000 O   0  0  0  0  0  0  0  0  0  0  0  0
    0.9690   -1.0110   -0.5950 C   0  0  0  0  0  0  0  0  0  0  0  0
    1.1980   -0.2140    0.3390 O   0  0  0  0  0  0  0  0  0  0  0  0
    1.3130   -0.6020   -1.9740 C   0  0  0  0  0  0  0  0  0  0  0  0
    2.6660   -1.0600   -2.2300 N   0  0  0  0  0  0  0  0  0  0  0  0
    2.9590   -2.2580   -2.7490 N   0  0  0  0  0  0  0  0  0  0  0  0
    4.2870   -2.3890   -2.8660 C   0  0  0  0  0  0  0  0  0  0  0  0
    4.8570   -1.2220   -2.4010 C   0  0  0  0  0  0  0  0  0  0  0  0
    6.1630   -0.7920   -2.2790 C   0  0  0  0  0  0  0  0  0  0  0  0
    6.4830    0.4510   -1.7690 C   0  0  0  0  0  0  0  0  0  0  0  0
    7.8150    0.8560   -1.6590 O   0  0  0  0  0  0  0  0  0  0  0  0
    8.5290    0.5910   -0.5050 C   0  0  0  0  0  0  0  0  0  0  0  0
    9.2260   -0.5940   -0.4320 C   0  0  0  0  0  0  0  0  0  0  0  0
    9.9430   -0.8460    0.7430 C   0  0  0  0  0  0  0  0  0  0  0  0
    9.9520    0.0530    1.7860 C   0  0  0  0  0  0  0  0  0  0  0  0
   10.6800   -0.2640    2.9110 O   0  0  0  0  0  0  0  0  0  0  0  0
    9.2440    1.2320    1.6850 C   0  0  0  0  0  0  0  0  0  0  0  0
    9.2680    2.3610    3.0210 Cl  0  0  0  0  0  0  0  0  0  0  0  0
    8.5260    1.5010    0.5270 C   0  0  0  0  0  0  0  0  0  0  0  0
    5.4420    1.2650   -1.3780 C   0  0  0  0  0  0  0  0  0  0  0  0
    4.1190    0.8360   -1.4980 C   0  0  0  0  0  0  0  0  0  0  0  0
    3.8100   -0.4040   -2.0070 C   0  0  0  0  0  0  0  0  0  0  0  0
   -2.2610   -0.5980   -0.1340 C   0  0  0  0  0  0  0  0  0  0  0  0
   -6.4460    0.9410   -0.9120 C   0  0  0  0  0  0  0  0  0  0  0  0
  2  1  1  6
  2  3  1  0
  2 38  1  0
  3  4  1  0
  4  5  1  0
  5  6  1  0
  6  7  1  1
  6 38  1  0
  7  8  2  0
  7  9  1  0
  9 10  1  0
  9 37  1  0
 10 11  1  0
 11 12  1  0
 12 13  1  1
 12 37  1  0
 13 14  1  0
 14 15  1  0
 15 16  1  0
 16 17  2  0
 16 18  1  0
 18 19  1  0
 19 20  1  0
 19 36  1  0
 20 21  2  0
 21 22  1  0
 22 23  2  0
 22 36  1  0
 23 24  1  0
 24 25  1  0
 24 34  2  0
 25 26  1  0
 26 27  2  0
 26 33  1  0
 27 28  1  0
 28 29  2  0
 29 30  1  0
 29 31  1  0
 31 32  1  0
 31 33  2  0
 34 35  1  0
 35 36  2  0
M  CHG  2   2   1  12   1
M  END
