
     RDKit          3D

 12 12  0  0  0  0  0  0  0  0999 V2000
   -2.4620   -1.0640    0.3530 O   0  0  0  0  0  0  0  0  0  0  0  0
   -1.2140   -0.5220    0.5730 C   0  0  2  0  0  0  0  0  0  0  0  0
   -1.0930    0.8550   -0.0500 C   0  0  1  0  0  0  0  0  0  0  0  0
   -2.0370    1.7430    0.4130 O   0  0  0  0  0  0  0  0  0  0  0  0
    0.2770    1.4110    0.1180 C   0  0  2  0  0  0  0  0  0  0  0  0
    0.3740    2.4740   -0.8150 O   0  0  0  0  0  0  0  0  0  0  0  0
    1.3940    0.4760   -0.1040 C   0  0  1  0  0  0  0  0  0  0  0  0
    2.5000    0.9170    0.6520 O   0  0  0  0  0  0  0  0  0  0  0  0
    1.1520   -0.9550    0.1900 C   0  0  2  0  0  0  0  0  0  0  0  0
    2.0530   -1.7030   -0.6080 O   0  0  0  0  0  0  0  0  0  0  0  0
   -0.2210   -1.3690   -0.2370 C   0  0  1  0  0  0  0  0  0  0  0  0
   -0.4770   -2.7090   -0.1320 O   0  0  0  0  0  0  0  0  0  0  0  0
  2  1  1  6
  2  3  1  0
  2 11  1  0
  3  4  1  1
  3  5  1  0
  5  6  1  6
  5  7  1  0
  7  8  1  1
  7  9  1  0
  9 10  1  6
  9 11  1  0
 11 12  1  1
M  END
