
     RDKit          3D

 23 25  0  0  0  0  0  0  0  0999 V2000
   -6.2550   -1.8320    1.0140 C   0  0  0  0  0  0  0  0  0  0  0  0
   -5.8200   -0.6430    0.3550 O   0  0  0  0  0  0  0  0  0  0  0  0
   -6.0460   -0.5100   -0.9860 C   0  0  0  0  0  0  0  0  0  0  0  0
   -6.6330   -1.4370   -1.6110 O   0  0  0  0  0  0  0  0  0  0  0  0
   -5.6310    0.6840   -1.7500 C   0  0  0  0  0  0  0  0  0  0  0  0
   -4.8050    1.8600   -0.6740 S   0  0  0  0  0  0  0  0  0  0  0  0
   -3.2220    1.2440   -0.0620 C   0  0  0  0  0  0  0  0  0  0  0  0
   -2.0210    1.3790   -0.6630 N   0  0  0  0  0  0  0  0  0  0  0  0
   -1.0400    0.8030    0.0510 C   0  0  0  0  0  0  0  0  0  0  0  0
    0.3760    0.7150   -0.2240 C   0  0  0  0  0  0  0  0  0  0  0  0
    0.9100    1.2750   -1.3580 C   0  0  0  0  0  0  0  0  0  0  0  0
    2.2760    1.1950   -1.6320 C   0  0  0  0  0  0  0  0  0  0  0  0
    3.0870    0.5380   -0.7330 C   0  0  0  0  0  0  0  0  0  0  0  0
    4.4330    0.4660   -1.0140 O   0  0  0  0  0  0  0  0  0  0  0  0
    5.2610   -0.1910   -0.1220 C   0  0  0  0  0  0  0  0  0  0  0  0
    5.2970    0.0380    1.1650 C   0  0  0  0  0  0  0  0  0  0  0  0
    6.3060   -0.8660    1.7500 C   0  0  0  0  0  0  0  0  0  0  0  0
    6.8260   -1.6300    0.5950 C   0  0  0  0  0  0  0  0  0  0  0  0
    6.2030   -1.2200   -0.4870 C   0  0  0  0  0  0  0  0  0  0  0  0
    2.5650   -0.0140    0.3850 N   0  0  0  0  0  0  0  0  0  0  0  0
    1.2220    0.0700    0.6440 C   0  0  0  0  0  0  0  0  0  0  0  0
   -1.6800    0.2950    1.1370 N   0  0  0  0  0  0  0  0  0  0  0  0
   -2.9740    0.5580    1.0670 N   0  0  0  0  0  0  0  0  0  0  0  0
  1  2  1  0
  2  3  1  0
  3  4  2  0
  3  5  1  0
  5  6  1  0
  6  7  1  0
  7  8  2  0
  7 23  1  0
  8  9  1  0
  9 10  1  0
  9 22  2  0
 10 11  2  0
 10 21  1  0
 11 12  1  0
 12 13  2  0
 13 14  1  0
 13 20  1  0
 14 15  1  0
 15 16  2  0
 15 19  1  0
 16 17  1  0
 17 18  1  0
 18 19  2  0
 20 21  2  0
 22 23  1  0
M  END
