
     RDKit          3D

 23 25  0  0  0  0  0  0  0  0999 V2000
   -6.5840   -0.3860   -0.7920 C   0  0  0  0  0  0  0  0  0  0  0  0
   -6.2500   -1.6840   -0.1670 C   0  0  0  0  0  0  0  0  0  0  0  0
   -5.4110   -1.7040    1.0600 C   0  0  0  0  0  0  0  0  0  0  0  0
   -4.1470   -1.1930    0.8820 O   0  0  0  0  0  0  0  0  0  0  0  0
   -3.6460    0.0220    0.6380 C   0  0  0  0  0  0  0  0  0  0  0  0
   -4.4140    0.9970    0.5430 O   0  0  0  0  0  0  0  0  0  0  0  0
   -2.2040    0.3100    0.4670 C   0  0  0  0  0  0  0  0  0  0  0  0
   -1.7660    1.5290    0.2270 C   0  0  0  0  0  0  0  0  0  0  0  0
   -0.3370    1.7700    0.0650 C   0  0  0  0  0  0  0  0  0  0  0  0
    0.2500    2.9670   -0.1840 N   0  0  0  0  0  0  0  0  0  0  0  0
    1.5470    2.8020   -0.2680 N   0  0  0  0  0  0  0  0  0  0  0  0
    1.8370    1.4940   -0.0760 C   0  0  0  0  0  0  0  0  0  0  0  0
    3.1770    0.9750   -0.1060 C   0  0  0  0  0  0  0  0  0  0  0  0
    4.2840    1.7320   -0.3260 C   0  0  0  0  0  0  0  0  0  0  0  0
    5.5670    1.2490   -0.3570 C   0  0  0  0  0  0  0  0  0  0  0  0
    5.8200   -0.1030   -0.1550 C   0  0  0  0  0  0  0  0  0  0  0  0
    6.9530   -0.7730   -0.1410 N   0  0  0  0  0  0  0  0  0  0  0  0
    7.1710   -1.8720    0.0220 C   0  0  0  0  0  0  0  0  0  0  0  0
    8.2090   -2.8740    0.0980 O   0  0  0  0  0  0  0  0  0  0  0  0
    5.3980   -2.5160    0.2810 S   0  0  0  0  0  0  0  0  0  0  0  0
    4.7020   -0.8850    0.0710 C   0  0  0  0  0  0  0  0  0  0  0  0
    3.4100   -0.3930    0.1000 C   0  0  0  0  0  0  0  0  0  0  0  0
    0.6770    0.8890    0.1230 N   0  0  0  0  0  0  0  0  0  0  0  0
  1  2  1  0
  2  3  1  0
  3  4  1  0
  4  5  1  0
  5  6  2  0
  5  7  1  0
  7  8  2  3
  8  9  1  0
  9 10  2  0
  9 23  1  0
 10 11  1  0
 11 12  1  0
 12 13  1  0
 12 23  2  0
 13 14  2  0
 13 22  1  0
 14 15  1  0
 15 16  2  0
 16 17  1  0
 16 21  1  0
 17 18  2  0
 18 19  1  0
 18 20  1  0
 20 21  1  0
 21 22  2  0
M  END
