
     RDKit          3D

 22 24  0  0  0  0  0  0  0  0999 V2000
   -4.7690   -0.6050    1.5570 C   0  0  0  0  0  0  0  0  0  0  0  0
   -3.8720    0.0530    0.5470 C   0  0  2  0  0  0  0  0  0  0  0  0
   -4.7010    0.4960   -0.6190 C   0  0  0  0  0  0  0  0  0  0  0  0
   -2.7670   -0.9050    0.1630 C   0  0  0  0  0  0  0  0  0  0  0  0
   -1.5560   -0.0530    0.0630 C   0  0  0  0  0  0  0  0  0  0  0  0
   -0.3140   -0.3580   -0.4800 C   0  0  0  0  0  0  0  0  0  0  0  0
    0.6640    0.6040   -0.4600 C   0  0  0  0  0  0  0  0  0  0  0  0
    2.0050    0.3430   -1.0210 C   0  0  0  0  0  0  0  0  0  0  0  0
    2.8880    1.2460   -0.9920 O   0  0  0  0  0  0  0  0  0  0  0  0
    2.3470   -0.9500   -1.6190 C   0  0  0  0  0  0  0  0  0  0  0  0
    4.0590   -0.9070   -2.2020 S   0  0  0  0  0  0  0  0  0  0  0  0
    5.2010   -0.7580   -0.8370 C   0  0  0  0  0  0  0  0  0  0  0  0
    5.6220    0.4150   -0.3450 N   0  0  0  0  0  0  0  0  0  0  0  0
    6.4530    0.1440    0.6510 N   0  0  0  0  0  0  0  0  0  0  0  0
    6.5530   -1.1840    0.7830 C   0  0  0  0  0  0  0  0  0  0  0  0
    7.2570   -1.7940    1.6290 O   0  0  0  0  0  0  0  0  0  0  0  0
    5.7760   -1.7550   -0.1410 N   0  0  0  0  0  0  0  0  0  0  0  0
    0.3960    1.8310    0.0900 C   0  0  0  0  0  0  0  0  0  0  0  0
    1.2980    2.7080    0.1050 O   0  0  0  0  0  0  0  0  0  0  0  0
   -0.8290    2.1220    0.6210 N   0  0  0  0  0  0  0  0  0  0  0  0
   -1.7980    1.1910    0.6090 C   0  0  0  0  0  0  0  0  0  0  0  0
   -3.1890    1.2740    1.1210 C   0  0  0  0  0  0  0  0  0  0  0  0
  2  1  1  1
  2  3  1  0
  2  4  1  0
  2 22  1  0
  4  5  1  0
  5  6  1  0
  5 21  2  0
  6  7  2  0
  7  8  1  0
  7 18  1  0
  8  9  2  0
  8 10  1  0
 10 11  1  0
 11 12  1  0
 12 13  2  0
 12 17  1  0
 13 14  1  0
 14 15  1  0
 15 16  2  0
 15 17  1  0
 18 19  2  0
 18 20  1  0
 20 21  1  0
 21 22  1  0
M  END
