
     RDKit          3D

 21 21  0  0  0  0  0  0  0  0999 V2000
    2.7320   -0.8590    0.1850 C   0  0  0  0  0  0  0  0  0  0  0  0
    1.9500   -0.6590   -1.0810 C   0  0  1  0  0  0  0  0  0  0  0  0
    0.6900   -1.5070   -1.1040 C   0  0  0  0  0  0  0  0  0  0  0  0
    0.0190   -1.5350    0.1680 N   0  0  0  0  0  0  0  0  0  0  0  0
    0.4210   -2.6140    1.0860 C   0  0  0  0  0  0  0  0  0  0  0  0
   -0.9650   -0.6520    0.6190 C   0  0  0  0  0  0  0  0  0  0  0  0
   -0.9200   -0.3210    1.8550 O   0  0  0  0  0  0  0  0  0  0  0  0
   -2.0550   -0.0500   -0.1600 C   0  0  2  0  0  0  0  0  0  0  0  0
   -1.7970    0.1550   -1.4910 O   0  0  0  0  0  0  0  0  0  0  0  0
   -2.6000   -0.5300   -2.2930 O   0  0  0  0  0  0  0  0  0  0  0  0
   -2.6770   -1.7440   -1.7920 O   0  0  0  0  0  0  0  0  0  0  0  0
   -2.5160    1.2410    0.4140 C   0  0  0  0  0  0  0  0  0  0  0  0
   -3.6670    1.6210   -0.0010 O   0  0  0  0  0  0  0  0  0  0  0  0
   -1.8290    2.0400    1.3280 N   0  0  0  0  0  0  0  0  0  0  0  0
   -0.4650    2.4390    1.2680 C   0  0  0  0  0  0  0  0  0  0  0  0
    0.2180    2.5160    2.3480 O   0  0  0  0  0  0  0  0  0  0  0  0
    0.2420    2.7800    0.0250 C   0  0  0  0  0  0  0  0  0  0  0  0
    1.6970    2.5390    0.1900 C   0  0  0  0  0  0  0  0  0  0  0  0
    2.3450    3.4180    0.8480 O   0  0  0  0  0  0  0  0  0  0  0  0
    2.3230    1.4230   -0.3390 O   0  0  0  0  0  0  0  0  0  0  0  0
    1.6760    0.6870   -1.2300 O   0  0  0  0  0  0  0  0  0  0  0  0
  2  1  1  1
  2  3  1  0
  2 21  1  0
  3  4  1  0
  4  5  1  0
  4  6  1  0
  6  7  2  0
  6  8  1  0
  8  9  1  6
  8 12  1  0
  9 10  1  0
 10 11  1  0
 12 13  2  0
 12 14  1  0
 14 15  1  0
 15 16  2  0
 15 17  1  0
 17 18  1  0
 18 19  2  0
 18 20  1  0
 20 21  1  0
M  END
