
     RDKit          3D

 21 21  0  0  0  0  0  0  0  0999 V2000
   -3.8600    0.0960   -2.9230 C   0  0  0  0  0  0  0  0  0  0  0  0
   -3.3750   -0.3070   -1.6340 N   0  0  0  0  0  0  0  0  0  0  0  0
   -1.9740   -0.3980   -1.1950 C   0  0  0  0  0  0  0  0  0  0  0  0
   -2.0960   -0.4080    0.2830 C   0  0  1  0  0  0  0  0  0  0  0  0
   -1.0650   -1.2440    0.9690 C   0  0  0  0  0  0  0  0  0  0  0  0
    0.2030   -0.7640    1.0980 O   0  0  0  0  0  0  0  0  0  0  0  0
    1.1500   -0.4640    0.1790 C   0  0  0  0  0  0  0  0  0  0  0  0
    0.9170   -0.6310   -1.0310 O   0  0  0  0  0  0  0  0  0  0  0  0
    2.4850    0.0690    0.5980 C   0  0  0  0  0  0  0  0  0  0  0  0
    3.3320    0.3120   -0.6140 C   0  0  0  0  0  0  0  0  0  0  0  0
    4.6390    0.8300   -0.2740 N   0  0  0  0  0  0  0  0  0  0  0  0
    5.5610    0.1330    0.5450 C   0  0  0  0  0  0  0  0  0  0  0  0
    5.2500   -0.9910    1.0090 O   0  0  0  0  0  0  0  0  0  0  0  0
    6.8190    0.6650    0.8540 O   0  0  0  0  0  0  0  0  0  0  0  0
   -2.2050    0.8400    0.8690 O   0  0  0  0  0  0  0  0  0  0  0  0
   -2.3590    1.0230    2.2150 C   0  0  0  0  0  0  0  0  0  0  0  0
   -2.4240    0.0960    3.0580 O   0  0  0  0  0  0  0  0  0  0  0  0
   -2.4600    2.3100    2.7820 O   0  0  0  0  0  0  0  0  0  0  0  0
   -3.3800   -1.0470    0.5450 O   0  0  0  0  0  0  0  0  0  0  0  0
   -4.1610   -0.6980   -0.5310 C   0  0  0  0  0  0  0  0  0  0  0  0
   -5.4330   -0.7330   -0.5040 O   0  0  0  0  0  0  0  0  0  0  0  0
  1  2  1  0
  2  3  1  0
  2 20  1  0
  3  4  1  0
  4  5  1  1
  4 15  1  0
  4 19  1  0
  5  6  1  0
  6  7  1  0
  7  8  2  0
  7  9  1  0
  9 10  1  0
 10 11  1  0
 11 12  1  0
 12 13  2  0
 12 14  1  0
 15 16  1  0
 16 17  2  0
 16 18  1  0
 19 20  1  0
 20 21  2  0
M  END
