
     RDKit          3D

 21 21  0  0  0  0  0  0  0  0999 V2000
   -3.2650   -3.2860   -0.6480 O   0  0  0  0  0  0  0  0  0  0  0  0
   -2.6590   -2.3890    0.0290 C   0  0  0  0  0  0  0  0  0  0  0  0
   -2.8610   -0.9970   -0.4550 C   0  0  0  0  0  0  0  0  0  0  0  0
   -2.5590   -0.0930    0.5630 O   0  0  0  0  0  0  0  0  0  0  0  0
   -2.6060    1.1910   -0.0300 C   0  0  0  0  0  0  0  0  0  0  0  0
   -1.2810    1.8840    0.1290 C   0  0  0  0  0  0  0  0  0  0  0  0
   -0.6860    1.7450    1.4170 N   0  0  0  0  0  0  0  0  0  0  0  0
    0.6870    1.5580    1.7080 C   0  0  0  0  0  0  0  0  0  0  0  0
    1.0660    1.9670    2.8430 O   0  0  0  0  0  0  0  0  0  0  0  0
    1.6460    0.9870    0.9020 O   0  0  0  0  0  0  0  0  0  0  0  0
    1.5940    0.0510   -0.0590 C   0  0  0  0  0  0  0  0  0  0  0  0
    2.3060    0.0670   -1.1750 C   0  0  0  0  0  0  0  0  0  0  0  0
    3.2510    1.1860   -1.4320 C   0  0  0  0  0  0  0  0  0  0  0  0
    4.5570    0.7290   -1.5710 O   0  0  0  0  0  0  0  0  0  0  0  0
    5.3600    1.7460   -1.7970 O   0  0  0  0  0  0  0  0  0  0  0  0
    0.6860   -1.1210    0.0780 C   0  0  1  0  0  0  0  0  0  0  0  0
    1.4740   -2.2660    0.1090 O   0  0  0  0  0  0  0  0  0  0  0  0
   -0.1320   -0.9630    1.1870 O   0  0  0  0  0  0  0  0  0  0  0  0
   -0.9520   -1.8500    1.8000 C   0  0  0  0  0  0  0  0  0  0  0  0
   -0.9310   -1.9230    3.0850 O   0  0  0  0  0  0  0  0  0  0  0  0
   -1.8600   -2.7320    1.1530 N   0  0  0  0  0  0  0  0  0  0  0  0
  1  2  2  0
  2  3  1  0
  2 21  1  0
  3  4  1  0
  4  5  1  0
  5  6  1  0
  6  7  1  0
  7  8  1  0
  8  9  2  0
  8 10  1  0
 10 11  1  0
 11 12  2  3
 11 16  1  0
 12 13  1  0
 13 14  1  0
 14 15  1  0
 16 17  1  1
 16 18  1  0
 18 19  1  0
 19 20  2  0
 19 21  1  0
M  END
