
     RDKit          3D

 21 22  0  0  0  0  0  0  0  0999 V2000
   -4.4380   -2.6380   -0.1140 O   0  0  0  0  0  0  0  0  0  0  0  0
   -4.2960   -1.3730   -0.1310 C   0  0  0  0  0  0  0  0  0  0  0  0
   -3.1330   -0.7570    0.3470 N   0  0  0  0  0  0  0  0  0  0  0  0
   -2.9410    0.5190    0.3510 C   0  0  0  0  0  0  0  0  0  0  0  0
   -1.7650    0.9400    0.8470 O   0  0  0  0  0  0  0  0  0  0  0  0
   -0.4930    0.6140    0.4450 C   0  0  0  0  0  0  0  0  0  0  0  0
   -0.0690   -0.8110    0.4340 C   0  0  1  0  0  0  0  0  0  0  0  0
   -0.3050   -1.4600    1.6450 O   0  0  0  0  0  0  0  0  0  0  0  0
   -0.3030   -1.6010   -0.7980 C   0  0  0  0  0  0  0  0  0  0  0  0
    0.7160   -1.0680   -1.6800 O   0  0  0  0  0  0  0  0  0  0  0  0
    1.7960   -0.8910   -0.8850 N   0  0  0  0  0  0  0  0  0  0  0  0
    1.4810   -0.7350    0.3390 C   0  0  0  0  0  0  0  0  0  0  0  0
    2.3220   -0.5360    1.3910 O   0  0  0  0  0  0  0  0  0  0  0  0
    3.7280   -0.5510    1.2470 C   0  0  0  0  0  0  0  0  0  0  0  0
    4.2150    0.5120    0.2840 C   0  0  0  0  0  0  0  0  0  0  0  0
    5.6160    0.3830    0.2390 O   0  0  0  0  0  0  0  0  0  0  0  0
    6.1620    1.2570   -0.5700 O   0  0  0  0  0  0  0  0  0  0  0  0
    5.2090    1.8900   -1.1950 O   0  0  0  0  0  0  0  0  0  0  0  0
   -3.9830    1.3990   -0.1650 C   0  0  0  0  0  0  0  0  0  0  0  0
   -5.3530    0.7630   -0.1750 C   0  0  0  0  0  0  0  0  0  0  0  0
   -5.3140   -0.5730   -0.6340 O   0  0  0  0  0  0  0  0  0  0  0  0
  1  2  2  0
  2  3  1  0
  2 21  1  0
  3  4  2  0
  4  5  1  0
  4 19  1  0
  5  6  1  0
  6  7  1  0
  7  8  1  1
  7  9  1  0
  7 12  1  0
  9 10  1  0
 10 11  1  0
 11 12  2  0
 12 13  1  0
 13 14  1  0
 14 15  1  0
 15 16  1  0
 16 17  1  0
 17 18  1  0
 19 20  1  0
 20 21  1  0
M  END
