
     RDKit          3D

 21 21  0  0  0  0  0  0  0  0999 V2000
   -4.5840   -1.9100    1.1640 O   0  0  0  0  0  0  0  0  0  0  0  0
   -3.6870   -1.2720    0.6400 C   0  0  0  0  0  0  0  0  0  0  0  0
   -3.8960    0.1850    0.4130 C   0  0  0  0  0  0  0  0  0  0  0  0
   -2.6910    0.8890    0.3740 O   0  0  0  0  0  0  0  0  0  0  0  0
   -2.5390    1.4380   -0.8630 N   0  0  0  0  0  0  0  0  0  0  0  0
   -1.6780    2.5660   -1.1020 C   0  0  0  0  0  0  0  0  0  0  0  0
   -2.1320    3.3810   -1.9830 O   0  0  0  0  0  0  0  0  0  0  0  0
   -0.4970    2.7260   -0.4380 O   0  0  0  0  0  0  0  0  0  0  0  0
    0.6390    1.9300   -0.4420 C   0  0  0  0  0  0  0  0  0  0  0  0
    0.4760    0.5300   -0.9130 C   0  0  0  0  0  0  0  0  0  0  0  0
    0.9520   -0.4850    0.1350 C   0  0  1  0  0  0  0  0  0  0  0  0
    2.3710   -0.2770    0.2980 N   0  0  0  0  0  0  0  0  0  0  0  0
    3.3520   -1.2120   -0.0790 C   0  0  0  0  0  0  0  0  0  0  0  0
    2.9850   -2.2970   -0.5890 O   0  0  0  0  0  0  0  0  0  0  0  0
    4.7890   -0.8950    0.1340 C   0  0  0  0  0  0  0  0  0  0  0  0
    4.9500    0.3620    0.7120 O   0  0  0  0  0  0  0  0  0  0  0  0
    0.2030   -0.3150    1.3930 C   0  0  0  0  0  0  0  0  0  0  0  0
    0.8120    0.3270    2.3200 O   0  0  0  0  0  0  0  0  0  0  0  0
   -1.0580   -0.7960    1.5980 O   0  0  0  0  0  0  0  0  0  0  0  0
   -1.5010   -2.0070    1.2850 O   0  0  0  0  0  0  0  0  0  0  0  0
   -2.4410   -1.9920    0.2610 C   0  0  0  0  0  0  0  0  0  0  0  0
  1  2  2  0
  2  3  1  0
  2 21  1  0
  3  4  1  0
  4  5  1  0
  5  6  1  0
  6  7  2  0
  6  8  1  0
  8  9  1  0
  9 10  1  0
 10 11  1  0
 11 12  1  1
 11 17  1  0
 12 13  1  0
 13 14  2  0
 13 15  1  0
 15 16  1  0
 17 18  2  0
 17 19  1  0
 19 20  1  0
 20 21  1  0
M  END
