
     RDKit          3D

 21 21  0  0  0  0  0  0  0  0999 V2000
    5.3990   -0.1570   -1.1380 C   0  0  0  0  0  0  0  0  0  0  0  0
    4.1230    0.0600   -0.5620 O   0  0  0  0  0  0  0  0  0  0  0  0
    3.4790   -0.8740    0.2320 C   0  0  0  0  0  0  0  0  0  0  0  0
    4.0700   -1.9640    0.4420 O   0  0  0  0  0  0  0  0  0  0  0  0
    2.1530   -0.6580    0.8350 C   0  0  1  0  0  0  0  0  0  0  0  0
    1.0890   -0.4700   -0.2570 C   0  0  0  0  0  0  0  0  0  0  0  0
   -0.0540    0.2640    0.4600 C   0  0  1  0  0  0  0  0  0  0  0  0
   -1.1740    0.4590   -0.4180 N   0  0  0  0  0  0  0  0  0  0  0  0
   -1.5440    1.8240   -0.7740 C   0  0  0  0  0  0  0  0  0  0  0  0
   -2.5240    2.3760    0.1810 C   0  0  0  0  0  0  0  0  0  0  0  0
   -2.2280    2.5070    1.5090 O   0  0  0  0  0  0  0  0  0  0  0  0
   -3.6720    2.7360   -0.2610 N   0  0  0  0  0  0  0  0  0  0  0  0
   -4.5900    3.2450    0.5930 O   0  0  0  0  0  0  0  0  0  0  0  0
   -1.9040   -0.6200   -0.9350 C   0  0  0  0  0  0  0  0  0  0  0  0
   -2.8780   -0.4200   -1.7010 O   0  0  0  0  0  0  0  0  0  0  0  0
   -1.5840   -1.9300   -0.6240 O   0  0  0  0  0  0  0  0  0  0  0  0
   -2.3090   -3.0140   -1.1360 C   0  0  0  0  0  0  0  0  0  0  0  0
   -0.3350   -0.5290    1.6650 C   0  0  0  0  0  0  0  0  0  0  0  0
   -1.4470   -0.3980    2.2270 O   0  0  0  0  0  0  0  0  0  0  0  0
    0.5790   -1.4010    2.1840 O   0  0  0  0  0  0  0  0  0  0  0  0
    1.7260   -1.7480    1.5880 O   0  0  0  0  0  0  0  0  0  0  0  0
  1  2  1  0
  2  3  1  0
  3  4  2  0
  5  3  1  6
  5  6  1  0
  5 21  1  0
  6  7  1  0
  7  8  1  6
  7 18  1  0
  8  9  1  0
  8 14  1  0
  9 10  1  0
 10 11  1  0
 10 12  2  3
 12 13  1  0
 14 15  2  0
 14 16  1  0
 16 17  1  0
 18 19  2  0
 18 20  1  0
 20 21  1  0
M  END
