
     RDKit          3D

 24 24  0  0  0  0  0  0  0  0999 V2000
    7.2410    1.4040    0.1790 C   0  0  0  0  0  0  0  0  0  0  0  0
    5.9820    1.9420   -0.4370 C   0  0  0  0  0  0  0  0  0  0  0  0
    4.9670    0.9310   -0.4430 O   0  0  0  0  0  0  0  0  0  0  0  0
    3.7200    1.2340   -0.9740 C   0  0  0  0  0  0  0  0  0  0  0  0
    3.5080    2.4040   -1.4440 O   0  0  0  0  0  0  0  0  0  0  0  0
    2.7310    0.2240   -0.9720 N   0  0  0  0  0  0  0  0  0  0  0  0
    1.4180    0.5060   -1.5190 C   0  0  0  0  0  0  0  0  0  0  0  0
    0.5950   -0.6130   -1.4220 O   0  0  0  0  0  0  0  0  0  0  0  0
    0.4210   -1.0220   -0.1060 C   0  0  2  0  0  0  0  0  0  0  0  0
    0.5670   -2.5260    0.0690 C   0  0  0  0  0  0  0  0  0  0  0  0
   -0.8920   -2.6270   -0.3960 C   0  0  0  0  0  0  0  0  0  0  0  0
   -1.0730   -1.2300    0.1610 C   0  0  1  0  0  0  0  0  0  0  0  0
   -1.4260   -1.1720    1.6310 C   0  0  0  0  0  0  0  0  0  0  0  0
   -2.9070   -1.3860    1.7750 C   0  0  0  0  0  0  0  0  0  0  0  0
   -3.3020   -2.6220    1.2680 O   0  0  0  0  0  0  0  0  0  0  0  0
   -4.9940   -2.8830    1.4260 P   0  0  0  0  0  0  0  0  0  0  0  0
   -5.5160   -2.6290    3.0820 O   0  0  0  0  0  0  0  0  0  0  0  0
   -5.3310   -4.5460    1.0440 O   0  0  0  0  0  0  0  0  0  0  0  0
   -1.9080   -0.3320   -0.6360 C   0  0  0  0  0  0  0  0  0  0  0  0
   -2.7630   -0.7540   -1.4590 O   0  0  0  0  0  0  0  0  0  0  0  0
   -1.7500    1.0840   -0.4750 N   0  0  0  0  0  0  0  0  0  0  0  0
   -2.5400    2.0200   -1.2290 C   0  0  0  0  0  0  0  0  0  0  0  0
   -2.1720    3.4350   -0.8670 C   0  0  0  0  0  0  0  0  0  0  0  0
   -2.9450    4.3340   -1.6030 O   0  0  0  0  0  0  0  0  0  0  0  0
  1  2  1  0
  2  3  1  0
  3  4  1  0
  4  5  2  0
  4  6  1  0
  6  7  1  0
  7  8  1  0
  9  8  1  6
  9 10  1  0
  9 12  1  0
 10 11  1  0
 11 12  1  0
 12 13  1  1
 12 19  1  0
 13 14  1  0
 14 15  1  0
 15 16  1  0
 16 17  1  0
 16 18  1  0
 19 20  2  0
 19 21  1  0
 21 22  1  0
 22 23  1  0
 23 24  1  0
M  END
