
     RDKit          3D

 24 24  0  0  0  0  0  0  0  0999 V2000
   -5.1640   -2.7290   -2.4220 C   0  0  0  0  0  0  0  0  0  0  0  0
   -4.4320   -1.7490   -1.5190 C   0  0  0  0  0  0  0  0  0  0  0  0
   -4.1580   -0.5770   -2.2380 O   0  0  0  0  0  0  0  0  0  0  0  0
   -3.3330    0.5000   -1.1890 P   0  0  0  0  0  0  0  0  0  0  0  0
   -4.2890    1.8110   -0.6570 O   0  0  0  0  0  0  0  0  0  0  0  0
   -4.7420    1.6670    0.6500 C   0  0  0  0  0  0  0  0  0  0  0  0
   -5.5770    2.8170    1.1080 C   0  0  0  0  0  0  0  0  0  0  0  0
   -2.5180   -0.3110    0.1070 O   0  0  0  0  0  0  0  0  0  0  0  0
   -1.1370   -0.1970   -0.0990 C   0  0  0  0  0  0  0  0  0  0  0  0
   -0.4460   -0.9100    1.0390 C   0  0  0  0  0  0  0  0  0  0  0  0
    0.9760   -0.8660    0.9440 N   0  0  0  0  0  0  0  0  0  0  0  0
    1.7410    0.3340    0.9290 C   0  0  0  0  0  0  0  0  0  0  0  0
    1.1220    1.4190    1.0040 O   0  0  0  0  0  0  0  0  0  0  0  0
    3.1940    0.3420    0.8310 C   0  0  0  0  0  0  0  0  0  0  0  0
    3.8330    1.4830    0.8220 C   0  0  0  0  0  0  0  0  0  0  0  0
    5.3160    1.6390    0.7270 C   0  0  2  0  0  0  0  0  0  0  0  0
    5.5740    2.3740   -0.5320 C   0  0  0  0  0  0  0  0  0  0  0  0
    6.2680    1.8400   -1.4220 O   0  0  0  0  0  0  0  0  0  0  0  0
    5.0730    3.6420   -0.7690 O   0  0  0  0  0  0  0  0  0  0  0  0
    5.9650    0.3880    0.6440 O   0  0  0  0  0  0  0  0  0  0  0  0
    5.2410   -0.7920    0.6570 C   0  0  0  0  0  0  0  0  0  0  0  0
    5.8860   -2.0420    0.5750 O   0  0  0  0  0  0  0  0  0  0  0  0
    5.1560   -3.1410    0.0090 C   0  0  0  0  0  0  0  0  0  0  0  0
    3.9570   -0.8580    0.7420 N   0  0  0  0  0  0  0  0  0  0  0  0
  1  2  1  0
  2  3  1  0
  3  4  1  0
  4  5  1  0
  4  8  1  0
  5  6  1  0
  6  7  1  0
  8  9  1  0
  9 10  1  0
 10 11  1  0
 11 12  1  0
 12 13  2  0
 12 14  1  0
 14 15  2  0
 14 24  1  0
 15 16  1  0
 16 17  1  6
 16 20  1  0
 17 18  2  0
 17 19  1  0
 20 21  1  0
 21 22  1  0
 21 24  2  0
 22 23  1  0
M  END
