
     RDKit          3D

 27 28  0  0  0  0  0  0  0  0999 V2000
    6.3870    2.3960   -0.9790 C   0  0  0  0  0  0  0  0  0  0  0  0
    5.5600    1.7240   -0.1850 C   0  0  0  0  0  0  0  0  0  0  0  0
    5.5550    0.2790   -0.1190 C   0  0  0  0  0  0  0  0  0  0  0  0
    6.7300   -0.6430   -1.1570 P   0  0  0  0  0  0  0  0  0  0  0  0
    8.2170   -0.2450   -1.3110 O   0  0  0  0  0  0  0  0  0  0  0  0
    4.7280   -0.3550    0.6680 C   0  0  0  0  0  0  0  0  0  0  0  0
    4.7530   -1.7660    0.7090 O   0  0  0  0  0  0  0  0  0  0  0  0
    3.7820    0.2690    1.5080 N   0  0  0  0  0  0  0  0  0  0  0  0
    2.5260    0.7660    1.0670 C   0  0  2  0  0  0  0  0  0  0  0  0
    1.9270    1.4280    2.1750 O   0  0  0  0  0  0  0  0  0  0  0  0
    1.5560   -0.2680    0.6000 C   0  0  2  0  0  0  0  0  0  0  0  0
    2.0530   -1.0570   -0.5780 C   0  0  0  0  0  0  0  0  0  0  0  0
    1.0400   -1.1060   -1.7110 C   0  0  0  0  0  0  0  0  0  0  0  0
   -0.3280   -1.5240   -1.1850 C   0  0  0  0  0  0  0  0  0  0  0  0
   -0.7550   -0.4020   -0.3320 N   0  0  0  0  0  0  0  0  0  0  0  0
   -2.1380   -0.1320   -0.0770 C   0  0  0  0  0  0  0  0  0  0  0  0
   -2.9250    0.5440   -1.0060 C   0  0  0  0  0  0  0  0  0  0  0  0
   -4.2620    0.8200   -0.7850 C   0  0  0  0  0  0  0  0  0  0  0  0
   -4.8650    0.4310    0.3720 C   0  0  0  0  0  0  0  0  0  0  0  0
   -6.2940    0.6810    0.6990 C   0  0  0  0  0  0  0  0  0  0  0  0
   -7.2680   -0.7760    0.0820 P   0  0  0  0  0  0  0  0  0  0  0  0
   -7.5320   -1.9140    1.3560 O   0  0  0  0  0  0  0  0  0  0  0  0
   -8.7190   -0.3130   -0.7080 O   0  0  0  0  0  0  0  0  0  0  0  0
   -4.0930   -0.2490    1.3170 C   0  0  0  0  0  0  0  0  0  0  0  0
   -2.7580   -0.5210    1.0920 C   0  0  0  0  0  0  0  0  0  0  0  0
    0.2830    0.3900    0.2070 C   0  0  0  0  0  0  0  0  0  0  0  0
    0.0770    1.6380    0.3310 O   0  0  0  0  0  0  0  0  0  0  0  0
  1  2  2  0
  2  3  1  0
  3  4  1  0
  3  6  2  3
  4  5  2  0
  6  7  1  0
  6  8  1  0
  8  9  1  0
  9 10  1  1
  9 11  1  0
 11 12  1  6
 11 26  1  0
 12 13  1  0
 13 14  1  0
 14 15  1  0
 15 16  1  0
 15 26  1  0
 16 17  2  0
 16 25  1  0
 17 18  1  0
 18 19  2  0
 19 20  1  0
 19 24  1  0
 20 21  1  0
 21 22  1  0
 21 23  1  0
 24 25  2  0
 26 27  2  0
M  END
