
     RDKit          3D

 21 21  0  0  0  0  0  0  0  0999 V2000
    1.2710   -2.5310   -2.1170 O   0  0  0  0  0  0  0  0  0  0  0  0
    0.8520   -1.8120   -1.1430 C   0  0  0  0  0  0  0  0  0  0  0  0
   -0.0740   -2.3380   -0.1970 N   0  0  0  0  0  0  0  0  0  0  0  0
   -1.1640   -1.5810    0.3830 C   0  0  0  0  0  0  0  0  0  0  0  0
   -2.3910   -1.7920   -0.4750 C   0  0  0  0  0  0  0  0  0  0  0  0
   -3.5890   -1.5230    0.1730 O   0  0  0  0  0  0  0  0  0  0  0  0
   -3.8600   -0.5160    1.0520 C   0  0  0  0  0  0  0  0  0  0  0  0
   -4.3750   -0.6600    2.1910 O   0  0  0  0  0  0  0  0  0  0  0  0
   -3.5350    0.8810    0.6620 C   0  0  0  0  0  0  0  0  0  0  0  0
   -2.9300    0.9720   -0.5900 O   0  0  0  0  0  0  0  0  0  0  0  0
   -2.0570    1.9670   -0.9740 C   0  0  0  0  0  0  0  0  0  0  0  0
   -2.1810    2.6200   -2.0390 O   0  0  0  0  0  0  0  0  0  0  0  0
   -0.9120    2.2890   -0.0920 C   0  0  0  0  0  0  0  0  0  0  0  0
    0.2070    1.6460   -0.6650 O   0  0  0  0  0  0  0  0  0  0  0  0
    1.2650    1.5440    0.2050 C   0  0  0  0  0  0  0  0  0  0  0  0
    1.7730    0.1390    0.1920 C   0  0  2  0  0  0  0  0  0  0  0  0
    3.2960    0.1460    0.1570 C   0  0  0  0  0  0  0  0  0  0  0  0
    3.6840   -1.2040    0.0570 O   0  0  0  0  0  0  0  0  0  0  0  0
    4.9990   -1.2140    0.0250 O   0  0  0  0  0  0  0  0  0  0  0  0
    5.4060   -0.2070    0.7610 O   0  0  0  0  0  0  0  0  0  0  0  0
    1.3550   -0.4840   -1.0620 N   0  0  0  0  0  0  0  0  0  0  0  0
  1  2  2  0
  2  3  1  0
  2 21  1  0
  3  4  1  0
  4  5  1  0
  5  6  1  0
  6  7  1  0
  7  8  2  0
  7  9  1  0
  9 10  1  0
 10 11  1  0
 11 12  2  0
 11 13  1  0
 13 14  1  0
 14 15  1  0
 15 16  1  0
 16 17  1  6
 16 21  1  0
 17 18  1  0
 18 19  1  0
 19 20  1  0
M  END
