
     RDKit          3D

 13 12  0  0  0  0  0  0  0  0999 V2000
   -2.4150    1.0680    1.9490 O   0  0  0  0  0  0  0  0  0  0  0  0
   -2.9950    0.9530    0.8500 C   0  0  0  0  0  0  0  0  0  0  0  0
   -4.3620    1.1170    0.7840 O   0  0  0  0  0  0  0  0  0  0  0  0
   -2.2160    0.6420   -0.3650 C   0  0  0  0  0  0  0  0  0  0  0  0
   -1.8590   -0.8270   -0.3290 C   0  0  0  0  0  0  0  0  0  0  0  0
   -1.1310   -1.2410   -1.4090 O   0  0  0  0  0  0  0  0  0  0  0  0
    0.0730   -0.6170   -1.5870 C   0  0  0  0  0  0  0  0  0  0  0  0
    1.0300   -0.7950   -0.4110 C   0  0  0  0  0  0  0  0  0  0  0  0
    2.1850   -0.1160   -0.7380 O   0  0  0  0  0  0  0  0  0  0  0  0
    3.4130   -0.1670    0.4220 P   0  0  0  0  0  0  0  0  0  0  0  0
    3.6440   -1.6660    1.1990 O   0  0  0  0  0  0  0  0  0  0  0  0
    3.4490    1.1790    1.4690 O   0  0  0  0  0  0  0  0  0  0  0  0
    4.3770    2.0260    1.0300 O   0  0  0  0  0  0  0  0  0  0  0  0
  1  2  2  0
  2  3  1  0
  2  4  1  0
  4  5  1  0
  5  6  1  0
  6  7  1  0
  7  8  1  0
  8  9  1  0
  9 10  1  0
 10 11  1  0
 10 12  1  0
 12 13  1  0
M  END
