
     RDKit          3D

 21 21  0  0  0  0  0  0  0  0999 V2000
    2.3160   -2.3090   -1.0630 C   0  0  0  0  0  0  0  0  0  0  0  0
    1.9200   -1.2430   -0.0620 C   0  0  2  0  0  0  0  0  0  0  0  0
    0.7160   -0.6250   -0.3610 O   0  0  0  0  0  0  0  0  0  0  0  0
   -0.3570   -0.7170    0.5030 C   0  0  0  0  0  0  0  0  0  0  0  0
   -0.1780   -1.3820    1.5530 O   0  0  0  0  0  0  0  0  0  0  0  0
   -1.6160   -0.0990    0.2400 N   0  0  0  0  0  0  0  0  0  0  0  0
   -1.7450    0.6480   -0.9890 C   0  0  0  0  0  0  0  0  0  0  0  0
   -2.8080    1.7120   -0.9200 C   0  0  0  0  0  0  0  0  0  0  0  0
   -2.9850    2.1350    0.4470 N   0  0  0  0  0  0  0  0  0  0  0  0
   -3.1820    1.1610    1.4470 C   0  0  0  0  0  0  0  0  0  0  0  0
   -3.7310    1.4670    2.5260 O   0  0  0  0  0  0  0  0  0  0  0  0
   -2.7170   -0.2190    1.1710 C   0  0  1  0  0  0  0  0  0  0  0  0
   -3.8790   -0.9310    0.5270 C   0  0  0  0  0  0  0  0  0  0  0  0
   -4.9250   -1.1200    1.1980 O   0  0  0  0  0  0  0  0  0  0  0  0
   -3.8500   -1.3860   -0.7670 O   0  0  0  0  0  0  0  0  0  0  0  0
    3.0600   -0.2670    0.0260 C   0  0  0  0  0  0  0  0  0  0  0  0
    4.2180   -0.6740    0.2900 O   0  0  0  0  0  0  0  0  0  0  0  0
    2.9040    1.0960   -0.1740 O   0  0  0  0  0  0  0  0  0  0  0  0
    4.2840    2.2010   -0.0580 P   0  0  0  0  0  0  0  0  0  0  0  0
    5.5270    1.5730   -1.0870 O   0  0  0  0  0  0  0  0  0  0  0  0
    4.8390    2.1270    1.5950 O   0  0  0  0  0  0  0  0  0  0  0  0
  2  1  1  6
  2  3  1  0
  2 16  1  0
  3  4  1  0
  4  5  2  0
  4  6  1  0
  6  7  1  0
  6 12  1  0
  7  8  1  0
  8  9  1  0
  9 10  1  0
 10 11  2  0
 10 12  1  0
 12 13  1  6
 13 14  2  0
 13 15  1  0
 16 17  2  0
 16 18  1  0
 18 19  1  0
 19 20  1  0
 19 21  1  0
M  END
