
     RDKit          3D

 21 23  0  0  0  0  0  0  0  0999 V2000
    4.3090    2.2550   -0.4670 O   0  0  0  0  0  0  0  0  0  0  0  0
    4.9480    1.1550   -0.5280 C   0  0  0  0  0  0  0  0  0  0  0  0
    6.3210    1.1530   -0.7780 O   0  0  0  0  0  0  0  0  0  0  0  0
    4.2120    0.0070   -0.3360 O   0  0  0  0  0  0  0  0  0  0  0  0
    2.8730    0.0160   -0.0930 O   0  0  0  0  0  0  0  0  0  0  0  0
    2.0340   -1.0320   -0.3700 C   0  0  0  0  0  0  0  0  0  0  0  0
    2.5600   -2.0540   -0.8810 O   0  0  0  0  0  0  0  0  0  0  0  0
    0.6210   -0.9400   -0.0800 C   0  0  0  0  0  0  0  0  0  0  0  0
   -0.2290   -1.8960   -0.3150 N   0  0  0  0  0  0  0  0  0  0  0  0
   -1.6320   -1.7730    0.0100 C   0  0  0  0  0  0  0  0  0  0  0  0
   -2.6640   -2.5890   -0.0500 C   0  0  0  0  0  0  0  0  0  0  0  0
   -3.8110   -1.9390    0.4760 O   0  0  0  0  0  0  0  0  0  0  0  0
   -3.3760   -0.6480    0.9150 C   0  0  0  0  0  0  0  0  0  0  0  0
   -3.9420    0.0760    1.7460 O   0  0  0  0  0  0  0  0  0  0  0  0
   -2.1700   -0.4470    0.1600 C   0  0  2  0  0  0  0  0  0  0  0  0
   -2.7250    0.2880   -0.9980 O   0  0  0  0  0  0  0  0  0  0  0  0
   -3.1290    1.4920   -0.2640 C   0  0  0  0  0  0  0  0  0  0  0  0
   -4.1450    2.1860   -0.4350 O   0  0  0  0  0  0  0  0  0  0  0  0
   -2.0530    1.6940    0.7190 N   0  0  0  0  0  0  0  0  0  0  0  0
   -1.1830    0.5950    0.4090 C   0  0  0  0  0  0  0  0  0  0  0  0
    0.0980    0.3760    0.3060 C   0  0  0  0  0  0  0  0  0  0  0  0
  1  2  2  0
  2  3  1  0
  2  4  1  0
  4  5  1  0
  5  6  1  0
  6  7  2  0
  6  8  1  0
  8  9  2  0
  8 21  1  0
  9 10  1  0
 10 11  2  0
 10 15  1  0
 11 12  1  0
 12 13  1  0
 13 14  2  0
 13 15  1  0
 15 16  1  6
 15 20  1  0
 16 17  1  0
 17 18  2  0
 17 19  1  0
 19 20  1  0
 20 21  2  0
M  END
