
     RDKit          3D

 13 12  0  0  0  0  0  0  0  0999 V2000
   -5.2360    1.2550   -0.2150 O   0  0  0  0  0  0  0  0  0  0  0  0
   -4.7240    1.4620    0.9190 C   0  0  0  0  0  0  0  0  0  0  0  0
   -3.3670    1.2200    1.0810 O   0  0  0  0  0  0  0  0  0  0  0  0
   -2.6020    0.7610    0.0110 C   0  0  0  0  0  0  0  0  0  0  0  0
   -3.1950    0.5780   -1.0970 O   0  0  0  0  0  0  0  0  0  0  0  0
   -1.1390    0.4910    0.1500 C   0  0  0  0  0  0  0  0  0  0  0  0
   -0.6530    0.0520   -1.0580 O   0  0  0  0  0  0  0  0  0  0  0  0
    0.7080   -0.2010   -0.9360 C   0  0  0  0  0  0  0  0  0  0  0  0
    1.0920   -1.4790    0.3200 P   0  0  0  0  0  0  0  0  0  0  0  0
    0.6980   -3.0770   -0.2080 O   0  0  0  0  0  0  0  0  0  0  0  0
    2.7170   -1.3440    0.8510 O   0  0  0  0  0  0  0  0  0  0  0  0
    3.3490   -0.2060    0.3040 C   0  0  0  0  0  0  0  0  0  0  0  0
    4.6590   -0.1600    0.7760 O   0  0  0  0  0  0  0  0  0  0  0  0
  1  2  2  0
  2  3  1  0
  3  4  1  0
  4  5  2  0
  4  6  1  0
  6  7  1  0
  7  8  1  0
  8  9  1  0
  9 10  1  0
  9 11  1  0
 11 12  1  0
 12 13  1  0
M  END
