
     RDKit          3D

 10 10  0  0  0  0  0  0  0  0999 V2000
   -0.6400    2.5490    0.5430 C   0  0  0  0  0  0  0  0  0  0  0  0
   -1.0230    1.3760    0.0470 C   0  0  0  0  0  0  0  0  0  0  0  0
   -2.2070    1.0670   -0.6100 O   0  0  0  0  0  0  0  0  0  0  0  0
   -1.9860   -0.1650   -1.2710 C   0  0  0  0  0  0  0  0  0  0  0  0
   -1.1380   -0.8580   -0.3090 N   0  0  0  0  0  0  0  0  0  0  0  0
   -1.9620   -1.3300    0.7830 C   0  0  0  0  0  0  0  0  0  0  0  0
   -0.2670    0.1700    0.0940 N   0  0  0  0  0  0  0  0  0  0  0  0
    1.4440    0.0860    0.5850 P   0  0  0  0  0  0  0  0  0  0  0  0
    2.2200   -1.3520    0.0190 O   0  0  0  0  0  0  0  0  0  0  0  0
    3.5570   -1.0340   -0.2170 C   0  0  0  0  0  0  0  0  0  0  0  0
  1  2  2  0
  2  3  1  0
  2  7  1  0
  3  4  1  0
  4  5  1  0
  5  6  1  0
  5  7  1  0
  7  8  1  0
  8  9  1  0
  9 10  1  0
M  END
