
     RDKit          3D

 39 42  0  0  0  0  0  0  0  0999 V2000
   -6.7470   -3.0110    2.9300 N   0  0  0  0  0  0  0  0  0  0  0  0
   -7.1140   -1.9770    1.9880 C   0  0  0  0  0  0  0  0  0  0  0  0
   -5.8960   -1.4470    1.2330 C   0  0  0  0  0  0  0  0  0  0  0  0
   -5.2910   -2.5980    0.4990 C   0  0  0  0  0  0  0  0  0  0  0  0
   -4.1540   -2.2850   -0.2520 O   0  0  0  0  0  0  0  0  0  0  0  0
   -4.1050   -1.3740   -1.2940 C   0  0  0  0  0  0  0  0  0  0  0  0
   -5.1890   -0.7810   -1.5780 O   0  0  0  0  0  0  0  0  0  0  0  0
   -2.8460   -1.1080   -2.0350 C   0  0  1  0  0  0  0  0  0  0  0  0
   -3.0450   -0.1220   -3.0780 N   0  0  0  0  0  0  0  0  0  0  0  0
   -1.9760    0.8140   -3.0370 C   0  0  0  0  0  0  0  0  0  0  0  0
   -1.9810    1.8980   -3.6770 O   0  0  0  0  0  0  0  0  0  0  0  0
   -0.9310    0.2630   -2.1380 C   0  0  2  0  0  0  0  0  0  0  0  0
   -0.0510   -0.4750   -2.9690 O   0  0  0  0  0  0  0  0  0  0  0  0
    1.2910   -0.2200   -3.1170 C   0  0  0  0  0  0  0  0  0  0  0  0
    1.7850    0.7360   -2.4710 O   0  0  0  0  0  0  0  0  0  0  0  0
    2.1230   -1.0650   -4.0250 C   0  0  0  0  0  0  0  0  0  0  0  0
    3.4790   -0.5740   -3.9990 N   0  0  0  0  0  0  0  0  0  0  0  0
    4.2530   -0.5270   -2.8100 C   0  0  0  0  0  0  0  0  0  0  0  0
    3.7390   -0.9330   -1.7240 O   0  0  0  0  0  0  0  0  0  0  0  0
    5.5650   -0.0580   -2.7450 N   0  0  0  0  0  0  0  0  0  0  0  0
    6.2880   -0.0540   -1.4560 C   0  0  0  0  0  0  0  0  0  0  0  0
    6.1920   -0.3150   -0.3530 N   0  0  0  0  0  0  0  0  0  0  0  0
    7.0130   -0.2180    0.6560 C   0  0  0  0  0  0  0  0  0  0  0  0
    8.2660    0.3120    0.3300 C   0  0  0  0  0  0  0  0  0  0  0  0
    8.0520    0.6070   -1.4990 S   0  0  0  0  0  0  0  0  0  0  0  0
    9.3600    0.5400    1.2160 C   0  0  0  0  0  0  0  0  0  0  0  0
    8.9520    0.7830    2.6520 C   0  0  0  0  0  0  0  0  0  0  0  0
    7.4550    0.6860    2.8420 C   0  0  0  0  0  0  0  0  0  0  0  0
    6.9320   -0.5490    2.1400 C   0  0  0  0  0  0  0  0  0  0  0  0
   -1.7270   -0.6090   -1.2010 C   0  0  1  0  0  0  0  0  0  0  0  0
   -2.1590    0.1550   -0.0000 C   0  0  0  0  0  0  0  0  0  0  0  0
   -1.8200   -0.2510    1.1300 O   0  0  0  0  0  0  0  0  0  0  0  0
   -2.9430    1.3270   -0.0990 N   0  0  0  0  0  0  0  0  0  0  0  0
   -3.4140    2.1290    0.9600 C   0  0  0  0  0  0  0  0  0  0  0  0
   -3.3700    1.8190    2.2870 C   0  0  0  0  0  0  0  0  0  0  0  0
   -3.8620    2.7220    3.2450 C   0  0  0  0  0  0  0  0  0  0  0  0
   -4.3930    3.9230    2.8910 C   0  0  0  0  0  0  0  0  0  0  0  0
   -4.4500    4.2630    1.5460 C   0  0  0  0  0  0  0  0  0  0  0  0
   -3.9670    3.3720    0.6250 C   0  0  0  0  0  0  0  0  0  0  0  0
  1  2  1  0
  2  3  1  0
  3  4  1  0
  4  5  1  0
  5  6  1  0
  6  7  2  0
  8  6  1  1
  8  9  1  0
  8 30  1  0
  9 10  1  0
 10 11  2  0
 10 12  1  0
 12 13  1  6
 12 30  1  0
 13 14  1  0
 14 15  2  0
 14 16  1  0
 16 17  1  0
 17 18  1  0
 18 19  2  0
 18 20  1  0
 20 21  1  0
 21 22  2  0
 21 25  1  0
 22 23  1  0
 23 24  2  0
 23 29  1  0
 24 25  1  0
 24 26  1  0
 26 27  1  0
 27 28  1  0
 28 29  1  0
 30 31  1  1
 31 32  2  0
 31 33  1  0
 33 34  1  0
 34 35  2  0
 34 39  1  0
 35 36  1  0
 36 37  2  0
 37 38  1  0
 38 39  2  0
M  CHG  1   1   1
M  END
