
     RDKit          3D

 39 42  0  0  0  0  0  0  0  0999 V2000
    9.2000   -2.5560    0.5270 C   0  0  0  0  0  0  0  0  0  0  0  0
    8.1010   -2.3020   -0.5150 C   0  0  2  0  0  0  0  0  0  0  0  0
    8.7910   -2.4230   -1.8790 C   0  0  0  0  0  0  0  0  0  0  0  0
    9.2480   -3.7030   -2.0960 O   0  0  0  0  0  0  0  0  0  0  0  0
    7.6870   -0.9960   -0.3240 O   0  0  0  0  0  0  0  0  0  0  0  0
    6.3540   -0.8270   -0.0760 C   0  0  0  0  0  0  0  0  0  0  0  0
    5.5200   -1.3050   -1.2290 C   0  0  0  0  0  0  0  0  0  0  0  0
    4.1150   -1.1240   -0.9520 O   0  0  0  0  0  0  0  0  0  0  0  0
    3.5350    0.0900   -0.7470 C   0  0  0  0  0  0  0  0  0  0  0  0
    4.2800    1.1270   -0.8250 O   0  0  0  0  0  0  0  0  0  0  0  0
    2.1140    0.2740   -0.4360 C   0  0  1  0  0  0  0  0  0  0  0  0
    1.8020    1.7210   -0.0890 C   0  0  0  0  0  0  0  0  0  0  0  0
    1.0100    2.4150   -1.1700 C   0  0  0  0  0  0  0  0  0  0  0  0
   -0.3340    1.6840   -1.2200 C   0  0  0  0  0  0  0  0  0  0  0  0
   -0.1080    0.3200   -1.4640 C   0  0  0  0  0  0  0  0  0  0  0  0
   -1.7760   -0.3400   -1.4660 S   0  0  0  0  0  0  0  0  0  0  0  0
   -2.6010    1.2160   -1.1340 C   0  0  0  0  0  0  0  0  0  0  0  0
   -3.9390    1.4570   -0.8080 N   0  0  0  0  0  0  0  0  0  0  0  0
   -4.8560    0.7740   -0.4940 C   0  0  0  0  0  0  0  0  0  0  0  0
   -4.7050   -0.5830   -0.4250 N   0  0  0  0  0  0  0  0  0  0  0  0
   -5.4370   -1.1490    0.7540 C   0  0  0  0  0  0  0  0  0  0  0  0
   -5.7660   -0.2980    1.5080 O   0  0  0  0  0  0  0  0  0  0  0  0
   -5.5170   -2.5510    0.6360 N   0  0  0  0  0  0  0  0  0  0  0  0
   -6.1840   -2.7730    2.2370 C   0  0  0  0  0  0  0  0  0  0  0  0
   -6.2430   -1.8070    2.8600 O   0  0  0  0  0  0  0  0  0  0  0  0
   -6.5080   -4.1390    2.4340 C   0  0  1  0  0  0  0  0  0  0  0  0
   -8.0100   -4.4230    2.0490 C   0  0  0  0  0  0  0  0  0  0  0  0
   -6.8260   -5.2270    1.5400 C   0  0  1  0  0  0  0  0  0  0  0  0
   -6.7890   -5.3220    0.1210 N   0  0  0  0  0  0  0  0  0  0  0  0
   -1.5690    2.1270   -1.0580 C   0  0  0  0  0  0  0  0  0  0  0  0
   -1.9750    3.5590   -0.8450 C   0  0  0  0  0  0  0  0  0  0  0  0
   -2.2680    4.1940   -1.8970 O   0  0  0  0  0  0  0  0  0  0  0  0
   -2.0460    4.2100    0.3660 N   0  0  0  0  0  0  0  0  0  0  0  0
   -2.4680    5.6140    0.4520 C   0  0  0  0  0  0  0  0  0  0  0  0
   -1.3650    6.4520    1.0720 C   0  0  0  0  0  0  0  0  0  0  0  0
   -0.7640    5.8340    2.2050 N   0  0  0  0  0  0  0  0  0  0  0  0
   -0.4670    4.4430    2.0960 C   0  0  0  0  0  0  0  0  0  0  0  0
   -1.6880    3.6230    1.6490 C   0  0  0  0  0  0  0  0  0  0  0  0
    1.2540   -0.2130   -1.5800 C   0  0  0  0  0  0  0  0  0  0  0  0
  2  1  1  1
  2  3  1  0
  2  5  1  0
  3  4  1  0
  5  6  1  0
  6  7  1  0
  7  8  1  0
  8  9  1  0
  9 10  2  0
 11  9  1  6
 11 12  1  0
 11 39  1  0
 12 13  1  0
 13 14  1  0
 14 15  2  0
 14 30  1  0
 15 16  1  0
 15 39  1  0
 16 17  1  0
 17 18  1  0
 17 30  2  0
 18 19  2  3
 19 20  1  0
 20 21  1  0
 21 22  2  0
 21 23  1  0
 23 24  1  0
 24 25  2  0
 26 24  1  6
 26 27  1  0
 26 28  1  0
 27 28  1  0
 28 29  1  6
 30 31  1  0
 31 32  2  0
 31 33  1  0
 33 34  1  0
 33 38  1  0
 34 35  1  0
 35 36  1  0
 36 37  1  0
 37 38  1  0
M  CHG  1  29   1
M  END
