
     RDKit          3D

 38 39  0  0  0  0  0  0  0  0999 V2000
   -1.4160    0.1310   -1.1940 C   0  0  0  0  0  0  0  0  0  0  0  0
   -0.6010    1.0670   -0.3450 C   0  0  1  0  0  0  0  0  0  0  0  0
   -1.3810    2.2930    0.0680 C   0  0  1  0  0  0  0  0  0  0  0  0
   -1.7180    3.0580   -1.0460 O   0  0  0  0  0  0  0  0  0  0  0  0
   -2.6300    1.9450    0.8770 C   0  0  0  0  0  0  0  0  0  0  0  0
   -3.4510    1.2300    0.0400 O   0  0  0  0  0  0  0  0  0  0  0  0
   -4.6570    0.8270    0.5810 C   0  0  1  0  0  0  0  0  0  0  0  0
   -5.8420    1.3920   -0.1530 C   0  0  0  0  0  0  0  0  0  0  0  0
   -6.8180    0.3160   -0.5740 C   0  0  0  0  0  0  0  0  0  0  0  0
   -7.1870   -0.4260    0.7170 C   0  0  1  0  0  0  0  0  0  0  0  0
   -8.3250   -1.3040    0.3740 C   0  0  0  0  0  0  0  0  0  0  0  0
   -9.5120   -0.7180   -0.1270 N   0  0  0  0  0  0  0  0  0  0  0  0
   -8.2890   -2.5450    0.5060 O   0  0  0  0  0  0  0  0  0  0  0  0
   -5.9880   -1.2750    1.0570 C   0  0  2  0  0  0  0  0  0  0  0  0
   -6.1540   -2.4920    0.3620 O   0  0  0  0  0  0  0  0  0  0  0  0
   -6.0020   -1.6570    2.5410 C   0  0  0  0  0  0  0  0  0  0  0  0
   -7.2070   -2.2640    2.8820 O   0  0  0  0  0  0  0  0  0  0  0  0
   -4.6770   -0.6780    0.6590 C   0  0  0  0  0  0  0  0  0  0  0  0
   -0.1130    0.2800    0.8540 C   0  0  0  0  0  0  0  0  0  0  0  0
    0.4710   -0.8950    0.3230 O   0  0  0  0  0  0  0  0  0  0  0  0
    1.6380   -0.4980   -0.3120 C   0  0  0  0  0  0  0  0  0  0  0  0
    1.4060    0.5510   -1.3690 C   0  0  2  0  0  0  0  0  0  0  0  0
    2.7500    1.2160   -1.6390 C   0  0  0  0  0  0  0  0  0  0  0  0
    2.8750    2.4480   -1.4740 O   0  0  0  0  0  0  0  0  0  0  0  0
    3.8450    0.4460   -2.0740 N   0  0  0  0  0  0  0  0  0  0  0  0
    5.1670    0.9340   -2.3480 C   0  0  0  0  0  0  0  0  0  0  0  0
    5.8200    1.4300   -1.0630 C   0  0  1  0  0  0  0  0  0  0  0  0
    5.0630    2.4590   -0.5280 O   0  0  0  0  0  0  0  0  0  0  0  0
    5.7400    0.2750   -0.0950 C   0  0  0  0  0  0  0  0  0  0  0  0
    6.5470   -0.7870   -0.3810 O   0  0  0  0  0  0  0  0  0  0  0  0
    7.8750   -0.4670   -0.2310 C   0  0  2  0  0  0  0  0  0  0  0  0
    8.7120   -0.7690   -1.4340 C   0  0  0  0  0  0  0  0  0  0  0  0
    8.3380   -0.0540   -2.5320 O   0  0  0  0  0  0  0  0  0  0  0  0
    8.4260   -1.2330    0.9670 C   0  0  0  0  0  0  0  0  0  0  0  0
    9.6160   -1.1050    1.3040 O   0  0  0  0  0  0  0  0  0  0  0  0
    7.5830   -2.0640    1.6650 O   0  0  0  0  0  0  0  0  0  0  0  0
    8.0950   -2.7510    2.7450 N   0  0  0  0  0  0  0  0  0  0  0  0
    0.5400    1.5350   -0.9890 O   0  0  0  0  0  0  0  0  0  0  0  0
  2  1  1  6
  2  3  1  0
  2 19  1  0
  2 38  1  0
  3  4  1  6
  3  5  1  0
  5  6  1  0
  7  6  1  6
  7  8  1  0
  7 18  1  0
  8  9  1  0
  9 10  1  0
 10 11  1  6
 10 14  1  0
 11 12  1  0
 11 13  2  0
 14 15  1  6
 14 16  1  0
 14 18  1  0
 16 17  1  0
 19 20  1  0
 20 21  1  0
 21 22  1  0
 22 23  1  1
 22 38  1  0
 23 24  2  0
 23 25  1  0
 25 26  1  0
 26 27  1  0
 27 28  1  1
 27 29  1  0
 29 30  1  0
 30 31  1  0
 31 32  1  6
 31 34  1  0
 32 33  1  0
 34 35  2  0
 34 36  1  0
 36 37  1  0
M  END
