
     RDKit          3D

 39 42  0  0  0  0  0  0  0  0999 V2000
   -0.5570    3.3940    1.7840 C   0  0  0  0  0  0  0  0  0  0  0  0
   -1.0160    2.3220    0.8520 C   0  0  0  0  0  0  0  0  0  0  0  0
   -0.1830    1.7490   -0.0940 C   0  0  0  0  0  0  0  0  0  0  0  0
   -0.9290    0.8180   -0.7590 C   0  0  0  0  0  0  0  0  0  0  0  0
   -0.4620   -0.0350   -1.8730 C   0  0  0  0  0  0  0  0  0  0  0  0
    0.9300    0.2070   -2.1450 N   0  0  0  0  0  0  0  0  0  0  0  0
    1.9650   -0.0670   -1.2080 C   0  0  0  0  0  0  0  0  0  0  0  0
    1.6410   -0.5470   -0.0940 O   0  0  0  0  0  0  0  0  0  0  0  0
    3.3680    0.1930   -1.5040 C   0  0  0  0  0  0  0  0  0  0  0  0
    3.7360    0.6740   -2.6030 O   0  0  0  0  0  0  0  0  0  0  0  0
    4.3500   -0.1050   -0.5260 N   0  0  0  0  0  0  0  0  0  0  0  0
    5.7680    0.1370   -0.7750 C   0  0  0  0  0  0  0  0  0  0  0  0
    6.5350   -0.2790    0.4410 C   0  0  1  0  0  0  0  0  0  0  0  0
    6.3070   -1.6360    0.6900 O   0  0  0  0  0  0  0  0  0  0  0  0
    7.9880   -0.0250    0.2730 C   0  0  0  0  0  0  0  0  0  0  0  0
    8.4440    0.7450   -0.7510 C   0  0  0  0  0  0  0  0  0  0  0  0
    9.7880    0.9740   -0.8960 C   0  0  0  0  0  0  0  0  0  0  0  0
   10.6910    0.4250   -0.0040 C   0  0  0  0  0  0  0  0  0  0  0  0
   12.0280    0.4610    0.1220 N   0  0  0  0  0  0  0  0  0  0  0  0
   12.3710   -0.2570    1.1780 C   0  0  0  0  0  0  0  0  0  0  0  0
   13.5670   -0.4310    1.5810 O   0  0  0  0  0  0  0  0  0  0  0  0
   11.2890   -0.7810    1.7720 N   0  0  0  0  0  0  0  0  0  0  0  0
   10.2370   -0.3640    1.0470 C   0  0  0  0  0  0  0  0  0  0  0  0
    8.8900   -0.5790    1.1700 C   0  0  0  0  0  0  0  0  0  0  0  0
   -2.1940    0.8620   -0.1890 C   0  0  0  0  0  0  0  0  0  0  0  0
   -3.3120   -0.0050   -0.6320 C   0  0  1  0  0  0  0  0  0  0  0  0
   -3.0360   -1.3440   -0.4110 F   0  0  0  0  0  0  0  0  0  0  0  0
   -4.5330    0.3440    0.1920 C   0  0  0  0  0  0  0  0  0  0  0  0
   -5.6760   -0.4630   -0.1780 N   0  0  1  0  0  0  0  0  0  0  0  0
   -5.9200   -1.4040    0.8880 C   0  0  0  0  0  0  0  0  0  0  0  0
   -7.3980   -1.5470    1.1910 C   0  0  0  0  0  0  0  0  0  0  0  0
   -8.0880   -1.7240   -0.1440 C   0  0  1  0  0  0  0  0  0  0  0  0
   -9.5040   -2.2240    0.0210 C   0  0  0  0  0  0  0  0  0  0  0  0
  -10.5230   -1.1450    0.9560 S   0  0  2  0  0  0  0  0  0  0  0  0
  -11.5340   -1.9910    1.7190 O   0  0  0  0  0  0  0  0  0  0  0  0
  -11.3390   -0.2270    0.0860 O   0  0  0  0  0  0  0  0  0  0  0  0
   -8.0430   -0.3630   -0.8270 C   0  0  0  0  0  0  0  0  0  0  0  0
   -6.7830    0.3890   -0.4610 C   0  0  0  0  0  0  0  0  0  0  0  0
   -2.2370    1.7710    0.7800 N   0  0  0  0  0  0  0  0  0  0  0  0
  1  2  1  0
  2  3  2  0
  2 39  1  0
  3  4  1  0
  4  5  1  0
  4 25  2  0
  5  6  1  0
  6  7  1  0
  7  8  2  0
  7  9  1  0
  9 10  2  0
  9 11  1  0
 11 12  1  0
 12 13  1  0
 13 14  1  6
 13 15  1  0
 15 16  2  0
 15 24  1  0
 16 17  1  0
 17 18  2  0
 18 19  1  0
 18 23  1  0
 19 20  1  0
 20 21  2  0
 20 22  1  0
 22 23  1  0
 23 24  2  0
 25 26  1  0
 25 39  1  0
 26 27  1  1
 26 28  1  0
 29 28  1  1
 29 30  1  0
 29 38  1  0
 30 31  1  0
 31 32  1  0
 32 33  1  1
 32 37  1  0
 34 33  1  6
 34 35  2  0
 34 36  2  0
 37 38  1  0
M  CHG  1  29   1
M  END
