
     RDKit          3D

 38 39  0  0  0  0  0  0  0  0999 V2000
   -6.4780    1.2160    0.5230 C   0  0  0  0  0  0  0  0  0  0  0  0
   -5.8780    0.1660    1.4540 C   0  0  0  0  0  0  0  0  0  0  0  0
   -4.8800   -0.5060    0.8390 O   0  0  0  0  0  0  0  0  0  0  0  0
   -3.6520    0.1910    0.7100 C   0  0  0  0  0  0  0  0  0  0  0  0
   -2.8090   -0.7710   -0.1360 C   0  0  2  0  0  0  0  0  0  0  0  0
   -3.5770   -0.8320   -1.4390 C   0  0  0  0  0  0  0  0  0  0  0  0
   -3.6540    0.4210   -2.0420 O   0  0  0  0  0  0  0  0  0  0  0  0
   -3.1150   -2.1430    0.4900 C   0  0  1  0  0  0  0  0  0  0  0  0
   -4.5000   -2.3590    0.2670 O   0  0  0  0  0  0  0  0  0  0  0  0
   -2.3450   -3.2040   -0.2520 C   0  0  0  0  0  0  0  0  0  0  0  0
   -1.6550   -2.6740   -1.2890 O   0  0  0  0  0  0  0  0  0  0  0  0
   -0.7290   -1.6850   -0.9240 C   0  0  2  0  0  0  0  0  0  0  0  0
    0.4850   -2.3580   -0.4220 C   0  0  2  0  0  0  0  0  0  0  0  0
    0.4280   -3.1190    0.7060 O   0  0  0  0  0  0  0  0  0  0  0  0
    1.7720   -1.6160   -0.6530 C   0  0  0  0  0  0  0  0  0  0  0  0
    2.5840   -1.5980    0.4630 O   0  0  0  0  0  0  0  0  0  0  0  0
    3.6000   -2.5440    0.3680 C   0  0  0  0  0  0  0  0  0  0  0  0
    4.8990   -1.9510   -0.1740 C   0  0  2  0  0  0  0  0  0  0  0  0
    5.8960   -3.1210   -0.1030 C   0  0  0  0  0  0  0  0  0  0  0  0
    7.1300   -2.7510   -0.5690 O   0  0  0  0  0  0  0  0  0  0  0  0
    5.4200   -0.9030    0.6460 N   0  0  0  0  0  0  0  0  0  0  0  0
    5.8500    0.3860    0.1770 C   0  0  0  0  0  0  0  0  0  0  0  0
    7.0810    0.7160    0.3680 O   0  0  0  0  0  0  0  0  0  0  0  0
    5.0070    1.2800   -0.4680 O   0  0  0  0  0  0  0  0  0  0  0  0
    3.8710    1.8880    0.1180 C   0  0  0  0  0  0  0  0  0  0  0  0
    2.7970    2.1590   -0.8980 C   0  0  0  0  0  0  0  0  0  0  0  0
    1.6010    1.7280   -0.3370 O   0  0  0  0  0  0  0  0  0  0  0  0
    0.6070    2.5870   -0.8260 C   0  0  2  0  0  0  0  0  0  0  0  0
    0.6150    3.8780   -0.0670 C   0  0  0  0  0  0  0  0  0  0  0  0
   -0.2690    4.8410   -0.5100 O   0  0  0  0  0  0  0  0  0  0  0  0
    0.0100    5.9920    0.3060 C   0  0  0  0  0  0  0  0  0  0  0  0
   -0.7170    1.9450   -0.9770 C   0  0  0  0  0  0  0  0  0  0  0  0
   -1.6740    2.8200   -0.9090 O   0  0  0  0  0  0  0  0  0  0  0  0
   -1.1010    0.6280   -1.1690 N   0  0  0  0  0  0  0  0  0  0  0  0
   -1.3570   -0.4840   -0.2160 C   0  0  1  0  0  0  0  0  0  0  0  0
   -0.7650   -0.2040    1.0720 C   0  0  0  0  0  0  0  0  0  0  0  0
   -0.9860    0.9880    1.7860 N   0  0  0  0  0  0  0  0  0  0  0  0
    0.0390   -0.9800    1.7120 O   0  0  0  0  0  0  0  0  0  0  0  0
  1  2  1  0
  2  3  1  0
  3  4  1  0
  5  4  1  1
  5  6  1  0
  5  8  1  0
  5 35  1  0
  6  7  1  0
  8  9  1  6
  8 10  1  0
 10 11  1  0
 12 11  1  1
 12 13  1  0
 12 35  1  0
 13 14  1  1
 13 15  1  0
 15 16  1  0
 16 17  1  0
 17 18  1  0
 18 19  1  1
 18 21  1  0
 19 20  1  0
 21 22  1  0
 22 23  2  0
 22 24  1  0
 24 25  1  0
 25 26  1  0
 26 27  1  0
 27 28  1  0
 28 29  1  1
 28 32  1  0
 29 30  1  0
 30 31  1  0
 32 33  2  0
 32 34  1  0
 34 35  1  0
 35 36  1  1
 36 37  1  0
 36 38  2  0
M  END
