
     RDKit          3D

 38 41  0  0  0  0  0  0  0  0999 V2000
   -8.2800    1.8550    2.1550 C   0  0  0  0  0  0  0  0  0  0  0  0
   -7.1840    0.9120    2.3010 N   0  0  0  0  0  0  0  0  0  0  0  0
   -7.1250   -0.0070    1.1820 C   0  0  0  0  0  0  0  0  0  0  0  0
   -5.7010   -0.1000    0.6280 C   0  0  0  0  0  0  0  0  0  0  0  0
   -5.7450   -1.0540   -0.5010 C   0  0  2  0  0  0  0  0  0  0  0  0
   -6.1590   -2.3290   -0.1940 O   0  0  0  0  0  0  0  0  0  0  0  0
   -5.0860   -3.0470    0.2590 C   0  0  0  0  0  0  0  0  0  0  0  0
   -3.8350   -2.2250   -0.0320 C   0  0  0  0  0  0  0  0  0  0  0  0
   -4.3710   -1.3310   -1.1330 C   0  0  2  0  0  0  0  0  0  0  0  0
   -3.5560   -0.0880   -1.1980 C   0  0  0  0  0  0  0  0  0  0  0  0
   -2.2600   -0.1980   -1.7940 N   0  0  0  0  0  0  0  0  0  0  0  0
   -2.2100   -0.0440   -3.2760 C   0  0  0  0  0  0  0  0  0  0  0  0
   -2.0090    1.3750   -3.6240 C   0  0  0  0  0  0  0  0  0  0  0  0
   -1.8970    2.3360   -2.5980 N   0  0  0  0  0  0  0  0  0  0  0  0
   -1.9380    1.7290   -4.8160 O   0  0  0  0  0  0  0  0  0  0  0  0
   -1.0220   -0.4320   -1.1790 C   0  0  0  0  0  0  0  0  0  0  0  0
    0.0140   -0.5010   -1.9310 O   0  0  0  0  0  0  0  0  0  0  0  0
   -0.7560   -0.6070    0.2580 C   0  0  0  0  0  0  0  0  0  0  0  0
    0.6900   -0.7810    0.5040 N   0  0  0  0  0  0  0  0  0  0  0  0
    1.5620    0.2580    0.1340 C   0  0  0  0  0  0  0  0  0  0  0  0
    1.0900    1.3120   -0.3950 O   0  0  0  0  0  0  0  0  0  0  0  0
    3.0090    0.1890    0.3290 C   0  0  0  0  0  0  0  0  0  0  0  0
    3.8150    1.2720   -0.0240 C   0  0  0  0  0  0  0  0  0  0  0  0
    5.1700    1.1930    0.1640 C   0  0  0  0  0  0  0  0  0  0  0  0
    5.8000    0.0890    0.6900 C   0  0  0  0  0  0  0  0  0  0  0  0
    7.2400    0.0900    0.8540 N   0  0  0  0  0  0  0  0  0  0  0  0
    7.6520    0.1800    2.1190 C   0  0  0  0  0  0  0  0  0  0  0  0
    6.8540    0.2560    3.0840 O   0  0  0  0  0  0  0  0  0  0  0  0
    8.9980    0.1880    2.3430 N   0  0  0  0  0  0  0  0  0  0  0  0
    9.8470    0.1050    1.2860 C   0  0  0  0  0  0  0  0  0  0  0  0
   11.6200    0.0850    1.1780 S   0  0  0  0  0  0  0  0  0  0  0  0
   11.7080   -0.0490   -0.6480 C   0  0  0  0  0  0  0  0  0  0  0  0
   10.3820   -0.0650   -0.9800 C   0  0  0  0  0  0  0  0  0  0  0  0
    9.4490    0.0110   -0.0260 C   0  0  0  0  0  0  0  0  0  0  0  0
    8.0450    0.0080   -0.1930 C   0  0  0  0  0  0  0  0  0  0  0  0
    7.5040   -0.0710   -1.3230 O   0  0  0  0  0  0  0  0  0  0  0  0
    5.0140   -0.9710    1.0350 C   0  0  0  0  0  0  0  0  0  0  0  0
    3.6340   -0.9140    0.8540 C   0  0  0  0  0  0  0  0  0  0  0  0
  1  2  1  0
  2  3  1  0
  3  4  1  0
  5  4  1  1
  5  6  1  0
  5  9  1  0
  6  7  1  0
  7  8  1  0
  8  9  1  0
  9 10  1  1
 10 11  1  0
 11 12  1  0
 11 16  1  0
 12 13  1  0
 13 14  1  0
 13 15  2  0
 16 17  2  0
 16 18  1  0
 18 19  1  0
 19 20  1  0
 20 21  2  0
 20 22  1  0
 22 23  2  0
 22 38  1  0
 23 24  1  0
 24 25  2  0
 25 26  1  0
 25 37  1  0
 26 27  1  0
 26 35  1  0
 27 28  2  0
 27 29  1  0
 29 30  1  0
 30 31  1  0
 30 34  2  0
 31 32  1  0
 32 33  2  0
 33 34  1  0
 34 35  1  0
 35 36  2  0
 37 38  2  0
M  CHG  1   2   1
M  END
