
     RDKit          3D

 14 13  0  0  0  0  0  0  0  0999 V2000
   -3.9710   -1.6870    0.1970 C   0  0  0  0  0  0  0  0  0  0  0  0
   -2.7240   -1.2130   -0.1620 O   0  0  0  0  0  0  0  0  0  0  0  0
   -2.5930    0.4790   -0.2390 P   0  0  0  0  0  0  0  0  0  0  0  0
   -3.6540    1.3310    0.7960 O   0  0  0  0  0  0  0  0  0  0  0  0
   -0.8290    0.9790   -0.0030 C   0  0  1  0  0  0  0  0  0  0  0  0
    0.1250   -0.1960   -0.2200 C   0  0  0  0  0  0  0  0  0  0  0  0
    1.5110    0.3170   -0.0060 C   0  0  0  0  0  0  0  0  0  0  0  0
    2.4950   -0.6850   -0.1790 O   0  0  0  0  0  0  0  0  0  0  0  0
    3.8460   -0.4140   -0.0260 C   0  0  0  0  0  0  0  0  0  0  0  0
    4.2180    0.7340    0.2720 O   0  0  0  0  0  0  0  0  0  0  0  0
    4.8220   -1.3860   -0.1920 O   0  0  0  0  0  0  0  0  0  0  0  0
    6.1320   -1.1340   -0.0460 O   0  0  0  0  0  0  0  0  0  0  0  0
   -0.3860    2.3920   -1.1230 P   0  0  0  0  0  0  0  0  0  0  0  0
   -0.7570    3.8430   -0.6650 O   0  0  0  0  0  0  0  0  0  0  0  0
  1  2  1  0
  2  3  1  0
  3  4  1  0
  3  5  1  0
  5  6  1  6
  5 13  1  0
  6  7  1  0
  7  8  1  0
  8  9  1  0
  9 10  2  0
  9 11  1  0
 11 12  1  0
 13 14  2  0
M  END
