
     RDKit          3D

 21 22  0  0  0  0  0  0  0  0999 V2000
    0.9870   -1.2910    1.7040 C   0  0  0  0  0  0  0  0  0  0  0  0
    0.4940   -0.2130    0.7670 C   0  0  1  0  0  0  0  0  0  0  0  0
   -0.9140   -0.4440    0.4210 C   0  0  0  0  0  0  0  0  0  0  0  0
   -1.3340   -1.5280   -0.0800 O   0  0  0  0  0  0  0  0  0  0  0  0
   -1.8570    0.5790    0.6510 N   0  0  0  0  0  0  0  0  0  0  0  0
   -3.2630    0.4060    0.3250 C   0  0  0  0  0  0  0  0  0  0  0  0
   -3.5020    0.1500   -1.1340 C   0  0  0  0  0  0  0  0  0  0  0  0
   -4.8640   -0.0100   -1.4160 O   0  0  0  0  0  0  0  0  0  0  0  0
   -5.5850   -1.0390   -0.8740 C   0  0  0  0  0  0  0  0  0  0  0  0
   -5.0290   -1.8610   -0.1160 O   0  0  0  0  0  0  0  0  0  0  0  0
    0.6400    1.0550    1.2910 O   0  0  0  0  0  0  0  0  0  0  0  0
    1.2500    1.7610    0.3480 O   0  0  0  0  0  0  0  0  0  0  0  0
    2.1780    0.8040   -0.1100 C   0  0  1  0  0  0  0  0  0  0  0  0
    2.8750    1.2800   -1.3620 C   0  0  0  0  0  0  0  0  0  0  0  0
    3.9550    0.4320   -1.6140 O   0  0  0  0  0  0  0  0  0  0  0  0
    4.7390   -0.1720   -0.6610 C   0  0  0  0  0  0  0  0  0  0  0  0
    5.8190   -0.7740   -0.9100 O   0  0  0  0  0  0  0  0  0  0  0  0
    4.3330   -0.1340    0.7110 N   0  0  0  0  0  0  0  0  0  0  0  0
    3.1150    0.5440    0.9950 C   0  0  0  0  0  0  0  0  0  0  0  0
    2.9080    0.8850    2.1930 O   0  0  0  0  0  0  0  0  0  0  0  0
    1.3270   -0.2710   -0.3680 O   0  0  0  0  0  0  0  0  0  0  0  0
  2  1  1  1
  2  3  1  0
  2 11  1  0
  2 21  1  0
  3  4  2  0
  3  5  1  0
  5  6  1  0
  6  7  1  0
  7  8  1  0
  8  9  1  0
  9 10  2  0
 11 12  1  0
 12 13  1  0
 13 14  1  6
 13 19  1  0
 13 21  1  0
 14 15  1  0
 15 16  1  0
 16 17  2  0
 16 18  1  0
 18 19  1  0
 19 20  2  0
M  END
