
     RDKit          3D

 22 24  0  0  0  0  0  0  0  0999 V2000
   -7.5900    2.3170   -2.0520 N   0  0  0  0  0  0  0  0  0  0  0  0
   -6.5510    1.8110   -2.1140 C   0  0  0  0  0  0  0  0  0  0  0  0
   -5.2700    1.1790   -2.1750 C   0  0  0  0  0  0  0  0  0  0  0  0
   -5.0050    0.3310   -3.2270 C   0  0  0  0  0  0  0  0  0  0  0  0
   -3.8030   -0.2710   -3.2980 N   0  0  0  0  0  0  0  0  0  0  0  0
   -2.8740   -0.0300   -2.3300 C   0  0  0  0  0  0  0  0  0  0  0  0
   -3.1120    0.8080   -1.2760 C   0  0  0  0  0  0  0  0  0  0  0  0
   -2.1250    1.0630   -0.3070 N   0  0  0  0  0  0  0  0  0  0  0  0
   -0.7770    0.6360   -0.3160 C   0  0  0  0  0  0  0  0  0  0  0  0
    0.0270    0.5900   -1.4280 C   0  0  0  0  0  0  0  0  0  0  0  0
    1.3420    0.1230   -1.3620 C   0  0  0  0  0  0  0  0  0  0  0  0
    1.8650   -0.3010   -0.1840 C   0  0  0  0  0  0  0  0  0  0  0  0
    1.1050   -0.2740    0.9550 C   0  0  0  0  0  0  0  0  0  0  0  0
   -0.2050    0.1950    0.8680 C   0  0  0  0  0  0  0  0  0  0  0  0
    1.6560   -0.7080    2.1900 N   0  0  0  0  0  0  0  0  0  0  0  0
    2.9880   -0.5150    2.6470 C   0  0  0  0  0  0  0  0  0  0  0  0
    4.0780   -0.5860    1.6450 C   0  0  1  0  0  0  0  0  0  0  0  0
    5.3420   -1.7560    2.1650 S   0  0  1  0  0  0  0  0  0  0  0  0
    6.3460   -1.8300    1.0310 O   0  0  0  0  0  0  0  0  0  0  0  0
    6.0370   -1.1540    3.3350 O   0  0  0  0  0  0  0  0  0  0  0  0
    3.5370   -0.9220   -0.0250 S   0  0  0  0  0  0  0  0  0  0  0  0
   -4.3350    1.3950   -1.2400 N   0  0  0  0  0  0  0  0  0  0  0  0
  1  2  3  0
  2  3  1  0
  3  4  2  0
  3 22  1  0
  4  5  1  0
  5  6  2  0
  6  7  1  0
  7  8  1  0
  7 22  2  0
  8  9  1  0
  9 10  2  0
  9 14  1  0
 10 11  1  0
 11 12  2  0
 12 13  1  0
 12 21  1  0
 13 14  2  0
 13 15  1  0
 15 16  1  0
 17 16  1  1
 18 17  1  6
 17 21  1  0
 18 19  2  0
 18 20  2  0
M  END
