
     RDKit          3D

 22 24  0  0  0  0  0  0  0  0999 V2000
   -3.5890   -1.9260    0.3980 N   0  0  0  0  0  0  0  0  0  0  0  0
   -2.9330   -0.6860    0.2780 C   0  0  0  0  0  0  0  0  0  0  0  0
   -2.3960   -0.2750   -0.9370 C   0  0  0  0  0  0  0  0  0  0  0  0
   -1.7460    0.9320   -1.0920 C   0  0  0  0  0  0  0  0  0  0  0  0
   -1.2040    1.3330   -2.3420 N   0  0  0  0  0  0  0  0  0  0  0  0
   -1.7310    2.0990   -3.2850 N   0  0  0  0  0  0  0  0  0  0  0  0
   -0.8820    2.2190   -4.2970 N   0  0  0  0  0  0  0  0  0  0  0  0
    0.2200    1.5200   -4.0150 N   0  0  0  0  0  0  0  0  0  0  0  0
    0.0040    0.9750   -2.7950 C   0  0  0  0  0  0  0  0  0  0  0  0
    1.1450   -0.0670   -1.9080 S   0  0  0  0  0  0  0  0  0  0  0  0
    2.2320    0.8880   -0.8500 C   0  0  0  0  0  0  0  0  0  0  0  0
    3.1530   -0.0770   -0.1490 C   0  0  0  0  0  0  0  0  0  0  0  0
    3.1620   -1.3920   -0.2870 C   0  0  0  0  0  0  0  0  0  0  0  0
    4.2080   -2.0060    0.5620 C   0  0  0  0  0  0  0  0  0  0  0  0
    4.8200   -0.8340    1.2290 C   0  0  0  0  0  0  0  0  0  0  0  0
    4.1980    0.2500    0.8030 C   0  0  0  0  0  0  0  0  0  0  0  0
   -1.6500    1.7330    0.0350 C   0  0  0  0  0  0  0  0  0  0  0  0
   -2.1850    1.3290    1.2510 C   0  0  0  0  0  0  0  0  0  0  0  0
   -2.8310    0.1180    1.3920 C   0  0  0  0  0  0  0  0  0  0  0  0
   -3.4810   -0.3270    2.9550 S   0  0  2  0  0  0  0  0  0  0  0  0
   -3.9430   -1.7340    2.9940 O   0  0  0  0  0  0  0  0  0  0  0  0
   -4.5640    0.6650    3.2780 O   0  0  0  0  0  0  0  0  0  0  0  0
  1  2  1  0
  2  3  2  0
  2 19  1  0
  3  4  1  0
  4  5  1  0
  4 17  2  0
  5  6  1  0
  5  9  1  0
  6  7  2  0
  7  8  1  0
  8  9  2  0
  9 10  1  0
 10 11  1  0
 11 12  1  0
 12 13  2  0
 12 16  1  0
 13 14  1  0
 14 15  1  0
 15 16  2  0
 17 18  1  0
 18 19  2  0
 20 19  1  6
 20 21  2  0
 20 22  2  0
M  END
