
     RDKit          3D

 28 30  0  0  0  0  0  0  0  0999 V2000
    7.8970    0.7680    0.4600 C   0  0  0  0  0  0  0  0  0  0  0  0
    6.9250    0.0390   -0.0220 C   0  0  0  0  0  0  0  0  0  0  0  0
    5.5390    0.4480    0.2150 C   0  0  0  0  0  0  0  0  0  0  0  0
    4.5790   -0.2900   -0.2720 C   0  0  0  0  0  0  0  0  0  0  0  0
    3.1910    0.0480   -0.0800 C   0  0  0  0  0  0  0  0  0  0  0  0
    2.8130    1.1580    0.6190 C   0  0  0  0  0  0  0  0  0  0  0  0
    1.4630    1.5000    0.8180 C   0  0  0  0  0  0  0  0  0  0  0  0
    0.4400    0.7350    0.3200 C   0  0  0  0  0  0  0  0  0  0  0  0
   -0.9820    1.0260    0.4820 C   0  0  0  0  0  0  0  0  0  0  0  0
   -1.9140    0.2080   -0.0260 C   0  0  0  0  0  0  0  0  0  0  0  0
   -3.3360    0.5110    0.1430 C   0  0  0  0  0  0  0  0  0  0  0  0
   -4.2650   -0.2890   -0.3460 C   0  0  0  0  0  0  0  0  0  0  0  0
   -4.0650   -1.5280   -1.0880 C   0  0  0  0  0  0  0  0  0  0  0  0
   -5.0720   -2.5620   -0.6100 C   0  0  0  0  0  0  0  0  0  0  0  0
   -6.4840   -2.0710   -0.6110 C   0  0  0  0  0  0  0  0  0  0  0  0
   -6.5690   -0.5890   -0.9700 C   0  0  0  0  0  0  0  0  0  0  0  0
   -5.6150    0.0850   -0.1340 O   0  0  0  0  0  0  0  0  0  0  0  0
   -3.7270    1.7260    0.8790 C   0  0  0  0  0  0  0  0  0  0  0  0
   -2.8550    2.5470    1.3890 C   0  0  0  0  0  0  0  0  0  0  0  0
   -3.2600    3.7680    2.1290 C   0  0  0  0  0  0  0  0  0  0  0  0
   -2.7670    4.9220    1.5250 O   0  0  0  0  0  0  0  0  0  0  0  0
   -1.4170    2.2040    1.1960 C   0  0  0  0  0  0  0  0  0  0  0  0
   -0.6300    3.0510    1.7200 O   0  0  0  0  0  0  0  0  0  0  0  0
    0.8590   -0.3950   -0.3920 C   0  0  0  0  0  0  0  0  0  0  0  0
    2.1700   -0.7410   -0.5940 C   0  0  0  0  0  0  0  0  0  0  0  0
    2.5530   -1.9490   -1.3570 C   0  0  0  0  0  0  0  0  0  0  0  0
    7.1410   -1.1210   -0.7590 O   0  0  0  0  0  0  0  0  0  0  0  0
    7.2090   -2.3350   -0.0030 C   0  0  0  0  0  0  0  0  0  0  0  0
  1  2  2  0
  2  3  1  0
  2 27  1  0
  3  4  2  3
  4  5  1  0
  5  6  2  0
  5 25  1  0
  6  7  1  0
  7  8  2  0
  8  9  1  0
  8 24  1  0
  9 10  2  0
  9 22  1  0
 10 11  1  0
 11 12  2  3
 11 18  1  0
 12 13  1  0
 12 17  1  0
 13 14  1  0
 14 15  1  0
 15 16  1  0
 16 17  1  0
 18 19  2  0
 19 20  1  0
 19 22  1  0
 20 21  1  0
 22 23  2  0
 24 25  2  0
 25 26  1  0
 27 28  1  0
M  END
