
     RDKit          3D

 22 24  0  0  0  0  0  0  0  0999 V2000
    5.2920    1.6920    0.3190 C   0  0  0  0  0  0  0  0  0  0  0  0
    5.2240    0.4240    0.2150 N   0  0  0  0  0  0  0  0  0  0  0  0
    4.0960   -0.1850   -0.3660 C   0  0  0  0  0  0  0  0  0  0  0  0
    3.8020   -1.4290   -0.1070 C   0  0  0  0  0  0  0  0  0  0  0  0
    4.6700   -2.2030    0.8090 C   0  0  0  0  0  0  0  0  0  0  0  0
    3.2800    0.5690   -1.2370 N   0  0  0  0  0  0  0  0  0  0  0  0
    1.9200    0.7510   -0.9110 C   0  0  0  0  0  0  0  0  0  0  0  0
    0.8770    1.3800   -1.4720 C   0  0  0  0  0  0  0  0  0  0  0  0
   -0.3250    1.3440   -0.8590 C   0  0  0  0  0  0  0  0  0  0  0  0
   -0.4490    0.6870    0.2870 C   0  0  0  0  0  0  0  0  0  0  0  0
   -1.6470    0.4960    1.1550 C   0  0  0  0  0  0  0  0  0  0  0  0
   -2.8070    0.2030    0.6200 C   0  0  0  0  0  0  0  0  0  0  0  0
   -3.0910    0.0020   -1.1460 S   0  0  0  0  0  0  0  0  0  0  0  0
   -4.8670   -0.3690   -0.9860 C   0  0  0  0  0  0  0  0  0  0  0  0
   -5.9800   -0.6650   -1.6850 N   0  0  0  0  0  0  0  0  0  0  0  0
   -6.9260   -0.7950   -0.7480 C   0  0  0  0  0  0  0  0  0  0  0  0
   -8.1290   -1.0750   -0.9960 O   0  0  0  0  0  0  0  0  0  0  0  0
   -6.3660   -0.5800    0.4480 N   0  0  0  0  0  0  0  0  0  0  0  0
   -5.0370   -0.3040    0.3070 N   0  0  0  0  0  0  0  0  0  0  0  0
   -4.0540   -0.0270    1.1250 C   0  0  0  0  0  0  0  0  0  0  0  0
   -4.1530    0.0550    2.4350 O   0  0  0  0  0  0  0  0  0  0  0  0
    1.1500    0.0450    0.6130 S   0  0  0  0  0  0  0  0  0  0  0  0
  1  2  2  0
  2  3  1  0
  3  4  2  3
  3  6  1  0
  4  5  1  0
  6  7  1  0
  7  8  2  0
  7 22  1  0
  8  9  1  0
  9 10  2  0
 10 11  1  0
 10 22  1  0
 11 12  2  3
 12 13  1  0
 12 20  1  0
 13 14  1  0
 14 15  2  0
 14 19  1  0
 15 16  1  0
 16 17  2  0
 16 18  1  0
 18 19  1  0
 19 20  1  0
 20 21  2  0
M  END
