
     RDKit          3D

 14 15  0  0  0  0  0  0  0  0999 V2000
   -4.1570    0.3830    0.5240 N   0  0  0  0  0  0  0  0  0  0  0  0
   -2.7750    0.0960    0.5210 C   0  0  0  0  0  0  0  0  0  0  0  0
   -2.1960   -0.4120    1.5390 O   0  0  0  0  0  0  0  0  0  0  0  0
   -1.9560    0.3390   -0.5710 O   0  0  0  0  0  0  0  0  0  0  0  0
   -0.5860    0.0260   -0.4980 C   0  0  0  0  0  0  0  0  0  0  0  0
    0.2220    1.0360   -0.0340 C   0  0  0  0  0  0  0  0  0  0  0  0
    1.5620    0.7950    0.0610 C   0  0  0  0  0  0  0  0  0  0  0  0
    2.4150    1.8400    0.5420 N   0  0  0  0  0  0  0  0  0  0  0  0
    2.0820   -0.4420   -0.3050 C   0  0  0  0  0  0  0  0  0  0  0  0
    1.3040   -1.4500   -0.7650 C   0  0  0  0  0  0  0  0  0  0  0  0
   -0.0850   -1.1770   -0.8540 C   0  0  0  0  0  0  0  0  0  0  0  0
    1.8660   -2.6430   -1.1110 O   0  0  0  0  0  0  0  0  0  0  0  0
    3.3460   -2.9920   -0.2730 S   0  0  0  0  0  0  0  0  0  0  0  0
    3.8280   -0.8740   -0.2000 S   0  0  0  0  0  0  0  0  0  0  0  0
  1  2  1  0
  2  3  2  0
  2  4  1  0
  4  5  1  0
  5  6  2  0
  5 11  1  0
  6  7  1  0
  7  8  1  0
  7  9  2  0
  9 10  1  0
  9 14  1  0
 10 11  2  0
 10 12  1  0
 12 13  1  0
 13 14  1  0
M  END
