
     RDKit          3D

 14 15  0  0  0  0  0  0  0  0999 V2000
   -3.0820   -0.9030   -0.2960 N   0  0  0  0  0  0  0  0  0  0  0  0
   -2.7120    0.3570   -0.8140 C   0  0  0  0  0  0  0  0  0  0  0  0
   -3.6190    1.1060   -1.2560 O   0  0  0  0  0  0  0  0  0  0  0  0
   -1.3360    0.8280   -0.8610 C   0  0  0  0  0  0  0  0  0  0  0  0
   -0.7790    2.3890   -1.4920 S   0  0  0  0  0  0  0  0  0  0  0  0
    0.9270    2.1640   -1.1890 C   0  0  0  0  0  0  0  0  0  0  0  0
    1.0070    0.8500   -0.5940 C   0  0  0  0  0  0  0  0  0  0  0  0
    2.2290    0.2560   -0.1840 C   0  0  0  0  0  0  0  0  0  0  0  0
    3.2940    0.9440   -0.3650 O   0  0  0  0  0  0  0  0  0  0  0  0
    2.3980   -0.9170    0.3590 N   0  0  0  0  0  0  0  0  0  0  0  0
    1.4800   -1.8330    0.6590 C   0  0  0  0  0  0  0  0  0  0  0  0
    1.7630   -2.9440    1.1880 O   0  0  0  0  0  0  0  0  0  0  0  0
   -0.1010   -1.3520    0.2570 S   0  0  0  0  0  0  0  0  0  0  0  0
   -0.1610    0.2440   -0.4620 C   0  0  0  0  0  0  0  0  0  0  0  0
  1  2  1  0
  2  3  2  0
  2  4  1  0
  4  5  1  0
  4 14  2  0
  5  6  1  0
  6  7  2  0
  7  8  1  0
  7 14  1  0
  8  9  2  0
  8 10  1  0
 10 11  1  0
 11 12  2  0
 11 13  1  0
 13 14  1  0
M  END
