
     RDKit          3D

 19 18  0  0  0  0  0  0  0  0999 V2000
    3.9860   -1.8880   -1.0340 O   0  0  0  0  0  0  0  0  0  0  0  0
    3.9930   -0.5180   -0.8470 C   0  0  0  0  0  0  0  0  0  0  0  0
    3.0430   -0.0250    0.2140 C   0  0  1  0  0  0  0  0  0  0  0  0
    3.3650   -0.6280    1.5630 C   0  0  0  0  0  0  0  0  0  0  0  0
    4.6530   -0.3540    1.9810 O   0  0  0  0  0  0  0  0  0  0  0  0
    3.2260    1.4840    0.2840 C   0  0  0  0  0  0  0  0  0  0  0  0
    4.5540    1.7620    0.6050 O   0  0  0  0  0  0  0  0  0  0  0  0
    1.6850   -0.3790   -0.1150 N   0  0  0  0  0  0  0  0  0  0  0  0
    1.1230    0.4550   -1.1610 C   0  0  0  0  0  0  0  0  0  0  0  0
    0.0880   -0.3590   -1.9040 C   0  0  0  0  0  0  0  0  0  0  0  0
   -1.0280   -0.8120   -0.9540 C   0  0  0  0  0  0  0  0  0  0  0  0
   -1.7020    0.2860   -0.3550 N   0  0  0  0  0  0  0  0  0  0  0  0
   -3.0580    0.0900   -0.0010 C   0  0  2  0  0  0  0  0  0  0  0  0
   -3.9220    1.0060   -0.8670 C   0  0  0  0  0  0  0  0  0  0  0  0
   -5.2690    0.8550   -0.5610 O   0  0  0  0  0  0  0  0  0  0  0  0
   -3.3450    0.5000    1.4410 C   0  0  0  0  0  0  0  0  0  0  0  0
   -3.0310    1.8510    1.5510 O   0  0  0  0  0  0  0  0  0  0  0  0
   -3.5820   -1.3010   -0.1800 C   0  0  0  0  0  0  0  0  0  0  0  0
   -2.8870   -2.2390    0.5790 O   0  0  0  0  0  0  0  0  0  0  0  0
  1  2  1  0
  3  2  1  6
  3  4  1  0
  3  6  1  0
  3  8  1  0
  4  5  1  0
  6  7  1  0
  8  9  1  0
  9 10  1  0
 10 11  1  0
 11 12  1  0
 12 13  1  0
 13 14  1  6
 13 16  1  0
 13 18  1  0
 14 15  1  0
 16 17  1  0
 18 19  1  0
M  CHG  2   8   1  12   1
M  END
