
     RDKit          3D

 18 17  0  0  0  0  0  0  0  0999 V2000
    5.3100   -0.2780    0.2830 N   0  0  0  0  0  0  0  0  0  0  0  0
    4.3970   -1.1130   -0.4660 C   0  0  0  0  0  0  0  0  0  0  0  0
    3.0590   -1.3250    0.1340 C   0  0  0  0  0  0  0  0  0  0  0  0
    2.3160    0.0080    0.3130 C   0  0  1  0  0  0  0  0  0  0  0  0
    3.1920    0.7230    1.1830 O   0  0  0  0  0  0  0  0  0  0  0  0
    2.1580    0.6910   -0.9750 C   0  0  0  0  0  0  0  0  0  0  0  0
    1.7280    1.9990   -0.8020 O   0  0  0  0  0  0  0  0  0  0  0  0
    1.0700   -0.2080    1.0720 C   0  0  0  0  0  0  0  0  0  0  0  0
    0.2430    0.9960    1.3120 C   0  0  0  0  0  0  0  0  0  0  0  0
   -0.3510    1.6170    0.2680 O   0  0  0  0  0  0  0  0  0  0  0  0
   -1.2960    0.8950   -0.4270 C   0  0  0  0  0  0  0  0  0  0  0  0
   -2.4570    0.4880    0.4580 C   0  0  0  0  0  0  0  0  0  0  0  0
   -3.4750   -0.2980   -0.3220 C   0  0  1  0  0  0  0  0  0  0  0  0
   -2.9320   -1.4660   -0.8640 O   0  0  0  0  0  0  0  0  0  0  0  0
   -4.6170   -0.7230    0.5770 C   0  0  0  0  0  0  0  0  0  0  0  0
   -5.2320    0.3810    1.1720 O   0  0  0  0  0  0  0  0  0  0  0  0
   -4.0660    0.4900   -1.4650 C   0  0  0  0  0  0  0  0  0  0  0  0
   -5.0520   -0.3280   -2.0470 O   0  0  0  0  0  0  0  0  0  0  0  0
  1  2  1  0
  2  3  1  0
  3  4  1  0
  4  5  1  1
  4  6  1  0
  4  8  1  0
  6  7  1  0
  8  9  1  0
  9 10  1  0
 10 11  1  0
 11 12  1  0
 12 13  1  0
 13 14  1  6
 13 15  1  0
 13 17  1  0
 15 16  1  0
 17 18  1  0
M  CHG  1   1   1
M  END
