
     RDKit          3D

 19 19  0  0  0  0  0  0  0  0999 V2000
    1.7540    3.0640   -1.4510 C   0  0  0  0  0  0  0  0  0  0  0  0
    1.6710    2.0460   -0.5040 O   0  0  0  0  0  0  0  0  0  0  0  0
    0.4500    1.3600   -0.7160 C   0  0  0  0  0  0  0  0  0  0  0  0
    0.4120    0.2520    0.3520 C   0  0  2  0  0  0  0  0  0  0  0  0
    0.4650    0.9700    1.6610 C   0  0  0  0  0  0  0  0  0  0  0  0
    1.6990    1.6850    1.6440 O   0  0  0  0  0  0  0  0  0  0  0  0
    1.6720   -0.4840    0.0940 C   0  0  0  0  0  0  0  0  0  0  0  0
    2.7470    0.4260    0.2610 O   0  0  0  0  0  0  0  0  0  0  0  0
    3.9570   -0.1800    0.0380 C   0  0  0  0  0  0  0  0  0  0  0  0
    4.0540   -0.7030   -1.2690 O   0  0  0  0  0  0  0  0  0  0  0  0
   -0.8610   -0.5460    0.2470 C   0  0  2  0  0  0  0  0  0  0  0  0
   -2.0520    0.3780    0.4110 C   0  0  0  0  0  0  0  0  0  0  0  0
   -3.4070   -0.1920    0.3420 C   0  0  0  0  0  0  0  0  0  0  0  0
   -4.3180    0.9680    0.5660 N   0  0  0  0  0  0  0  0  0  0  0  0
   -1.0480   -1.8400    0.9460 C   0  0  2  0  0  0  0  0  0  0  0  0
   -0.1010   -2.6100    1.6380 N   0  0  0  0  0  0  0  0  0  0  0  0
   -1.0120   -1.7210   -0.5820 C   0  0  1  0  0  0  0  0  0  0  0  0
   -2.1890   -2.0510   -1.2380 O   0  0  0  0  0  0  0  0  0  0  0  0
    0.0560   -2.3530   -1.2310 O   0  0  0  0  0  0  0  0  0  0  0  0
  1  2  1  0
  2  3  1  0
  4  3  1  6
  4  5  1  0
  4  7  1  0
  4 11  1  0
  5  6  1  0
  7  8  1  0
  8  9  1  0
  9 10  1  0
 11 12  1  6
 11 15  1  0
 11 17  1  0
 12 13  1  0
 13 14  1  0
 15 16  1  1
 15 17  1  0
 17 18  1  6
 17 19  1  0
M  CHG  2  14   1  16   1
M  END
