
     RDKit          3D

 18 17  0  0  0  0  0  0  0  0999 V2000
    4.5540   -0.3780    1.8630 C   0  0  0  0  0  0  0  0  0  0  0  0
    3.7210   -1.1170    1.0390 O   0  0  0  0  0  0  0  0  0  0  0  0
    2.7520   -0.3220    0.4200 C   0  0  0  0  0  0  0  0  0  0  0  0
    1.9070   -1.2280   -0.4490 C   0  0  0  0  0  0  0  0  0  0  0  0
    0.8230   -0.6210   -1.1920 C   0  0  0  0  0  0  0  0  0  0  0  0
   -0.3090    0.1350   -0.5590 C   0  0  1  0  0  0  0  0  0  0  0  0
    0.3750    1.1890    0.1230 O   0  0  0  0  0  0  0  0  0  0  0  0
   -1.0400    0.7510   -1.7470 C   0  0  2  0  0  0  0  0  0  0  0  0
   -0.0110    1.3000   -2.6840 N   0  0  0  0  0  0  0  0  0  0  0  0
   -1.9230    1.9030   -1.4980 C   0  0  0  0  0  0  0  0  0  0  0  0
   -1.3030    3.0760   -0.9070 N   0  0  0  0  0  0  0  0  0  0  0  0
   -1.0990   -0.6100    0.4100 C   0  0  1  0  0  0  0  0  0  0  0  0
   -0.3520   -1.0490    1.6310 C   0  0  0  0  0  0  0  0  0  0  0  0
   -1.2350   -1.7660    2.5070 O   0  0  0  0  0  0  0  0  0  0  0  0
   -2.3460    0.1000    0.9560 C   0  0  0  0  0  0  0  0  0  0  0  0
   -2.9850   -0.7050    1.9080 O   0  0  0  0  0  0  0  0  0  0  0  0
   -1.7430   -1.8820   -0.2380 C   0  0  0  0  0  0  0  0  0  0  0  0
   -0.7810   -2.7520   -0.7130 O   0  0  0  0  0  0  0  0  0  0  0  0
  1  2  1  0
  2  3  1  0
  3  4  1  0
  4  5  1  0
  5  6  1  0
  6  7  1  1
  6  8  1  0
  6 12  1  0
  8  9  1  6
  8 10  1  0
 10 11  1  0
 12 13  1  1
 12 15  1  0
 12 17  1  0
 13 14  1  0
 15 16  1  0
 17 18  1  0
M  CHG  1  11   1
M  END
