
     RDKit          3D

 21 21  0  0  0  0  0  0  0  0999 V2000
   -3.2270   -0.7150    1.7680 C   0  0  0  0  0  0  0  0  0  0  0  0
   -3.5810    0.4540    1.2280 O   0  0  0  0  0  0  0  0  0  0  0  0
   -3.0360    0.9960    0.1340 C   0  0  1  0  0  0  0  0  0  0  0  0
   -1.5670    1.2960    0.2390 C   0  0  0  0  0  0  0  0  0  0  0  0
   -0.8060    0.0890    0.3670 N   0  0  0  0  0  0  0  0  0  0  0  0
    0.6190    0.1390    0.5310 C   0  0  0  0  0  0  0  0  0  0  0  0
    1.1780    1.2630    0.5590 O   0  0  0  0  0  0  0  0  0  0  0  0
    1.3630   -1.0380    0.6570 N   0  0  0  0  0  0  0  0  0  0  0  0
    2.8130   -0.9990    0.8240 C   0  0  0  0  0  0  0  0  0  0  0  0
    3.4890   -0.3220   -0.3460 C   0  0  2  0  0  0  0  0  0  0  0  0
    3.2300   -0.9840   -1.5440 O   0  0  0  0  0  0  0  0  0  0  0  0
    5.3250   -0.3510    0.0080 P   0  0  0  0  0  0  0  0  0  0  0  0
    6.0430    1.0260   -0.7180 O   0  0  0  0  0  0  0  0  0  0  0  0
    5.9550   -1.8360   -0.6330 O   0  0  0  0  0  0  0  0  0  0  0  0
   -3.2450    0.0890   -0.9610 O   0  0  0  0  0  0  0  0  0  0  0  0
   -4.4530   -0.0540   -1.5870 C   0  0  0  0  0  0  0  0  0  0  0  0
   -4.6800   -1.1510   -2.1780 O   0  0  0  0  0  0  0  0  0  0  0  0
   -5.3630    0.9870   -1.5510 O   0  0  0  0  0  0  0  0  0  0  0  0
   -5.0010    2.1110   -0.8860 O   0  0  0  0  0  0  0  0  0  0  0  0
   -3.7820    2.2330   -0.2640 C   0  0  0  0  0  0  0  0  0  0  0  0
   -3.3140    3.3700   -0.0390 O   0  0  0  0  0  0  0  0  0  0  0  0
  1  2  1  0
  2  3  1  0
  3  4  1  1
  3 15  1  0
  3 20  1  0
  4  5  1  0
  5  6  1  0
  6  7  2  0
  6  8  1  0
  8  9  1  0
  9 10  1  0
 10 11  1  6
 10 12  1  0
 12 13  1  0
 12 14  1  0
 15 16  1  0
 16 17  2  0
 16 18  1  0
 18 19  1  0
 19 20  1  0
 20 21  2  0
M  END
