
     RDKit          3D

  9  9  0  0  0  0  0  0  0  0999 V2000
    2.5000   -0.6370   -0.3010 C   0  0  0  0  0  0  0  0  0  0  0  0
    1.5890    0.5120   -0.5250 C   0  0  0  0  0  0  0  0  0  0  0  0
    0.3180    0.3580   -0.1990 C   0  0  0  0  0  0  0  0  0  0  0  0
   -0.1970   -0.8860    0.3630 C   0  0  0  0  0  0  0  0  0  0  0  0
   -1.4830   -1.0110    0.6820 C   0  0  0  0  0  0  0  0  0  0  0  0
   -1.8970   -2.2110    1.2050 F   0  0  0  0  0  0  0  0  0  0  0  0
   -2.4370    0.0730    0.4910 C   0  0  0  0  0  0  0  0  0  0  0  0
   -1.9840    1.2060   -0.0170 C   0  0  0  0  0  0  0  0  0  0  0  0
   -0.6250    1.4070   -0.3790 N   0  0  0  0  0  0  0  0  0  0  0  0
  1  2  1  0
  2  3  2  3
  3  4  1  0
  3  9  1  0
  4  5  2  0
  5  6  1  0
  5  7  1  0
  7  8  2  0
  8  9  1  0
M  END
