
     RDKit          3D

 12 13  0  0  0  0  0  0  0  0999 V2000
    3.3790   -0.5030    0.2930 C   0  0  0  0  0  0  0  0  0  0  0  0
    1.9670   -0.0350    0.1300 C   0  0  0  0  0  0  0  0  0  0  0  0
    0.9550   -0.8830    0.1630 N   0  0  0  0  0  0  0  0  0  0  0  0
   -0.3530   -0.5070    0.0190 C   0  0  0  0  0  0  0  0  0  0  0  0
   -0.5750    0.8230   -0.1650 C   0  0  0  0  0  0  0  0  0  0  0  0
    0.5180    1.6990   -0.1950 C   0  0  0  0  0  0  0  0  0  0  0  0
    0.3560    2.9390   -0.3640 O   0  0  0  0  0  0  0  0  0  0  0  0
    1.7820    1.2740   -0.0490 N   0  0  0  0  0  0  0  0  0  0  0  0
   -1.9000    1.4580   -0.3420 C   0  0  0  0  0  0  0  0  0  0  0  0
   -3.1060    0.4560    0.6140 S   0  0  0  0  0  0  0  0  0  0  0  0
   -2.7470   -1.2560    0.1330 C   0  0  0  0  0  0  0  0  0  0  0  0
   -1.3180   -1.5840    0.0840 C   0  0  0  0  0  0  0  0  0  0  0  0
  1  2  1  0
  2  3  2  0
  2  8  1  0
  3  4  1  0
  4  5  2  0
  4 12  1  0
  5  6  1  0
  5  9  1  0
  6  7  2  0
  6  8  1  0
  9 10  1  0
 10 11  1  0
 11 12  1  0
M  END
