
     RDKit          3D

  8  8  0  0  0  0  0  0  0  0999 V2000
    2.4270   -0.1120    0.6400 N   0  0  0  0  0  0  0  0  0  0  0  0
    0.9720   -0.1180    0.4910 C   0  0  2  0  0  0  0  0  0  0  0  0
    0.6230   -1.3780   -0.2750 C   0  0  0  0  0  0  0  0  0  0  0  0
   -0.7820   -1.2860   -0.8230 C   0  0  0  0  0  0  0  0  0  0  0  0
   -1.6500   -0.6780    0.2300 C   0  0  0  0  0  0  0  0  0  0  0  0
   -1.9160    0.7830    0.0130 C   0  0  0  0  0  0  0  0  0  0  0  0
   -0.7390    1.6640    0.0840 C   0  0  0  0  0  0  0  0  0  0  0  0
    0.5580    1.0470   -0.3420 C   0  0  0  0  0  0  0  0  0  0  0  0
  2  1  1  6
  2  3  1  0
  2  8  1  0
  3  4  1  0
  4  5  1  0
  5  6  1  0
  6  7  1  0
  7  8  1  0
M  CHG  1   1   1
M  END
