
     RDKit          3D

  8  8  0  0  0  0  0  0  0  0999 V2000
    1.6850    0.4280    1.4720 C   0  0  0  0  0  0  0  0  0  0  0  0
    0.5230    0.6740    0.5910 C   0  0  0  0  0  0  0  0  0  0  0  0
   -0.0540    1.8600    0.3960 C   0  0  0  0  0  0  0  0  0  0  0  0
   -1.1680    1.7510   -0.5290 C   0  0  0  0  0  0  0  0  0  0  0  0
   -1.2580    0.4670   -0.8950 C   0  0  0  0  0  0  0  0  0  0  0  0
   -0.2140   -0.2830   -0.2240 C   0  0  0  0  0  0  0  0  0  0  0  0
    0.0510   -1.5820   -0.3070 C   0  0  0  0  0  0  0  0  0  0  0  0
   -0.7600   -2.3830   -1.1460 N   0  0  0  0  0  0  0  0  0  0  0  0
  1  2  1  0
  2  3  2  0
  2  6  1  0
  3  4  1  0
  4  5  2  0
  5  6  1  0
  6  7  2  3
  7  8  1  0
M  END
