
     RDKit          3D

 12 11  0  0  0  0  0  0  0  0999 V2000
   -2.4930   -0.9370   -1.0450 C   0  0  0  0  0  0  0  0  0  0  0  0
   -1.8400   -0.1130    0.0160 C   0  0  2  0  0  0  0  0  0  0  0  0
   -2.2460    1.3280   -0.1770 C   0  0  0  0  0  0  0  0  0  0  0  0
   -0.4180   -0.2810    0.1370 N   0  0  0  0  0  0  0  0  0  0  0  0
   -0.0710   -1.5960    0.5000 C   0  0  0  0  0  0  0  0  0  0  0  0
   -0.4980   -2.5810   -0.3800 O   0  0  0  0  0  0  0  0  0  0  0  0
    0.2780    0.7940    0.7100 C   0  0  0  0  0  0  0  0  0  0  0  0
    1.7640    0.5510    0.8140 C   0  0  2  0  0  0  0  0  0  0  0  0
    2.4140    1.6690    1.3800 O   0  0  0  0  0  0  0  0  0  0  0  0
    2.5140    0.0910   -0.7950 P   0  0  0  0  0  0  0  0  0  0  0  0
    2.7290    1.4160   -1.8570 O   0  0  0  0  0  0  0  0  0  0  0  0
    3.9210   -0.8890   -0.6440 O   0  0  0  0  0  0  0  0  0  0  0  0
  2  1  1  6
  2  3  1  0
  2  4  1  0
  4  5  1  0
  4  7  1  0
  5  6  1  0
  7  8  1  0
  8  9  1  6
  8 10  1  0
 10 11  1  0
 10 12  1  0
M  END
