
     RDKit          3D

 12 11  0  0  0  0  0  0  0  0999 V2000
   -3.2730    0.4950    0.4940 C   0  0  0  0  0  0  0  0  0  0  0  0
   -2.8950   -0.0220   -0.8620 C   0  0  0  0  0  0  0  0  0  0  0  0
   -1.3830    0.1670   -1.0660 C   0  0  0  0  0  0  0  0  0  0  0  0
   -0.7430   -0.5770   -0.0320 N   0  0  0  0  0  0  0  0  0  0  0  0
    0.6810   -0.5580   -0.0140 C   0  0  2  0  0  0  0  0  0  0  0  0
    1.1040   -1.6170    1.0170 C   0  0  0  0  0  0  0  0  0  0  0  0
    2.5060   -1.6440    1.0780 O   0  0  0  0  0  0  0  0  0  0  0  0
    1.2640    0.7630    0.3520 C   0  0  0  0  0  0  0  0  0  0  0  0
    0.4900    1.6620    0.5980 O   0  0  0  0  0  0  0  0  0  0  0  0
    3.0440    1.0820    0.4430 P   0  0  0  0  0  0  0  0  0  0  0  0
    3.9440    0.1810   -0.7310 O   0  0  0  0  0  0  0  0  0  0  0  0
    3.4080    2.7550    0.2860 O   0  0  0  0  0  0  0  0  0  0  0  0
  1  2  1  0
  2  3  1  0
  3  4  1  0
  4  5  1  0
  5  6  1  1
  5  8  1  0
  6  7  1  0
  8  9  2  0
  8 10  1  0
 10 11  1  0
 10 12  1  0
M  END
