
     RDKit          3D

 13 12  0  0  0  0  0  0  0  0999 V2000
   -5.1480    0.0360   -0.1370 C   0  0  0  0  0  0  0  0  0  0  0  0
   -3.7850    0.1510    0.3230 O   0  0  0  0  0  0  0  0  0  0  0  0
   -2.7350   -0.4200   -0.4390 C   0  0  0  0  0  0  0  0  0  0  0  0
   -3.0780   -1.0190   -1.5190 O   0  0  0  0  0  0  0  0  0  0  0  0
   -1.3730   -0.3180   -0.0110 C   0  0  1  0  0  0  0  0  0  0  0  0
   -1.1220   -1.5300    0.9680 C   0  0  0  0  0  0  0  0  0  0  0  0
   -0.3490   -0.4290   -0.9980 O   0  0  0  0  0  0  0  0  0  0  0  0
    0.6340    0.4110   -0.5260 C   0  0  0  0  0  0  0  0  0  0  0  0
    1.8650    0.6120   -1.1940 N   0  0  0  0  0  0  0  0  0  0  0  0
    2.9210    0.1580   -0.2250 C   0  0  0  0  0  0  0  0  0  0  0  0
    4.6050    0.7270   -0.6110 P   0  0  0  0  0  0  0  0  0  0  0  0
    5.7430   -0.4170    0.0680 O   0  0  0  0  0  0  0  0  0  0  0  0
    4.9710    2.2400    0.2300 O   0  0  0  0  0  0  0  0  0  0  0  0
  1  2  1  0
  2  3  1  0
  3  4  2  0
  3  5  1  0
  5  6  1  1
  5  7  1  0
  7  8  1  0
  8  9  1  0
  9 10  1  0
 10 11  1  0
 11 12  1  0
 11 13  1  0
M  END
