
     RDKit          3D

 10  9  0  0  0  0  0  0  0  0999 V2000
    2.8490   -0.2450   -1.4710 O   0  0  0  0  0  0  0  0  0  0  0  0
    2.0020   -0.0780   -0.5640 C   0  0  0  0  0  0  0  0  0  0  0  0
    0.6180   -0.4460   -0.7930 C   0  0  0  0  0  0  0  0  0  0  0  0
   -0.1980   -0.1980    0.3120 O   0  0  0  0  0  0  0  0  0  0  0  0
   -1.7020   -0.5520    0.1800 P   0  0  0  0  0  0  0  0  0  0  0  0
   -3.1920   -0.7980    0.1500 O   0  0  0  0  0  0  0  0  0  0  0  0
   -1.8340   -0.0290    1.7530 O   0  0  0  0  0  0  0  0  0  0  0  0
   -1.7820    0.5370   -1.0720 O   0  0  0  0  0  0  0  0  0  0  0  0
    2.4210    0.4670    0.6650 N   0  0  0  0  0  0  0  0  0  0  0  0
    3.7170    0.8110    0.8790 O   0  0  0  0  0  0  0  0  0  0  0  0
  1  2  2  0
  2  3  1  0
  2  9  1  0
  3  4  1  0
  4  5  1  0
  5  6  1  0
  5  7  1  0
  5  8  1  0
  9 10  1  0
M  END
