
     RDKit          3D

 13 12  0  0  0  0  0  0  0  0999 V2000
    3.2900    1.0340    1.0230 C   0  0  0  0  0  0  0  0  0  0  0  0
    2.1510    0.2900    0.5700 O   0  0  0  0  0  0  0  0  0  0  0  0
    2.0380   -0.1090   -0.7530 C   0  0  0  0  0  0  0  0  0  0  0  0
    2.9970    0.2290   -1.5040 O   0  0  0  0  0  0  0  0  0  0  0  0
    0.8780   -0.8800   -1.2620 C   0  0  0  0  0  0  0  0  0  0  0  0
   -0.1620   -1.0830   -0.3040 N   0  0  0  0  0  0  0  0  0  0  0  0
    0.3150   -1.9350    0.7390 C   0  0  0  0  0  0  0  0  0  0  0  0
   -0.7840    0.1190    0.0640 C   0  0  2  0  0  0  0  0  0  0  0  0
   -1.8850   -0.0220    1.0890 C   0  0  0  0  0  0  0  0  0  0  0  0
   -2.9130   -0.8270    0.6730 O   0  0  0  0  0  0  0  0  0  0  0  0
   -1.6130    0.8400   -1.4630 P   0  0  0  0  0  0  0  0  0  0  0  0
   -1.7170    2.5560   -1.2280 O   0  0  0  0  0  0  0  0  0  0  0  0
   -3.2310    0.2370   -1.6120 O   0  0  0  0  0  0  0  0  0  0  0  0
  1  2  1  0
  2  3  1  0
  3  4  2  0
  3  5  1  0
  5  6  1  0
  6  7  1  0
  6  8  1  0
  8  9  1  1
  8 11  1  0
  9 10  1  0
 11 12  1  0
 11 13  1  0
M  END
