
     RDKit          3D

 13 13  0  0  0  0  0  0  0  0999 V2000
   -2.9980   -1.5990    0.8790 O   0  0  0  0  0  0  0  0  0  0  0  0
   -1.7030   -1.2960    0.8600 O   0  0  0  0  0  0  0  0  0  0  0  0
   -1.4930   -0.5820   -0.2470 N   0  0  0  0  0  0  0  0  0  0  0  0
   -1.7220   -1.2380   -1.3900 O   0  0  0  0  0  0  0  0  0  0  0  0
   -0.7480   -1.0240   -2.2080 O   0  0  0  0  0  0  0  0  0  0  0  0
    0.0020   -0.0710   -1.7650 O   0  0  0  0  0  0  0  0  0  0  0  0
   -0.1480   -0.0740   -0.3610 C   0  0  1  0  0  0  0  0  0  0  0  0
   -0.1030    1.6220    0.3460 P   0  0  0  0  0  0  0  0  0  0  0  0
    1.4520    2.1130    0.8560 O   0  0  0  0  0  0  0  0  0  0  0  0
   -0.8290    2.7080   -0.7850 O   0  0  0  0  0  0  0  0  0  0  0  0
    1.1090   -1.1790    0.4190 P   0  0  0  0  0  0  0  0  0  0  0  0
    2.0740   -0.2500    1.5160 O   0  0  0  0  0  0  0  0  0  0  0  0
    2.1640   -1.8930   -0.7700 O   0  0  0  0  0  0  0  0  0  0  0  0
  1  2  1  0
  2  3  1  0
  3  4  1  0
  3  7  1  0
  4  5  1  0
  5  6  1  0
  6  7  1  0
  7  8  1  1
  7 11  1  0
  8  9  1  0
  8 10  1  0
 11 12  1  0
 11 13  1  0
M  END
