
     RDKit          3D

 13 13  0  0  0  0  0  0  0  0999 V2000
    3.6350    0.5440   -0.2680 O   0  0  0  0  0  0  0  0  0  0  0  0
    2.6150   -0.1840   -0.8080 N   0  0  0  0  0  0  0  0  0  0  0  0
    2.0970   -0.9770    0.1410 O   0  0  0  0  0  0  0  0  0  0  0  0
    0.8480   -0.1370    0.9900 P   0  0  0  0  0  0  0  0  0  0  0  0
    0.8680   -0.5230    2.6640 O   0  0  0  0  0  0  0  0  0  0  0  0
   -0.7660   -0.4560    0.1990 C   0  0  1  0  0  0  0  0  0  0  0  0
   -1.9460    0.9510    0.3070 P   0  0  0  0  0  0  0  0  0  0  0  0
   -1.1130    2.4310    0.5760 O   0  0  0  0  0  0  0  0  0  0  0  0
   -3.0030    1.0350   -1.0690 O   0  0  0  0  0  0  0  0  0  0  0  0
   -0.5960   -0.8410   -1.1490 O   0  0  0  0  0  0  0  0  0  0  0  0
   -1.7840   -1.3680   -1.3820 O   0  0  0  0  0  0  0  0  0  0  0  0
   -2.2080   -1.9040   -0.2880 O   0  0  0  0  0  0  0  0  0  0  0  0
   -1.4100   -1.6010    0.6870 O   0  0  0  0  0  0  0  0  0  0  0  0
  1  2  1  0
  2  3  1  0
  3  4  1  0
  4  5  1  0
  6  4  1  1
  6  7  1  0
  6 10  1  0
  6 13  1  0
  7  8  1  0
  7  9  1  0
 10 11  1  0
 11 12  1  0
 12 13  1  0
M  END
