
     RDKit          3D

 18 17  0  0  0  0  0  0  0  0999 V2000
    0.9040   -1.4890    1.9230 O   0  0  0  0  0  0  0  0  0  0  0  0
    1.4050   -0.8770    1.0060 C   0  0  0  0  0  0  0  0  0  0  0  0
    2.9290   -0.5540    1.1590 C   0  0  0  0  0  0  0  0  0  0  0  0
    3.2320    0.0760    0.0030 O   0  0  0  0  0  0  0  0  0  0  0  0
    4.7870    0.4500   -0.2320 P   0  0  0  0  0  0  0  0  0  0  0  0
    4.8580   -0.5540   -1.4070 O   0  0  0  0  0  0  0  0  0  0  0  0
    6.0720   -0.3240    0.5090 O   0  0  0  0  0  0  0  0  0  0  0  0
    5.1670    1.7290   -1.1960 O   0  0  0  0  0  0  0  0  0  0  0  0
    0.7960   -0.4460   -0.1570 N   0  0  0  0  0  0  0  0  0  0  0  0
    1.5900    0.3850   -1.0340 O   0  0  0  0  0  0  0  0  0  0  0  0
   -0.4560   -0.6830   -0.7720 C   0  0  0  0  0  0  0  0  0  0  0  0
   -1.6000    0.1330   -0.5160 C   0  0  0  0  0  0  0  0  0  0  0  0
   -2.4330   -0.1270    0.7310 C   0  0  0  0  0  0  0  0  0  0  0  0
   -3.4160    0.9090    0.6390 O   0  0  0  0  0  0  0  0  0  0  0  0
   -4.9050    0.4560    0.2480 P   0  0  0  0  0  0  0  0  0  0  0  0
   -4.8530   -0.9020    0.9060 O   0  0  0  0  0  0  0  0  0  0  0  0
   -5.1070    1.7720   -0.6060 O   0  0  0  0  0  0  0  0  0  0  0  0
   -6.2380    0.9010    1.0930 O   0  0  0  0  0  0  0  0  0  0  0  0
  1  2  2  0
  2  3  1  0
  2  9  1  0
  3  4  1  0
  4  5  1  0
  5  6  1  0
  5  7  1  0
  5  8  1  0
  9 10  1  0
  9 11  1  0
 11 12  1  0
 12 13  1  0
 13 14  1  0
 14 15  1  0
 15 16  1  0
 15 17  1  0
 15 18  1  0
M  END
