
     RDKit          3D

 13 13  0  0  0  0  0  0  0  0999 V2000
   -1.7630   -1.9140   -1.7770 O   0  0  0  0  0  0  0  0  0  0  0  0
   -1.3710   -2.0010   -0.5530 O   0  0  0  0  0  0  0  0  0  0  0  0
   -0.8640   -0.8690   -0.0090 C   0  0  2  0  0  0  0  0  0  0  0  0
    0.2790   -0.3030   -0.6260 N   0  0  0  0  0  0  0  0  0  0  0  0
    1.3540   -1.0820   -0.6670 O   0  0  0  0  0  0  0  0  0  0  0  0
    2.7640   -0.0740   -0.5040 P   0  0  0  0  0  0  0  0  0  0  0  0
    2.5040    1.4660   -1.2490 O   0  0  0  0  0  0  0  0  0  0  0  0
    3.1020    0.1970    1.1910 O   0  0  0  0  0  0  0  0  0  0  0  0
   -0.5850   -1.0690    1.3640 O   0  0  0  0  0  0  0  0  0  0  0  0
   -1.6870   -0.9550    2.0130 O   0  0  0  0  0  0  0  0  0  0  0  0
   -2.0860    0.3230    1.9920 O   0  0  0  0  0  0  0  0  0  0  0  0
   -2.1710    0.4740    0.2300 P   0  0  0  0  0  0  0  0  0  0  0  0
   -1.5010    2.0170   -0.2550 O   0  0  0  0  0  0  0  0  0  0  0  0
  1  2  1  0
  2  3  1  0
  3  4  1  6
  3  9  1  0
  3 12  1  0
  4  5  1  0
  5  6  1  0
  6  7  1  0
  6  8  1  0
  9 10  1  0
 10 11  1  0
 11 12  1  0
 12 13  1  0
M  END
