
     RDKit          3D

 13 12  0  0  0  0  0  0  0  0999 V2000
   -1.9620   -1.2150    2.0250 O   0  0  0  0  0  0  0  0  0  0  0  0
   -2.3650   -1.3940    0.7760 O   0  0  0  0  0  0  0  0  0  0  0  0
   -1.2760   -1.3430   -0.0190 N   0  0  0  0  0  0  0  0  0  0  0  0
   -0.7900    0.0310   -0.0890 C   0  0  1  0  0  0  0  0  0  0  0  0
    0.3400   -0.0020   -0.9310 O   0  0  0  0  0  0  0  0  0  0  0  0
    1.3670    0.4350   -0.2590 O   0  0  0  0  0  0  0  0  0  0  0  0
    2.5320   -0.8080    0.0410 P   0  0  0  0  0  0  0  0  0  0  0  0
    3.0720   -1.4550   -1.4670 O   0  0  0  0  0  0  0  0  0  0  0  0
    3.8340   -0.1600    0.9710 O   0  0  0  0  0  0  0  0  0  0  0  0
    3.3900    0.9060    1.5970 O   0  0  0  0  0  0  0  0  0  0  0  0
   -2.1150    1.0400   -0.8920 P   0  0  0  0  0  0  0  0  0  0  0  0
   -2.8030    2.2030    0.1720 O   0  0  0  0  0  0  0  0  0  0  0  0
   -1.6130    1.7260   -2.3920 O   0  0  0  0  0  0  0  0  0  0  0  0
  1  2  1  0
  2  3  1  0
  4  3  1  6
  4  5  1  0
  4 11  1  0
  5  6  1  0
  6  7  1  0
  7  8  1  0
  7  9  1  0
  9 10  1  0
 11 12  1  0
 11 13  1  0
M  END
