
     RDKit          3D

 24 26  0  0  0  0  0  0  0  0999 V2000
    7.3440   -0.0240    1.3470 C   0  0  0  0  0  0  0  0  0  0  0  0
    6.3800   -0.5850    0.6880 C   0  0  0  0  0  0  0  0  0  0  0  0
    5.6980   -0.0610   -0.4400 N   0  0  0  0  0  0  0  0  0  0  0  0
    6.4550    0.3310   -1.5890 C   0  0  0  0  0  0  0  0  0  0  0  0
    4.2740    0.0360   -0.3660 C   0  0  0  0  0  0  0  0  0  0  0  0
    3.5860   -0.3290    0.7800 C   0  0  0  0  0  0  0  0  0  0  0  0
    2.2090   -0.2520    0.8630 C   0  0  0  0  0  0  0  0  0  0  0  0
    1.4660    0.1900   -0.1960 C   0  0  0  0  0  0  0  0  0  0  0  0
    0.0180    0.2890   -0.2420 C   0  0  0  0  0  0  0  0  0  0  0  0
   -0.8330   -0.6010    0.2130 C   0  0  0  0  0  0  0  0  0  0  0  0
   -0.3270   -1.8350    0.8360 C   0  0  0  0  0  0  0  0  0  0  0  0
   -1.1740   -2.9220    0.6100 O   0  0  0  0  0  0  0  0  0  0  0  0
   -2.0350   -2.6910   -0.4570 C   0  0  0  0  0  0  0  0  0  0  0  0
   -3.0400   -1.5780   -0.1390 C   0  0  0  0  0  0  0  0  0  0  0  0
   -2.2330   -0.3870    0.0950 N   0  0  0  0  0  0  0  0  0  0  0  0
   -2.8100    0.9340    0.2000 C   0  0  1  0  0  0  0  0  0  0  0  0
   -3.4850    1.3070   -1.0950 C   0  0  0  0  0  0  0  0  0  0  0  0
   -4.8390    1.9340   -0.8870 C   0  0  0  0  0  0  0  0  0  0  0  0
   -5.6940    0.9300   -0.1580 C   0  0  2  0  0  0  0  0  0  0  0  0
   -6.9730    1.4430   -0.0680 F   0  0  0  0  0  0  0  0  0  0  0  0
   -5.1260    0.6990    1.1910 C   0  0  0  0  0  0  0  0  0  0  0  0
   -3.7090    1.0770    1.3950 C   0  0  0  0  0  0  0  0  0  0  0  0
    2.1450    0.5650   -1.3670 C   0  0  0  0  0  0  0  0  0  0  0  0
    3.5250    0.4820   -1.4290 C   0  0  0  0  0  0  0  0  0  0  0  0
  1  2  2  0
  2  3  1  0
  3  4  1  0
  3  5  1  0
  5  6  2  0
  5 24  1  0
  6  7  1  0
  7  8  2  0
  8  9  1  0
  8 23  1  0
  9 10  2  3
 10 11  1  0
 10 15  1  0
 11 12  1  0
 12 13  1  0
 13 14  1  0
 14 15  1  0
 16 15  1  6
 16 17  1  0
 16 22  1  0
 17 18  1  0
 18 19  1  0
 19 20  1  1
 19 21  1  0
 21 22  1  0
 23 24  2  0
M  END
