
     RDKit          3D

 23 26  0  0  0  0  0  0  0  0999 V2000
   -6.0160    0.5280    0.6210 C   0  0  0  0  0  0  0  0  0  0  0  0
   -5.3600   -0.6470   -0.0740 C   0  0  0  0  0  0  0  0  0  0  0  0
   -3.8760   -0.5590    0.0190 C   0  0  0  0  0  0  0  0  0  0  0  0
   -3.1680   -1.3470    0.9000 C   0  0  0  0  0  0  0  0  0  0  0  0
   -1.7870   -1.2400    0.9660 C   0  0  0  0  0  0  0  0  0  0  0  0
   -1.1920   -0.3360    0.1330 C   0  0  0  0  0  0  0  0  0  0  0  0
   -1.9010    0.4550   -0.7500 C   0  0  0  0  0  0  0  0  0  0  0  0
   -3.2750    0.3600   -0.8280 C   0  0  0  0  0  0  0  0  0  0  0  0
   -4.0470    1.2110   -1.7780 C   0  0  0  0  0  0  0  0  0  0  0  0
    0.2380   -0.4210    0.3900 N   0  0  0  0  0  0  0  0  0  0  0  0
    1.1430    0.6270    0.0650 C   0  0  0  0  0  0  0  0  0  0  0  0
    2.5750    0.2920    0.0260 C   0  0  0  0  0  0  0  0  0  0  0  0
    3.2900   -0.8670    0.1690 C   0  0  0  0  0  0  0  0  0  0  0  0
    4.6270   -0.6170    0.0020 N   0  0  0  0  0  0  0  0  0  0  0  0
    5.6530   -1.6490    0.0950 C   0  0  0  0  0  0  0  0  0  0  0  0
    4.8040    0.6810   -0.2480 C   0  0  0  0  0  0  0  0  0  0  0  0
    3.5740    1.2710   -0.2420 C   0  0  0  0  0  0  0  0  0  0  0  0
    3.7780    2.6680   -0.5130 C   0  0  0  0  0  0  0  0  0  0  0  0
    2.8700    3.5470   -0.5890 O   0  0  0  0  0  0  0  0  0  0  0  0
    5.2240    2.8910   -0.6850 C   0  0  0  0  0  0  0  0  0  0  0  0
    5.8000    1.7160   -0.5260 C   0  0  0  0  0  0  0  0  0  0  0  0
    0.5040   -1.6730    1.0380 C   0  0  0  0  0  0  0  0  0  0  0  0
   -0.8060   -1.9510    1.8140 C   0  0  0  0  0  0  0  0  0  0  0  0
  1  2  1  0
  2  3  1  0
  3  4  2  0
  3  8  1  0
  4  5  1  0
  5  6  2  0
  5 23  1  0
  6  7  1  0
  6 10  1  0
  7  8  2  0
  8  9  1  0
 10 11  1  0
 10 22  1  0
 11 12  1  0
 12 13  2  0
 12 17  1  0
 13 14  1  0
 14 15  1  0
 14 16  1  0
 16 17  2  0
 16 21  1  0
 17 18  1  0
 18 19  2  0
 18 20  1  0
 20 21  2  0
 22 23  1  0
M  END
