
     RDKit          3D

 23 25  0  0  0  0  0  0  0  0999 V2000
    6.9340    0.1980   -1.2170 C   0  0  0  0  0  0  0  0  0  0  0  0
    5.9370    0.3910   -0.1180 C   0  0  1  0  0  0  0  0  0  0  0  0
    5.1650    1.6720   -0.2060 C   0  0  0  0  0  0  0  0  0  0  0  0
    4.9580   -0.7900   -0.1020 C   0  0  1  0  0  0  0  0  0  0  0  0
    4.0360   -0.5470    0.9640 N   0  0  0  0  0  0  0  0  0  0  0  0
    2.6530   -0.3490    0.6990 C   0  0  0  0  0  0  0  0  0  0  0  0
    1.7910   -0.0410    1.7530 C   0  0  0  0  0  0  0  0  0  0  0  0
    0.4400    0.1610    1.5580 C   0  0  0  0  0  0  0  0  0  0  0  0
   -0.1300    0.0690    0.3060 C   0  0  0  0  0  0  0  0  0  0  0  0
   -1.5410    0.2810    0.1120 N   0  0  0  0  0  0  0  0  0  0  0  0
   -2.4190    0.5980    1.2030 C   0  0  0  0  0  0  0  0  0  0  0  0
   -3.8250    0.7010    0.6770 C   0  0  0  0  0  0  0  0  0  0  0  0
   -4.2280   -0.6280    0.0920 C   0  0  0  0  0  0  0  0  0  0  0  0
   -5.6290   -0.5060   -0.4220 C   0  0  0  0  0  0  0  0  0  0  0  0
   -6.0180   -0.6870   -1.6650 C   0  0  0  0  0  0  0  0  0  0  0  0
   -7.4730   -0.4670   -1.7180 C   0  0  0  0  0  0  0  0  0  0  0  0
   -7.8280   -0.1390   -0.3190 C   0  0  0  0  0  0  0  0  0  0  0  0
   -6.7510   -0.1620    0.4380 C   0  0  0  0  0  0  0  0  0  0  0  0
    0.7080   -0.2340   -0.7400 C   0  0  0  0  0  0  0  0  0  0  0  0
    2.0760   -0.4390   -0.5470 C   0  0  0  0  0  0  0  0  0  0  0  0
    2.9280   -0.7510   -1.6380 N   0  0  0  0  0  0  0  0  0  0  0  0
    4.3170   -0.9570   -1.4230 C   0  0  0  0  0  0  0  0  0  0  0  0
    5.0860   -1.3010   -2.3760 O   0  0  0  0  0  0  0  0  0  0  0  0
  2  1  1  6
  2  3  1  0
  2  4  1  0
  4  5  1  1
  4 22  1  0
  5  6  1  0
  6  7  2  0
  6 20  1  0
  7  8  1  0
  8  9  2  0
  9 10  1  0
  9 19  1  0
 10 11  1  0
 11 12  1  0
 12 13  1  0
 13 14  1  0
 14 15  2  0
 14 18  1  0
 15 16  1  0
 16 17  1  0
 17 18  2  0
 19 20  2  0
 20 21  1  0
 21 22  1  0
 22 23  2  0
M  END
