
     RDKit          3D

 23 25  0  0  0  0  0  0  0  0999 V2000
   -5.1430    2.4540    0.1080 C   0  0  0  0  0  0  0  0  0  0  0  0
   -4.7700    1.0220    0.2760 C   0  0  0  0  0  0  0  0  0  0  0  0
   -5.6560    0.0970    0.7880 C   0  0  0  0  0  0  0  0  0  0  0  0
   -5.2910   -1.2250    0.9340 C   0  0  0  0  0  0  0  0  0  0  0  0
   -6.1970   -2.1130    1.4460 F   0  0  0  0  0  0  0  0  0  0  0  0
   -4.0250   -1.6540    0.5690 C   0  0  0  0  0  0  0  0  0  0  0  0
   -3.1070   -0.7470    0.0490 C   0  0  0  0  0  0  0  0  0  0  0  0
   -3.5070    0.5420   -0.0770 C   0  0  0  0  0  0  0  0  0  0  0  0
   -2.5330    1.5450   -0.6270 C   0  0  0  0  0  0  0  0  0  0  0  0
   -1.1850    1.1020   -0.0270 C   0  0  0  0  0  0  0  0  0  0  0  0
   -0.8040   -0.1620   -0.5270 N   0  0  0  0  0  0  0  0  0  0  0  0
    0.4860   -0.5850   -0.0780 C   0  0  1  0  0  0  0  0  0  0  0  0
    0.4820   -0.7160    1.4020 C   0  0  0  0  0  0  0  0  0  0  0  0
    0.6500   -2.0260   -0.6250 C   0  0  0  0  0  0  0  0  0  0  0  0
    1.5830    0.1790   -0.6710 C   0  0  0  0  0  0  0  0  0  0  0  0
    1.2280    1.0920   -1.5020 O   0  0  0  0  0  0  0  0  0  0  0  0
    2.9630    0.0530   -0.4600 N   0  0  0  0  0  0  0  0  0  0  0  0
    3.4810   -0.9470    0.4300 C   0  0  0  0  0  0  0  0  0  0  0  0
    4.5240   -0.2340    1.3090 C   0  0  0  0  0  0  0  0  0  0  0  0
    5.6620    0.0670    0.3610 C   0  0  0  0  0  0  0  0  0  0  0  0
    5.2640    0.9460   -0.7640 C   0  0  0  0  0  0  0  0  0  0  0  0
    3.8490    0.9620   -1.1690 C   0  0  0  0  0  0  0  0  0  0  0  0
   -1.7510   -1.2110   -0.3510 C   0  0  0  0  0  0  0  0  0  0  0  0
  1  2  1  0
  2  3  2  0
  2  8  1  0
  3  4  1  0
  4  5  1  0
  4  6  2  0
  6  7  1  0
  7  8  2  0
  7 23  1  0
  8  9  1  0
  9 10  1  0
 10 11  1  0
 11 12  1  0
 11 23  1  0
 12 13  1  1
 12 14  1  0
 12 15  1  0
 15 16  2  0
 15 17  1  0
 17 18  1  0
 17 22  1  0
 18 19  1  0
 19 20  1  0
 20 21  1  0
 21 22  1  0
M  END
