
     RDKit          3D

 17 18  0  0  0  0  0  0  0  0999 V2000
   -4.4370   -0.8400    1.5070 O   0  0  0  0  0  0  0  0  0  0  0  0
   -3.2680   -0.6480    1.8950 N   0  0  0  0  0  0  0  0  0  0  0  0
   -3.0520   -0.2780    3.2060 O   0  0  0  0  0  0  0  0  0  0  0  0
   -2.2320   -0.8170    0.9810 N   0  0  0  0  0  0  0  0  0  0  0  0
   -1.9370    0.2200    0.0460 C   0  0  0  0  0  0  0  0  0  0  0  0
   -2.6180    1.3970   -0.0530 N   0  0  0  0  0  0  0  0  0  0  0  0
   -2.0960    2.1500   -1.0340 C   0  0  0  0  0  0  0  0  0  0  0  0
   -1.0640    1.4270   -1.5630 C   0  0  0  0  0  0  0  0  0  0  0  0
   -0.9880    0.2630   -0.8930 N   0  0  0  0  0  0  0  0  0  0  0  0
   -0.0110   -0.7980   -1.1330 C   0  0  0  0  0  0  0  0  0  0  0  0
    1.2360   -0.6030   -0.3600 C   0  0  0  0  0  0  0  0  0  0  0  0
    2.2450    0.1770   -0.8900 C   0  0  0  0  0  0  0  0  0  0  0  0
    3.3970    0.3410   -0.1530 C   0  0  0  0  0  0  0  0  0  0  0  0
    3.5780   -0.2410    1.0850 C   0  0  0  0  0  0  0  0  0  0  0  0
    5.0700    0.0110    1.9650 Cl  0  0  0  0  0  0  0  0  0  0  0  0
    2.5790   -0.9810    1.5510 N   0  0  0  0  0  0  0  0  0  0  0  0
    1.4140   -1.1830    0.8710 C   0  0  0  0  0  0  0  0  0  0  0  0
  1  2  2  0
  2  3  1  0
  2  4  1  0
  4  5  1  0
  5  6  2  0
  5  9  1  0
  6  7  1  0
  7  8  2  0
  8  9  1  0
  9 10  1  0
 10 11  1  0
 11 12  2  0
 11 17  1  0
 12 13  1  0
 13 14  2  0
 14 15  1  0
 14 16  1  0
 16 17  2  0
M  CHG  2   2   1   3  -1
M  END
