
     RDKit          3D

 25 28  0  0  0  0  0  0  0  0999 V2000
   -4.8510    2.0520   -1.1890 C   0  0  0  0  0  0  0  0  0  0  0  0
   -3.9160    1.0550   -0.6010 C   0  0  0  0  0  0  0  0  0  0  0  0
   -3.1780    1.3040    0.5530 C   0  0  0  0  0  0  0  0  0  0  0  0
   -2.4400    0.1620    0.7800 C   0  0  0  0  0  0  0  0  0  0  0  0
   -1.5030   -0.0270    1.9150 C   0  0  0  0  0  0  0  0  0  0  0  0
   -2.7030   -0.7420   -0.1750 N   0  0  0  0  0  0  0  0  0  0  0  0
   -2.1900   -2.0540   -0.3550 C   0  0  0  0  0  0  0  0  0  0  0  0
   -3.0100   -3.1420   -0.3420 N   0  0  0  0  0  0  0  0  0  0  0  0
   -2.5160   -4.3840   -0.5120 C   0  0  0  0  0  0  0  0  0  0  0  0
   -1.1630   -4.5830   -0.7040 C   0  0  0  0  0  0  0  0  0  0  0  0
   -0.2930   -3.5190   -0.7260 C   0  0  0  0  0  0  0  0  0  0  0  0
   -0.8430   -2.2400   -0.5460 C   0  0  0  0  0  0  0  0  0  0  0  0
    0.0200   -1.0620   -0.5600 C   0  0  0  0  0  0  0  0  0  0  0  0
   -0.1680    0.1270   -1.2200 C   0  0  0  0  0  0  0  0  0  0  0  0
    0.9300    0.9430   -0.9260 C   0  0  0  0  0  0  0  0  0  0  0  0
    1.0870    2.3180   -1.4600 C   0  0  0  0  0  0  0  0  0  0  0  0
    1.7660    0.2790   -0.1110 N   0  0  0  0  0  0  0  0  0  0  0  0
    3.0070    0.7780    0.4160 C   0  0  0  0  0  0  0  0  0  0  0  0
    3.0940    1.9210    1.1550 C   0  0  0  0  0  0  0  0  0  0  0  0
    4.3220    2.3150    1.6140 C   0  0  0  0  0  0  0  0  0  0  0  0
    5.4760    1.5690    1.3360 C   0  0  0  0  0  0  0  0  0  0  0  0
    5.3870    0.4200    0.5930 C   0  0  0  0  0  0  0  0  0  0  0  0
    4.1490    0.0250    0.1320 C   0  0  0  0  0  0  0  0  0  0  0  0
    1.2180   -0.9270    0.1080 C   0  0  0  0  0  0  0  0  0  0  0  0
   -3.6010   -0.1680   -0.9950 N   0  0  0  0  0  0  0  0  0  0  0  0
  1  2  1  0
  2  3  1  0
  2 25  2  0
  3  4  2  0
  4  5  1  0
  4  6  1  0
  6  7  1  0
  6 25  1  0
  7  8  2  0
  7 12  1  0
  8  9  1  0
  9 10  2  0
 10 11  1  0
 11 12  2  0
 12 13  1  0
 13 14  1  0
 13 24  2  0
 14 15  2  0
 15 16  1  0
 15 17  1  0
 17 18  1  0
 17 24  1  0
 18 19  2  0
 18 23  1  0
 19 20  1  0
 20 21  2  0
 21 22  1  0
 22 23  2  0
M  END
