
     RDKit          3D

 25 28  0  0  0  0  0  0  0  0999 V2000
   -4.7400   -3.2990    0.2830 C   0  0  0  0  0  0  0  0  0  0  0  0
   -4.7750   -2.0130   -0.1170 C   0  0  0  0  0  0  0  0  0  0  0  0
   -5.7450   -1.1290    0.5720 C   0  0  0  0  0  0  0  0  0  0  0  0
   -3.8820   -1.6500   -1.2060 C   0  0  0  0  0  0  0  0  0  0  0  0
   -2.8900   -0.6400   -0.7920 N   0  0  0  0  0  0  0  0  0  0  0  0
   -3.3180    0.6870   -0.4930 C   0  0  0  0  0  0  0  0  0  0  0  0
   -2.2090    1.5780   -0.1680 C   0  0  0  0  0  0  0  0  0  0  0  0
   -0.9670    1.1740   -0.1360 C   0  0  0  0  0  0  0  0  0  0  0  0
   -0.5950   -0.2020   -0.4280 C   0  0  0  0  0  0  0  0  0  0  0  0
   -1.5450   -0.9940   -0.7250 N   0  0  0  0  0  0  0  0  0  0  0  0
    0.8680   -0.2580   -0.2850 C   0  0  0  0  0  0  0  0  0  0  0  0
    1.5750   -1.3390   -0.4980 C   0  0  0  0  0  0  0  0  0  0  0  0
    3.0110   -1.4330   -0.3620 C   0  0  0  0  0  0  0  0  0  0  0  0
    3.7410   -1.9760   -1.4190 C   0  0  0  0  0  0  0  0  0  0  0  0
    5.0920   -2.1210   -1.3520 C   0  0  0  0  0  0  0  0  0  0  0  0
    5.7830   -1.7240   -0.2090 C   0  0  0  0  0  0  0  0  0  0  0  0
    5.0410   -1.2110    0.7760 N   0  0  0  0  0  0  0  0  0  0  0  0
    3.7070   -1.0540    0.7430 C   0  0  0  0  0  0  0  0  0  0  0  0
    1.3210    1.0770    0.0850 C   0  0  0  0  0  0  0  0  0  0  0  0
    2.5280    1.6090    0.3340 N   0  0  0  0  0  0  0  0  0  0  0  0
    2.7460    2.8870    0.6570 C   0  0  0  0  0  0  0  0  0  0  0  0
    4.1560    3.3530    0.9140 C   0  0  0  0  0  0  0  0  0  0  0  0
    1.6830    3.7580    0.7540 C   0  0  0  0  0  0  0  0  0  0  0  0
    0.4200    3.2740    0.5100 C   0  0  0  0  0  0  0  0  0  0  0  0
    0.2470    1.9480    0.1800 C   0  0  0  0  0  0  0  0  0  0  0  0
  1  2  2  0
  2  3  1  0
  2  4  1  0
  4  5  1  0
  5  6  1  0
  5 10  1  0
  6  7  1  0
  7  8  2  0
  8  9  1  0
  8 25  1  0
  9 10  2  0
  9 11  1  0
 11 12  2  3
 11 19  1  0
 12 13  1  0
 13 14  2  0
 13 18  1  0
 14 15  1  0
 15 16  2  0
 16 17  1  0
 17 18  2  0
 19 20  2  0
 19 25  1  0
 20 21  1  0
 21 22  1  0
 21 23  2  0
 23 24  1  0
 24 25  2  0
M  END
