
     RDKit          3D

 25 28  0  0  0  0  0  0  0  0999 V2000
   -4.6260   -2.5290    0.2290 C   0  0  0  0  0  0  0  0  0  0  0  0
   -3.9100   -1.4520   -0.5310 C   0  0  2  0  0  0  0  0  0  0  0  0
   -3.9790   -1.7200   -2.0020 C   0  0  0  0  0  0  0  0  0  0  0  0
   -2.5580   -1.2950   -0.0490 N   0  0  0  0  0  0  0  0  0  0  0  0
   -1.7350   -2.4120   -0.2040 C   0  0  0  0  0  0  0  0  0  0  0  0
   -0.5430   -2.2400   -1.0710 C   0  0  0  0  0  0  0  0  0  0  0  0
    0.1770   -1.0210   -0.5180 C   0  0  0  0  0  0  0  0  0  0  0  0
    1.4870   -1.0460   -0.3600 N   0  0  0  0  0  0  0  0  0  0  0  0
    2.1390    0.0240    0.1000 C   0  0  0  0  0  0  0  0  0  0  0  0
    3.6030   -0.0130    0.2710 C   0  0  0  0  0  0  0  0  0  0  0  0
    4.4200    0.9810    0.7280 C   0  0  0  0  0  0  0  0  0  0  0  0
    5.7170    0.4970    0.7160 C   0  0  0  0  0  0  0  0  0  0  0  0
    5.7010   -0.7590    0.2640 N   0  0  0  0  0  0  0  0  0  0  0  0
    6.8490   -1.6520    0.0860 C   0  0  0  0  0  0  0  0  0  0  0  0
    4.4230   -1.0780   -0.0090 C   0  0  0  0  0  0  0  0  0  0  0  0
    1.4370    1.1490    0.4040 C   0  0  0  0  0  0  0  0  0  0  0  0
    0.0250    1.2250    0.2480 C   0  0  0  0  0  0  0  0  0  0  0  0
   -0.6100    2.4700    0.6140 C   0  0  0  0  0  0  0  0  0  0  0  0
   -1.7480    2.9720    0.0840 C   0  0  0  0  0  0  0  0  0  0  0  0
   -2.2520    4.2380    0.4560 C   0  0  0  0  0  0  0  0  0  0  0  0
   -1.5660    4.9820    1.3800 C   0  0  0  0  0  0  0  0  0  0  0  0
   -0.4130    4.4530    1.9020 C   0  0  0  0  0  0  0  0  0  0  0  0
    0.0330    3.2560    1.5300 N   0  0  0  0  0  0  0  0  0  0  0  0
   -0.5740    0.0850   -0.2240 C   0  0  0  0  0  0  0  0  0  0  0  0
   -2.0280    0.0120   -0.3420 C   0  0  0  0  0  0  0  0  0  0  0  0
  2  1  1  1
  2  3  1  0
  2  4  1  0
  4  5  1  0
  4 25  1  0
  5  6  1  0
  6  7  1  0
  7  8  2  0
  7 24  1  0
  8  9  1  0
  9 10  1  0
  9 16  2  0
 10 11  1  0
 10 15  2  0
 11 12  2  0
 12 13  1  0
 13 14  1  0
 13 15  1  0
 16 17  1  0
 17 18  1  0
 17 24  2  0
 18 19  2  0
 18 23  1  0
 19 20  1  0
 20 21  2  0
 21 22  1  0
 22 23  2  0
 24 25  1  0
M  END
