
     RDKit          3D

 25 28  0  0  0  0  0  0  0  0999 V2000
   -5.8090    2.5420    1.7650 C   0  0  0  0  0  0  0  0  0  0  0  0
   -6.2780    1.8960    0.7380 C   0  0  0  0  0  0  0  0  0  0  0  0
   -5.5960    0.9820   -0.1390 C   0  0  0  0  0  0  0  0  0  0  0  0
   -6.2780    0.4080   -1.1290 C   0  0  0  0  0  0  0  0  0  0  0  0
   -4.1900    0.6350    0.0110 C   0  0  0  0  0  0  0  0  0  0  0  0
   -3.8470   -0.7140   -0.1540 C   0  0  0  0  0  0  0  0  0  0  0  0
   -2.5430   -1.0810   -0.0580 C   0  0  0  0  0  0  0  0  0  0  0  0
   -1.4900   -0.1810    0.2020 C   0  0  0  0  0  0  0  0  0  0  0  0
   -0.1900   -0.7770    0.3970 C   0  0  0  0  0  0  0  0  0  0  0  0
   -0.0100   -1.9590    1.0940 N   0  0  0  0  0  0  0  0  0  0  0  0
    1.2370   -2.3060    1.0950 N   0  0  0  0  0  0  0  0  0  0  0  0
    1.9100   -1.3870    0.4100 C   0  0  0  0  0  0  0  0  0  0  0  0
    3.2360   -1.3280    0.1170 C   0  0  0  0  0  0  0  0  0  0  0  0
    4.1520   -2.2830    0.5580 C   0  0  0  0  0  0  0  0  0  0  0  0
    5.4980   -2.2220    0.2620 C   0  0  0  0  0  0  0  0  0  0  0  0
    5.9840   -1.1830   -0.5010 C   0  0  0  0  0  0  0  0  0  0  0  0
    7.4290   -1.1240   -0.8150 C   0  0  0  0  0  0  0  0  0  0  0  0
    5.0960   -0.2330   -0.9460 C   0  0  0  0  0  0  0  0  0  0  0  0
    3.7450   -0.2890   -0.6510 C   0  0  0  0  0  0  0  0  0  0  0  0
    2.8470    0.6080   -1.0620 N   0  0  0  0  0  0  0  0  0  0  0  0
    1.5230    0.5550   -0.7730 C   0  0  0  0  0  0  0  0  0  0  0  0
    0.6300    1.5560   -1.3910 C   0  0  0  0  0  0  0  0  0  0  0  0
    1.0220   -0.4420   -0.0240 N   0  0  0  0  0  0  0  0  0  0  0  0
   -1.8720    1.1130    0.3560 C   0  0  0  0  0  0  0  0  0  0  0  0
   -3.1850    1.5270    0.2650 C   0  0  0  0  0  0  0  0  0  0  0  0
  1  2  2  0
  2  3  1  0
  3  4  2  0
  3  5  1  0
  5  6  2  0
  5 25  1  0
  6  7  1  0
  7  8  2  0
  8  9  1  0
  8 24  1  0
  9 10  2  0
  9 23  1  0
 10 11  1  0
 11 12  2  0
 12 13  1  0
 12 23  1  0
 13 14  2  0
 13 19  1  0
 14 15  1  0
 15 16  2  0
 16 17  1  0
 16 18  1  0
 18 19  2  0
 19 20  1  0
 20 21  2  0
 21 22  1  0
 21 23  1  0
 24 25  2  0
M  END
