
     RDKit          3D

 16 17  0  0  0  0  0  0  0  0999 V2000
   -0.6090   -2.5400    1.6940 C   0  0  0  0  0  0  0  0  0  0  0  0
    0.3330   -1.7410    0.8840 C   0  0  0  0  0  0  0  0  0  0  0  0
    1.6430   -2.1340    0.7250 N   0  0  0  0  0  0  0  0  0  0  0  0
    2.1910   -1.2210   -0.0410 N   0  0  0  0  0  0  0  0  0  0  0  0
    1.2780   -0.2640   -0.3740 C   0  0  0  0  0  0  0  0  0  0  0  0
    1.7100    1.1220   -1.3980 S   0  0  0  0  0  0  0  0  0  0  0  0
    3.4390    1.0800   -1.9010 C   0  0  0  0  0  0  0  0  0  0  0  0
    4.2490    1.2490   -0.6770 C   0  0  0  0  0  0  0  0  0  0  0  0
    4.8730    1.3990    0.2780 N   0  0  0  0  0  0  0  0  0  0  0  0
    0.1180   -0.6070    0.2160 N   0  0  0  0  0  0  0  0  0  0  0  0
   -1.0910    0.1590    0.1290 C   0  0  0  0  0  0  0  0  0  0  0  0
   -2.2250   -0.0790    0.7560 C   0  0  0  0  0  0  0  0  0  0  0  0
   -3.2070    0.9620    0.3720 C   0  0  0  0  0  0  0  0  0  0  0  0
   -2.4960    1.8210   -0.5620 C   0  0  0  0  0  0  0  0  0  0  0  0
   -3.2170    3.2250   -1.3370 Cl  0  0  0  0  0  0  0  0  0  0  0  0
   -1.2760    1.3520   -0.6950 C   0  0  0  0  0  0  0  0  0  0  0  0
  1  2  1  0
  2  3  2  0
  2 10  1  0
  3  4  1  0
  4  5  2  0
  5  6  1  0
  5 10  1  0
  6  7  1  0
  7  8  1  0
  8  9  3  0
 10 11  1  0
 11 12  2  0
 11 16  1  0
 12 13  1  0
 13 14  1  0
 14 15  1  0
 14 16  2  0
M  END
