
     RDKit          3D

 16 17  0  0  0  0  0  0  0  0999 V2000
   -2.8810   -1.1140    0.8390 C   0  0  0  0  0  0  0  0  0  0  0  0
   -1.6290   -0.4440    0.5380 N   0  0  0  0  0  0  0  0  0  0  0  0
   -1.0610   -1.0830   -0.6020 C   0  0  0  0  0  0  0  0  0  0  0  0
    0.2480   -0.5410   -1.0420 C   0  0  0  0  0  0  0  0  0  0  0  0
    0.7130   -0.9190   -2.2110 C   0  0  0  0  0  0  0  0  0  0  0  0
   -0.2600   -2.0380   -3.1390 Cl  0  0  0  0  0  0  0  0  0  0  0  0
    1.1000    0.3910   -0.2900 C   0  0  0  0  0  0  0  0  0  0  0  0
    2.3520    0.1000   -0.1340 C   0  0  0  0  0  0  0  0  0  0  0  0
    3.1380   -1.0580   -0.5790 C   0  0  0  0  0  0  0  0  0  0  0  0
    3.9020   -1.8220    0.9190 S   0  0  0  0  0  0  0  0  0  0  0  0
    0.6080    1.5900    0.3470 N   0  0  0  0  0  0  0  0  0  0  0  0
    1.3390    2.5950    0.7010 N   0  0  0  0  0  0  0  0  0  0  0  0
    0.5560    3.5100    1.2670 N   0  0  0  0  0  0  0  0  0  0  0  0
   -0.7190    3.0550    1.2650 C   0  0  0  0  0  0  0  0  0  0  0  0
   -0.6990    1.8220    0.6760 C   0  0  0  0  0  0  0  0  0  0  0  0
   -1.8670    0.9580    0.4570 C   0  0  0  0  0  0  0  0  0  0  0  0
  1  2  1  0
  2  3  1  0
  2 16  1  0
  3  4  1  0
  4  5  2  3
  4  7  1  0
  5  6  1  0
  7  8  2  3
  7 11  1  0
  8  9  1  0
  9 10  1  0
 11 12  1  0
 11 15  1  0
 12 13  2  0
 13 14  1  0
 14 15  2  0
 15 16  1  0
M  END
