
     RDKit          3D

 16 17  0  0  0  0  0  0  0  0999 V2000
   -3.8670    2.7830   -1.7700 N   0  0  0  0  0  0  0  0  0  0  0  0
   -3.7030    2.0010   -0.9320 C   0  0  0  0  0  0  0  0  0  0  0  0
   -3.5060    1.0050    0.1010 C   0  0  0  0  0  0  0  0  0  0  0  0
   -2.3990    0.0830   -0.2370 C   0  0  0  0  0  0  0  0  0  0  0  0
   -2.6980   -1.0370   -0.9330 N   0  0  0  0  0  0  0  0  0  0  0  0
   -1.7380   -1.9090   -1.2690 C   0  0  0  0  0  0  0  0  0  0  0  0
   -0.3880   -1.6950   -0.9120 C   0  0  0  0  0  0  0  0  0  0  0  0
    0.7920   -2.9000   -1.3350 Cl  0  0  0  0  0  0  0  0  0  0  0  0
   -0.0930   -0.5690   -0.2150 C   0  0  0  0  0  0  0  0  0  0  0  0
    1.2600   -0.1850    0.1640 C   0  0  0  0  0  0  0  0  0  0  0  0
    1.3280    0.8470    1.0190 C   0  0  0  0  0  0  0  0  0  0  0  0
    2.8600    1.4950    1.6240 S   0  0  0  0  0  0  0  0  0  0  0  0
    4.2140    0.6080    0.8380 C   0  0  0  0  0  0  0  0  0  0  0  0
    3.6860   -0.3880    0.0060 N   0  0  0  0  0  0  0  0  0  0  0  0
    2.4980   -0.7340   -0.2880 C   0  0  0  0  0  0  0  0  0  0  0  0
   -1.1330    0.2900    0.1010 N   0  0  0  0  0  0  0  0  0  0  0  0
  1  2  3  0
  2  3  1  0
  3  4  1  0
  4  5  2  0
  4 16  1  0
  5  6  1  0
  6  7  2  0
  7  8  1  0
  7  9  1  0
  9 10  1  0
  9 16  2  0
 10 11  2  0
 10 15  1  0
 11 12  1  0
 12 13  1  0
 13 14  1  0
 14 15  2  0
M  END
