
     RDKit          3D

 20 19  0  0  0  0  0  0  0  0999 V2000
   -6.4370    0.9910   -0.6810 N   0  0  0  0  0  0  0  0  0  0  0  0
   -5.2020    0.6130   -1.3770 C   0  0  0  0  0  0  0  0  0  0  0  0
   -4.0760    1.2920   -0.7140 C   0  0  0  0  0  0  0  0  0  0  0  0
   -3.2330    2.1740   -1.4460 S   0  0  0  0  0  0  0  0  0  0  0  0
   -3.8170    1.0650    0.7230 C   0  0  1  0  0  0  0  0  0  0  0  0
   -5.0020    1.3840    1.4510 O   0  0  0  0  0  0  0  0  0  0  0  0
   -3.5750   -0.3780    0.9800 C   0  0  0  0  0  0  0  0  0  0  0  0
   -2.5940   -1.0630    0.4450 O   0  0  0  0  0  0  0  0  0  0  0  0
   -1.2820   -0.9390    0.5610 C   0  0  0  0  0  0  0  0  0  0  0  0
   -0.6930    0.3070    0.0430 C   0  0  0  0  0  0  0  0  0  0  0  0
    0.7370    0.4210    0.1680 N   0  0  0  0  0  0  0  0  0  0  0  0
    1.6000   -0.4170   -0.4530 C   0  0  0  0  0  0  0  0  0  0  0  0
    1.0800   -1.3490   -1.1880 O   0  0  0  0  0  0  0  0  0  0  0  0
    2.9120   -0.5440   -0.5140 N   0  0  0  0  0  0  0  0  0  0  0  0
    4.2320   -0.4800   -0.4270 C   0  0  0  0  0  0  0  0  0  0  0  0
    4.6890   -1.4510   -1.1950 O   0  0  0  0  0  0  0  0  0  0  0  0
    5.1390    0.2460    0.1830 O   0  0  0  0  0  0  0  0  0  0  0  0
    6.5100   -0.1290   -0.0770 C   0  0  0  0  0  0  0  0  0  0  0  0
    7.2550    0.8680    0.7810 C   0  0  0  0  0  0  0  0  0  0  0  0
    6.9380    2.1370    0.3470 O   0  0  0  0  0  0  0  0  0  0  0  0
  1  2  1  0
  2  3  1  0
  3  4  2  0
  3  5  1  0
  5  6  1  1
  5  7  1  0
  7  8  1  0
  8  9  1  0
  9 10  1  0
 10 11  1  0
 11 12  1  0
 12 13  2  0
 12 14  1  0
 14 15  1  0
 15 16  2  0
 15 17  1  0
 17 18  1  0
 18 19  1  0
 19 20  1  0
M  END
