
     RDKit          3D

 29 31  0  0  0  0  0  0  0  0999 V2000
    8.0440    1.2970    1.1160 N   0  0  0  0  0  0  0  0  0  0  0  0
    6.9000    1.6590    0.3760 C   0  0  0  0  0  0  0  0  0  0  0  0
    6.8040    2.8690   -0.1920 N   0  0  0  0  0  0  0  0  0  0  0  0
    5.7260    3.2350   -0.9030 C   0  0  0  0  0  0  0  0  0  0  0  0
    4.7010    2.3830   -1.0660 N   0  0  0  0  0  0  0  0  0  0  0  0
    4.7300    1.1540   -0.5250 C   0  0  0  0  0  0  0  0  0  0  0  0
    5.8550    0.7840    0.2120 C   0  0  0  0  0  0  0  0  0  0  0  0
    5.6160   -0.4660    0.6240 N   0  0  0  0  0  0  0  0  0  0  0  0
    4.4070   -0.8580    0.1680 C   0  0  0  0  0  0  0  0  0  0  0  0
    3.8420    0.1290   -0.5450 N   0  0  0  0  0  0  0  0  0  0  0  0
    2.5610    0.1400   -1.2090 C   0  0  2  0  0  0  0  0  0  0  0  0
    1.5590    0.6940   -0.4530 O   0  0  0  0  0  0  0  0  0  0  0  0
    0.4040   -0.0670   -0.6060 C   0  0  2  0  0  0  0  0  0  0  0  0
   -0.5120    0.1280    0.6140 C   0  0  0  0  0  0  0  0  0  0  0  0
   -1.5760   -0.4940    0.6060 O   0  0  0  0  0  0  0  0  0  0  0  0
   -2.8820   -1.2580    0.5980 S   0  0  1  0  0  0  0  0  0  0  0  0
   -2.9810   -2.4550   -0.3750 O   0  0  0  0  0  0  0  0  0  0  0  0
   -3.2950   -1.9310    1.9390 O   0  0  0  0  0  0  0  0  0  0  0  0
   -4.3140   -0.3180    0.1720 N   0  0  0  0  0  0  0  0  0  0  0  0
   -5.5620   -0.8570    0.5480 C   0  0  0  0  0  0  0  0  0  0  0  0
   -5.6390   -1.9570    1.1550 O   0  0  0  0  0  0  0  0  0  0  0  0
   -6.7900   -0.0990    0.2100 C   0  0  1  0  0  0  0  0  0  0  0  0
   -7.9210   -1.0190    0.4750 N   0  0  0  0  0  0  0  0  0  0  0  0
   -6.8920    1.0640    1.2110 C   0  0  0  0  0  0  0  0  0  0  0  0
   -5.4500    2.1250    1.0730 S   0  0  0  0  0  0  0  0  0  0  0  0
    0.9640   -1.4690   -0.6270 C   0  0  1  0  0  0  0  0  0  0  0  0
    0.0520   -2.3850   -1.1410 O   0  0  0  0  0  0  0  0  0  0  0  0
    2.1420   -1.2690   -1.5590 C   0  0  1  0  0  0  0  0  0  0  0  0
    1.6390   -1.3150   -2.8640 O   0  0  0  0  0  0  0  0  0  0  0  0
  1  2  1  0
  2  3  2  0
  2  7  1  0
  3  4  1  0
  4  5  2  0
  5  6  1  0
  6  7  2  0
  6 10  1  0
  7  8  1  0
  8  9  2  0
  9 10  1  0
 11 10  1  1
 11 12  1  0
 11 28  1  0
 12 13  1  0
 13 14  1  1
 13 26  1  0
 14 15  1  0
 15 16  1  0
 16 17  2  0
 16 18  2  0
 16 19  1  6
 19 20  1  0
 20 21  2  0
 20 22  1  0
 22 23  1  1
 22 24  1  0
 24 25  1  0
 26 27  1  6
 26 28  1  0
 28 29  1  6
M  END
