
     RDKit          3D

 31 35  0  0  0  0  0  0  0  0999 V2000
    3.9850   -2.2320    3.4700 C   0  0  0  0  0  0  0  0  0  0  0  0
    3.1820   -1.6390    2.4070 C   0  0  0  0  0  0  0  0  0  0  0  0
    3.5220   -0.9610    1.3570 C   0  0  0  0  0  0  0  0  0  0  0  0
    2.5640   -0.4980    0.4840 N   0  0  0  0  0  0  0  0  0  0  0  0
    2.8570    0.2050   -0.6120 C   0  0  0  0  0  0  0  0  0  0  0  0
    4.1660    0.5040   -0.9240 C   0  0  0  0  0  0  0  0  0  0  0  0
    5.1610    0.0640   -0.0840 C   0  0  0  0  0  0  0  0  0  0  0  0
    4.8290   -0.6750    1.0670 C   0  0  0  0  0  0  0  0  0  0  0  0
    5.9760   -0.9470    1.6550 C   0  0  0  0  0  0  0  0  0  0  0  0
    7.0380   -0.3650    0.8550 C   0  0  0  0  0  0  0  0  0  0  0  0
    6.5550    0.2340   -0.1750 N   0  0  0  0  0  0  0  0  0  0  0  0
    4.3820    1.2890   -2.1640 C   0  0  0  0  0  0  0  0  0  0  0  0
    3.4140    2.4180   -2.3270 C   0  0  0  0  0  0  0  0  0  0  0  0
    2.0730    2.1880   -1.6630 C   0  0  0  0  0  0  0  0  0  0  0  0
    1.8390    0.7200   -1.5720 C   0  0  2  0  0  0  0  0  0  0  0  0
    0.5500    0.3440   -1.0060 N   0  0  0  0  0  0  0  0  0  0  0  0
   -0.5600    0.6700   -1.7670 C   0  0  1  0  0  0  0  0  0  0  0  0
   -0.6090    0.0380   -3.1460 C   0  0  0  0  0  0  0  0  0  0  0  0
   -1.8800    0.5190   -1.1740 C   0  0  0  0  0  0  0  0  0  0  0  0
   -2.8450    0.8500   -2.0340 O   0  0  0  0  0  0  0  0  0  0  0  0
   -2.3510    0.1150    0.0650 N   0  0  0  0  0  0  0  0  0  0  0  0
   -1.5120   -0.2780    1.1600 C   0  0  0  0  0  0  0  0  0  0  0  0
   -3.7920    0.0730    0.3260 C   0  0  0  0  0  0  0  0  0  0  0  0
   -4.5200    1.2330    0.2550 C   0  0  0  0  0  0  0  0  0  0  0  0
   -5.8980    1.2270    0.5000 C   0  0  0  0  0  0  0  0  0  0  0  0
   -6.5520    0.0550    0.8170 C   0  0  0  0  0  0  0  0  0  0  0  0
   -5.8050   -1.1000    0.8830 C   0  0  0  0  0  0  0  0  0  0  0  0
   -4.4380   -1.1000    0.6420 C   0  0  0  0  0  0  0  0  0  0  0  0
   -6.7620   -2.1670    1.2330 C   0  0  0  0  0  0  0  0  0  0  0  0
   -8.0180   -1.6410    0.9270 O   0  0  0  0  0  0  0  0  0  0  0  0
   -7.9750   -0.2850    1.1290 C   0  0  0  0  0  0  0  0  0  0  0  0
  1  2  1  0
  2  3  2  3
  3  4  1  0
  3  8  1  0
  4  5  2  0
  5  6  1  0
  5 15  1  0
  6  7  2  0
  6 12  1  0
  7  8  1  0
  7 11  1  0
  8  9  2  0
  9 10  1  0
 10 11  2  0
 12 13  1  0
 13 14  1  0
 14 15  1  0
 15 16  1  1
 16 17  1  0
 17 18  1  6
 17 19  1  0
 19 20  2  0
 19 21  1  0
 21 22  1  0
 21 23  1  0
 23 24  2  0
 23 28  1  0
 24 25  1  0
 25 26  2  0
 26 27  1  0
 26 31  1  0
 27 28  2  0
 27 29  1  0
 29 30  1  0
 30 31  1  0
M  CHG  1  16   1
M  END
