
     RDKit          3D

 31 35  0  0  0  0  0  0  0  0999 V2000
   -0.9180   -0.9270    1.5540 O   0  0  0  0  0  0  0  0  0  0  0  0
   -0.2100   -0.4970    0.5770 C   0  0  0  0  0  0  0  0  0  0  0  0
    1.2590   -0.7310    0.6210 C   0  0  0  0  0  0  0  0  0  0  0  0
    1.9820   -0.2130   -0.5050 N   0  0  2  0  0  0  0  0  0  0  0  0
    1.8480   -1.1550   -1.6010 C   0  0  0  0  0  0  0  0  0  0  0  0
    2.8060   -2.2900   -1.2120 C   0  0  0  0  0  0  0  0  0  0  0  0
    3.7080   -1.6960   -0.1520 C   0  0  0  0  0  0  0  0  0  0  0  0
    3.4170   -0.2250   -0.3030 C   0  0  2  0  0  0  0  0  0  0  0  0
    3.9100    0.6170    0.8150 C   0  0  0  0  0  0  0  0  0  0  0  0
    5.4080    0.4550    0.8380 C   0  0  0  0  0  0  0  0  0  0  0  0
    5.9230   -0.5290    1.5860 N   0  0  0  0  0  0  0  0  0  0  0  0
    7.2560   -0.7360    1.6560 C   0  0  0  0  0  0  0  0  0  0  0  0
    8.1030    0.0710    0.9520 C   0  0  0  0  0  0  0  0  0  0  0  0
    7.5770    1.0990    0.1700 C   0  0  0  0  0  0  0  0  0  0  0  0
    6.2330    1.2420    0.1520 N   0  0  0  0  0  0  0  0  0  0  0  0
    8.7600    1.5260   -0.2540 C   0  0  0  0  0  0  0  0  0  0  0  0
    9.3280    0.4460    0.5660 C   0  0  0  0  0  0  0  0  0  0  0  0
   -0.8570    0.1620   -0.4680 N   0  0  0  0  0  0  0  0  0  0  0  0
   -2.2450    0.4300   -0.6020 C   0  0  0  0  0  0  0  0  0  0  0  0
   -2.6300    1.2530   -1.6660 C   0  0  0  0  0  0  0  0  0  0  0  0
   -3.9480    1.5700   -1.8930 C   0  0  0  0  0  0  0  0  0  0  0  0
   -4.9500    1.0840   -1.0730 C   0  0  0  0  0  0  0  0  0  0  0  0
   -4.5890    0.2730   -0.0220 C   0  0  0  0  0  0  0  0  0  0  0  0
   -5.5370   -0.2590    0.8530 O   0  0  0  0  0  0  0  0  0  0  0  0
   -6.8770    0.0350    0.6610 C   0  0  0  0  0  0  0  0  0  0  0  0
   -7.4280    1.1410    1.2690 C   0  0  0  0  0  0  0  0  0  0  0  0
   -8.7690    1.4460    1.0840 C   0  0  0  0  0  0  0  0  0  0  0  0
   -9.5780    0.6520    0.2890 C   0  0  0  0  0  0  0  0  0  0  0  0
   -9.0280   -0.4540   -0.3210 C   0  0  0  0  0  0  0  0  0  0  0  0
   -7.6770   -0.7600   -0.1330 C   0  0  0  0  0  0  0  0  0  0  0  0
   -3.2440   -0.0400    0.1960 C   0  0  0  0  0  0  0  0  0  0  0  0
  1  2  2  0
  2  3  1  0
  2 18  1  0
  4  3  1  1
  4  5  1  0
  4  8  1  0
  5  6  1  0
  6  7  1  0
  7  8  1  0
  8  9  1  1
  9 10  1  0
 10 11  1  0
 10 15  2  0
 11 12  2  0
 12 13  1  0
 13 14  1  0
 13 17  2  0
 14 15  1  0
 14 16  2  0
 16 17  1  0
 18 19  1  0
 19 20  2  0
 19 31  1  0
 20 21  1  0
 21 22  2  0
 22 23  1  0
 23 24  1  0
 23 31  2  0
 24 25  1  0
 25 26  2  0
 25 30  1  0
 26 27  1  0
 27 28  2  0
 28 29  1  0
 29 30  2  0
M  CHG  1   4   1
M  END
