
     RDKit          3D

 29 32  0  0  0  0  0  0  0  0999 V2000
   10.5870    0.1420   -0.2690 C   0  0  0  0  0  0  0  0  0  0  0  0
    9.8520   -0.7770    0.7010 C   0  0  0  0  0  0  0  0  0  0  0  0
    8.3760   -0.6530    0.4880 C   0  0  0  0  0  0  0  0  0  0  0  0
    7.7170   -1.4650   -0.4080 C   0  0  0  0  0  0  0  0  0  0  0  0
    6.3830   -1.3890   -0.6340 C   0  0  0  0  0  0  0  0  0  0  0  0
    5.6310   -0.4550    0.0610 C   0  0  0  0  0  0  0  0  0  0  0  0
    4.2370   -0.3770   -0.1590 N   0  0  0  0  0  0  0  0  0  0  0  0
    3.3490    0.6210    0.3070 C   0  0  0  0  0  0  0  0  0  0  0  0
    3.7920    1.5690    0.9890 O   0  0  0  0  0  0  0  0  0  0  0  0
    1.9320    0.5460   -0.0050 N   0  0  0  0  0  0  0  0  0  0  0  0
    1.1210    1.6120    0.5180 C   0  0  0  0  0  0  0  0  0  0  0  0
   -0.3120    1.4460    0.1460 C   0  0  0  0  0  0  0  0  0  0  0  0
   -0.8890    0.4700   -0.5620 N   0  0  0  0  0  0  0  0  0  0  0  0
   -2.2060    0.7350   -0.6490 C   0  0  0  0  0  0  0  0  0  0  0  0
   -3.2860    0.0980   -1.2450 C   0  0  0  0  0  0  0  0  0  0  0  0
   -4.5630    0.6120   -1.1730 C   0  0  0  0  0  0  0  0  0  0  0  0
   -5.6930   -0.1050   -1.8260 C   0  0  0  0  0  0  0  0  0  0  0  0
   -6.3610   -1.0280   -0.9290 N   0  0  2  0  0  0  0  0  0  0  0  0
   -7.6760   -0.5860   -0.5920 C   0  0  0  0  0  0  0  0  0  0  0  0
   -7.8780   -0.6080    0.9060 C   0  0  0  0  0  0  0  0  0  0  0  0
   -7.5380   -1.8250    1.4430 O   0  0  0  0  0  0  0  0  0  0  0  0
   -6.2810   -2.2710    1.1190 C   0  0  0  0  0  0  0  0  0  0  0  0
   -5.5790   -1.2410    0.2550 C   0  0  0  0  0  0  0  0  0  0  0  0
   -4.8060    1.7900   -0.4960 C   0  0  0  0  0  0  0  0  0  0  0  0
   -3.7470    2.4380    0.1020 C   0  0  0  0  0  0  0  0  0  0  0  0
   -2.4670    1.9110    0.0220 C   0  0  0  0  0  0  0  0  0  0  0  0
   -1.2640    2.3250    0.5040 N   0  0  0  0  0  0  0  0  0  0  0  0
    6.3100    0.3390    0.9440 C   0  0  0  0  0  0  0  0  0  0  0  0
    7.6620    0.2470    1.1600 N   0  0  0  0  0  0  0  0  0  0  0  0
  1  2  1  0
  2  3  1  0
  3  4  2  0
  3 29  1  0
  4  5  1  0
  5  6  2  0
  6  7  1  0
  6 28  1  0
  7  8  1  0
  8  9  2  0
  8 10  1  0
 10 11  1  0
 11 12  1  0
 12 13  2  0
 12 27  1  0
 13 14  1  0
 14 15  2  0
 14 26  1  0
 15 16  1  0
 16 17  1  0
 16 24  2  0
 18 17  1  6
 18 19  1  0
 18 23  1  0
 19 20  1  0
 20 21  1  0
 21 22  1  0
 22 23  1  0
 24 25  1  0
 25 26  2  0
 26 27  1  0
 28 29  2  0
M  CHG  1  18   1
M  END
