
     RDKit          3D

 31 33  0  0  0  0  0  0  0  0999 V2000
   10.0310   -0.3930    1.3120 N   0  0  0  0  0  0  0  0  0  0  0  0
    9.1740   -0.2110    0.1880 C   0  0  0  0  0  0  0  0  0  0  0  0
    9.6580   -0.0280   -0.9460 O   0  0  0  0  0  0  0  0  0  0  0  0
    7.7700   -0.2490    0.4190 N   0  0  0  0  0  0  0  0  0  0  0  0
    6.8350   -0.0750   -0.6520 C   0  0  2  0  0  0  0  0  0  0  0  0
    5.6870    0.8730   -0.3790 C   0  0  0  0  0  0  0  0  0  0  0  0
    4.8170   -0.2590   -0.1340 N   0  0  0  0  0  0  0  0  0  0  0  0
    3.5470   -0.4160    0.4550 C   0  0  0  0  0  0  0  0  0  0  0  0
    3.0130   -1.5470    0.5390 O   0  0  0  0  0  0  0  0  0  0  0  0
    2.8810    0.6910    0.9470 O   0  0  0  0  0  0  0  0  0  0  0  0
    1.6080    0.4810    1.5290 C   0  0  0  0  0  0  0  0  0  0  0  0
    0.7860   -0.0810    0.5280 O   0  0  0  0  0  0  0  0  0  0  0  0
   -0.5270   -0.4300    0.7020 C   0  0  0  0  0  0  0  0  0  0  0  0
   -1.0670   -0.2530    1.8080 O   0  0  0  0  0  0  0  0  0  0  0  0
   -1.3010   -1.0140   -0.4210 C   0  0  2  0  0  0  0  0  0  0  0  0
   -1.3100    0.0160   -1.5660 C   0  0  0  0  0  0  0  0  0  0  0  0
   -2.0360    1.1140   -0.8260 C   0  0  0  0  0  0  0  0  0  0  0  0
   -3.2550    0.3600   -0.3920 N   0  0  0  0  0  0  0  0  0  0  0  0
   -4.5050    0.9840   -0.3600 C   0  0  0  0  0  0  0  0  0  0  0  0
   -4.5450    2.2160   -0.7510 O   0  0  0  0  0  0  0  0  0  0  0  0
   -5.7690    0.4360    0.0560 C   0  0  0  0  0  0  0  0  0  0  0  0
   -6.8570    1.1920   -0.0020 C   0  0  0  0  0  0  0  0  0  0  0  0
   -8.1890    0.7480    0.3900 C   0  0  1  0  0  0  0  0  0  0  0  0
   -8.6650    1.6610    1.3420 O   0  0  0  0  0  0  0  0  0  0  0  0
   -9.3190    0.8750   -1.1060 P   0  0  0  0  0  0  0  0  0  0  0  0
   -9.6880   -0.4310   -1.8800 O   0  0  0  0  0  0  0  0  0  0  0  0
   -8.2520   -0.5680    0.8720 O   0  0  0  0  0  0  0  0  0  0  0  0
   -7.1210   -1.3480    0.9310 C   0  0  0  0  0  0  0  0  0  0  0  0
   -5.9100   -0.9090    0.5500 C   0  0  0  0  0  0  0  0  0  0  0  0
   -2.8050   -0.9610   -0.0910 C   0  0  0  0  0  0  0  0  0  0  0  0
    5.7650   -1.1620   -0.7310 C   0  0  0  0  0  0  0  0  0  0  0  0
  1  2  1  0
  2  3  2  0
  2  4  1  0
  5  4  1  1
  5  6  1  0
  5 31  1  0
  6  7  1  0
  7  8  1  0
  7 31  1  0
  8  9  2  0
  8 10  1  0
 10 11  1  0
 11 12  1  0
 12 13  1  0
 13 14  2  0
 15 13  1  1
 15 16  1  0
 15 30  1  0
 16 17  1  0
 17 18  1  0
 18 19  1  0
 18 30  1  0
 19 20  2  0
 19 21  1  0
 21 22  2  0
 21 29  1  0
 22 23  1  0
 23 24  1  1
 23 25  1  0
 23 27  1  0
 25 26  2  0
 27 28  1  0
 28 29  2  0
M  END
