
     RDKit          3D

 31 33  0  0  0  0  0  0  0  0999 V2000
   -2.3260    4.4000    1.2140 O   0  0  0  0  0  0  0  0  0  0  0  0
   -3.4640    4.4890    0.7580 C   0  0  0  0  0  0  0  0  0  0  0  0
   -4.2990    3.3890    0.4060 C   0  0  0  0  0  0  0  0  0  0  0  0
   -4.0760    2.1060    0.4760 C   0  0  0  0  0  0  0  0  0  0  0  0
   -2.8530    1.5330    0.9590 C   0  0  0  0  0  0  0  0  0  0  0  0
   -2.5530    0.2620    1.0490 C   0  0  0  0  0  0  0  0  0  0  0  0
   -3.2530   -0.9540    0.7210 C   0  0  0  0  0  0  0  0  0  0  0  0
   -3.8550   -1.3060   -0.3570 C   0  0  0  0  0  0  0  0  0  0  0  0
   -4.0180   -0.5950   -1.6220 C   0  0  0  0  0  0  0  0  0  0  0  0
   -4.7090   -1.0930   -2.6320 N   0  0  0  0  0  0  0  0  0  0  0  0
   -4.7070   -0.2340   -3.6900 O   0  0  0  0  0  0  0  0  0  0  0  0
   -4.2910    1.0420   -3.2030 C   0  0  0  0  0  0  0  0  0  0  0  0
   -3.5580    0.6230   -2.0680 O   0  0  0  0  0  0  0  0  0  0  0  0
   -2.9580   -1.8410    1.8390 N   0  0  0  0  0  0  0  0  0  0  0  0
   -2.1020   -1.1150    2.7400 C   0  0  0  0  0  0  0  0  0  0  0  0
   -2.0520   -1.2320    3.9680 O   0  0  0  0  0  0  0  0  0  0  0  0
   -1.3210   -0.2150    1.8110 C   0  0  1  0  0  0  0  0  0  0  0  0
   -0.4210   -0.9920    0.9040 C   0  0  0  0  0  0  0  0  0  0  0  0
    0.6450   -0.0120    0.6630 N   0  0  0  0  0  0  0  0  0  0  0  0
    1.4890    0.0420   -0.5120 C   0  0  0  0  0  0  0  0  0  0  0  0
    2.7140   -0.7660   -0.3510 C   0  0  0  0  0  0  0  0  0  0  0  0
    2.8700   -1.3720    0.7300 O   0  0  0  0  0  0  0  0  0  0  0  0
    3.6440   -0.8180   -1.4120 N   0  0  0  0  0  0  0  0  0  0  0  0
    4.8460   -1.5860   -1.2980 C   0  0  0  0  0  0  0  0  0  0  0  0
    5.6730   -1.0610   -0.1570 C   0  0  0  0  0  0  0  0  0  0  0  0
    7.2290   -2.1040   -0.0670 P   0  0  0  0  0  0  0  0  0  0  0  0
    7.6360   -2.4650    1.5850 O   0  0  0  0  0  0  0  0  0  0  0  0
    8.5810   -1.2380   -0.7620 O   0  0  0  0  0  0  0  0  0  0  0  0
    0.6430    0.8290    1.8070 C   0  0  0  0  0  0  0  0  0  0  0  0
    1.6590    1.4910    2.1730 O   0  0  0  0  0  0  0  0  0  0  0  0
   -0.6240    0.7910    2.4260 O   0  0  0  0  0  0  0  0  0  0  0  0
  1  2  2  0
  2  3  1  0
  3  4  2  3
  4  5  1  0
  5  6  2  3
  6  7  1  0
  6 17  1  0
  7  8  2  3
  7 14  1  0
  8  9  1  0
  9 10  2  0
  9 13  1  0
 10 11  1  0
 11 12  1  0
 12 13  1  0
 14 15  1  0
 15 16  2  0
 15 17  1  0
 17 18  1  6
 17 31  1  0
 18 19  1  0
 19 20  1  0
 19 29  1  0
 20 21  1  0
 21 22  2  0
 21 23  1  0
 23 24  1  0
 24 25  1  0
 25 26  1  0
 26 27  1  0
 26 28  1  0
 29 30  2  0
 29 31  1  0
M  END
