
     RDKit          3D

 30 32  0  0  0  0  0  0  0  0999 V2000
   -3.0590   -5.8160   -0.8660 O   0  0  0  0  0  0  0  0  0  0  0  0
   -2.9200   -4.8050   -1.5950 C   0  0  0  0  0  0  0  0  0  0  0  0
   -3.2100   -4.8930   -2.9650 O   0  0  0  0  0  0  0  0  0  0  0  0
   -2.4760   -3.5420   -1.1190 N   0  0  0  0  0  0  0  0  0  0  0  0
   -3.2230   -2.7740   -0.4390 C   0  0  0  0  0  0  0  0  0  0  0  0
   -4.5060   -3.1060   -0.1150 O   0  0  0  0  0  0  0  0  0  0  0  0
   -5.4040   -2.3400    0.6300 C   0  0  0  0  0  0  0  0  0  0  0  0
   -4.6540   -1.4130    1.5630 C   0  0  0  0  0  0  0  0  0  0  0  0
   -3.6650   -0.7200    0.7810 N   0  0  0  0  0  0  0  0  0  0  0  0
   -2.7230   -1.4600    0.0400 C   0  0  0  0  0  0  0  0  0  0  0  0
   -1.5160   -1.0960   -0.2440 C   0  0  0  0  0  0  0  0  0  0  0  0
   -0.8280    0.1240    0.1160 C   0  0  0  0  0  0  0  0  0  0  0  0
   -1.4550    0.9980    0.8140 N   0  0  0  0  0  0  0  0  0  0  0  0
   -0.8590    2.1520    1.1750 O   0  0  0  0  0  0  0  0  0  0  0  0
   -0.6920    2.4230    2.5660 C   0  0  0  0  0  0  0  0  0  0  0  0
   -0.0090    3.7530    2.7710 C   0  0  2  0  0  0  0  0  0  0  0  0
   -0.7400    4.9380    2.2050 C   0  0  0  0  0  0  0  0  0  0  0  0
    0.4980    4.4500    1.5580 C   0  0  0  0  0  0  0  0  0  0  0  0
    0.5680    0.4170   -0.2800 C   0  0  1  0  0  0  0  0  0  0  0  0
    1.5450   -0.5910    0.2450 C   0  0  0  0  0  0  0  0  0  0  0  0
    2.8200   -0.1530    0.4180 O   0  0  0  0  0  0  0  0  0  0  0  0
    3.2870    0.7880   -0.4440 C   0  0  0  0  0  0  0  0  0  0  0  0
    3.3050    0.3680   -1.8970 C   0  0  1  0  0  0  0  0  0  0  0  0
    4.0850   -0.8900   -2.0650 C   0  0  0  0  0  0  0  0  0  0  0  0
    5.8240   -0.5680   -1.4810 P   0  0  0  0  0  0  0  0  0  0  0  0
    5.9810   -0.9340    0.2070 O   0  0  0  0  0  0  0  0  0  0  0  0
    6.2460    1.1090   -1.6830 O   0  0  0  0  0  0  0  0  0  0  0  0
    1.9310    0.2970   -2.4630 C   0  0  0  0  0  0  0  0  0  0  0  0
    1.8880    0.1350   -3.7030 O   0  0  0  0  0  0  0  0  0  0  0  0
    0.7060    0.3930   -1.7460 N   0  0  0  0  0  0  0  0  0  0  0  0
  1  2  2  0
  2  3  1  0
  2  4  1  0
  4  5  2  3
  5  6  1  0
  5 10  1  0
  6  7  1  0
  7  8  1  0
  8  9  1  0
  9 10  1  0
 10 11  2  3
 11 12  1  0
 12 13  2  3
 19 12  1  6
 13 14  1  0
 14 15  1  0
 16 15  1  6
 16 17  1  0
 16 18  1  0
 17 18  1  0
 19 20  1  0
 19 30  1  0
 20 21  1  0
 21 22  1  0
 22 23  1  0
 23 24  1  1
 23 28  1  0
 24 25  1  0
 25 26  1  0
 25 27  1  0
 28 29  2  0
 28 30  1  0
M  END
