
     RDKit          3D

 31 33  0  0  0  0  0  0  0  0999 V2000
    6.0840   -3.2150    2.0040 O   0  0  0  0  0  0  0  0  0  0  0  0
    6.1300   -2.3850    1.0770 C   0  0  0  0  0  0  0  0  0  0  0  0
    7.3330   -2.1360    0.4120 O   0  0  0  0  0  0  0  0  0  0  0  0
    4.9370   -1.6530    0.6630 C   0  0  0  0  0  0  0  0  0  0  0  0
    3.7550   -1.8770    1.2930 C   0  0  0  0  0  0  0  0  0  0  0  0
    2.6040   -1.1910    0.9160 C   0  0  0  0  0  0  0  0  0  0  0  0
    2.6020   -0.2710   -0.0940 C   0  0  0  0  0  0  0  0  0  0  0  0
    1.4990    0.4630   -0.5400 N   0  0  0  0  0  0  0  0  0  0  0  0
    0.1760    0.4120   -0.0530 C   0  0  0  0  0  0  0  0  0  0  0  0
   -0.1100   -0.3520    0.8810 O   0  0  0  0  0  0  0  0  0  0  0  0
   -0.8590    1.2640   -0.6510 C   0  0  2  0  0  0  0  0  0  0  0  0
   -0.4580    2.7130   -0.5020 C   0  0  0  0  0  0  0  0  0  0  0  0
   -1.5270    3.5760   -1.1310 C   0  0  0  0  0  0  0  0  0  0  0  0
   -1.0500    5.3800   -0.9620 P   0  0  0  0  0  0  0  0  0  0  0  0
    0.6340    5.4540   -0.5480 O   0  0  0  0  0  0  0  0  0  0  0  0
   -1.9420    6.1060    0.3390 O   0  0  0  0  0  0  0  0  0  0  0  0
   -2.1570    1.0760   -0.0210 N   0  0  0  0  0  0  0  0  0  0  0  0
   -2.8110   -0.2090   -0.0500 C   0  0  0  0  0  0  0  0  0  0  0  0
   -2.2430   -1.2780   -0.4470 N   0  0  0  0  0  0  0  0  0  0  0  0
   -3.1800   -2.3710   -0.3450 C   0  0  0  0  0  0  0  0  0  0  0  0
   -3.0720   -3.6900   -0.6360 N   0  0  0  0  0  0  0  0  0  0  0  0
   -4.1280   -4.5000   -0.4380 C   0  0  0  0  0  0  0  0  0  0  0  0
   -4.0180   -5.7420   -0.7150 O   0  0  0  0  0  0  0  0  0  0  0  0
   -5.2690   -4.0500    0.0300 O   0  0  0  0  0  0  0  0  0  0  0  0
   -5.4290   -2.7830    0.3280 C   0  0  0  0  0  0  0  0  0  0  0  0
   -6.5110   -2.3200    0.7800 O   0  0  0  0  0  0  0  0  0  0  0  0
   -4.3850   -1.9160    0.1470 C   0  0  0  0  0  0  0  0  0  0  0  0
   -4.1890   -0.4710    0.3600 C   0  0  0  0  0  0  0  0  0  0  0  0
   -5.0490    0.3030    0.7970 O   0  0  0  0  0  0  0  0  0  0  0  0
    3.8410   -0.0720   -0.7160 C   0  0  0  0  0  0  0  0  0  0  0  0
    4.9830   -0.7380   -0.3580 C   0  0  0  0  0  0  0  0  0  0  0  0
  1  2  2  0
  2  3  1  0
  2  4  1  0
  4  5  2  0
  4 31  1  0
  5  6  1  0
  6  7  2  0
  7  8  1  0
  7 30  1  0
  8  9  1  0
  9 10  2  0
  9 11  1  0
 11 12  1  1
 11 17  1  0
 12 13  1  0
 13 14  1  0
 14 15  1  0
 14 16  1  0
 17 18  1  0
 18 19  2  0
 18 28  1  0
 19 20  1  0
 20 21  1  0
 20 27  2  0
 21 22  1  0
 22 23  2  0
 22 24  1  0
 24 25  1  0
 25 26  2  0
 25 27  1  0
 27 28  1  0
 28 29  2  0
 30 31  2  0
M  END
