
     RDKit          3D

 30 32  0  0  0  0  0  0  0  0999 V2000
   -6.6460    0.9840    1.9340 O   0  0  0  0  0  0  0  0  0  0  0  0
   -5.4680    0.6030    1.8120 C   0  0  0  0  0  0  0  0  0  0  0  0
   -4.4550    0.9080    2.7940 N   0  0  0  0  0  0  0  0  0  0  0  0
   -3.0790    0.5670    2.5840 C   0  0  0  0  0  0  0  0  0  0  0  0
   -2.2300    0.9550    3.3920 O   0  0  0  0  0  0  0  0  0  0  0  0
   -2.7790   -0.2400    1.3870 C   0  0  2  0  0  0  0  0  0  0  0  0
   -1.3590   -0.2420    1.0110 C   0  0  0  0  0  0  0  0  0  0  0  0
   -0.5670    0.3250    1.8660 O   0  0  0  0  0  0  0  0  0  0  0  0
   -0.7940   -0.7880   -0.1490 N   0  0  0  0  0  0  0  0  0  0  0  0
   -1.6040   -1.4690   -1.1350 C   0  0  0  0  0  0  0  0  0  0  0  0
   -0.9670   -2.7770   -1.5740 C   0  0  0  0  0  0  0  0  0  0  0  0
    0.4060   -2.6780   -1.7120 O   0  0  0  0  0  0  0  0  0  0  0  0
    1.0280   -2.2250   -0.5580 C   0  0  0  0  0  0  0  0  0  0  0  0
    0.6240   -0.7340   -0.4630 C   0  0  1  0  0  0  0  0  0  0  0  0
    0.8010   -0.2140   -1.8770 C   0  0  0  0  0  0  0  0  0  0  0  0
    0.2970    1.0580   -2.0020 O   0  0  0  0  0  0  0  0  0  0  0  0
    1.4530   -0.0130    0.5160 C   0  0  0  0  0  0  0  0  0  0  0  0
    2.8630   -0.0290    0.0640 N   0  0  0  0  0  0  0  0  0  0  0  0
    3.6790    0.6050    1.1210 C   0  0  0  0  0  0  0  0  0  0  0  0
    5.1130    0.5900    0.7300 C   0  0  0  0  0  0  0  0  0  0  0  0
    5.3530    1.3450   -0.5510 C   0  0  0  0  0  0  0  0  0  0  0  0
    7.1640    1.3090   -0.9890 P   0  0  0  0  0  0  0  0  0  0  0  0
    7.8830   -0.2150   -0.6370 O   0  0  0  0  0  0  0  0  0  0  0  0
    7.9980    2.6310   -0.2700 O   0  0  0  0  0  0  0  0  0  0  0  0
   -3.6860    0.1830    0.3490 N   0  0  0  0  0  0  0  0  0  0  0  0
   -3.5780    0.9110   -0.8290 C   0  0  0  0  0  0  0  0  0  0  0  0
   -2.6230    1.6340   -1.2030 O   0  0  0  0  0  0  0  0  0  0  0  0
   -4.8160    0.7040   -1.6320 C   0  0  0  0  0  0  0  0  0  0  0  0
   -5.8440    0.2480   -0.6190 C   0  0  0  0  0  0  0  0  0  0  0  0
   -5.0900   -0.2030    0.5970 C   0  0  2  0  0  0  0  0  0  0  0  0
  1  2  2  0
  2  3  1  0
  2 30  1  0
  3  4  1  0
  4  5  2  0
  4  6  1  0
  6  7  1  6
  6 25  1  0
  7  8  2  0
  7  9  1  0
  9 10  1  0
  9 14  1  0
 10 11  1  0
 11 12  1  0
 12 13  1  0
 13 14  1  0
 14 15  1  6
 14 17  1  0
 15 16  1  0
 17 18  1  0
 18 19  1  0
 19 20  1  0
 20 21  1  0
 21 22  1  0
 22 23  1  0
 22 24  1  0
 25 26  1  0
 25 30  1  0
 26 27  2  0
 26 28  1  0
 28 29  1  0
 30 29  1  6
M  END
