
     RDKit          3D

 41 44  0  0  0  0  0  0  0  0999 V2000
    9.2870   -3.3770   -1.2010 C   0  0  0  0  0  0  0  0  0  0  0  0
    9.9770   -2.3540   -0.3190 C   0  0  0  0  0  0  0  0  0  0  0  0
    9.3310   -0.7260   -0.7360 S   0  0  0  0  0  0  0  0  0  0  0  0
    9.9740    0.2920    0.1950 O   0  0  0  0  0  0  0  0  0  0  0  0
    7.5760   -0.7570   -0.4310 C   0  0  0  0  0  0  0  0  0  0  0  0
    6.7930   -0.3830   -1.2750 O   0  0  0  0  0  0  0  0  0  0  0  0
    7.1150   -1.2520    0.8860 C   0  0  0  0  0  0  0  0  0  0  0  0
    5.7240   -1.1100    0.9640 O   0  0  0  0  0  0  0  0  0  0  0  0
    5.1550    0.1510    0.9220 C   0  0  0  0  0  0  0  0  0  0  0  0
    5.9220    1.2850    0.8380 C   0  0  0  0  0  0  0  0  0  0  0  0
    5.3120    2.5170    0.7950 C   0  0  0  0  0  0  0  0  0  0  0  0
    3.9390    2.5960    0.8380 C   0  0  0  0  0  0  0  0  0  0  0  0
    3.2880    3.8890    0.7930 C   0  0  0  0  0  0  0  0  0  0  0  0
    3.9580    4.9450    0.7170 O   0  0  0  0  0  0  0  0  0  0  0  0
    1.8990    4.0300    0.8310 O   0  0  0  0  0  0  0  0  0  0  0  0
    1.2940    5.3000    0.7860 C   0  0  0  0  0  0  0  0  0  0  0  0
    3.1690    1.4320    0.9250 C   0  0  0  0  0  0  0  0  0  0  0  0
    3.7720    0.2050    0.9670 C   0  0  0  0  0  0  0  0  0  0  0  0
    3.0540   -0.9590    1.0520 O   0  0  0  0  0  0  0  0  0  0  0  0
    1.6440   -0.8740    1.1010 C   0  0  0  0  0  0  0  0  0  0  0  0
    0.9850   -2.1750    1.1880 C   0  0  0  0  0  0  0  0  0  0  0  0
    1.7810   -3.1890    1.2000 O   0  0  0  0  0  0  0  0  0  0  0  0
   -0.3960   -2.4330    1.2660 N   0  0  0  0  0  0  0  0  0  0  0  0
   -0.8270   -3.8250    1.4310 C   0  0  0  0  0  0  0  0  0  0  0  0
   -1.4260   -1.4510    1.1460 C   0  0  0  0  0  0  0  0  0  0  0  0
   -1.9660   -1.3940   -0.2610 C   0  0  2  0  0  0  0  0  0  0  0  0
   -1.0070   -1.0790   -1.3260 C   0  0  0  0  0  0  0  0  0  0  0  0
   -1.0920    0.4430   -1.4060 C   0  0  0  0  0  0  0  0  0  0  0  0
   -2.6350    0.6030   -1.4140 C   0  0  0  0  0  0  0  0  0  0  0  0
   -3.0920   -0.3400   -0.3400 C   0  0  1  0  0  0  0  0  0  0  0  0
   -4.3400   -1.0760   -0.5620 C   0  0  0  0  0  0  0  0  0  0  0  0
   -5.6500   -0.3970   -0.6310 C   0  0  2  0  0  0  0  0  0  0  0  0
   -5.8390    0.6080   -1.6940 C   0  0  0  0  0  0  0  0  0  0  0  0
   -6.9150    1.6410   -1.4430 C   0  0  2  0  0  0  0  0  0  0  0  0
   -6.2870    3.0150   -1.1530 C   0  0  0  0  0  0  0  0  0  0  0  0
   -7.9440    1.2810   -0.4430 C   0  0  0  0  0  0  0  0  0  0  0  0
   -7.6070    0.1780    0.4990 C   0  0  2  0  0  0  0  0  0  0  0  0
   -6.1180    0.0860    0.7350 C   0  0  0  0  0  0  0  0  0  0  0  0
   -7.8390   -1.1040   -0.1890 N   0  0  0  0  0  0  0  0  0  0  0  0
   -6.6840   -1.4690   -0.8920 C   0  0  0  0  0  0  0  0  0  0  0  0
   -6.4720   -2.4610   -1.6110 O   0  0  0  0  0  0  0  0  0  0  0  0
  1  2  1  0
  3  2  1  1
  3  4  2  0
  3  5  1  0
  5  6  2  0
  5  7  1  0
  7  8  1  0
  8  9  1  0
  9 10  2  0
  9 18  1  0
 10 11  1  0
 11 12  2  0
 12 13  1  0
 12 17  1  0
 13 14  2  0
 13 15  1  0
 15 16  1  0
 17 18  2  0
 18 19  1  0
 19 20  1  0
 20 21  1  0
 21 22  2  0
 21 23  1  0
 23 24  1  0
 23 25  1  0
 26 25  1  1
 26 27  1  0
 26 30  1  0
 27 28  1  0
 28 29  1  0
 29 30  1  0
 30 31  1  6
 32 31  1  1
 32 33  1  0
 32 38  1  0
 32 40  1  0
 33 34  1  0
 34 35  1  1
 34 36  1  0
 37 36  1  6
 37 38  1  0
 37 39  1  0
 39 40  1  0
 40 41  2  0
M  END
