
     RDKit          3D

 42 46  0  0  0  0  0  0  0  0999 V2000
   -0.5240    2.1400   -1.8170 C   0  0  0  0  0  0  0  0  0  0  0  0
   -1.8760    1.7610   -1.6240 O   0  0  0  0  0  0  0  0  0  0  0  0
   -2.2350    1.2730   -0.3750 C   0  0  0  0  0  0  0  0  0  0  0  0
   -1.3380    1.1480    0.6570 C   0  0  0  0  0  0  0  0  0  0  0  0
   -1.7070    0.6600    1.9050 C   0  0  0  0  0  0  0  0  0  0  0  0
   -0.8100    0.5450    2.9090 O   0  0  0  0  0  0  0  0  0  0  0  0
    0.4930    0.7570    3.1260 C   0  0  0  0  0  0  0  0  0  0  0  0
    1.5340   -0.0180    2.4520 C   0  0  0  0  0  0  0  0  0  0  0  0
    2.7400    0.3900    2.6730 O   0  0  0  0  0  0  0  0  0  0  0  0
    1.4160   -1.1360    1.6120 N   0  0  0  0  0  0  0  0  0  0  0  0
    0.2260   -1.7950    1.1630 C   0  0  0  0  0  0  0  0  0  0  0  0
    0.7020   -3.2070    0.7820 C   0  0  0  0  0  0  0  0  0  0  0  0
    1.9970   -2.8330    0.0750 C   0  0  0  0  0  0  0  0  0  0  0  0
    2.5700   -1.8380    1.0790 C   0  0  2  0  0  0  0  0  0  0  0  0
    3.2600   -2.6130    2.1270 C   0  0  0  0  0  0  0  0  0  0  0  0
    4.4170   -3.3480    1.8080 N   0  0  0  0  0  0  0  0  0  0  0  0
    2.8180   -2.6140    3.2900 O   0  0  0  0  0  0  0  0  0  0  0  0
    3.5490   -0.9400    0.4220 C   0  0  0  0  0  0  0  0  0  0  0  0
    3.8130    0.1090    0.0190 N   0  0  0  0  0  0  0  0  0  0  0  0
    4.9170    0.5410   -0.5630 C   0  0  0  0  0  0  0  0  0  0  0  0
    5.9140   -0.3450   -0.7340 C   0  0  0  0  0  0  0  0  0  0  0  0
    5.1120   -1.8600    0.0220 S   0  0  0  0  0  0  0  0  0  0  0  0
    7.2310   -0.1950   -1.3150 C   0  0  2  0  0  0  0  0  0  0  0  0
    8.2160   -0.9440   -0.6780 O   0  0  0  0  0  0  0  0  0  0  0  0
    7.5610    1.3060   -1.2150 C   0  0  2  0  0  0  0  0  0  0  0  0
    7.7210    1.6400    0.2020 C   0  0  0  0  0  0  0  0  0  0  0  0
    8.8540    1.5910    0.6980 O   0  0  0  0  0  0  0  0  0  0  0  0
    6.3670    1.9850   -1.8630 C   0  0  2  0  0  0  0  0  0  0  0  0
    6.7270    3.4210   -2.2470 C   0  0  0  0  0  0  0  0  0  0  0  0
    5.1340    1.9700   -1.0380 C   0  0  0  0  0  0  0  0  0  0  0  0
   -3.0210    0.3000    2.0760 C   0  0  0  0  0  0  0  0  0  0  0  0
   -3.9940    0.3970    1.0750 C   0  0  0  0  0  0  0  0  0  0  0  0
   -5.2670    0.0150    1.3470 O   0  0  0  0  0  0  0  0  0  0  0  0
   -6.4660    0.0410    0.6860 C   0  0  2  0  0  0  0  0  0  0  0  0
   -7.6040    0.4970    1.6240 C   0  0  0  0  0  0  0  0  0  0  0  0
   -8.9050    0.3850    0.9190 C   0  0  0  0  0  0  0  0  0  0  0  0
   -8.7880    0.0940   -0.5610 C   0  0  0  0  0  0  0  0  0  0  0  0
   -8.0350   -1.2020   -0.7280 C   0  0  0  0  0  0  0  0  0  0  0  0
   -6.9040   -1.3770    0.2480 C   0  0  0  0  0  0  0  0  0  0  0  0
   -3.5490    0.8900   -0.1350 C   0  0  0  0  0  0  0  0  0  0  0  0
   -4.4360    1.0320   -1.2200 O   0  0  0  0  0  0  0  0  0  0  0  0
   -4.5660   -0.0140   -2.1740 C   0  0  0  0  0  0  0  0  0  0  0  0
  1  2  1  0
  2  3  1  0
  3  4  2  0
  3 40  1  0
  4  5  1  0
  5  6  1  0
  5 31  2  0
  6  7  1  0
  7  8  1  0
  8  9  2  0
  8 10  1  0
 10 11  1  0
 10 14  1  0
 11 12  1  0
 12 13  1  0
 13 14  1  0
 14 15  1  1
 14 18  1  0
 15 16  1  0
 15 17  2  0
 18 19  2  0
 18 22  1  0
 19 20  1  0
 20 21  2  0
 20 30  1  0
 21 22  1  0
 21 23  1  0
 23 24  1  1
 23 25  1  0
 25 26  1  1
 25 28  1  0
 26 27  2  0
 28 29  1  1
 28 30  1  0
 31 32  1  0
 32 33  1  0
 32 40  2  0
 34 33  1  1
 34 35  1  0
 34 39  1  0
 35 36  1  0
 36 37  1  0
 37 38  1  0
 38 39  1  0
 40 41  1  0
 41 42  1  0
M  END
