
     RDKit          3D

 42 46  0  0  0  0  0  0  0  0999 V2000
   -3.6740    3.5110   -2.2540 C   0  0  0  0  0  0  0  0  0  0  0  0
   -2.9360    2.8030   -1.1390 C   0  0  0  0  0  0  0  0  0  0  0  0
   -3.2120    1.3160   -1.1230 C   0  0  2  0  0  0  0  0  0  0  0  0
   -4.6910    1.1350   -0.9280 C   0  0  0  0  0  0  0  0  0  0  0  0
   -5.0280    0.1900    0.2000 C   0  0  0  0  0  0  0  0  0  0  0  0
   -4.2190   -1.0740    0.1540 C   0  0  2  0  0  0  0  0  0  0  0  0
   -2.7680   -0.7360    0.2660 C   0  0  0  0  0  0  0  0  0  0  0  0
   -2.4990    0.7370    0.0670 C   0  0  1  0  0  0  0  0  0  0  0  0
   -1.0230    0.9720    0.0060 C   0  0  0  0  0  0  0  0  0  0  0  0
   -0.4890    1.6100    0.9180 O   0  0  0  0  0  0  0  0  0  0  0  0
   -0.2070    0.5060   -1.0340 N   0  0  0  0  0  0  0  0  0  0  0  0
    1.1500    0.5870   -1.3260 C   0  0  0  0  0  0  0  0  0  0  0  0
    2.2380    0.1110   -0.4960 C   0  0  1  0  0  0  0  0  0  0  0  0
    3.5190    0.3950   -1.4290 C   0  0  0  0  0  0  0  0  0  0  0  0
    2.6750    0.7900    0.7360 C   0  0  0  0  0  0  0  0  0  0  0  0
    3.2200    2.1020    0.7050 N   0  0  0  0  0  0  0  0  0  0  0  0
    2.6800    3.3390    0.3110 C   0  0  0  0  0  0  0  0  0  0  0  0
    1.5160    3.4080   -0.0930 O   0  0  0  0  0  0  0  0  0  0  0  0
    3.4390    4.5900    0.3540 C   0  0  0  0  0  0  0  0  0  0  0  0
    4.6780    4.8240    0.7320 C   0  0  0  0  0  0  0  0  0  0  0  0
    5.1240    6.1670    0.6530 C   0  0  0  0  0  0  0  0  0  0  0  0
    4.2690    7.0610    0.2130 C   0  0  0  0  0  0  0  0  0  0  0  0
    2.8110    6.1470   -0.1230 S   0  0  1  0  0  0  0  0  0  0  0  0
    2.4470    6.1940   -1.5770 O   0  0  0  0  0  0  0  0  0  0  0  0
    1.6770    6.5940    0.7440 O   0  0  0  0  0  0  0  0  0  0  0  0
    2.2620   -1.3810   -0.4120 C   0  0  0  0  0  0  0  0  0  0  0  0
    1.2560   -1.9550   -0.8900 O   0  0  0  0  0  0  0  0  0  0  0  0
    3.2820   -2.1510    0.1400 N   0  0  0  0  0  0  0  0  0  0  0  0
    3.3400   -3.5650    0.2440 C   0  0  0  0  0  0  0  0  0  0  0  0
    2.3940   -4.4470   -0.1840 C   0  0  0  0  0  0  0  0  0  0  0  0
    2.5060   -5.8370   -0.0550 C   0  0  0  0  0  0  0  0  0  0  0  0
    3.6330   -6.3710    0.5380 C   0  0  0  0  0  0  0  0  0  0  0  0
    4.6070   -5.5030    0.9810 C   0  0  0  0  0  0  0  0  0  0  0  0
    4.4700   -4.1400    0.8400 C   0  0  0  0  0  0  0  0  0  0  0  0
    5.6190   -3.5690    1.3860 O   0  0  0  0  0  0  0  0  0  0  0  0
    6.1960   -4.5600    2.2390 C   0  0  0  0  0  0  0  0  0  0  0  0
    5.8180   -5.7640    1.6010 O   0  0  0  0  0  0  0  0  0  0  0  0
   -4.4170   -1.6970   -1.0740 O   0  0  0  0  0  0  0  0  0  0  0  0
   -5.4930   -2.5610   -0.9220 C   0  0  0  0  0  0  0  0  0  0  0  0
   -5.2050   -3.2130    0.4250 C   0  0  0  0  0  0  0  0  0  0  0  0
   -4.7050   -2.0040    1.2140 C   0  0  2  0  0  0  0  0  0  0  0  0
   -5.8970   -1.4820    1.9860 C   0  0  0  0  0  0  0  0  0  0  0  0
  1  2  1  0
  3  2  1  1
  3  4  1  0
  3  8  1  0
  4  5  1  0
  6  5  1  6
  6  7  1  0
  6 38  1  0
  6 41  1  0
  7  8  1  0
  8  9  1  6
  9 10  2  0
  9 11  1  0
 11 12  1  0
 12 13  1  0
 13 14  1  6
 13 15  1  0
 13 26  1  0
 15 16  1  0
 16 17  1  0
 17 18  2  0
 17 19  1  0
 19 20  2  0
 19 23  1  0
 20 21  1  0
 21 22  2  0
 23 22  1  6
 23 24  2  0
 23 25  2  0
 26 27  2  0
 26 28  1  0
 28 29  1  0
 29 30  2  0
 29 34  1  0
 30 31  1  0
 31 32  2  0
 32 33  1  0
 33 34  2  0
 33 37  1  0
 34 35  1  0
 35 36  1  0
 36 37  1  0
 38 39  1  0
 39 40  1  0
 40 41  1  0
 41 42  1  6
M  END
