
     RDKit          3D

 42 45  0  0  0  0  0  0  0  0999 V2000
   10.2680   -1.3900    1.0200 C   0  0  0  0  0  0  0  0  0  0  0  0
    9.5400   -1.5420   -0.3000 C   0  0  0  0  0  0  0  0  0  0  0  0
    8.1600   -0.8970   -0.1640 C   0  0  0  0  0  0  0  0  0  0  0  0
    7.4230   -1.0400   -1.4590 C   0  0  2  0  0  0  0  0  0  0  0  0
    8.2080   -0.3980   -2.4530 O   0  0  0  0  0  0  0  0  0  0  0  0
    6.1030   -0.2240   -1.3530 C   0  0  1  0  0  0  0  0  0  0  0  0
    5.5480   -0.2790   -2.6360 O   0  0  0  0  0  0  0  0  0  0  0  0
    5.1850   -0.8480   -0.3810 C   0  0  0  0  0  0  0  0  0  0  0  0
    3.8910   -0.2410   -0.0740 C   0  0  1  0  0  0  0  0  0  0  0  0
    4.1380    1.0800    0.4150 O   0  0  0  0  0  0  0  0  0  0  0  0
    2.7450   -0.1850   -0.9550 C   0  0  1  0  0  0  0  0  0  0  0  0
    2.8520    0.5380   -2.2470 C   0  0  0  0  0  0  0  0  0  0  0  0
    1.4190    1.0850   -2.5300 C   0  0  0  0  0  0  0  0  0  0  0  0
    0.4930    0.1970   -1.8150 N   0  0  0  0  0  0  0  0  0  0  0  0
   -0.5720    0.6880   -1.0380 C   0  0  0  0  0  0  0  0  0  0  0  0
   -0.6830    1.9470   -0.9540 O   0  0  0  0  0  0  0  0  0  0  0  0
   -1.5470   -0.1670   -0.3330 C   0  0  0  0  0  0  0  0  0  0  0  0
   -2.3060    0.7240    0.6610 C   0  0  0  0  0  0  0  0  0  0  0  0
   -3.3120    0.0060    1.3930 N   0  0  0  0  0  0  0  0  0  0  0  0
   -2.9130   -0.6350    2.5960 C   0  0  0  0  0  0  0  0  0  0  0  0
   -1.7080   -0.5860    3.0280 O   0  0  0  0  0  0  0  0  0  0  0  0
   -3.8140   -1.3920    3.4360 C   0  0  0  0  0  0  0  0  0  0  0  0
   -4.0920   -2.7360    3.3550 C   0  0  0  0  0  0  0  0  0  0  0  0
   -5.0070   -2.9900    4.3640 C   0  0  0  0  0  0  0  0  0  0  0  0
   -5.2630   -1.8840    5.0070 O   0  0  0  0  0  0  0  0  0  0  0  0
   -4.5680   -0.9080    4.4800 C   0  0  0  0  0  0  0  0  0  0  0  0
   -4.6440    0.5010    5.0000 C   0  0  0  0  0  0  0  0  0  0  0  0
   -4.6980   -0.1060    1.0110 C   0  0  2  0  0  0  0  0  0  0  0  0
   -4.7820   -0.9070   -0.6100 S   0  0  0  0  0  0  0  0  0  0  0  0
   -5.9160    0.2740   -1.3960 C   0  0  0  0  0  0  0  0  0  0  0  0
   -6.2630    0.2980   -2.6620 C   0  0  0  0  0  0  0  0  0  0  0  0
   -7.1900    1.3280   -3.1270 C   0  0  0  0  0  0  0  0  0  0  0  0
   -7.1590    2.6840   -2.8360 C   0  0  0  0  0  0  0  0  0  0  0  0
   -8.2330    3.2690   -3.4900 C   0  0  0  0  0  0  0  0  0  0  0  0
   -8.8660    2.2560   -4.1440 C   0  0  0  0  0  0  0  0  0  0  0  0
   -8.2220    1.1480   -3.9030 O   0  0  0  0  0  0  0  0  0  0  0  0
   -6.3050    1.1010   -0.2630 C   0  0  0  0  0  0  0  0  0  0  0  0
   -7.4520    1.7040   -0.2360 O   0  0  0  0  0  0  0  0  0  0  0  0
   -5.3270    1.1620    0.7570 N   0  0  0  0  0  0  0  0  0  0  0  0
   -5.0140    2.3810    1.4880 C   0  0  0  0  0  0  0  0  0  0  0  0
    0.7760   -1.2410   -1.9530 C   0  0  0  0  0  0  0  0  0  0  0  0
    2.0670   -1.5460   -1.1880 C   0  0  0  0  0  0  0  0  0  0  0  0
  1  2  1  0
  2  3  1  0
  3  4  1  0
  4  5  1  6
  4  6  1  0
  6  7  1  6
  6  8  1  0
  8  9  1  0
  9 10  1  6
  9 11  1  0
 11 12  1  6
 11 42  1  0
 12 13  1  0
 13 14  1  0
 14 15  1  0
 14 41  1  0
 15 16  2  0
 15 17  1  0
 17 18  1  0
 18 19  1  0
 19 20  1  0
 28 19  1  6
 20 21  2  0
 20 22  1  0
 22 23  1  0
 22 26  2  0
 23 24  2  0
 24 25  1  0
 25 26  1  0
 26 27  1  0
 28 29  1  0
 28 39  1  0
 29 30  1  0
 30 31  2  3
 30 37  1  0
 31 32  1  0
 32 33  2  0
 32 36  1  0
 33 34  1  0
 34 35  2  0
 35 36  1  0
 37 38  2  0
 37 39  1  0
 39 40  1  0
 41 42  1  0
M  END
