
     RDKit          3D

 37 41  0  0  0  0  0  0  0  0999 V2000
   -3.9600    2.1470   -1.0510 C   0  0  0  0  0  0  0  0  0  0  0  0
   -2.6790    1.7350   -0.4720 C   0  0  0  0  0  0  0  0  0  0  0  0
   -1.6360    2.4740   -0.5850 N   0  0  0  0  0  0  0  0  0  0  0  0
   -0.3420    2.2180   -0.0730 C   0  0  2  0  0  0  0  0  0  0  0  0
    0.7140    2.9170   -0.8380 C   0  0  0  0  0  0  0  0  0  0  0  0
    0.7320    3.0750   -2.2070 C   0  0  0  0  0  0  0  0  0  0  0  0
    1.7170    3.7640   -2.8570 C   0  0  0  0  0  0  0  0  0  0  0  0
    2.7440    4.3310   -2.1140 C   0  0  0  0  0  0  0  0  0  0  0  0
    2.7740    4.2050   -0.7660 C   0  0  0  0  0  0  0  0  0  0  0  0
    3.8950    4.8370   -0.0160 C   0  0  0  0  0  0  0  0  0  0  0  0
    1.7650    3.5030   -0.1330 C   0  0  0  0  0  0  0  0  0  0  0  0
   -0.1130    0.9040    0.3550 N   0  0  0  0  0  0  0  0  0  0  0  0
    1.1210    0.3130    0.6370 N   0  0  0  0  0  0  0  0  0  0  0  0
    2.0340    0.0170   -0.3830 C   0  0  0  0  0  0  0  0  0  0  0  0
    1.8640    0.2430   -1.6040 O   0  0  0  0  0  0  0  0  0  0  0  0
    3.3060   -0.6060    0.0070 C   0  0  0  0  0  0  0  0  0  0  0  0
    4.4680    0.1260   -0.0420 C   0  0  0  0  0  0  0  0  0  0  0  0
    5.6490   -0.4510    0.3910 C   0  0  0  0  0  0  0  0  0  0  0  0
    5.7330   -1.7370    0.8780 C   0  0  0  0  0  0  0  0  0  0  0  0
    4.5510   -2.4770    0.9260 C   0  0  0  0  0  0  0  0  0  0  0  0
    4.3720   -3.7450    1.3330 N   0  0  0  0  0  0  0  0  0  0  0  0
    3.0720   -3.9980    1.1630 C   0  0  0  0  0  0  0  0  0  0  0  0
    2.4150   -2.8940    0.6480 C   0  0  0  0  0  0  0  0  0  0  0  0
    3.3820   -1.9100    0.4990 C   0  0  0  0  0  0  0  0  0  0  0  0
   -1.2330    0.0220    0.5590 C   0  0  0  0  0  0  0  0  0  0  0  0
   -1.0730   -1.1790    1.1630 C   0  0  0  0  0  0  0  0  0  0  0  0
   -2.1670   -1.9810    1.3520 C   0  0  0  0  0  0  0  0  0  0  0  0
   -1.9920   -3.1080    1.9270 O   0  0  0  0  0  0  0  0  0  0  0  0
   -3.4030   -1.6210    0.9600 N   0  0  0  0  0  0  0  0  0  0  0  0
   -4.5160   -2.4990    1.1750 C   0  0  0  0  0  0  0  0  0  0  0  0
   -4.9210   -3.4200    0.1040 C   0  0  0  0  0  0  0  0  0  0  0  0
   -3.8760   -4.3900   -0.3210 C   0  0  1  0  0  0  0  0  0  0  0  0
   -2.7380   -3.8420   -0.8250 F   0  0  0  0  0  0  0  0  0  0  0  0
   -3.6620   -5.3180    0.6880 F   0  0  0  0  0  0  0  0  0  0  0  0
   -3.6010   -0.4040    0.3450 C   0  0  0  0  0  0  0  0  0  0  0  0
   -4.9350    0.0150   -0.0580 C   0  0  0  0  0  0  0  0  0  0  0  0
   -2.5180    0.4270    0.1400 C   0  0  0  0  0  0  0  0  0  0  0  0
  1  2  1  0
  2  3  2  0
  2 37  1  0
  3  4  1  0
  4  5  1  6
  4 12  1  0
  5  6  2  0
  5 11  1  0
  6  7  1  0
  7  8  2  0
  8  9  1  0
  9 10  1  0
  9 11  2  0
 12 13  1  0
 12 25  1  0
 13 14  1  0
 14 15  2  0
 14 16  1  0
 16 17  2  0
 16 24  1  0
 17 18  1  0
 18 19  2  0
 19 20  1  0
 20 21  1  0
 20 24  2  0
 21 22  1  0
 22 23  2  0
 23 24  1  0
 25 26  2  0
 25 37  1  0
 26 27  1  0
 27 28  2  0
 27 29  1  0
 29 30  1  0
 29 35  1  0
 30 31  1  0
 31 32  1  0
 32 33  1  1
 32 34  1  0
 35 36  1  0
 35 37  2  0
M  END
