
     RDKit          3D

 37 41  0  0  0  0  0  0  0  0999 V2000
   -8.5430    0.8910    2.1120 C   0  0  0  0  0  0  0  0  0  0  0  0
   -7.3110    1.1720    1.2800 C   0  0  2  0  0  0  0  0  0  0  0  0
   -7.6950    1.5270   -0.1540 C   0  0  0  0  0  0  0  0  0  0  0  0
   -6.4160    2.0990   -0.7800 C   0  0  0  0  0  0  0  0  0  0  0  0
   -5.6070    0.9340   -1.2460 C   0  0  0  0  0  0  0  0  0  0  0  0
   -4.5210    0.5370   -0.2790 C   0  0  1  0  0  0  0  0  0  0  0  0
   -3.4000    1.3440   -0.3540 O   0  0  0  0  0  0  0  0  0  0  0  0
   -2.1110    1.0280   -0.6710 C   0  0  0  0  0  0  0  0  0  0  0  0
   -1.1490    2.0470   -0.6740 C   0  0  0  0  0  0  0  0  0  0  0  0
    0.1720    1.8160   -0.9820 C   0  0  0  0  0  0  0  0  0  0  0  0
    0.6130    0.5520   -1.3060 C   0  0  0  0  0  0  0  0  0  0  0  0
   -0.3120   -0.4650   -1.3100 C   0  0  0  0  0  0  0  0  0  0  0  0
   -1.6570   -0.2280   -0.9960 C   0  0  0  0  0  0  0  0  0  0  0  0
    0.4130   -1.7000   -1.6890 C   0  0  0  0  0  0  0  0  0  0  0  0
    1.7750   -1.3980   -1.3210 N   0  0  0  0  0  0  0  0  0  0  0  0
    2.7010   -2.3230   -0.7340 C   0  0  0  0  0  0  0  0  0  0  0  0
    2.3190   -3.4800   -0.5160 O   0  0  0  0  0  0  0  0  0  0  0  0
    4.0260   -1.9420   -0.4020 N   0  0  0  0  0  0  0  0  0  0  0  0
    5.0380   -2.7250    0.1690 C   0  0  0  0  0  0  0  0  0  0  0  0
    4.8870   -4.0710    0.4060 C   0  0  0  0  0  0  0  0  0  0  0  0
    5.9030   -4.8640    0.9560 C   0  0  0  0  0  0  0  0  0  0  0  0
    7.0990   -4.3070    1.2790 C   0  0  0  0  0  0  0  0  0  0  0  0
    8.1280   -5.0430    1.8220 F   0  0  0  0  0  0  0  0  0  0  0  0
    7.2670   -2.9670    1.0500 C   0  0  0  0  0  0  0  0  0  0  0  0
    6.2520   -2.1690    0.4990 C   0  0  0  0  0  0  0  0  0  0  0  0
    6.5480   -0.7670    0.3110 C   0  0  0  0  0  0  0  0  0  0  0  0
    7.7950   -0.1940    0.5960 C   0  0  0  0  0  0  0  0  0  0  0  0
    7.7160    1.1220    0.3010 N   0  0  0  0  0  0  0  0  0  0  0  0
    6.4890    1.4110   -0.1540 C   0  0  0  0  0  0  0  0  0  0  0  0
    6.0670    2.7640   -0.5670 C   0  0  0  0  0  0  0  0  0  0  0  0
    5.4820    3.5530    0.5870 C   0  0  0  0  0  0  0  0  0  0  0  0
    5.1210    4.8010    0.0870 F   0  0  0  0  0  0  0  0  0  0  0  0
    5.8120    0.2620   -0.1370 N   0  0  0  0  0  0  0  0  0  0  0  0
    1.9600   -0.0040   -1.6760 C   0  0  0  0  0  0  0  0  0  0  0  0
   -4.9930    0.5200    1.1520 C   0  0  0  0  0  0  0  0  0  0  0  0
   -6.3390    0.1440    1.3350 N   0  0  0  0  0  0  0  0  0  0  0  0
   -6.7280   -1.1310    0.8740 C   0  0  0  0  0  0  0  0  0  0  0  0
  2  1  1  1
  2  3  1  0
  2 36  1  0
  3  4  1  0
  4  5  1  0
  5  6  1  0
  6  7  1  1
  6 35  1  0
  7  8  1  0
  8  9  2  0
  8 13  1  0
  9 10  1  0
 10 11  2  0
 11 12  1  0
 11 34  1  0
 12 13  2  0
 12 14  1  0
 14 15  1  0
 15 16  1  0
 15 34  1  0
 16 17  2  0
 16 18  1  0
 18 19  1  0
 19 20  2  0
 19 25  1  0
 20 21  1  0
 21 22  2  0
 22 23  1  0
 22 24  1  0
 24 25  2  0
 25 26  1  0
 26 27  2  0
 26 33  1  0
 27 28  1  0
 28 29  1  0
 29 30  1  0
 29 33  2  0
 30 31  1  0
 31 32  1  0
 35 36  1  0
 36 37  1  0
M  END
