
     RDKit          3D

 36 36  0  0  0  0  0  0  0  0999 V2000
    6.8160    0.8630   -1.6410 C   0  0  0  0  0  0  0  0  0  0  0  0
    5.6600    0.5830   -1.1050 O   0  0  0  0  0  0  0  0  0  0  0  0
    4.4960    0.3020   -0.5660 C   0  0  0  0  0  0  0  0  0  0  0  0
    3.8630   -0.7050   -1.2420 C   0  0  0  0  0  0  0  0  0  0  0  0
    4.6400   -1.1740   -2.3810 O   0  0  0  0  0  0  0  0  0  0  0  0
    2.6500   -1.3850   -1.0630 C   0  0  0  0  0  0  0  0  0  0  0  0
    1.7820   -1.2620   -0.1820 O   0  0  0  0  0  0  0  0  0  0  0  0
    2.2630   -2.4170   -2.0120 O   0  0  0  0  0  0  0  0  0  0  0  0
    3.9260    0.9690    0.5740 C   0  0  0  0  0  0  0  0  0  0  0  0
    2.5310    0.6460    0.9400 O   0  0  0  0  0  0  0  0  0  0  0  0
    1.7150    1.7670    0.5320 C   0  0  0  0  0  0  0  0  0  0  0  0
    0.2780    1.6560    0.9080 C   0  0  2  0  0  0  0  0  0  0  0  0
    0.0290    1.4710    2.2580 O   0  0  0  0  0  0  0  0  0  0  0  0
   -0.4930    0.8330   -0.0090 C   0  0  0  0  0  0  0  0  0  0  0  0
   -0.1980    0.8400   -1.2340 O   0  0  0  0  0  0  0  0  0  0  0  0
   -1.5610    0.0170    0.3570 O   0  0  0  0  0  0  0  0  0  0  0  0
   -2.3070   -0.7790   -0.5060 C   0  0  2  0  0  0  0  0  0  0  0  0
   -3.6680   -0.1340   -0.6250 C   0  0  0  0  0  0  0  0  0  0  0  0
   -4.5050   -0.7020   -1.3560 O   0  0  0  0  0  0  0  0  0  0  0  0
   -4.0080    1.0250    0.0250 O   0  0  0  0  0  0  0  0  0  0  0  0
   -5.2900    1.6250   -0.0960 C   0  0  0  0  0  0  0  0  0  0  0  0
   -5.3550    2.8820    0.7340 C   0  0  0  0  0  0  0  0  0  0  0  0
   -5.1320    2.6370    2.0810 O   0  0  0  0  0  0  0  0  0  0  0  0
   -2.5490   -2.1830   -0.1030 C   0  0  2  0  0  0  0  0  0  0  0  0
   -3.2300   -2.3300    1.2360 C   0  0  1  0  0  0  0  0  0  0  0  0
   -4.4680   -1.6950    1.1690 O   0  0  0  0  0  0  0  0  0  0  0  0
   -3.4360   -3.6650    1.5560 O   0  0  0  0  0  0  0  0  0  0  0  0
   -1.3220   -3.0860   -0.1930 C   0  0  0  0  0  0  0  0  0  0  0  0
   -1.1770   -3.1590   -1.5800 O   0  0  0  0  0  0  0  0  0  0  0  0
   -2.4360   -3.0860   -2.1210 C   0  0  0  0  0  0  0  0  0  0  0  0
   -3.3290   -2.7690   -1.1220 O   0  0  0  0  0  0  0  0  0  0  0  0
    4.3750    1.8600    1.3940 C   0  0  0  0  0  0  0  0  0  0  0  0
    3.4440    2.2650    2.4300 O   0  0  0  0  0  0  0  0  0  0  0  0
    5.6140    2.5190    1.4770 C   0  0  0  0  0  0  0  0  0  0  0  0
    6.5970    2.3810    0.7510 O   0  0  0  0  0  0  0  0  0  0  0  0
    5.7720    3.4850    2.5420 O   0  0  0  0  0  0  0  0  0  0  0  0
  1  2  1  0
  2  3  1  0
  3  4  2  3
  3  9  1  0
  4  5  1  0
  4  6  1  0
  6  7  2  0
  6  8  1  0
  9 10  1  0
  9 32  2  3
 10 11  1  0
 11 12  1  0
 12 13  1  1
 12 14  1  0
 14 15  2  0
 14 16  1  0
 17 16  1  1
 17 18  1  0
 17 24  1  0
 18 19  2  0
 18 20  1  0
 20 21  1  0
 21 22  1  0
 22 23  1  0
 24 25  1  0
 24 28  1  1
 24 31  1  0
 25 26  1  6
 25 27  1  0
 28 29  1  0
 29 30  1  0
 30 31  1  0
 32 33  1  0
 32 34  1  0
 34 35  2  0
 34 36  1  0
M  CHG  1  36  -1
M  END
