
     RDKit          3D

 38 41  0  0  0  0  0  0  0  0999 V2000
   -6.4000    0.2080    3.2060 C   0  0  0  0  0  0  0  0  0  0  0  0
   -6.1680    0.3820    1.8560 O   0  0  0  0  0  0  0  0  0  0  0  0
   -5.0830    1.2160    1.5890 C   0  0  2  0  0  0  0  0  0  0  0  0
   -5.3260    2.5260    2.3020 C   0  0  0  0  0  0  0  0  0  0  0  0
   -4.9420    1.3830    0.1070 C   0  0  0  0  0  0  0  0  0  0  0  0
   -3.5720    1.1860   -0.3690 N   0  0  0  0  0  0  0  0  0  0  0  0
   -3.1230    2.0270   -1.3940 C   0  0  0  0  0  0  0  0  0  0  0  0
   -4.0600    2.8840   -1.7610 O   0  0  0  0  0  0  0  0  0  0  0  0
   -1.8800    2.1180   -2.0860 C   0  0  0  0  0  0  0  0  0  0  0  0
   -1.7700    3.0970   -3.0870 C   0  0  0  0  0  0  0  0  0  0  0  0
   -0.6180    3.2630   -3.8110 C   0  0  0  0  0  0  0  0  0  0  0  0
   -0.5400    4.2210   -4.7760 F   0  0  0  0  0  0  0  0  0  0  0  0
    0.4790    2.4870   -3.5960 C   0  0  0  0  0  0  0  0  0  0  0  0
    1.7410    2.6710   -4.3920 C   0  0  0  0  0  0  0  0  0  0  0  0
    0.4330    1.4880   -2.6060 C   0  0  0  0  0  0  0  0  0  0  0  0
    1.5870    0.7160   -2.4260 N   0  0  0  0  0  0  0  0  0  0  0  0
    1.7740   -0.3200   -1.4920 C   0  0  0  0  0  0  0  0  0  0  0  0
    0.8460   -0.6240   -0.7160 O   0  0  0  0  0  0  0  0  0  0  0  0
    3.0930   -1.0590   -1.4290 C   0  0  0  0  0  0  0  0  0  0  0  0
    3.1200   -1.8900   -0.1780 C   0  0  1  0  0  0  0  0  0  0  0  0
    4.4170   -2.6960   -0.1040 C   0  0  0  0  0  0  0  0  0  0  0  0
    5.5100   -2.0280    0.5840 C   0  0  0  0  0  0  0  0  0  0  0  0
    6.6020   -2.7420    0.8480 C   0  0  0  0  0  0  0  0  0  0  0  0
    6.7280   -4.1280    0.4780 C   0  0  0  0  0  0  0  0  0  0  0  0
    7.7920   -4.7460    0.7600 O   0  0  0  0  0  0  0  0  0  0  0  0
    5.4740   -0.5910    1.0010 C   0  0  0  0  0  0  0  0  0  0  0  0
    6.4660    0.2750    1.1560 C   0  0  0  0  0  0  0  0  0  0  0  0
    6.1730    1.5790    1.5540 C   0  0  0  0  0  0  0  0  0  0  0  0
    4.3760    1.5320    1.7050 S   0  0  0  0  0  0  0  0  0  0  0  0
    4.1580   -0.1650    1.2420 C   0  0  0  0  0  0  0  0  0  0  0  0
    3.0100   -1.0480    1.0880 C   0  0  0  0  0  0  0  0  0  0  0  0
   -0.7520    1.3620   -1.9050 C   0  0  0  0  0  0  0  0  0  0  0  0
   -2.7710    0.1520    0.2250 C   0  0  0  0  0  0  0  0  0  0  0  0
   -3.6500   -0.4750    1.3360 C   0  0  1  0  0  0  0  0  0  0  0  0
   -2.9440   -1.5400    2.0980 C   0  0  0  0  0  0  0  0  0  0  0  0
   -2.5330   -2.6550    1.1730 C   0  0  0  0  0  0  0  0  0  0  0  0
   -1.8680   -3.6700    1.9180 O   0  0  0  0  0  0  0  0  0  0  0  0
   -3.9660    0.6260    2.1690 O   0  0  0  0  0  0  0  0  0  0  0  0
  1  2  1  0
  2  3  1  0
  3  4  1  1
  3  5  1  0
  3 38  1  0
  5  6  1  0
  6  7  1  0
  6 33  1  0
  7  8  2  0
  7  9  1  0
  9 10  2  0
  9 32  1  0
 10 11  1  0
 11 12  1  0
 11 13  2  0
 13 14  1  0
 13 15  1  0
 15 16  1  0
 15 32  2  0
 16 17  1  0
 17 18  2  0
 17 19  1  0
 20 19  1  6
 20 21  1  0
 20 31  1  0
 21 22  1  0
 22 23  2  3
 22 26  1  0
 23 24  1  0
 24 25  2  0
 26 27  1  0
 26 30  2  0
 27 28  2  0
 28 29  1  0
 29 30  1  0
 30 31  1  0
 33 34  1  0
 34 35  1  1
 34 38  1  0
 35 36  1  0
 36 37  1  0
M  END
