
     RDKit          3D

 37 40  0  0  0  0  0  0  0  0999 V2000
   -5.2370   -3.2190    0.7830 C   0  0  0  0  0  0  0  0  0  0  0  0
   -3.9900   -3.0290   -0.0250 C   0  0  2  0  0  0  0  0  0  0  0  0
   -4.2740   -2.9730   -1.5140 C   0  0  0  0  0  0  0  0  0  0  0  0
   -2.9640   -4.1250    0.2620 C   0  0  0  0  0  0  0  0  0  0  0  0
   -3.3610   -1.7260    0.3620 C   0  0  0  0  0  0  0  0  0  0  0  0
   -2.9820   -1.6520    1.8230 C   0  0  0  0  0  0  0  0  0  0  0  0
   -2.3620   -0.2650    2.0260 C   0  0  1  0  0  0  0  0  0  0  0  0
   -1.2410   -0.1860    1.1800 O   0  0  0  0  0  0  0  0  0  0  0  0
    0.0510   -0.0490    1.6060 C   0  0  0  0  0  0  0  0  0  0  0  0
    0.3020    0.0160    2.8150 O   0  0  0  0  0  0  0  0  0  0  0  0
    1.1250    0.0200    0.6260 C   0  0  0  0  0  0  0  0  0  0  0  0
    0.8680   -0.0500   -0.7470 C   0  0  0  0  0  0  0  0  0  0  0  0
    1.8860    0.0130   -1.6690 C   0  0  0  0  0  0  0  0  0  0  0  0
    3.1860    0.1470   -1.2680 C   0  0  0  0  0  0  0  0  0  0  0  0
    4.2250    0.2130   -2.1570 C   0  0  0  0  0  0  0  0  0  0  0  0
    5.5370    0.3480   -1.7330 C   0  0  0  0  0  0  0  0  0  0  0  0
    5.7670    0.4140   -0.4130 N   0  0  0  0  0  0  0  0  0  0  0  0
    7.1620    0.5720    0.0300 C   0  0  0  0  0  0  0  0  0  0  0  0
    7.8430   -0.7170    0.3130 C   0  0  1  0  0  0  0  0  0  0  0  0
    7.8940   -1.6060   -0.8840 C   0  0  0  0  0  0  0  0  0  0  0  0
    9.0200   -1.0070   -1.7060 C   0  0  0  0  0  0  0  0  0  0  0  0
    9.7670   -0.1880   -0.7030 C   0  0  0  0  0  0  0  0  0  0  0  0
    9.1940   -0.4470    0.5390 O   0  0  0  0  0  0  0  0  0  0  0  0
    4.7790    0.3540    0.5080 C   0  0  0  0  0  0  0  0  0  0  0  0
    5.0130    0.4170    1.7280 O   0  0  0  0  0  0  0  0  0  0  0  0
    3.4790    0.2200    0.0800 C   0  0  0  0  0  0  0  0  0  0  0  0
    2.4420    0.1550    1.0080 C   0  0  0  0  0  0  0  0  0  0  0  0
   -3.3630    0.7940    1.7870 C   0  0  0  0  0  0  0  0  0  0  0  0
   -4.3920    0.7500    2.5410 O   0  0  0  0  0  0  0  0  0  0  0  0
   -3.2660    1.8120    0.8190 N   0  0  0  0  0  0  0  0  0  0  0  0
   -4.3240    2.7750    0.7040 C   0  0  1  0  0  0  0  0  0  0  0  0
   -3.8620    4.2000    0.9850 C   0  0  0  0  0  0  0  0  0  0  0  0
   -5.2600    5.2590    0.4400 S   0  0  0  0  0  0  0  0  0  0  0  0
   -6.6980    4.1270    0.3070 C   0  0  0  0  0  0  0  0  0  0  0  0
   -6.4000    2.9540   -0.5750 C   0  0  1  0  0  0  0  0  0  0  0  0
   -7.0560    2.9720   -1.7850 O   0  0  0  0  0  0  0  0  0  0  0  0
   -4.9040    2.8080   -0.7170 C   0  0  0  0  0  0  0  0  0  0  0  0
  2  1  1  1
  2  3  1  0
  2  4  1  0
  2  5  1  0
  5  6  1  0
  7  6  1  6
  7  8  1  0
  7 28  1  0
  8  9  1  0
  9 10  2  0
  9 11  1  0
 11 12  2  0
 11 27  1  0
 12 13  1  0
 13 14  2  0
 14 15  1  0
 14 26  1  0
 15 16  2  0
 16 17  1  0
 17 18  1  0
 17 24  1  0
 19 18  1  6
 19 20  1  0
 19 23  1  0
 20 21  1  0
 21 22  1  0
 22 23  1  0
 24 25  2  0
 24 26  1  0
 26 27  2  0
 28 29  2  0
 28 30  1  0
 31 30  1  6
 31 32  1  0
 31 37  1  0
 32 33  1  0
 33 34  1  0
 34 35  1  0
 35 36  1  6
 35 37  1  0
M  END
