
     RDKit          3D

 38 40  0  0  0  0  0  0  0  0999 V2000
   -0.3350    0.0060    2.9990 C   0  0  0  0  0  0  0  0  0  0  0  0
   -0.9020    0.3090    1.6300 C   0  0  1  0  0  0  0  0  0  0  0  0
   -0.5040    1.7390    1.3140 C   0  0  0  0  0  0  0  0  0  0  0  0
   -0.6430   -0.6470    0.5620 C   0  0  0  0  0  0  0  0  0  0  0  0
   -1.4030   -0.7220   -0.5790 C   0  0  0  0  0  0  0  0  0  0  0  0
   -2.5300   -0.0030   -1.1230 C   0  0  0  0  0  0  0  0  0  0  0  0
   -2.9720   -0.3860   -2.3030 O   0  0  0  0  0  0  0  0  0  0  0  0
   -3.2250    1.0490   -0.5770 N   0  0  0  0  0  0  0  0  0  0  0  0
   -4.3590    1.6990   -1.2560 C   0  0  2  0  0  0  0  0  0  0  0  0
   -3.9850    3.1290   -1.6090 C   0  0  0  0  0  0  0  0  0  0  0  0
   -3.6640    3.8920   -0.5030 O   0  0  0  0  0  0  0  0  0  0  0  0
   -5.5200    1.7340   -0.3490 C   0  0  0  0  0  0  0  0  0  0  0  0
   -5.9000    0.5830    0.3360 C   0  0  0  0  0  0  0  0  0  0  0  0
   -6.9800    0.5870    1.1940 C   0  0  0  0  0  0  0  0  0  0  0  0
   -7.7200    1.7280    1.4050 C   0  0  0  0  0  0  0  0  0  0  0  0
   -7.3620    2.8870    0.7360 C   0  0  0  0  0  0  0  0  0  0  0  0
   -6.2830    2.8580   -0.1130 C   0  0  0  0  0  0  0  0  0  0  0  0
   -0.8770   -1.7540   -1.3100 N   0  0  0  0  0  0  0  0  0  0  0  0
    0.1760   -2.2900   -0.6280 C   0  0  0  0  0  0  0  0  0  0  0  0
    0.9510   -3.4160   -1.1580 C   0  0  0  0  0  0  0  0  0  0  0  0
    1.0000   -3.5500   -2.5560 C   0  0  0  0  0  0  0  0  0  0  0  0
    1.6180   -4.6180   -3.1610 C   0  0  0  0  0  0  0  0  0  0  0  0
    2.2160   -5.6040   -2.4250 C   0  0  0  0  0  0  0  0  0  0  0  0
    2.8310   -6.6600   -3.0300 F   0  0  0  0  0  0  0  0  0  0  0  0
    2.1800   -5.4980   -1.0600 C   0  0  0  0  0  0  0  0  0  0  0  0
    1.5460   -4.4040   -0.4540 C   0  0  0  0  0  0  0  0  0  0  0  0
    0.3360   -1.6210    0.5090 N   0  0  0  0  0  0  0  0  0  0  0  0
    1.4100   -1.6870    1.4620 C   0  0  0  0  0  0  0  0  0  0  0  0
    2.4810   -0.6090    1.2400 C   0  0  0  0  0  0  0  0  0  0  0  0
    3.1370   -0.6740   -0.1080 C   0  0  1  0  0  0  0  0  0  0  0  0
    2.1150   -0.4800   -1.0740 O   0  0  0  0  0  0  0  0  0  0  0  0
    4.0300    0.5510   -0.2800 C   0  0  0  0  0  0  0  0  0  0  0  0
    5.0980    0.6330    0.7570 C   0  0  1  0  0  0  0  0  0  0  0  0
    5.9260   -0.5070    0.6960 O   0  0  0  0  0  0  0  0  0  0  0  0
    5.8730    1.9060    0.6550 C   0  0  0  0  0  0  0  0  0  0  0  0
    6.5700    2.1480   -0.6060 C   0  0  0  0  0  0  0  0  0  0  0  0
    6.0350    2.1310   -1.7610 O   0  0  0  0  0  0  0  0  0  0  0  0
    7.9480    2.4290   -0.6200 O   0  0  0  0  0  0  0  0  0  0  0  0
  2  1  1  1
  2  3  1  0
  2  4  1  0
  4  5  2  0
  4 27  1  0
  5  6  1  0
  5 18  1  0
  6  7  2  0
  6  8  1  0
  8  9  1  0
  9 10  1  1
  9 12  1  0
 10 11  1  0
 12 13  2  0
 12 17  1  0
 13 14  1  0
 14 15  2  0
 15 16  1  0
 16 17  2  0
 18 19  2  0
 19 20  1  0
 19 27  1  0
 20 21  2  0
 20 26  1  0
 21 22  1  0
 22 23  2  0
 23 24  1  0
 23 25  1  0
 25 26  2  0
 27 28  1  0
 28 29  1  0
 29 30  1  0
 30 31  1  6
 30 32  1  0
 32 33  1  0
 33 34  1  6
 33 35  1  0
 35 36  1  0
 36 37  2  0
 36 38  1  0
M  END
