
     RDKit          3D

 37 40  0  0  0  0  0  0  0  0999 V2000
   -6.9610    1.4930   -0.9370 C   0  0  0  0  0  0  0  0  0  0  0  0
   -7.5210    0.4700    0.0280 C   0  0  1  0  0  0  0  0  0  0  0  0
   -6.5230   -0.3100    0.6810 N   0  0  0  0  0  0  0  0  0  0  0  0
   -5.5890   -1.1450   -0.0130 C   0  0  0  0  0  0  0  0  0  0  0  0
   -5.6760   -1.1720   -1.2630 O   0  0  0  0  0  0  0  0  0  0  0  0
   -4.5540   -1.9520    0.6830 C   0  0  2  0  0  0  0  0  0  0  0  0
   -4.6200   -1.7930    2.0670 O   0  0  0  0  0  0  0  0  0  0  0  0
   -4.9350   -2.7960    2.9680 C   0  0  0  0  0  0  0  0  0  0  0  0
   -4.9960   -2.6140    4.3730 N   0  0  0  0  0  0  0  0  0  0  0  0
   -5.1840   -3.9460    2.5180 O   0  0  0  0  0  0  0  0  0  0  0  0
   -3.2030   -1.7140    0.1320 C   0  0  0  0  0  0  0  0  0  0  0  0
   -3.0110   -1.8240   -1.1060 O   0  0  0  0  0  0  0  0  0  0  0  0
   -2.0700   -1.3620    0.9090 N   0  0  0  0  0  0  0  0  0  0  0  0
   -0.7870   -1.1510    0.2550 C   0  0  0  0  0  0  0  0  0  0  0  0
   -0.2190   -1.1450   -0.7530 N   0  0  0  0  0  0  0  0  0  0  0  0
    1.0350   -0.8860   -0.9620 N   0  0  0  0  0  0  0  0  0  0  0  0
    1.8170   -0.5960   -0.0390 C   0  0  0  0  0  0  0  0  0  0  0  0
    3.1640   -0.2620    0.1960 N   0  0  0  0  0  0  0  0  0  0  0  0
    4.1070   -0.1790   -0.8930 C   0  0  0  0  0  0  0  0  0  0  0  0
    3.6690   -0.4160   -2.0290 O   0  0  0  0  0  0  0  0  0  0  0  0
    5.4490    0.1540   -0.6620 N   0  0  0  0  0  0  0  0  0  0  0  0
    6.4680    0.2680   -1.6380 C   0  0  0  0  0  0  0  0  0  0  0  0
    6.2370    0.0560   -2.9760 C   0  0  0  0  0  0  0  0  0  0  0  0
    7.3170    0.1960   -3.8540 C   0  0  0  0  0  0  0  0  0  0  0  0
    8.5310    0.5240   -3.4040 N   0  0  0  0  0  0  0  0  0  0  0  0
    8.7590    0.7310   -2.0980 C   0  0  0  0  0  0  0  0  0  0  0  0
    7.7490    0.6110   -1.1920 C   0  0  0  0  0  0  0  0  0  0  0  0
    8.2550    0.8800    0.1020 O   0  0  0  0  0  0  0  0  0  0  0  0
    9.4030    1.7140   -0.0830 C   0  0  1  0  0  0  0  0  0  0  0  0
   10.3350    1.5790    1.1040 C   0  0  0  0  0  0  0  0  0  0  0  0
   11.4250    2.3920    0.8960 O   0  0  0  0  0  0  0  0  0  0  0  0
    9.9930    1.1020   -1.3210 C   0  0  0  0  0  0  0  0  0  0  0  0
    0.6320   -0.6880    1.4160 S   0  0  0  0  0  0  0  0  0  0  0  0
   -8.3410    1.2020    1.0390 C   0  0  0  0  0  0  0  0  0  0  0  0
   -9.3790    2.0080    0.3030 C   0  0  0  0  0  0  0  0  0  0  0  0
   -9.8420    0.8200   -1.0200 S   0  0  0  0  0  0  0  0  0  0  0  0
   -8.5020   -0.4040   -0.7640 C   0  0  0  0  0  0  0  0  0  0  0  0
  2  1  1  6
  2  3  1  0
  2 34  1  0
  2 37  1  0
  3  4  1  0
  4  5  2  0
  4  6  1  0
  6  7  1  1
  6 11  1  0
  7  8  1  0
  8  9  1  0
  8 10  2  0
 11 12  2  0
 11 13  1  0
 13 14  1  0
 14 15  2  0
 14 33  1  0
 15 16  1  0
 16 17  2  0
 17 18  1  0
 17 33  1  0
 18 19  1  0
 19 20  2  0
 19 21  1  0
 21 22  1  0
 22 23  2  0
 22 27  1  0
 23 24  1  0
 24 25  2  0
 25 26  1  0
 26 27  2  0
 26 32  1  0
 27 28  1  0
 28 29  1  0
 29 30  1  1
 29 32  1  0
 30 31  1  0
 34 35  1  0
 35 36  1  0
 36 37  1  0
M  END
