
     RDKit          3D

 38 41  0  0  0  0  0  0  0  0999 V2000
   -6.2680    1.2140    0.8880 C   0  0  0  0  0  0  0  0  0  0  0  0
   -6.4370    0.0770    0.2260 C   0  0  0  0  0  0  0  0  0  0  0  0
   -7.1640   -1.0720    0.8510 C   0  0  0  0  0  0  0  0  0  0  0  0
   -6.2940   -2.2750    0.7320 C   0  0  0  0  0  0  0  0  0  0  0  0
   -5.0610   -2.1440   -0.0630 C   0  0  2  0  0  0  0  0  0  0  0  0
   -3.8910   -0.8880    0.6550 S   0  0  0  0  0  0  0  0  0  0  0  0
   -2.9900   -0.7040   -0.9280 C   0  0  0  0  0  0  0  0  0  0  0  0
   -1.6520   -0.2760   -1.0500 N   0  0  0  0  0  0  0  0  0  0  0  0
   -0.9200    0.0430    0.1210 C   0  0  0  0  0  0  0  0  0  0  0  0
   -1.4950   -0.0680    1.2270 O   0  0  0  0  0  0  0  0  0  0  0  0
    0.4670    0.4890    0.0770 C   0  0  0  0  0  0  0  0  0  0  0  0
    1.0080    0.5940   -1.0530 O   0  0  0  0  0  0  0  0  0  0  0  0
    1.2030    0.7990    1.2530 N   0  0  0  0  0  0  0  0  0  0  0  0
    2.5770    1.2380    1.2210 C   0  0  1  0  0  0  0  0  0  0  0  0
    2.6940    2.5770    1.8870 C   0  0  0  0  0  0  0  0  0  0  0  0
    3.2080    2.5190    3.3020 C   0  0  0  0  0  0  0  0  0  0  0  0
    2.7460    1.3170    4.0520 C   0  0  0  0  0  0  0  0  0  0  0  0
    3.0980    0.0330    3.3500 C   0  0  0  0  0  0  0  0  0  0  0  0
    3.4990    0.2580    1.9090 C   0  0  2  0  0  0  0  0  0  0  0  0
    4.8180    0.5940    1.7000 O   0  0  0  0  0  0  0  0  0  0  0  0
    5.8030   -0.0840    1.0180 C   0  0  0  0  0  0  0  0  0  0  0  0
    5.6360   -1.2950    0.3990 C   0  0  0  0  0  0  0  0  0  0  0  0
    6.7050   -1.8660   -0.2510 C   0  0  0  0  0  0  0  0  0  0  0  0
    7.9490   -1.2800   -0.3140 C   0  0  0  0  0  0  0  0  0  0  0  0
    8.1060   -0.0450    0.3210 C   0  0  0  0  0  0  0  0  0  0  0  0
    9.3410    0.5870    0.2860 O   0  0  0  0  0  0  0  0  0  0  0  0
   10.4170   -0.0150   -0.3840 C   0  0  0  0  0  0  0  0  0  0  0  0
    7.0380    0.5180    0.9660 C   0  0  0  0  0  0  0  0  0  0  0  0
   -3.8460   -1.0490   -1.8620 C   0  0  0  0  0  0  0  0  0  0  0  0
   -3.4890   -1.0410   -3.3130 C   0  0  0  0  0  0  0  0  0  0  0  0
   -2.3820   -0.7090   -3.7450 O   0  0  0  0  0  0  0  0  0  0  0  0
   -4.4580   -1.4320   -4.2290 O   0  0  0  0  0  0  0  0  0  0  0  0
   -4.1890   -1.4540   -5.6370 C   0  0  0  0  0  0  0  0  0  0  0  0
   -3.1460   -2.3170   -5.9160 F   0  0  0  0  0  0  0  0  0  0  0  0
   -5.2120   -1.4070   -1.3870 C   0  0  2  0  0  0  0  0  0  0  0  0
   -5.9250   -0.0900   -1.1120 C   0  0  0  0  0  0  0  0  0  0  0  0
   -6.0730    0.8190   -2.0450 C   0  0  0  0  0  0  0  0  0  0  0  0
   -6.7800    2.1010   -1.8240 C   0  0  0  0  0  0  0  0  0  0  0  0
  1  2  2  0
  2  3  1  0
  2 36  1  0
  3  4  1  0
  5  4  1  1
  5  6  1  0
  5 35  1  0
  6  7  1  0
  7  8  1  0
  7 29  2  0
  8  9  1  0
  9 10  2  0
  9 11  1  0
 11 12  2  0
 11 13  1  0
 14 13  1  1
 14 15  1  0
 14 19  1  0
 15 16  1  0
 16 17  1  0
 17 18  1  0
 18 19  1  0
 19 20  1  1
 20 21  1  0
 21 22  2  0
 21 28  1  0
 22 23  1  0
 23 24  2  0
 24 25  1  0
 25 26  1  0
 25 28  2  0
 26 27  1  0
 29 30  1  0
 35 29  1  1
 30 31  2  0
 30 32  1  0
 32 33  1  0
 33 34  1  0
 35 36  1  0
 36 37  2  3
 37 38  1  0
M  END
