
     RDKit          3D

 37 41  0  0  0  0  0  0  0  0999 V2000
   -5.6860   -1.9850    2.0450 C   0  0  0  0  0  0  0  0  0  0  0  0
   -6.1000   -2.0470    0.6220 C   0  0  0  0  0  0  0  0  0  0  0  0
   -5.0820   -1.7010   -0.4010 C   0  0  0  0  0  0  0  0  0  0  0  0
   -4.5150   -0.3540   -0.3350 C   0  0  0  0  0  0  0  0  0  0  0  0
   -3.5160   -0.0400    0.5410 C   0  0  0  0  0  0  0  0  0  0  0  0
   -3.0130   -1.0340    1.3610 O   0  0  0  0  0  0  0  0  0  0  0  0
   -1.9830   -0.6840    2.2550 C   0  0  0  0  0  0  0  0  0  0  0  0
   -2.2390   -0.0040    3.3560 C   0  0  0  0  0  0  0  0  0  0  0  0
   -1.2540    0.4160    4.3600 C   0  0  2  0  0  0  0  0  0  0  0  0
   -1.8700    1.1110    5.4120 F   0  0  0  0  0  0  0  0  0  0  0  0
   -0.2440    1.2190    3.8110 F   0  0  0  0  0  0  0  0  0  0  0  0
   -0.6130   -0.6440    4.9720 F   0  0  0  0  0  0  0  0  0  0  0  0
   -0.5780   -1.0740    1.9810 C   0  0  0  0  0  0  0  0  0  0  0  0
   -0.1190   -0.5290    0.7670 O   0  0  0  0  0  0  0  0  0  0  0  0
    1.1500   -0.7300    0.2700 C   0  0  0  0  0  0  0  0  0  0  0  0
    2.0510   -1.5030    0.9710 C   0  0  0  0  0  0  0  0  0  0  0  0
    3.3440   -1.7200    0.4860 C   0  0  0  0  0  0  0  0  0  0  0  0
    3.7290   -1.1650   -0.6940 C   0  0  0  0  0  0  0  0  0  0  0  0
    5.0230   -1.3720   -1.1930 N   0  0  0  0  0  0  0  0  0  0  0  0
    5.9820   -0.5710   -0.9350 C   0  0  0  0  0  0  0  0  0  0  0  0
    5.8580    0.6790   -0.0780 C   0  0  0  0  0  0  0  0  0  0  0  0
    7.2760    0.9130    0.3010 C   0  0  2  0  0  0  0  0  0  0  0  0
    7.7840    2.1520    0.6750 N   0  0  0  0  0  0  0  0  0  0  0  0
    8.6680    2.5690   -0.1900 C   0  0  0  0  0  0  0  0  0  0  0  0
    8.7700    1.5780   -1.2220 N   0  0  0  0  0  0  0  0  0  0  0  0
    7.9930    0.6040   -1.0120 C   0  0  0  0  0  0  0  0  0  0  0  0
    7.3470   -0.6380   -1.3640 N   0  0  0  0  0  0  0  0  0  0  0  0
    8.0010   -1.7180   -2.0550 C   0  0  0  0  0  0  0  0  0  0  0  0
    2.8370   -0.3940   -1.3990 C   0  0  0  0  0  0  0  0  0  0  0  0
    1.5700   -0.1840   -0.9180 C   0  0  0  0  0  0  0  0  0  0  0  0
   -3.0000    1.2620    0.6140 C   0  0  0  0  0  0  0  0  0  0  0  0
   -3.5050    2.2410   -0.2100 C   0  0  0  0  0  0  0  0  0  0  0  0
   -4.5190    1.9490   -1.1080 C   0  0  0  0  0  0  0  0  0  0  0  0
   -5.0120    0.6670   -1.1640 C   0  0  0  0  0  0  0  0  0  0  0  0
   -6.0650    0.6200   -2.1920 C   0  0  0  0  0  0  0  0  0  0  0  0
   -6.5190    2.0520   -2.3040 C   0  0  0  0  0  0  0  0  0  0  0  0
   -5.2310    2.8290   -2.0930 C   0  0  0  0  0  0  0  0  0  0  0  0
  1  2  1  0
  2  3  1  0
  3  4  1  0
  4  5  2  0
  4 34  1  0
  5  6  1  0
  5 31  1  0
  6  7  1  0
  7  8  2  3
  7 13  1  0
  8  9  1  0
  9 10  1  1
  9 11  1  0
  9 12  1  0
 13 14  1  0
 14 15  1  0
 15 16  2  0
 15 30  1  0
 16 17  1  0
 17 18  2  0
 18 19  1  0
 18 29  1  0
 19 20  2  3
 20 21  1  0
 20 27  1  0
 22 21  1  6
 22 23  1  0
 22 26  1  0
 23 24  2  0
 24 25  1  0
 25 26  2  0
 26 27  1  0
 27 28  1  0
 29 30  2  0
 31 32  2  0
 32 33  1  0
 33 34  2  0
 33 37  1  0
 34 35  1  0
 35 36  1  0
 36 37  1  0
M  CHG  1  23   1
M  END
