
     RDKit          3D

 37 41  0  0  0  0  0  0  0  0999 V2000
   -0.9000    2.7420   -0.2000 O   0  0  0  0  0  0  0  0  0  0  0  0
   -1.0350    1.6030   -0.6760 C   0  0  0  0  0  0  0  0  0  0  0  0
   -0.1990    1.2370   -1.7120 O   0  0  0  0  0  0  0  0  0  0  0  0
    0.7990    2.0230   -2.2960 C   0  0  0  0  0  0  0  0  0  0  0  0
    1.9270    2.4530   -1.4350 C   0  0  0  0  0  0  0  0  0  0  0  0
    2.7430    1.4190   -0.8710 N   0  0  0  0  0  0  0  0  0  0  0  0
    2.2830    0.5680    0.1570 C   0  0  0  0  0  0  0  0  0  0  0  0
    3.0120   -0.4270    0.7100 C   0  0  0  0  0  0  0  0  0  0  0  0
    4.3600   -0.6790    0.2550 C   0  0  0  0  0  0  0  0  0  0  0  0
    5.0850   -1.6280    0.7700 N   0  0  0  0  0  0  0  0  0  0  0  0
    4.5920   -2.4670    1.8060 C   0  0  0  0  0  0  0  0  0  0  0  0
    3.3650   -2.2680    2.2480 C   0  0  0  0  0  0  0  0  0  0  0  0
    2.4320   -1.2550    1.7800 C   0  0  1  0  0  0  0  0  0  0  0  0
    1.9300   -0.4980    2.8210 F   0  0  0  0  0  0  0  0  0  0  0  0
    1.3420   -1.9210    1.1990 F   0  0  0  0  0  0  0  0  0  0  0  0
    4.8850    0.1760   -0.8100 C   0  0  0  0  0  0  0  0  0  0  0  0
    6.1640   -0.0710   -1.2430 C   0  0  0  0  0  0  0  0  0  0  0  0
    6.7040    0.7010   -2.2470 C   0  0  0  0  0  0  0  0  0  0  0  0
    5.9150    1.7130   -2.7860 C   0  0  0  0  0  0  0  0  0  0  0  0
    6.4180    2.4900   -3.7750 F   0  0  0  0  0  0  0  0  0  0  0  0
    4.6120    1.9530   -2.3340 C   0  0  0  0  0  0  0  0  0  0  0  0
    4.0890    1.1850   -1.3420 C   0  0  0  0  0  0  0  0  0  0  0  0
   -2.0480    0.7030   -0.1430 C   0  0  0  0  0  0  0  0  0  0  0  0
   -2.8080    1.0380    0.8440 C   0  0  0  0  0  0  0  0  0  0  0  0
   -2.8400    2.2660    1.6040 C   0  0  0  0  0  0  0  0  0  0  0  0
   -4.0250    3.0040    1.6540 C   0  0  0  0  0  0  0  0  0  0  0  0
   -4.0930    4.1460    2.4170 C   0  0  0  0  0  0  0  0  0  0  0  0
   -3.0250    4.5720    3.1250 N   0  0  0  0  0  0  0  0  0  0  0  0
   -1.8790    3.8710    3.0870 C   0  0  0  0  0  0  0  0  0  0  0  0
   -1.7800    2.7220    2.3320 C   0  0  0  0  0  0  0  0  0  0  0  0
   -2.1260   -0.6160   -0.8360 C   0  0  0  0  0  0  0  0  0  0  0  0
   -3.0930   -1.5330   -0.3780 N   0  0  2  0  0  0  0  0  0  0  0  0
   -2.5050   -2.3270    0.7090 C   0  0  0  0  0  0  0  0  0  0  0  0
   -3.0800   -3.7280    0.7170 C   0  0  0  0  0  0  0  0  0  0  0  0
   -4.5340   -3.7550    0.2730 C   0  0  0  0  0  0  0  0  0  0  0  0
   -4.5490   -3.3350   -1.1810 C   0  0  0  0  0  0  0  0  0  0  0  0
   -3.3530   -2.4620   -1.4920 C   0  0  0  0  0  0  0  0  0  0  0  0
  1  2  2  0
  2  3  1  0
  2 23  1  0
  3  4  1  0
  4  5  1  0
  5  6  1  0
  6  7  1  0
  6 22  1  0
  7  8  2  0
  8  9  1  0
  8 13  1  0
  9 10  2  0
  9 16  1  0
 10 11  1  0
 11 12  2  0
 12 13  1  0
 13 14  1  1
 13 15  1  0
 16 17  2  0
 16 22  1  0
 17 18  1  0
 18 19  2  0
 19 20  1  0
 19 21  1  0
 21 22  2  0
 23 24  2  3
 23 31  1  0
 24 25  1  0
 25 26  2  0
 25 30  1  0
 26 27  1  0
 27 28  2  0
 28 29  1  0
 29 30  2  0
 32 31  1  6
 32 33  1  0
 32 37  1  0
 33 34  1  0
 34 35  1  0
 35 36  1  0
 36 37  1  0
M  CHG  1  32   1
M  END
