
     RDKit          3D

 37 41  0  0  0  0  0  0  0  0999 V2000
   -3.8230   -3.9740    0.5180 C   0  0  0  0  0  0  0  0  0  0  0  0
   -3.6530   -2.6460    1.0520 N   0  0  0  0  0  0  0  0  0  0  0  0
   -3.9130   -1.5750    0.4290 C   0  0  0  0  0  0  0  0  0  0  0  0
   -3.6650   -0.2820    1.1610 C   0  0  0  0  0  0  0  0  0  0  0  0
   -2.8470    0.5930    0.3430 N   0  0  2  0  0  0  0  0  0  0  0  0
   -1.9390    1.3740    1.1600 C   0  0  0  0  0  0  0  0  0  0  0  0
   -0.5390    1.3500    0.7140 C   0  0  0  0  0  0  0  0  0  0  0  0
   -0.0430    0.6660   -0.3650 C   0  0  0  0  0  0  0  0  0  0  0  0
    1.2720    0.9110   -0.4020 N   0  0  0  0  0  0  0  0  0  0  0  0
    1.6000    1.7180    0.6110 N   0  0  0  0  0  0  0  0  0  0  0  0
    2.9520    2.1960    0.8620 C   0  0  0  0  0  0  0  0  0  0  0  0
    3.6000    1.1890    1.7840 C   0  0  0  0  0  0  0  0  0  0  0  0
    3.6470   -0.0540    1.2480 O   0  0  0  0  0  0  0  0  0  0  0  0
    4.2310   -0.6700    0.1940 C   0  0  0  0  0  0  0  0  0  0  0  0
    5.0720   -0.0560   -0.7070 C   0  0  0  0  0  0  0  0  0  0  0  0
    5.6360   -0.7350   -1.7560 C   0  0  0  0  0  0  0  0  0  0  0  0
    5.3620   -2.0670   -1.9250 C   0  0  0  0  0  0  0  0  0  0  0  0
    4.5150   -2.7030   -1.0220 C   0  0  0  0  0  0  0  0  0  0  0  0
    3.9700   -2.0220    0.0020 C   0  0  0  0  0  0  0  0  0  0  0  0
    3.0740   -2.7020    0.9600 C   0  0  0  0  0  0  0  0  0  0  0  0
    6.0830   -2.5420   -3.1290 C   0  0  0  0  0  0  0  0  0  0  0  0
    7.0800   -1.5980   -3.2990 O   0  0  0  0  0  0  0  0  0  0  0  0
    6.5630   -0.3770   -2.8670 C   0  0  0  0  0  0  0  0  0  0  0  0
    0.5290    2.0300    1.3420 C   0  0  0  0  0  0  0  0  0  0  0  0
    0.3030    2.8630    2.5150 C   0  0  2  0  0  0  0  0  0  0  0  0
    1.2360    3.4110    3.4510 C   0  0  0  0  0  0  0  0  0  0  0  0
    0.4520    2.1880    3.8840 C   0  0  0  0  0  0  0  0  0  0  0  0
   -3.5760    1.5280   -0.4750 C   0  0  0  0  0  0  0  0  0  0  0  0
   -4.6020    0.8540   -1.3670 C   0  0  0  0  0  0  0  0  0  0  0  0
   -5.5700    1.5750   -1.8450 C   0  0  0  0  0  0  0  0  0  0  0  0
   -6.6910    1.2420   -2.6880 C   0  0  0  0  0  0  0  0  0  0  0  0
   -6.9300   -0.0490   -3.0070 F   0  0  0  0  0  0  0  0  0  0  0  0
   -4.5180   -0.5390   -1.7830 C   0  0  0  0  0  0  0  0  0  0  0  0
   -4.4670   -0.7990   -3.0760 C   0  0  0  0  0  0  0  0  0  0  0  0
   -4.3980   -2.0790   -3.5290 F   0  0  0  0  0  0  0  0  0  0  0  0
   -4.4160    0.1910   -3.9940 F   0  0  0  0  0  0  0  0  0  0  0  0
   -4.4180   -1.7060   -0.9250 N   0  0  0  0  0  0  0  0  0  0  0  0
  1  2  1  0
  2  3  2  3
  3  4  1  0
  3 37  1  0
  4  5  1  0
  5  6  1  1
  5 28  1  0
  6  7  1  0
  7  8  1  0
  7 24  2  0
  8  9  2  0
  9 10  1  0
 10 11  1  0
 10 24  1  0
 11 12  1  0
 12 13  1  0
 13 14  1  0
 14 15  2  0
 14 19  1  0
 15 16  1  0
 16 17  2  0
 16 23  1  0
 17 18  1  0
 17 21  1  0
 18 19  2  0
 19 20  1  0
 21 22  1  0
 22 23  1  0
 25 24  1  6
 25 26  1  0
 25 27  1  0
 26 27  1  0
 28 29  1  0
 29 30  2  3
 29 33  1  0
 30 31  1  0
 31 32  1  0
 33 34  2  3
 33 37  1  0
 34 35  1  0
 34 36  1  0
M  CHG  1   5   1
M  END
