
     RDKit          3D

 32 33  0  0  0  0  0  0  0  0999 V2000
   -2.3750    1.8690    1.7380 C   0  0  0  0  0  0  0  0  0  0  0  0
   -3.7140    1.8640    1.0190 C   0  0  2  0  0  0  0  0  0  0  0  0
   -4.5370    2.9690    1.6040 N   0  0  0  0  0  0  0  0  0  0  0  0
   -4.5170    0.6540    1.2970 C   0  0  0  0  0  0  0  0  0  0  0  0
   -5.3490    0.5560    2.3360 N   0  0  0  0  0  0  0  0  0  0  0  0
   -5.9710   -0.7140    2.3440 C   0  0  0  0  0  0  0  0  0  0  0  0
   -6.4750   -1.2790    3.3530 O   0  0  0  0  0  0  0  0  0  0  0  0
   -5.8850   -1.1760    0.9520 C   0  0  2  0  0  0  0  0  0  0  0  0
   -6.8680   -0.2960    0.1640 C   0  0  0  0  0  0  0  0  0  0  0  0
   -6.0480   -2.5340    0.6880 N   0  0  0  0  0  0  0  0  0  0  0  0
   -5.2470   -3.1720   -0.2870 C   0  0  0  0  0  0  0  0  0  0  0  0
   -5.5120   -4.3160   -0.7340 O   0  0  0  0  0  0  0  0  0  0  0  0
   -4.1130   -2.4700   -0.7540 N   0  0  0  0  0  0  0  0  0  0  0  0
   -3.7590   -1.1460   -0.2830 C   0  0  0  0  0  0  0  0  0  0  0  0
   -2.5860   -0.5590   -0.8780 C   0  0  0  0  0  0  0  0  0  0  0  0
   -2.0720    0.5270   -0.6740 O   0  0  0  0  0  0  0  0  0  0  0  0
   -1.8670   -1.2930   -1.8560 O   0  0  0  0  0  0  0  0  0  0  0  0
   -0.7150   -0.7660   -2.4600 C   0  0  0  0  0  0  0  0  0  0  0  0
    0.3720   -0.4790   -1.4970 C   0  0  0  0  0  0  0  0  0  0  0  0
    0.1830   -0.7000   -0.2840 O   0  0  0  0  0  0  0  0  0  0  0  0
    1.5920    0.0350   -1.9850 N   0  0  0  0  0  0  0  0  0  0  0  0
    2.6870    0.3400   -1.1810 N   0  0  0  0  0  0  0  0  0  0  0  0
    3.1640   -0.6700   -0.3710 C   0  0  0  0  0  0  0  0  0  0  0  0
    3.6340   -0.3050    1.0030 C   0  0  0  0  0  0  0  0  0  0  0  0
    4.1060   -1.5380    1.7490 C   0  0  0  0  0  0  0  0  0  0  0  0
    4.5790   -1.1250    3.1510 C   0  0  0  0  0  0  0  0  0  0  0  0
    5.6880   -0.1690    3.0220 N   0  0  0  0  0  0  0  0  0  0  0  0
    3.4640    1.3660   -1.7100 C   0  0  0  0  0  0  0  0  0  0  0  0
    4.4650    1.0440   -2.7720 C   0  0  1  0  0  0  0  0  0  0  0  0
    5.2100    2.3190   -3.2200 C   0  0  0  0  0  0  0  0  0  0  0  0
    5.4530    0.0690   -2.4590 N   0  0  0  0  0  0  0  0  0  0  0  0
   -4.5280   -0.5980    0.5890 C   0  0  0  0  0  0  0  0  0  0  0  0
  2  1  1  1
  2  3  1  0
  2  4  1  0
  4  5  2  0
  4 32  1  0
  5  6  1  0
  6  7  2  0
  6  8  1  0
  8  9  1  6
  8 10  1  0
  8 32  1  0
 10 11  1  0
 11 12  2  0
 11 13  1  0
 13 14  1  0
 14 15  1  0
 14 32  2  0
 15 16  2  0
 15 17  1  0
 17 18  1  0
 18 19  1  0
 19 20  2  0
 19 21  1  0
 21 22  1  0
 22 23  1  0
 22 28  1  0
 23 24  1  0
 24 25  1  0
 25 26  1  0
 26 27  1  0
 28 29  1  0
 29 30  1  1
 29 31  1  0
M  CHG  3   3   1  27   1  31   1
M  END
