
     RDKit          3D

 32 33  0  0  0  0  0  0  0  0999 V2000
    8.0260    2.0420   -2.1880 C   0  0  0  0  0  0  0  0  0  0  0  0
    6.8010    2.1220   -1.4720 O   0  0  0  0  0  0  0  0  0  0  0  0
    6.2450    0.9880   -0.9300 C   0  0  0  0  0  0  0  0  0  0  0  0
    6.8750   -0.1090   -1.1030 O   0  0  0  0  0  0  0  0  0  0  0  0
    4.9680    1.0590   -0.1800 C   0  0  1  0  0  0  0  0  0  0  0  0
    3.8540    1.5700   -1.1010 C   0  0  0  0  0  0  0  0  0  0  0  0
    4.2290    2.8880   -1.5700 N   0  0  0  0  0  0  0  0  0  0  0  0
    4.6100   -0.2670    0.2780 N   0  0  0  0  0  0  0  0  0  0  0  0
    4.3540   -0.5310    1.6690 C   0  0  0  0  0  0  0  0  0  0  0  0
    4.4370    0.3990    2.5190 O   0  0  0  0  0  0  0  0  0  0  0  0
    4.0070   -1.8470    2.0720 N   0  0  0  0  0  0  0  0  0  0  0  0
    3.7340   -2.1970    3.4420 C   0  0  0  0  0  0  0  0  0  0  0  0
    2.5660   -1.4240    4.0200 C   0  0  0  0  0  0  0  0  0  0  0  0
    1.3570   -1.6860    3.2580 N   0  0  0  0  0  0  0  0  0  0  0  0
    0.4890   -2.6580    3.5020 C   0  0  0  0  0  0  0  0  0  0  0  0
   -0.5000   -2.5590    2.5650 N   0  0  0  0  0  0  0  0  0  0  0  0
   -0.2360   -1.5280    1.7510 C   0  0  0  0  0  0  0  0  0  0  0  0
   -1.0240   -1.0660    0.6170 C   0  0  0  0  0  0  0  0  0  0  0  0
   -0.6460   -0.0710   -0.0470 O   0  0  0  0  0  0  0  0  0  0  0  0
   -2.2040   -1.7220    0.2560 N   0  0  0  0  0  0  0  0  0  0  0  0
   -3.0700   -1.3720   -0.8330 C   0  0  0  0  0  0  0  0  0  0  0  0
   -3.6560    0.0040   -0.7650 C   0  0  2  0  0  0  0  0  0  0  0  0
   -4.4720    0.2580    0.4470 C   0  0  2  0  0  0  0  0  0  0  0  0
   -5.3810   -0.8140    0.9080 C   0  0  0  0  0  0  0  0  0  0  0  0
   -6.4080   -1.2450    0.0230 N   0  0  0  0  0  0  0  0  0  0  0  0
   -5.1990    1.5780    0.3610 C   0  0  0  0  0  0  0  0  0  0  0  0
   -5.7290    1.8620   -1.0150 C   0  0  0  0  0  0  0  0  0  0  0  0
   -5.6350    0.8100   -1.8790 O   0  0  0  0  0  0  0  0  0  0  0  0
   -4.3570    0.2950   -2.0610 C   0  0  1  0  0  0  0  0  0  0  0  0
   -3.6330    1.3060   -2.9250 C   0  0  0  0  0  0  0  0  0  0  0  0
   -2.2760    0.9170   -3.2320 N   0  0  0  0  0  0  0  0  0  0  0  0
    0.9460   -0.9780    2.1970 C   0  0  0  0  0  0  0  0  0  0  0  0
  1  2  1  0
  2  3  1  0
  3  4  2  0
  3  5  1  0
  5  6  1  6
  5  8  1  0
  6  7  1  0
  8  9  1  0
  9 10  2  0
  9 11  1  0
 11 12  1  0
 12 13  1  0
 13 14  1  0
 14 15  1  0
 14 32  1  0
 15 16  2  0
 16 17  1  0
 17 18  1  0
 17 32  2  0
 18 19  2  0
 18 20  1  0
 20 21  1  0
 22 21  1  6
 22 23  1  0
 22 29  1  0
 23 24  1  6
 23 26  1  0
 24 25  1  0
 26 27  1  0
 27 28  1  0
 28 29  1  0
 29 30  1  1
 30 31  1  0
M  CHG  3   7   1  25   1  31   1
M  END
