
     RDKit          3D

 32 33  0  0  0  0  0  0  0  0999 V2000
   -7.4040    0.8830   -0.6610 C   0  0  0  0  0  0  0  0  0  0  0  0
   -7.2020    0.2500    0.7040 C   0  0  2  0  0  0  0  0  0  0  0  0
   -5.7260    0.2400    0.9060 N   0  0  0  0  0  0  0  0  0  0  0  0
   -5.3600    1.5880    1.1180 C   0  0  0  0  0  0  0  0  0  0  0  0
   -4.0490    1.9360    1.7120 C   0  0  0  0  0  0  0  0  0  0  0  0
   -2.9060    1.5410    0.9690 N   0  0  0  0  0  0  0  0  0  0  0  0
   -2.4260    0.2560    0.6680 C   0  0  0  0  0  0  0  0  0  0  0  0
   -3.0160   -0.7580    1.0860 O   0  0  0  0  0  0  0  0  0  0  0  0
   -1.1880    0.0360   -0.1660 C   0  0  1  0  0  0  0  0  0  0  0  0
   -1.6320    0.5280   -1.5640 C   0  0  0  0  0  0  0  0  0  0  0  0
   -0.0590    0.8850    0.2260 C   0  0  0  0  0  0  0  0  0  0  0  0
    1.1490    0.0940    0.7550 C   0  0  0  0  0  0  0  0  0  0  0  0
    1.4500   -0.8250   -0.4410 C   0  0  1  0  0  0  0  0  0  0  0  0
    2.7310   -1.4200   -0.2050 N   0  0  0  0  0  0  0  0  0  0  0  0
    3.2280   -2.1520   -1.3550 C   0  0  0  0  0  0  0  0  0  0  0  0
    4.7070   -2.4120   -1.1090 C   0  0  1  0  0  0  0  0  0  0  0  0
    5.3260   -3.1750   -2.2570 C   0  0  0  0  0  0  0  0  0  0  0  0
    5.3870   -1.1530   -0.8900 N   0  0  0  0  0  0  0  0  0  0  0  0
    6.0930   -0.8840    0.3300 C   0  0  0  0  0  0  0  0  0  0  0  0
    6.1130   -1.7590    1.2090 O   0  0  0  0  0  0  0  0  0  0  0  0
    6.7650    0.3950    0.5110 C   0  0  0  0  0  0  0  0  0  0  0  0
    7.4520    0.7500    1.6080 N   0  0  0  0  0  0  0  0  0  0  0  0
    7.9250    1.9570    1.4430 O   0  0  0  0  0  0  0  0  0  0  0  0
    7.5730    2.4170    0.2660 C   0  0  0  0  0  0  0  0  0  0  0  0
    7.9100    3.7620   -0.3160 C   0  0  0  0  0  0  0  0  0  0  0  0
    7.3610    3.8760   -1.5730 O   0  0  0  0  0  0  0  0  0  0  0  0
    6.8440    1.4390   -0.3240 N   0  0  0  0  0  0  0  0  0  0  0  0
    0.3500   -1.8450   -0.3870 C   0  0  0  0  0  0  0  0  0  0  0  0
   -0.9640   -1.3540   -0.2930 N   0  0  0  0  0  0  0  0  0  0  0  0
   -7.6660   -1.1350    0.7270 C   0  0  0  0  0  0  0  0  0  0  0  0
   -9.0370   -1.4830    0.5630 N   0  0  0  0  0  0  0  0  0  0  0  0
   -6.8550   -2.0720    0.8950 O   0  0  0  0  0  0  0  0  0  0  0  0
  2  1  1  6
  2  3  1  0
  2 30  1  0
  3  4  1  0
  4  5  1  0
  5  6  1  0
  6  7  1  0
  7  8  2  0
  7  9  1  0
  9 10  1  6
  9 11  1  0
  9 29  1  0
 11 12  1  0
 12 13  1  0
 13 14  1  1
 13 28  1  0
 14 15  1  0
 15 16  1  0
 16 17  1  6
 16 18  1  0
 18 19  1  0
 19 20  2  0
 19 21  1  0
 21 22  2  0
 21 27  1  0
 22 23  1  0
 23 24  1  0
 24 25  1  0
 24 27  2  0
 25 26  1  0
 28 29  1  0
 30 31  1  0
 30 32  2  0
M  CHG  3   3   1  14   1  29   1
M  END
