
     RDKit          3D

 44 48  0  0  0  0  0  0  0  0999 V2000
   10.3660   -1.0400    2.3810 C   0  0  0  0  0  0  0  0  0  0  0  0
    9.0230   -0.8430    1.8770 N   0  0  0  0  0  0  0  0  0  0  0  0
    9.0880   -0.3840    0.5040 C   0  0  0  0  0  0  0  0  0  0  0  0
    8.4090   -1.2880   -0.4690 C   0  0  1  0  0  0  0  0  0  0  0  0
    9.0650   -2.6770   -0.4320 C   0  0  0  0  0  0  0  0  0  0  0  0
    7.0230   -1.5030   -0.1840 N   0  0  0  0  0  0  0  0  0  0  0  0
    5.9340   -1.2180   -1.4510 S   0  0  1  0  0  0  0  0  0  0  0  0
    6.6800   -0.9800   -2.7520 O   0  0  0  0  0  0  0  0  0  0  0  0
    5.1530   -2.5020   -1.6750 O   0  0  0  0  0  0  0  0  0  0  0  0
    4.8100    0.0700   -1.2120 C   0  0  0  0  0  0  0  0  0  0  0  0
    3.4500   -0.2530   -1.1250 C   0  0  0  0  0  0  0  0  0  0  0  0
    2.4830    0.7040   -0.9180 C   0  0  0  0  0  0  0  0  0  0  0  0
    1.1250    0.3410   -0.8360 C   0  0  0  0  0  0  0  0  0  0  0  0
    0.1710    1.2820   -0.6310 C   0  0  0  0  0  0  0  0  0  0  0  0
   -1.2330    1.0050   -0.5330 N   0  0  0  0  0  0  0  0  0  0  0  0
   -1.8200   -0.2540   -0.6250 C   0  0  0  0  0  0  0  0  0  0  0  0
   -1.0510   -1.2730   -0.8150 O   0  0  0  0  0  0  0  0  0  0  0  0
   -3.2430   -0.5330   -0.5250 C   0  0  0  0  0  0  0  0  0  0  0  0
   -3.6200   -1.8870   -0.6440 C   0  0  0  0  0  0  0  0  0  0  0  0
   -4.9370   -2.2710   -0.5640 C   0  0  0  0  0  0  0  0  0  0  0  0
   -5.9410   -1.3530   -0.3650 C   0  0  0  0  0  0  0  0  0  0  0  0
   -7.2840   -1.7670   -0.2870 N   0  0  0  0  0  0  0  0  0  0  0  0
   -7.5860   -3.2040   -0.4430 C   0  0  0  0  0  0  0  0  0  0  0  0
   -9.0430   -3.5080   -0.2090 C   0  0  0  0  0  0  0  0  0  0  0  0
   -9.4090   -2.7990    1.0630 C   0  0  0  0  0  0  0  0  0  0  0  0
  -10.1700   -3.2070    2.5610 S   0  0  0  0  0  0  0  0  0  0  0  0
  -10.0550   -1.5480    3.3140 C   0  0  0  0  0  0  0  0  0  0  0  0
   -9.4400   -0.8370    2.3390 C   0  0  0  0  0  0  0  0  0  0  0  0
   -9.1000   -1.4370    1.1900 C   0  0  0  0  0  0  0  0  0  0  0  0
   -8.4140   -0.9170   -0.0670 C   0  0  0  0  0  0  0  0  0  0  0  0
   -5.5580   -0.0380   -0.2500 C   0  0  0  0  0  0  0  0  0  0  0  0
   -4.2380    0.3720   -0.3280 C   0  0  0  0  0  0  0  0  0  0  0  0
   -3.9740    1.7030   -0.2010 O   0  0  0  0  0  0  0  0  0  0  0  0
   -5.0220    2.6100    0.0040 C   0  0  0  0  0  0  0  0  0  0  0  0
   -4.6540    4.0140    0.1200 C   0  0  0  0  0  0  0  0  0  0  0  0
   -5.6250    5.0240    0.3300 N   0  0  0  0  0  0  0  0  0  0  0  0
   -3.4660    4.3890    0.0400 O   0  0  0  0  0  0  0  0  0  0  0  0
    0.6080    2.5930   -0.5120 C   0  0  0  0  0  0  0  0  0  0  0  0
   -0.3860    3.6810   -0.2870 C   0  0  0  0  0  0  0  0  0  0  0  0
    1.9360    2.9590   -0.5910 C   0  0  0  0  0  0  0  0  0  0  0  0
    2.8880    2.0070   -0.7960 C   0  0  0  0  0  0  0  0  0  0  0  0
    4.2150    2.3330   -0.8800 C   0  0  0  0  0  0  0  0  0  0  0  0
    5.2060    1.3840   -1.0890 C   0  0  0  0  0  0  0  0  0  0  0  0
    6.6350    1.7870   -1.1900 C   0  0  0  0  0  0  0  0  0  0  0  0
  1  2  1  0
  2  3  1  0
  3  4  1  0
  4  5  1  1
  4  6  1  0
  7  6  1  1
  7  8  2  0
  7  9  2  0
  7 10  1  0
 10 11  2  0
 10 43  1  0
 11 12  1  0
 12 13  2  0
 12 41  1  0
 13 14  1  0
 14 15  1  0
 14 38  2  0
 15 16  1  0
 16 17  2  0
 16 18  1  0
 18 19  2  0
 18 32  1  0
 19 20  1  0
 20 21  2  0
 21 22  1  0
 21 31  1  0
 22 23  1  0
 22 30  1  0
 23 24  1  0
 24 25  1  0
 25 26  1  0
 25 29  2  0
 26 27  1  0
 27 28  2  0
 28 29  1  0
 29 30  1  0
 31 32  2  0
 32 33  1  0
 33 34  1  0
 34 35  1  0
 35 36  1  0
 35 37  2  0
 38 39  1  0
 38 40  1  0
 40 41  2  0
 41 42  1  0
 42 43  2  0
 43 44  1  0
M  CHG  1   2   1
M  END
