
     RDKit          3D

 44 48  0  0  0  0  0  0  0  0999 V2000
   -9.7430    0.6120    0.8180 C   0  0  0  0  0  0  0  0  0  0  0  0
   -8.3640    0.0610    0.9530 C   0  0  0  0  0  0  0  0  0  0  0  0
   -8.2340   -1.1390    1.6090 C   0  0  0  0  0  0  0  0  0  0  0  0
   -6.9710   -1.6610    1.7420 C   0  0  0  0  0  0  0  0  0  0  0  0
   -5.8580   -0.9980    1.2300 C   0  0  0  0  0  0  0  0  0  0  0  0
   -6.0310    0.1880    0.5900 C   0  0  0  0  0  0  0  0  0  0  0  0
   -7.2820    0.7490    0.4330 C   0  0  0  0  0  0  0  0  0  0  0  0
   -7.4420    2.0310   -0.2640 C   0  0  0  0  0  0  0  0  0  0  0  0
   -7.9930    1.8260   -1.6780 C   0  0  0  0  0  0  0  0  0  0  0  0
   -8.1400    3.4790   -2.4230 S   0  0  0  0  0  0  0  0  0  0  0  0
   -4.5510   -1.5270    1.3260 N   0  0  0  0  0  0  0  0  0  0  0  0
   -3.5310   -1.3790    0.3680 C   0  0  0  0  0  0  0  0  0  0  0  0
   -2.3910   -1.8840    0.7380 O   0  0  0  0  0  0  0  0  0  0  0  0
   -3.5510   -0.7670   -0.9540 C   0  0  2  0  0  0  0  0  0  0  0  0
   -2.6980   -1.6560   -1.8020 N   0  0  0  0  0  0  0  0  0  0  0  0
   -1.2860   -1.6380   -1.6690 C   0  0  0  0  0  0  0  0  0  0  0  0
   -0.6420   -0.5780   -1.2150 C   0  0  0  0  0  0  0  0  0  0  0  0
    0.8080   -0.6190   -1.1000 C   0  0  0  0  0  0  0  0  0  0  0  0
    1.3040   -0.4190    0.2420 N   0  0  0  0  0  0  0  0  0  0  0  0
    1.9310    0.8880    0.2800 C   0  0  0  0  0  0  0  0  0  0  0  0
    3.3850    0.6580    0.5660 C   0  0  0  0  0  0  0  0  0  0  0  0
    3.8160    0.5690    1.8690 C   0  0  0  0  0  0  0  0  0  0  0  0
    5.1350    0.3560    2.1630 C   0  0  0  0  0  0  0  0  0  0  0  0
    6.1110    0.2180    1.1460 C   0  0  0  0  0  0  0  0  0  0  0  0
    7.4790   -0.0090    1.5990 C   0  0  0  0  0  0  0  0  0  0  0  0
    8.5150   -0.7800    1.2340 C   0  0  0  0  0  0  0  0  0  0  0  0
    9.6250   -0.8190    1.9860 C   0  0  0  0  0  0  0  0  0  0  0  0
    9.6780   -0.0620    3.1260 C   0  0  0  0  0  0  0  0  0  0  0  0
   10.7030    0.1020    4.1110 N   0  0  0  0  0  0  0  0  0  0  0  0
    8.1040    0.7310    3.1370 S   0  0  0  0  0  0  0  0  0  0  0  0
    5.6620    0.3170   -0.1320 C   0  0  0  0  0  0  0  0  0  0  0  0
    6.5810    0.3720   -1.2460 C   0  0  0  0  0  0  0  0  0  0  0  0
    7.8090    0.3830   -1.0740 O   0  0  0  0  0  0  0  0  0  0  0  0
    6.1150    0.4260   -2.6700 C   0  0  2  0  0  0  0  0  0  0  0  0
    7.2770    0.3030   -3.6180 C   0  0  0  0  0  0  0  0  0  0  0  0
    5.4900    1.7960   -2.9340 C   0  0  0  0  0  0  0  0  0  0  0  0
    4.3110    0.5310   -0.4280 C   0  0  0  0  0  0  0  0  0  0  0  0
   -1.4650    0.5820   -0.8630 C   0  0  0  0  0  0  0  0  0  0  0  0
   -0.9210    1.6070   -0.4300 O   0  0  0  0  0  0  0  0  0  0  0  0
   -2.8660    0.5270   -1.0170 N   0  0  0  0  0  0  0  0  0  0  0  0
   -4.3140   -2.3450    2.5470 C   0  0  0  0  0  0  0  0  0  0  0  0
   -5.4240   -3.3590    2.5140 C   0  0  0  0  0  0  0  0  0  0  0  0
   -5.2170   -4.5890    2.5900 O   0  0  0  0  0  0  0  0  0  0  0  0
   -6.7140   -2.8720    2.3950 O   0  0  0  0  0  0  0  0  0  0  0  0
  1  2  1  0
  2  3  2  0
  2  7  1  0
  3  4  1  0
  4  5  2  0
  4 44  1  0
  5  6  1  0
  5 11  1  0
  6  7  2  0
  7  8  1  0
  8  9  1  0
  9 10  1  0
 11 12  1  0
 11 41  1  0
 12 13  2  0
 14 12  1  1
 14 15  1  0
 14 40  1  0
 15 16  1  0
 16 17  2  0
 17 18  1  0
 17 38  1  0
 18 19  1  0
 19 20  1  0
 20 21  1  0
 21 22  2  0
 21 37  1  0
 22 23  1  0
 23 24  2  0
 24 25  1  0
 24 31  1  0
 25 26  2  0
 25 30  1  0
 26 27  1  0
 27 28  2  0
 28 29  1  0
 28 30  1  0
 31 32  1  0
 31 37  2  0
 32 33  2  0
 32 34  1  0
 34 35  1  6
 34 36  1  0
 38 39  2  0
 38 40  1  0
 41 42  1  0
 42 43  2  0
 42 44  1  0
M  CHG  1  19   1
M  END
