
     RDKit          3D

 44 48  0  0  0  0  0  0  0  0999 V2000
  -11.5250    1.3380   -0.5910 N   0  0  0  0  0  0  0  0  0  0  0  0
  -11.2310    0.7070   -1.8260 C   0  0  0  0  0  0  0  0  0  0  0  0
  -10.5100   -0.5800   -1.8190 C   0  0  0  0  0  0  0  0  0  0  0  0
   -9.1570   -0.6270   -1.2200 C   0  0  0  0  0  0  0  0  0  0  0  0
   -9.0240   -0.3550    0.2000 C   0  0  0  0  0  0  0  0  0  0  0  0
   -9.9810   -0.5080    0.9850 O   0  0  0  0  0  0  0  0  0  0  0  0
   -7.7960    0.0890    0.7410 N   0  0  0  0  0  0  0  0  0  0  0  0
   -7.5920    0.3700    2.1480 C   0  0  0  0  0  0  0  0  0  0  0  0
   -6.6960    1.5430    2.3780 C   0  0  0  0  0  0  0  0  0  0  0  0
   -5.3400    1.3200    1.7580 C   0  0  0  0  0  0  0  0  0  0  0  0
   -5.4360    0.1310    0.8340 C   0  0  2  0  0  0  0  0  0  0  0  0
   -4.1960   -0.0690    0.0510 C   0  0  0  0  0  0  0  0  0  0  0  0
   -3.3650   -1.1640    0.1430 C   0  0  0  0  0  0  0  0  0  0  0  0
   -2.3050   -1.0250   -0.7280 C   0  0  0  0  0  0  0  0  0  0  0  0
   -1.1860   -1.9410   -0.9600 C   0  0  0  0  0  0  0  0  0  0  0  0
   -1.1650   -3.0110   -0.2870 O   0  0  0  0  0  0  0  0  0  0  0  0
   -0.1840   -1.6980   -1.8520 O   0  0  0  0  0  0  0  0  0  0  0  0
    0.8850   -2.6020   -2.0530 C   0  0  0  0  0  0  0  0  0  0  0  0
    1.6420   -2.8060   -0.7700 C   0  0  0  0  0  0  0  0  0  0  0  0
    1.6770   -3.9550   -0.1000 C   0  0  0  0  0  0  0  0  0  0  0  0
    2.7220   -3.5870    1.3500 S   0  0  0  0  0  0  0  0  0  0  0  0
    2.9380   -1.8030    0.7370 C   0  0  0  0  0  0  0  0  0  0  0  0
    3.9450   -0.6810    1.7380 S   0  0  0  0  0  0  0  0  0  0  0  0
    3.9350    0.9050    0.8780 C   0  0  0  0  0  0  0  0  0  0  0  0
    4.6890    0.7700   -0.4130 C   0  0  2  0  0  0  0  0  0  0  0  0
    4.1260   -0.1720   -1.2330 O   0  0  0  0  0  0  0  0  0  0  0  0
    6.1030    0.4300   -0.1460 C   0  0  0  0  0  0  0  0  0  0  0  0
    6.9030    0.0550   -1.2020 C   0  0  0  0  0  0  0  0  0  0  0  0
    8.2220   -0.2640   -0.9770 C   0  0  0  0  0  0  0  0  0  0  0  0
    8.7960   -0.2240    0.3030 C   0  0  0  0  0  0  0  0  0  0  0  0
   10.1160   -0.5520    0.4840 O   0  0  0  0  0  0  0  0  0  0  0  0
   11.1370    0.3410    0.2570 C   0  0  0  0  0  0  0  0  0  0  0  0
   12.0790   -0.0060   -0.7080 C   0  0  0  0  0  0  0  0  0  0  0  0
   13.1090    0.8630   -0.9580 C   0  0  0  0  0  0  0  0  0  0  0  0
   13.2410    2.0540   -0.2920 C   0  0  0  0  0  0  0  0  0  0  0  0
   12.3070    2.3700    0.6480 C   0  0  0  0  0  0  0  0  0  0  0  0
   11.2440    1.5260    0.9390 C   0  0  0  0  0  0  0  0  0  0  0  0
   10.3430    1.9220    1.9040 O   0  0  0  0  0  0  0  0  0  0  0  0
    7.9710    0.1490    1.3140 C   0  0  0  0  0  0  0  0  0  0  0  0
    6.6240    0.4820    1.1250 C   0  0  0  0  0  0  0  0  0  0  0  0
    2.3360   -1.8180   -0.2030 N   0  0  0  0  0  0  0  0  0  0  0  0
   -2.5180    0.1670   -1.3360 N   0  0  0  0  0  0  0  0  0  0  0  0
   -3.6430    0.7260   -0.8670 N   0  0  0  0  0  0  0  0  0  0  0  0
   -6.6090    0.3040   -0.1010 C   0  0  0  0  0  0  0  0  0  0  0  0
  1  2  1  0
  2  3  1  0
  3  4  1  0
  4  5  1  0
  5  6  2  0
  5  7  1  0
  7  8  1  0
  7 44  1  0
  8  9  1  0
  9 10  1  0
 10 11  1  0
 11 12  1  6
 11 44  1  0
 12 13  1  0
 12 43  2  0
 13 14  2  0
 14 15  1  0
 14 42  1  0
 15 16  2  0
 15 17  1  0
 17 18  1  0
 18 19  1  0
 19 20  2  0
 19 41  1  0
 20 21  1  0
 21 22  1  0
 22 23  1  0
 22 41  2  0
 23 24  1  0
 24 25  1  0
 25 26  1  6
 25 27  1  0
 27 28  2  0
 27 40  1  0
 28 29  1  0
 29 30  2  0
 30 31  1  0
 30 39  1  0
 31 32  1  0
 32 33  2  0
 32 37  1  0
 33 34  1  0
 34 35  2  0
 35 36  1  0
 36 37  2  0
 37 38  1  0
 39 40  2  0
 42 43  1  0
M  CHG  1   1   1
M  END
