
     RDKit          3D

 22 24  0  0  0  0  0  0  0  0999 V2000
   -1.7250   -1.3880   -2.8480 O   0  0  0  0  0  0  0  0  0  0  0  0
   -1.4070   -0.8340   -1.7870 C   0  0  0  0  0  0  0  0  0  0  0  0
   -0.0400   -0.8570   -1.4680 C   0  0  0  0  0  0  0  0  0  0  0  0
    0.8590   -1.4650   -2.3060 O   0  0  0  0  0  0  0  0  0  0  0  0
    0.3490   -0.2630   -0.3170 C   0  0  0  0  0  0  0  0  0  0  0  0
    1.7220   -0.2040    0.1480 C   0  0  0  0  0  0  0  0  0  0  0  0
    2.7860   -0.7380   -0.5160 C   0  0  0  0  0  0  0  0  0  0  0  0
    4.1050   -0.6650   -0.0400 C   0  0  0  0  0  0  0  0  0  0  0  0
    4.3360   -0.0310    1.1400 C   0  0  0  0  0  0  0  0  0  0  0  0
    5.6350    0.0620    1.6460 O   0  0  0  0  0  0  0  0  0  0  0  0
    3.2960    0.5280    1.8560 C   0  0  0  0  0  0  0  0  0  0  0  0
    3.5660    1.1760    3.0720 O   0  0  0  0  0  0  0  0  0  0  0  0
    2.0310    0.4340    1.3560 C   0  0  0  0  0  0  0  0  0  0  0  0
   -0.5510    0.3240    0.4850 O   0  0  0  0  0  0  0  0  0  0  0  0
   -1.8160    0.3380    0.1780 C   0  0  0  0  0  0  0  0  0  0  0  0
   -2.7390    0.9570    1.0290 C   0  0  0  0  0  0  0  0  0  0  0  0
   -4.0800    0.9930    0.7400 C   0  0  0  0  0  0  0  0  0  0  0  0
   -4.9590    1.6300    1.6360 O   0  0  0  0  0  0  0  0  0  0  0  0
   -4.5930    0.4270   -0.3950 C   0  0  0  0  0  0  0  0  0  0  0  0
   -3.6830   -0.2020   -1.2680 C   0  0  0  0  0  0  0  0  0  0  0  0
   -4.2070   -0.7560   -2.3830 O   0  0  0  0  0  0  0  0  0  0  0  0
   -2.3440   -0.2360   -0.9750 C   0  0  0  0  0  0  0  0  0  0  0  0
  1  2  2  0
  2  3  1  0
  2 22  1  0
  3  4  1  0
  3  5  2  0
  5  6  1  0
  5 14  1  0
  6  7  2  0
  6 13  1  0
  7  8  1  0
  8  9  2  0
  9 10  1  0
  9 11  1  0
 11 12  1  0
 11 13  2  0
 14 15  1  0
 15 16  2  0
 15 22  1  0
 16 17  1  0
 17 18  1  0
 17 19  2  0
 19 20  1  0
 20 21  1  0
 20 22  2  0
M  END
