
     RDKit          3D

 17 18  0  0  0  0  0  0  0  0999 V2000
   -3.1510   -0.1660   -1.3870 C   0  0  0  0  0  0  0  0  0  0  0  0
   -2.4840    0.9140   -0.5390 C   0  0  0  0  0  0  0  0  0  0  0  0
   -1.3800    0.3700    0.2330 N   0  0  0  0  0  0  0  0  0  0  0  0
   -1.6500   -0.1080    1.4600 C   0  0  0  0  0  0  0  0  0  0  0  0
   -2.9560   -0.1030    2.0290 N   0  0  0  0  0  0  0  0  0  0  0  0
   -0.6350   -0.6200    2.1970 N   0  0  0  0  0  0  0  0  0  0  0  0
    0.6000   -0.6370    1.6860 C   0  0  0  0  0  0  0  0  0  0  0  0
    0.9010   -0.1450    0.4120 C   0  0  0  0  0  0  0  0  0  0  0  0
    2.1940   -0.1630   -0.1230 N   0  0  0  0  0  0  0  0  0  0  0  0
    2.6060   -0.5120   -1.3440 C   0  0  0  0  0  0  0  0  0  0  0  0
    1.8730   -0.9040   -2.2700 O   0  0  0  0  0  0  0  0  0  0  0  0
    3.9530   -0.3780   -1.4350 N   0  0  0  0  0  0  0  0  0  0  0  0
    4.3860    0.0610   -0.2550 N   0  0  0  0  0  0  0  0  0  0  0  0
    3.3030    0.1930    0.5510 C   0  0  0  0  0  0  0  0  0  0  0  0
    3.3870    0.7080    2.0960 S   0  0  0  0  0  0  0  0  0  0  0  0
   -0.1520    0.3710   -0.3150 C   0  0  0  0  0  0  0  0  0  0  0  0
    0.0550    0.8360   -1.4860 O   0  0  0  0  0  0  0  0  0  0  0  0
  1  2  1  0
  2  3  1  0
  3  4  1  0
  3 16  1  0
  4  5  1  0
  4  6  2  0
  6  7  1  0
  7  8  2  0
  8  9  1  0
  8 16  1  0
  9 10  1  0
  9 14  1  0
 10 11  2  0
 10 12  1  0
 12 13  1  0
 13 14  1  0
 14 15  2  0
 16 17  2  0
M  END
