
     RDKit          3D

 17 18  0  0  0  0  0  0  0  0999 V2000
   -6.3160    1.1530   -0.5180 N   0  0  0  0  0  0  0  0  0  0  0  0
   -5.4210    0.1230   -0.1590 C   0  0  0  0  0  0  0  0  0  0  0  0
   -5.9380   -0.9860    0.1770 O   0  0  0  0  0  0  0  0  0  0  0  0
   -3.9940    0.3480   -0.1820 C   0  0  0  0  0  0  0  0  0  0  0  0
   -3.5540    1.4690   -0.5250 O   0  0  0  0  0  0  0  0  0  0  0  0
   -3.0350   -0.6470    0.1680 N   0  0  0  0  0  0  0  0  0  0  0  0
   -1.6770   -0.4450    0.1500 C   0  0  0  0  0  0  0  0  0  0  0  0
   -0.7800    0.4590   -0.1080 N   0  0  0  0  0  0  0  0  0  0  0  0
    0.4290    0.3890   -0.0450 N   0  0  0  0  0  0  0  0  0  0  0  0
    1.0710   -0.8120    0.3600 C   0  0  0  0  0  0  0  0  0  0  0  0
    2.3380   -1.1910    0.5240 N   0  0  0  0  0  0  0  0  0  0  0  0
    3.5130   -0.3950    0.3100 C   0  0  0  0  0  0  0  0  0  0  0  0
    4.1000   -0.1110   -0.8440 C   0  0  0  0  0  0  0  0  0  0  0  0
    5.2910    0.7460   -0.6110 C   0  0  0  0  0  0  0  0  0  0  0  0
    5.2880    0.9000    0.8200 N   0  0  0  0  0  0  0  0  0  0  0  0
    4.2840    0.2570    1.3540 C   0  0  0  0  0  0  0  0  0  0  0  0
   -0.4690   -1.7910    0.6210 S   0  0  0  0  0  0  0  0  0  0  0  0
  1  2  1  0
  2  3  2  0
  2  4  1  0
  4  5  2  0
  4  6  1  0
  6  7  1  0
  7  8  2  0
  7 17  1  0
  8  9  1  0
  9 10  2  0
 10 11  1  0
 10 17  1  0
 11 12  1  0
 12 13  2  0
 12 16  1  0
 13 14  1  0
 14 15  1  0
 15 16  2  0
M  END
