
     RDKit          3D

 23 26  0  0  0  0  0  0  0  0999 V2000
    2.4710   -2.2660    0.8590 C   0  0  0  0  0  0  0  0  0  0  0  0
    2.3280   -0.8380    0.6420 C   0  0  0  0  0  0  0  0  0  0  0  0
    3.3820   -0.0810    0.3420 C   0  0  0  0  0  0  0  0  0  0  0  0
    4.5780   -0.9350    0.2880 C   0  0  0  0  0  0  0  0  0  0  0  0
    5.7780   -0.1690   -0.2910 C   0  0  0  0  0  0  0  0  0  0  0  0
    5.8040    1.2650    0.1180 C   0  0  0  0  0  0  0  0  0  0  0  0
    4.6040    1.9500   -0.5560 C   0  0  0  0  0  0  0  0  0  0  0  0
    3.4190    1.3600    0.1050 C   0  0  0  0  0  0  0  0  0  0  0  0
    2.5520    2.2890    0.3890 N   0  0  0  0  0  0  0  0  0  0  0  0
    1.3040    2.0840    1.0320 N   0  0  0  0  0  0  0  0  0  0  0  0
    0.5220    0.8920    0.9490 C   0  0  0  0  0  0  0  0  0  0  0  0
   -0.8310    0.8600    1.0290 N   0  0  0  0  0  0  0  0  0  0  0  0
   -1.2400   -0.3870    0.9120 N   0  0  0  0  0  0  0  0  0  0  0  0
   -2.5830   -0.9370    0.9320 C   0  0  0  0  0  0  0  0  0  0  0  0
   -3.1690   -0.9870   -0.4310 C   0  0  0  0  0  0  0  0  0  0  0  0
   -4.2820   -0.3230   -0.6860 C   0  0  0  0  0  0  0  0  0  0  0  0
   -5.0450    0.4970    0.2590 C   0  0  0  0  0  0  0  0  0  0  0  0
   -6.4090    0.6850   -0.3440 C   0  0  0  0  0  0  0  0  0  0  0  0
   -6.1650    0.5950   -1.8260 C   0  0  0  0  0  0  0  0  0  0  0  0
   -4.9570   -0.2910   -2.0010 C   0  0  0  0  0  0  0  0  0  0  0  0
   -0.1280   -1.1620    0.7550 C   0  0  0  0  0  0  0  0  0  0  0  0
   -0.1110   -2.4200    0.6090 O   0  0  0  0  0  0  0  0  0  0  0  0
    0.9620   -0.3740    0.7780 N   0  0  0  0  0  0  0  0  0  0  0  0
  1  2  1  0
  2  3  2  0
  2 23  1  0
  3  4  1  0
  3  8  1  0
  4  5  1  0
  5  6  1  0
  6  7  1  0
  7  8  1  0
  8  9  2  0
  9 10  1  0
 10 11  1  0
 11 12  2  0
 11 23  1  0
 12 13  1  0
 13 14  1  0
 13 21  1  0
 14 15  1  0
 15 16  2  3
 16 17  1  0
 16 20  1  0
 17 18  1  0
 18 19  1  0
 19 20  1  0
 21 22  2  0
 21 23  1  0
M  END
