
     RDKit          3D

 16 17  0  0  0  0  0  0  0  0999 V2000
   -0.6560   -5.0220    2.0930 N   0  0  0  0  0  0  0  0  0  0  0  0
   -0.6700   -4.3660    0.8130 C   0  0  0  0  0  0  0  0  0  0  0  0
   -0.9780   -3.1000    0.7200 C   0  0  0  0  0  0  0  0  0  0  0  0
   -0.9900   -2.3080   -0.8670 S   0  0  0  0  0  0  0  0  0  0  0  0
   -0.4200   -0.6250   -0.6520 C   0  0  0  0  0  0  0  0  0  0  0  0
   -0.0790   -0.1830    0.5550 N   0  0  0  0  0  0  0  0  0  0  0  0
    0.3500    1.0550    0.7730 C   0  0  0  0  0  0  0  0  0  0  0  0
    0.4410    1.9130   -0.3190 C   0  0  0  0  0  0  0  0  0  0  0  0
    0.8690    3.1680   -0.1430 N   0  0  0  0  0  0  0  0  0  0  0  0
    0.9430    3.9700   -1.2260 C   0  0  0  0  0  0  0  0  0  0  0  0
    1.3380    5.1370   -1.0800 O   0  0  0  0  0  0  0  0  0  0  0  0
    0.5970    3.5160   -2.4430 N   0  0  0  0  0  0  0  0  0  0  0  0
    0.1610    2.2640   -2.6740 C   0  0  0  0  0  0  0  0  0  0  0  0
   -0.1520    1.8810   -3.8310 O   0  0  0  0  0  0  0  0  0  0  0  0
    0.0810    1.4300   -1.5670 C   0  0  0  0  0  0  0  0  0  0  0  0
   -0.3390    0.1820   -1.7110 N   0  0  0  0  0  0  0  0  0  0  0  0
  1  2  1  0
  2  3  2  3
  3  4  1  0
  4  5  1  0
  5  6  2  0
  5 16  1  0
  6  7  1  0
  7  8  2  0
  8  9  1  0
  8 15  1  0
  9 10  1  0
 10 11  2  0
 10 12  1  0
 12 13  1  0
 13 14  2  0
 13 15  1  0
 15 16  2  0
M  END
