
     RDKit          3D

 17 18  0  0  0  0  0  0  0  0999 V2000
    5.0250   -1.2720    0.5840 N   0  0  0  0  0  0  0  0  0  0  0  0
    4.4960    0.0600    0.5550 C   0  0  0  0  0  0  0  0  0  0  0  0
    5.4750    1.2870    0.9480 S   0  0  0  0  0  0  0  0  0  0  0  0
    3.1190    0.3300    0.1980 C   0  0  0  0  0  0  0  0  0  0  0  0
    2.6370    1.6600    0.2030 N   0  0  0  0  0  0  0  0  0  0  0  0
    2.3560   -0.6410   -0.1250 N   0  0  0  0  0  0  0  0  0  0  0  0
    0.9880   -0.4730   -0.4890 C   0  0  0  0  0  0  0  0  0  0  0  0
    0.5220   -0.0970   -1.7100 C   0  0  0  0  0  0  0  0  0  0  0  0
   -0.7980   -0.0520   -1.6530 N   0  0  0  0  0  0  0  0  0  0  0  0
   -1.2360   -0.3840   -0.4330 C   0  0  0  0  0  0  0  0  0  0  0  0
   -2.5540   -0.4580    0.0760 N   0  0  0  0  0  0  0  0  0  0  0  0
   -3.7830    0.0410   -0.5030 C   0  0  0  0  0  0  0  0  0  0  0  0
   -4.3910    0.6260    0.7850 C   0  0  0  0  0  0  0  0  0  0  0  0
   -4.2370   -0.4850    1.6520 O   0  0  0  0  0  0  0  0  0  0  0  0
   -2.9850   -1.0340    1.3100 C   0  0  0  0  0  0  0  0  0  0  0  0
   -2.3130   -1.9000    1.9590 O   0  0  0  0  0  0  0  0  0  0  0  0
   -0.0950   -0.6440    0.2780 N   0  0  0  0  0  0  0  0  0  0  0  0
  1  2  1  0
  2  3  2  0
  2  4  1  0
  4  5  1  0
  4  6  2  3
  6  7  1  0
  7  8  2  0
  7 17  1  0
  8  9  1  0
  9 10  1  0
 10 11  1  0
 10 17  2  0
 11 12  1  0
 11 15  1  0
 12 13  1  0
 13 14  1  0
 14 15  1  0
 15 16  2  0
M  END
