
     RDKit          3D

 15 15  0  0  0  0  0  0  0  0999 V2000
    4.0260    0.3240    1.7570 N   0  0  0  0  0  0  0  0  0  0  0  0
    3.9760    0.4220    0.3400 C   0  0  0  0  0  0  0  0  0  0  0  0
    2.8300    0.2630   -0.3270 C   0  0  0  0  0  0  0  0  0  0  0  0
    1.5860   -0.0150    0.3330 C   0  0  0  0  0  0  0  0  0  0  0  0
    0.4180   -0.1790   -0.3050 C   0  0  0  0  0  0  0  0  0  0  0  0
   -0.7710   -0.4550    0.4580 C   0  0  0  0  0  0  0  0  0  0  0  0
   -1.9810   -0.6400   -0.0110 C   0  0  0  0  0  0  0  0  0  0  0  0
   -3.0960   -0.9190    0.9720 C   0  0  0  0  0  0  0  0  0  0  0  0
   -4.1310    0.1930    0.8070 C   0  0  0  0  0  0  0  0  0  0  0  0
   -4.6330    0.2120   -0.4890 O   0  0  0  0  0  0  0  0  0  0  0  0
    0.3880   -0.0760   -1.7380 C   0  0  0  0  0  0  0  0  0  0  0  0
   -0.6860   -0.2200   -2.4370 O   0  0  0  0  0  0  0  0  0  0  0  0
    1.6020    0.2000   -2.4510 N   0  0  0  0  0  0  0  0  0  0  0  0
    2.8180    0.3710   -1.7750 C   0  0  0  0  0  0  0  0  0  0  0  0
    3.8770    0.6140   -2.4310 O   0  0  0  0  0  0  0  0  0  0  0  0
  1  2  1  0
  2  3  2  3
  3  4  1  0
  3 14  1  0
  4  5  2  0
  5  6  1  0
  5 11  1  0
  6  7  2  3
  7  8  1  0
  8  9  1  0
  9 10  1  0
 11 12  2  0
 11 13  1  0
 13 14  1  0
 14 15  2  0
M  END
