
     RDKit          3D

 15 16  0  0  0  0  0  0  0  0999 V2000
   -0.1640   -2.4750   -1.6990 N   0  0  0  0  0  0  0  0  0  0  0  0
   -0.9120   -1.9100   -0.6460 C   0  0  0  0  0  0  0  0  0  0  0  0
   -1.8510   -2.5080    0.1510 C   0  0  0  0  0  0  0  0  0  0  0  0
   -2.2740   -1.6030    0.9880 O   0  0  0  0  0  0  0  0  0  0  0  0
   -1.7000   -0.4310    0.8290 C   0  0  0  0  0  0  0  0  0  0  0  0
   -0.8210   -0.6080   -0.2180 C   0  0  0  0  0  0  0  0  0  0  0  0
    0.0590    0.4240   -0.7830 C   0  0  0  0  0  0  0  0  0  0  0  0
    1.1780   -0.0700   -1.4170 O   0  0  0  0  0  0  0  0  0  0  0  0
    2.4730    0.2350   -0.9970 C   0  0  0  0  0  0  0  0  0  0  0  0
    2.7700   -0.1950    0.4190 C   0  0  0  0  0  0  0  0  0  0  0  0
    1.9010    0.4330    1.2930 O   0  0  0  0  0  0  0  0  0  0  0  0
   -0.1200    1.7330   -0.7420 C   0  0  0  0  0  0  0  0  0  0  0  0
   -1.2610    2.4310   -0.1070 C   0  0  0  0  0  0  0  0  0  0  0  0
   -2.0420    2.0320    0.8890 C   0  0  0  0  0  0  0  0  0  0  0  0
   -1.9950    0.7780    1.6500 C   0  0  0  0  0  0  0  0  0  0  0  0
  1  2  1  0
  2  3  2  0
  2  6  1  0
  3  4  1  0
  4  5  1  0
  5  6  2  0
  5 15  1  0
  6  7  1  0
  7  8  1  0
  7 12  2  0
  8  9  1  0
  9 10  1  0
 10 11  1  0
 12 13  1  0
 13 14  2  0
 14 15  1  0
M  END
