
     RDKit          3D

 15 15  0  0  0  0  0  0  0  0999 V2000
   -3.8060   -1.9490    1.8150 O   0  0  0  0  0  0  0  0  0  0  0  0
   -2.4540   -2.0950    1.6210 C   0  0  0  0  0  0  0  0  0  0  0  0
   -1.7460   -1.2620    0.9020 C   0  0  0  0  0  0  0  0  0  0  0  0
   -0.3830   -1.3560    0.6710 C   0  0  0  0  0  0  0  0  0  0  0  0
    0.0150   -0.3060   -0.1280 C   0  0  0  0  0  0  0  0  0  0  0  0
    1.4040   -0.0280   -0.6180 C   0  0  0  0  0  0  0  0  0  0  0  0
    2.1550    0.8470    0.3440 C   0  0  0  0  0  0  0  0  0  0  0  0
    3.5300    1.1650   -0.0930 C   0  0  0  0  0  0  0  0  0  0  0  0
    4.4690    0.0440   -0.3000 C   0  0  0  0  0  0  0  0  0  0  0  0
    4.1390   -0.8900   -1.2400 O   0  0  0  0  0  0  0  0  0  0  0  0
   -1.0830    0.4040   -0.3720 N   0  0  0  0  0  0  0  0  0  0  0  0
   -2.1790   -0.1410    0.2350 C   0  0  0  0  0  0  0  0  0  0  0  0
   -3.3960    0.3750    0.1480 C   0  0  0  0  0  0  0  0  0  0  0  0
   -3.6490    1.6050   -0.6320 C   0  0  0  0  0  0  0  0  0  0  0  0
   -3.9530    1.3330   -1.9620 O   0  0  0  0  0  0  0  0  0  0  0  0
  1  2  1  0
  2  3  2  3
  3  4  1  0
  3 12  1  0
  4  5  2  0
  5  6  1  0
  5 11  1  0
  6  7  1  0
  7  8  1  0
  8  9  1  0
  9 10  1  0
 11 12  1  0
 12 13  2  3
 13 14  1  0
 14 15  1  0
M  END
