
     RDKit          3D

 10 10  0  0  0  0  0  0  0  0999 V2000
    3.0580   -0.2550    0.6870 C   0  0  0  0  0  0  0  0  0  0  0  0
    1.6850   -0.0140    0.8560 O   0  0  0  0  0  0  0  0  0  0  0  0
    1.0570   -0.6200   -0.2300 C   0  0  0  0  0  0  0  0  0  0  0  0
   -0.4180   -0.4420   -0.1790 C   0  0  0  0  0  0  0  0  0  0  0  0
   -1.1590   -1.4510   -0.1300 N   0  0  0  0  0  0  0  0  0  0  0  0
   -2.5890   -1.3930   -0.0790 C   0  0  0  0  0  0  0  0  0  0  0  0
   -3.0710   -0.0910   -0.0900 O   0  0  0  0  0  0  0  0  0  0  0  0
   -2.2640    1.0370   -0.1450 C   0  0  0  0  0  0  0  0  0  0  0  0
   -0.9360    0.9130   -0.1900 C   0  0  0  0  0  0  0  0  0  0  0  0
   -0.1060    2.0510   -0.2460 N   0  0  0  0  0  0  0  0  0  0  0  0
  1  2  1  0
  2  3  1  0
  3  4  1  0
  4  5  2  0
  4  9  1  0
  5  6  1  0
  6  7  1  0
  7  8  1  0
  8  9  2  0
  9 10  1  0
M  END
