
     RDKit          3D

 10 10  0  0  0  0  0  0  0  0999 V2000
    2.5160    1.3160   -0.2990 C   0  0  0  0  0  0  0  0  0  0  0  0
    2.4700    0.0080    0.2960 N   0  0  0  0  0  0  0  0  0  0  0  0
    1.3750   -0.6320    0.5260 C   0  0  0  0  0  0  0  0  0  0  0  0
    1.4880   -1.9180    1.1190 N   0  0  0  0  0  0  0  0  0  0  0  0
    0.0880   -0.0110    0.1670 C   0  0  1  0  0  0  0  0  0  0  0  0
   -0.6700   -0.8560   -0.8380 C   0  0  0  0  0  0  0  0  0  0  0  0
   -1.9420   -1.1090   -0.3830 O   0  0  0  0  0  0  0  0  0  0  0  0
   -2.6300   -0.0050    0.0560 C   0  0  0  0  0  0  0  0  0  0  0  0
   -1.8060    0.8840    0.9490 C   0  0  0  0  0  0  0  0  0  0  0  0
   -0.6790    0.1350    1.3420 O   0  0  0  0  0  0  0  0  0  0  0  0
  1  2  1  0
  2  3  2  3
  3  4  1  0
  5  3  1  1
  5  6  1  0
  5 10  1  0
  6  7  1  0
  7  8  1  0
  8  9  1  0
  9 10  1  0
M  END
