
     RDKit          3D

 23 25  0  0  0  0  0  0  0  0999 V2000
   -1.1730    0.0730   -2.4840 O   0  0  0  0  0  0  0  0  0  0  0  0
   -0.8690   -0.5030   -1.4460 C   0  0  0  0  0  0  0  0  0  0  0  0
    0.4780   -0.9790   -1.2630 N   0  0  0  0  0  0  0  0  0  0  0  0
    1.4890   -0.7960   -2.2610 C   0  0  0  0  0  0  0  0  0  0  0  0
    1.7570    0.6290   -2.5570 C   0  0  0  0  0  0  0  0  0  0  0  0
    2.1790    1.5720   -1.5200 C   0  0  0  0  0  0  0  0  0  0  0  0
    3.2930    1.5810   -0.7640 N   0  0  0  0  0  0  0  0  0  0  0  0
    3.6240    0.7630    0.2810 C   0  0  1  0  0  0  0  0  0  0  0  0
    3.8660   -0.6910    0.1400 C   0  0  0  0  0  0  0  0  0  0  0  0
    4.6860   -1.0700    1.3770 C   0  0  0  0  0  0  0  0  0  0  0  0
    5.0840    0.2100    2.0280 C   0  0  0  0  0  0  0  0  0  0  0  0
    4.9900    1.2230    0.9150 C   0  0  0  0  0  0  0  0  0  0  0  0
   -1.8420   -0.6950   -0.4360 N   0  0  0  0  0  0  0  0  0  0  0  0
   -3.1900   -0.3100   -0.4660 C   0  0  0  0  0  0  0  0  0  0  0  0
   -3.7880    0.1500   -1.6180 C   0  0  0  0  0  0  0  0  0  0  0  0
   -5.1410    0.4830   -1.5820 C   0  0  0  0  0  0  0  0  0  0  0  0
   -5.8600    0.3590   -0.4360 C   0  0  0  0  0  0  0  0  0  0  0  0
   -5.2810   -0.0980    0.7250 C   0  0  0  0  0  0  0  0  0  0  0  0
   -6.0800   -0.1900    1.8540 C   0  0  0  0  0  0  0  0  0  0  0  0
   -5.5320   -0.6330    3.0270 C   0  0  0  0  0  0  0  0  0  0  0  0
   -4.2080   -0.9750    3.0570 C   0  0  0  0  0  0  0  0  0  0  0  0
   -3.4140   -0.8760    1.9020 C   0  0  0  0  0  0  0  0  0  0  0  0
   -3.9450   -0.4310    0.7030 C   0  0  0  0  0  0  0  0  0  0  0  0
  1  2  2  0
  2  3  1  0
  2 13  1  0
  3  4  1  0
  4  5  1  0
  5  6  1  0
  6  7  1  0
  8  7  1  6
  8  9  1  0
  8 12  1  0
  9 10  1  0
 10 11  1  0
 11 12  1  0
 13 14  1  0
 14 15  2  0
 14 23  1  0
 15 16  1  0
 16 17  2  0
 17 18  1  0
 18 19  2  0
 18 23  1  0
 19 20  1  0
 20 21  2  0
 21 22  1  0
 22 23  2  0
M  END
