
     RDKit          3D

 10 10  0  0  0  0  0  0  0  0999 V2000
    2.6890    0.5270    0.6460 C   0  0  0  0  0  0  0  0  0  0  0  0
    1.9160   -0.0780   -0.2040 C   0  0  0  0  0  0  0  0  0  0  0  0
    0.4740   -0.0960   -0.1630 C   0  0  0  0  0  0  0  0  0  0  0  0
   -0.2780   -0.7780   -1.1260 C   0  0  0  0  0  0  0  0  0  0  0  0
   -1.6190   -0.7920   -1.0830 N   0  0  0  0  0  0  0  0  0  0  0  0
   -2.3190   -0.1600   -0.1250 C   0  0  0  0  0  0  0  0  0  0  0  0
   -3.5740   -0.2020   -0.1270 O   0  0  0  0  0  0  0  0  0  0  0  0
   -1.5910    0.5150    0.8300 C   0  0  0  0  0  0  0  0  0  0  0  0
   -2.2370    1.1070    1.7260 O   0  0  0  0  0  0  0  0  0  0  0  0
   -0.2240    0.5350    0.7940 N   0  0  0  0  0  0  0  0  0  0  0  0
  1  2  2  0
  2  3  1  0
  3  4  2  0
  3 10  1  0
  4  5  1  0
  5  6  1  0
  6  7  2  0
  6  8  1  0
  8  9  2  0
  8 10  1  0
M  END
