
     RDKit          3D

 23 25  0  0  0  0  0  0  0  0999 V2000
    5.4930    1.6950   -2.7780 C   0  0  0  0  0  0  0  0  0  0  0  0
    5.1180    1.5530   -1.3240 C   0  0  0  0  0  0  0  0  0  0  0  0
    3.8970    0.6340   -1.1640 C   0  0  0  0  0  0  0  0  0  0  0  0
    3.6080    0.5610    0.3120 C   0  0  0  0  0  0  0  0  0  0  0  0
    2.4970   -0.2550    0.6580 N   0  0  0  0  0  0  0  0  0  0  0  0
    2.6370   -1.5640    0.9250 C   0  0  0  0  0  0  0  0  0  0  0  0
    4.0020   -2.1400    0.8510 C   0  0  0  0  0  0  0  0  0  0  0  0
    1.5620   -2.3410    1.2550 N   0  0  0  0  0  0  0  0  0  0  0  0
    0.3250   -1.8060    1.3210 C   0  0  0  0  0  0  0  0  0  0  0  0
   -0.8670   -2.6170    1.6760 C   0  0  0  0  0  0  0  0  0  0  0  0
    0.1450   -0.4660    1.0530 C   0  0  0  0  0  0  0  0  0  0  0  0
   -1.1890    0.0880    1.1290 C   0  0  0  0  0  0  0  0  0  0  0  0
   -2.1690   -0.1750    0.3210 C   0  0  0  0  0  0  0  0  0  0  0  0
   -2.1560   -0.9960   -0.7330 N   0  0  0  0  0  0  0  0  0  0  0  0
   -3.3590   -1.0070   -1.3240 C   0  0  0  0  0  0  0  0  0  0  0  0
   -4.1750   -0.1710   -0.6360 C   0  0  0  0  0  0  0  0  0  0  0  0
   -3.4550    0.3570    0.3910 C   0  0  0  0  0  0  0  0  0  0  0  0
   -4.0030    1.2260    1.2470 C   0  0  0  0  0  0  0  0  0  0  0  0
   -5.4000    1.6360    1.1080 C   0  0  0  0  0  0  0  0  0  0  0  0
   -5.9570    1.4950   -0.2630 C   0  0  0  0  0  0  0  0  0  0  0  0
   -5.6030    0.1660   -0.9000 C   0  0  0  0  0  0  0  0  0  0  0  0
    1.2570    0.2850    0.7230 C   0  0  0  0  0  0  0  0  0  0  0  0
    1.1260    1.5080    0.4740 O   0  0  0  0  0  0  0  0  0  0  0  0
  1  2  1  0
  2  3  1  0
  3  4  1  0
  4  5  1  0
  5  6  1  0
  5 22  1  0
  6  7  1  0
  6  8  2  0
  8  9  1  0
  9 10  1  0
  9 11  2  0
 11 12  1  0
 11 22  1  0
 12 13  2  3
 13 14  1  0
 13 17  1  0
 14 15  1  0
 15 16  2  0
 16 17  1  0
 16 21  1  0
 17 18  2  0
 18 19  1  0
 19 20  1  0
 20 21  1  0
 22 23  2  0
M  END
