
     RDKit          3D

 18 20  0  0  0  0  0  0  0  0999 V2000
    2.3740   -1.8900    0.0040 C   0  0  0  0  0  0  0  0  0  0  0  0
    2.2520   -0.7090   -0.8250 C   0  0  2  0  0  0  0  0  0  0  0  0
    3.4990   -0.0360   -0.7080 O   0  0  0  0  0  0  0  0  0  0  0  0
    3.4920    0.5650    0.5140 C   0  0  0  0  0  0  0  0  0  0  0  0
    2.1130    1.1660    0.6030 C   0  0  0  0  0  0  0  0  0  0  0  0
    1.3090    0.4290   -0.4660 C   0  0  2  0  0  0  0  0  0  0  0  0
    0.0090   -0.0580    0.0100 C   0  0  0  0  0  0  0  0  0  0  0  0
   -0.3920   -1.1120    0.7000 N   0  0  0  0  0  0  0  0  0  0  0  0
   -1.7150   -1.2120    0.7690 C   0  0  0  0  0  0  0  0  0  0  0  0
   -2.3970   -2.2820    1.4320 N   0  0  0  0  0  0  0  0  0  0  0  0
   -2.2230   -0.1780    0.0990 N   0  0  0  0  0  0  0  0  0  0  0  0
   -3.5060    0.2260   -0.0360 C   0  0  0  0  0  0  0  0  0  0  0  0
   -4.4180   -0.5010    0.4330 O   0  0  0  0  0  0  0  0  0  0  0  0
   -3.7990    1.3790   -0.6550 N   0  0  0  0  0  0  0  0  0  0  0  0
   -2.8170    2.1470   -1.1520 N   0  0  0  0  0  0  0  0  0  0  0  0
   -1.5360    1.7330   -1.0210 C   0  0  0  0  0  0  0  0  0  0  0  0
   -0.5940    2.4280   -1.4830 O   0  0  0  0  0  0  0  0  0  0  0  0
   -1.2010    0.5560   -0.3870 C   0  0  0  0  0  0  0  0  0  0  0  0
  2  1  1  1
  2  3  1  0
  2  6  1  0
  3  4  1  0
  4  5  1  0
  5  6  1  0
  6  7  1  1
  7  8  1  0
  7 18  2  0
  8  9  2  0
  9 10  1  0
  9 11  1  0
 11 12  1  0
 11 18  1  0
 12 13  2  0
 12 14  1  0
 14 15  1  0
 15 16  1  0
 16 17  2  0
 16 18  1  0
M  END
