
     RDKit          3D

 19 21  0  0  0  0  0  0  0  0999 V2000
    3.5240   -0.2650    1.5330 O   0  0  0  0  0  0  0  0  0  0  0  0
    2.8560   -0.3560    0.4510 C   0  0  0  0  0  0  0  0  0  0  0  0
    1.8730    0.7460    0.3200 C   0  0  0  0  0  0  0  0  0  0  0  0
    1.2420    0.7060   -0.9790 N   0  0  0  0  0  0  0  0  0  0  0  0
    0.1650    1.5340   -1.3830 C   0  0  0  0  0  0  0  0  0  0  0  0
    0.1850    1.9490   -2.5760 O   0  0  0  0  0  0  0  0  0  0  0  0
   -0.9680    1.9530   -0.5530 C   0  0  0  0  0  0  0  0  0  0  0  0
   -1.5290    3.1810   -0.4830 N   0  0  0  0  0  0  0  0  0  0  0  0
   -2.5310    3.1830    0.3760 C   0  0  0  0  0  0  0  0  0  0  0  0
   -2.6210    1.9440    0.8700 N   0  0  0  0  0  0  0  0  0  0  0  0
   -1.6620    1.1680    0.3070 C   0  0  0  0  0  0  0  0  0  0  0  0
   -1.4480   -0.2600    0.5990 C   0  0  1  0  0  0  0  0  0  0  0  0
   -2.4030   -1.2760    0.0540 C   0  0  0  0  0  0  0  0  0  0  0  0
   -0.9270   -1.1070   -0.4320 C   0  0  2  0  0  0  0  0  0  0  0  0
   -0.0510   -2.0480    0.0740 O   0  0  0  0  0  0  0  0  0  0  0  0
    0.9610   -2.7770   -0.4280 C   0  0  0  0  0  0  0  0  0  0  0  0
    0.7540   -4.0650   -0.3710 O   0  0  0  0  0  0  0  0  0  0  0  0
    2.1880   -2.3200   -0.9940 N   0  0  0  0  0  0  0  0  0  0  0  0
    3.0790   -1.4050   -0.4660 N   0  0  0  0  0  0  0  0  0  0  0  0
  1  2  2  0
  2  3  1  0
  2 19  1  0
  3  4  1  0
  4  5  1  0
  5  6  2  0
  5  7  1  0
  7  8  1  0
  7 11  2  0
  8  9  2  0
  9 10  1  0
 10 11  1  0
 11 12  1  0
 12 13  1  6
 12 14  1  0
 14 13  1  1
 14 15  1  0
 15 16  1  0
 16 17  2  0
 16 18  1  0
 18 19  1  0
M  END
