
     RDKit          3D

 25 27  0  0  0  0  0  0  0  0999 V2000
   -0.2280   -3.0480    0.8960 C   0  0  0  0  0  0  0  0  0  0  0  0
   -0.2130   -2.4010   -0.4740 C   0  0  0  0  0  0  0  0  0  0  0  0
   -0.7320   -1.0680   -0.4450 N   0  0  0  0  0  0  0  0  0  0  0  0
   -2.1400   -0.7970   -0.7040 C   0  0  0  0  0  0  0  0  0  0  0  0
   -3.0490   -1.6070   -0.9700 O   0  0  0  0  0  0  0  0  0  0  0  0
   -2.2570    0.6410   -0.5820 C   0  0  0  0  0  0  0  0  0  0  0  0
   -3.3770    1.3180   -0.7380 C   0  0  0  0  0  0  0  0  0  0  0  0
   -4.6590    0.7670   -1.0520 C   0  0  0  0  0  0  0  0  0  0  0  0
   -5.5610    1.3570   -1.9350 C   0  0  0  0  0  0  0  0  0  0  0  0
   -6.6760    0.5630   -1.9920 C   0  0  0  0  0  0  0  0  0  0  0  0
   -8.1360    0.8340   -2.9560 Cl  0  0  0  0  0  0  0  0  0  0  0  0
   -6.4240   -0.4910   -1.1440 C   0  0  0  0  0  0  0  0  0  0  0  0
   -5.2400   -0.3340   -0.6170 O   0  0  0  0  0  0  0  0  0  0  0  0
   -0.9740    1.1400   -0.2700 N   0  0  0  0  0  0  0  0  0  0  0  0
   -0.0970    0.1600   -0.1890 C   0  0  0  0  0  0  0  0  0  0  0  0
    1.3040    0.5130    0.1380 C   0  0  0  0  0  0  0  0  0  0  0  0
    2.2330   -0.3730    0.2770 C   0  0  0  0  0  0  0  0  0  0  0  0
    3.6340   -0.2270    0.6010 C   0  0  0  0  0  0  0  0  0  0  0  0
    4.4980   -1.2670    0.6620 C   0  0  0  0  0  0  0  0  0  0  0  0
    5.8420   -0.8270    1.0170 C   0  0  0  0  0  0  0  0  0  0  0  0
    5.6900    0.6160    1.2030 C   0  0  0  0  0  0  0  0  0  0  0  0
    6.9750    1.7520    1.6780 Cl  0  0  0  0  0  0  0  0  0  0  0  0
    4.4150    0.9340    0.9550 C   0  0  0  0  0  0  0  0  0  0  0  0
    1.6200    1.9670    0.1540 C   0  0  0  0  0  0  0  0  0  0  0  0
    1.0580    2.6780    1.2760 N   0  0  0  0  0  0  0  0  0  0  0  0
  1  2  1  0
  2  3  1  0
  3  4  1  0
  3 15  1  0
  4  5  2  0
  4  6  1  0
  6  7  2  3
  6 14  1  0
  7  8  1  0
  8  9  2  0
  8 13  1  0
  9 10  1  0
 10 11  1  0
 10 12  2  0
 12 13  1  0
 14 15  2  0
 15 16  1  0
 16 17  2  3
 16 24  1  0
 17 18  1  0
 18 19  2  0
 18 23  1  0
 19 20  1  0
 20 21  1  0
 21 22  1  0
 21 23  2  0
 24 25  1  0
M  CHG  1  25   1
M  END
