
     RDKit          3D

 19 20  0  0  0  0  0  0  0  0999 V2000
    6.5490    0.9670    0.4040 N   0  0  0  0  0  0  0  0  0  0  0  0
    5.4030    0.4960   -0.0070 C   0  0  0  0  0  0  0  0  0  0  0  0
    4.2600    0.1640    0.7390 N   0  0  0  0  0  0  0  0  0  0  0  0
    3.3220   -0.2720   -0.0210 C   0  0  0  0  0  0  0  0  0  0  0  0
    1.9910   -0.7030    0.4750 C   0  0  0  0  0  0  0  0  0  0  0  0
    0.9270    0.1070   -0.1300 N   0  0  0  0  0  0  0  0  0  0  0  0
   -0.4320   -0.1370    0.2060 C   0  0  0  0  0  0  0  0  0  0  0  0
   -0.6790   -1.0600    1.0290 O   0  0  0  0  0  0  0  0  0  0  0  0
   -1.4920    0.6370   -0.3690 N   0  0  0  0  0  0  0  0  0  0  0  0
   -2.8360    0.3030    0.0450 C   0  0  0  0  0  0  0  0  0  0  0  0
   -3.5110    1.2750    0.6330 C   0  0  0  0  0  0  0  0  0  0  0  0
   -4.8990    1.0100    1.0870 C   0  0  0  0  0  0  0  0  0  0  0  0
   -5.3380   -0.2940    0.8230 O   0  0  0  0  0  0  0  0  0  0  0  0
   -4.5980   -1.2840    0.2030 C   0  0  0  0  0  0  0  0  0  0  0  0
   -3.3770   -1.0280   -0.1890 C   0  0  0  0  0  0  0  0  0  0  0  0
   -2.5970   -1.9680   -0.8070 O   0  0  0  0  0  0  0  0  0  0  0  0
    3.8000   -0.2590   -1.4000 C   0  0  0  0  0  0  0  0  0  0  0  0
    3.1160   -0.6310   -2.4120 O   0  0  0  0  0  0  0  0  0  0  0  0
    5.1260    0.2340   -1.3630 N   0  0  0  0  0  0  0  0  0  0  0  0
  1  2  2  0
  2  3  1  0
  2 19  1  0
  3  4  2  0
  4  5  1  0
  4 17  1  0
  5  6  1  0
  6  7  1  0
  7  8  2  0
  7  9  1  0
  9 10  1  0
 10 11  2  0
 10 15  1  0
 11 12  1  0
 12 13  1  0
 13 14  1  0
 14 15  2  0
 15 16  1  0
 17 18  2  0
 17 19  1  0
M  END
