
     RDKit          3D

 18 19  0  0  0  0  0  0  0  0999 V2000
   -2.7100   -0.1180    2.5970 C   0  0  0  0  0  0  0  0  0  0  0  0
   -2.3400   -0.6260    1.2160 C   0  0  1  0  0  0  0  0  0  0  0  0
   -3.0000    0.2960    0.2140 C   0  0  0  0  0  0  0  0  0  0  0  0
   -2.6420   -0.1080   -1.2040 C   0  0  1  0  0  0  0  0  0  0  0  0
   -2.2380    1.1290   -1.9630 C   0  0  0  0  0  0  0  0  0  0  0  0
   -1.5170   -1.1160   -1.1410 C   0  0  0  0  0  0  0  0  0  0  0  0
   -0.4320   -0.6420   -0.2510 N   0  0  0  0  0  0  0  0  0  0  0  0
    0.8790   -0.5190   -0.7430 C   0  0  0  0  0  0  0  0  0  0  0  0
    0.9400   -0.8710   -2.0110 O   0  0  0  0  0  0  0  0  0  0  0  0
    2.1000   -0.1000   -0.1410 C   0  0  0  0  0  0  0  0  0  0  0  0
    2.2420    0.3030    1.1600 C   0  0  0  0  0  0  0  0  0  0  0  0
    3.4800    0.7030    1.6850 C   0  0  0  0  0  0  0  0  0  0  0  0
    3.6050    1.2520    3.5050 Br  0  0  0  0  0  0  0  0  0  0  0  0
    4.5710    0.6840    0.8520 C   0  0  0  0  0  0  0  0  0  0  0  0
    4.4700    0.2850   -0.4630 C   0  0  0  0  0  0  0  0  0  0  0  0
    3.2490   -0.1040   -0.9590 C   0  0  0  0  0  0  0  0  0  0  0  0
    3.1500   -0.5080   -2.2960 N   0  0  0  0  0  0  0  0  0  0  0  0
   -0.8120   -0.3360    1.0860 C   0  0  0  0  0  0  0  0  0  0  0  0
  2  1  1  1
  2  3  1  0
  2 18  1  0
  3  4  1  0
  4  5  1  6
  4  6  1  0
  6  7  1  0
  7  8  1  0
  7 18  1  0
  8  9  2  0
  8 10  1  0
 10 11  2  0
 10 16  1  0
 11 12  1  0
 12 13  1  0
 12 14  2  0
 14 15  1  0
 15 16  2  0
 16 17  1  0
M  END
