
     RDKit          3D

 25 27  0  0  0  0  0  0  0  0999 V2000
   -6.0770   -0.7430    1.2170 C   0  0  0  0  0  0  0  0  0  0  0  0
   -5.7690   -0.0140   -0.0620 C   0  0  0  0  0  0  0  0  0  0  0  0
   -4.3210    0.2710   -0.2390 C   0  0  0  0  0  0  0  0  0  0  0  0
   -3.4800   -0.7550   -0.6220 C   0  0  0  0  0  0  0  0  0  0  0  0
   -4.1510   -2.3470   -0.8760 Cl  0  0  0  0  0  0  0  0  0  0  0  0
   -2.1240   -0.5110   -0.7980 C   0  0  0  0  0  0  0  0  0  0  0  0
   -1.5770    0.7330   -0.6010 C   0  0  0  0  0  0  0  0  0  0  0  0
   -0.2040    1.0560   -0.7410 N   0  0  0  0  0  0  0  0  0  0  0  0
    0.8140    0.0290   -0.6770 C   0  0  0  0  0  0  0  0  0  0  0  0
    1.9820    0.1250   -1.4550 N   0  0  0  0  0  0  0  0  0  0  0  0
    3.3030   -0.0920   -1.0080 C   0  0  0  0  0  0  0  0  0  0  0  0
    4.2610   -0.4310   -1.9410 C   0  0  0  0  0  0  0  0  0  0  0  0
    5.5850   -0.6190   -1.6030 C   0  0  0  0  0  0  0  0  0  0  0  0
    5.9990   -0.4700   -0.2930 C   0  0  0  0  0  0  0  0  0  0  0  0
    5.0690   -0.1340    0.6480 C   0  0  0  0  0  0  0  0  0  0  0  0
    3.7320    0.0520    0.2880 C   0  0  0  0  0  0  0  0  0  0  0  0
    5.7420   -0.0470    1.8650 O   0  0  0  0  0  0  0  0  0  0  0  0
    7.1240    0.0290    1.5690 C   0  0  0  0  0  0  0  0  0  0  0  0
    7.2560   -0.6010    0.3060 O   0  0  0  0  0  0  0  0  0  0  0  0
    0.6320   -0.9300    0.1280 N   0  0  0  0  0  0  0  0  0  0  0  0
    1.5600   -2.0180    0.2810 C   0  0  0  0  0  0  0  0  0  0  0  0
   -2.4540    1.7420   -0.2160 C   0  0  0  0  0  0  0  0  0  0  0  0
   -3.8020    1.5410   -0.0320 C   0  0  0  0  0  0  0  0  0  0  0  0
   -4.7110    2.6530    0.3870 C   0  0  0  0  0  0  0  0  0  0  0  0
   -5.6350    3.1870   -1.0330 Cl  0  0  0  0  0  0  0  0  0  0  0  0
  1  2  1  0
  2  3  1  0
  3  4  2  0
  3 23  1  0
  4  5  1  0
  4  6  1  0
  6  7  2  0
  7  8  1  0
  7 22  1  0
  8  9  1  0
  9 10  1  0
  9 20  2  3
 10 11  1  0
 11 12  2  0
 11 16  1  0
 12 13  1  0
 13 14  2  0
 14 15  1  0
 14 19  1  0
 15 16  2  0
 15 17  1  0
 17 18  1  0
 18 19  1  0
 20 21  1  0
 22 23  2  0
 23 24  1  0
 24 25  1  0
M  CHG  1  20   1
M  END
