
     RDKit          3D

 20 20  0  0  0  0  0  0  0  0999 V2000
   -1.1040    2.8270   -1.2970 C   0  0  0  0  0  0  0  0  0  0  0  0
   -1.0780    2.1800   -0.0990 O   0  0  0  0  0  0  0  0  0  0  0  0
   -1.8490    1.0330   -0.0020 C   0  0  2  0  0  0  0  0  0  0  0  0
   -2.8930    1.2150    0.9290 O   0  0  0  0  0  0  0  0  0  0  0  0
   -0.9710   -0.1110    0.5200 C   0  0  1  0  0  0  0  0  0  0  0  0
   -0.4890    0.3590    1.8350 C   0  0  0  0  0  0  0  0  0  0  0  0
    0.3500   -0.4580    2.6130 N   0  0  0  0  0  0  0  0  0  0  0  0
   -1.8560   -1.3410    0.6060 C   0  0  2  0  0  0  0  0  0  0  0  0
   -2.3790   -1.5470    1.8570 O   0  0  0  0  0  0  0  0  0  0  0  0
   -0.9750   -2.5040    0.2270 C   0  0  0  0  0  0  0  0  0  0  0  0
    0.2720   -1.9720   -0.4050 C   0  0  1  0  0  0  0  0  0  0  0  0
    0.4670   -2.5710   -1.8160 C   0  0  0  0  0  0  0  0  0  0  0  0
   -0.0050   -0.4900   -0.5130 C   0  0  1  0  0  0  0  0  0  0  0  0
   -0.6880   -0.3710   -1.7580 O   0  0  0  0  0  0  0  0  0  0  0  0
    1.2080    0.3120   -0.5920 C   0  0  0  0  0  0  0  0  0  0  0  0
    1.5110    0.9340   -1.6300 O   0  0  0  0  0  0  0  0  0  0  0  0
    2.0490    0.3940    0.5000 O   0  0  0  0  0  0  0  0  0  0  0  0
    3.2370    1.1610    0.4670 C   0  0  0  0  0  0  0  0  0  0  0  0
    2.8780    2.4740    0.2120 O   0  0  0  0  0  0  0  0  0  0  0  0
    3.9230    3.2670    0.1630 O   0  0  0  0  0  0  0  0  0  0  0  0
  1  2  1  0
  2  3  1  0
  3  4  1  1
  3  5  1  0
  5  6  1  1
  5  8  1  0
  5 13  1  0
  6  7  1  0
  8  9  1  1
  8 10  1  0
 10 11  1  0
 11 12  1  6
 11 13  1  0
 13 14  1  6
 13 15  1  0
 15 16  2  0
 15 17  1  0
 17 18  1  0
 18 19  1  0
 19 20  1  0
M  CHG  1   7   1
M  END
