
     RDKit          3D

 21 21  0  0  0  0  0  0  0  0999 V2000
    3.6050   -0.8100   -1.2720 C   0  0  0  0  0  0  0  0  0  0  0  0
    2.7100   -0.7620   -0.0560 C   0  0  2  0  0  0  0  0  0  0  0  0
    3.3010   -1.8800    0.8610 C   0  0  0  0  0  0  0  0  0  0  0  0
    4.5950   -1.4580    1.1560 O   0  0  0  0  0  0  0  0  0  0  0  0
    1.4470   -1.0700   -0.4060 O   0  0  0  0  0  0  0  0  0  0  0  0
    0.3730   -0.3700   -0.0120 C   0  0  2  0  0  0  0  0  0  0  0  0
    0.2640   -0.3240    1.4180 O   0  0  0  0  0  0  0  0  0  0  0  0
   -0.7300   -1.2170   -0.3560 O   0  0  0  0  0  0  0  0  0  0  0  0
   -1.9310   -0.6630    0.0060 C   0  0  2  0  0  0  0  0  0  0  0  0
   -2.9660   -1.7620    0.0210 C   0  0  1  0  0  0  0  0  0  0  0  0
   -2.5380   -2.7090    0.9550 O   0  0  0  0  0  0  0  0  0  0  0  0
   -4.3230   -1.2900    0.4560 C   0  0  0  0  0  0  0  0  0  0  0  0
   -4.2830   -0.7140    1.7150 O   0  0  0  0  0  0  0  0  0  0  0  0
   -2.2370    0.4050   -1.0250 C   0  0  1  0  0  0  0  0  0  0  0  0
   -3.4120    1.0970   -0.7370 O   0  0  0  0  0  0  0  0  0  0  0  0
   -1.1310    1.3850   -0.9520 C   0  0  0  0  0  0  0  0  0  0  0  0
   -1.2600    2.6000   -1.1860 O   0  0  0  0  0  0  0  0  0  0  0  0
    0.2010    0.9210   -0.5860 N   0  0  0  0  0  0  0  0  0  0  0  0
    1.2380    1.8820   -0.8300 C   0  0  0  0  0  0  0  0  0  0  0  0
    1.4810    2.7640    0.4000 C   0  0  0  0  0  0  0  0  0  0  0  0
    0.3210    3.4580    0.7370 O   0  0  0  0  0  0  0  0  0  0  0  0
  2  1  1  6
  2  3  1  0
  2  5  1  0
  3  4  1  0
  5  6  1  0
  6  7  1  1
  6  8  1  0
  6 18  1  0
  9  8  1  6
  9 10  1  0
  9 14  1  0
 10 11  1  1
 10 12  1  0
 12 13  1  0
 14 15  1  1
 14 16  1  0
 16 17  2  0
 16 18  1  0
 18 19  1  0
 19 20  1  0
 20 21  1  0
M  END
