
     RDKit          3D

 20 20  0  0  0  0  0  0  0  0999 V2000
    3.4190   -1.9550   -0.0120 C   0  0  0  0  0  0  0  0  0  0  0  0
    3.2210   -0.4620    0.1600 C   0  0  1  0  0  0  0  0  0  0  0  0
    4.4770    0.1050    0.7670 C   0  0  1  0  0  0  0  0  0  0  0  0
    5.5600   -0.1770   -0.0540 O   0  0  0  0  0  0  0  0  0  0  0  0
    4.3640    1.6000    0.9770 C   0  0  0  0  0  0  0  0  0  0  0  0
    4.1840    2.1860   -0.2810 O   0  0  0  0  0  0  0  0  0  0  0  0
    2.9560    0.0670   -1.0910 O   0  0  0  0  0  0  0  0  0  0  0  0
    1.5810   -0.1330   -1.2080 C   0  0  2  0  0  0  0  0  0  0  0  0
    0.9980    0.6980   -2.2350 N   0  0  0  0  0  0  0  0  0  0  0  0
    1.1100    0.2780    0.1830 C   0  0  1  0  0  0  0  0  0  0  0  0
   -0.1770   -0.4470    0.5450 C   0  0  0  0  0  0  0  0  0  0  0  0
   -1.1760    0.0790   -0.2710 O   0  0  0  0  0  0  0  0  0  0  0  0
   -2.4190   -0.5440    0.0000 C   0  0  2  0  0  0  0  0  0  0  0  0
   -2.8570   -1.0640   -1.1920 O   0  0  0  0  0  0  0  0  0  0  0  0
   -3.3080    0.5550    0.5530 C   0  0  0  0  0  0  0  0  0  0  0  0
   -4.5630    0.1650    0.8840 O   0  0  0  0  0  0  0  0  0  0  0  0
   -5.3570   -0.3510   -0.0790 C   0  0  0  0  0  0  0  0  0  0  0  0
   -5.6410    0.5580   -1.2450 C   0  0  0  0  0  0  0  0  0  0  0  0
   -6.2790    1.7190   -0.8100 O   0  0  0  0  0  0  0  0  0  0  0  0
    2.1390   -0.2130    0.9720 O   0  0  0  0  0  0  0  0  0  0  0  0
  2  1  1  6
  2  3  1  0
  2  7  1  0
  2 20  1  0
  3  4  1  6
  3  5  1  0
  5  6  1  0
  7  8  1  0
  8  9  1  6
  8 10  1  0
 10 11  1  1
 10 20  1  0
 11 12  1  0
 12 13  1  0
 13 14  1  6
 13 15  1  0
 15 16  1  0
 16 17  1  0
 17 18  1  0
 18 19  1  0
M  END
