
     RDKit          3D

 29 32  0  0  0  0  0  0  0  0999 V2000
    9.0650   -1.9340    0.4490 C   0  0  0  0  0  0  0  0  0  0  0  0
    7.7270   -1.3610    0.1390 C   0  0  0  0  0  0  0  0  0  0  0  0
    6.6050   -2.0720    0.1610 C   0  0  0  0  0  0  0  0  0  0  0  0
    5.3040   -1.4220   -0.1630 C   0  0  0  0  0  0  0  0  0  0  0  0
    5.3090   -0.1160    0.4790 N   0  0  0  0  0  0  0  0  0  0  0  0
    4.0530    0.3990    0.8920 C   0  0  0  0  0  0  0  0  0  0  0  0
    3.1260    0.6130   -0.0000 C   0  0  0  0  0  0  0  0  0  0  0  0
    1.8040    1.1490    0.3980 C   0  0  0  0  0  0  0  0  0  0  0  0
    0.7740    1.4100   -0.4250 N   0  0  0  0  0  0  0  0  0  0  0  0
   -0.2840    1.8910    0.2690 C   0  0  0  0  0  0  0  0  0  0  0  0
   -1.5840    2.2960   -0.2220 C   0  0  0  0  0  0  0  0  0  0  0  0
   -2.4430    2.7180    0.5740 O   0  0  0  0  0  0  0  0  0  0  0  0
   -1.8830    2.2140   -1.6030 N   0  0  0  0  0  0  0  0  0  0  0  0
   -3.1440    2.5810   -2.1840 C   0  0  0  0  0  0  0  0  0  0  0  0
   -4.2380    1.7200   -1.7160 C   0  0  0  0  0  0  0  0  0  0  0  0
   -4.0660    0.7000   -0.9320 C   0  0  0  0  0  0  0  0  0  0  0  0
   -5.1720   -0.1270   -0.4870 C   0  0  0  0  0  0  0  0  0  0  0  0
   -4.9110   -1.2130    0.3630 C   0  0  0  0  0  0  0  0  0  0  0  0
   -5.8980   -2.0410    0.8270 C   0  0  0  0  0  0  0  0  0  0  0  0
   -7.2130   -1.8540    0.4830 C   0  0  0  0  0  0  0  0  0  0  0  0
   -8.3730   -2.4840    0.7730 N   0  0  0  0  0  0  0  0  0  0  0  0
   -9.3880   -1.8780    0.1640 N   0  0  0  0  0  0  0  0  0  0  0  0
   -8.8730   -0.8320   -0.5360 C   0  0  0  0  0  0  0  0  0  0  0  0
   -7.5080   -0.7990   -0.3490 C   0  0  0  0  0  0  0  0  0  0  0  0
   -6.4900    0.0430   -0.8180 C   0  0  0  0  0  0  0  0  0  0  0  0
    0.1450    1.9190    1.5910 C   0  0  0  0  0  0  0  0  0  0  0  0
    1.4080    1.4660    1.6400 N   0  0  0  0  0  0  0  0  0  0  0  0
    6.5230    0.6440    0.6990 C   0  0  0  0  0  0  0  0  0  0  0  0
    7.6020    0.0780   -0.2190 C   0  0  0  0  0  0  0  0  0  0  0  0
  1  2  1  0
  2  3  2  0
  2 29  1  0
  3  4  1  0
  4  5  1  0
  5  6  1  0
  5 28  1  0
  6  7  2  3
  7  8  1  0
  8  9  2  0
  8 27  1  0
  9 10  1  0
 10 11  1  0
 10 26  2  0
 11 12  2  0
 11 13  1  0
 13 14  1  0
 14 15  1  0
 15 16  2  3
 16 17  1  0
 17 18  2  0
 17 25  1  0
 18 19  1  0
 19 20  2  0
 20 21  1  0
 20 24  1  0
 21 22  1  0
 22 23  2  0
 23 24  1  0
 24 25  2  0
 26 27  1  0
 28 29  1  0
M  CHG  1  22   1
M  END
