
     RDKit          3D

 29 32  0  0  0  0  0  0  0  0999 V2000
   -5.5810    4.0120    0.3250 C   0  0  0  0  0  0  0  0  0  0  0  0
   -5.1020    2.6120    0.5480 C   0  0  0  0  0  0  0  0  0  0  0  0
   -3.9540    2.1440   -0.0340 C   0  0  0  0  0  0  0  0  0  0  0  0
   -3.5290    0.8220    0.1960 C   0  0  0  0  0  0  0  0  0  0  0  0
   -4.2020   -0.0620    0.9850 C   0  0  0  0  0  0  0  0  0  0  0  0
   -3.8100   -1.4280    1.2560 C   0  0  0  0  0  0  0  0  0  0  0  0
   -2.8420   -2.1760    0.9140 C   0  0  0  0  0  0  0  0  0  0  0  0
   -1.6750   -2.0660    0.1120 C   0  0  0  0  0  0  0  0  0  0  0  0
   -0.7940   -3.0720   -0.0770 C   0  0  0  0  0  0  0  0  0  0  0  0
   -0.7990   -4.4220    0.4430 C   0  0  0  0  0  0  0  0  0  0  0  0
   -1.6080   -4.9850    1.1860 O   0  0  0  0  0  0  0  0  0  0  0  0
    0.3910   -5.0540   -0.0910 N   0  0  0  0  0  0  0  0  0  0  0  0
    1.0370   -4.1190   -0.8700 N   0  0  0  0  0  0  0  0  0  0  0  0
    0.4150   -2.9930   -0.8950 C   0  0  0  0  0  0  0  0  0  0  0  0
    0.8630   -1.8070   -1.6420 C   0  0  0  0  0  0  0  0  0  0  0  0
    2.0930   -1.9830   -2.3630 N   0  0  0  0  0  0  0  0  0  0  0  0
    2.3560   -0.7170   -3.0430 C   0  0  0  0  0  0  0  0  0  0  0  0
    2.9000    0.1120   -1.9390 C   0  0  0  0  0  0  0  0  0  0  0  0
    2.9380    1.4770   -1.7580 C   0  0  0  0  0  0  0  0  0  0  0  0
    3.5250    1.9570   -0.6060 C   0  0  0  0  0  0  0  0  0  0  0  0
    4.0530    1.0920    0.3280 C   0  0  0  0  0  0  0  0  0  0  0  0
    4.6040    1.5420    1.4090 N   0  0  0  0  0  0  0  0  0  0  0  0
    4.6780    2.9650    1.6620 C   0  0  0  0  0  0  0  0  0  0  0  0
    5.4460    3.2130    2.8590 N   0  0  0  0  0  0  0  0  0  0  0  0
    3.9890   -0.2300    0.1010 N   0  0  0  0  0  0  0  0  0  0  0  0
    3.4280   -0.7470   -1.0040 C   0  0  0  0  0  0  0  0  0  0  0  0
    3.2260   -2.1500   -1.4960 C   0  0  0  0  0  0  0  0  0  0  0  0
   -5.3800    0.4530    1.5700 C   0  0  0  0  0  0  0  0  0  0  0  0
   -5.8000    1.7400    1.3500 C   0  0  0  0  0  0  0  0  0  0  0  0
  1  2  1  0
  2  3  2  0
  2 29  1  0
  3  4  1  0
  4  5  2  0
  5  6  1  0
  5 28  1  0
  6  7  2  3
  7  8  1  0
  8  9  2  3
  9 10  1  0
  9 14  1  0
 10 11  2  0
 10 12  1  0
 12 13  1  0
 13 14  2  0
 14 15  1  0
 15 16  1  0
 16 17  1  0
 16 27  1  0
 17 18  1  0
 18 19  1  0
 18 26  2  0
 19 20  2  0
 20 21  1  0
 21 22  2  3
 21 25  1  0
 22 23  1  0
 23 24  1  0
 25 26  1  0
 26 27  1  0
 28 29  2  0
M  END
