
     RDKit          3D

 30 33  0  0  0  0  0  0  0  0999 V2000
   -4.5290   -1.1890   -1.4970 C   0  0  0  0  0  0  0  0  0  0  0  0
   -4.9060    0.1720   -1.0340 C   0  0  0  0  0  0  0  0  0  0  0  0
   -5.8650    0.7920   -1.7080 C   0  0  0  0  0  0  0  0  0  0  0  0
   -6.4870    2.1030   -1.5530 C   0  0  0  0  0  0  0  0  0  0  0  0
   -5.6350    3.1830   -1.0600 C   0  0  0  0  0  0  0  0  0  0  0  0
   -4.6120    3.1230   -0.2250 C   0  0  0  0  0  0  0  0  0  0  0  0
   -4.0450    1.9320    0.4440 C   0  0  0  0  0  0  0  0  0  0  0  0
   -4.1520    0.6560    0.1230 C   0  0  0  0  0  0  0  0  0  0  0  0
   -3.4720   -0.3330    0.9790 C   0  0  0  0  0  0  0  0  0  0  0  0
   -2.4860   -1.1260    0.2740 N   0  0  0  0  0  0  0  0  0  0  0  0
   -1.4040   -0.2600   -0.0880 C   0  0  0  0  0  0  0  0  0  0  0  0
   -0.1990   -1.0440   -0.6150 C   0  0  0  0  0  0  0  0  0  0  0  0
    0.2630   -1.9170    0.5110 C   0  0  2  0  0  0  0  0  0  0  0  0
    1.5110   -2.6940    0.1920 C   0  0  0  0  0  0  0  0  0  0  0  0
    2.6080   -1.8180   -0.1210 N   0  0  0  0  0  0  0  0  0  0  0  0
    3.4900   -1.3130    0.7420 C   0  0  0  0  0  0  0  0  0  0  0  0
    4.4000   -0.5070    0.0420 C   0  0  0  0  0  0  0  0  0  0  0  0
    5.4940    0.2070    0.6190 N   0  0  0  0  0  0  0  0  0  0  0  0
    6.3590    1.0020   -0.1670 C   0  0  0  0  0  0  0  0  0  0  0  0
    6.2150    1.1210   -1.3950 O   0  0  0  0  0  0  0  0  0  0  0  0
    7.4560    1.7050    0.4950 C   0  0  0  0  0  0  0  0  0  0  0  0
    7.7450    1.6850    1.7810 O   0  0  0  0  0  0  0  0  0  0  0  0
    8.7780    2.4120    2.0440 N   0  0  0  0  0  0  0  0  0  0  0  0
    9.2270    2.9600    0.8930 C   0  0  0  0  0  0  0  0  0  0  0  0
    8.3760    2.5050   -0.1070 C   0  0  0  0  0  0  0  0  0  0  0  0
    8.5170    2.9230   -1.8030 Cl  0  0  0  0  0  0  0  0  0  0  0  0
    3.9840   -0.5840   -1.2640 C   0  0  0  0  0  0  0  0  0  0  0  0
    2.9040   -1.3810   -1.3270 N   0  0  0  0  0  0  0  0  0  0  0  0
   -0.8550   -2.9110    0.7850 C   0  0  0  0  0  0  0  0  0  0  0  0
   -2.1060   -2.1980    1.1670 C   0  0  0  0  0  0  0  0  0  0  0  0
  1  2  1  0
  2  3  2  0
  2  8  1  0
  3  4  1  0
  4  5  1  0
  5  6  2  0
  6  7  1  0
  7  8  2  0
  8  9  1  0
  9 10  1  0
 10 11  1  0
 10 30  1  0
 11 12  1  0
 12 13  1  0
 13 14  1  6
 13 29  1  0
 14 15  1  0
 15 16  1  0
 15 28  1  0
 16 17  2  0
 17 18  1  0
 17 27  1  0
 18 19  1  0
 19 20  2  0
 19 21  1  0
 21 22  1  0
 21 25  2  0
 22 23  1  0
 23 24  2  0
 24 25  1  0
 25 26  1  0
 27 28  2  0
 29 30  1  0
M  END
