
     RDKit          3D

 34 37  0  0  0  0  0  0  0  0999 V2000
    5.0230   -3.5550    1.5220 C   0  0  0  0  0  0  0  0  0  0  0  0
    5.8270   -2.5870    2.3810 C   0  0  0  0  0  0  0  0  0  0  0  0
    5.8390   -1.2920    1.6650 N   0  0  0  0  0  0  0  0  0  0  0  0
    4.6290   -0.6180    1.3710 C   0  0  0  0  0  0  0  0  0  0  0  0
    3.6090   -1.2490    1.7860 O   0  0  0  0  0  0  0  0  0  0  0  0
    4.4470    0.6370    0.6880 C   0  0  0  0  0  0  0  0  0  0  0  0
    5.4640    1.3540    0.2120 C   0  0  0  0  0  0  0  0  0  0  0  0
    7.1140    0.8610    0.3290 Cl  0  0  0  0  0  0  0  0  0  0  0  0
    5.2230    2.7450   -0.2710 C   0  0  1  0  0  0  0  0  0  0  0  0
    6.2280    3.3690   -1.0290 N   0  0  0  0  0  0  0  0  0  0  0  0
    5.7570    3.7430   -2.1940 C   0  0  0  0  0  0  0  0  0  0  0  0
    4.3610    3.3460   -2.2420 C   0  0  0  0  0  0  0  0  0  0  0  0
    4.0260    2.7420   -1.1050 C   0  0  0  0  0  0  0  0  0  0  0  0
    2.8560    2.0520   -0.5780 C   0  0  0  0  0  0  0  0  0  0  0  0
    3.0720    1.0360    0.2730 C   0  0  0  0  0  0  0  0  0  0  0  0
    1.9680    0.3410    0.7660 N   0  0  0  0  0  0  0  0  0  0  0  0
    0.6980    0.3740    0.1400 C   0  0  0  0  0  0  0  0  0  0  0  0
    0.4420    0.9930   -0.8860 O   0  0  0  0  0  0  0  0  0  0  0  0
   -0.4330   -0.3840    0.7370 C   0  0  0  0  0  0  0  0  0  0  0  0
   -0.2280   -1.0310    1.7780 O   0  0  0  0  0  0  0  0  0  0  0  0
   -1.7100   -0.3850    0.1590 N   0  0  0  0  0  0  0  0  0  0  0  0
   -2.8590   -1.0510    0.6130 C   0  0  0  0  0  0  0  0  0  0  0  0
   -2.9250   -1.8350    1.7320 C   0  0  0  0  0  0  0  0  0  0  0  0
   -4.1040   -2.4850    2.1480 C   0  0  0  0  0  0  0  0  0  0  0  0
   -5.2570   -2.3390    1.4100 C   0  0  0  0  0  0  0  0  0  0  0  0
   -5.2260   -1.5550    0.2760 C   0  0  0  0  0  0  0  0  0  0  0  0
   -4.0630   -0.9350   -0.1040 C   0  0  0  0  0  0  0  0  0  0  0  0
   -4.0550   -0.1570   -1.2420 O   0  0  0  0  0  0  0  0  0  0  0  0
   -5.1690    0.0700   -2.0700 C   0  0  0  0  0  0  0  0  0  0  0  0
   -6.2740    0.7280   -1.3660 C   0  0  0  0  0  0  0  0  0  0  0  0
   -7.5750    0.9410   -1.7370 C   0  0  0  0  0  0  0  0  0  0  0  0
   -8.3760    1.5830   -0.8900 C   0  0  0  0  0  0  0  0  0  0  0  0
   -7.9140    2.0180    0.3170 C   0  0  0  0  0  0  0  0  0  0  0  0
   -6.1610    1.4600    0.2490 S   0  0  0  0  0  0  0  0  0  0  0  0
  1  2  1  0
  2  3  1  0
  3  4  1  0
  4  5  2  0
  4  6  1  0
  6  7  2  0
  6 15  1  0
  7  8  1  0
  7  9  1  0
  9 10  1  6
  9 13  1  0
 10 11  2  0
 11 12  1  0
 12 13  2  0
 13 14  1  0
 14 15  2  0
 15 16  1  0
 16 17  1  0
 17 18  2  0
 17 19  1  0
 19 20  2  0
 19 21  1  0
 21 22  1  0
 22 23  2  0
 22 27  1  0
 23 24  1  0
 24 25  2  0
 25 26  1  0
 26 27  2  0
 27 28  1  0
 28 29  1  0
 29 30  1  0
 30 31  2  0
 30 34  1  0
 31 32  1  0
 32 33  2  0
 33 34  1  0
M  END
