
     RDKit          3D

 34 37  0  0  0  0  0  0  0  0999 V2000
    2.5100   -1.7970   -1.3500 C   0  0  0  0  0  0  0  0  0  0  0  0
    1.0770   -1.2620   -1.2140 C   0  0  0  0  0  0  0  0  0  0  0  0
    1.0940    0.2200   -1.1880 C   0  0  0  0  0  0  0  0  0  0  0  0
    1.8930    0.7730   -0.0020 C   0  0  0  0  0  0  0  0  0  0  0  0
    3.1240    1.2120   -0.1560 N   0  0  0  0  0  0  0  0  0  0  0  0
    3.8290    1.6720    0.8680 C   0  0  0  0  0  0  0  0  0  0  0  0
    5.0360    2.1510    0.9750 N   0  0  0  0  0  0  0  0  0  0  0  0
    5.7820    2.2110   -0.2280 C   0  0  0  0  0  0  0  0  0  0  0  0
    5.3130    2.8340   -1.2320 O   0  0  0  0  0  0  0  0  0  0  0  0
    7.0850    1.5840   -0.3780 C   0  0  0  0  0  0  0  0  0  0  0  0
    7.7910    0.8580    0.5620 C   0  0  0  0  0  0  0  0  0  0  0  0
    8.9960    0.4400   -0.0040 C   0  0  0  0  0  0  0  0  0  0  0  0
    9.0190    0.9080   -1.2700 N   0  0  0  0  0  0  0  0  0  0  0  0
    7.8700    1.5990   -1.5050 C   0  0  0  0  0  0  0  0  0  0  0  0
    2.6470    1.4750    2.2120 S   0  0  0  0  0  0  0  0  0  0  0  0
    1.3350    0.7940    1.2360 C   0  0  0  0  0  0  0  0  0  0  0  0
    0.0830    0.4370    1.8710 C   0  0  0  0  0  0  0  0  0  0  0  0
    0.0580    0.6480    3.1520 O   0  0  0  0  0  0  0  0  0  0  0  0
   -1.0710   -0.0800    1.3450 N   0  0  0  0  0  0  0  0  0  0  0  0
   -2.3060   -0.4280    2.0080 C   0  0  0  0  0  0  0  0  0  0  0  0
   -2.4640   -0.2590    3.3450 C   0  0  0  0  0  0  0  0  0  0  0  0
   -3.6630   -0.6000    3.9710 C   0  0  0  0  0  0  0  0  0  0  0  0
   -4.6820   -1.1050    3.2380 C   0  0  0  0  0  0  0  0  0  0  0  0
   -6.2010   -1.5360    4.0390 Cl  0  0  0  0  0  0  0  0  0  0  0  0
   -4.5170   -1.2740    1.8880 C   0  0  0  0  0  0  0  0  0  0  0  0
   -3.3580   -0.9520    1.2330 C   0  0  0  0  0  0  0  0  0  0  0  0
   -3.1440   -1.0980   -0.0810 O   0  0  0  0  0  0  0  0  0  0  0  0
   -3.9450   -1.5550   -1.0930 C   0  0  0  0  0  0  0  0  0  0  0  0
   -5.1410   -0.7020   -1.2740 C   0  0  0  0  0  0  0  0  0  0  0  0
   -6.3660   -1.1400   -1.1600 C   0  0  0  0  0  0  0  0  0  0  0  0
   -7.5280   -0.2510   -1.3490 C   0  0  0  0  0  0  0  0  0  0  0  0
   -7.1750    1.0640   -1.6470 O   0  0  0  0  0  0  0  0  0  0  0  0
   -5.8820    1.5490   -1.7720 C   0  0  0  0  0  0  0  0  0  0  0  0
   -4.8760    0.7140   -1.5960 C   0  0  0  0  0  0  0  0  0  0  0  0
  1  2  1  0
  2  3  1  0
  3  4  1  0
  4  5  1  0
  4 16  2  0
  5  6  1  0
  6  7  2  3
  6 15  1  0
  7  8  1  0
  8  9  2  0
  8 10  1  0
 10 11  1  0
 10 14  2  0
 11 12  2  0
 12 13  1  0
 13 14  1  0
 15 16  1  0
 16 17  1  0
 17 18  2  0
 17 19  1  0
 19 20  1  0
 20 21  2  0
 20 26  1  0
 21 22  1  0
 22 23  2  0
 23 24  1  0
 23 25  1  0
 25 26  2  0
 26 27  1  0
 27 28  1  0
 28 29  1  0
 29 30  2  0
 29 34  1  0
 30 31  1  0
 31 32  1  0
 32 33  1  0
 33 34  2  0
M  END
