
     RDKit          3D

 34 37  0  0  0  0  0  0  0  0999 V2000
   -1.0950    2.5310    3.7770 C   0  0  0  0  0  0  0  0  0  0  0  0
   -1.8550    1.4820    3.0040 C   0  0  0  0  0  0  0  0  0  0  0  0
   -1.3480    1.3570    1.6840 O   0  0  0  0  0  0  0  0  0  0  0  0
   -1.9020    0.4870    0.7650 C   0  0  0  0  0  0  0  0  0  0  0  0
   -2.8750   -0.1840    1.1710 O   0  0  0  0  0  0  0  0  0  0  0  0
   -1.3810    0.3780   -0.5930 C   0  0  0  0  0  0  0  0  0  0  0  0
   -2.1240   -0.3350   -1.5320 C   0  0  0  0  0  0  0  0  0  0  0  0
   -3.2570   -1.0850   -1.1450 N   0  0  0  0  0  0  0  0  0  0  0  0
   -3.2000   -2.5030   -0.8130 C   0  0  0  0  0  0  0  0  0  0  0  0
   -4.5900   -3.0560   -1.1410 C   0  0  0  0  0  0  0  0  0  0  0  0
   -5.1310   -2.5200   -2.2830 O   0  0  0  0  0  0  0  0  0  0  0  0
   -5.3440   -1.1510   -2.2500 C   0  0  0  0  0  0  0  0  0  0  0  0
   -4.6090   -0.5110   -1.0730 C   0  0  0  0  0  0  0  0  0  0  0  0
   -1.7840   -0.3420   -2.8560 N   0  0  0  0  0  0  0  0  0  0  0  0
   -0.7180    0.3480   -3.2670 C   0  0  0  0  0  0  0  0  0  0  0  0
   -0.3870    0.3570   -4.4960 O   0  0  0  0  0  0  0  0  0  0  0  0
    0.0660    1.0720   -2.4090 C   0  0  0  0  0  0  0  0  0  0  0  0
    1.4280    2.0340   -3.0050 Cl  0  0  0  0  0  0  0  0  0  0  0  0
   -0.2890    1.0690   -1.0480 C   0  0  0  0  0  0  0  0  0  0  0  0
    0.5770    1.7430   -0.1790 N   0  0  0  0  0  0  0  0  0  0  0  0
    1.7560    1.3780    0.4930 C   0  0  1  0  0  0  0  0  0  0  0  0
    1.6040    0.5290    1.7360 C   0  0  0  0  0  0  0  0  0  0  0  0
    2.0270    1.0510    2.8720 C   0  0  0  0  0  0  0  0  0  0  0  0
    2.0220    0.4980    4.2240 C   0  0  0  0  0  0  0  0  0  0  0  0
    1.4180   -1.1850    4.2480 S   0  0  0  0  0  0  0  0  0  0  0  0
    0.9300   -1.6290    2.6360 N   0  0  0  0  0  0  0  0  0  0  0  0
    1.0560   -0.8200    1.6440 C   0  0  0  0  0  0  0  0  0  0  0  0
    2.8140    0.6730   -0.2840 C   0  0  0  0  0  0  0  0  0  0  0  0
    2.6510   -0.4070   -1.0910 C   0  0  0  0  0  0  0  0  0  0  0  0
    3.7460   -0.9600   -1.7340 C   0  0  0  0  0  0  0  0  0  0  0  0
    5.0270   -0.4810   -1.6130 C   0  0  0  0  0  0  0  0  0  0  0  0
    6.1820   -1.1130   -2.3320 C   0  0  0  0  0  0  0  0  0  0  0  0
    5.1930    0.6120   -0.7980 C   0  0  0  0  0  0  0  0  0  0  0  0
    4.1190    1.1700   -0.1540 C   0  0  0  0  0  0  0  0  0  0  0  0
  1  2  1  0
  2  3  1  0
  3  4  1  0
  4  5  2  0
  4  6  1  0
  6  7  2  0
  6 19  1  0
  7  8  1  0
  7 14  1  0
  8  9  1  0
  8 13  1  0
  9 10  1  0
 10 11  1  0
 11 12  1  0
 12 13  1  0
 14 15  1  0
 15 16  2  0
 15 17  1  0
 17 18  1  0
 17 19  2  0
 19 20  1  0
 21 20  1  6
 21 22  1  0
 21 28  1  0
 22 23  2  0
 22 27  1  0
 23 24  1  0
 24 25  1  0
 25 26  1  0
 26 27  2  0
 28 29  2  0
 28 34  1  0
 29 30  1  0
 30 31  2  0
 31 32  1  0
 31 33  1  0
 33 34  2  0
M  END
