
     RDKit          3D

 34 37  0  0  0  0  0  0  0  0999 V2000
    9.6390   -1.8390    2.2550 C   0  0  0  0  0  0  0  0  0  0  0  0
    9.3560   -0.7690    1.5580 C   0  0  0  0  0  0  0  0  0  0  0  0
   10.6810    0.3720    1.1580 S   0  0  0  0  0  0  0  0  0  0  0  0
   10.0870    1.8020    0.2190 C   0  0  0  0  0  0  0  0  0  0  0  0
    8.0160   -0.4420    1.0870 C   0  0  0  0  0  0  0  0  0  0  0  0
    7.8430    0.6090    0.4210 O   0  0  0  0  0  0  0  0  0  0  0  0
    6.8730   -1.2280    1.3250 N   0  0  0  0  0  0  0  0  0  0  0  0
    5.5580   -0.9520    0.8870 C   0  0  0  0  0  0  0  0  0  0  0  0
    5.1210    0.1200    0.1450 C   0  0  0  0  0  0  0  0  0  0  0  0
    3.7380   -0.0080   -0.0570 C   0  0  0  0  0  0  0  0  0  0  0  0
    2.8600    0.9270   -0.8050 C   0  0  0  0  0  0  0  0  0  0  0  0
    1.4850    0.4920   -0.6640 N   0  0  0  0  0  0  0  0  0  0  0  0
    0.3980    1.1650   -1.2630 C   0  0  0  0  0  0  0  0  0  0  0  0
    0.6750    2.1850   -1.9450 O   0  0  0  0  0  0  0  0  0  0  0  0
   -0.9690    0.7230   -1.1150 C   0  0  0  0  0  0  0  0  0  0  0  0
   -1.3210   -0.3460   -0.3300 C   0  0  0  0  0  0  0  0  0  0  0  0
   -2.6710   -0.7100   -0.2400 C   0  0  0  0  0  0  0  0  0  0  0  0
   -3.6520   -0.0270   -0.9140 C   0  0  0  0  0  0  0  0  0  0  0  0
   -5.0590   -0.3230   -0.8380 C   0  0  0  0  0  0  0  0  0  0  0  0
   -5.8430   -0.7030   -2.0590 C   0  0  0  0  0  0  0  0  0  0  0  0
   -5.2290   -1.9420   -2.7080 C   0  0  0  0  0  0  0  0  0  0  0  0
   -5.7270   -0.2950    0.2890 C   0  0  0  0  0  0  0  0  0  0  0  0
   -5.0050    0.0590    1.5260 C   0  0  0  0  0  0  0  0  0  0  0  0
   -5.7060    0.7420    2.4540 C   0  0  0  0  0  0  0  0  0  0  0  0
   -4.9010    1.2010    3.9430 Cl  0  0  0  0  0  0  0  0  0  0  0  0
   -7.1120    1.0290    2.2400 C   0  0  0  0  0  0  0  0  0  0  0  0
   -7.8190    1.7410    3.1860 O   0  0  0  0  0  0  0  0  0  0  0  0
   -7.7410    0.6230    1.1530 C   0  0  0  0  0  0  0  0  0  0  0  0
   -8.3010    0.0910   -0.1260 C   0  0  0  0  0  0  0  0  0  0  0  0
   -7.1470   -0.6010    0.4140 C   0  0  1  0  0  0  0  0  0  0  0  0
   -3.2330    1.0260   -1.6770 N   0  0  0  0  0  0  0  0  0  0  0  0
   -1.9650    1.3930   -1.7820 C   0  0  0  0  0  0  0  0  0  0  0  0
    3.4200   -1.1210    0.5590 O   0  0  0  0  0  0  0  0  0  0  0  0
    4.4440   -1.6770    1.1050 N   0  0  0  0  0  0  0  0  0  0  0  0
  1  2  2  0
  2  3  1  0
  2  5  1  0
  3  4  1  0
  5  6  2  0
  5  7  1  0
  7  8  1  0
  8  9  1  0
  8 34  2  0
  9 10  2  0
 10 11  1  0
 10 33  1  0
 11 12  1  0
 12 13  1  0
 13 14  2  0
 13 15  1  0
 15 16  2  0
 15 32  1  0
 16 17  1  0
 17 18  2  0
 18 19  1  0
 18 31  1  0
 19 20  1  0
 19 22  2  3
 20 21  1  0
 22 23  1  0
 22 30  1  0
 23 24  2  0
 24 25  1  0
 24 26  1  0
 26 27  1  0
 26 28  2  0
 28 29  1  0
 28 30  1  0
 30 29  1  6
 31 32  2  0
 33 34  1  0
M  END
