
     RDKit          3D

 33 36  0  0  0  0  0  0  0  0999 V2000
   -9.3530    1.6430    0.8160 C   0  0  0  0  0  0  0  0  0  0  0  0
   -7.8980    2.0440    1.0440 C   0  0  2  0  0  0  0  0  0  0  0  0
   -7.3540    3.3220   -0.0410 S   0  0  0  0  0  0  0  0  0  0  0  0
   -5.9620    2.7630   -0.9680 C   0  0  0  0  0  0  0  0  0  0  0  0
   -5.4590    1.5620   -0.7770 C   0  0  0  0  0  0  0  0  0  0  0  0
   -4.2650    1.1030   -1.5810 C   0  0  0  0  0  0  0  0  0  0  0  0
   -3.2010    0.8400   -0.6400 N   0  0  0  0  0  0  0  0  0  0  0  0
   -1.9080    0.3650   -1.1030 C   0  0  0  0  0  0  0  0  0  0  0  0
   -1.7640    0.2000   -2.3210 O   0  0  0  0  0  0  0  0  0  0  0  0
   -0.8760    0.1090   -0.1910 N   0  0  0  0  0  0  0  0  0  0  0  0
    0.4200   -0.3590   -0.4960 C   0  0  0  0  0  0  0  0  0  0  0  0
    0.8210   -0.7950   -1.7240 C   0  0  0  0  0  0  0  0  0  0  0  0
    2.0850   -1.2430   -2.0370 C   0  0  0  0  0  0  0  0  0  0  0  0
    3.0550   -1.2630   -1.0300 C   0  0  0  0  0  0  0  0  0  0  0  0
    4.3200   -1.7390   -1.3960 N   0  0  0  0  0  0  0  0  0  0  0  0
    5.5170   -1.6750   -0.6380 C   0  0  0  0  0  0  0  0  0  0  0  0
    5.4690   -1.1370    0.4850 O   0  0  0  0  0  0  0  0  0  0  0  0
    6.7740   -2.2440   -1.1970 C   0  0  0  0  0  0  0  0  0  0  0  0
    7.9420   -2.0790   -0.3090 C   0  0  0  0  0  0  0  0  0  0  0  0
    8.2770   -0.7120   -0.0160 N   0  0  0  0  0  0  0  0  0  0  0  0
    9.1140    0.1240   -0.8210 C   0  0  0  0  0  0  0  0  0  0  0  0
    9.9520   -0.3260   -1.6660 O   0  0  0  0  0  0  0  0  0  0  0  0
    8.8400    1.5400   -0.5070 C   0  0  0  0  0  0  0  0  0  0  0  0
    7.8340    1.5140    0.6110 C   0  0  0  0  0  0  0  0  0  0  0  0
    7.9180    0.0960    1.1020 C   0  0  0  0  0  0  0  0  0  0  0  0
    7.7170   -0.3200    2.2680 O   0  0  0  0  0  0  0  0  0  0  0  0
    2.6740   -0.8280    0.2230 C   0  0  0  0  0  0  0  0  0  0  0  0
    1.4040   -0.3870    0.5010 C   0  0  0  0  0  0  0  0  0  0  0  0
   -6.0360    0.6230    0.1950 C   0  0  0  0  0  0  0  0  0  0  0  0
   -7.0450    0.8170    0.9500 C   0  0  0  0  0  0  0  0  0  0  0  0
   -7.3360   -0.4090    1.8300 C   0  0  0  0  0  0  0  0  0  0  0  0
   -6.7160   -1.5090    1.0030 C   0  0  0  0  0  0  0  0  0  0  0  0
   -5.5020   -0.7910    0.4510 C   0  0  0  0  0  0  0  0  0  0  0  0
  2  1  1  6
  2  3  1  0
  2 30  1  0
  3  4  1  0
  4  5  2  0
  5  6  1  0
  5 29  1  0
  6  7  1  0
  7  8  1  0
  8  9  2  0
  8 10  1  0
 10 11  1  0
 11 12  2  0
 11 28  1  0
 12 13  1  0
 13 14  2  0
 14 15  1  0
 14 27  1  0
 15 16  1  0
 16 17  2  0
 16 18  1  0
 18 19  1  0
 19 20  1  0
 20 21  1  0
 20 25  1  0
 21 22  2  0
 21 23  1  0
 23 24  1  0
 24 25  1  0
 25 26  2  0
 27 28  2  0
 29 30  2  0
 29 33  1  0
 30 31  1  0
 31 32  1  0
 32 33  1  0
M  END
