
     RDKit          3D

 34 36  0  0  0  0  0  0  0  0999 V2000
   -4.7660    2.0460    2.4720 O   0  0  0  0  0  0  0  0  0  0  0  0
   -5.6890    1.1510    1.9790 C   0  0  0  0  0  0  0  0  0  0  0  0
   -5.1460    0.3820    0.7960 C   0  0  1  0  0  0  0  0  0  0  0  0
   -4.0250   -0.3450    1.1040 O   0  0  0  0  0  0  0  0  0  0  0  0
   -3.3390   -0.8340    0.0260 C   0  0  2  0  0  0  0  0  0  0  0  0
   -2.3340   -0.0060   -0.4530 O   0  0  0  0  0  0  0  0  0  0  0  0
   -1.0740   -0.4710   -0.3110 C   0  0  2  0  0  0  0  0  0  0  0  0
   -0.2120    0.5210    0.4270 C   0  0  1  0  0  0  0  0  0  0  0  0
   -0.8630    1.1670    1.6020 C   0  0  0  0  0  0  0  0  0  0  0  0
   -1.9490    1.9270    1.2200 O   0  0  0  0  0  0  0  0  0  0  0  0
    0.9060   -0.2340    0.8560 O   0  0  0  0  0  0  0  0  0  0  0  0
    1.7210   -0.5030   -0.2260 C   0  0  2  0  0  0  0  0  0  0  0  0
    2.8560    0.2960   -0.0800 O   0  0  0  0  0  0  0  0  0  0  0  0
    4.0060   -0.4280    0.1760 C   0  0  2  0  0  0  0  0  0  0  0  0
    4.6080    0.0770    1.4840 C   0  0  1  0  0  0  0  0  0  0  0  0
    4.5160   -0.9890    2.5620 C   0  0  0  0  0  0  0  0  0  0  0  0
    5.0360   -0.4240    3.7270 O   0  0  0  0  0  0  0  0  0  0  0  0
    5.9540    0.4070    1.3460 O   0  0  0  0  0  0  0  0  0  0  0  0
    6.1420    1.5390    0.5680 C   0  0  1  0  0  0  0  0  0  0  0  0
    7.4660    1.6260    0.1580 O   0  0  0  0  0  0  0  0  0  0  0  0
    5.2930    1.4500   -0.6760 C   0  0  2  0  0  0  0  0  0  0  0  0
    4.0470    2.0700   -0.4550 O   0  0  0  0  0  0  0  0  0  0  0  0
    5.0110   -0.0420   -0.9100 C   0  0  1  0  0  0  0  0  0  0  0  0
    6.2090   -0.7470   -0.7620 O   0  0  0  0  0  0  0  0  0  0  0  0
    1.0930   -0.3780   -1.5660 C   0  0  2  0  0  0  0  0  0  0  0  0
    1.3610    0.8750   -2.1670 O   0  0  0  0  0  0  0  0  0  0  0  0
   -0.3610   -0.6810   -1.6530 C   0  0  1  0  0  0  0  0  0  0  0  0
   -0.6220   -1.9620   -2.1290 O   0  0  0  0  0  0  0  0  0  0  0  0
   -4.2300   -1.3860   -1.0110 C   0  0  2  0  0  0  0  0  0  0  0  0
   -4.5340   -0.4300   -2.0140 O   0  0  0  0  0  0  0  0  0  0  0  0
   -5.5700   -1.7450   -0.4030 C   0  0  1  0  0  0  0  0  0  0  0  0
   -5.4770   -2.7830    0.5030 O   0  0  0  0  0  0  0  0  0  0  0  0
   -6.2250   -0.5070    0.1880 C   0  0  2  0  0  0  0  0  0  0  0  0
   -6.9750    0.1600   -0.7520 O   0  0  0  0  0  0  0  0  0  0  0  0
  1  2  1  0
  3  2  1  1
  3  4  1  0
  3 33  1  0
  4  5  1  0
  5  6  1  6
  5 29  1  0
  7  6  1  6
  7  8  1  0
  7 27  1  0
  8  9  1  1
  8 11  1  0
  9 10  1  0
 11 12  1  0
 12 13  1  6
 12 25  1  0
 14 13  1  6
 14 15  1  0
 14 23  1  0
 15 16  1  1
 15 18  1  0
 16 17  1  0
 18 19  1  0
 19 20  1  6
 19 21  1  0
 21 22  1  1
 21 23  1  0
 23 24  1  1
 25 26  1  1
 25 27  1  0
 27 28  1  1
 29 30  1  6
 29 31  1  0
 31 32  1  1
 31 33  1  0
 33 34  1  6
M  END
