
     RDKit          3D

 35 37  0  0  0  0  0  0  0  0999 V2000
    8.2150   -1.8170    0.6680 C   0  0  0  0  0  0  0  0  0  0  0  0
    7.1410   -2.3820   -0.0360 O   0  0  0  0  0  0  0  0  0  0  0  0
    5.8720   -1.8280   -0.0700 C   0  0  0  0  0  0  0  0  0  0  0  0
    5.6580   -0.6590    0.6250 C   0  0  0  0  0  0  0  0  0  0  0  0
    4.4000   -0.0770    0.6120 C   0  0  0  0  0  0  0  0  0  0  0  0
    3.3450   -0.6620   -0.0980 C   0  0  0  0  0  0  0  0  0  0  0  0
    2.1140   -0.0230   -0.0650 O   0  0  0  0  0  0  0  0  0  0  0  0
    1.7830    0.9390   -0.9810 C   0  0  0  0  0  0  0  0  0  0  0  0
    2.6310    1.3330   -1.9910 C   0  0  0  0  0  0  0  0  0  0  0  0
    2.2790    2.3040   -2.9020 C   0  0  0  0  0  0  0  0  0  0  0  0
    1.0530    2.9100   -2.8220 C   0  0  0  0  0  0  0  0  0  0  0  0
    0.1710    2.5300   -1.8070 C   0  0  0  0  0  0  0  0  0  0  0  0
    0.5530    1.5500   -0.9030 C   0  0  0  0  0  0  0  0  0  0  0  0
   -0.3340    1.1530    0.1260 N   0  0  0  0  0  0  0  0  0  0  0  0
   -1.6110    1.8220    0.2290 C   0  0  2  0  0  0  0  0  0  0  0  0
   -1.4720    3.2340    0.4850 N   0  0  0  0  0  0  0  0  0  0  0  0
   -2.6860    3.9720    0.4560 C   0  0  0  0  0  0  0  0  0  0  0  0
   -2.7120    5.1960    0.2540 O   0  0  0  0  0  0  0  0  0  0  0  0
   -3.9140    3.1250    0.6910 C   0  0  2  0  0  0  0  0  0  0  0  0
   -4.9910    4.0210    1.1950 C   0  0  0  0  0  0  0  0  0  0  0  0
   -5.2970    5.0790    0.1930 C   0  0  0  0  0  0  0  0  0  0  0  0
   -6.1240    5.9520    0.3920 O   0  0  0  0  0  0  0  0  0  0  0  0
   -3.5540    2.1150    1.6650 N   0  0  0  0  0  0  0  0  0  0  0  0
   -2.5060    1.2430    1.2640 C   0  0  1  0  0  0  0  0  0  0  0  0
   -3.0040   -0.0790    0.9020 N   0  0  0  0  0  0  0  0  0  0  0  0
   -2.6600   -1.2740    1.5430 C   0  0  0  0  0  0  0  0  0  0  0  0
   -1.8600   -1.2330    2.5110 O   0  0  0  0  0  0  0  0  0  0  0  0
   -3.1900   -2.6070    1.1480 C   0  0  1  0  0  0  0  0  0  0  0  0
   -4.7030   -2.6370    1.3140 C   0  0  0  0  0  0  0  0  0  0  0  0
   -2.9500   -2.8220   -0.3520 C   0  0  0  0  0  0  0  0  0  0  0  0
   -2.6140   -3.7140    1.9700 C   0  0  0  0  0  0  0  0  0  0  0  0
    3.6090   -1.8260   -0.7750 C   0  0  0  0  0  0  0  0  0  0  0  0
    4.8560   -2.4250   -0.7770 C   0  0  0  0  0  0  0  0  0  0  0  0
    5.0570   -3.6000   -1.4810 O   0  0  0  0  0  0  0  0  0  0  0  0
    4.0940   -4.2790   -2.2230 C   0  0  0  0  0  0  0  0  0  0  0  0
  1  2  1  0
  2  3  1  0
  3  4  2  0
  3 33  1  0
  4  5  1  0
  5  6  2  0
  6  7  1  0
  6 32  1  0
  7  8  1  0
  8  9  2  0
  8 13  1  0
  9 10  1  0
 10 11  2  0
 11 12  1  0
 12 13  2  0
 13 14  1  0
 15 14  1  1
 15 16  1  0
 15 24  1  0
 16 17  1  0
 17 18  2  0
 17 19  1  0
 19 20  1  1
 19 23  1  0
 20 21  1  0
 21 22  2  0
 23 24  1  0
 24 25  1  6
 25 26  1  0
 26 27  2  0
 26 28  1  0
 28 29  1  6
 28 30  1  0
 28 31  1  0
 32 33  2  0
 33 34  1  0
 34 35  1  0
M  END
