
     RDKit          3D

 34 37  0  0  0  0  0  0  0  0999 V2000
   -4.4610    4.9750   -1.6710 C   0  0  0  0  0  0  0  0  0  0  0  0
   -5.3970    4.3050   -0.6790 C   0  0  0  0  0  0  0  0  0  0  0  0
   -5.3710    2.8780   -0.8530 N   0  0  0  0  0  0  0  0  0  0  0  0
   -4.2010    2.0870   -0.6690 C   0  0  0  0  0  0  0  0  0  0  0  0
   -3.0700    2.7360   -0.2510 C   0  0  0  0  0  0  0  0  0  0  0  0
   -1.9300    1.9490   -0.0790 C   0  0  0  0  0  0  0  0  0  0  0  0
   -1.8910    0.5900   -0.3040 C   0  0  0  0  0  0  0  0  0  0  0  0
   -0.7210   -0.1580   -0.1200 N   0  0  0  0  0  0  0  0  0  0  0  0
    0.5360    0.3320    0.3150 C   0  0  0  0  0  0  0  0  0  0  0  0
    0.7480    1.5160    0.5910 O   0  0  0  0  0  0  0  0  0  0  0  0
    1.6710   -0.6200    0.4520 C   0  0  0  0  0  0  0  0  0  0  0  0
    1.5520   -1.8430    0.1940 O   0  0  0  0  0  0  0  0  0  0  0  0
    2.9420   -0.1650    0.8850 N   0  0  0  0  0  0  0  0  0  0  0  0
    4.0120   -1.0880    1.0100 C   0  0  0  0  0  0  0  0  0  0  0  0
    3.9670   -2.8080    0.6800 S   0  0  0  0  0  0  0  0  0  0  0  0
    5.6490   -3.1730    1.0760 C   0  0  0  0  0  0  0  0  0  0  0  0
    6.1500   -1.9140    1.4460 C   0  0  0  0  0  0  0  0  0  0  0  0
    7.4840   -1.6700    1.8590 C   0  0  0  0  0  0  0  0  0  0  0  0
    7.9000   -0.4030    2.2060 C   0  0  0  0  0  0  0  0  0  0  0  0
    7.0260    0.6520    2.1600 C   0  0  0  0  0  0  0  0  0  0  0  0
    7.3920    2.0440    2.5070 C   0  0  0  0  0  0  0  0  0  0  0  0
    8.8240    2.2420    2.8620 C   0  0  0  0  0  0  0  0  0  0  0  0
    9.9180    1.8270    1.5390 Cl  0  0  0  0  0  0  0  0  0  0  0  0
    5.7810    0.3990    1.7710 N   0  0  0  0  0  0  0  0  0  0  0  0
    5.3360   -0.8690    1.4140 C   0  0  0  0  0  0  0  0  0  0  0  0
   -3.0400   -0.0590   -0.7270 C   0  0  0  0  0  0  0  0  0  0  0  0
   -3.1480   -1.4890   -1.0020 C   0  0  0  0  0  0  0  0  0  0  0  0
   -2.2980   -2.3620   -0.9210 O   0  0  0  0  0  0  0  0  0  0  0  0
   -4.4140   -1.9720   -1.4280 O   0  0  0  0  0  0  0  0  0  0  0  0
   -4.6470   -3.3120   -1.7220 C   0  0  2  0  0  0  0  0  0  0  0  0
   -5.2730   -3.6260   -3.0510 C   0  0  0  0  0  0  0  0  0  0  0  0
   -5.9760   -4.7960   -2.3450 C   0  0  0  0  0  0  0  0  0  0  0  0
   -5.8290   -3.9640   -1.0610 C   0  0  0  0  0  0  0  0  0  0  0  0
   -4.1760    0.7420   -0.8950 C   0  0  0  0  0  0  0  0  0  0  0  0
  1  2  1  0
  2  3  1  0
  3  4  1  0
  4  5  2  0
  4 34  1  0
  5  6  1  0
  6  7  2  0
  7  8  1  0
  7 26  1  0
  8  9  1  0
  9 10  2  0
  9 11  1  0
 11 12  2  0
 11 13  1  0
 13 14  1  0
 14 15  1  0
 14 25  2  0
 15 16  1  0
 16 17  2  0
 17 18  1  0
 17 25  1  0
 18 19  2  0
 19 20  1  0
 20 21  1  0
 20 24  2  0
 21 22  1  0
 22 23  1  0
 24 25  1  0
 26 27  1  0
 26 34  2  0
 27 28  2  0
 27 29  1  0
 30 29  1  1
 30 31  1  0
 30 33  1  0
 31 32  1  0
 32 33  1  0
M  END
