
     RDKit          3D

 10 10  0  0  0  0  0  0  0  0999 V2000
    0.6090    0.8860    1.1710 N   0  0  0  0  0  0  0  0  0  0  0  0
    0.1540    0.1430    0.0070 C   0  0  1  0  0  0  0  0  0  0  0  0
    1.3950   -0.3040   -0.7510 C   0  0  0  0  0  0  0  0  0  0  0  0
    2.4780   -1.3900    0.3090 P   0  0  0  0  0  0  0  0  0  0  0  0
   -0.5920   -1.0480    0.4740 C   0  0  0  0  0  0  0  0  0  0  0  0
   -2.0360   -1.0890    0.0670 C   0  0  0  0  0  0  0  0  0  0  0  0
   -2.7810   -0.0450    0.6010 O   0  0  0  0  0  0  0  0  0  0  0  0
   -2.1120    1.4540   -0.0230 P   0  0  0  0  0  0  0  0  0  0  0  0
   -0.6130    0.9700   -0.8910 N   0  0  0  0  0  0  0  0  0  0  0  0
    0.0790    2.0030   -1.3550 O   0  0  0  0  0  0  0  0  0  0  0  0
  2  1  1  1
  2  3  1  0
  2  5  1  0
  2  9  1  0
  3  4  1  0
  5  6  1  0
  6  7  1  0
  7  8  1  0
  8  9  1  0
  9 10  1  0
M  END
