
     RDKit          3D

 10 10  0  0  0  0  0  0  0  0999 V2000
   -2.0780    0.3180    1.2630 O   0  0  0  0  0  0  0  0  0  0  0  0
   -1.2920   -0.0110    0.1640 C   0  0  0  0  0  0  0  0  0  0  0  0
   -1.9400   -0.5480   -0.9880 N   0  0  0  0  0  0  0  0  0  0  0  0
   -3.2480    0.2390   -1.5410 P   0  0  0  0  0  0  0  0  0  0  0  0
    0.0080    0.1470    0.1360 C   0  0  0  0  0  0  0  0  0  0  0  0
    0.6890    0.7010    1.3200 C   0  0  0  0  0  0  0  0  0  0  0  0
    2.4330    0.2490    1.3970 S   0  0  0  0  0  0  0  0  0  0  0  0
    3.1160   -0.2940   -0.0530 N   0  0  0  0  0  0  0  0  0  0  0  0
    2.4270   -1.0680   -0.8460 O   0  0  0  0  0  0  0  0  0  0  0  0
    0.9500   -0.3120   -1.3460 P   0  0  0  0  0  0  0  0  0  0  0  0
  1  2  1  0
  2  3  1  0
  2  5  2  3
  3  4  2  0
  5  6  1  0
  5 10  1  0
  6  7  1  0
  7  8  1  0
  8  9  1  0
  9 10  1  0
M  END
