
     RDKit          3D

 10  9  0  0  0  0  0  0  0  0999 V2000
   -2.2390   -1.0300    0.3520 C   0  0  0  0  0  0  0  0  0  0  0  0
   -1.5370    0.0190    0.0010 C   0  0  0  0  0  0  0  0  0  0  0  0
   -2.3960    1.5520   -0.4720 P   0  0  0  0  0  0  0  0  0  0  0  0
   -0.0590   -0.0770    0.0010 C   0  0  1  0  0  0  0  0  0  0  0  0
    0.4340    0.1690   -1.2810 O   0  0  0  0  0  0  0  0  0  0  0  0
    0.6090    1.1160    1.2480 P   0  0  0  0  0  0  0  0  0  0  0  0
    0.5060   -1.7390    0.4700 S   0  0  0  0  0  0  0  0  0  0  0  0
    2.2690   -1.7290    0.4330 N   0  0  0  0  0  0  0  0  0  0  0  0
    2.9580   -0.8470    1.2620 N   0  0  0  0  0  0  0  0  0  0  0  0
    4.1400   -0.5500    1.0440 O   0  0  0  0  0  0  0  0  0  0  0  0
  1  2  2  0
  2  3  1  0
  2  4  1  0
  4  5  1  6
  4  6  1  0
  4  7  1  0
  7  8  1  0
  8  9  1  0
  9 10  2  0
M  END
