
     RDKit          3D

 40 43  0  0  0  0  0  0  0  0999 V2000
   -8.1680    1.2000   -2.0900 C   0  0  0  0  0  0  0  0  0  0  0  0
   -7.2640    0.2130   -1.7560 O   0  0  0  0  0  0  0  0  0  0  0  0
   -7.4320   -0.6580   -0.7150 C   0  0  0  0  0  0  0  0  0  0  0  0
   -8.5060   -0.7040    0.1440 C   0  0  0  0  0  0  0  0  0  0  0  0
   -8.6290   -1.6120    1.1940 C   0  0  0  0  0  0  0  0  0  0  0  0
   -7.6250   -2.5340    1.4090 C   0  0  0  0  0  0  0  0  0  0  0  0
   -6.5270   -2.5030    0.5500 C   0  0  0  0  0  0  0  0  0  0  0  0
   -5.4200   -3.4110    0.9450 C   0  0  0  0  0  0  0  0  0  0  0  0
   -4.1600   -2.9340    0.4120 N   0  0  0  0  0  0  0  0  0  0  0  0
   -3.6520   -1.6140    0.4940 C   0  0  0  0  0  0  0  0  0  0  0  0
   -2.6290   -1.5630   -0.7600 C   0  0  1  0  0  0  0  0  0  0  0  0
   -1.9100   -0.3290   -0.5380 C   0  0  0  0  0  0  0  0  0  0  0  0
   -2.3430    0.4600    0.3920 O   0  0  0  0  0  0  0  0  0  0  0  0
   -0.7800    0.0950   -1.2460 N   0  0  0  0  0  0  0  0  0  0  0  0
   -0.1430    1.3740   -1.0300 C   0  0  1  0  0  0  0  0  0  0  0  0
   -0.4030    2.0740    0.2580 C   0  0  0  0  0  0  0  0  0  0  0  0
    0.1550    3.4970    0.1530 C   0  0  0  0  0  0  0  0  0  0  0  0
   -0.6800    4.3880   -0.5610 C   0  0  0  0  0  0  0  0  0  0  0  0
   -0.3290    5.7190   -0.6310 C   0  0  0  0  0  0  0  0  0  0  0  0
    0.8050    6.2130   -0.0290 C   0  0  0  0  0  0  0  0  0  0  0  0
    1.6000    5.3250    0.6620 C   0  0  0  0  0  0  0  0  0  0  0  0
    1.2610    3.9820    0.7400 C   0  0  0  0  0  0  0  0  0  0  0  0
    1.3530    0.9780   -0.9920 C   0  0  2  0  0  0  0  0  0  0  0  0
    1.7080    0.4900   -2.2180 O   0  0  0  0  0  0  0  0  0  0  0  0
    1.3860   -0.2020   -0.0310 C   0  0  0  0  0  0  0  0  0  0  0  0
    2.6370   -0.8340    0.1700 N   0  0  0  0  0  0  0  0  0  0  0  0
    3.4830   -0.1470    1.1310 C   0  0  0  0  0  0  0  0  0  0  0  0
    4.8490    0.0340    0.6160 C   0  0  0  0  0  0  0  0  0  0  0  0
    5.2430    1.3040    0.2600 C   0  0  0  0  0  0  0  0  0  0  0  0
    6.5160    1.5610   -0.2470 C   0  0  0  0  0  0  0  0  0  0  0  0
    7.3750    0.5050   -0.3800 C   0  0  0  0  0  0  0  0  0  0  0  0
    7.0270   -0.7920   -0.0360 C   0  0  0  0  0  0  0  0  0  0  0  0
    7.9580   -1.8510   -0.2040 N   0  0  0  0  0  0  0  0  0  0  0  0
    7.5440   -3.2110    0.0270 C   0  0  0  0  0  0  0  0  0  0  0  0
    9.3220   -1.5660   -0.5900 C   0  0  0  0  0  0  0  0  0  0  0  0
    5.7610   -0.9910    0.4590 C   0  0  0  0  0  0  0  0  0  0  0  0
   -2.0170   -2.7930   -0.4040 N   0  0  0  0  0  0  0  0  0  0  0  0
   -3.1870   -3.6910   -0.3470 C   0  0  0  0  0  0  0  0  0  0  0  0
   -3.2870   -4.8300   -0.8400 O   0  0  0  0  0  0  0  0  0  0  0  0
   -6.4130   -1.6210   -0.4780 C   0  0  0  0  0  0  0  0  0  0  0  0
  1  2  1  0
  2  3  1  0
  3  4  2  0
  3 40  1  0
  4  5  1  0
  5  6  2  0
  6  7  1  0
  7  8  1  0
  7 40  2  0
  8  9  1  0
  9 10  1  0
  9 38  1  0
 10 11  1  0
 11 12  1  1
 11 37  1  0
 12 13  2  0
 12 14  1  0
 14 15  1  0
 15 16  1  1
 15 23  1  0
 16 17  1  0
 17 18  2  0
 17 22  1  0
 18 19  1  0
 19 20  2  0
 20 21  1  0
 21 22  2  0
 23 24  1  6
 23 25  1  0
 25 26  1  0
 26 27  1  0
 27 28  1  0
 28 29  2  0
 28 36  1  0
 29 30  1  0
 30 31  2  0
 31 32  1  0
 32 33  1  0
 32 36  2  0
 33 34  1  0
 33 35  1  0
 37 38  1  0
 38 39  2  0
M  CHG  1  26   1
M  END
