
     RDKit          3D

 40 42  0  0  0  0  0  0  0  0999 V2000
   -1.5490   -4.2360    3.7800 C   0  0  0  0  0  0  0  0  0  0  0  0
   -2.3320   -3.3540    2.9300 C   0  0  0  0  0  0  0  0  0  0  0  0
   -2.3770   -3.0550    1.6950 C   0  0  0  0  0  0  0  0  0  0  0  0
   -1.6900   -3.4230    0.4860 C   0  0  0  0  0  0  0  0  0  0  0  0
   -1.8470   -2.6150   -0.6690 C   0  0  0  0  0  0  0  0  0  0  0  0
   -2.5880   -1.3540   -0.5280 C   0  0  0  0  0  0  0  0  0  0  0  0
   -2.1270   -0.2450   -1.4590 C   0  0  2  0  0  0  0  0  0  0  0  0
   -0.7320    0.1340   -1.2760 C   0  0  0  0  0  0  0  0  0  0  0  0
   -0.4890    1.3380   -0.9050 O   0  0  0  0  0  0  0  0  0  0  0  0
    0.3460   -0.6710   -1.4630 O   0  0  0  0  0  0  0  0  0  0  0  0
    1.6840   -0.2040   -1.2590 C   0  0  0  0  0  0  0  0  0  0  0  0
    1.9840    0.1960    0.1380 C   0  0  0  0  0  0  0  0  0  0  0  0
    3.3730    0.6990    0.2740 C   0  0  0  0  0  0  0  0  0  0  0  0
    4.4500   -0.2180   -0.0750 C   0  0  0  0  0  0  0  0  0  0  0  0
    4.2460   -1.3880   -0.4570 O   0  0  0  0  0  0  0  0  0  0  0  0
    5.8370    0.1680   -0.0030 N   0  0  0  0  0  0  0  0  0  0  0  0
    6.9250   -0.6960   -0.3440 C   0  0  1  0  0  0  0  0  0  0  0  0
    7.9120    0.0280   -1.2340 C   0  0  0  0  0  0  0  0  0  0  0  0
    8.5610    1.0680   -0.3700 C   0  0  0  0  0  0  0  0  0  0  0  0
    9.1740    0.3880    0.8240 C   0  0  0  0  0  0  0  0  0  0  0  0
    7.9680   -0.9250    1.1360 S   0  0  0  0  0  0  0  0  0  0  0  0
    8.7040   -2.2670    0.9430 O   0  0  0  0  0  0  0  0  0  0  0  0
   -3.0040    0.9160   -1.2970 N   0  0  0  0  0  0  0  0  0  0  0  0
   -3.9090    1.4330   -2.2670 C   0  0  0  0  0  0  0  0  0  0  0  0
   -4.0960    0.9660   -3.4300 O   0  0  0  0  0  0  0  0  0  0  0  0
   -4.5820    2.5710   -1.7250 N   0  0  0  0  0  0  0  0  0  0  0  0
   -3.7470    3.0440   -0.6690 C   0  0  1  0  0  0  0  0  0  0  0  0
   -2.6250    3.8550   -1.2710 C   0  0  0  0  0  0  0  0  0  0  0  0
   -4.4630    3.7930    0.4110 C   0  0  1  0  0  0  0  0  0  0  0  0
   -5.1410    4.9960   -0.2090 C   0  0  0  0  0  0  0  0  0  0  0  0
   -5.4900    2.9640    1.1050 C   0  0  0  0  0  0  0  0  0  0  0  0
   -6.1750    3.7740    2.1860 C   0  0  0  0  0  0  0  0  0  0  0  0
   -3.1540    1.7710   -0.1690 C   0  0  0  0  0  0  0  0  0  0  0  0
   -2.8290    1.4640    1.0140 O   0  0  0  0  0  0  0  0  0  0  0  0
   -1.2960   -2.9890   -1.8500 C   0  0  0  0  0  0  0  0  0  0  0  0
   -0.5800   -4.1560   -1.9320 C   0  0  0  0  0  0  0  0  0  0  0  0
   -0.4000   -4.9730   -0.8350 C   0  0  0  0  0  0  0  0  0  0  0  0
    0.3130   -6.1510   -0.8830 O   0  0  0  0  0  0  0  0  0  0  0  0
   -0.9700   -4.5870    0.3880 C   0  0  0  0  0  0  0  0  0  0  0  0
   -0.7700   -5.4280    1.4680 O   0  0  0  0  0  0  0  0  0  0  0  0
  1  2  1  0
  2  3  2  3
  3  4  1  0
  4  5  2  0
  4 39  1  0
  5  6  1  0
  5 35  1  0
  7  6  1  1
  7  8  1  0
  7 23  1  0
  8  9  2  0
  8 10  1  0
 10 11  1  0
 11 12  1  0
 12 13  1  0
 13 14  1  0
 14 15  2  0
 14 16  1  0
 17 16  1  1
 17 18  1  0
 17 21  1  0
 18 19  1  0
 19 20  1  0
 21 20  1  6
 21 22  2  0
 23 24  1  0
 23 33  1  0
 24 25  2  0
 24 26  1  0
 26 27  1  0
 27 28  1  6
 27 29  1  0
 27 33  1  0
 29 30  1  6
 29 31  1  0
 31 32  1  0
 33 34  2  0
 35 36  2  0
 36 37  1  0
 37 38  1  0
 37 39  2  0
 39 40  1  0
M  END
