
     RDKit          3D

 40 42  0  0  0  0  0  0  0  0999 V2000
   -0.9880   -0.6290   -5.6040 C   0  0  0  0  0  0  0  0  0  0  0  0
   -0.1250   -0.4690   -4.4870 O   0  0  0  0  0  0  0  0  0  0  0  0
   -0.4440   -0.9830   -3.2330 C   0  0  0  0  0  0  0  0  0  0  0  0
   -1.5180   -1.5880   -3.1400 O   0  0  0  0  0  0  0  0  0  0  0  0
    0.4370   -0.8210   -2.0860 C   0  0  0  0  0  0  0  0  0  0  0  0
    1.6530   -0.2520   -2.1800 O   0  0  0  0  0  0  0  0  0  0  0  0
    2.2130   -0.2640   -1.0010 C   0  0  0  0  0  0  0  0  0  0  0  0
    3.4580    0.1930   -0.5460 C   0  0  0  0  0  0  0  0  0  0  0  0
    3.8370    0.0700    0.7640 C   0  0  0  0  0  0  0  0  0  0  0  0
    5.0610    0.5120    1.2370 O   0  0  0  0  0  0  0  0  0  0  0  0
    6.0190    1.1150    0.4600 C   0  0  1  0  0  0  0  0  0  0  0  0
    6.3830    2.4470    1.1480 C   0  0  0  0  0  0  0  0  0  0  0  0
    7.2490    2.0490    2.3240 C   0  0  0  0  0  0  0  0  0  0  0  0
    7.5780    0.5920    2.1330 C   0  0  2  0  0  0  0  0  0  0  0  0
    8.8820    0.2290    2.5920 N   0  0  0  0  0  0  0  0  0  0  0  0
    7.3690    0.3950    0.6650 C   0  0  2  0  0  0  0  0  0  0  0  0
    8.2780    1.0470   -0.1330 O   0  0  0  0  0  0  0  0  0  0  0  0
    8.8620    0.2210   -1.0880 C   0  0  0  0  0  0  0  0  0  0  0  0
    2.9460   -0.5340    1.6760 C   0  0  0  0  0  0  0  0  0  0  0  0
    1.7290   -0.9820    1.2410 C   0  0  0  0  0  0  0  0  0  0  0  0
    1.3840   -0.8400   -0.0830 C   0  0  0  0  0  0  0  0  0  0  0  0
    0.2080   -1.2020   -0.8100 C   0  0  0  0  0  0  0  0  0  0  0  0
   -0.9490   -1.6730   -0.1020 C   0  0  0  0  0  0  0  0  0  0  0  0
   -2.1840   -1.3190   -0.0390 C   0  0  0  0  0  0  0  0  0  0  0  0
   -2.9400   -0.2650   -0.6520 C   0  0  0  0  0  0  0  0  0  0  0  0
   -2.3410    0.5810   -1.3960 O   0  0  0  0  0  0  0  0  0  0  0  0
   -4.3380   -0.0950   -0.4840 N   0  0  0  0  0  0  0  0  0  0  0  0
   -5.0450    0.9980   -1.0980 C   0  0  0  0  0  0  0  0  0  0  0  0
   -5.1930    2.2130   -0.2320 C   0  0  0  0  0  0  0  0  0  0  0  0
   -3.9490    2.8900    0.1990 C   0  0  1  0  0  0  0  0  0  0  0  0
   -3.1700    3.3840   -0.8220 O   0  0  0  0  0  0  0  0  0  0  0  0
   -4.2830    4.0640    1.1280 C   0  0  0  0  0  0  0  0  0  0  0  0
   -2.7420    4.8710    1.6370 S   0  0  0  0  0  0  0  0  0  0  0  0
   -5.1070   -1.0270    0.3210 C   0  0  2  0  0  0  0  0  0  0  0  0
   -4.7240   -0.9590    1.7680 C   0  0  0  0  0  0  0  0  0  0  0  0
   -5.1240   -2.3790   -0.2650 C   0  0  0  0  0  0  0  0  0  0  0  0
   -4.5080   -2.5970   -1.3300 O   0  0  0  0  0  0  0  0  0  0  0  0
   -5.8260   -3.4220    0.3640 N   0  0  0  0  0  0  0  0  0  0  0  0
   -6.5910   -3.2940    1.5950 C   0  0  0  0  0  0  0  0  0  0  0  0
   -5.7810   -4.7510   -0.2800 C   0  0  0  0  0  0  0  0  0  0  0  0
  1  2  1  0
  2  3  1  0
  3  4  2  0
  3  5  1  0
  5  6  1  0
  5 22  2  0
  6  7  1  0
  7  8  2  0
  7 21  1  0
  8  9  1  0
  9 10  1  0
  9 19  2  0
 11 10  1  1
 11 12  1  0
 11 16  1  0
 12 13  1  0
 13 14  1  0
 14 15  1  6
 14 16  1  0
 16 17  1  6
 17 18  1  0
 19 20  1  0
 20 21  2  0
 21 22  1  0
 22 23  1  0
 23 24  2  3
 24 25  1  0
 25 26  2  0
 25 27  1  0
 27 28  1  0
 27 34  1  0
 28 29  1  0
 29 30  1  0
 30 31  1  6
 30 32  1  0
 32 33  1  0
 34 35  1  1
 34 36  1  0
 36 37  2  0
 36 38  1  0
 38 39  1  0
 38 40  1  0
M  END
