
     RDKit          3D

 22 23  0  0  0  0  0  0  0  0999 V2000
    5.8220    1.2580   -0.7530 C   0  0  0  0  0  0  0  0  0  0  0  0
    4.4030    1.4090   -0.3180 C   0  0  0  0  0  0  0  0  0  0  0  0
    3.6530    0.0970   -0.1980 C   0  0  1  0  0  0  0  0  0  0  0  0
    3.5940   -0.6480   -1.4890 C   0  0  0  0  0  0  0  0  0  0  0  0
    4.4510   -0.7780    0.7790 C   0  0  0  0  0  0  0  0  0  0  0  0
    2.3140    0.3750    0.4170 C   0  0  1  0  0  0  0  0  0  0  0  0
    1.4400    1.3070   -0.3490 C   0  0  0  0  0  0  0  0  0  0  0  0
    0.1580    0.6200   -0.8210 C   0  0  0  0  0  0  0  0  0  0  0  0
   -0.6490    0.1780    0.4000 C   0  0  1  0  0  0  0  0  0  0  0  0
   -0.8230    1.3340    1.1630 O   0  0  0  0  0  0  0  0  0  0  0  0
   -1.9410   -0.4470   -0.0560 C   0  0  1  0  0  0  0  0  0  0  0  0
   -2.7850    0.5030   -0.8610 C   0  0  0  0  0  0  0  0  0  0  0  0
   -3.2130    1.7500   -0.1400 C   0  0  2  0  0  0  0  0  0  0  0  0
   -4.0270    1.4410    1.0970 C   0  0  0  0  0  0  0  0  0  0  0  0
   -4.1620    2.5660   -1.0370 C   0  0  0  0  0  0  0  0  0  0  0  0
   -1.5860   -1.6490   -0.9070 C   0  0  0  0  0  0  0  0  0  0  0  0
   -2.8450   -2.4080   -1.2630 C   0  0  0  0  0  0  0  0  0  0  0  0
   -3.5890   -2.7410   -0.0250 C   0  0  0  0  0  0  0  0  0  0  0  0
   -3.0850   -2.0570    1.2110 C   0  0  0  0  0  0  0  0  0  0  0  0
   -2.6770   -0.7810    1.0620 O   0  0  0  0  0  0  0  0  0  0  0  0
    0.2210   -0.7380    1.2100 C   0  0  0  0  0  0  0  0  0  0  0  0
    1.6050   -0.9410    0.6360 C   0  0  0  0  0  0  0  0  0  0  0  0
  1  2  1  0
  2  3  1  0
  3  4  1  6
  3  5  1  0
  3  6  1  0
  6  7  1  6
  6 22  1  0
  7  8  1  0
  8  9  1  0
  9 10  1  1
  9 11  1  0
  9 21  1  0
 11 12  1  6
 11 16  1  0
 11 20  1  0
 12 13  1  0
 13 14  1  1
 13 15  1  0
 16 17  1  0
 17 18  1  0
 18 19  1  0
 19 20  1  0
 21 22  1  0
M  END
