
     RDKit          3D

 22 23  0  0  0  0  0  0  0  0999 V2000
   -2.8450   -2.8230   -0.0610 C   0  0  0  0  0  0  0  0  0  0  0  0
   -3.5180   -1.6820    0.6200 C   0  0  0  0  0  0  0  0  0  0  0  0
   -2.5900   -0.7500    1.3220 C   0  0  0  0  0  0  0  0  0  0  0  0
   -1.5680   -0.0750    0.4090 C   0  0  1  0  0  0  0  0  0  0  0  0
   -2.1500    0.7410   -0.6670 C   0  0  0  0  0  0  0  0  0  0  0  0
   -2.9960    1.8950   -0.4890 C   0  0  1  0  0  0  0  0  0  0  0  0
   -4.2910    1.8080    0.2220 C   0  0  0  0  0  0  0  0  0  0  0  0
   -2.2910    3.1920   -0.0590 C   0  0  0  0  0  0  0  0  0  0  0  0
   -0.6600    0.6630    1.3690 C   0  0  0  0  0  0  0  0  0  0  0  0
    0.5600    1.0610    0.6130 C   0  0  0  0  0  0  0  0  0  0  0  0
    1.3070   -0.2340    0.2890 C   0  0  2  0  0  0  0  0  0  0  0  0
    1.6910   -0.6760    1.5870 O   0  0  0  0  0  0  0  0  0  0  0  0
    2.5310    0.2140   -0.4140 C   0  0  2  0  0  0  0  0  0  0  0  0
    2.2520    1.0160   -1.6670 C   0  0  0  0  0  0  0  0  0  0  0  0
    3.5960   -0.7530   -0.6880 C   0  0  0  0  0  0  0  0  0  0  0  0
    4.8460   -0.3730    0.1190 C   0  0  0  0  0  0  0  0  0  0  0  0
    4.6970    1.1260    0.2010 C   0  0  0  0  0  0  0  0  0  0  0  0
    3.2170    1.2290    0.4940 C   0  0  0  0  0  0  0  0  0  0  0  0
    0.4070   -1.2180   -0.2690 C   0  0  1  0  0  0  0  0  0  0  0  0
    0.6650   -1.5840   -1.7450 C   0  0  0  0  0  0  0  0  0  0  0  0
    0.6050   -2.5630    0.4750 C   0  0  0  0  0  0  0  0  0  0  0  0
   -0.9280   -1.0960   -0.1900 O   0  0  0  0  0  0  0  0  0  0  0  0
  1  2  1  0
  2  3  1  0
  4  3  1  1
  4  5  1  0
  4  9  1  0
  4 22  1  0
  5  6  1  0
  6  7  1  1
  6  8  1  0
  9 10  1  0
 10 11  1  0
 11 12  1  1
 11 13  1  0
 11 19  1  0
 13 14  1  6
 13 15  1  0
 13 18  1  0
 15 16  1  0
 16 17  1  0
 17 18  1  0
 19 20  1  6
 19 21  1  0
 19 22  1  0
M  END
