
     RDKit          3D

 22 23  0  0  0  0  0  0  0  0999 V2000
    5.3250    1.3430    0.8340 C   0  0  0  0  0  0  0  0  0  0  0  0
    4.1320    0.6540    0.8980 O   0  0  0  0  0  0  0  0  0  0  0  0
    3.1680    1.3500    0.1900 C   0  0  0  0  0  0  0  0  0  0  0  0
    1.8110    0.7280    0.1630 C   0  0  1  0  0  0  0  0  0  0  0  0
    0.8720    1.6180   -0.6260 C   0  0  0  0  0  0  0  0  0  0  0  0
   -0.1900    0.9010   -1.3720 C   0  0  0  0  0  0  0  0  0  0  0  0
   -0.7340   -0.3280   -0.7020 C   0  0  2  0  0  0  0  0  0  0  0  0
   -1.7050   -0.9800   -1.6860 C   0  0  0  0  0  0  0  0  0  0  0  0
   -1.4840   -0.0220    0.5190 C   0  0  0  0  0  0  0  0  0  0  0  0
   -2.6730    0.8100    0.5070 C   0  0  0  0  0  0  0  0  0  0  0  0
   -3.8760    0.2770    0.8050 C   0  0  0  0  0  0  0  0  0  0  0  0
   -3.9130   -1.1680    1.1410 C   0  0  0  0  0  0  0  0  0  0  0  0
   -5.1400    1.0520    0.8050 C   0  0  0  0  0  0  0  0  0  0  0  0
   -5.0110    2.4130    0.6010 O   0  0  0  0  0  0  0  0  0  0  0  0
   -3.8010    2.9730    0.3000 C   0  0  0  0  0  0  0  0  0  0  0  0
   -2.6850    2.2290    0.2520 C   0  0  0  0  0  0  0  0  0  0  0  0
    0.4480   -1.2780   -0.4550 C   0  0  1  0  0  0  0  0  0  0  0  0
    0.2330   -1.9720    0.9010 C   0  0  0  0  0  0  0  0  0  0  0  0
    0.4320   -2.4200   -1.4580 C   0  0  0  0  0  0  0  0  0  0  0  0
    1.7890   -0.6370   -0.4840 C   0  0  1  0  0  0  0  0  0  0  0  0
    2.3890   -0.4980   -1.8660 C   0  0  0  0  0  0  0  0  0  0  0  0
    2.7990   -1.4940    0.2870 C   0  0  0  0  0  0  0  0  0  0  0  0
  1  2  1  0
  2  3  1  0
  4  3  1  6
  4  5  1  0
  4 20  1  0
  5  6  1  0
  6  7  1  0
  7  8  1  6
  7  9  1  0
  7 17  1  0
  9 10  1  0
 10 11  2  0
 10 16  1  0
 11 12  1  0
 11 13  1  0
 13 14  1  0
 14 15  1  0
 15 16  2  0
 17 18  1  1
 17 19  1  0
 17 20  1  0
 20 21  1  6
 20 22  1  0
M  END
