
     RDKit          3D

 20 21  0  0  0  0  0  0  0  0999 V2000
    4.0700    1.9650    1.9590 C   0  0  0  0  0  0  0  0  0  0  0  0
    3.0990    1.4180    1.1030 O   0  0  0  0  0  0  0  0  0  0  0  0
    3.5710    0.2120    0.6320 C   0  0  0  0  0  0  0  0  0  0  0  0
    2.5450   -0.4550   -0.3080 C   0  0  1  0  0  0  0  0  0  0  0  0
    3.2040   -1.7390   -0.7030 C   0  0  0  0  0  0  0  0  0  0  0  0
    2.5640   -2.5380   -1.6800 N   0  0  0  0  0  0  0  0  0  0  0  0
    1.3010   -0.5900    0.4880 C   0  0  0  0  0  0  0  0  0  0  0  0
    0.1620    0.2960   -0.0360 C   0  0  2  0  0  0  0  0  0  0  0  0
    0.5640    1.6650    0.0100 O   0  0  0  0  0  0  0  0  0  0  0  0
   -0.9950    0.1400    0.8770 C   0  0  0  0  0  0  0  0  0  0  0  0
   -2.1790    0.8740    0.5950 N   0  0  0  0  0  0  0  0  0  0  0  0
   -3.0150    0.9390    1.8000 C   0  0  0  0  0  0  0  0  0  0  0  0
   -3.5870   -0.4490    1.8750 C   0  0  0  0  0  0  0  0  0  0  0  0
   -4.0470   -0.6320    0.4460 C   0  0  0  0  0  0  0  0  0  0  0  0
   -3.0600    0.1900   -0.3500 C   0  0  1  0  0  0  0  0  0  0  0  0
   -3.8390    1.2300   -1.1280 C   0  0  0  0  0  0  0  0  0  0  0  0
   -4.6890    0.6240   -2.0470 O   0  0  0  0  0  0  0  0  0  0  0  0
   -0.0220   -0.0040   -1.4720 C   0  0  0  0  0  0  0  0  0  0  0  0
    1.3110    0.2550   -2.1680 C   0  0  0  0  0  0  0  0  0  0  0  0
    2.3710    0.4320   -1.3410 O   0  0  0  0  0  0  0  0  0  0  0  0
  1  2  1  0
  2  3  1  0
  4  3  1  1
  4  5  1  0
  4  7  1  0
  4 20  1  0
  5  6  1  0
  7  8  1  0
  8  9  1  6
  8 10  1  0
  8 18  1  0
 10 11  1  0
 11 12  1  0
 11 15  1  0
 12 13  1  0
 13 14  1  0
 14 15  1  0
 15 16  1  1
 16 17  1  0
 18 19  1  0
 19 20  1  0
M  CHG  1   6   1
M  END
