
     RDKit          3D

 20 20  0  0  0  0  0  0  0  0999 V2000
    5.2130    1.8090    0.2660 C   0  0  0  0  0  0  0  0  0  0  0  0
    4.7990    0.9020   -0.8340 C   0  0  0  0  0  0  0  0  0  0  0  0
    3.7210    0.0560   -0.5170 O   0  0  0  0  0  0  0  0  0  0  0  0
    2.4730    0.4750   -0.1470 C   0  0  0  0  0  0  0  0  0  0  0  0
    2.2680    1.7120   -0.0840 O   0  0  0  0  0  0  0  0  0  0  0  0
    1.3890   -0.5200    0.1710 C   0  0  2  0  0  0  0  0  0  0  0  0
    0.1310    0.1920    0.5440 C   0  0  0  0  0  0  0  0  0  0  0  0
   -0.3230   -0.0370    1.6790 O   0  0  0  0  0  0  0  0  0  0  0  0
   -0.5250    1.0740   -0.3160 N   0  0  0  0  0  0  0  0  0  0  0  0
   -1.7190    1.7980   -0.1040 C   0  0  0  0  0  0  0  0  0  0  0  0
   -3.0030    1.0970    0.0670 C   0  0  1  0  0  0  0  0  0  0  0  0
   -3.1390    0.1620    1.2210 C   0  0  0  0  0  0  0  0  0  0  0  0
   -4.0400    2.1380    0.2600 N   0  0  0  0  0  0  0  0  0  0  0  0
   -3.3990    0.3160   -1.1930 C   0  0  0  0  0  0  0  0  0  0  0  0
   -4.7060   -0.3590   -0.9300 C   0  0  0  0  0  0  0  0  0  0  0  0
    1.8860   -1.3290    1.3400 C   0  0  0  0  0  0  0  0  0  0  0  0
    1.5340   -2.7620    0.9340 C   0  0  0  0  0  0  0  0  0  0  0  0
    1.9100   -2.7300   -0.5490 C   0  0  1  0  0  0  0  0  0  0  0  0
    1.4000   -3.8220   -1.2310 O   0  0  0  0  0  0  0  0  0  0  0  0
    1.2180   -1.4460   -0.9870 C   0  0  0  0  0  0  0  0  0  0  0  0
  1  2  1  0
  2  3  1  0
  3  4  1  0
  4  5  2  0
  6  4  1  6
  6  7  1  0
  6 16  1  0
  6 20  1  0
  7  8  2  0
  7  9  1  0
  9 10  1  0
 10 11  1  0
 11 12  1  1
 11 13  1  0
 11 14  1  0
 14 15  1  0
 16 17  1  0
 17 18  1  0
 18 19  1  6
 18 20  1  0
M  CHG  1  13   1
M  END
