
     RDKit          3D

 20 20  0  0  0  0  0  0  0  0999 V2000
   -4.3810   -0.7060   -2.1370 C   0  0  0  0  0  0  0  0  0  0  0  0
   -3.8310   -0.8410   -0.7100 C   0  0  2  0  0  0  0  0  0  0  0  0
   -4.3350    0.3180    0.0730 C   0  0  0  0  0  0  0  0  0  0  0  0
   -3.1390    1.0940    0.6040 C   0  0  0  0  0  0  0  0  0  0  0  0
   -2.3820    0.1890    1.3390 O   0  0  0  0  0  0  0  0  0  0  0  0
   -1.6400   -0.6320    0.5070 C   0  0  2  0  0  0  0  0  0  0  0  0
   -1.2330   -1.8620    1.2740 C   0  0  0  0  0  0  0  0  0  0  0  0
   -0.4690    0.0530    0.1260 O   0  0  0  0  0  0  0  0  0  0  0  0
    0.4930    0.5320    0.9550 C   0  0  0  0  0  0  0  0  0  0  0  0
    0.4120    0.3940    2.1750 O   0  0  0  0  0  0  0  0  0  0  0  0
    1.6740    1.2430    0.3510 C   0  0  2  0  0  0  0  0  0  0  0  0
    2.4440    0.3620   -0.5110 C   0  0  0  0  0  0  0  0  0  0  0  0
    2.1890   -0.9360   -0.6150 C   0  0  0  0  0  0  0  0  0  0  0  0
    2.9380   -1.8300   -1.4630 C   0  0  0  0  0  0  0  0  0  0  0  0
    2.6220   -3.1920   -1.5330 N   0  0  0  0  0  0  0  0  0  0  0  0
    3.8900   -1.3860   -2.1540 O   0  0  0  0  0  0  0  0  0  0  0  0
    2.3720    1.9380    1.4580 C   0  0  0  0  0  0  0  0  0  0  0  0
    3.5850    2.7260    1.1650 C   0  0  0  0  0  0  0  0  0  0  0  0
    4.6930    1.9690    0.6460 N   0  0  0  0  0  0  0  0  0  0  0  0
   -2.3570   -0.9810   -0.7690 C   0  0  0  0  0  0  0  0  0  0  0  0
  2  1  1  6
  2  3  1  0
  2 20  1  0
  3  4  1  0
  4  5  1  0
  5  6  1  0
  6  7  1  1
  6  8  1  0
  6 20  1  0
  8  9  1  0
  9 10  2  0
  9 11  1  0
 11 12  1  0
 11 17  1  1
 12 13  2  3
 13 14  1  0
 14 15  1  0
 14 16  2  0
 17 18  1  0
 18 19  1  0
M  CHG  1  19   1
M  END
