
     RDKit          3D

 20 20  0  0  0  0  0  0  0  0999 V2000
   -2.4370   -2.0130    1.9570 C   0  0  0  0  0  0  0  0  0  0  0  0
   -2.7990   -1.4960    0.5920 C   0  0  0  0  0  0  0  0  0  0  0  0
   -1.5810   -1.3470   -0.3030 C   0  0  2  0  0  0  0  0  0  0  0  0
   -0.9550   -2.7210   -0.4310 C   0  0  0  0  0  0  0  0  0  0  0  0
   -0.5110   -0.4770    0.3750 C   0  0  0  0  0  0  0  0  0  0  0  0
    0.3090    0.0550   -0.7770 C   0  0  2  0  0  0  0  0  0  0  0  0
    0.4310   -0.9470   -1.7850 O   0  0  0  0  0  0  0  0  0  0  0  0
    1.6860    0.4810   -0.3780 C   0  0  0  0  0  0  0  0  0  0  0  0
    2.3710   -0.7230    0.1290 N   0  0  0  0  0  0  0  0  0  0  0  0
    3.8030   -0.6030   -0.0390 C   0  0  0  0  0  0  0  0  0  0  0  0
    4.4720   -1.1360    1.2270 C   0  0  0  0  0  0  0  0  0  0  0  0
    5.8460   -1.0320    1.0940 O   0  0  0  0  0  0  0  0  0  0  0  0
   -0.5210    1.1120   -1.4460 C   0  0  2  0  0  0  0  0  0  0  0  0
   -0.7250    2.3420   -0.6780 C   0  0  0  0  0  0  0  0  0  0  0  0
   -1.4720    3.3580   -1.2450 O   0  0  0  0  0  0  0  0  0  0  0  0
   -0.2450    2.5170    0.4900 N   0  0  0  0  0  0  0  0  0  0  0  0
   -0.4100    3.6940    1.2870 C   0  0  0  0  0  0  0  0  0  0  0  0
   -1.8450    0.4360   -1.7970 C   0  0  2  0  0  0  0  0  0  0  0  0
   -3.0300    1.1940   -1.2380 C   0  0  0  0  0  0  0  0  0  0  0  0
   -1.8840   -0.9020   -1.5530 O   0  0  0  0  0  0  0  0  0  0  0  0
  1  2  1  0
  2  3  1  0
  3  4  1  6
  3  5  1  0
  3 20  1  0
  5  6  1  0
  6  7  1  6
  6  8  1  0
  6 13  1  0
  8  9  1  0
  9 10  1  0
 10 11  1  0
 11 12  1  0
 13 14  1  1
 13 18  1  0
 14 15  1  0
 14 16  2  3
 16 17  1  0
 18 19  1  1
 18 20  1  0
M  CHG  1   9   1
M  END
