
     RDKit          3D

 20 20  0  0  0  0  0  0  0  0999 V2000
    5.1370    0.7270   -0.9400 C   0  0  0  0  0  0  0  0  0  0  0  0
    4.0300    1.4600   -0.2280 C   0  0  2  0  0  0  0  0  0  0  0  0
    3.3710    2.4920   -1.1160 C   0  0  0  0  0  0  0  0  0  0  0  0
    4.6790    2.1610    0.9730 C   0  0  0  0  0  0  0  0  0  0  0  0
    3.0380    0.6180    0.2830 O   0  0  0  0  0  0  0  0  0  0  0  0
    2.2900   -0.2190   -0.5310 C   0  0  0  0  0  0  0  0  0  0  0  0
    2.4680   -0.2600   -1.7690 O   0  0  0  0  0  0  0  0  0  0  0  0
    1.2820   -1.0700    0.0180 N   0  0  0  0  0  0  0  0  0  0  0  0
    0.5160   -1.9330   -0.8500 C   0  0  0  0  0  0  0  0  0  0  0  0
   -0.4700   -2.7130    0.0020 C   0  0  1  0  0  0  0  0  0  0  0  0
    0.2290   -3.5620    1.0420 C   0  0  0  0  0  0  0  0  0  0  0  0
   -0.7900   -4.2230    1.7510 O   0  0  0  0  0  0  0  0  0  0  0  0
   -1.4370   -1.7970    0.6890 C   0  0  0  0  0  0  0  0  0  0  0  0
   -2.1880   -1.0390   -0.1860 O   0  0  0  0  0  0  0  0  0  0  0  0
   -3.0530   -0.2230    0.5050 C   0  0  2  0  0  0  0  0  0  0  0  0
   -4.4970   -0.4080    0.0610 C   0  0  0  0  0  0  0  0  0  0  0  0
   -4.5900    0.6000   -1.0640 C   0  0  0  0  0  0  0  0  0  0  0  0
   -3.9720    1.8280   -0.4100 C   0  0  0  0  0  0  0  0  0  0  0  0
   -2.7270    1.2440    0.2220 C   0  0  1  0  0  0  0  0  0  0  0  0
   -2.4700    1.9770    1.4430 N   0  0  0  0  0  0  0  0  0  0  0  0
  2  1  1  6
  2  3  1  0
  2  4  1  0
  2  5  1  0
  5  6  1  0
  6  7  2  0
  6  8  1  0
  8  9  1  0
 10  9  1  1
 10 11  1  0
 10 13  1  0
 11 12  1  0
 13 14  1  0
 15 14  1  6
 15 16  1  0
 15 19  1  0
 16 17  1  0
 17 18  1  0
 18 19  1  0
 19 20  1  1
M  CHG  1  20   1
M  END
