
     RDKit          3D

 20 20  0  0  0  0  0  0  0  0999 V2000
    6.6910    0.0280   -1.2850 C   0  0  0  0  0  0  0  0  0  0  0  0
    5.5960   -0.1810   -0.2540 C   0  0  0  0  0  0  0  0  0  0  0  0
    4.2700    0.0650   -0.9480 C   0  0  0  0  0  0  0  0  0  0  0  0
    3.1240   -0.1320    0.0490 C   0  0  2  0  0  0  0  0  0  0  0  0
    3.1260   -1.5420    0.6060 C   0  0  0  0  0  0  0  0  0  0  0  0
    1.7400   -1.9380    0.9050 N   0  0  0  0  0  0  0  0  0  0  0  0
    1.1220   -0.7870    1.5250 C   0  0  0  0  0  0  0  0  0  0  0  0
    0.7340    0.1860    0.4750 C   0  0  2  0  0  0  0  0  0  0  0  0
    0.8760    1.5820    1.0430 C   0  0  0  0  0  0  0  0  0  0  0  0
   -0.4830    0.0550   -0.1280 O   0  0  0  0  0  0  0  0  0  0  0  0
   -1.6910    0.0970    0.5100 C   0  0  0  0  0  0  0  0  0  0  0  0
   -1.6340    0.2680    1.7360 O   0  0  0  0  0  0  0  0  0  0  0  0
   -2.9490   -0.0380   -0.1130 N   0  0  0  0  0  0  0  0  0  0  0  0
   -4.1430    0.0300    0.7100 C   0  0  0  0  0  0  0  0  0  0  0  0
   -5.4000   -0.1310   -0.1010 C   0  0  2  0  0  0  0  0  0  0  0  0
   -6.5740    0.0410    0.8460 C   0  0  0  0  0  0  0  0  0  0  0  0
   -5.4330   -1.3420   -0.7560 O   0  0  0  0  0  0  0  0  0  0  0  0
   -5.5070    1.0190   -1.1090 C   0  0  0  0  0  0  0  0  0  0  0  0
   -5.4680    2.2140   -0.3940 O   0  0  0  0  0  0  0  0  0  0  0  0
    1.8030    0.0830   -0.6280 C   0  0  0  0  0  0  0  0  0  0  0  0
  1  2  1  0
  2  3  1  0
  4  3  1  6
  4  5  1  0
  4 20  1  0
  5  6  1  0
  6  7  1  0
  7  8  1  0
  8  9  1  1
  8 10  1  0
  8 20  1  0
 10 11  1  0
 11 12  2  0
 11 13  1  0
 13 14  1  0
 14 15  1  0
 15 16  1  1
 15 17  1  0
 15 18  1  0
 18 19  1  0
M  CHG  1   6   1
M  END
