
     RDKit          3D

 20 20  0  0  0  0  0  0  0  0999 V2000
   -0.6670   -2.4760    0.0390 C   0  0  0  0  0  0  0  0  0  0  0  0
   -0.6100   -1.4150    1.1250 C   0  0  1  0  0  0  0  0  0  0  0  0
   -1.1220   -2.0630    2.3910 C   0  0  0  0  0  0  0  0  0  0  0  0
    0.7800   -0.9880    1.3430 C   0  0  0  0  0  0  0  0  0  0  0  0
    1.3080   -1.1250    2.4540 O   0  0  0  0  0  0  0  0  0  0  0  0
    1.5720   -0.4210    0.3550 O   0  0  0  0  0  0  0  0  0  0  0  0
    2.9030   -0.0080    0.5460 C   0  0  1  0  0  0  0  0  0  0  0  0
    3.8830   -0.8150   -0.2610 C   0  0  0  0  0  0  0  0  0  0  0  0
    4.3210   -0.1660   -1.5230 C   0  0  0  0  0  0  0  0  0  0  0  0
    4.4160    1.3250   -1.4650 C   0  0  0  0  0  0  0  0  0  0  0  0
    3.2990    1.9040   -0.8780 O   0  0  0  0  0  0  0  0  0  0  0  0
    3.0880    1.4760    0.4010 C   0  0  0  0  0  0  0  0  0  0  0  0
   -1.5360   -0.2690    0.7730 C   0  0  1  0  0  0  0  0  0  0  0  0
   -1.4950    0.7420    1.7860 N   0  0  0  0  0  0  0  0  0  0  0  0
   -1.2610    0.2670   -0.6100 C   0  0  0  0  0  0  0  0  0  0  0  0
   -2.2070    1.3960   -0.8990 C   0  0  0  0  0  0  0  0  0  0  0  0
   -3.6440    0.9900   -0.8470 C   0  0  2  0  0  0  0  0  0  0  0  0
   -3.9690   -0.0470   -1.8040 N   0  0  0  0  0  0  0  0  0  0  0  0
   -4.4620    2.2080   -1.1730 C   0  0  0  0  0  0  0  0  0  0  0  0
   -4.3770    3.2250   -0.5170 O   0  0  0  0  0  0  0  0  0  0  0  0
  2  1  1  6
  2  3  1  0
  2  4  1  0
  2 13  1  0
  4  5  2  0
  4  6  1  0
  7  6  1  6
  7  8  1  0
  7 12  1  0
  8  9  1  0
  9 10  1  0
 10 11  1  0
 11 12  1  0
 13 14  1  1
 13 15  1  0
 15 16  1  0
 16 17  1  0
 17 18  1  6
 17 19  1  0
 19 20  2  0
M  CHG  1  14   1
M  END
