
     RDKit          3D

 20 20  0  0  0  0  0  0  0  0999 V2000
   -1.3380   -2.2660   -1.0160 C   0  0  0  0  0  0  0  0  0  0  0  0
   -2.3080   -1.1290   -0.7890 C   0  0  1  0  0  0  0  0  0  0  0  0
   -2.3510   -0.1870   -1.9830 C   0  0  0  0  0  0  0  0  0  0  0  0
   -3.7050   -1.7690   -0.7140 C   0  0  0  0  0  0  0  0  0  0  0  0
   -2.0360   -0.3580    0.4800 C   0  0  1  0  0  0  0  0  0  0  0  0
   -2.1420   -1.2590    1.5950 N   0  0  0  0  0  0  0  0  0  0  0  0
   -0.7780    0.4360    0.4620 C   0  0  2  0  0  0  0  0  0  0  0  0
    0.3910   -0.2690    0.4090 O   0  0  0  0  0  0  0  0  0  0  0  0
    1.1730    0.0150   -0.6940 C   0  0  0  0  0  0  0  0  0  0  0  0
    2.4580   -0.7930   -0.7020 C   0  0  1  0  0  0  0  0  0  0  0  0
    3.2640   -0.3980   -1.9210 C   0  0  0  0  0  0  0  0  0  0  0  0
    4.1660    0.7560   -1.4800 C   0  0  0  0  0  0  0  0  0  0  0  0
    5.2550    0.1050   -0.6170 C   0  0  0  0  0  0  0  0  0  0  0  0
    4.5420   -0.9610    0.2050 C   0  0  0  0  0  0  0  0  0  0  0  0
    3.2350   -0.5300    0.4340 O   0  0  0  0  0  0  0  0  0  0  0  0
   -0.7780    1.4350    1.5920 C   0  0  0  0  0  0  0  0  0  0  0  0
    0.2350    1.5110    2.3210 O   0  0  0  0  0  0  0  0  0  0  0  0
   -1.8610    2.2440    1.8160 O   0  0  0  0  0  0  0  0  0  0  0  0
   -1.8930    3.1890    2.8630 C   0  0  0  0  0  0  0  0  0  0  0  0
   -3.1890    3.8520    2.7890 N   0  0  0  0  0  0  0  0  0  0  0  0
  2  1  1  6
  2  3  1  0
  2  4  1  0
  2  5  1  0
  5  6  1  1
  5  7  1  0
  7  8  1  1
  7 16  1  0
  8  9  1  0
 10  9  1  1
 10 11  1  0
 10 15  1  0
 11 12  1  0
 12 13  1  0
 13 14  1  0
 14 15  1  0
 16 17  2  0
 16 18  1  0
 18 19  1  0
 19 20  1  0
M  CHG  1   6   1
M  END
