
     RDKit          3D

 36 40  0  0  0  0  0  0  0  0999 V2000
   -7.0870    1.5560    2.3560 C   0  0  0  0  0  0  0  0  0  0  0  0
   -6.4920    0.8260    1.1950 C   0  0  0  0  0  0  0  0  0  0  0  0
   -5.2140    1.1490    0.7880 C   0  0  0  0  0  0  0  0  0  0  0  0
   -4.5920    0.5070   -0.2930 C   0  0  0  0  0  0  0  0  0  0  0  0
   -3.2740    0.8720   -0.6770 N   0  0  0  0  0  0  0  0  0  0  0  0
   -2.6450    2.0520   -0.3860 C   0  0  0  0  0  0  0  0  0  0  0  0
   -1.4090    2.0320   -0.9080 N   0  0  0  0  0  0  0  0  0  0  0  0
   -1.2240    0.8740   -1.5270 N   0  0  0  0  0  0  0  0  0  0  0  0
   -0.0670    0.4000   -2.2340 C   0  0  0  0  0  0  0  0  0  0  0  0
    0.9790   -0.5120   -1.0720 S   0  0  0  0  0  0  0  0  0  0  0  0
    0.3540   -0.2960    0.5590 C   0  0  0  0  0  0  0  0  0  0  0  0
    1.0800   -0.0460    1.6000 C   0  0  0  0  0  0  0  0  0  0  0  0
    2.5300    0.0950    1.5620 C   0  0  0  0  0  0  0  0  0  0  0  0
    3.0960    0.3470    2.7380 C   0  0  0  0  0  0  0  0  0  0  0  0
    4.5290    0.5080    2.8170 C   0  0  0  0  0  0  0  0  0  0  0  0
    5.2500    0.4080    1.7320 C   0  0  0  0  0  0  0  0  0  0  0  0
    4.7460    0.1520    0.4430 N   0  0  1  0  0  0  0  0  0  0  0  0
    5.4720   -0.9850   -0.0730 C   0  0  0  0  0  0  0  0  0  0  0  0
    6.7920   -0.6280   -0.5920 C   0  0  0  0  0  0  0  0  0  0  0  0
    7.3590    0.6110   -0.6320 C   0  0  0  0  0  0  0  0  0  0  0  0
    8.6310    0.8830   -1.1470 C   0  0  0  0  0  0  0  0  0  0  0  0
    9.3710   -0.1580   -1.6470 C   0  0  0  0  0  0  0  0  0  0  0  0
   10.6210    0.0680   -2.1590 F   0  0  0  0  0  0  0  0  0  0  0  0
    8.8250   -1.4210   -1.6200 C   0  0  0  0  0  0  0  0  0  0  0  0
    9.5790   -2.4470   -2.1250 F   0  0  0  0  0  0  0  0  0  0  0  0
    7.5820   -1.6780   -1.1160 C   0  0  0  0  0  0  0  0  0  0  0  0
    7.0670   -2.9450   -1.1030 F   0  0  0  0  0  0  0  0  0  0  0  0
    3.3270   -0.0450    0.3490 C   0  0  0  0  0  0  0  0  0  0  0  0
   -2.3690    0.1760   -1.3780 C   0  0  0  0  0  0  0  0  0  0  0  0
   -2.5930   -0.9950   -1.8330 O   0  0  0  0  0  0  0  0  0  0  0  0
   -5.3370   -0.4610   -0.9150 C   0  0  0  0  0  0  0  0  0  0  0  0
   -6.6160   -0.8100   -0.5350 C   0  0  0  0  0  0  0  0  0  0  0  0
   -7.2040   -0.1560    0.5390 C   0  0  0  0  0  0  0  0  0  0  0  0
   -8.5030   -0.7090    0.7060 N   0  0  0  0  0  0  0  0  0  0  0  0
   -8.8870   -1.3510   -0.5420 C   0  0  0  0  0  0  0  0  0  0  0  0
   -7.5600   -1.8190   -1.0820 C   0  0  0  0  0  0  0  0  0  0  0  0
  1  2  1  0
  2  3  2  0
  2 33  1  0
  3  4  1  0
  4  5  1  0
  4 31  2  0
  5  6  1  0
  5 29  1  0
  6  7  2  0
  7  8  1  0
  8  9  1  0
  8 29  1  0
  9 10  1  0
 10 11  1  0
 11 12  2  3
 12 13  1  0
 13 14  2  0
 13 28  1  0
 14 15  1  0
 15 16  2  0
 16 17  1  0
 17 18  1  1
 17 28  1  0
 18 19  1  0
 19 20  2  0
 19 26  1  0
 20 21  1  0
 21 22  2  0
 22 23  1  0
 22 24  1  0
 24 25  1  0
 24 26  2  0
 26 27  1  0
 29 30  2  0
 31 32  1  0
 32 33  2  0
 32 36  1  0
 33 34  1  0
 34 35  1  0
 35 36  1  0
M  CHG  1  17   1
M  END
