
     RDKit          3D

 37 41  0  0  0  0  0  0  0  0999 V2000
    7.8780   -1.7480    2.8430 C   0  0  0  0  0  0  0  0  0  0  0  0
    7.6030    0.0170    2.6900 S   0  0  0  0  0  0  0  0  0  0  0  0
    8.1170    0.6880    1.1400 C   0  0  0  0  0  0  0  0  0  0  0  0
    9.3710    1.1720    0.9100 N   0  0  0  0  0  0  0  0  0  0  0  0
    9.4300    1.6030   -0.3600 C   0  0  0  0  0  0  0  0  0  0  0  0
    8.1780    1.3720   -0.9030 C   0  0  0  0  0  0  0  0  0  0  0  0
    7.3850    0.8130    0.0190 N   0  0  0  0  0  0  0  0  0  0  0  0
    6.0170    0.4000   -0.0830 C   0  0  0  0  0  0  0  0  0  0  0  0
    5.6290   -0.9020    0.1220 C   0  0  0  0  0  0  0  0  0  0  0  0
    4.3290   -1.3140    0.0270 C   0  0  0  0  0  0  0  0  0  0  0  0
    3.2950   -0.4120   -0.2920 C   0  0  0  0  0  0  0  0  0  0  0  0
    1.9440   -0.8920   -0.3960 C   0  0  0  0  0  0  0  0  0  0  0  0
    1.7020   -2.0940   -0.0370 O   0  0  0  0  0  0  0  0  0  0  0  0
    0.8530   -0.1480   -0.8640 N   0  0  0  0  0  0  0  0  0  0  0  0
   -0.4650   -0.7470   -0.9200 C   0  0  1  0  0  0  0  0  0  0  0  0
   -1.3760    0.0620   -0.0350 C   0  0  0  0  0  0  0  0  0  0  0  0
   -2.7210    0.3200   -0.6740 C   0  0  0  0  0  0  0  0  0  0  0  0
   -3.2080   -0.8480   -1.3420 N   0  0  0  0  0  0  0  0  0  0  0  0
   -4.4780   -1.4070   -1.0410 C   0  0  0  0  0  0  0  0  0  0  0  0
   -4.8340   -2.4330   -1.6690 O   0  0  0  0  0  0  0  0  0  0  0  0
   -5.3800   -0.8530   -0.0500 C   0  0  0  0  0  0  0  0  0  0  0  0
   -5.4630   -1.1450    1.2840 C   0  0  0  0  0  0  0  0  0  0  0  0
   -6.4530   -0.3880    1.8210 N   0  0  0  0  0  0  0  0  0  0  0  0
   -6.8830   -0.3770    3.2010 C   0  0  0  0  0  0  0  0  0  0  0  0
   -6.9900    0.3720    0.8460 C   0  0  0  0  0  0  0  0  0  0  0  0
   -8.0120    1.3160    0.8150 C   0  0  0  0  0  0  0  0  0  0  0  0
   -8.3650    1.9610   -0.3480 C   0  0  0  0  0  0  0  0  0  0  0  0
   -7.7190    1.6980   -1.5330 C   0  0  0  0  0  0  0  0  0  0  0  0
   -8.0720    2.3330   -2.6640 F   0  0  0  0  0  0  0  0  0  0  0  0
   -6.7000    0.7620   -1.5200 C   0  0  0  0  0  0  0  0  0  0  0  0
   -6.3480    0.1140   -0.3450 C   0  0  0  0  0  0  0  0  0  0  0  0
   -2.3370   -1.4450   -2.3580 C   0  0  0  0  0  0  0  0  0  0  0  0
   -0.9740   -0.8260   -2.3410 C   0  0  0  0  0  0  0  0  0  0  0  0
    3.6930    0.8830   -0.4940 C   0  0  0  0  0  0  0  0  0  0  0  0
    2.7550    1.8310   -0.8000 F   0  0  0  0  0  0  0  0  0  0  0  0
    5.0300    1.2990   -0.3950 C   0  0  0  0  0  0  0  0  0  0  0  0
    5.3130    2.6060   -0.6150 F   0  0  0  0  0  0  0  0  0  0  0  0
  1  2  1  0
  2  3  1  0
  3  4  2  0
  3  7  1  0
  4  5  1  0
  5  6  2  0
  6  7  1  0
  7  8  1  0
  8  9  2  0
  8 36  1  0
  9 10  1  0
 10 11  2  0
 11 12  1  0
 11 34  1  0
 12 13  2  0
 12 14  1  0
 15 14  1  6
 15 16  1  0
 15 33  1  0
 16 17  1  0
 17 18  1  0
 18 19  1  0
 18 32  1  0
 19 20  2  0
 19 21  1  0
 21 22  2  0
 21 31  1  0
 22 23  1  0
 23 24  1  0
 23 25  1  0
 25 26  2  0
 25 31  1  0
 26 27  1  0
 27 28  2  0
 28 29  1  0
 28 30  1  0
 30 31  2  0
 32 33  1  0
 34 35  1  0
 34 36  2  0
 36 37  1  0
M  CHG  1   4   1
M  END
