
     RDKit          3D

 37 41  0  0  0  0  0  0  0  0999 V2000
   -4.6820    3.8250   -0.9980 C   0  0  0  0  0  0  0  0  0  0  0  0
   -4.3930    2.6570   -0.4730 C   0  0  0  0  0  0  0  0  0  0  0  0
   -4.9810    2.2440    0.8360 C   0  0  0  0  0  0  0  0  0  0  0  0
   -3.8080    2.1040    1.6830 O   0  0  0  0  0  0  0  0  0  0  0  0
   -2.8400    1.1930    1.2130 C   0  0  0  0  0  0  0  0  0  0  0  0
   -2.0860    0.5070    2.1590 C   0  0  0  0  0  0  0  0  0  0  0  0
   -2.3150    0.7430    3.5250 O   0  0  0  0  0  0  0  0  0  0  0  0
   -1.5160    0.0200    4.4400 C   0  0  0  0  0  0  0  0  0  0  0  0
   -1.1440   -0.3770    1.7090 C   0  0  0  0  0  0  0  0  0  0  0  0
   -0.9000   -0.6230    0.3870 C   0  0  0  0  0  0  0  0  0  0  0  0
    0.1400   -1.5700   -0.0340 C   0  0  2  0  0  0  0  0  0  0  0  0
    1.2970   -0.7780   -0.6380 C   0  0  0  0  0  0  0  0  0  0  0  0
    1.8600    0.1290    0.3380 C   0  0  0  0  0  0  0  0  0  0  0  0
    1.4600    0.6130    1.5100 N   0  0  0  0  0  0  0  0  0  0  0  0
    2.3780    1.4360    2.0380 N   0  0  0  0  0  0  0  0  0  0  0  0
    3.4520    1.5240    1.1960 C   0  0  0  0  0  0  0  0  0  0  0  0
    4.6150    2.1230    1.1290 N   0  0  0  0  0  0  0  0  0  0  0  0
    5.4200    2.0540    0.2800 C   0  0  0  0  0  0  0  0  0  0  0  0
    6.7320    2.5190   -0.1330 N   0  0  0  0  0  0  0  0  0  0  0  0
    7.4490    3.4160    0.7500 C   0  0  0  0  0  0  0  0  0  0  0  0
    7.3340    2.1220   -1.3880 C   0  0  0  0  0  0  0  0  0  0  0  0
    4.5270    0.8600   -0.8910 S   0  0  0  0  0  0  0  0  0  0  0  0
    3.1300    0.7230    0.1580 C   0  0  0  0  0  0  0  0  0  0  0  0
   -0.3100   -2.5740   -0.9800 N   0  0  1  0  0  0  0  0  0  0  0  0
    0.5080   -3.7840   -0.8670 C   0  0  0  0  0  0  0  0  0  0  0  0
    0.0480   -4.6640    0.2730 C   0  0  0  0  0  0  0  0  0  0  0  0
   -1.4180   -4.9950    0.1450 C   0  0  0  0  0  0  0  0  0  0  0  0
   -1.8980   -4.3550   -1.1530 C   0  0  0  0  0  0  0  0  0  0  0  0
   -1.7080   -2.8440   -0.9590 C   0  0  0  0  0  0  0  0  0  0  0  0
   -1.6660    0.0730   -0.5560 C   0  0  0  0  0  0  0  0  0  0  0  0
   -2.6250    0.9710   -0.1480 C   0  0  0  0  0  0  0  0  0  0  0  0
   -3.4600    1.7450   -1.1100 C   0  0  0  0  0  0  0  0  0  0  0  0
   -3.3860    1.5080   -2.3800 C   0  0  0  0  0  0  0  0  0  0  0  0
   -4.2230    2.0890   -3.4480 C   0  0  1  0  0  0  0  0  0  0  0  0
   -3.6710    3.1500   -4.0840 F   0  0  0  0  0  0  0  0  0  0  0  0
   -4.3470    1.0600   -4.4490 F   0  0  0  0  0  0  0  0  0  0  0  0
   -5.5210    2.3390   -3.0920 F   0  0  0  0  0  0  0  0  0  0  0  0
  1  2  2  0
  2  3  1  0
  2 32  1  0
  3  4  1  0
  4  5  1  0
  5  6  2  0
  5 31  1  0
  6  7  1  0
  6  9  1  0
  7  8  1  0
  9 10  2  0
 10 11  1  0
 10 30  1  0
 11 12  1  6
 11 24  1  0
 12 13  1  0
 13 14  2  0
 13 23  1  0
 14 15  1  0
 15 16  1  0
 16 17  1  0
 16 23  2  0
 17 18  2  0
 18 19  1  0
 18 22  1  0
 19 20  1  0
 19 21  1  0
 22 23  1  0
 24 25  1  1
 24 29  1  0
 25 26  1  0
 26 27  1  0
 27 28  1  0
 28 29  1  0
 30 31  2  0
 31 32  1  0
 32 33  2  3
 33 34  1  0
 34 35  1  6
 34 36  1  0
 34 37  1  0
M  CHG  1  24   1
M  END
