
     RDKit          3D

 29 31  0  0  0  0  0  0  0  0999 V2000
   -2.0590    5.1310   -0.9220 C   0  0  0  0  0  0  0  0  0  0  0  0
   -1.9380    3.9660   -0.1650 O   0  0  0  0  0  0  0  0  0  0  0  0
   -0.7850    3.3250   -0.5720 C   0  0  0  0  0  0  0  0  0  0  0  0
   -0.5460    2.0350    0.1870 C   0  0  2  0  0  0  0  0  0  0  0  0
   -0.4240    2.4090    1.6500 C   0  0  0  0  0  0  0  0  0  0  0  0
    0.7320    1.4340   -0.3380 C   0  0  0  0  0  0  0  0  0  0  0  0
    1.0070    0.0660    0.2550 C   0  0  2  0  0  0  0  0  0  0  0  0
    2.3020   -0.4260   -0.2900 C   0  0  2  0  0  0  0  0  0  0  0  0
    2.1900   -0.8720   -1.7290 C   0  0  0  0  0  0  0  0  0  0  0  0
    3.0330   -1.3080    0.6430 C   0  0  1  0  0  0  0  0  0  0  0  0
    3.6560   -2.5330    0.0370 C   0  0  0  0  0  0  0  0  0  0  0  0
    4.1220   -0.5790    1.4690 C   0  0  0  0  0  0  0  0  0  0  0  0
    5.2840   -0.1660    0.6370 C   0  0  0  0  0  0  0  0  0  0  0  0
    4.6990    0.2730   -0.6870 C   0  0  0  0  0  0  0  0  0  0  0  0
    3.2870    0.7800   -0.4830 C   0  0  1  0  0  0  0  0  0  0  0  0
    2.9930    1.4650   -1.6610 O   0  0  0  0  0  0  0  0  0  0  0  0
   -0.1860   -0.8570   -0.0630 C   0  0  1  0  0  0  0  0  0  0  0  0
   -0.0680   -2.1920    0.5980 C   0  0  0  0  0  0  0  0  0  0  0  0
   -1.1640   -3.1400    0.2880 C   0  0  0  0  0  0  0  0  0  0  0  0
   -2.4410   -2.4980   -0.0660 C   0  0  0  0  0  0  0  0  0  0  0  0
   -2.6720   -1.1020    0.4290 C   0  0  2  0  0  0  0  0  0  0  0  0
   -3.3060   -1.1490    1.8380 C   0  0  0  0  0  0  0  0  0  0  0  0
   -2.4620   -1.8040    2.7370 O   0  0  0  0  0  0  0  0  0  0  0  0
   -3.7330   -0.5040   -0.4810 C   0  0  0  0  0  0  0  0  0  0  0  0
   -5.0320   -1.2230   -0.4920 C   0  0  0  0  0  0  0  0  0  0  0  0
   -4.9790   -2.5470   -0.9160 O   0  0  0  0  0  0  0  0  0  0  0  0
   -1.4440   -0.2290    0.4630 C   0  0  2  0  0  0  0  0  0  0  0  0
   -1.7320    1.1550   -0.0550 C   0  0  2  0  0  0  0  0  0  0  0  0
   -2.0420    1.2440   -1.3820 O   0  0  0  0  0  0  0  0  0  0  0  0
  1  2  1  0
  2  3  1  0
  3  4  1  0
  4  5  1  1
  4  6  1  0
  4 28  1  0
  7  6  1  6
  7  8  1  0
  7 17  1  0
  8  9  1  6
  8 10  1  0
  8 15  1  0
 10 11  1  6
 10 12  1  0
 12 13  1  0
 13 14  1  0
 14 15  1  0
 15 16  1  6
 17 18  1  1
 17 27  1  0
 18 19  1  0
 19 20  1  0
 20 21  1  0
 21 22  1  1
 21 24  1  0
 27 21  1  6
 22 23  1  0
 24 25  1  0
 25 26  1  0
 27 28  1  0
 28 29  1  6
M  END
