
     RDKit          3D

 29 32  0  0  0  0  0  0  0  0999 V2000
    3.2780    0.8960    3.1090 C   0  0  0  0  0  0  0  0  0  0  0  0
    3.4260    0.9570    1.6060 C   0  0  1  0  0  0  0  0  0  0  0  0
    4.4040   -0.0650    1.0890 C   0  0  0  0  0  0  0  0  0  0  0  0
    4.5280    0.1630   -0.3990 C   0  0  1  0  0  0  0  0  0  0  0  0
    5.3740   -0.8630   -1.0830 C   0  0  0  0  0  0  0  0  0  0  0  0
    4.9000   -0.7420   -2.5150 C   0  0  0  0  0  0  0  0  0  0  0  0
    3.5040   -0.1060   -2.4400 C   0  0  0  0  0  0  0  0  0  0  0  0
    3.1370   -0.2070   -0.9800 C   0  0  2  0  0  0  0  0  0  0  0  0
    2.1990    0.8290   -0.5100 C   0  0  1  0  0  0  0  0  0  0  0  0
    0.9380    1.0260   -1.2780 C   0  0  0  0  0  0  0  0  0  0  0  0
   -0.0520   -0.0100   -1.4450 C   0  0  1  0  0  0  0  0  0  0  0  0
    0.4830   -1.1540   -2.0350 O   0  0  0  0  0  0  0  0  0  0  0  0
   -0.9950   -0.4640   -0.4180 C   0  0  2  0  0  0  0  0  0  0  0  0
   -1.7690   -1.6540   -1.0670 C   0  0  2  0  0  0  0  0  0  0  0  0
   -2.8400   -1.2880   -1.7970 O   0  0  0  0  0  0  0  0  0  0  0  0
   -2.1250   -2.5490    0.0950 C   0  0  0  0  0  0  0  0  0  0  0  0
   -2.8960   -1.6890    1.0680 C   0  0  1  0  0  0  0  0  0  0  0  0
   -4.3160   -2.3070    1.0720 C   0  0  0  0  0  0  0  0  0  0  0  0
   -2.3830   -1.9400    2.4800 C   0  0  0  0  0  0  0  0  0  0  0  0
   -3.0700   -0.4200    0.7190 O   0  0  0  0  0  0  0  0  0  0  0  0
   -1.9810    0.3440    0.2470 C   0  0  1  0  0  0  0  0  0  0  0  0
   -1.3740    0.8610    1.5820 C   0  0  0  0  0  0  0  0  0  0  0  0
   -2.6810    1.4980   -0.3270 C   0  0  1  0  0  0  0  0  0  0  0  0
   -2.0340    2.4940   -0.9510 O   0  0  0  0  0  0  0  0  0  0  0  0
   -3.9490    1.2040   -1.1150 C   0  0  0  0  0  0  0  0  0  0  0  0
   -4.7840    2.4800   -0.8870 C   0  0  0  0  0  0  0  0  0  0  0  0
   -4.3110    3.0460    0.2570 O   0  0  0  0  0  0  0  0  0  0  0  0
   -3.3990    2.2290    0.8710 C   0  0  0  0  0  0  0  0  0  0  0  0
    2.0550    0.7540    0.9860 C   0  0  0  0  0  0  0  0  0  0  0  0
  2  1  1  1
  2  3  1  0
  2 29  1  0
  4  3  1  1
  4  5  1  0
  4  8  1  0
  5  6  1  0
  6  7  1  0
  8  7  1  6
  8  9  1  0
  9 10  1  6
  9 29  1  0
 10 11  1  0
 11 12  1  1
 13 11  1  6
 13 14  1  0
 13 21  1  0
 14 15  1  1
 14 16  1  0
 16 17  1  0
 17 18  1  1
 17 19  1  0
 17 20  1  0
 20 21  1  0
 21 22  1  1
 21 23  1  0
 23 24  1  6
 23 25  1  0
 23 28  1  0
 25 26  1  0
 26 27  1  0
 27 28  1  0
M  END
