
     RDKit          3D

 29 31  0  0  0  0  0  0  0  0999 V2000
   -2.3500   -3.6760   -2.1870 C   0  0  0  0  0  0  0  0  0  0  0  0
   -2.2790   -2.2470   -1.5930 C   0  0  1  0  0  0  0  0  0  0  0  0
   -3.6290   -1.6450   -1.8690 C   0  0  0  0  0  0  0  0  0  0  0  0
   -1.8570   -2.3800   -0.2090 C   0  0  2  0  0  0  0  0  0  0  0  0
   -2.8930   -3.2500    0.5300 C   0  0  0  0  0  0  0  0  0  0  0  0
   -2.3830   -3.3160    1.8520 O   0  0  0  0  0  0  0  0  0  0  0  0
   -1.5190   -1.1640    0.6050 C   0  0  2  0  0  0  0  0  0  0  0  0
   -2.5730   -0.1630    0.8110 C   0  0  0  0  0  0  0  0  0  0  0  0
   -2.3620    1.2140    0.2690 C   0  0  1  0  0  0  0  0  0  0  0  0
   -3.3820    2.1210    0.9090 C   0  0  0  0  0  0  0  0  0  0  0  0
   -3.1660    3.5110    0.3980 C   0  0  1  0  0  0  0  0  0  0  0  0
   -4.0940    4.3790    1.0130 O   0  0  0  0  0  0  0  0  0  0  0  0
   -1.7990    3.9520    0.9400 C   0  0  2  0  0  0  0  0  0  0  0  0
   -1.6540    5.4070    0.6640 C   0  0  0  0  0  0  0  0  0  0  0  0
   -0.7070    3.1130    0.3420 C   0  0  0  0  0  0  0  0  0  0  0  0
   -0.9260    1.6610    0.5940 C   0  0  2  0  0  0  0  0  0  0  0  0
   -0.0940    0.7550   -0.2450 C   0  0  1  0  0  0  0  0  0  0  0  0
   -0.7590    0.6980   -1.5140 O   0  0  0  0  0  0  0  0  0  0  0  0
    1.2710    1.2310   -0.5680 C   0  0  0  0  0  0  0  0  0  0  0  0
    2.1950    1.4650    0.3110 O   0  0  0  0  0  0  0  0  0  0  0  0
    2.8290    0.7510    1.1980 C   0  0  0  0  0  0  0  0  0  0  0  0
    3.6670   -0.4130    0.8750 C   0  0  1  0  0  0  0  0  0  0  0  0
    3.0980   -1.5890    0.2020 C   0  0  0  0  0  0  0  0  0  0  0  0
    4.3520   -2.4990    0.1350 C   0  0  0  0  0  0  0  0  0  0  0  0
    5.4950   -1.5080   -0.1010 C   0  0  1  0  0  0  0  0  0  0  0  0
    6.1360   -1.7240   -1.4410 C   0  0  0  0  0  0  0  0  0  0  0  0
    4.8890   -0.1210    0.0250 C   0  0  2  0  0  0  0  0  0  0  0  0
    5.7050    0.7390    0.7610 O   0  0  0  0  0  0  0  0  0  0  0  0
   -0.1400   -0.6230    0.2800 C   0  0  0  0  0  0  0  0  0  0  0  0
  2  1  1  1
  2  3  1  0
  2  4  1  0
  4  5  1  1
  4  7  1  0
  5  6  1  0
  7  8  1  6
  7 29  1  0
  9  8  1  1
  9 10  1  0
  9 16  1  0
 10 11  1  0
 11 12  1  1
 11 13  1  0
 13 14  1  6
 13 15  1  0
 16 15  1  6
 16 17  1  0
 17 18  1  6
 17 19  1  0
 17 29  1  0
 19 20  1  0
 20 21  1  0
 22 21  1  6
 22 23  1  0
 22 27  1  0
 23 24  1  0
 24 25  1  0
 25 26  1  6
 25 27  1  0
 27 28  1  1
M  END
