
     RDKit          3D

 31 34  0  0  0  0  0  0  0  0999 V2000
    5.7700    0.8170    1.7760 C   0  0  0  0  0  0  0  0  0  0  0  0
    5.9830   -0.1140    0.6260 C   0  0  0  0  0  0  0  0  0  0  0  0
    5.0390   -0.5980   -0.2320 C   0  0  0  0  0  0  0  0  0  0  0  0
    3.6120   -0.3780   -0.2950 C   0  0  0  0  0  0  0  0  0  0  0  0
    3.0100   -0.9870   -1.2540 O   0  0  0  0  0  0  0  0  0  0  0  0
    2.7990    0.3930    0.5280 N   0  0  0  0  0  0  0  0  0  0  0  0
    1.3640    0.5470    0.3800 C   0  0  0  0  0  0  0  0  0  0  0  0
    0.5930   -0.7260    0.4940 C   0  0  0  0  0  0  0  0  0  0  0  0
   -0.8200   -0.5490    0.3430 N   0  0  0  0  0  0  0  0  0  0  0  0
   -1.3960   -0.2590   -0.9140 C   0  0  0  0  0  0  0  0  0  0  0  0
   -0.6570   -0.2850   -2.0610 C   0  0  0  0  0  0  0  0  0  0  0  0
   -1.2230   -0.0240   -3.2860 C   0  0  0  0  0  0  0  0  0  0  0  0
   -2.5460    0.2690   -3.3930 C   0  0  0  0  0  0  0  0  0  0  0  0
   -3.2850    0.2910   -2.2310 C   0  0  0  0  0  0  0  0  0  0  0  0
   -2.7520    0.0370   -0.9990 C   0  0  0  0  0  0  0  0  0  0  0  0
   -3.5290    0.0560    0.2590 C   0  0  0  0  0  0  0  0  0  0  0  0
   -4.8560    0.3580    0.0660 O   0  0  0  0  0  0  0  0  0  0  0  0
   -5.4900    0.3480    1.3050 C   0  0  0  0  0  0  0  0  0  0  0  0
   -6.9290    0.6690    1.1510 C   0  0  0  0  0  0  0  0  0  0  0  0
   -7.4320    0.9170   -0.1010 C   0  0  0  0  0  0  0  0  0  0  0  0
   -8.7920    1.2220   -0.2620 C   0  0  0  0  0  0  0  0  0  0  0  0
   -9.6210    1.2720    0.8340 C   0  0  0  0  0  0  0  0  0  0  0  0
   -9.0820    1.0180    2.0700 C   0  0  0  0  0  0  0  0  0  0  0  0
   -7.7450    0.7160    2.2480 C   0  0  0  0  0  0  0  0  0  0  0  0
    5.7540   -1.4000   -1.0940 N   0  0  0  0  0  0  0  0  0  0  0  0
    7.0440   -1.3810   -0.7520 C   0  0  0  0  0  0  0  0  0  0  0  0
    8.1650   -1.9940   -1.2710 C   0  0  0  0  0  0  0  0  0  0  0  0
    9.4210   -1.8200   -0.7380 C   0  0  0  0  0  0  0  0  0  0  0  0
    9.5650   -0.9960    0.3630 C   0  0  0  0  0  0  0  0  0  0  0  0
    8.4430   -0.3930    0.8680 C   0  0  0  0  0  0  0  0  0  0  0  0
    7.2350   -0.5940    0.3120 N   0  0  0  0  0  0  0  0  0  0  0  0
  1  2  1  0
  2  3  2  0
  2 31  1  0
  3  4  1  0
  3 25  1  0
  4  5  2  0
  4  6  1  0
  6  7  1  0
  7  8  1  0
  8  9  1  0
  9 10  1  0
 10 11  2  0
 10 15  1  0
 11 12  1  0
 12 13  2  0
 13 14  1  0
 14 15  2  0
 15 16  1  0
 16 17  1  0
 17 18  1  0
 18 19  1  0
 19 20  2  0
 19 24  1  0
 20 21  1  0
 21 22  2  0
 22 23  1  0
 23 24  2  0
 25 26  2  0
 26 27  1  0
 26 31  1  0
 27 28  2  0
 28 29  1  0
 29 30  2  0
 30 31  1  0
M  END
