
     RDKit          3D

 29 32  0  0  0  0  0  0  0  0999 V2000
    4.9460   -1.6440    1.2740 C   0  0  0  0  0  0  0  0  0  0  0  0
    4.0440   -1.3160    0.1180 C   0  0  0  0  0  0  0  0  0  0  0  0
    2.9300   -0.3450    0.4540 C   0  0  1  0  0  0  0  0  0  0  0  0
    3.7330    0.9160    0.9110 C   0  0  0  0  0  0  0  0  0  0  0  0
    4.6810    1.2300   -0.0410 O   0  0  0  0  0  0  0  0  0  0  0  0
    4.0730    1.4190   -1.2480 C   0  0  0  0  0  0  0  0  0  0  0  0
    2.5630    1.3050   -1.2290 C   0  0  0  0  0  0  0  0  0  0  0  0
    2.0550    0.0010   -0.6950 C   0  0  1  0  0  0  0  0  0  0  0  0
    2.4560   -0.9400   -1.7090 O   0  0  0  0  0  0  0  0  0  0  0  0
    0.5810   -0.1740   -0.6880 C   0  0  2  0  0  0  0  0  0  0  0  0
    0.2870   -1.6550   -0.4990 C   0  0  0  0  0  0  0  0  0  0  0  0
    0.6910   -2.4020    0.6620 C   0  0  0  0  0  0  0  0  0  0  0  0
    0.0780    0.0730   -2.0960 C   0  0  0  0  0  0  0  0  0  0  0  0
   -0.4870    1.3370   -2.4930 C   0  0  2  0  0  0  0  0  0  0  0  0
   -0.0290    1.7330   -3.7830 O   0  0  0  0  0  0  0  0  0  0  0  0
   -0.4690    2.4750   -1.5320 C   0  0  0  0  0  0  0  0  0  0  0  0
   -0.3560    2.1110   -0.1040 C   0  0  0  0  0  0  0  0  0  0  0  0
   -0.2130    0.6770    0.2560 C   0  0  2  0  0  0  0  0  0  0  0  0
    0.5500    0.6720    1.4510 O   0  0  0  0  0  0  0  0  0  0  0  0
   -1.5460    0.1500    0.6900 C   0  0  1  0  0  0  0  0  0  0  0  0
   -2.0810    0.9220    1.9120 C   0  0  0  0  0  0  0  0  0  0  0  0
   -2.9700   -0.0560    2.6580 C   0  0  0  0  0  0  0  0  0  0  0  0
   -3.3380   -1.2720    1.8540 C   0  0  0  0  0  0  0  0  0  0  0  0
   -3.6380   -1.0220    0.4170 C   0  0  1  0  0  0  0  0  0  0  0  0
   -3.6000   -2.3420   -0.3150 C   0  0  0  0  0  0  0  0  0  0  0  0
   -4.9110   -0.5280    0.3310 O   0  0  0  0  0  0  0  0  0  0  0  0
   -4.9220    0.2990   -0.7840 C   0  0  0  0  0  0  0  0  0  0  0  0
   -3.6490    1.1150   -0.4390 C   0  0  0  0  0  0  0  0  0  0  0  0
   -2.6790    0.0070   -0.2170 C   0  0  1  0  0  0  0  0  0  0  0  0
  1  2  1  0
  3  2  1  6
  3  4  1  0
  3  8  1  0
  4  5  1  0
  5  6  1  0
  6  7  1  0
  7  8  1  0
  8  9  1  6
  8 10  1  0
 10 11  1  1
 10 13  1  0
 10 18  1  0
 11 12  1  0
 13 14  1  0
 14 15  1  6
 14 16  1  0
 16 17  1  0
 17 18  1  0
 18 19  1  1
 18 20  1  0
 20 21  1  1
 20 29  1  0
 21 22  1  0
 22 23  1  0
 23 24  1  0
 24 25  1  6
 24 26  1  0
 24 29  1  0
 26 27  1  0
 27 28  1  0
 29 28  1  1
M  END
