
     RDKit          3D

 30 32  0  0  0  0  0  0  0  0999 V2000
    7.5020    2.1570   -0.2120 C   0  0  0  0  0  0  0  0  0  0  0  0
    8.2570    0.8260    0.0700 C   0  0  0  0  0  0  0  0  0  0  0  0
    7.5340   -0.1940    0.1430 O   0  0  0  0  0  0  0  0  0  0  0  0
    6.5850   -0.8640    0.6170 C   0  0  0  0  0  0  0  0  0  0  0  0
    5.2040   -0.3130    0.4320 C   0  0  0  0  0  0  0  0  0  0  0  0
    4.7000    0.7510    1.0070 C   0  0  0  0  0  0  0  0  0  0  0  0
    3.3250    1.0870    0.8760 C   0  0  0  0  0  0  0  0  0  0  0  0
    2.5020    0.2880    0.1430 C   0  0  0  0  0  0  0  0  0  0  0  0
    1.0990    0.4390   -0.0150 C   0  0  0  0  0  0  0  0  0  0  0  0
    0.4100    1.4300    0.5920 C   0  0  0  0  0  0  0  0  0  0  0  0
   -1.0080    1.7680    0.5680 C   0  0  0  0  0  0  0  0  0  0  0  0
   -2.0310    0.9910    0.1810 C   0  0  0  0  0  0  0  0  0  0  0  0
   -3.3960    1.5160    0.2430 C   0  0  0  0  0  0  0  0  0  0  0  0
   -3.3620    2.7160    0.8620 O   0  0  0  0  0  0  0  0  0  0  0  0
   -4.6180    1.1140   -0.1650 N   0  0  0  0  0  0  0  0  0  0  0  0
   -4.9220    0.0550   -1.1290 C   0  0  0  0  0  0  0  0  0  0  0  0
   -5.8820   -0.9170   -0.5360 C   0  0  1  0  0  0  0  0  0  0  0  0
   -5.5800   -2.3570   -0.8990 C   0  0  0  0  0  0  0  0  0  0  0  0
   -6.0270   -0.7420    0.8180 O   0  0  0  0  0  0  0  0  0  0  0  0
   -6.5190    0.4760    1.1540 C   0  0  2  0  0  0  0  0  0  0  0  0
   -8.0070    0.5000    0.9610 C   0  0  0  0  0  0  0  0  0  0  0  0
   -5.8350    1.6690    0.4570 C   0  0  0  0  0  0  0  0  0  0  0  0
   -1.9760   -0.4470   -0.1260 C   0  0  0  0  0  0  0  0  0  0  0  0
   -0.9170   -1.0940   -0.5650 C   0  0  0  0  0  0  0  0  0  0  0  0
   -1.0640   -2.9550   -0.9110 Br  0  0  0  0  0  0  0  0  0  0  0  0
    0.4100   -0.5680   -0.8020 N   0  0  0  0  0  0  0  0  0  0  0  0
    3.0790   -0.8280   -0.4270 N   0  0  0  0  0  0  0  0  0  0  0  0
    4.3170   -1.1860   -0.3500 C   0  0  0  0  0  0  0  0  0  0  0  0
    4.9980   -2.2360   -0.8860 O   0  0  0  0  0  0  0  0  0  0  0  0
    4.6890   -3.2820   -1.7090 C   0  0  0  0  0  0  0  0  0  0  0  0
  1  2  1  0
  2  3  1  0
  3  4  1  0
  4  5  1  0
  5  6  2  0
  5 28  1  0
  6  7  1  0
  7  8  2  0
  8  9  1  0
  8 27  1  0
  9 10  2  0
  9 26  1  0
 10 11  1  0
 11 12  2  0
 12 13  1  0
 12 23  1  0
 13 14  2  0
 13 15  1  0
 15 16  1  0
 15 22  1  0
 16 17  1  0
 17 18  1  1
 17 19  1  0
 19 20  1  0
 20 21  1  6
 20 22  1  0
 23 24  2  0
 24 25  1  0
 24 26  1  0
 27 28  2  0
 28 29  1  0
 29 30  1  0
M  END
