
     RDKit          3D

 31 33  0  0  0  0  0  0  0  0999 V2000
   -7.8030   -0.2010   -0.1120 C   0  0  0  0  0  0  0  0  0  0  0  0
   -6.4950    0.3410    0.4680 C   0  0  2  0  0  0  0  0  0  0  0  0
   -6.6990    0.5130    1.9450 C   0  0  0  0  0  0  0  0  0  0  0  0
   -6.1680    1.6750   -0.1370 C   0  0  0  0  0  0  0  0  0  0  0  0
   -5.4310   -0.6980    0.1760 C   0  0  1  0  0  0  0  0  0  0  0  0
   -5.3330   -0.8780   -1.2530 N   0  0  0  0  0  0  0  0  0  0  0  0
   -4.1550   -0.3990    0.8230 C   0  0  0  0  0  0  0  0  0  0  0  0
   -4.1440   -0.2360    2.0700 O   0  0  0  0  0  0  0  0  0  0  0  0
   -2.9380   -0.2840    0.1230 N   0  0  0  0  0  0  0  0  0  0  0  0
   -1.4400    0.0740    0.9450 S   0  0  1  0  0  0  0  0  0  0  0  0
   -1.5900    1.4150    1.5800 O   0  0  0  0  0  0  0  0  0  0  0  0
   -1.2170   -1.0160    1.9530 O   0  0  0  0  0  0  0  0  0  0  0  0
   -0.1970    0.1360   -0.1560 O   0  0  0  0  0  0  0  0  0  0  0  0
    0.6100   -0.9870   -0.0060 C   0  0  0  0  0  0  0  0  0  0  0  0
    1.7640   -0.9870   -0.9860 C   0  0  1  0  0  0  0  0  0  0  0  0
    2.5620    0.1100   -0.8160 O   0  0  0  0  0  0  0  0  0  0  0  0
    3.8860   -0.2990   -0.9050 C   0  0  1  0  0  0  0  0  0  0  0  0
    4.8030    0.6470   -0.3440 N   0  0  0  0  0  0  0  0  0  0  0  0
    4.6710    1.5100    0.6630 C   0  0  0  0  0  0  0  0  0  0  0  0
    5.8300    2.2090    0.8300 N   0  0  0  0  0  0  0  0  0  0  0  0
    6.7150    1.7830   -0.0860 C   0  0  0  0  0  0  0  0  0  0  0  0
    8.0270    2.1090   -0.4030 C   0  0  0  0  0  0  0  0  0  0  0  0
    8.7120    3.1060    0.3310 N   0  0  0  0  0  0  0  0  0  0  0  0
    8.6730    1.4900   -1.4070 N   0  0  0  0  0  0  0  0  0  0  0  0
    8.0220    0.5400   -2.1080 C   0  0  0  0  0  0  0  0  0  0  0  0
    6.7520    0.2230   -1.8030 N   0  0  0  0  0  0  0  0  0  0  0  0
    6.0690    0.8150   -0.8090 C   0  0  0  0  0  0  0  0  0  0  0  0
    3.8440   -1.5970   -0.0960 C   0  0  2  0  0  0  0  0  0  0  0  0
    4.9610   -2.3710   -0.2830 O   0  0  0  0  0  0  0  0  0  0  0  0
    2.5890   -2.2210   -0.7110 C   0  0  2  0  0  0  0  0  0  0  0  0
    2.9850   -2.7600   -1.9400 O   0  0  0  0  0  0  0  0  0  0  0  0
  2  1  1  6
  2  3  1  0
  2  4  1  0
  2  5  1  0
  5  6  1  6
  5  7  1  0
  7  8  2  0
  7  9  1  0
 10  9  1  6
 10 11  2  0
 10 12  2  0
 10 13  1  0
 13 14  1  0
 15 14  1  1
 15 16  1  0
 15 30  1  0
 16 17  1  0
 17 18  1  1
 17 28  1  0
 18 19  1  0
 18 27  1  0
 19 20  2  0
 20 21  1  0
 21 22  2  0
 21 27  1  0
 22 23  1  0
 22 24  1  0
 24 25  2  0
 25 26  1  0
 26 27  2  0
 28 29  1  6
 28 30  1  0
 30 31  1  6
M  CHG  1   6   1
M  END
