
     RDKit          3D

 30 31  0  0  0  0  0  0  0  0999 V2000
    6.8710   -0.1430   -2.3170 C   0  0  0  0  0  0  0  0  0  0  0  0
    6.5740   -1.3730   -1.4710 C   0  0  0  0  0  0  0  0  0  0  0  0
    6.7230   -1.0780   -0.1420 O   0  0  0  0  0  0  0  0  0  0  0  0
    5.9430   -0.0740    0.3420 C   0  0  0  0  0  0  0  0  0  0  0  0
    4.4880   -0.3930    0.1870 C   0  0  0  0  0  0  0  0  0  0  0  0
    3.6250    0.6900    0.7340 C   0  0  0  0  0  0  0  0  0  0  0  0
    4.1910    1.7050    1.1650 O   0  0  0  0  0  0  0  0  0  0  0  0
    2.2010    0.5030    0.7310 N   0  0  0  0  0  0  0  0  0  0  0  0
    1.6920   -0.7080    0.2210 C   0  0  0  0  0  0  0  0  0  0  0  0
    1.2990   -1.7770    1.1980 C   0  0  0  0  0  0  0  0  0  0  0  0
    0.5020   -2.8840    0.5440 C   0  0  0  0  0  0  0  0  0  0  0  0
   -0.9570   -2.7410    0.7920 C   0  0  0  0  0  0  0  0  0  0  0  0
   -1.7860   -2.9300   -0.4140 C   0  0  0  0  0  0  0  0  0  0  0  0
   -2.4570   -4.7360   -0.6330 Br  0  0  0  0  0  0  0  0  0  0  0  0
   -2.1220   -2.0450   -1.3130 C   0  0  0  0  0  0  0  0  0  0  0  0
   -1.8470   -0.6550   -1.4750 C   0  0  0  0  0  0  0  0  0  0  0  0
   -2.4210    0.4520   -1.1570 C   0  0  0  0  0  0  0  0  0  0  0  0
   -3.6250    0.9120   -0.4860 C   0  0  2  0  0  0  0  0  0  0  0  0
   -4.7280   -0.0690   -0.2520 C   0  0  0  0  0  0  0  0  0  0  0  0
   -4.4560   -1.2320    0.6110 C   0  0  0  0  0  0  0  0  0  0  0  0
   -4.2690    1.9410   -1.4640 C   0  0  0  0  0  0  0  0  0  0  0  0
   -5.3340    2.5980   -0.9350 O   0  0  0  0  0  0  0  0  0  0  0  0
   -4.8120    3.4840    0.0490 C   0  0  0  0  0  0  0  0  0  0  0  0
   -4.4370    2.5860    1.1910 C   0  0  0  0  0  0  0  0  0  0  0  0
   -3.3870    1.6670    0.7410 N   0  0  0  0  0  0  0  0  0  0  0  0
   -2.2560    1.5670    1.5790 C   0  0  0  0  0  0  0  0  0  0  0  0
   -2.5600    1.8440    2.8310 O   0  0  0  0  0  0  0  0  0  0  0  0
   -0.9340    1.2440    1.3550 N   0  0  0  0  0  0  0  0  0  0  0  0
    0.1110    1.8470    0.5690 C   0  0  0  0  0  0  0  0  0  0  0  0
    1.4630    1.6260    1.2670 C   0  0  0  0  0  0  0  0  0  0  0  0
  1  2  1  0
  2  3  1  0
  3  4  1  0
  4  5  1  0
  5  6  1  0
  6  7  2  0
  6  8  1  0
  8  9  1  0
  8 30  1  0
  9 10  1  0
 10 11  1  0
 11 12  1  0
 12 13  1  0
 13 14  1  0
 13 15  2  0
 15 16  1  0
 16 17  2  0
 17 18  1  0
 18 19  1  1
 18 21  1  0
 18 25  1  0
 19 20  1  0
 21 22  1  0
 22 23  1  0
 23 24  1  0
 24 25  1  0
 25 26  1  0
 26 27  2  0
 26 28  1  0
 28 29  1  0
 29 30  1  0
M  END
