
     RDKit          3D

 29 32  0  0  0  0  0  0  0  0999 V2000
   -3.8460   -2.7720   -1.0220 C   0  0  0  0  0  0  0  0  0  0  0  0
   -3.7650   -1.4110   -0.4420 C   0  0  0  0  0  0  0  0  0  0  0  0
   -4.8340   -0.6230   -0.5040 C   0  0  0  0  0  0  0  0  0  0  0  0
   -4.7470    0.7280    0.0750 C   0  0  1  0  0  0  0  0  0  0  0  0
   -5.8600    1.5680   -0.5720 C   0  0  0  0  0  0  0  0  0  0  0  0
   -5.0580    0.7300    1.5640 C   0  0  0  0  0  0  0  0  0  0  0  0
   -6.3880    0.2280    1.8290 N   0  0  0  0  0  0  0  0  0  0  0  0
   -3.5130    1.3940   -0.2000 N   0  0  0  0  0  0  0  0  0  0  0  0
   -2.3410    0.5850   -0.1840 C   0  0  2  0  0  0  0  0  0  0  0  0
   -1.3440    1.2510    0.7550 C   0  0  0  0  0  0  0  0  0  0  0  0
   -0.0520    0.4550    0.8050 C   0  0  0  0  0  0  0  0  0  0  0  0
    0.4050    0.2340   -0.5390 N   0  0  0  0  0  0  0  0  0  0  0  0
    1.5340   -0.6040   -0.7570 C   0  0  0  0  0  0  0  0  0  0  0  0
    1.9750   -0.8650   -1.9080 O   0  0  0  0  0  0  0  0  0  0  0  0
    2.2320   -1.2030    0.3960 C   0  0  0  0  0  0  0  0  0  0  0  0
    3.4830   -0.4650    0.5490 N   0  0  0  0  0  0  0  0  0  0  0  0
    3.7810    0.6210    1.2420 C   0  0  0  0  0  0  0  0  0  0  0  0
    5.1350    0.9510    1.0800 C   0  0  0  0  0  0  0  0  0  0  0  0
    5.6630   -0.0040    0.2370 C   0  0  0  0  0  0  0  0  0  0  0  0
    7.0350   -0.1250   -0.2400 C   0  0  0  0  0  0  0  0  0  0  0  0
    7.4190   -1.0920   -1.0940 N   0  0  0  0  0  0  0  0  0  0  0  0
    8.6520   -1.2570   -1.5560 C   0  0  0  0  0  0  0  0  0  0  0  0
    9.6220   -0.3740   -1.1370 C   0  0  0  0  0  0  0  0  0  0  0  0
    9.2760    0.6380   -0.2600 C   0  0  0  0  0  0  0  0  0  0  0  0
    7.9920    0.7250    0.1570 N   0  0  0  0  0  0  0  0  0  0  0  0
    4.6250   -0.8600   -0.0720 C   0  0  0  0  0  0  0  0  0  0  0  0
   -0.2890    0.8810   -1.6280 C   0  0  0  0  0  0  0  0  0  0  0  0
   -1.7410    0.5660   -1.5740 C   0  0  0  0  0  0  0  0  0  0  0  0
   -2.5470   -0.8480    0.2160 C   0  0  0  0  0  0  0  0  0  0  0  0
  1  2  1  0
  2  3  2  0
  2 29  1  0
  3  4  1  0
  4  5  1  6
  4  6  1  0
  4  8  1  0
  6  7  1  0
  8  9  1  0
  9 10  1  1
  9 28  1  0
  9 29  1  0
 10 11  1  0
 11 12  1  0
 12 13  1  0
 12 27  1  0
 13 14  2  0
 13 15  1  0
 15 16  1  0
 16 17  1  0
 16 26  1  0
 17 18  2  0
 18 19  1  0
 19 20  1  0
 19 26  2  0
 20 21  2  0
 20 25  1  0
 21 22  1  0
 22 23  2  0
 23 24  1  0
 24 25  2  0
 27 28  1  0
M  CHG  1   7   1
M  END
