
     RDKit          3D

 29 32  0  0  0  0  0  0  0  0999 V2000
   -6.0910    1.9780   -0.4210 C   0  0  0  0  0  0  0  0  0  0  0  0
   -6.2190    0.5230   -0.8060 C   0  0  0  0  0  0  0  0  0  0  0  0
   -6.0590   -0.3860    0.3350 C   0  0  0  0  0  0  0  0  0  0  0  0
   -6.9440   -0.1410    1.5260 C   0  0  0  0  0  0  0  0  0  0  0  0
   -5.2120   -1.3670    0.3630 C   0  0  0  0  0  0  0  0  0  0  0  0
   -4.3170   -1.6900   -0.7180 C   0  0  0  0  0  0  0  0  0  0  0  0
   -4.4160   -2.8830   -1.4200 N   0  0  0  0  0  0  0  0  0  0  0  0
   -3.4370   -2.9040   -2.3260 C   0  0  0  0  0  0  0  0  0  0  0  0
   -2.7380   -1.7660   -2.2070 N   0  0  0  0  0  0  0  0  0  0  0  0
   -3.2640   -1.0010   -1.2180 C   0  0  0  0  0  0  0  0  0  0  0  0
   -2.6970    0.2850   -0.7820 C   0  0  0  0  0  0  0  0  0  0  0  0
   -1.8580    0.1710    0.3770 N   0  0  0  0  0  0  0  0  0  0  0  0
   -2.1870    0.2870    1.6540 C   0  0  0  0  0  0  0  0  0  0  0  0
   -3.3370    0.5400    2.0950 O   0  0  0  0  0  0  0  0  0  0  0  0
   -1.0630    0.0860    2.4150 N   0  0  0  0  0  0  0  0  0  0  0  0
   -0.0240   -0.1580    1.5880 C   0  0  0  0  0  0  0  0  0  0  0  0
    1.2760   -0.4130    1.8000 N   0  0  0  0  0  0  0  0  0  0  0  0
    2.1740   -0.6320    0.8010 C   0  0  0  0  0  0  0  0  0  0  0  0
    3.5490   -0.8730    1.1070 N   0  0  0  0  0  0  0  0  0  0  0  0
    4.5990   -1.0860    0.1710 C   0  0  0  0  0  0  0  0  0  0  0  0
    5.2240    0.2110   -0.2110 C   0  0  2  0  0  0  0  0  0  0  0  0
    4.3380    1.2210   -0.8390 C   0  0  0  0  0  0  0  0  0  0  0  0
    6.4970    0.0420   -1.0120 C   0  0  0  0  0  0  0  0  0  0  0  0
    7.2670    1.2850   -0.7000 C   0  0  0  0  0  0  0  0  0  0  0  0
    6.7320    1.8450    0.5780 C   0  0  0  0  0  0  0  0  0  0  0  0
    5.7860    0.8090    1.0930 C   0  0  0  0  0  0  0  0  0  0  0  0
    1.6730   -0.5790   -0.4780 C   0  0  0  0  0  0  0  0  0  0  0  0
    0.3290   -0.3160   -0.7390 C   0  0  0  0  0  0  0  0  0  0  0  0
   -0.5410   -0.1010    0.3070 C   0  0  0  0  0  0  0  0  0  0  0  0
  1  2  1  0
  2  3  1  0
  3  4  1  0
  3  5  2  3
  5  6  1  0
  6  7  1  0
  6 10  2  0
  7  8  1  0
  8  9  2  0
  9 10  1  0
 10 11  1  0
 11 12  1  0
 12 13  1  0
 12 29  1  0
 13 14  2  0
 13 15  1  0
 15 16  1  0
 16 17  2  0
 16 29  1  0
 17 18  1  0
 18 19  1  0
 18 27  2  0
 19 20  1  0
 20 21  1  0
 21 22  1  6
 21 23  1  0
 21 26  1  0
 23 24  1  0
 24 25  1  0
 25 26  1  0
 27 28  1  0
 28 29  2  0
M  CHG  1  17   1
M  END
