
     RDKit          3D

 29 31  0  0  0  0  0  0  0  0999 V2000
   -4.4320    0.9930    1.2000 C   0  0  0  0  0  0  0  0  0  0  0  0
   -4.2130   -0.3010    0.5510 C   0  0  2  0  0  0  0  0  0  0  0  0
   -2.8520   -0.6950    0.2200 N   0  0  0  0  0  0  0  0  0  0  0  0
   -2.1050   -0.8720    1.4980 C   0  0  0  0  0  0  0  0  0  0  0  0
   -2.2450    0.4230   -0.4920 C   0  0  0  0  0  0  0  0  0  0  0  0
   -0.8350    0.6730   -0.2750 C   0  0  0  0  0  0  0  0  0  0  0  0
    0.2800   -0.0490   -0.5710 C   0  0  0  0  0  0  0  0  0  0  0  0
    1.5710    0.4250   -0.4130 C   0  0  0  0  0  0  0  0  0  0  0  0
    2.7430   -0.2080   -0.7990 N   0  0  0  0  0  0  0  0  0  0  0  0
    3.2090   -1.4820   -0.3730 C   0  0  0  0  0  0  0  0  0  0  0  0
    2.5940   -2.1810    0.3910 O   0  0  0  0  0  0  0  0  0  0  0  0
    4.5370   -1.7810   -0.9850 C   0  0  0  0  0  0  0  0  0  0  0  0
    5.5980   -1.4160   -0.3540 C   0  0  0  0  0  0  0  0  0  0  0  0
    5.6370   -0.7280    0.9380 C   0  0  0  0  0  0  0  0  0  0  0  0
    6.9780   -0.4840    1.2600 O   0  0  0  0  0  0  0  0  0  0  0  0
    7.6540    0.3150    0.3780 C   0  0  0  0  0  0  0  0  0  0  0  0
    7.3120    0.0070   -1.0680 C   0  0  0  0  0  0  0  0  0  0  0  0
    6.9510   -1.5030   -1.0570 C   0  0  2  0  0  0  0  0  0  0  0  0
    6.7280   -2.1960   -2.8210 Br  0  0  0  0  0  0  0  0  0  0  0  0
    1.7550    1.7360    0.0910 C   0  0  0  0  0  0  0  0  0  0  0  0
    0.6580    2.4960    0.4050 C   0  0  0  0  0  0  0  0  0  0  0  0
   -0.5850    1.9770    0.2260 C   0  0  0  0  0  0  0  0  0  0  0  0
   -1.5000    2.9480    0.6140 O   0  0  0  0  0  0  0  0  0  0  0  0
   -0.7960    3.9160    1.3750 C   0  0  0  0  0  0  0  0  0  0  0  0
    0.5510    3.8040    0.9300 O   0  0  0  0  0  0  0  0  0  0  0  0
   -5.2950   -0.8050   -0.3230 C   0  0  1  0  0  0  0  0  0  0  0  0
   -5.7410    0.1510   -1.4090 C   0  0  0  0  0  0  0  0  0  0  0  0
   -4.6760   -2.0050   -1.1530 C   0  0  0  0  0  0  0  0  0  0  0  0
   -6.4580   -1.3920    0.4050 C   0  0  0  0  0  0  0  0  0  0  0  0
  2  1  1  6
  2  3  1  0
  2 26  1  0
  3  4  1  0
  3  5  1  0
  5  6  1  0
  6  7  2  0
  6 22  1  0
  7  8  1  0
  8  9  1  0
  8 20  2  0
  9 10  1  0
 10 11  2  0
 10 12  1  0
 12 13  2  3
 13 14  1  0
 13 18  1  0
 14 15  1  0
 15 16  1  0
 16 17  1  0
 17 18  1  0
 18 19  1  6
 20 21  1  0
 21 22  2  0
 21 25  1  0
 22 23  1  0
 23 24  1  0
 24 25  1  0
 26 27  1  6
 26 28  1  0
 26 29  1  0
M  END
