
     RDKit          3D

 29 31  0  0  0  0  0  0  0  0999 V2000
    3.2340   -2.0870   -0.0540 O   0  0  0  0  0  0  0  0  0  0  0  0
    4.0650   -1.1500   -0.0610 C   0  0  0  0  0  0  0  0  0  0  0  0
    5.5040   -1.4900   -0.0860 C   0  0  0  0  0  0  0  0  0  0  0  0
    5.7270   -2.9740   -0.0970 C   0  0  0  0  0  0  0  0  0  0  0  0
    7.5150   -3.3000   -0.1240 S   0  0  0  0  0  0  0  0  0  0  0  0
    3.6680    0.2100   -0.0470 N   0  0  0  0  0  0  0  0  0  0  0  0
    2.2840    0.5940   -0.0240 C   0  0  0  0  0  0  0  0  0  0  0  0
    1.7890    1.8020   -0.0070 C   0  0  0  0  0  0  0  0  0  0  0  0
    2.5710    2.9710   -0.0100 O   0  0  0  0  0  0  0  0  0  0  0  0
    0.3390    1.7330    0.0150 C   0  0  0  0  0  0  0  0  0  0  0  0
   -0.5670    2.7970    0.0370 O   0  0  0  0  0  0  0  0  0  0  0  0
   -0.0690    4.1190   -0.0540 C   0  0  0  0  0  0  0  0  0  0  0  0
   -1.1970    5.1320   -0.0140 C   0  0  2  0  0  0  0  0  0  0  0  0
   -1.9270    5.0600    1.1320 F   0  0  0  0  0  0  0  0  0  0  0  0
   -2.0680    4.9100   -1.0770 F   0  0  0  0  0  0  0  0  0  0  0  0
   -0.6480    6.3880   -0.1860 F   0  0  0  0  0  0  0  0  0  0  0  0
   -0.0390    0.4810    0.0110 C   0  0  0  0  0  0  0  0  0  0  0  0
   -1.4390   -0.0320    0.0290 C   0  0  0  0  0  0  0  0  0  0  0  0
   -2.5030    0.1060   -0.3390 N   0  0  0  0  0  0  0  0  0  0  0  0
   -3.6090   -0.5810   -0.1110 C   0  0  0  0  0  0  0  0  0  0  0  0
   -3.4440   -1.6500    0.7140 C   0  0  0  0  0  0  0  0  0  0  0  0
   -1.6770   -1.5820    1.1060 S   0  0  0  0  0  0  0  0  0  0  0  0
   -4.5070   -2.5780    1.1300 C   0  0  0  0  0  0  0  0  0  0  0  0
   -4.2100   -3.4690    1.9410 O   0  0  0  0  0  0  0  0  0  0  0  0
   -5.8930   -2.4070    0.5570 C   0  0  0  0  0  0  0  0  0  0  0  0
   -5.6640   -1.6950   -0.7830 C   0  0  0  0  0  0  0  0  0  0  0  0
   -5.0290   -0.3490   -0.6340 C   0  0  0  0  0  0  0  0  0  0  0  0
    1.1750   -0.3590   -0.0230 C   0  0  1  0  0  0  0  0  0  0  0  0
    1.1060   -1.0980   -1.2150 O   0  0  0  0  0  0  0  0  0  0  0  0
  1  2  2  0
  2  3  1  0
  2  6  1  0
  3  4  1  0
  4  5  1  0
  6  7  1  0
  7  8  2  0
  7 28  1  0
  8  9  1  0
  8 10  1  0
 10 11  1  0
 10 17  2  0
 11 12  1  0
 12 13  1  0
 13 14  1  1
 13 15  1  0
 13 16  1  0
 17 18  1  0
 17 28  1  0
 18 19  2  0
 18 22  1  0
 19 20  1  0
 20 21  2  0
 20 27  1  0
 21 22  1  0
 21 23  1  0
 23 24  2  0
 23 25  1  0
 25 26  1  0
 26 27  1  0
 28 29  1  6
M  END
