
     RDKit          3D

 30 32  0  0  0  0  0  0  0  0999 V2000
   -6.9800    1.6380    1.1300 C   0  0  0  0  0  0  0  0  0  0  0  0
   -6.7280    0.2400    0.6600 C   0  0  1  0  0  0  0  0  0  0  0  0
   -7.0680    0.1220   -0.8210 C   0  0  0  0  0  0  0  0  0  0  0  0
   -5.3190   -0.2000    0.9420 C   0  0  1  0  0  0  0  0  0  0  0  0
   -5.1270   -1.5570    0.4680 N   0  0  0  0  0  0  0  0  0  0  0  0
   -4.2930    0.7200    0.4310 C   0  0  0  0  0  0  0  0  0  0  0  0
   -4.2940    1.9440    0.7130 O   0  0  0  0  0  0  0  0  0  0  0  0
   -3.2500    0.2440   -0.4150 N   0  0  0  0  0  0  0  0  0  0  0  0
   -2.0240    1.2870   -1.0410 S   0  0  1  0  0  0  0  0  0  0  0  0
   -2.6330    2.1060   -2.1400 O   0  0  0  0  0  0  0  0  0  0  0  0
   -1.4980    2.2080    0.0100 O   0  0  0  0  0  0  0  0  0  0  0  0
   -0.7570    0.3580   -1.6300 O   0  0  0  0  0  0  0  0  0  0  0  0
    0.4820    0.8480   -1.1550 C   0  0  0  0  0  0  0  0  0  0  0  0
    1.5660   -0.0600   -1.7470 C   0  0  1  0  0  0  0  0  0  0  0  0
    2.7890    0.3740   -1.3160 O   0  0  0  0  0  0  0  0  0  0  0  0
    3.4330   -0.6880   -0.6940 C   0  0  1  0  0  0  0  0  0  0  0  0
    4.3770   -0.2450    0.2850 N   0  0  0  0  0  0  0  0  0  0  0  0
    4.2500    0.0200    1.5990 C   0  0  0  0  0  0  0  0  0  0  0  0
    5.4510    0.4100    2.0800 N   0  0  0  0  0  0  0  0  0  0  0  0
    6.3680    0.4000    1.0790 C   0  0  0  0  0  0  0  0  0  0  0  0
    7.7090    0.6980    1.0050 C   0  0  0  0  0  0  0  0  0  0  0  0
    8.4430    1.1210    2.1330 N   0  0  0  0  0  0  0  0  0  0  0  0
    8.3340    0.5810   -0.1720 N   0  0  0  0  0  0  0  0  0  0  0  0
    7.6870    0.1780   -1.2910 C   0  0  0  0  0  0  0  0  0  0  0  0
    6.3810   -0.1100   -1.2060 N   0  0  0  0  0  0  0  0  0  0  0  0
    5.6780   -0.0140   -0.0470 C   0  0  0  0  0  0  0  0  0  0  0  0
    2.3200   -1.5520   -0.1210 C   0  0  2  0  0  0  0  0  0  0  0  0
    2.7280   -2.8280    0.1870 O   0  0  0  0  0  0  0  0  0  0  0  0
    1.3670   -1.4900   -1.3030 C   0  0  2  0  0  0  0  0  0  0  0  0
    1.8660   -2.3360   -2.2860 O   0  0  0  0  0  0  0  0  0  0  0  0
  2  1  1  6
  2  3  1  0
  2  4  1  0
  4  5  1  6
  4  6  1  0
  6  7  2  0
  6  8  1  0
  9  8  1  1
  9 10  2  0
  9 11  2  0
  9 12  1  0
 12 13  1  0
 14 13  1  1
 14 15  1  0
 14 29  1  0
 15 16  1  0
 16 17  1  1
 16 27  1  0
 17 18  1  0
 17 26  1  0
 18 19  2  0
 19 20  1  0
 20 21  2  0
 20 26  1  0
 21 22  1  0
 21 23  1  0
 23 24  2  0
 24 25  1  0
 25 26  2  0
 27 28  1  6
 27 29  1  0
 29 30  1  6
M  CHG  1   5   1
M  END
