
     RDKit          3D

 29 30  0  0  0  0  0  0  0  0999 V2000
    8.8870   -0.1210   -1.4400 C   0  0  0  0  0  0  0  0  0  0  0  0
    7.0810   -0.1730   -1.5140 S   0  0  0  0  0  0  0  0  0  0  0  0
    6.4290   -1.4430   -0.3860 C   0  0  0  0  0  0  0  0  0  0  0  0
    4.9560   -1.4570   -0.4730 C   0  0  0  0  0  0  0  0  0  0  0  0
    4.1530   -1.2120    0.5440 C   0  0  0  0  0  0  0  0  0  0  0  0
    2.7320   -1.2540    0.3540 N   0  0  0  0  0  0  0  0  0  0  0  0
    1.8820   -0.1510    0.5690 C   0  0  0  0  0  0  0  0  0  0  0  0
    2.3610    0.9450    0.9480 O   0  0  0  0  0  0  0  0  0  0  0  0
    0.4160   -0.2660    0.3520 C   0  0  0  0  0  0  0  0  0  0  0  0
   -0.0800   -1.3470   -0.0240 O   0  0  0  0  0  0  0  0  0  0  0  0
   -0.4200    0.8370    0.5690 N   0  0  0  0  0  0  0  0  0  0  0  0
   -1.8150    0.9190    0.4190 C   0  0  0  0  0  0  0  0  0  0  0  0
   -2.5990   -0.1310    0.0150 C   0  0  0  0  0  0  0  0  0  0  0  0
   -3.9920   -0.0390   -0.1310 C   0  0  0  0  0  0  0  0  0  0  0  0
   -4.7470   -1.1260   -0.5420 C   0  0  0  0  0  0  0  0  0  0  0  0
   -6.1240   -0.9900   -0.6740 C   0  0  0  0  0  0  0  0  0  0  0  0
   -6.7370    0.2100   -0.4010 C   0  0  0  0  0  0  0  0  0  0  0  0
   -8.4640    0.3460   -0.5780 S   0  0  1  0  0  0  0  0  0  0  0  0
   -9.1860    0.1060    0.7150 O   0  0  0  0  0  0  0  0  0  0  0  0
   -8.8020    1.7280   -1.0850 O   0  0  0  0  0  0  0  0  0  0  0  0
   -5.9690    1.2660    0.0020 C   0  0  0  0  0  0  0  0  0  0  0  0
   -4.5880    1.1710    0.1460 C   0  0  0  0  0  0  0  0  0  0  0  0
   -3.8480    2.2540    0.5540 C   0  0  0  0  0  0  0  0  0  0  0  0
   -2.4650    2.1050    0.6830 C   0  0  0  0  0  0  0  0  0  0  0  0
   -1.6800    3.1840    1.0950 O   0  0  0  0  0  0  0  0  0  0  0  0
    4.7280   -0.9050    1.8610 C   0  0  1  0  0  0  0  0  0  0  0  0
    3.6690   -0.4570    2.6790 F   0  0  0  0  0  0  0  0  0  0  0  0
    5.4440   -1.9020    2.4370 F   0  0  0  0  0  0  0  0  0  0  0  0
    5.5670    0.2270    1.7830 F   0  0  0  0  0  0  0  0  0  0  0  0
  1  2  1  0
  2  3  1  0
  3  4  1  0
  4  5  2  3
  5  6  1  0
  5 26  1  0
  6  7  1  0
  7  8  2  0
  7  9  1  0
  9 10  2  0
  9 11  1  0
 11 12  1  0
 12 13  2  0
 12 24  1  0
 13 14  1  0
 14 15  2  0
 14 22  1  0
 15 16  1  0
 16 17  2  0
 18 17  1  1
 17 21  1  0
 18 19  2  0
 18 20  2  0
 21 22  2  0
 22 23  1  0
 23 24  2  0
 24 25  1  0
 26 27  1  1
 26 28  1  0
 26 29  1  0
M  END
