
     RDKit          3D

 29 30  0  0  0  0  0  0  0  0999 V2000
   -3.8980   -3.0360    1.6780 C   0  0  0  0  0  0  0  0  0  0  0  0
   -4.8660   -1.9690    1.5370 C   0  0  0  0  0  0  0  0  0  0  0  0
   -4.8950   -0.9320    0.6920 C   0  0  0  0  0  0  0  0  0  0  0  0
   -3.8510   -0.7210   -0.3060 C   0  0  0  0  0  0  0  0  0  0  0  0
   -3.7720    0.2630   -1.1500 C   0  0  0  0  0  0  0  0  0  0  0  0
   -4.4700    1.4320   -1.5360 C   0  0  0  0  0  0  0  0  0  0  0  0
   -5.6010    2.1560   -1.2260 N   0  0  0  0  0  0  0  0  0  0  0  0
   -3.8340    2.0610   -2.5350 O   0  0  0  0  0  0  0  0  0  0  0  0
   -2.1190   -0.0330   -2.0190 S   0  0  0  0  0  0  0  0  0  0  0  0
   -1.5180   -1.1090   -0.6430 C   0  0  1  0  0  0  0  0  0  0  0  0
   -1.1280   -0.3290    0.5580 C   0  0  0  0  0  0  0  0  0  0  0  0
    0.1190    0.2880    0.4610 O   0  0  0  0  0  0  0  0  0  0  0  0
    1.2730   -0.4580    0.2720 C   0  0  0  0  0  0  0  0  0  0  0  0
    1.1770   -1.6890    0.1890 O   0  0  0  0  0  0  0  0  0  0  0  0
    2.5760    0.2340    0.1740 C   0  0  0  0  0  0  0  0  0  0  0  0
    3.8090   -0.2710   -0.0070 C   0  0  0  0  0  0  0  0  0  0  0  0
    4.8530    0.5700   -0.0630 C   0  0  0  0  0  0  0  0  0  0  0  0
    6.2520    0.0600   -0.2630 C   0  0  0  0  0  0  0  0  0  0  0  0
    6.5150   -1.1550   -0.3860 O   0  0  0  0  0  0  0  0  0  0  0  0
    7.3210    0.9310   -0.3200 O   0  0  0  0  0  0  0  0  0  0  0  0
    8.6530    0.4910   -0.5070 C   0  0  0  0  0  0  0  0  0  0  0  0
    4.6410    1.9090    0.0640 C   0  0  0  0  0  0  0  0  0  0  0  0
    5.5540    3.0560    0.0460 C   0  0  0  0  0  0  0  0  0  0  0  0
    2.8400    1.9840    0.2770 S   0  0  0  0  0  0  0  0  0  0  0  0
   -2.8500   -1.7370   -0.4760 N   0  0  0  0  0  0  0  0  0  0  0  0
   -6.0870   -0.0670    0.9270 C   0  0  2  0  0  0  0  0  0  0  0  0
   -5.7080    1.1650    1.3770 F   0  0  0  0  0  0  0  0  0  0  0  0
   -6.8290   -0.6150    2.0300 F   0  0  0  0  0  0  0  0  0  0  0  0
   -6.9750   -0.0220   -0.0810 F   0  0  0  0  0  0  0  0  0  0  0  0
  1  2  1  0
  2  3  2  3
  3  4  1  0
  3 26  1  0
  4  5  2  0
  4 25  1  0
  5  6  1  0
  5  9  1  0
  6  7  1  0
  6  8  2  0
  9 10  1  0
 10 11  1  1
 10 25  1  0
 11 12  1  0
 12 13  1  0
 13 14  2  0
 13 15  1  0
 15 16  2  0
 15 24  1  0
 16 17  1  0
 17 18  1  0
 17 22  2  0
 18 19  2  0
 18 20  1  0
 20 21  1  0
 22 23  1  0
 22 24  1  0
 26 27  1  1
 26 28  1  0
 26 29  1  0
M  END
