
     RDKit          3D

 15 15  0  0  0  0  0  0  0  0999 V2000
   -0.3410    1.5250    1.4540 C   0  0  0  0  0  0  0  0  0  0  0  0
   -0.5740    0.3750    0.5220 C   0  0  1  0  0  0  0  0  0  0  0  0
    0.5790   -0.0670   -0.0930 O   0  0  0  0  0  0  0  0  0  0  0  0
    1.5210   -0.5770    0.7840 C   0  0  0  0  0  0  0  0  0  0  0  0
    2.7130   -1.0100   -0.0780 C   0  0  1  0  0  0  0  0  0  0  0  0
    2.3130   -1.9820   -0.9990 O   0  0  0  0  0  0  0  0  0  0  0  0
    3.2120    0.1720   -0.9010 C   0  0  0  0  0  0  0  0  0  0  0  0
    3.6410    1.2140   -0.0810 O   0  0  0  0  0  0  0  0  0  0  0  0
   -1.2430   -0.6480    1.2370 O   0  0  0  0  0  0  0  0  0  0  0  0
   -2.4860   -0.9100    0.6730 C   0  0  0  0  0  0  0  0  0  0  0  0
   -3.5270   -1.3650    1.2310 O   0  0  0  0  0  0  0  0  0  0  0  0
   -2.3170   -0.5290   -0.7600 C   0  0  1  0  0  0  0  0  0  0  0  0
   -3.5570   -0.3420   -1.4430 N   0  0  0  0  0  0  0  0  0  0  0  0
   -1.5360    0.7820   -0.6030 C   0  0  1  0  0  0  0  0  0  0  0  0
   -2.4430    1.7300   -0.1800 O   0  0  0  0  0  0  0  0  0  0  0  0
  2  1  1  1
  2  3  1  0
  2  9  1  0
  2 14  1  0
  3  4  1  0
  4  5  1  0
  5  6  1  6
  5  7  1  0
  7  8  1  0
  9 10  1  0
 10 11  2  0
 10 12  1  0
 12 13  1  1
 12 14  1  0
 14 15  1  1
M  END
