
     RDKit          3D

 15 15  0  0  0  0  0  0  0  0999 V2000
   -0.1390    2.4590    0.3750 C   0  0  0  0  0  0  0  0  0  0  0  0
    0.2240    1.3060   -0.5240 C   0  0  2  0  0  0  0  0  0  0  0  0
    1.0280    1.7360   -1.5810 O   0  0  0  0  0  0  0  0  0  0  0  0
   -0.9940    0.7940   -1.0280 O   0  0  0  0  0  0  0  0  0  0  0  0
   -1.4110    0.0080    0.0160 C   0  0  1  0  0  0  0  0  0  0  0  0
   -2.6550   -0.7200   -0.2140 C   0  0  0  0  0  0  0  0  0  0  0  0
   -3.0900   -1.4590    0.7070 O   0  0  0  0  0  0  0  0  0  0  0  0
   -3.3890   -0.6540   -1.3750 O   0  0  0  0  0  0  0  0  0  0  0  0
   -4.5550   -1.3800   -1.5030 N   0  0  0  0  0  0  0  0  0  0  0  0
   -0.2020   -0.9000    0.1790 C   0  0  0  0  0  0  0  0  0  0  0  0
    0.8640    0.1750    0.2370 C   0  0  2  0  0  0  0  0  0  0  0  0
    1.1200    0.5170    1.5540 O   0  0  0  0  0  0  0  0  0  0  0  0
    2.1180   -0.2300   -0.4940 C   0  0  0  0  0  0  0  0  0  0  0  0
    2.8440   -1.3640    0.1850 C   0  0  0  0  0  0  0  0  0  0  0  0
    3.9780   -1.6500   -0.5730 O   0  0  0  0  0  0  0  0  0  0  0  0
  2  1  1  1
  2  3  1  0
  2  4  1  0
  2 11  1  0
  4  5  1  0
  5  6  1  6
  5 10  1  0
  6  7  2  0
  6  8  1  0
  8  9  1  0
 10 11  1  0
 11 12  1  1
 11 13  1  0
 13 14  1  0
 14 15  1  0
M  END
