
     RDKit          3D

 15 15  0  0  0  0  0  0  0  0999 V2000
   -2.0560    1.1730    2.0290 N   0  0  0  0  0  0  0  0  0  0  0  0
   -2.3940   -0.0310    1.2560 C   0  0  2  0  0  0  0  0  0  0  0  0
   -1.0780   -0.6510    0.8180 C   0  0  0  0  0  0  0  0  0  0  0  0
   -0.6480    0.1190   -0.4330 C   0  0  1  0  0  0  0  0  0  0  0  0
   -0.5510    1.4530   -0.0580 O   0  0  0  0  0  0  0  0  0  0  0  0
    0.7620   -0.3350   -0.8100 C   0  0  0  0  0  0  0  0  0  0  0  0
    1.5400   -0.1650    0.3120 O   0  0  0  0  0  0  0  0  0  0  0  0
    2.8540   -0.5260    0.1560 C   0  0  2  0  0  0  0  0  0  0  0  0
    3.2840   -1.4910    1.0440 O   0  0  0  0  0  0  0  0  0  0  0  0
    3.6910    0.7530    0.2950 C   0  0  0  0  0  0  0  0  0  0  0  0
    3.2700    1.6090   -0.6980 O   0  0  0  0  0  0  0  0  0  0  0  0
   -1.6200   -0.1070   -1.5440 C   0  0  1  0  0  0  0  0  0  0  0  0
   -1.1610   -1.1280   -2.3620 O   0  0  0  0  0  0  0  0  0  0  0  0
   -2.9520   -0.5090   -0.8970 C   0  0  0  0  0  0  0  0  0  0  0  0
   -3.1670    0.3590    0.1590 O   0  0  0  0  0  0  0  0  0  0  0  0
  2  1  1  1
  2  3  1  0
  2 15  1  0
  3  4  1  0
  4  5  1  1
  4  6  1  0
  4 12  1  0
  6  7  1  0
  7  8  1  0
  8  9  1  1
  8 10  1  0
 10 11  1  0
 12 13  1  6
 12 14  1  0
 14 15  1  0
M  END
