
     RDKit          3D

 15 15  0  0  0  0  0  0  0  0999 V2000
    4.3990   -0.2920    0.5870 N   0  0  0  0  0  0  0  0  0  0  0  0
    3.4520   -0.4030   -0.5060 C   0  0  1  0  0  0  0  0  0  0  0  0
    3.4330   -1.7100   -0.9770 O   0  0  0  0  0  0  0  0  0  0  0  0
    2.0620    0.0070   -0.0440 C   0  0  1  0  0  0  0  0  0  0  0  0
    2.1550    1.3240    0.3850 O   0  0  0  0  0  0  0  0  0  0  0  0
    1.1070   -0.0640   -1.1840 C   0  0  0  0  0  0  0  0  0  0  0  0
   -0.1470    0.3810   -0.8460 O   0  0  0  0  0  0  0  0  0  0  0  0
   -0.7610   -0.3250    0.1750 C   0  0  0  0  0  0  0  0  0  0  0  0
   -2.1470    0.2080    0.4770 C   0  0  2  0  0  0  0  0  0  0  0  0
   -2.7820   -0.6770    1.5560 C   0  0  0  0  0  0  0  0  0  0  0  0
   -2.7730   -1.9760    1.0500 O   0  0  0  0  0  0  0  0  0  0  0  0
   -3.0630    0.1960   -0.6930 C   0  0  0  0  0  0  0  0  0  0  0  0
   -3.0730    1.4880   -1.1550 O   0  0  0  0  0  0  0  0  0  0  0  0
   -2.2470    2.2280   -0.3200 C   0  0  0  0  0  0  0  0  0  0  0  0
   -2.1010    1.5220    0.8640 O   0  0  0  0  0  0  0  0  0  0  0  0
  2  1  1  1
  2  3  1  0
  2  4  1  0
  4  5  1  6
  4  6  1  0
  6  7  1  0
  7  8  1  0
  9  8  1  6
  9 10  1  0
  9 12  1  0
  9 15  1  0
 10 11  1  0
 12 13  1  0
 13 14  1  0
 14 15  1  0
M  END
