
     RDKit          3D

 32 33  0  0  0  0  0  0  0  0999 V2000
    7.8180   -0.4560   -2.8760 O   0  0  0  0  0  0  0  0  0  0  0  0
    6.3450   -0.9100   -2.7130 P   0  0  0  0  0  0  0  0  0  0  0  0
    5.0970    0.0060   -1.8910 N   0  0  0  0  0  0  0  0  0  0  0  0
    5.1110   -0.4150   -0.4860 C   0  0  1  0  0  0  0  0  0  0  0  0
    6.4440   -0.0890    0.0960 C   0  0  0  0  0  0  0  0  0  0  0  0
    7.5750   -0.4090   -0.2530 O   0  0  0  0  0  0  0  0  0  0  0  0
    6.1080    0.6870    1.1640 O   0  0  0  0  0  0  0  0  0  0  0  0
    4.8030    0.8190    1.2410 N   0  0  0  0  0  0  0  0  0  0  0  0
    4.1380    0.2230    0.3420 C   0  0  0  0  0  0  0  0  0  0  0  0
    2.7570    0.4920    0.5800 N   0  0  0  0  0  0  0  0  0  0  0  0
    1.7270   -0.0480   -0.1400 C   0  0  0  0  0  0  0  0  0  0  0  0
    2.1020   -0.8110   -1.0380 O   0  0  0  0  0  0  0  0  0  0  0  0
    0.3730    0.2550    0.1490 N   0  0  0  0  0  0  0  0  0  0  0  0
   -0.0240    1.0980    1.0870 O   0  0  0  0  0  0  0  0  0  0  0  0
   -1.3740    1.3900    1.0550 C   0  0  1  0  0  0  0  0  0  0  0  0
   -1.6640    2.1080    2.3800 C   0  0  0  0  0  0  0  0  0  0  0  0
   -1.3180    1.1900    3.3970 O   0  0  0  0  0  0  0  0  0  0  0  0
   -1.7020    2.3040   -0.1090 C   0  0  0  0  0  0  0  0  0  0  0  0
   -3.0530    2.6040   -0.1520 O   0  0  0  0  0  0  0  0  0  0  0  0
   -3.3510    3.6460   -1.5000 P   0  0  0  0  0  0  0  0  0  0  0  0
   -1.9350    4.5240   -1.9480 O   0  0  0  0  0  0  0  0  0  0  0  0
   -4.7150    4.6820   -1.2320 O   0  0  0  0  0  0  0  0  0  0  0  0
   -2.2910    0.2130    0.9980 C   0  0  0  0  0  0  0  0  0  0  0  0
   -1.8580   -0.6750   -0.0420 N   0  0  0  0  0  0  0  0  0  0  0  0
   -2.6830   -1.7950   -0.4850 C   0  0  0  0  0  0  0  0  0  0  0  0
   -2.3640   -3.0330    0.3330 C   0  0  2  0  0  0  0  0  0  0  0  0
   -1.0540   -3.4280    0.2280 O   0  0  0  0  0  0  0  0  0  0  0  0
   -3.4250   -4.4100   -0.3400 P   0  0  0  0  0  0  0  0  0  0  0  0
   -2.9080   -4.7700   -1.9410 O   0  0  0  0  0  0  0  0  0  0  0  0
   -3.3030   -5.7960    0.6980 O   0  0  0  0  0  0  0  0  0  0  0  0
   -0.6040   -0.4360   -0.6200 C   0  0  0  0  0  0  0  0  0  0  0  0
   -0.2410   -0.7830   -1.7840 O   0  0  0  0  0  0  0  0  0  0  0  0
  1  2  2  0
  2  3  1  0
  4  3  1  6
  4  5  1  0
  4  9  1  0
  5  6  2  0
  5  7  1  0
  7  8  1  0
  8  9  2  0
  9 10  1  0
 10 11  1  0
 11 12  2  0
 11 13  1  0
 13 14  1  0
 13 31  1  0
 14 15  1  0
 15 16  1  1
 15 18  1  0
 15 23  1  0
 16 17  1  0
 18 19  1  0
 19 20  1  0
 20 21  1  0
 20 22  1  0
 23 24  1  0
 24 25  1  0
 24 31  1  0
 25 26  1  0
 26 27  1  6
 26 28  1  0
 28 29  1  0
 28 30  1  0
 31 32  2  0
M  END
