
     RDKit          3D

 33 33  0  0  0  0  0  0  0  0999 V2000
    6.2180   -0.3650   -1.1310 N   0  0  0  0  0  0  0  0  0  0  0  0
    5.3490   -0.1190   -0.2370 C   0  0  0  0  0  0  0  0  0  0  0  0
    4.2140   -0.8770   -0.5200 N   0  0  0  0  0  0  0  0  0  0  0  0
    2.9110   -0.5600   -0.2550 C   0  0  0  0  0  0  0  0  0  0  0  0
    2.7910    0.6060    0.2070 O   0  0  0  0  0  0  0  0  0  0  0  0
    1.8590   -1.4100   -0.4760 N   0  0  0  0  0  0  0  0  0  0  0  0
    0.4980   -1.0210   -0.2090 C   0  0  2  0  0  0  0  0  0  0  0  0
    0.0470   -1.9400    0.9240 C   0  0  0  0  0  0  0  0  0  0  0  0
   -0.2430   -1.1170    2.1810 C   0  0  0  0  0  0  0  0  0  0  0  0
    0.8300   -0.2990    2.4230 O   0  0  0  0  0  0  0  0  0  0  0  0
    0.4850    1.0180    2.6750 C   0  0  0  0  0  0  0  0  0  0  0  0
   -0.8300    1.2550    2.3640 O   0  0  0  0  0  0  0  0  0  0  0  0
   -0.9860    2.5670    1.2030 P   0  0  0  0  0  0  0  0  0  0  0  0
   -2.2710    3.5920    1.7470 O   0  0  0  0  0  0  0  0  0  0  0  0
   -2.3870    3.5590    3.0540 O   0  0  0  0  0  0  0  0  0  0  0  0
   -3.1460    2.5990    3.4890 O   0  0  0  0  0  0  0  0  0  0  0  0
   -1.4600    1.8030   -0.3120 O   0  0  0  0  0  0  0  0  0  0  0  0
   -2.5920    1.0530   -0.1190 C   0  0  0  0  0  0  0  0  0  0  0  0
   -2.6650   -0.2330   -0.8830 C   0  0  1  0  0  0  0  0  0  0  0  0
   -3.5030   -1.2120   -0.0770 C   0  0  0  0  0  0  0  0  0  0  0  0
   -4.6390   -0.6760    0.4630 O   0  0  0  0  0  0  0  0  0  0  0  0
   -3.5990    0.0810   -2.0930 C   0  0  0  0  0  0  0  0  0  0  0  0
   -3.7880   -1.1510   -2.7160 O   0  0  0  0  0  0  0  0  0  0  0  0
   -4.8000   -1.0450   -4.0960 P   0  0  0  0  0  0  0  0  0  0  0  0
   -5.6580   -2.5010   -4.4190 O   0  0  0  0  0  0  0  0  0  0  0  0
   -3.8360   -0.5400   -5.4590 O   0  0  0  0  0  0  0  0  0  0  0  0
   -1.5190   -0.7520   -1.4390 N   0  0  0  0  0  0  0  0  0  0  0  0
   -0.3670   -1.1020   -1.4100 C   0  0  0  0  0  0  0  0  0  0  0  0
    0.2770   -1.6390   -2.5600 O   0  0  0  0  0  0  0  0  0  0  0  0
    5.8660    0.4970    0.9250 N   0  0  0  0  0  0  0  0  0  0  0  0
    7.0130    1.8310    0.9040 P   0  0  0  0  0  0  0  0  0  0  0  0
    6.2870    3.3480    1.1560 O   0  0  0  0  0  0  0  0  0  0  0  0
    8.3120    1.5500    1.9990 O   0  0  0  0  0  0  0  0  0  0  0  0
  1  2  2  0
  2  3  1  0
  2 30  1  0
  3  4  1  0
  4  5  2  0
  4  6  1  0
  7  6  1  6
  7  8  1  0
  7 28  1  0
  8  9  1  0
  9 10  1  0
 10 11  1  0
 11 12  1  0
 12 13  1  0
 13 14  1  0
 13 17  1  0
 14 15  1  0
 15 16  1  0
 17 18  1  0
 18 19  1  0
 19 20  1  1
 19 22  1  0
 19 27  1  0
 20 21  1  0
 22 23  1  0
 23 24  1  0
 24 25  1  0
 24 26  1  0
 27 28  2  0
 28 29  1  0
 30 31  1  0
 31 32  1  0
 31 33  1  0
M  END
