
     RDKit          3D

 33 34  0  0  0  0  0  0  0  0999 V2000
    0.9590    4.8340   -0.3760 C   0  0  0  0  0  0  0  0  0  0  0  0
    0.2640    3.6210   -0.4580 O   0  0  0  0  0  0  0  0  0  0  0  0
   -0.4340    3.0040    0.5370 C   0  0  0  0  0  0  0  0  0  0  0  0
   -0.4360    3.6250    1.6670 O   0  0  0  0  0  0  0  0  0  0  0  0
   -1.1540    1.7690    0.4500 C   0  0  2  0  0  0  0  0  0  0  0  0
   -1.5180    1.0980    1.7290 C   0  0  0  0  0  0  0  0  0  0  0  0
   -1.4410    1.6040    2.8450 O   0  0  0  0  0  0  0  0  0  0  0  0
   -1.9740   -0.2120    1.5540 O   0  0  0  0  0  0  0  0  0  0  0  0
   -2.6270   -0.5230    0.3390 C   0  0  2  0  0  0  0  0  0  0  0  0
   -4.0330    0.0240    0.4120 C   0  0  0  0  0  0  0  0  0  0  0  0
   -4.8090   -1.0720    0.8070 O   0  0  0  0  0  0  0  0  0  0  0  0
   -4.2830   -2.1390    0.1820 N   0  0  0  0  0  0  0  0  0  0  0  0
   -5.0230   -3.1310   -0.3580 O   0  0  0  0  0  0  0  0  0  0  0  0
   -6.6320   -3.1170    0.3290 P   0  0  0  0  0  0  0  0  0  0  0  0
   -7.5410   -4.4390   -0.3340 O   0  0  0  0  0  0  0  0  0  0  0  0
   -6.5440   -3.1910    2.0600 O   0  0  0  0  0  0  0  0  0  0  0  0
   -2.8760   -1.9850    0.2220 C   0  0  0  0  0  0  0  0  0  0  0  0
   -2.0400   -2.9090    0.1670 O   0  0  0  0  0  0  0  0  0  0  0  0
   -1.8790   -0.1030   -0.9100 C   0  0  0  0  0  0  0  0  0  0  0  0
   -0.7130    0.7020   -0.4000 N   0  0  0  0  0  0  0  0  0  0  0  0
    0.5610    0.2880   -0.7770 C   0  0  0  0  0  0  0  0  0  0  0  0
    0.5940   -0.6520   -1.6690 O   0  0  0  0  0  0  0  0  0  0  0  0
    1.8580    0.7450   -0.3030 C   0  0  0  0  0  0  0  0  0  0  0  0
    3.0020    0.0820   -0.9140 N   0  0  0  0  0  0  0  0  0  0  0  0
    4.2920    0.1980   -0.2810 C   0  0  0  0  0  0  0  0  0  0  0  0
    5.4000    0.1540   -0.9160 N   0  0  0  0  0  0  0  0  0  0  0  0
    4.3600    0.3660    1.1430 N   0  0  0  0  0  0  0  0  0  0  0  0
    5.4660   -0.6480    2.1220 P   0  0  0  0  0  0  0  0  0  0  0  0
    4.7770   -2.1990    2.4760 O   0  0  0  0  0  0  0  0  0  0  0  0
    7.0190   -0.8470    1.4240 O   0  0  0  0  0  0  0  0  0  0  0  0
    2.8420   -0.8170   -2.4390 P   0  0  0  0  0  0  0  0  0  0  0  0
    3.4330   -2.4360   -2.2510 O   0  0  0  0  0  0  0  0  0  0  0  0
    3.7810   -0.0710   -3.7160 O   0  0  0  0  0  0  0  0  0  0  0  0
  1  2  1  0
  2  3  1  0
  3  4  2  0
  5  3  1  1
  5  6  1  0
  5 20  1  0
  6  7  2  0
  6  8  1  0
  8  9  1  0
  9 10  1  1
  9 17  1  0
  9 19  1  0
 10 11  1  0
 11 12  1  0
 12 13  1  0
 12 17  1  0
 13 14  1  0
 14 15  1  0
 14 16  1  0
 17 18  2  0
 19 20  1  0
 20 21  1  0
 21 22  2  0
 21 23  1  0
 23 24  1  0
 24 25  1  0
 24 31  1  0
 25 26  2  0
 25 27  1  0
 27 28  1  0
 28 29  1  0
 28 30  1  0
 31 32  1  0
 31 33  1  0
M  END
