
     RDKit          3D

 33 33  0  0  0  0  0  0  0  0999 V2000
   -3.8690   -2.7360    2.7340 N   0  0  0  0  0  0  0  0  0  0  0  0
   -2.6670   -2.4030    2.1020 N   0  0  0  0  0  0  0  0  0  0  0  0
   -2.7660   -1.6770    0.8780 C   0  0  0  0  0  0  0  0  0  0  0  0
   -3.8670   -1.3560    0.3950 O   0  0  0  0  0  0  0  0  0  0  0  0
   -1.6280   -1.3270    0.2200 O   0  0  0  0  0  0  0  0  0  0  0  0
   -1.4750   -0.6330   -0.9760 C   0  0  1  0  0  0  0  0  0  0  0  0
   -2.0790   -1.2870   -2.1890 C   0  0  0  0  0  0  0  0  0  0  0  0
   -3.4330   -1.4780   -2.1240 O   0  0  0  0  0  0  0  0  0  0  0  0
   -4.0190   -2.2290   -3.5560 P   0  0  0  0  0  0  0  0  0  0  0  0
   -3.1060   -3.0010   -4.5450 O   0  0  0  0  0  0  0  0  0  0  0  0
   -2.0420    0.6510   -0.8930 O   0  0  0  0  0  0  0  0  0  0  0  0
   -1.5600    1.2930    0.2470 C   0  0  2  0  0  0  0  0  0  0  0  0
   -2.5760    2.8020    0.5310 P   0  0  0  0  0  0  0  0  0  0  0  0
   -2.3630    3.9910   -0.6950 O   0  0  0  0  0  0  0  0  0  0  0  0
   -2.3790    3.4380    2.1170 O   0  0  0  0  0  0  0  0  0  0  0  0
   -2.5680    5.1530    2.1630 P   0  0  0  0  0  0  0  0  0  0  0  0
   -2.4850    5.8700    3.5310 O   0  0  0  0  0  0  0  0  0  0  0  0
   -0.1290    1.6550    0.0460 C   0  0  0  0  0  0  0  0  0  0  0  0
    0.6650    0.5430   -0.4490 N   0  0  0  0  0  0  0  0  0  0  0  0
    2.0450    0.5520   -0.1530 C   0  0  1  0  0  0  0  0  0  0  0  0
    2.6170   -0.6280    0.5470 C   0  0  0  0  0  0  0  0  0  0  0  0
    1.9730   -0.8570    1.8860 C   0  0  0  0  0  0  0  0  0  0  0  0
    1.0580   -0.1170    2.3300 O   0  0  0  0  0  0  0  0  0  0  0  0
    2.3700   -1.9330    2.7260 N   0  0  0  0  0  0  0  0  0  0  0  0
    1.8140   -2.1740    3.9380 O   0  0  0  0  0  0  0  0  0  0  0  0
    2.7930    0.7410   -1.4410 C   0  0  0  0  0  0  0  0  0  0  0  0
    2.2260    0.8490   -2.5570 O   0  0  0  0  0  0  0  0  0  0  0  0
    4.2080    0.8030   -1.4070 N   0  0  0  0  0  0  0  0  0  0  0  0
    4.9790    0.9810   -2.6020 C   0  0  0  0  0  0  0  0  0  0  0  0
    4.3620    1.0820   -3.6910 O   0  0  0  0  0  0  0  0  0  0  0  0
    6.3610    1.0470   -2.6150 O   0  0  0  0  0  0  0  0  0  0  0  0
   -0.0160   -0.4420   -1.1850 C   0  0  0  0  0  0  0  0  0  0  0  0
    0.5960   -1.1380   -1.9920 O   0  0  0  0  0  0  0  0  0  0  0  0
  1  2  1  0
  2  3  1  0
  3  4  2  0
  3  5  1  0
  5  6  1  0
  6  7  1  6
  6 11  1  0
  6 32  1  0
  7  8  1  0
  8  9  1  0
  9 10  2  0
 11 12  1  0
 12 13  1  6
 12 18  1  0
 13 14  1  0
 13 15  1  0
 15 16  1  0
 16 17  2  0
 18 19  1  0
 19 20  1  0
 19 32  1  0
 20 21  1  6
 20 26  1  0
 21 22  1  0
 22 23  2  0
 22 24  1  0
 24 25  1  0
 26 27  2  0
 26 28  1  0
 28 29  1  0
 29 30  2  0
 29 31  1  0
 32 33  2  0
M  END
