
     RDKit          3D

 32 33  0  0  0  0  0  0  0  0999 V2000
    6.2500   -3.4760   -0.0720 O   0  0  0  0  0  0  0  0  0  0  0  0
    7.3080   -2.4810   -0.6050 P   0  0  0  0  0  0  0  0  0  0  0  0
    7.1360   -0.7210   -0.1310 N   0  0  0  0  0  0  0  0  0  0  0  0
    5.9080   -0.1070   -0.4980 C   0  0  0  0  0  0  0  0  0  0  0  0
    5.6290    1.1200   -0.9530 N   0  0  0  0  0  0  0  0  0  0  0  0
    4.3080    1.2410   -1.1540 N   0  0  0  0  0  0  0  0  0  0  0  0
    3.7030    0.0910   -0.8320 C   0  0  0  0  0  0  0  0  0  0  0  0
    2.3080   -0.2850   -0.9280 N   0  0  0  0  0  0  0  0  0  0  0  0
    1.8650   -1.4900   -0.2610 C   0  0  0  0  0  0  0  0  0  0  0  0
    1.4530   -1.1130    1.1770 C   0  0  0  0  0  0  0  0  0  0  0  0
    0.3390   -0.1890    1.0820 O   0  0  0  0  0  0  0  0  0  0  0  0
   -0.8360   -0.7900    0.6490 C   0  0  0  0  0  0  0  0  0  0  0  0
   -0.9320   -2.0180    0.3840 O   0  0  0  0  0  0  0  0  0  0  0  0
   -1.9910   -0.0340    0.4940 O   0  0  0  0  0  0  0  0  0  0  0  0
   -3.2010   -0.6810    0.0890 C   0  0  2  0  0  0  0  0  0  0  0  0
   -3.7170   -0.0700   -1.1660 C   0  0  0  0  0  0  0  0  0  0  0  0
   -5.1020    0.0110   -0.9450 O   0  0  0  0  0  0  0  0  0  0  0  0
   -5.2830    0.0480    0.4310 C   0  0  2  0  0  0  0  0  0  0  0  0
   -6.4390   -0.8040    0.8300 C   0  0  0  0  0  0  0  0  0  0  0  0
   -6.6570   -0.7980    2.1990 O   0  0  0  0  0  0  0  0  0  0  0  0
   -5.4870    1.5120    0.7920 C   0  0  0  0  0  0  0  0  0  0  0  0
   -6.7080    1.9680    0.0540 C   0  0  0  0  0  0  0  0  0  0  0  0
   -7.8620    1.7670    0.5610 O   0  0  0  0  0  0  0  0  0  0  0  0
   -6.5890    2.5980   -1.1630 O   0  0  0  0  0  0  0  0  0  0  0  0
   -4.1430   -0.4330    1.0490 O   0  0  0  0  0  0  0  0  0  0  0  0
    1.1690    0.7230   -1.8190 P   0  0  0  0  0  0  0  0  0  0  0  0
    0.8960    2.1890   -0.8740 O   0  0  0  0  0  0  0  0  0  0  0  0
    1.9380    1.2760   -3.2870 O   0  0  0  0  0  0  0  0  0  0  0  0
    4.6900   -0.7420   -0.4260 N   0  0  0  0  0  0  0  0  0  0  0  0
    8.4810   -0.0090    0.7520 P   0  0  0  0  0  0  0  0  0  0  0  0
    8.4330    1.6570    1.0260 O   0  0  0  0  0  0  0  0  0  0  0  0
    8.9030   -0.9600    2.1590 O   0  0  0  0  0  0  0  0  0  0  0  0
  1  2  2  0
  2  3  1  0
  3  4  1  0
  3 30  1  0
  4  5  2  0
  4 29  1  0
  5  6  1  0
  6  7  2  0
  7  8  1  0
  7 29  1  0
  8  9  1  0
  8 26  1  0
  9 10  1  0
 10 11  1  0
 11 12  1  0
 12 13  2  0
 12 14  1  0
 15 14  1  1
 15 16  1  0
 15 25  1  0
 16 17  1  0
 17 18  1  0
 18 19  1  6
 18 21  1  0
 18 25  1  0
 19 20  1  0
 21 22  1  0
 22 23  2  0
 22 24  1  0
 26 27  1  0
 26 28  1  0
 30 31  1  0
 30 32  1  0
M  END
