
     RDKit          3D

 18 19  0  0  0  0  0  0  0  0999 V2000
   -3.2670    1.3760   -0.4200 C   0  0  0  0  0  0  0  0  0  0  0  0
   -2.7740   -0.0100    0.0690 C   0  0  2  0  0  0  0  0  0  0  0  0
   -3.2110   -0.0910    1.5340 C   0  0  0  0  0  0  0  0  0  0  0  0
   -1.3080   -0.0720   -0.0500 C   0  0  0  0  0  0  0  0  0  0  0  0
   -0.5640    1.0580    0.2130 C   0  0  0  0  0  0  0  0  0  0  0  0
    0.8090    1.0240    0.1570 C   0  0  0  0  0  0  0  0  0  0  0  0
    1.5310    2.1890    0.4650 C   0  0  0  0  0  0  0  0  0  0  0  0
    2.8870    2.1830    0.4430 C   0  0  0  0  0  0  0  0  0  0  0  0
    3.5970    3.3590    0.7630 O   0  0  0  0  0  0  0  0  0  0  0  0
    3.5610    1.0430    0.1200 C   0  0  0  0  0  0  0  0  0  0  0  0
    2.8960   -0.1190   -0.1820 C   0  0  0  0  0  0  0  0  0  0  0  0
    1.5010   -0.1440   -0.1670 C   0  0  0  0  0  0  0  0  0  0  0  0
    0.7440   -1.2520   -0.4290 C   0  0  0  0  0  0  0  0  0  0  0  0
    1.4090   -2.4710   -0.9080 C   0  0  0  0  0  0  0  0  0  0  0  0
    2.6500   -2.5480   -1.1140 N   0  0  0  0  0  0  0  0  0  0  0  0
    0.6570   -3.6430   -1.1630 O   0  0  0  0  0  0  0  0  0  0  0  0
   -0.6520   -1.2530   -0.3760 C   0  0  0  0  0  0  0  0  0  0  0  0
   -1.4640   -2.3300   -0.6250 O   0  0  0  0  0  0  0  0  0  0  0  0
  2  1  1  1
  2  3  1  0
  2  4  1  0
  4  5  2  0
  4 17  1  0
  5  6  1  0
  6  7  2  0
  6 12  1  0
  7  8  1  0
  8  9  1  0
  8 10  2  0
 10 11  1  0
 11 12  2  0
 12 13  1  0
 13 14  1  0
 13 17  2  0
 14 15  2  0
 14 16  1  0
 17 18  1  0
M  END
