
     RDKit          3D

 18 19  0  0  0  0  0  0  0  0999 V2000
   -4.2450   -1.3960   -1.0070 C   0  0  0  0  0  0  0  0  0  0  0  0
   -3.4680   -0.2950   -0.3870 C   0  0  0  0  0  0  0  0  0  0  0  0
   -4.0500    0.8380    0.1110 C   0  0  0  0  0  0  0  0  0  0  0  0
   -3.3090    1.8390    0.6780 C   0  0  0  0  0  0  0  0  0  0  0  0
   -1.9430    1.6820    0.7390 C   0  0  0  0  0  0  0  0  0  0  0  0
   -1.2810    0.5560    0.2520 C   0  0  0  0  0  0  0  0  0  0  0  0
    0.1640    0.5130    0.3770 C   0  0  0  0  0  0  0  0  0  0  0  0
    0.8150    1.6250    0.9830 O   0  0  0  0  0  0  0  0  0  0  0  0
    0.9610   -0.4290   -0.0020 C   0  0  0  0  0  0  0  0  0  0  0  0
    2.4090   -0.3390    0.1890 C   0  0  0  0  0  0  0  0  0  0  0  0
    3.2720   -0.7510   -0.8370 C   0  0  0  0  0  0  0  0  0  0  0  0
    4.6350   -0.6890   -0.6790 C   0  0  0  0  0  0  0  0  0  0  0  0
    5.1860   -0.2220    0.4870 C   0  0  0  0  0  0  0  0  0  0  0  0
    4.3350    0.1790    1.4880 C   0  0  0  0  0  0  0  0  0  0  0  0
    4.7890    0.6150    2.5780 O   0  0  0  0  0  0  0  0  0  0  0  0
    2.9970    0.1080    1.3090 N   0  0  0  0  0  0  0  0  0  0  0  0
   -2.0720   -0.4170   -0.3060 C   0  0  0  0  0  0  0  0  0  0  0  0
   -1.4920   -1.5530   -0.8050 O   0  0  0  0  0  0  0  0  0  0  0  0
  1  2  1  0
  2  3  2  0
  2 17  1  0
  3  4  1  0
  4  5  2  0
  5  6  1  0
  6  7  1  0
  6 17  2  0
  7  8  1  0
  7  9  2  3
  9 10  1  0
 10 11  2  0
 10 16  1  0
 11 12  1  0
 12 13  2  0
 13 14  1  0
 14 15  2  0
 14 16  1  0
 17 18  1  0
M  END
