
     RDKit          3D

 17 18  0  0  0  0  0  0  0  0999 V2000
   -1.6460   -2.3590   -0.4120 C   0  0  0  0  0  0  0  0  0  0  0  0
   -1.8160   -0.8480   -0.1140 C   0  0  0  0  0  0  0  0  0  0  0  0
   -3.0240   -0.4540    0.0500 C   0  0  0  0  0  0  0  0  0  0  0  0
   -3.6240    0.8430    0.3260 C   0  0  0  0  0  0  0  0  0  0  0  0
   -4.3160    0.8220    1.5230 O   0  0  0  0  0  0  0  0  0  0  0  0
   -0.5690   -0.1640    0.0920 C   0  0  0  0  0  0  0  0  0  0  0  0
    0.5320   -0.5730   -0.6900 C   0  0  0  0  0  0  0  0  0  0  0  0
    0.3170   -1.5240   -1.6630 O   0  0  0  0  0  0  0  0  0  0  0  0
    1.7550   -0.0130   -0.4530 C   0  0  0  0  0  0  0  0  0  0  0  0
    2.8740   -0.3870   -1.2040 C   0  0  0  0  0  0  0  0  0  0  0  0
    4.1090    0.1740   -0.9700 C   0  0  0  0  0  0  0  0  0  0  0  0
    4.2100    1.1170    0.0250 C   0  0  0  0  0  0  0  0  0  0  0  0
    3.1190    1.4930    0.7690 C   0  0  0  0  0  0  0  0  0  0  0  0
    1.8660    0.9290    0.5380 C   0  0  0  0  0  0  0  0  0  0  0  0
    0.8380    1.3250    1.2860 N   0  0  0  0  0  0  0  0  0  0  0  0
   -0.3940    0.7810    1.0720 C   0  0  0  0  0  0  0  0  0  0  0  0
   -1.3410    1.1900    1.8250 O   0  0  0  0  0  0  0  0  0  0  0  0
  1  2  1  0
  2  3  2  3
  2  6  1  0
  3  4  1  0
  4  5  1  0
  6  7  2  0
  6 16  1  0
  7  8  1  0
  7  9  1  0
  9 10  2  0
  9 14  1  0
 10 11  1  0
 11 12  2  0
 12 13  1  0
 13 14  2  0
 14 15  1  0
 15 16  1  0
 16 17  2  0
M  END
