
     RDKit          3D

 18 19  0  0  0  0  0  0  0  0999 V2000
   -3.3660    2.0400   -0.1790 C   0  0  0  0  0  0  0  0  0  0  0  0
   -2.7340    0.9400   -0.9530 C   0  0  0  0  0  0  0  0  0  0  0  0
   -1.7010    0.1680   -0.2370 C   0  0  0  0  0  0  0  0  0  0  0  0
   -0.3640    0.3810   -0.4790 N   0  0  0  0  0  0  0  0  0  0  0  0
    0.6050   -0.2960    0.1500 C   0  0  0  0  0  0  0  0  0  0  0  0
    2.0280   -0.0540   -0.1270 C   0  0  0  0  0  0  0  0  0  0  0  0
    2.4600    0.8820   -1.0510 C   0  0  0  0  0  0  0  0  0  0  0  0
    3.8280    1.0850   -1.2920 C   0  0  0  0  0  0  0  0  0  0  0  0
    4.7770    0.3710   -0.6300 C   0  0  0  0  0  0  0  0  0  0  0  0
    6.1430    0.5470   -0.8470 O   0  0  0  0  0  0  0  0  0  0  0  0
    4.3780   -0.5690    0.2950 C   0  0  0  0  0  0  0  0  0  0  0  0
    3.0300   -0.7450    0.5100 C   0  0  0  0  0  0  0  0  0  0  0  0
    0.2010   -1.2380    1.0720 C   0  0  0  0  0  0  0  0  0  0  0  0
   -1.1370   -1.4780    1.3400 C   0  0  0  0  0  0  0  0  0  0  0  0
   -1.4980   -2.3450    2.1890 O   0  0  0  0  0  0  0  0  0  0  0  0
   -2.0850   -0.7710    0.6820 C   0  0  0  0  0  0  0  0  0  0  0  0
   -3.5160   -1.0280    0.9690 C   0  0  0  0  0  0  0  0  0  0  0  0
   -3.6610   -2.0280    1.9290 O   0  0  0  0  0  0  0  0  0  0  0  0
  1  2  1  0
  2  3  1  0
  3  4  1  0
  3 16  2  0
  4  5  1  0
  5  6  1  0
  5 13  2  0
  6  7  2  0
  6 12  1  0
  7  8  1  0
  8  9  2  0
  9 10  1  0
  9 11  1  0
 11 12  2  0
 13 14  1  0
 14 15  2  0
 14 16  1  0
 16 17  1  0
 17 18  1  0
M  END
