
     RDKit          3D

 17 18  0  0  0  0  0  0  0  0999 V2000
   -5.5800    0.6020   -0.3740 C   0  0  0  0  0  0  0  0  0  0  0  0
   -4.8030   -0.5250   -0.5090 O   0  0  0  0  0  0  0  0  0  0  0  0
   -3.4710   -0.2120   -0.6890 C   0  0  0  0  0  0  0  0  0  0  0  0
   -2.9350    0.5390    0.4770 C   0  0  0  0  0  0  0  0  0  0  0  0
   -1.6040    0.8740    0.3760 O   0  0  0  0  0  0  0  0  0  0  0  0
   -0.4590    0.1560    0.3130 C   0  0  0  0  0  0  0  0  0  0  0  0
   -0.4580   -1.2130    0.3860 C   0  0  0  0  0  0  0  0  0  0  0  0
    0.7520   -1.8740    0.3090 C   0  0  0  0  0  0  0  0  0  0  0  0
    1.9450   -1.2140    0.1650 C   0  0  0  0  0  0  0  0  0  0  0  0
    3.1590   -1.8670    0.0880 C   0  0  0  0  0  0  0  0  0  0  0  0
    4.3740   -1.2340   -0.0570 C   0  0  0  0  0  0  0  0  0  0  0  0
    4.3490    0.1420   -0.1270 C   0  0  0  0  0  0  0  0  0  0  0  0
    5.5800    0.8630   -0.2780 N   0  0  0  0  0  0  0  0  0  0  0  0
    3.1730    0.8550   -0.0570 C   0  0  0  0  0  0  0  0  0  0  0  0
    1.9670    0.1610    0.0900 C   0  0  0  0  0  0  0  0  0  0  0  0
    0.7690    0.8250    0.1650 C   0  0  0  0  0  0  0  0  0  0  0  0
    0.7570    2.1950    0.0940 O   0  0  0  0  0  0  0  0  0  0  0  0
  1  2  1  0
  2  3  1  0
  3  4  1  0
  4  5  1  0
  5  6  1  0
  6  7  2  0
  6 16  1  0
  7  8  1  0
  8  9  2  0
  9 10  1  0
  9 15  1  0
 10 11  2  0
 11 12  1  0
 12 13  1  0
 12 14  2  0
 14 15  1  0
 15 16  2  0
 16 17  1  0
M  END
