
     RDKit          3D

 18 19  0  0  0  0  0  0  0  0999 V2000
   -1.6280   -0.0050   -1.5360 C   0  0  0  0  0  0  0  0  0  0  0  0
   -1.5260   -0.6440   -0.2020 C   0  0  0  0  0  0  0  0  0  0  0  0
   -2.5340   -1.5210    0.1960 C   0  0  0  0  0  0  0  0  0  0  0  0
   -2.4650   -2.1420    1.4410 C   0  0  0  0  0  0  0  0  0  0  0  0
   -3.4920   -3.0150    1.8050 O   0  0  0  0  0  0  0  0  0  0  0  0
   -1.3870   -1.8590    2.2370 C   0  0  0  0  0  0  0  0  0  0  0  0
   -0.4010   -0.9850    1.8190 C   0  0  0  0  0  0  0  0  0  0  0  0
   -0.4540   -0.3650    0.5960 C   0  0  0  0  0  0  0  0  0  0  0  0
    0.5840    0.5290    0.1400 C   0  0  0  0  0  0  0  0  0  0  0  0
    0.8460    1.7560    0.6460 C   0  0  0  0  0  0  0  0  0  0  0  0
    1.8660    2.5970    0.2070 C   0  0  0  0  0  0  0  0  0  0  0  0
    2.0970    3.8730    0.7820 C   0  0  0  0  0  0  0  0  0  0  0  0
    2.3000    4.9410    1.2790 N   0  0  0  0  0  0  0  0  0  0  0  0
    2.6270    2.0810   -0.8230 C   0  0  0  0  0  0  0  0  0  0  0  0
    2.4090    0.8410   -1.3810 C   0  0  0  0  0  0  0  0  0  0  0  0
    3.1850    0.3450   -2.4110 O   0  0  0  0  0  0  0  0  0  0  0  0
    1.3830    0.0430   -0.9080 C   0  0  0  0  0  0  0  0  0  0  0  0
    1.1360   -1.1860   -1.4370 O   0  0  0  0  0  0  0  0  0  0  0  0
  1  2  1  0
  2  3  2  0
  2  8  1  0
  3  4  1  0
  4  5  1  0
  4  6  2  0
  6  7  1  0
  7  8  2  0
  8  9  1  0
  9 10  2  0
  9 17  1  0
 10 11  1  0
 11 12  1  0
 11 14  2  0
 12 13  3  0
 14 15  1  0
 15 16  1  0
 15 17  2  0
 17 18  1  0
M  END
