
     RDKit          3D

 12 12  0  0  0  0  0  0  0  0999 V2000
   -0.0670   -2.4770    0.0470 O   0  0  0  0  0  0  0  0  0  0  0  0
   -0.5470   -1.1810   -0.0210 C   0  0  0  0  0  0  0  0  0  0  0  0
   -1.8560   -0.8820    0.2970 C   0  0  0  0  0  0  0  0  0  0  0  0
   -2.2710    0.4300    0.2080 C   0  0  0  0  0  0  0  0  0  0  0  0
   -1.4390    1.4500   -0.1830 C   0  0  0  0  0  0  0  0  0  0  0  0
   -1.9680    3.1090   -0.2950 Cl  0  0  0  0  0  0  0  0  0  0  0  0
   -0.1370    1.1330   -0.4970 C   0  0  0  0  0  0  0  0  0  0  0  0
    0.7650    2.0980   -0.8990 O   0  0  0  0  0  0  0  0  0  0  0  0
    0.3360   -0.1750   -0.4240 C   0  0  0  0  0  0  0  0  0  0  0  0
    1.6500   -0.4830   -0.7430 O   0  0  0  0  0  0  0  0  0  0  0  0
    2.5840   -0.4320    0.3370 C   0  0  0  0  0  0  0  0  0  0  0  0
    4.2100   -0.8490   -0.2260 Cl  0  0  0  0  0  0  0  0  0  0  0  0
  1  2  1  0
  2  3  2  0
  2  9  1  0
  3  4  1  0
  4  5  2  0
  5  6  1  0
  5  7  1  0
  7  8  1  0
  7  9  2  0
  9 10  1  0
 10 11  1  0
 11 12  1  0
M  END
