
     RDKit          3D

 11 10  0  0  0  0  0  0  0  0999 V2000
    4.5690    0.3380    0.3420 C   0  0  0  0  0  0  0  0  0  0  0  0
    3.2350    0.3530    0.8090 O   0  0  0  0  0  0  0  0  0  0  0  0
    2.1450    0.1160   -0.0050 C   0  0  0  0  0  0  0  0  0  0  0  0
    2.3460   -0.1230   -1.2140 O   0  0  0  0  0  0  0  0  0  0  0  0
    0.7960    0.1370    0.5000 C   0  0  0  0  0  0  0  0  0  0  0  0
   -0.2140   -0.0940   -0.3120 C   0  0  0  0  0  0  0  0  0  0  0  0
   -1.5900   -0.0820    0.1540 C   0  0  0  0  0  0  0  0  0  0  0  0
   -1.8440    0.1770    1.4790 O   0  0  0  0  0  0  0  0  0  0  0  0
   -2.5840   -0.3140   -0.6670 C   0  0  0  0  0  0  0  0  0  0  0  0
   -3.9850   -0.3090   -0.2220 C   0  0  0  0  0  0  0  0  0  0  0  0
   -4.7750   -1.8890   -0.5030 Cl  0  0  0  0  0  0  0  0  0  0  0  0
  1  2  1  0
  2  3  1  0
  3  4  2  0
  3  5  1  0
  5  6  2  3
  6  7  1  0
  7  8  1  0
  7  9  2  3
  9 10  1  0
 10 11  1  0
M  END
