
     RDKit          3D

 12 12  0  0  0  0  0  0  0  0999 V2000
   -3.3020    0.6090   -0.2580 O   0  0  0  0  0  0  0  0  0  0  0  0
   -1.9530    0.3100   -0.1290 C   0  0  0  0  0  0  0  0  0  0  0  0
   -0.9880    1.2130   -0.5610 C   0  0  0  0  0  0  0  0  0  0  0  0
    0.3550    0.8850   -0.4180 C   0  0  0  0  0  0  0  0  0  0  0  0
    0.7600   -0.3090    0.1400 C   0  0  0  0  0  0  0  0  0  0  0  0
    2.0640   -0.6850    0.3060 O   0  0  0  0  0  0  0  0  0  0  0  0
    3.2040    0.0340   -0.0420 C   0  0  1  0  0  0  0  0  0  0  0  0
    4.1870    0.2170    1.4520 Cl  0  0  0  0  0  0  0  0  0  0  0  0
    4.1820   -0.9330   -1.2010 Cl  0  0  0  0  0  0  0  0  0  0  0  0
   -0.2280   -1.1740    0.5550 C   0  0  0  0  0  0  0  0  0  0  0  0
   -1.5730   -0.8950    0.4350 C   0  0  0  0  0  0  0  0  0  0  0  0
   -2.5340   -1.8240    0.8800 O   0  0  0  0  0  0  0  0  0  0  0  0
  1  2  1  0
  2  3  2  0
  2 11  1  0
  3  4  1  0
  4  5  2  0
  5  6  1  0
  5 10  1  0
  6  7  1  0
  7  8  1  1
  7  9  1  0
 10 11  2  0
 11 12  1  0
M  END
