
     RDKit          3D

 12 12  0  0  0  0  0  0  0  0999 V2000
   -1.9200    2.4510   -0.1360 O   0  0  0  0  0  0  0  0  0  0  0  0
   -1.9620    1.1990   -0.0210 C   0  0  0  0  0  0  0  0  0  0  0  0
   -0.7360    0.4270   -0.0060 C   0  0  0  0  0  0  0  0  0  0  0  0
   -0.7960   -0.9550    0.1210 C   0  0  0  0  0  0  0  0  0  0  0  0
   -2.0520   -1.5320    0.2290 O   0  0  0  0  0  0  0  0  0  0  0  0
    0.3710   -1.6890    0.1360 C   0  0  0  0  0  0  0  0  0  0  0  0
    1.6100   -1.0930    0.0270 C   0  0  0  0  0  0  0  0  0  0  0  0
    3.0920   -2.0270    0.0460 Cl  0  0  0  0  0  0  0  0  0  0  0  0
    1.6400    0.2810   -0.0980 C   0  0  0  0  0  0  0  0  0  0  0  0
    3.1980    1.0850   -0.2390 Cl  0  0  0  0  0  0  0  0  0  0  0  0
    0.4940    1.0440   -0.1160 C   0  0  0  0  0  0  0  0  0  0  0  0
    0.5340    2.4400   -0.2430 O   0  0  0  0  0  0  0  0  0  0  0  0
  1  2  2  0
  2  3  1  0
  3  4  2  0
  3 11  1  0
  4  5  1  0
  4  6  1  0
  6  7  2  0
  7  8  1  0
  7  9  1  0
  9 10  1  0
  9 11  2  0
 11 12  1  0
M  END
