
     RDKit          3D

 10 10  0  0  0  0  0  0  0  0999 V2000
    2.9740    0.0310    0.3180 N   0  0  0  0  0  0  0  0  0  0  0  0
    1.9070   -0.8750   -0.0480 C   0  0  0  0  0  0  0  0  0  0  0  0
    0.7580   -0.0600   -0.5900 C   0  0  2  0  0  0  0  0  0  0  0  0
    0.3420    1.0350    0.3620 C   0  0  0  0  0  0  0  0  0  0  0  0
   -0.6360    1.7760   -0.2190 O   0  0  0  0  0  0  0  0  0  0  0  0
   -1.8970    1.3090   -0.1780 C   0  0  0  0  0  0  0  0  0  0  0  0
   -2.1410   -0.0250    0.3880 C   0  0  1  0  0  0  0  0  0  0  0  0
   -3.3720   -0.4930   -0.1310 O   0  0  0  0  0  0  0  0  0  0  0  0
   -1.1140   -1.0630    0.1300 C   0  0  0  0  0  0  0  0  0  0  0  0
   -0.3190   -0.8430   -0.9710 O   0  0  0  0  0  0  0  0  0  0  0  0
  1  2  1  0
  3  2  1  1
  3  4  1  0
  3 10  1  0
  4  5  1  0
  5  6  1  0
  6  7  1  0
  7  8  1  6
  7  9  1  0
  9 10  1  0
M  CHG  1   1   1
M  END
