
     RDKit          3D

 10 10  0  0  0  0  0  0  0  0999 V2000
   -2.5010   -0.9000   -0.1970 N   0  0  0  0  0  0  0  0  0  0  0  0
   -1.4320    0.0190   -0.5250 C   0  0  1  0  0  0  0  0  0  0  0  0
   -1.3980    1.1520    0.4830 C   0  0  0  0  0  0  0  0  0  0  0  0
   -0.3710    1.9950    0.1230 O   0  0  0  0  0  0  0  0  0  0  0  0
    0.8850    1.4540    0.2750 C   0  0  0  0  0  0  0  0  0  0  0  0
    1.0700    0.1350   -0.4280 C   0  0  1  0  0  0  0  0  0  0  0  0
    1.4430    0.3160   -1.7670 O   0  0  0  0  0  0  0  0  0  0  0  0
    2.2150   -0.6010    0.2530 C   0  0  0  0  0  0  0  0  0  0  0  0
    1.8770   -0.7990    1.5900 O   0  0  0  0  0  0  0  0  0  0  0  0
   -0.1300   -0.7440   -0.3760 C   0  0  0  0  0  0  0  0  0  0  0  0
  2  1  1  1
  2  3  1  0
  2 10  1  0
  3  4  1  0
  4  5  1  0
  5  6  1  0
  6  7  1  6
  6  8  1  0
  6 10  1  0
  8  9  1  0
M  CHG  1   1   1
M  END
