
     RDKit          3D

 10 10  0  0  0  0  0  0  0  0999 V2000
   -3.1490    0.0860   -0.0890 C   0  0  0  0  0  0  0  0  0  0  0  0
   -1.8120   -0.4170    0.1440 N   0  0  0  0  0  0  0  0  0  0  0  0
   -0.7910    0.5450   -0.2080 C   0  0  0  0  0  0  0  0  0  0  0  0
    0.5160    0.0360    0.3470 C   0  0  1  0  0  0  0  0  0  0  0  0
    0.4330   -0.0900    1.7260 O   0  0  0  0  0  0  0  0  0  0  0  0
    0.9410   -1.2520   -0.3270 C   0  0  0  0  0  0  0  0  0  0  0  0
    2.2240   -1.0790   -0.7770 O   0  0  0  0  0  0  0  0  0  0  0  0
    2.8100   -0.0920    0.0230 C   0  0  0  0  0  0  0  0  0  0  0  0
    1.6780    0.9480    0.0190 C   0  0  1  0  0  0  0  0  0  0  0  0
    1.6180    1.4460   -1.2720 O   0  0  0  0  0  0  0  0  0  0  0  0
  1  2  1  0
  2  3  1  0
  3  4  1  0
  4  5  1  1
  4  6  1  0
  4  9  1  0
  6  7  1  0
  7  8  1  0
  8  9  1  0
  9 10  1  6
M  CHG  1   2   1
M  END
