
     RDKit          3D

 38 41  0  0  0  0  0  0  0  0999 V2000
   -4.0500   -0.4110    4.0330 C   0  0  0  0  0  0  0  0  0  0  0  0
   -3.5240    0.3220    2.7940 C   0  0  2  0  0  0  0  0  0  0  0  0
   -4.6170    0.5220    1.7820 C   0  0  0  0  0  0  0  0  0  0  0  0
   -2.3330   -0.4420    2.2900 C   0  0  0  0  0  0  0  0  0  0  0  0
   -1.7040    0.0720    1.1320 N   0  0  0  0  0  0  0  0  0  0  0  0
   -0.3380    0.4690    1.2720 C   0  0  0  0  0  0  0  0  0  0  0  0
   -0.0470    1.7680    0.5110 C   0  0  1  0  0  0  0  0  0  0  0  0
   -0.8690    2.7280    1.0390 O   0  0  0  0  0  0  0  0  0  0  0  0
    1.4290    2.0860    0.6440 C   0  0  2  0  0  0  0  0  0  0  0  0
    1.7010    3.4330    0.1210 C   0  0  0  0  0  0  0  0  0  0  0  0
    1.3780    3.6590   -1.3060 C   0  0  0  0  0  0  0  0  0  0  0  0
    0.1820    4.1300   -1.7950 C   0  0  0  0  0  0  0  0  0  0  0  0
   -0.0690    4.3180   -3.1360 C   0  0  0  0  0  0  0  0  0  0  0  0
    0.9120    4.0260   -4.0350 C   0  0  0  0  0  0  0  0  0  0  0  0
    2.1510    3.5450   -3.6070 C   0  0  0  0  0  0  0  0  0  0  0  0
    2.3510    3.3760   -2.2720 C   0  0  0  0  0  0  0  0  0  0  0  0
    2.1320    0.9880    0.0670 N   0  0  0  0  0  0  0  0  0  0  0  0
    2.9260    0.1020    0.7980 C   0  0  0  0  0  0  0  0  0  0  0  0
    2.9920    0.3280    2.0270 O   0  0  0  0  0  0  0  0  0  0  0  0
    3.6040   -0.9570    0.2410 O   0  0  0  0  0  0  0  0  0  0  0  0
    4.3770   -1.7910    1.0590 C   0  0  1  0  0  0  0  0  0  0  0  0
    4.0140   -3.2350    0.9840 C   0  0  0  0  0  0  0  0  0  0  0  0
    5.1420   -3.9620    0.7010 O   0  0  0  0  0  0  0  0  0  0  0  0
    6.2520   -3.1980    1.0070 C   0  0  1  0  0  0  0  0  0  0  0  0
    7.3100   -3.4250    0.1270 O   0  0  0  0  0  0  0  0  0  0  0  0
    6.9090   -2.9400   -1.1070 C   0  0  0  0  0  0  0  0  0  0  0  0
    5.9950   -1.7780   -0.8550 C   0  0  0  0  0  0  0  0  0  0  0  0
    5.8380   -1.8000    0.6510 C   0  0  1  0  0  0  0  0  0  0  0  0
   -1.8730   -0.9390   -0.2320 S   0  0  2  0  0  0  0  0  0  0  0  0
   -1.2800   -2.3230    0.0430 O   0  0  0  0  0  0  0  0  0  0  0  0
   -1.1000   -0.3550   -1.3980 O   0  0  0  0  0  0  0  0  0  0  0  0
   -3.4980   -1.2160   -0.7590 C   0  0  0  0  0  0  0  0  0  0  0  0
   -4.2250   -2.3330   -0.3300 C   0  0  0  0  0  0  0  0  0  0  0  0
   -5.5090   -2.5910   -0.7270 C   0  0  0  0  0  0  0  0  0  0  0  0
   -6.1420   -1.7230   -1.5920 C   0  0  0  0  0  0  0  0  0  0  0  0
   -7.4820   -1.9750   -2.0180 N   0  0  0  0  0  0  0  0  0  0  0  0
   -5.4720   -0.6080   -2.0440 C   0  0  0  0  0  0  0  0  0  0  0  0
   -4.1850   -0.3790   -1.6270 C   0  0  0  0  0  0  0  0  0  0  0  0
  2  1  1  1
  2  3  1  0
  2  4  1  0
  4  5  1  0
  5  6  1  0
 29  5  1  1
  6  7  1  0
  7  8  1  1
  7  9  1  0
  9 10  1  6
  9 17  1  0
 10 11  1  0
 11 12  2  0
 11 16  1  0
 12 13  1  0
 13 14  2  0
 14 15  1  0
 15 16  2  0
 17 18  1  0
 18 19  2  0
 18 20  1  0
 21 20  1  6
 21 22  1  0
 21 28  1  0
 22 23  1  0
 24 23  1  6
 24 25  1  0
 24 28  1  0
 25 26  1  0
 26 27  1  0
 28 27  1  6
 29 30  2  0
 29 31  2  0
 29 32  1  0
 32 33  2  0
 32 38  1  0
 33 34  1  0
 34 35  2  0
 35 36  1  0
 35 37  1  0
 37 38  2  0
M  END
