
     RDKit          3D

 38 42  0  0  0  0  0  0  0  0999 V2000
   -7.6040    2.3660    1.4530 C   0  0  0  0  0  0  0  0  0  0  0  0
   -6.2760    1.7030    1.6430 C   0  0  0  0  0  0  0  0  0  0  0  0
   -5.4380    2.1360    2.6210 C   0  0  0  0  0  0  0  0  0  0  0  0
   -4.2210    1.5140    2.7820 C   0  0  0  0  0  0  0  0  0  0  0  0
   -3.8500    0.4540    1.9550 C   0  0  0  0  0  0  0  0  0  0  0  0
   -4.7330    0.0320    0.9580 C   0  0  0  0  0  0  0  0  0  0  0  0
   -4.4280   -1.0960    0.0610 C   0  0  0  0  0  0  0  0  0  0  0  0
   -3.1800   -1.6790    0.2070 O   0  0  0  0  0  0  0  0  0  0  0  0
   -1.9570   -1.0560   -0.0050 C   0  0  0  0  0  0  0  0  0  0  0  0
   -1.9590    0.1430   -0.3720 O   0  0  0  0  0  0  0  0  0  0  0  0
   -0.6640   -1.7520    0.1840 C   0  0  0  0  0  0  0  0  0  0  0  0
    0.3790   -0.8480   -0.1150 O   0  0  0  0  0  0  0  0  0  0  0  0
    1.7080   -1.2000   -0.0310 C   0  0  0  0  0  0  0  0  0  0  0  0
    1.9990   -2.3660    0.3230 O   0  0  0  0  0  0  0  0  0  0  0  0
    2.8060   -0.2600   -0.3420 C   0  0  0  0  0  0  0  0  0  0  0  0
    4.1090   -0.8720   -0.1770 N   0  0  1  0  0  0  0  0  0  0  0  0
    4.3040   -1.8200   -1.2300 C   0  0  0  0  0  0  0  0  0  0  0  0
    5.0780    0.1620   -0.1590 C   0  0  0  0  0  0  0  0  0  0  0  0
    4.8590    1.4850   -0.2720 N   0  0  0  0  0  0  0  0  0  0  0  0
    5.9940    2.1590   -0.2150 N   0  0  0  0  0  0  0  0  0  0  0  0
    6.9980    1.2680   -0.0600 C   0  0  0  0  0  0  0  0  0  0  0  0
    6.4290    0.0610   -0.0280 N   0  0  0  0  0  0  0  0  0  0  0  0
    7.4830   -0.8790    0.1340 C   0  0  0  0  0  0  0  0  0  0  0  0
    7.3040   -2.1170    0.2040 O   0  0  0  0  0  0  0  0  0  0  0  0
    8.7740   -0.1870    0.2040 C   0  0  0  0  0  0  0  0  0  0  0  0
   10.0790   -0.6090    0.3540 C   0  0  0  0  0  0  0  0  0  0  0  0
   11.1190    0.2930    0.3860 C   0  0  0  0  0  0  0  0  0  0  0  0
   10.7990    1.6360    0.2630 C   0  0  0  0  0  0  0  0  0  0  0  0
    9.4910    2.0610    0.1130 C   0  0  0  0  0  0  0  0  0  0  0  0
    8.4530    1.1600    0.0810 C   0  0  0  0  0  0  0  0  0  0  0  0
   -5.9530    0.6580    0.8010 C   0  0  0  0  0  0  0  0  0  0  0  0
   -6.8400    0.1870   -0.2500 C   0  0  0  0  0  0  0  0  0  0  0  0
   -6.9310    0.8220   -1.4790 C   0  0  0  0  0  0  0  0  0  0  0  0
   -7.7900    0.3350   -2.4430 C   0  0  0  0  0  0  0  0  0  0  0  0
   -8.5580   -0.7510   -2.2360 N   0  0  0  0  0  0  0  0  0  0  0  0
   -8.4920   -1.3890   -1.0540 C   0  0  0  0  0  0  0  0  0  0  0  0
   -9.5150   -2.7930   -0.8470 Cl  0  0  0  0  0  0  0  0  0  0  0  0
   -7.6400   -0.9220   -0.0710 C   0  0  0  0  0  0  0  0  0  0  0  0
  1  2  1  0
  2  3  2  0
  2 31  1  0
  3  4  1  0
  4  5  2  0
  5  6  1  0
  6  7  1  0
  6 31  2  0
  7  8  1  0
  8  9  1  0
  9 10  2  0
  9 11  1  0
 11 12  1  0
 12 13  1  0
 13 14  2  0
 13 15  1  0
 15 16  1  0
 16 17  1  6
 16 18  1  0
 18 19  2  0
 18 22  1  0
 19 20  1  0
 20 21  2  0
 21 22  1  0
 21 30  1  0
 22 23  1  0
 23 24  2  0
 23 25  1  0
 25 26  2  0
 25 30  1  0
 26 27  1  0
 27 28  2  0
 28 29  1  0
 29 30  2  0
 31 32  1  0
 32 33  2  0
 32 38  1  0
 33 34  1  0
 34 35  2  0
 35 36  1  0
 36 37  1  0
 36 38  2  0
M  CHG  2  16   1  35   1
M  END
