
     RDKit          3D

 38 42  0  0  0  0  0  0  0  0999 V2000
    5.7680    1.8020   -2.2100 C   0  0  0  0  0  0  0  0  0  0  0  0
    6.2900    0.6720   -1.5710 O   0  0  0  0  0  0  0  0  0  0  0  0
    7.5420    0.9800   -1.0740 C   0  0  0  0  0  0  0  0  0  0  0  0
    8.1520   -0.1750   -0.3770 C   0  0  0  0  0  0  0  0  0  0  0  0
    9.5070   -0.3980   -0.5410 C   0  0  0  0  0  0  0  0  0  0  0  0
   10.1360   -1.4490    0.0750 C   0  0  0  0  0  0  0  0  0  0  0  0
    9.3680   -2.2850    0.8700 C   0  0  0  0  0  0  0  0  0  0  0  0
   10.1290   -3.6490    1.6810 Cl  0  0  0  0  0  0  0  0  0  0  0  0
    8.0220   -2.0110    0.9940 C   0  0  0  0  0  0  0  0  0  0  0  0
    7.3970   -0.9790    0.3920 N   0  0  0  0  0  0  0  0  0  0  0  0
    6.0080   -0.7250    0.5380 C   0  0  0  0  0  0  0  0  0  0  0  0
    5.4770    0.4480    1.0330 C   0  0  0  0  0  0  0  0  0  0  0  0
    4.1140    0.6400    1.1400 C   0  0  0  0  0  0  0  0  0  0  0  0
    3.2240   -0.3500    0.7500 C   0  0  0  0  0  0  0  0  0  0  0  0
    1.7820   -0.1670    0.8270 C   0  0  0  0  0  0  0  0  0  0  0  0
    1.3560    0.9370    1.2100 O   0  0  0  0  0  0  0  0  0  0  0  0
    0.8990   -1.1970    0.4820 N   0  0  0  0  0  0  0  0  0  0  0  0
   -0.5180   -1.1340    0.4980 C   0  0  0  0  0  0  0  0  0  0  0  0
   -1.2540   -2.3270    0.5030 C   0  0  0  0  0  0  0  0  0  0  0  0
   -2.6050   -2.3030    0.4820 C   0  0  0  0  0  0  0  0  0  0  0  0
   -3.3550   -1.0860    0.4540 C   0  0  0  0  0  0  0  0  0  0  0  0
   -4.6470   -1.1420    0.4330 O   0  0  0  0  0  0  0  0  0  0  0  0
   -5.9250   -1.1980    0.4130 C   0  0  1  0  0  0  0  0  0  0  0  0
   -6.4910   -2.1150   -0.7070 C   0  0  0  0  0  0  0  0  0  0  0  0
   -7.4030   -3.0440    0.0220 C   0  0  0  0  0  0  0  0  0  0  0  0
   -7.8390   -2.2470    1.1700 N   0  0  0  0  0  0  0  0  0  0  0  0
   -6.5320   -1.8420    1.6800 C   0  0  0  0  0  0  0  0  0  0  0  0
   -2.6230    0.1000    0.4500 C   0  0  0  0  0  0  0  0  0  0  0  0
   -3.2780    1.4130    0.4150 C   0  0  0  0  0  0  0  0  0  0  0  0
   -2.5630    2.4350    0.4150 O   0  0  0  0  0  0  0  0  0  0  0  0
   -4.6050    1.5400    0.3830 O   0  0  0  0  0  0  0  0  0  0  0  0
   -5.4560    2.6210    0.3340 C   0  0  0  0  0  0  0  0  0  0  0  0
   -5.4020    3.4440   -0.9150 C   0  0  2  0  0  0  0  0  0  0  0  0
   -4.2430    4.1850   -1.4110 C   0  0  0  0  0  0  0  0  0  0  0  0
   -5.4910    4.9100   -0.9310 C   0  0  0  0  0  0  0  0  0  0  0  0
   -1.2420    0.0140    0.4720 C   0  0  0  0  0  0  0  0  0  0  0  0
    3.7870   -1.4760    0.2750 N   0  0  0  0  0  0  0  0  0  0  0  0
    5.0910   -1.6670    0.1690 N   0  0  0  0  0  0  0  0  0  0  0  0
  1  2  1  0
  2  3  1  0
  3  4  1  0
  4  5  2  0
  4 10  1  0
  5  6  1  0
  6  7  2  0
  7  8  1  0
  7  9  1  0
  9 10  2  0
 10 11  1  0
 11 12  2  0
 11 38  1  0
 12 13  1  0
 13 14  2  0
 14 15  1  0
 14 37  1  0
 15 16  2  0
 15 17  1  0
 17 18  1  0
 18 19  2  0
 18 36  1  0
 19 20  1  0
 20 21  2  0
 21 22  1  0
 21 28  1  0
 23 22  1  1
 23 24  1  0
 23 27  1  0
 24 25  1  0
 25 26  1  0
 26 27  1  0
 28 29  1  0
 28 36  2  0
 29 30  2  0
 29 31  1  0
 31 32  1  0
 33 32  1  1
 33 34  1  0
 33 35  1  0
 34 35  1  0
 37 38  2  0
M  CHG  2  10   1  26   1
M  END
