
     RDKit          3D

 38 42  0  0  0  0  0  0  0  0999 V2000
    8.4040   -2.2450   -0.9390 C   0  0  0  0  0  0  0  0  0  0  0  0
    7.1540   -1.5960   -0.7780 O   0  0  0  0  0  0  0  0  0  0  0  0
    7.1300   -0.3400   -0.1870 C   0  0  0  0  0  0  0  0  0  0  0  0
    8.3130    0.2500    0.2320 C   0  0  0  0  0  0  0  0  0  0  0  0
    8.3050    1.4950    0.8190 C   0  0  0  0  0  0  0  0  0  0  0  0
    7.1050    2.1480    0.9860 C   0  0  0  0  0  0  0  0  0  0  0  0
    5.9190    1.5370    0.5580 C   0  0  0  0  0  0  0  0  0  0  0  0
    5.8960    0.2930   -0.0330 C   0  0  0  0  0  0  0  0  0  0  0  0
    4.7450   -0.3770   -0.4850 N   0  0  0  0  0  0  0  0  0  0  0  0
    3.4160    0.0850   -0.4270 C   0  0  0  0  0  0  0  0  0  0  0  0
    3.1500    1.1960    0.0610 O   0  0  0  0  0  0  0  0  0  0  0  0
    2.3190   -0.7580   -0.9520 C   0  0  0  0  0  0  0  0  0  0  0  0
    1.0480   -0.2250   -0.8590 O   0  0  0  0  0  0  0  0  0  0  0  0
    0.3660    0.1700    0.2720 C   0  0  0  0  0  0  0  0  0  0  0  0
    1.0190    0.0220    1.3640 O   0  0  0  0  0  0  0  0  0  0  0  0
   -0.9630    0.7090    0.3160 C   0  0  0  0  0  0  0  0  0  0  0  0
   -1.0890    2.1120    0.3100 C   0  0  0  0  0  0  0  0  0  0  0  0
    0.1540    2.9080    0.2830 C   0  0  0  0  0  0  0  0  0  0  0  0
    0.9280    2.8970    1.8870 Cl  0  0  0  0  0  0  0  0  0  0  0  0
   -2.2770    2.7040    0.3220 N   0  0  0  0  0  0  0  0  0  0  0  0
   -3.4200    1.9680    0.3410 C   0  0  0  0  0  0  0  0  0  0  0  0
   -4.6880    2.5980    0.3550 N   0  0  0  0  0  0  0  0  0  0  0  0
   -5.9700    1.9550    0.3750 C   0  0  0  0  0  0  0  0  0  0  0  0
   -6.7150    2.7530   -0.7060 C   0  0  0  0  0  0  0  0  0  0  0  0
   -6.2820    4.1640   -0.3690 C   0  0  0  0  0  0  0  0  0  0  0  0
   -4.9390    4.0180    0.3520 C   0  0  0  0  0  0  0  0  0  0  0  0
   -3.3070    0.6350    0.3470 N   0  0  0  0  0  0  0  0  0  0  0  0
   -2.0890   -0.0300    0.3320 C   0  0  0  0  0  0  0  0  0  0  0  0
   -2.1510   -1.4660    0.2120 C   0  0  0  0  0  0  0  0  0  0  0  0
   -1.1330   -2.3220    0.4750 C   0  0  0  0  0  0  0  0  0  0  0  0
   -1.2210   -3.7260    0.2800 C   0  0  0  0  0  0  0  0  0  0  0  0
   -2.3690   -4.2950   -0.1960 C   0  0  0  0  0  0  0  0  0  0  0  0
   -3.4100   -3.4570   -0.4690 C   0  0  0  0  0  0  0  0  0  0  0  0
   -3.3190   -2.0940   -0.2790 C   0  0  0  0  0  0  0  0  0  0  0  0
   -4.4980   -4.3080   -0.9540 C   0  0  0  0  0  0  0  0  0  0  0  0
   -5.6940   -3.9520   -1.0960 O   0  0  0  0  0  0  0  0  0  0  0  0
   -3.9260   -5.6550   -1.2430 C   0  0  0  0  0  0  0  0  0  0  0  0
   -2.7040   -5.6530   -0.4730 N   0  0  0  0  0  0  0  0  0  0  0  0
  1  2  1  0
  2  3  1  0
  3  4  2  0
  3  8  1  0
  4  5  1  0
  5  6  2  0
  6  7  1  0
  7  8  2  0
  8  9  1  0
  9 10  1  0
 10 11  2  0
 10 12  1  0
 12 13  1  0
 13 14  1  0
 14 15  2  0
 14 16  1  0
 16 17  2  0
 16 28  1  0
 17 18  1  0
 17 20  1  0
 18 19  1  0
 20 21  2  0
 21 22  1  0
 21 27  1  0
 22 23  1  0
 22 26  1  0
 23 24  1  0
 24 25  1  0
 25 26  1  0
 27 28  2  0
 28 29  1  0
 29 30  2  0
 29 34  1  0
 30 31  1  0
 31 32  2  0
 32 33  1  0
 32 38  1  0
 33 34  2  0
 33 35  1  0
 35 36  2  0
 35 37  1  0
 37 38  1  0
M  CHG  2  20   1  27   1
M  END
