
     RDKit          3D

 38 42  0  0  0  0  0  0  0  0999 V2000
   11.0600    0.7030   -0.3940 C   0  0  0  0  0  0  0  0  0  0  0  0
   10.4270   -0.5250   -0.7580 N   0  0  0  0  0  0  0  0  0  0  0  0
    9.2850   -0.3830   -1.6270 C   0  0  0  0  0  0  0  0  0  0  0  0
    8.0020   -0.6860   -0.9500 C   0  0  0  0  0  0  0  0  0  0  0  0
    7.7440   -0.1800    0.2970 C   0  0  0  0  0  0  0  0  0  0  0  0
    6.5640   -0.4660    0.9320 C   0  0  0  0  0  0  0  0  0  0  0  0
    5.5710   -1.2740    0.3630 C   0  0  0  0  0  0  0  0  0  0  0  0
    4.4560   -1.4740    1.1100 O   0  0  0  0  0  0  0  0  0  0  0  0
    3.3100   -0.7310    1.2010 C   0  0  0  0  0  0  0  0  0  0  0  0
    2.7230   -0.5940    2.4580 C   0  0  0  0  0  0  0  0  0  0  0  0
    1.5790    0.1190    2.6970 C   0  0  0  0  0  0  0  0  0  0  0  0
    0.9420    0.7580    1.6250 C   0  0  0  0  0  0  0  0  0  0  0  0
   -0.1810    1.4770    1.8110 O   0  0  0  0  0  0  0  0  0  0  0  0
   -1.4540    1.3630    1.3520 C   0  0  0  0  0  0  0  0  0  0  0  0
   -1.9060    2.0150    0.2550 N   0  0  0  0  0  0  0  0  0  0  0  0
   -3.1700    1.8780   -0.1540 N   0  0  0  0  0  0  0  0  0  0  0  0
   -4.0450    1.0990    0.4920 C   0  0  0  0  0  0  0  0  0  0  0  0
   -5.4080    1.0280    0.0530 N   0  0  0  0  0  0  0  0  0  0  0  0
   -5.8510    0.0150   -0.5850 C   0  0  0  0  0  0  0  0  0  0  0  0
   -4.7860   -0.9890   -0.7820 C   0  0  0  0  0  0  0  0  0  0  0  0
   -3.6160   -0.5790   -0.8290 O   0  0  0  0  0  0  0  0  0  0  0  0
   -5.0490   -2.3670   -0.9160 O   0  0  0  0  0  0  0  0  0  0  0  0
   -6.1590   -3.0650   -1.4170 C   0  0  0  0  0  0  0  0  0  0  0  0
   -7.4860   -2.5160   -1.0190 C   0  0  0  0  0  0  0  0  0  0  0  0
   -7.8700   -1.2460   -1.7010 C   0  0  0  0  0  0  0  0  0  0  0  0
   -7.2720   -0.1160   -0.9500 C   0  0  0  0  0  0  0  0  0  0  0  0
   -8.1410    0.8070   -0.6190 C   0  0  0  0  0  0  0  0  0  0  0  0
   -7.7200    1.9970    0.1330 C   0  0  0  0  0  0  0  0  0  0  0  0
   -6.2770    2.1800    0.3020 C   0  0  2  0  0  0  0  0  0  0  0  0
   -5.8550    3.3260   -0.6470 C   0  0  0  0  0  0  0  0  0  0  0  0
   -3.6310    0.4370    1.5790 N   0  0  0  0  0  0  0  0  0  0  0  0
   -2.3680    0.5490    2.0200 C   0  0  0  0  0  0  0  0  0  0  0  0
   -1.9400   -0.0620    3.0450 O   0  0  0  0  0  0  0  0  0  0  0  0
    1.5100    0.6290    0.3840 C   0  0  0  0  0  0  0  0  0  0  0  0
    0.7660    1.4050   -1.0110 Cl  0  0  0  0  0  0  0  0  0  0  0  0
    2.6730   -0.1000    0.1660 C   0  0  0  0  0  0  0  0  0  0  0  0
    5.8340   -1.7730   -0.8790 C   0  0  0  0  0  0  0  0  0  0  0  0
    7.0300   -1.4790   -1.5160 C   0  0  0  0  0  0  0  0  0  0  0  0
  1  2  1  0
  2  3  1  0
  3  4  1  0
  4  5  2  0
  4 38  1  0
  5  6  1  0
  6  7  2  0
  7  8  1  0
  7 37  1  0
  8  9  1  0
  9 10  2  0
  9 36  1  0
 10 11  1  0
 11 12  2  0
 12 13  1  0
 12 34  1  0
 13 14  1  0
 14 15  2  0
 14 32  1  0
 15 16  1  0
 16 17  2  0
 17 18  1  0
 17 31  1  0
 18 19  2  0
 18 29  1  0
 19 20  1  0
 19 26  1  0
 20 21  2  0
 20 22  1  0
 22 23  1  0
 23 24  1  0
 24 25  1  0
 25 26  1  0
 26 27  2  0
 27 28  1  0
 28 29  1  0
 29 30  1  6
 31 32  1  0
 32 33  2  0
 34 35  1  0
 34 36  2  0
 37 38  2  0
M  CHG  2   2   1  18   1
M  END
