
     RDKit          3D

 47 51  0  0  0  0  0  0  0  0999 V2000
   12.4590    2.4030    2.3240 C   0  0  0  0  0  0  0  0  0  0  0  0
   11.8250    1.4980    1.4620 O   0  0  0  0  0  0  0  0  0  0  0  0
   12.1100    0.1480    1.4430 C   0  0  0  0  0  0  0  0  0  0  0  0
   13.0450   -0.3930    2.2770 C   0  0  0  0  0  0  0  0  0  0  0  0
   13.3070   -1.7450    2.2350 C   0  0  0  0  0  0  0  0  0  0  0  0
   12.6360   -2.5410    1.3640 C   0  0  0  0  0  0  0  0  0  0  0  0
   11.6740   -2.0300    0.4950 C   0  0  0  0  0  0  0  0  0  0  0  0
   11.4220   -0.6760    0.5480 C   0  0  0  0  0  0  0  0  0  0  0  0
   10.4340   -0.0480   -0.3250 C   0  0  0  0  0  0  0  0  0  0  0  0
   10.7550    1.0950   -1.0410 C   0  0  0  0  0  0  0  0  0  0  0  0
    9.8090    1.7070   -1.8600 C   0  0  0  0  0  0  0  0  0  0  0  0
    8.5430    1.1530   -1.9450 C   0  0  0  0  0  0  0  0  0  0  0  0
    8.2010    0.0070   -1.2350 C   0  0  0  0  0  0  0  0  0  0  0  0
    6.8090   -0.5230   -1.3740 C   0  0  0  0  0  0  0  0  0  0  0  0
    5.9740    0.1210   -0.3290 C   0  0  2  0  0  0  0  0  0  0  0  0
    6.5420   -0.2280    1.0310 C   0  0  0  0  0  0  0  0  0  0  0  0
    4.5830   -0.1840   -0.3290 N   0  0  1  0  0  0  0  0  0  0  0  0
    3.7580    1.0130   -0.1030 C   0  0  0  0  0  0  0  0  0  0  0  0
    2.3870    0.3200   -0.1480 C   0  0  0  0  0  0  0  0  0  0  0  0
    2.5430   -0.6940   -1.2880 C   0  0  1  0  0  0  0  0  0  0  0  0
    1.8300   -0.0550   -2.4740 C   0  0  0  0  0  0  0  0  0  0  0  0
    0.4460    0.2080   -2.2330 N   0  0  0  0  0  0  0  0  0  0  0  0
   -0.5150   -0.7850   -1.9240 C   0  0  0  0  0  0  0  0  0  0  0  0
   -0.1460   -1.9880   -1.8550 O   0  0  0  0  0  0  0  0  0  0  0  0
   -1.9170   -0.4020   -1.6900 C   0  0  0  0  0  0  0  0  0  0  0  0
   -2.9550   -1.2520   -1.4240 C   0  0  0  0  0  0  0  0  0  0  0  0
   -4.0850   -0.4490   -1.2740 C   0  0  0  0  0  0  0  0  0  0  0  0
   -3.6750    0.8450   -1.4560 C   0  0  0  0  0  0  0  0  0  0  0  0
   -4.5070    2.1040   -1.3990 C   0  0  0  0  0  0  0  0  0  0  0  0
   -4.5550    2.5110   -0.0980 O   0  0  0  0  0  0  0  0  0  0  0  0
   -5.1310    1.6610    0.8070 C   0  0  0  0  0  0  0  0  0  0  0  0
   -6.5520    1.4720    0.5270 C   0  0  0  0  0  0  0  0  0  0  0  0
   -7.1350    2.0970   -0.3780 O   0  0  0  0  0  0  0  0  0  0  0  0
   -7.3880    0.5630    1.2590 N   0  0  0  0  0  0  0  0  0  0  0  0
   -8.7790    0.3640    1.0150 C   0  0  2  0  0  0  0  0  0  0  0  0
   -9.5140    0.4650    2.3230 C   0  0  0  0  0  0  0  0  0  0  0  0
  -10.8810   -0.1090    2.2060 C   0  0  1  0  0  0  0  0  0  0  0  0
  -10.9340   -1.4330    2.9110 C   0  0  0  0  0  0  0  0  0  0  0  0
  -11.8320    0.8320    2.9660 C   0  0  0  0  0  0  0  0  0  0  0  0
  -11.4320   -0.1780    0.8040 C   0  0  0  0  0  0  0  0  0  0  0  0
  -10.5170   -0.8860   -0.1530 C   0  0  2  0  0  0  0  0  0  0  0  0
  -10.5370   -0.1060   -1.4570 C   0  0  0  0  0  0  0  0  0  0  0  0
  -11.0670   -2.2600   -0.4560 C   0  0  0  0  0  0  0  0  0  0  0  0
   -9.0980   -0.9660    0.3840 C   0  0  0  0  0  0  0  0  0  0  0  0
   -2.3930    0.8240   -1.6980 O   0  0  0  0  0  0  0  0  0  0  0  0
    4.0310   -0.7060   -1.5250 C   0  0  0  0  0  0  0  0  0  0  0  0
    9.1620   -0.5710   -0.4360 C   0  0  0  0  0  0  0  0  0  0  0  0
  1  2  1  0
  2  3  1  0
  3  4  2  0
  3  8  1  0
  4  5  1  0
  5  6  2  0
  6  7  1  0
  7  8  2  0
  8  9  1  0
  9 10  2  0
  9 47  1  0
 10 11  1  0
 11 12  2  0
 12 13  1  0
 13 14  1  0
 13 47  2  0
 14 15  1  0
 15 16  1  1
 15 17  1  0
 17 18  1  6
 17 46  1  0
 18 19  1  0
 19 20  1  0
 20 21  1  6
 20 46  1  0
 21 22  1  0
 22 23  1  0
 23 24  2  0
 23 25  1  0
 25 26  2  0
 25 45  1  0
 26 27  1  0
 27 28  2  0
 28 29  1  0
 28 45  1  0
 29 30  1  0
 30 31  1  0
 31 32  1  0
 32 33  2  0
 32 34  1  0
 35 34  1  1
 35 36  1  0
 35 44  1  0
 36 37  1  0
 37 38  1  1
 37 39  1  0
 37 40  1  0
 40 41  1  0
 41 42  1  6
 41 43  1  0
 41 44  1  0
M  CHG  1  17   1
M  END
