
     RDKit          3D

 47 51  0  0  0  0  0  0  0  0999 V2000
    8.7870    1.8580    0.9350 C   0  0  0  0  0  0  0  0  0  0  0  0
    7.5950    1.1510    0.3720 C   0  0  0  0  0  0  0  0  0  0  0  0
    6.3840    1.4810    0.9350 C   0  0  0  0  0  0  0  0  0  0  0  0
    5.2360    0.8730    0.4710 C   0  0  0  0  0  0  0  0  0  0  0  0
    5.2400   -0.0550   -0.5370 C   0  0  0  0  0  0  0  0  0  0  0  0
    4.0980   -0.7340   -1.0830 C   0  0  0  0  0  0  0  0  0  0  0  0
    2.7870   -0.4340   -0.6900 N   0  0  2  0  0  0  0  0  0  0  0  0
    2.2470    0.8520   -1.0620 C   0  0  0  0  0  0  0  0  0  0  0  0
    0.7310    0.7470   -1.3480 C   0  0  0  0  0  0  0  0  0  0  0  0
   -0.0440    0.6050   -0.0340 C   0  0  2  0  0  0  0  0  0  0  0  0
   -0.1950   -0.8700    0.2580 C   0  0  0  0  0  0  0  0  0  0  0  0
   -1.3090   -1.6700    0.2350 C   0  0  0  0  0  0  0  0  0  0  0  0
   -1.1660   -3.0060    0.5560 C   0  0  0  0  0  0  0  0  0  0  0  0
    0.0910   -3.5370    0.8950 C   0  0  0  0  0  0  0  0  0  0  0  0
    1.2330   -2.7780    0.9300 C   0  0  0  0  0  0  0  0  0  0  0  0
    1.0510   -1.4690    0.6090 C   0  0  0  0  0  0  0  0  0  0  0  0
    2.4270   -0.8100    0.6710 C   0  0  0  0  0  0  0  0  0  0  0  0
   -2.1380   -3.9930    0.6040 O   0  0  0  0  0  0  0  0  0  0  0  0
   -3.3250   -4.1980    1.2860 C   0  0  0  0  0  0  0  0  0  0  0  0
   -4.3650   -4.6660    0.2580 C   0  0  1  0  0  0  0  0  0  0  0  0
   -4.3110   -6.0740    0.2050 O   0  0  0  0  0  0  0  0  0  0  0  0
   -5.7440   -4.2760    0.7180 C   0  0  0  0  0  0  0  0  0  0  0  0
   -6.1140   -3.0820   -0.0560 N   0  0  1  0  0  0  0  0  0  0  0  0
   -6.9440   -3.5240   -1.1350 C   0  0  0  0  0  0  0  0  0  0  0  0
   -6.8060   -2.1930    0.8570 C   0  0  0  0  0  0  0  0  0  0  0  0
   -6.9970   -0.8350    0.2990 C   0  0  0  0  0  0  0  0  0  0  0  0
   -6.2690    0.2190    0.5560 C   0  0  0  0  0  0  0  0  0  0  0  0
   -5.0960    0.2700    1.4660 C   0  0  0  0  0  0  0  0  0  0  0  0
   -4.0670    0.8870    0.7880 O   0  0  0  0  0  0  0  0  0  0  0  0
   -3.1560    1.5540    1.5870 C   0  0  2  0  0  0  0  0  0  0  0  0
   -3.5660    2.9880    1.8850 C   0  0  0  0  0  0  0  0  0  0  0  0
   -3.7270    3.8430    0.7180 C   0  0  0  0  0  0  0  0  0  0  0  0
   -2.6510    4.5780    0.2650 C   0  0  0  0  0  0  0  0  0  0  0  0
   -2.7040    5.4140   -0.8310 C   0  0  0  0  0  0  0  0  0  0  0  0
   -3.8910    5.5340   -1.5270 C   0  0  0  0  0  0  0  0  0  0  0  0
   -3.9450    6.3740   -2.6290 O   0  0  0  0  0  0  0  0  0  0  0  0
   -4.9770    4.8100   -1.0920 C   0  0  0  0  0  0  0  0  0  0  0  0
   -4.9000    3.9830    0.0040 C   0  0  0  0  0  0  0  0  0  0  0  0
   -1.7340    1.3240    1.3390 C   0  0  0  0  0  0  0  0  0  0  0  0
   -1.1280    1.5040    0.0920 N   0  0  2  0  0  0  0  0  0  0  0  0
   -1.9150    1.4830   -1.1010 C   0  0  0  0  0  0  0  0  0  0  0  0
    6.4940   -0.3500   -1.0700 C   0  0  0  0  0  0  0  0  0  0  0  0
    7.6470    0.2300   -0.6360 C   0  0  0  0  0  0  0  0  0  0  0  0
    8.9890   -0.1000   -1.2210 C   0  0  1  0  0  0  0  0  0  0  0  0
    9.6140    1.0660   -1.9250 C   0  0  0  0  0  0  0  0  0  0  0  0
    9.8870   -0.7790   -0.2270 C   0  0  0  0  0  0  0  0  0  0  0  0
    8.7360   -1.0660   -2.2270 O   0  0  0  0  0  0  0  0  0  0  0  0
  1  2  1  0
  2  3  2  0
  2 43  1  0
  3  4  1  0
  4  5  2  0
  5  6  1  0
  5 42  1  0
  7  6  1  1
  7  8  1  0
  7 17  1  0
  8  9  1  0
 10  9  1  6
 10 11  1  0
 10 40  1  0
 11 12  2  0
 11 16  1  0
 12 13  1  0
 13 14  2  0
 13 18  1  0
 14 15  1  0
 15 16  2  0
 16 17  1  0
 18 19  1  0
 19 20  1  0
 20 21  1  1
 20 22  1  0
 22 23  1  0
 23 24  1  6
 23 25  1  0
 25 26  1  0
 26 27  2  0
 27 28  1  0
 28 29  1  0
 29 30  1  0
 30 31  1  6
 30 39  1  0
 31 32  1  0
 32 33  2  0
 32 38  1  0
 33 34  1  0
 34 35  2  0
 35 36  1  0
 35 37  1  0
 37 38  2  0
 39 40  1  0
 40 41  1  6
 42 43  2  0
 43 44  1  0
 44 45  1  6
 44 46  1  0
 44 47  1  0
M  CHG  3   7   1  23   1  40   1
M  END
