
     RDKit          3D

 48 53  0  0  0  0  0  0  0  0999 V2000
   12.3450   -1.5880    1.2040 C   0  0  0  0  0  0  0  0  0  0  0  0
   11.6130   -0.5430    0.6080 O   0  0  0  0  0  0  0  0  0  0  0  0
   10.2390   -0.8670    0.7150 C   0  0  0  0  0  0  0  0  0  0  0  0
    9.4770    0.2550    0.0740 C   0  0  0  0  0  0  0  0  0  0  0  0
    8.0640    0.1190    0.0790 N   0  0  0  0  0  0  0  0  0  0  0  0
    7.5380   -1.1850   -0.1130 C   0  0  2  0  0  0  0  0  0  0  0  0
    7.6470   -1.7520   -1.4760 C   0  0  0  0  0  0  0  0  0  0  0  0
    6.6670   -2.7750   -1.8670 C   0  0  0  0  0  0  0  0  0  0  0  0
    5.6440   -3.1940   -0.8920 C   0  0  0  0  0  0  0  0  0  0  0  0
    5.8010   -2.6840    0.5150 C   0  0  0  0  0  0  0  0  0  0  0  0
    6.1080   -1.2020    0.4260 C   0  0  2  0  0  0  0  0  0  0  0  0
    5.1780   -0.4740   -0.4300 C   0  0  0  0  0  0  0  0  0  0  0  0
    5.4860   -0.0200   -1.5730 O   0  0  0  0  0  0  0  0  0  0  0  0
    3.8140   -0.2440    0.0110 C   0  0  0  0  0  0  0  0  0  0  0  0
    2.8900    0.3240   -0.8800 C   0  0  0  0  0  0  0  0  0  0  0  0
    1.6050    0.5710   -0.4580 C   0  0  0  0  0  0  0  0  0  0  0  0
    1.1670    0.2880    0.8130 C   0  0  0  0  0  0  0  0  0  0  0  0
   -0.1980    0.5500    1.2440 C   0  0  0  0  0  0  0  0  0  0  0  0
   -0.5650    0.2800    2.4280 O   0  0  0  0  0  0  0  0  0  0  0  0
   -1.1560    1.0960    0.4040 O   0  0  0  0  0  0  0  0  0  0  0  0
   -2.4580    1.3270    0.8690 C   0  0  2  0  0  0  0  0  0  0  0  0
   -3.4790    0.4980    0.1580 C   0  0  0  0  0  0  0  0  0  0  0  0
   -3.0470   -0.1920   -0.7770 O   0  0  0  0  0  0  0  0  0  0  0  0
   -4.8360    0.5000    0.5250 N   0  0  0  0  0  0  0  0  0  0  0  0
   -5.8320   -0.2560   -0.1050 C   0  0  0  0  0  0  0  0  0  0  0  0
   -5.6180   -1.1900   -1.0850 C   0  0  0  0  0  0  0  0  0  0  0  0
   -6.6400   -1.9240   -1.6510 C   0  0  0  0  0  0  0  0  0  0  0  0
   -7.9630   -1.7760   -1.2730 C   0  0  0  0  0  0  0  0  0  0  0  0
   -8.2030   -0.8470   -0.2930 C   0  0  0  0  0  0  0  0  0  0  0  0
   -9.4990   -0.6240    0.1500 C   0  0  0  0  0  0  0  0  0  0  0  0
   -9.8290    0.2910    1.1250 C   0  0  0  0  0  0  0  0  0  0  0  0
   -8.8050    1.0100    1.6740 C   0  0  0  0  0  0  0  0  0  0  0  0
   -7.4750    0.8250    1.2640 C   0  0  0  0  0  0  0  0  0  0  0  0
   -7.1650   -0.0910    0.2920 C   0  0  0  0  0  0  0  0  0  0  0  0
  -10.5870   -1.3850   -0.4320 C   0  0  0  0  0  0  0  0  0  0  0  0
  -11.7730   -1.1740   -0.0200 O   0  0  0  0  0  0  0  0  0  0  0  0
  -10.3280   -2.3370   -1.4350 N   0  0  0  0  0  0  0  0  0  0  0  0
  -11.4950   -3.0590   -1.9680 C   0  0  0  0  0  0  0  0  0  0  0  0
   -9.0100   -2.5870   -1.9060 C   0  0  0  0  0  0  0  0  0  0  0  0
   -2.7040    2.7710    0.7860 C   0  0  0  0  0  0  0  0  0  0  0  0
   -3.7750    3.3970    0.2300 C   0  0  0  0  0  0  0  0  0  0  0  0
   -3.9100    4.7760    0.2130 C   0  0  0  0  0  0  0  0  0  0  0  0
   -2.9300    5.5820    0.7780 C   0  0  0  0  0  0  0  0  0  0  0  0
   -3.0500    7.0730    0.7730 C   0  0  0  0  0  0  0  0  0  0  0  0
   -1.8450    4.9640    1.3410 C   0  0  0  0  0  0  0  0  0  0  0  0
   -1.7260    3.5910    1.3500 C   0  0  0  0  0  0  0  0  0  0  0  0
    2.0840   -0.2670    1.6740 C   0  0  0  0  0  0  0  0  0  0  0  0
    3.3990   -0.5320    1.2790 C   0  0  0  0  0  0  0  0  0  0  0  0
  1  2  1  0
  2  3  1  0
  3  4  1  0
  4  5  1  0
  6  5  1  6
  6  7  1  0
  6 11  1  0
  7  8  1  0
  8  9  1  0
  9 10  1  0
 10 11  1  0
 11 12  1  6
 12 13  2  0
 12 14  1  0
 14 15  2  0
 14 48  1  0
 15 16  1  0
 16 17  2  0
 17 18  1  0
 17 47  1  0
 18 19  2  0
 18 20  1  0
 21 20  1  6
 21 22  1  0
 21 40  1  0
 22 23  2  0
 22 24  1  0
 24 25  1  0
 25 26  2  0
 25 34  1  0
 26 27  1  0
 27 28  2  0
 28 29  1  0
 28 39  1  0
 29 30  2  0
 29 34  1  0
 30 31  1  0
 30 35  1  0
 31 32  2  0
 32 33  1  0
 33 34  2  0
 35 36  2  0
 35 37  1  0
 37 38  1  0
 37 39  1  0
 40 41  2  0
 40 46  1  0
 41 42  1  0
 42 43  2  0
 43 44  1  0
 43 45  1  0
 45 46  2  0
 47 48  2  0
M  CHG  1   5   1
M  END
