
     RDKit          3D

 13 13  0  0  0  0  0  0  0  0999 V2000
   -4.0150    1.3040    0.8010 C   0  0  0  0  0  0  0  0  0  0  0  0
   -3.3370    0.3420   -0.1480 C   0  0  2  0  0  0  0  0  0  0  0  0
   -4.2200   -0.8630   -0.4360 C   0  0  0  0  0  0  0  0  0  0  0  0
   -2.0670    0.0040    0.2290 O   0  0  0  0  0  0  0  0  0  0  0  0
   -1.0810    0.3980   -0.6510 C   0  0  0  0  0  0  0  0  0  0  0  0
    0.2620   -0.0400   -0.1080 C   0  0  0  0  0  0  0  0  0  0  0  0
    1.3210    0.3340   -0.9680 O   0  0  0  0  0  0  0  0  0  0  0  0
    2.6050   -0.0220   -0.5610 C   0  0  0  0  0  0  0  0  0  0  0  0
    3.3180    0.7200    0.2670 C   0  0  0  0  0  0  0  0  0  0  0  0
    4.6880    0.3690    0.7190 C   0  0  0  0  0  0  0  0  0  0  0  0
    5.1610   -0.8390    0.1780 O   0  0  0  0  0  0  0  0  0  0  0  0
    4.4300   -1.6220   -0.6870 C   0  0  0  0  0  0  0  0  0  0  0  0
    3.2120   -1.2600   -1.0560 C   0  0  0  0  0  0  0  0  0  0  0  0
  2  1  1  1
  2  3  1  0
  2  4  1  0
  4  5  1  0
  5  6  1  0
  6  7  1  0
  7  8  1  0
  8  9  2  0
  8 13  1  0
  9 10  1  0
 10 11  1  0
 11 12  1  0
 12 13  2  0
M  END
