
     RDKit          3D

 13 12  0  0  0  0  0  0  0  0999 V2000
   -1.3940   -2.2050    1.3580 C   0  0  0  0  0  0  0  0  0  0  0  0
   -1.7090   -0.9420    1.4050 C   0  0  0  0  0  0  0  0  0  0  0  0
   -2.1180   -0.3430    2.6860 C   0  0  0  0  0  0  0  0  0  0  0  0
   -1.6490   -0.1390    0.1690 C   0  0  0  0  0  0  0  0  0  0  0  0
   -1.9750    1.1530    0.2010 C   0  0  0  0  0  0  0  0  0  0  0  0
   -1.9640    2.0660   -0.9400 C   0  0  0  0  0  0  0  0  0  0  0  0
   -1.2630   -0.6880   -1.0260 O   0  0  0  0  0  0  0  0  0  0  0  0
   -0.1890   -0.3650   -1.8230 C   0  0  0  0  0  0  0  0  0  0  0  0
    1.0880   -0.5220   -1.1150 C   0  0  0  0  0  0  0  0  0  0  0  0
    1.2110   -0.8910    0.0720 O   0  0  0  0  0  0  0  0  0  0  0  0
    2.2530   -0.2280   -1.8570 O   0  0  0  0  0  0  0  0  0  0  0  0
    3.5110   -0.3580   -1.2390 C   0  0  0  0  0  0  0  0  0  0  0  0
    3.5760    0.5570   -0.0570 C   0  0  0  0  0  0  0  0  0  0  0  0
  1  2  2  0
  2  3  1  0
  2  4  1  0
  4  5  2  3
  4  7  1  0
  5  6  1  0
  7  8  1  0
  8  9  1  0
  9 10  2  0
  9 11  1  0
 11 12  1  0
 12 13  1  0
M  END
