
     RDKit          3D

 13 12  0  0  0  0  0  0  0  0999 V2000
   -3.1490   -1.2540   -1.1950 C   0  0  0  0  0  0  0  0  0  0  0  0
   -3.1730   -0.5120    0.1060 C   0  0  0  0  0  0  0  0  0  0  0  0
   -2.1520    0.6330    0.1290 C   0  0  2  0  0  0  0  0  0  0  0  0
   -2.2850    1.2880    1.4880 C   0  0  0  0  0  0  0  0  0  0  0  0
   -2.5310    1.6290   -0.9140 C   0  0  0  0  0  0  0  0  0  0  0  0
   -0.7890    0.1290   -0.1160 C   0  0  0  0  0  0  0  0  0  0  0  0
   -0.1170    0.5500   -1.1190 O   0  0  0  0  0  0  0  0  0  0  0  0
   -0.1380   -0.7970    0.6710 O   0  0  0  0  0  0  0  0  0  0  0  0
    1.1490   -1.2850    0.4570 C   0  0  0  0  0  0  0  0  0  0  0  0
    2.2210   -0.2350    0.4690 C   0  0  0  0  0  0  0  0  0  0  0  0
    3.5370   -0.9260    0.2240 C   0  0  0  0  0  0  0  0  0  0  0  0
    4.7010    0.0350    0.2140 C   0  0  0  0  0  0  0  0  0  0  0  0
    4.5730    1.0020   -0.7780 O   0  0  0  0  0  0  0  0  0  0  0  0
  1  2  1  0
  2  3  1  0
  3  4  1  1
  3  5  1  0
  3  6  1  0
  6  7  2  0
  6  8  1  0
  8  9  1  0
  9 10  1  0
 10 11  1  0
 11 12  1  0
 12 13  1  0
M  END
