
     RDKit          3D

 13 12  0  0  0  0  0  0  0  0999 V2000
    4.6680    1.3280    0.3790 C   0  0  0  0  0  0  0  0  0  0  0  0
    4.5500    0.3360    1.2190 C   0  0  0  0  0  0  0  0  0  0  0  0
    3.3020   -0.4220    1.2280 C   0  0  0  0  0  0  0  0  0  0  0  0
    3.1080   -1.4380    2.0490 C   0  0  0  0  0  0  0  0  0  0  0  0
    2.1820   -0.0690    0.2960 C   0  0  0  0  0  0  0  0  0  0  0  0
    1.1540   -0.9270    0.5160 O   0  0  0  0  0  0  0  0  0  0  0  0
    0.0260   -0.8090   -0.2370 C   0  0  0  0  0  0  0  0  0  0  0  0
   -0.6010    0.5440   -0.0380 C   0  0  0  0  0  0  0  0  0  0  0  0
   -1.7550    0.7560   -0.7600 O   0  0  0  0  0  0  0  0  0  0  0  0
   -2.7910   -0.0800   -0.4600 C   0  0  2  0  0  0  0  0  0  0  0  0
   -3.2400   -0.8650   -1.7000 C   0  0  0  0  0  0  0  0  0  0  0  0
   -4.0130    0.6920    0.0140 C   0  0  0  0  0  0  0  0  0  0  0  0
   -4.4610    1.5770   -0.9560 O   0  0  0  0  0  0  0  0  0  0  0  0
  1  2  2  0
  2  3  1  0
  3  4  2  0
  3  5  1  0
  5  6  1  0
  6  7  1  0
  7  8  1  0
  8  9  1  0
  9 10  1  0
 10 11  1  6
 10 12  1  0
 12 13  1  0
M  END
