
     RDKit          3D

 13 12  0  0  0  0  0  0  0  0999 V2000
    5.4280    0.3630    0.0070 C   0  0  0  0  0  0  0  0  0  0  0  0
    3.9720    0.2800    0.4660 C   0  0  0  0  0  0  0  0  0  0  0  0
    3.3530   -0.9800   -0.0580 C   0  0  0  0  0  0  0  0  0  0  0  0
    2.0120   -1.1690    0.3020 O   0  0  0  0  0  0  0  0  0  0  0  0
    1.0470   -0.2750   -0.0670 C   0  0  0  0  0  0  0  0  0  0  0  0
    1.3930    0.7260   -0.7410 O   0  0  0  0  0  0  0  0  0  0  0  0
   -0.4060   -0.4650    0.3150 C   0  0  0  0  0  0  0  0  0  0  0  0
   -1.1640    0.6760   -0.2420 C   0  0  0  0  0  0  0  0  0  0  0  0
   -2.6180    0.7480   -0.0010 C   0  0  1  0  0  0  0  0  0  0  0  0
   -2.9670    0.8010    1.4840 C   0  0  0  0  0  0  0  0  0  0  0  0
   -3.0020    2.0500   -0.4550 O   0  0  0  0  0  0  0  0  0  0  0  0
   -3.5030   -0.1760   -0.7450 C   0  0  0  0  0  0  0  0  0  0  0  0
   -3.3040   -1.6330   -0.5500 C   0  0  0  0  0  0  0  0  0  0  0  0
  1  2  1  0
  2  3  1  0
  3  4  1  0
  4  5  1  0
  5  6  2  0
  5  7  1  0
  7  8  1  0
  8  9  1  0
  9 10  1  1
  9 11  1  0
  9 12  1  0
 12 13  1  0
M  END
