
     RDKit          3D

 14 14  0  0  0  0  0  0  0  0999 V2000
    6.3040   -0.0480   -0.3080 C   0  0  0  0  0  0  0  0  0  0  0  0
    4.8960    0.0480   -0.6450 N   0  0  0  0  0  0  0  0  0  0  0  0
    3.8770   -0.5380    0.1520 C   0  0  0  0  0  0  0  0  0  0  0  0
    4.2330   -1.1530    1.1760 O   0  0  0  0  0  0  0  0  0  0  0  0
    2.4550   -0.4060   -0.2450 C   0  0  0  0  0  0  0  0  0  0  0  0
    1.6220   -1.1290    0.8020 C   0  0  0  0  0  0  0  0  0  0  0  0
   -0.1410   -1.0650    0.4710 S   0  0  0  0  0  0  0  0  0  0  0  0
   -0.7450    0.6410    0.6090 C   0  0  0  0  0  0  0  0  0  0  0  0
   -2.2330    0.7200    0.3420 C   0  0  1  0  0  0  0  0  0  0  0  0
   -2.4890    0.2200   -1.0440 C   0  0  0  0  0  0  0  0  0  0  0  0
   -3.6820   -0.7240   -1.0830 C   0  0  0  0  0  0  0  0  0  0  0  0
   -4.7350   -0.1350   -0.1680 C   0  0  0  0  0  0  0  0  0  0  0  0
   -4.2200   -0.0490    1.2330 C   0  0  0  0  0  0  0  0  0  0  0  0
   -2.8540   -0.0440    1.3290 O   0  0  0  0  0  0  0  0  0  0  0  0
  1  2  1  0
  2  3  1  0
  3  4  2  0
  3  5  1  0
  5  6  1  0
  6  7  1  0
  7  8  1  0
  9  8  1  1
  9 10  1  0
  9 14  1  0
 10 11  1  0
 11 12  1  0
 12 13  1  0
 13 14  1  0
M  END
