
     RDKit          3D

 14 14  0  0  0  0  0  0  0  0999 V2000
    4.2650    0.5380    1.0580 C   0  0  0  0  0  0  0  0  0  0  0  0
    3.2600    1.5120    0.5320 C   0  0  0  0  0  0  0  0  0  0  0  0
    1.9190    0.9200    0.3990 N   0  0  0  0  0  0  0  0  0  0  0  0
    1.6720   -0.1870   -0.4180 C   0  0  0  0  0  0  0  0  0  0  0  0
    2.7170   -0.6320   -1.0320 O   0  0  0  0  0  0  0  0  0  0  0  0
    0.3830   -0.8380   -0.6170 C   0  0  0  0  0  0  0  0  0  0  0  0
   -0.7870   -0.5640   -0.1150 C   0  0  0  0  0  0  0  0  0  0  0  0
   -1.1560    0.7760    1.0300 S   0  0  0  0  0  0  0  0  0  0  0  0
   -2.8940    0.8660    1.4370 C   0  0  0  0  0  0  0  0  0  0  0  0
   -3.7540    1.2640    0.2560 C   0  0  0  0  0  0  0  0  0  0  0  0
   -1.7970   -1.5530   -0.6320 C   0  0  0  0  0  0  0  0  0  0  0  0
   -1.1800   -1.9680   -1.9440 C   0  0  0  0  0  0  0  0  0  0  0  0
    0.2550   -2.0140   -1.5320 C   0  0  0  0  0  0  0  0  0  0  0  0
    1.1370   -2.8360   -1.8680 O   0  0  0  0  0  0  0  0  0  0  0  0
  1  2  1  0
  2  3  1  0
  3  4  1  0
  4  5  2  0
  4  6  1  0
  6  7  2  0
  6 13  1  0
  7  8  1  0
  7 11  1  0
  8  9  1  0
  9 10  1  0
 11 12  1  0
 12 13  1  0
 13 14  2  0
M  END
