
     RDKit          3D

 14 14  0  0  0  0  0  0  0  0999 V2000
   -2.1390   -1.2490   -1.3140 C   0  0  0  0  0  0  0  0  0  0  0  0
   -2.1570   -0.3810   -0.0750 C   0  0  2  0  0  0  0  0  0  0  0  0
   -1.8160   -1.1770    1.1680 C   0  0  0  0  0  0  0  0  0  0  0  0
   -3.6050    0.0750    0.1050 C   0  0  0  0  0  0  0  0  0  0  0  0
   -1.3230    0.8370   -0.1890 C   0  0  0  0  0  0  0  0  0  0  0  0
    0.1040    0.6110   -0.4350 C   0  0  0  0  0  0  0  0  0  0  0  0
    0.4730   -0.6030   -0.5250 O   0  0  0  0  0  0  0  0  0  0  0  0
    1.0900    1.5870   -0.5800 N   0  0  0  0  0  0  0  0  0  0  0  0
    2.4560    1.2470   -0.8190 C   0  0  0  0  0  0  0  0  0  0  0  0
    3.0680    0.4280    0.2350 C   0  0  0  0  0  0  0  0  0  0  0  0
    2.3780    0.1010    1.2250 O   0  0  0  0  0  0  0  0  0  0  0  0
    4.4410   -0.0220    0.1810 C   0  0  0  0  0  0  0  0  0  0  0  0
    5.4600   -0.7100    0.7600 C   0  0  0  0  0  0  0  0  0  0  0  0
    5.9620    0.0060   -0.7950 S   0  0  0  0  0  0  0  0  0  0  0  0
  2  1  1  6
  2  3  1  0
  2  4  1  0
  2  5  1  0
  5  6  1  0
  6  7  2  0
  6  8  1  0
  8  9  1  0
  9 10  1  0
 10 11  2  0
 10 12  1  0
 12 13  2  0
 12 14  1  0
 13 14  1  0
M  END
