
     RDKit          3D

 13 13  0  0  0  0  0  0  0  0999 V2000
   -3.6420   -0.7700   -0.1150 C   0  0  0  0  0  0  0  0  0  0  0  0
   -3.0580    0.6580   -1.0060 S   0  0  2  0  0  0  0  0  0  0  0  0
   -4.1270    1.7030   -0.8630 O   0  0  0  0  0  0  0  0  0  0  0  0
   -2.8910    0.3360   -2.4470 O   0  0  0  0  0  0  0  0  0  0  0  0
   -1.6570    1.3240   -0.2800 N   0  0  0  0  0  0  0  0  0  0  0  0
   -0.5260    0.4790   -0.1550 C   0  0  0  0  0  0  0  0  0  0  0  0
   -0.5200   -0.6780   -0.5750 O   0  0  0  0  0  0  0  0  0  0  0  0
    0.6380    0.9060    0.4620 N   0  0  0  0  0  0  0  0  0  0  0  0
    1.7260    0.0460    0.5020 C   0  0  0  0  0  0  0  0  0  0  0  0
    2.5880    0.1900    1.3540 N   0  0  0  0  0  0  0  0  0  0  0  0
    3.6210   -0.6730    1.3790 N   0  0  0  0  0  0  0  0  0  0  0  0
    4.2500   -0.7640    0.0370 C   0  0  0  0  0  0  0  0  0  0  0  0
    2.5710   -1.0400   -0.7170 S   0  0  0  0  0  0  0  0  0  0  0  0
  2  1  1  1
  2  3  2  0
  2  4  2  0
  2  5  1  0
  5  6  1  0
  6  7  2  0
  6  8  1  0
  8  9  1  0
  9 10  2  0
  9 13  1  0
 10 11  1  0
 11 12  1  0
 12 13  1  0
M  END
