
     RDKit          3D

 12 12  0  0  0  0  0  0  0  0999 V2000
    3.9990   -0.5490   -0.5820 N   0  0  0  0  0  0  0  0  0  0  0  0
    3.3980    0.5920   -0.9340 O   0  0  0  0  0  0  0  0  0  0  0  0
    2.1220    0.7370   -0.4350 C   0  0  0  0  0  0  0  0  0  0  0  0
    1.0400   -0.6010   -1.0110 S   0  0  0  0  0  0  0  0  0  0  0  0
   -0.5980   -0.3840   -0.3510 C   0  0  0  0  0  0  0  0  0  0  0  0
   -1.5310   -1.2940   -0.6810 N   0  0  0  0  0  0  0  0  0  0  0  0
   -2.7840   -1.1840   -0.2140 N   0  0  0  0  0  0  0  0  0  0  0  0
   -3.1660   -0.1820    0.5910 C   0  0  0  0  0  0  0  0  0  0  0  0
   -4.7100   -0.1110    1.1230 S   0  0  0  0  0  0  0  0  0  0  0  0
   -2.2460    0.7350    0.9300 N   0  0  0  0  0  0  0  0  0  0  0  0
   -0.9710    0.6470    0.4720 C   0  0  0  0  0  0  0  0  0  0  0  0
   -0.1200    1.4960    0.7860 O   0  0  0  0  0  0  0  0  0  0  0  0
  1  2  1  0
  2  3  1  0
  3  4  1  0
  4  5  1  0
  5  6  2  0
  5 11  1  0
  6  7  1  0
  7  8  1  0
  8  9  2  0
  8 10  1  0
 10 11  1  0
 11 12  2  0
M  END
