
     RDKit          3D

 12 12  0  0  0  0  0  0  0  0999 V2000
   -3.4780   -0.8520   -0.1820 O   0  0  0  0  0  0  0  0  0  0  0  0
   -2.3110   -0.4200   -0.1710 C   0  0  0  0  0  0  0  0  0  0  0  0
   -2.0150    0.6380    0.6000 N   0  0  0  0  0  0  0  0  0  0  0  0
   -0.7540    1.1030    0.6100 C   0  0  0  0  0  0  0  0  0  0  0  0
   -0.4690    2.1000    1.3360 O   0  0  0  0  0  0  0  0  0  0  0  0
    0.1730    0.4840   -0.1600 N   0  0  0  0  0  0  0  0  0  0  0  0
    1.5440    0.9850   -0.1520 C   0  0  0  0  0  0  0  0  0  0  0  0
    2.5170    0.1590    1.1390 S   0  0  0  0  0  0  0  0  0  0  0  0
    2.7180   -1.5070    0.7890 O   0  0  0  0  0  0  0  0  0  0  0  0
   -0.1330   -0.5730   -0.9270 C   0  0  0  0  0  0  0  0  0  0  0  0
    1.0580   -1.2470   -1.8190 S   0  0  0  0  0  0  0  0  0  0  0  0
   -1.3920   -1.0390   -0.9390 N   0  0  0  0  0  0  0  0  0  0  0  0
  1  2  2  0
  2  3  1  0
  2 12  1  0
  3  4  1  0
  4  5  2  0
  4  6  1  0
  6  7  1  0
  6 10  1  0
  7  8  1  0
  8  9  1  0
 10 11  2  0
 10 12  1  0
M  END
