
     RDKit          3D

 13 13  0  0  0  0  0  0  0  0999 V2000
    2.7130   -0.0840   -1.0560 N   0  0  0  0  0  0  0  0  0  0  0  0
    2.2540    0.2050    0.2560 C   0  0  0  0  0  0  0  0  0  0  0  0
    2.5620    1.6680    0.9070 S   0  0  0  0  0  0  0  0  0  0  0  0
    1.5010   -0.7820    1.0630 C   0  0  0  0  0  0  0  0  0  0  0  0
    0.2670   -1.1540    0.3740 N   0  0  0  0  0  0  0  0  0  0  0  0
   -0.8000   -0.1840    0.2160 C   0  0  0  0  0  0  0  0  0  0  0  0
   -0.7780    0.8810    0.9280 N   0  0  0  0  0  0  0  0  0  0  0  0
   -2.1800    1.7730    0.4700 S   0  0  2  0  0  0  0  0  0  0  0  0
   -1.8260    3.0860   -0.1530 O   0  0  0  0  0  0  0  0  0  0  0  0
   -3.1490    1.9080    1.6000 O   0  0  0  0  0  0  0  0  0  0  0  0
   -2.7470    0.6330   -0.6930 N   0  0  0  0  0  0  0  0  0  0  0  0
   -1.8960   -0.3230   -0.6860 C   0  0  0  0  0  0  0  0  0  0  0  0
   -2.0750   -1.4320   -1.5420 O   0  0  0  0  0  0  0  0  0  0  0  0
  1  2  1  0
  2  3  2  0
  2  4  1  0
  4  5  1  0
  5  6  1  0
  6  7  2  0
  6 12  1  0
  8  7  1  1
  8  9  2  0
  8 10  2  0
  8 11  1  0
 11 12  2  0
 12 13  1  0
M  END
