
     RDKit          3D

 12 12  0  0  0  0  0  0  0  0999 V2000
   -3.1150    1.0430    0.3080 C   0  0  0  0  0  0  0  0  0  0  0  0
   -2.1420    0.1640   -0.2490 O   0  0  0  0  0  0  0  0  0  0  0  0
   -1.8600   -1.0410    0.3650 C   0  0  0  0  0  0  0  0  0  0  0  0
   -2.5030   -1.3040    1.4350 O   0  0  0  0  0  0  0  0  0  0  0  0
   -0.8670   -1.9910   -0.1860 C   0  0  0  0  0  0  0  0  0  0  0  0
    0.6810   -1.9970    0.6680 S   0  0  0  0  0  0  0  0  0  0  0  0
    1.6380   -0.5120    0.5750 C   0  0  0  0  0  0  0  0  0  0  0  0
    2.8510   -0.4410    1.0740 N   0  0  0  0  0  0  0  0  0  0  0  0
    3.3340    0.8510    0.8410 N   0  0  0  0  0  0  0  0  0  0  0  0
    2.5970    1.3410   -0.2760 N   0  0  0  0  0  0  0  0  0  0  0  0
    3.1590    0.7280   -1.3710 O   0  0  0  0  0  0  0  0  0  0  0  0
    1.3430    0.7630    0.0070 N   0  0  0  0  0  0  0  0  0  0  0  0
  1  2  1  0
  2  3  1  0
  3  4  2  0
  3  5  1  0
  5  6  1  0
  6  7  1  0
  7  8  2  0
  7 12  1  0
  8  9  1  0
  9 10  1  0
 10 11  1  0
 10 12  1  0
M  END
