
     RDKit          3D

 21 23  0  0  0  0  0  0  0  0999 V2000
    0.4180    4.0110   -1.1180 C   0  0  0  0  0  0  0  0  0  0  0  0
   -0.4510    3.0590   -0.5500 O   0  0  0  0  0  0  0  0  0  0  0  0
    0.0590    1.8380   -0.1520 C   0  0  0  0  0  0  0  0  0  0  0  0
    1.3820    1.5710   -0.3100 C   0  0  0  0  0  0  0  0  0  0  0  0
    1.9050    0.3520    0.0850 C   0  0  0  0  0  0  0  0  0  0  0  0
    1.0830   -0.6030    0.6440 C   0  0  0  0  0  0  0  0  0  0  0  0
   -0.2420   -0.3270    0.7990 C   0  0  0  0  0  0  0  0  0  0  0  0
   -0.7690    0.8840    0.4080 C   0  0  0  0  0  0  0  0  0  0  0  0
   -2.2000    1.1720    0.5790 C   0  0  2  0  0  0  0  0  0  0  0  0
   -2.4900    1.4210    1.9200 O   0  0  0  0  0  0  0  0  0  0  0  0
   -2.9520   -0.0370    0.1150 C   0  0  0  0  0  0  0  0  0  0  0  0
   -3.7310   -0.6700    0.9460 C   0  0  0  0  0  0  0  0  0  0  0  0
   -4.5050   -1.8630    0.5770 C   0  0  0  0  0  0  0  0  0  0  0  0
   -4.3220   -2.2430   -0.7380 O   0  0  0  0  0  0  0  0  0  0  0  0
   -3.5000   -1.5770   -1.6190 C   0  0  0  0  0  0  0  0  0  0  0  0
   -2.8200   -0.5050   -1.2440 C   0  0  0  0  0  0  0  0  0  0  0  0
    1.6750   -1.8040    1.0180 O   0  0  0  0  0  0  0  0  0  0  0  0
    2.9490   -2.2160    0.5600 C   0  0  0  0  0  0  0  0  0  0  0  0
    3.8880   -1.0340    0.5510 C   0  0  1  0  0  0  0  0  0  0  0  0
    5.1460   -1.3490   -0.2140 C   0  0  0  0  0  0  0  0  0  0  0  0
    3.2690    0.0750   -0.0770 O   0  0  0  0  0  0  0  0  0  0  0  0
  1  2  1  0
  2  3  1  0
  3  4  2  0
  3  8  1  0
  4  5  1  0
  5  6  2  0
  5 21  1  0
  6  7  1  0
  6 17  1  0
  7  8  2  0
  8  9  1  0
  9 10  1  1
  9 11  1  0
 11 12  2  0
 11 16  1  0
 12 13  1  0
 13 14  1  0
 14 15  1  0
 15 16  2  0
 17 18  1  0
 18 19  1  0
 19 20  1  6
 19 21  1  0
M  END
