
     RDKit          3D

 21 23  0  0  0  0  0  0  0  0999 V2000
    5.2850    1.9990   -1.5310 C   0  0  0  0  0  0  0  0  0  0  0  0
    5.2210    0.7370   -0.9110 O   0  0  0  0  0  0  0  0  0  0  0  0
    4.0100    0.1500   -0.5760 C   0  0  0  0  0  0  0  0  0  0  0  0
    2.8560    0.8380   -0.8660 C   0  0  0  0  0  0  0  0  0  0  0  0
    1.6240    0.3040   -0.5540 C   0  0  0  0  0  0  0  0  0  0  0  0
    1.5220   -0.9310    0.0570 C   0  0  0  0  0  0  0  0  0  0  0  0
    2.7080   -1.6160    0.3420 C   0  0  0  0  0  0  0  0  0  0  0  0
    3.9460   -1.0850    0.0320 C   0  0  0  0  0  0  0  0  0  0  0  0
    2.3870   -2.8160    0.9310 O   0  0  0  0  0  0  0  0  0  0  0  0
    1.0480   -2.9690    1.0560 C   0  0  0  0  0  0  0  0  0  0  0  0
    0.4010   -3.9280    1.5400 O   0  0  0  0  0  0  0  0  0  0  0  0
    0.3760   -1.7170    0.4830 C   0  0  0  0  0  0  0  0  0  0  0  0
   -0.8980   -1.5510    0.5730 C   0  0  0  0  0  0  0  0  0  0  0  0
   -1.9450   -0.6070    0.3640 C   0  0  0  0  0  0  0  0  0  0  0  0
   -3.2020   -1.0600    0.6080 C   0  0  0  0  0  0  0  0  0  0  0  0
   -3.3740   -2.3960    1.0430 O   0  0  0  0  0  0  0  0  0  0  0  0
   -4.3900   -0.2200    0.4360 C   0  0  0  0  0  0  0  0  0  0  0  0
   -4.0890    1.1690    0.9360 C   0  0  0  0  0  0  0  0  0  0  0  0
   -2.9610    1.7330    0.1060 C   0  0  0  0  0  0  0  0  0  0  0  0
   -1.7920    0.8250   -0.0000 C   0  0  1  0  0  0  0  0  0  0  0  0
   -0.9040    1.3170    1.0220 O   0  0  0  0  0  0  0  0  0  0  0  0
  1  2  1  0
  2  3  1  0
  3  4  2  0
  3  8  1  0
  4  5  1  0
  5  6  2  0
  6  7  1  0
  6 12  1  0
  7  8  2  0
  7  9  1  0
  9 10  1  0
 10 11  2  0
 10 12  1  0
 12 13  2  3
 13 14  1  0
 14 15  2  0
 14 20  1  0
 15 16  1  0
 15 17  1  0
 17 18  1  0
 18 19  1  0
 19 20  1  0
 20 21  1  1
M  END
