
     RDKit          3D

 21 23  0  0  0  0  0  0  0  0999 V2000
    0.8120    2.5770   -1.1120 C   0  0  0  0  0  0  0  0  0  0  0  0
    0.3510    1.4780   -1.8220 O   0  0  0  0  0  0  0  0  0  0  0  0
   -0.4980    0.5680   -1.2030 C   0  0  0  0  0  0  0  0  0  0  0  0
    0.0170   -0.5720   -0.6510 C   0  0  0  0  0  0  0  0  0  0  0  0
    1.3090   -0.9170   -0.6500 O   0  0  0  0  0  0  0  0  0  0  0  0
    2.4530   -0.4690   -0.1410 C   0  0  0  0  0  0  0  0  0  0  0  0
    2.6420    0.5340    0.7750 C   0  0  0  0  0  0  0  0  0  0  0  0
    3.8970    0.9130    1.2310 C   0  0  0  0  0  0  0  0  0  0  0  0
    5.0130    0.2810    0.7680 C   0  0  0  0  0  0  0  0  0  0  0  0
    4.8710   -0.7310   -0.1540 C   0  0  0  0  0  0  0  0  0  0  0  0
    6.0360   -1.3480   -0.5990 O   0  0  0  0  0  0  0  0  0  0  0  0
    3.6330   -1.0860   -0.5860 C   0  0  0  0  0  0  0  0  0  0  0  0
   -0.9160   -1.4300   -0.0510 C   0  0  0  0  0  0  0  0  0  0  0  0
   -2.2630   -1.1740   -0.0010 C   0  0  0  0  0  0  0  0  0  0  0  0
   -2.7320   -0.0200   -0.5660 C   0  0  0  0  0  0  0  0  0  0  0  0
   -1.8570    0.8870   -1.1850 C   0  0  0  0  0  0  0  0  0  0  0  0
   -2.3460    2.0490   -1.7520 O   0  0  0  0  0  0  0  0  0  0  0  0
   -4.1710    0.3070   -0.5400 C   0  0  0  0  0  0  0  0  0  0  0  0
   -4.9820   -0.6410    0.0060 O   0  0  0  0  0  0  0  0  0  0  0  0
   -4.3730   -1.2390    1.1360 C   0  0  0  0  0  0  0  0  0  0  0  0
   -3.2290   -2.0960    0.6380 C   0  0  0  0  0  0  0  0  0  0  0  0
  1  2  1  0
  2  3  1  0
  3  4  2  0
  3 16  1  0
  4  5  1  0
  4 13  1  0
  5  6  1  0
  6  7  2  0
  6 12  1  0
  7  8  1  0
  8  9  2  0
  9 10  1  0
 10 11  1  0
 10 12  2  0
 13 14  2  0
 14 15  1  0
 14 21  1  0
 15 16  2  0
 15 18  1  0
 16 17  1  0
 18 19  1  0
 19 20  1  0
 20 21  1  0
M  END
