
     RDKit          3D

 26 28  0  0  0  0  0  0  0  0999 V2000
   -2.1230   -1.3620   -1.8950 C   0  0  0  0  0  0  0  0  0  0  0  0
   -2.5750   -0.4790   -0.7780 C   0  0  0  0  0  0  0  0  0  0  0  0
   -1.8770    0.0580    0.1990 C   0  0  0  0  0  0  0  0  0  0  0  0
   -0.4200   -0.1190    0.3930 C   0  0  0  0  0  0  0  0  0  0  0  0
    0.2540   -0.8140   -0.3980 O   0  0  0  0  0  0  0  0  0  0  0  0
    0.2430    0.4980    1.4810 N   0  0  0  0  0  0  0  0  0  0  0  0
    1.6250    0.4260    1.7810 C   0  0  0  0  0  0  0  0  0  0  0  0
    1.9870    0.7870    3.0860 C   0  0  0  0  0  0  0  0  0  0  0  0
    3.2660    0.7960    3.5370 C   0  0  0  0  0  0  0  0  0  0  0  0
    4.2640    0.4280    2.6550 C   0  0  0  0  0  0  0  0  0  0  0  0
    5.6040    0.4440    3.1470 N   0  0  0  0  0  0  0  0  0  0  0  0
    3.9360    0.0700    1.3670 C   0  0  0  0  0  0  0  0  0  0  0  0
    4.9480   -0.2990    0.4590 N   0  0  0  0  0  0  0  0  0  0  0  0
    4.6170   -0.6580   -0.8960 C   0  0  0  0  0  0  0  0  0  0  0  0
    5.8230   -1.0110   -1.7160 C   0  0  0  0  0  0  0  0  0  0  0  0
    6.7720    0.0560   -1.8180 N   0  0  0  0  0  0  0  0  0  0  0  0
    2.6140    0.0650    0.9150 C   0  0  0  0  0  0  0  0  0  0  0  0
   -2.7420    0.8100    1.0050 O   0  0  0  0  0  0  0  0  0  0  0  0
   -3.8880    1.1520    0.2400 C   0  0  0  0  0  0  0  0  0  0  0  0
   -3.9960   -0.0440   -0.6280 C   0  0  0  0  0  0  0  0  0  0  0  0
   -5.0370   -0.6210   -1.1830 C   0  0  0  0  0  0  0  0  0  0  0  0
   -6.4040   -0.1870   -1.0260 C   0  0  0  0  0  0  0  0  0  0  0  0
   -7.0770    0.1690    0.1090 C   0  0  0  0  0  0  0  0  0  0  0  0
   -8.3590    0.5310   -0.2810 C   0  0  0  0  0  0  0  0  0  0  0  0
   -8.4380    0.3910   -1.6120 N   0  0  0  0  0  0  0  0  0  0  0  0
   -7.2830   -0.0410   -2.1150 C   0  0  0  0  0  0  0  0  0  0  0  0
  1  2  1  0
  2  3  2  0
  2 20  1  0
  3  4  1  0
  3 18  1  0
  4  5  2  0
  4  6  1  0
  6  7  1  0
  7  8  2  0
  7 17  1  0
  8  9  1  0
  9 10  2  0
 10 11  1  0
 10 12  1  0
 12 13  1  0
 12 17  2  0
 13 14  1  0
 14 15  1  0
 15 16  1  0
 18 19  1  0
 19 20  1  0
 20 21  2  3
 21 22  1  0
 22 23  1  0
 22 26  2  0
 23 24  2  0
 24 25  1  0
 25 26  1  0
M  CHG  1  16   1
M  END
