
     RDKit          3D

 27 29  0  0  0  0  0  0  0  0999 V2000
    5.2940    1.3450    2.8470 C   0  0  0  0  0  0  0  0  0  0  0  0
    4.5050    0.1660    3.1080 N   0  0  0  0  0  0  0  0  0  0  0  0
    3.4640   -0.1570    2.1740 C   0  0  0  0  0  0  0  0  0  0  0  0
    3.2120    0.6140    1.0670 C   0  0  0  0  0  0  0  0  0  0  0  0
    2.2080    0.3240    0.1450 C   0  0  0  0  0  0  0  0  0  0  0  0
    2.0130    1.1380   -1.0000 N   0  0  0  0  0  0  0  0  0  0  0  0
    0.8090    1.3030   -1.6930 C   0  0  0  0  0  0  0  0  0  0  0  0
   -0.2990    0.6950   -1.1740 N   0  0  0  0  0  0  0  0  0  0  0  0
   -1.5070    0.8170   -1.7300 C   0  0  0  0  0  0  0  0  0  0  0  0
   -2.6910    0.1600   -1.1520 C   0  0  0  0  0  0  0  0  0  0  0  0
   -3.9440    0.2400   -1.6930 C   0  0  0  0  0  0  0  0  0  0  0  0
   -5.0390   -0.3790   -1.1350 C   0  0  0  0  0  0  0  0  0  0  0  0
   -4.8890   -1.1160    0.0170 C   0  0  0  0  0  0  0  0  0  0  0  0
   -3.6270   -1.2120    0.5840 C   0  0  0  0  0  0  0  0  0  0  0  0
   -3.4730   -1.9790    1.7820 N   0  0  0  0  0  0  0  0  0  0  0  0
   -3.8140   -3.3660    1.4470 C   0  0  0  0  0  0  0  0  0  0  0  0
   -2.5440   -0.5910    0.0200 C   0  0  0  0  0  0  0  0  0  0  0  0
   -1.5830    1.5930   -2.8610 C   0  0  0  0  0  0  0  0  0  0  0  0
   -0.5210    2.2020   -3.3940 N   0  0  0  0  0  0  0  0  0  0  0  0
    0.7250    2.0710   -2.8150 C   0  0  0  0  0  0  0  0  0  0  0  0
    1.8450    2.7370   -3.4320 C   0  0  0  0  0  0  0  0  0  0  0  0
    1.5810    3.5180   -4.6140 N   0  0  0  0  0  0  0  0  0  0  0  0
    3.0140    2.7190   -3.0670 O   0  0  0  0  0  0  0  0  0  0  0  0
    1.4440   -0.7780    0.3550 C   0  0  0  0  0  0  0  0  0  0  0  0
    1.6690   -1.5890    1.4700 C   0  0  0  0  0  0  0  0  0  0  0  0
    2.6660   -1.2680    2.3530 C   0  0  0  0  0  0  0  0  0  0  0  0
    2.9320   -2.0520    3.4920 O   0  0  0  0  0  0  0  0  0  0  0  0
  1  2  1  0
  2  3  1  0
  3  4  2  0
  3 26  1  0
  4  5  1  0
  5  6  1  0
  5 24  2  0
  6  7  1  0
  7  8  2  0
  7 20  1  0
  8  9  1  0
  9 10  1  0
  9 18  2  0
 10 11  2  0
 10 17  1  0
 11 12  1  0
 12 13  2  0
 13 14  1  0
 14 15  1  0
 14 17  2  0
 15 16  1  0
 18 19  1  0
 19 20  2  0
 20 21  1  0
 21 22  1  0
 21 23  2  0
 24 25  1  0
 25 26  2  0
 26 27  1  0
M  CHG  1  15   1
M  END
