
     RDKit          3D

 27 29  0  0  0  0  0  0  0  0999 V2000
   -7.2550   -0.1260   -0.8310 C   0  0  0  0  0  0  0  0  0  0  0  0
   -5.9110   -0.0560   -0.0470 C   0  0  2  0  0  0  0  0  0  0  0  0
   -6.1230    1.1060    0.9300 C   0  0  0  0  0  0  0  0  0  0  0  0
   -4.8740    0.3420   -0.9950 C   0  0  0  0  0  0  0  0  0  0  0  0
   -5.2020    0.9210   -2.2330 C   0  0  0  0  0  0  0  0  0  0  0  0
   -4.0610    1.1910   -2.8610 N   0  0  0  0  0  0  0  0  0  0  0  0
   -3.0640    0.8230   -2.1030 N   0  0  0  0  0  0  0  0  0  0  0  0
   -3.5140    0.2900   -0.9340 C   0  0  0  0  0  0  0  0  0  0  0  0
   -2.6420   -0.2620    0.0980 C   0  0  0  0  0  0  0  0  0  0  0  0
   -3.0720   -0.6540    1.3210 C   0  0  0  0  0  0  0  0  0  0  0  0
   -2.1370   -1.2160    2.2000 C   0  0  0  0  0  0  0  0  0  0  0  0
   -0.8120   -1.3720    1.8490 C   0  0  0  0  0  0  0  0  0  0  0  0
    0.0740   -1.9380    2.7540 O   0  0  0  0  0  0  0  0  0  0  0  0
   -0.3630   -0.9800    0.6200 C   0  0  0  0  0  0  0  0  0  0  0  0
    0.9610   -1.0600    0.1460 N   0  0  0  0  0  0  0  0  0  0  0  0
    1.1800   -1.1200   -1.3120 C   0  0  0  0  0  0  0  0  0  0  0  0
    2.1190   -1.0650    0.9610 C   0  0  0  0  0  0  0  0  0  0  0  0
    2.9400    0.1760    0.7910 C   0  0  0  0  0  0  0  0  0  0  0  0
    4.1820    0.1420    0.3610 C   0  0  0  0  0  0  0  0  0  0  0  0
    5.0440    1.2850    0.1700 N   0  0  0  0  0  0  0  0  0  0  0  0
    6.1900    0.9690   -0.2620 C   0  0  0  0  0  0  0  0  0  0  0  0
    7.3470    1.8950   -0.5780 C   0  0  0  0  0  0  0  0  0  0  0  0
    8.4970    1.5070    0.1900 N   0  0  0  0  0  0  0  0  0  0  0  0
    6.2580   -0.4380   -0.4230 N   0  0  0  0  0  0  0  0  0  0  0  0
    4.9880   -1.0020   -0.0330 C   0  0  0  0  0  0  0  0  0  0  0  0
    4.7050   -2.2220   -0.0520 O   0  0  0  0  0  0  0  0  0  0  0  0
   -1.3030   -0.4280   -0.2320 C   0  0  0  0  0  0  0  0  0  0  0  0
  2  1  1  6
  2  3  1  0
  2  4  1  0
  4  5  1  0
  4  8  2  0
  5  6  2  0
  6  7  1  0
  7  8  1  0
  8  9  1  0
  9 10  2  0
  9 27  1  0
 10 11  1  0
 11 12  2  0
 12 13  1  0
 12 14  1  0
 14 15  1  0
 14 27  2  0
 15 16  1  0
 15 17  1  0
 17 18  1  0
 18 19  2  3
 19 20  1  0
 19 25  1  0
 20 21  2  0
 21 22  1  0
 21 24  1  0
 22 23  1  0
 24 25  1  0
 25 26  2  0
M  CHG  1  23   1
M  END
