
     RDKit          3D

 27 29  0  0  0  0  0  0  0  0999 V2000
    5.8550    1.3180    1.4130 C   0  0  0  0  0  0  0  0  0  0  0  0
    6.4600    1.1210    0.2310 C   0  0  0  0  0  0  0  0  0  0  0  0
    7.9260    0.9370    0.1770 C   0  0  0  0  0  0  0  0  0  0  0  0
    8.4610    0.7960   -1.1460 N   0  0  0  0  0  0  0  0  0  0  0  0
    7.7690    0.7970   -2.2290 C   0  0  0  0  0  0  0  0  0  0  0  0
    6.3240    0.9560   -2.1480 C   0  0  0  0  0  0  0  0  0  0  0  0
    5.6940    1.1060   -0.9980 C   0  0  0  0  0  0  0  0  0  0  0  0
    4.2900    1.2640   -0.9970 N   0  0  0  0  0  0  0  0  0  0  0  0
    3.4310    0.3180   -0.3780 C   0  0  0  0  0  0  0  0  0  0  0  0
    3.8940   -0.7180    0.1940 O   0  0  0  0  0  0  0  0  0  0  0  0
    1.9600    0.6070   -0.4360 C   0  0  0  0  0  0  0  0  0  0  0  0
    1.2050   -0.4690    0.2830 C   0  0  0  0  0  0  0  0  0  0  0  0
   -0.2730   -0.2140    0.2490 C   0  0  0  0  0  0  0  0  0  0  0  0
   -0.6690    0.7810   -0.3940 O   0  0  0  0  0  0  0  0  0  0  0  0
   -1.1800   -1.0570    0.9110 N   0  0  0  0  0  0  0  0  0  0  0  0
   -2.5870   -0.8960    0.9250 C   0  0  0  0  0  0  0  0  0  0  0  0
   -3.3370   -1.5880    1.9010 C   0  0  0  0  0  0  0  0  0  0  0  0
   -4.7040   -1.4850    1.9550 C   0  0  0  0  0  0  0  0  0  0  0  0
   -5.4310   -0.7130    1.0760 C   0  0  0  0  0  0  0  0  0  0  0  0
   -6.8820   -0.6300    1.1740 C   0  0  0  0  0  0  0  0  0  0  0  0
   -7.6730   -0.4390    2.2510 N   0  0  0  0  0  0  0  0  0  0  0  0
   -8.9450   -0.4350    1.8940 N   0  0  0  0  0  0  0  0  0  0  0  0
   -9.0300   -0.6230    0.5660 C   0  0  0  0  0  0  0  0  0  0  0  0
   -7.7410   -0.7470    0.1080 C   0  0  0  0  0  0  0  0  0  0  0  0
   -7.3790   -0.9650   -1.2440 N   0  0  0  0  0  0  0  0  0  0  0  0
   -4.7120   -0.0340    0.1210 C   0  0  0  0  0  0  0  0  0  0  0  0
   -3.3110   -0.1310    0.0540 C   0  0  0  0  0  0  0  0  0  0  0  0
  1  2  2  0
  2  3  1  0
  2  7  1  0
  3  4  1  0
  4  5  2  0
  5  6  1  0
  6  7  2  0
  7  8  1  0
  8  9  1  0
  9 10  2  0
  9 11  1  0
 11 12  1  0
 12 13  1  0
 13 14  2  0
 13 15  1  0
 15 16  1  0
 16 17  2  0
 16 27  1  0
 17 18  1  0
 18 19  2  0
 19 20  1  0
 19 26  1  0
 20 21  2  0
 20 24  1  0
 21 22  1  0
 22 23  1  0
 23 24  2  0
 24 25  1  0
 26 27  2  0
M  CHG  1   4   1
M  END
