
     RDKit          3D

 27 29  0  0  0  0  0  0  0  0999 V2000
    3.7140    0.9840   -2.5580 C   0  0  0  0  0  0  0  0  0  0  0  0
    4.3990    0.4440   -1.5860 C   0  0  0  0  0  0  0  0  0  0  0  0
    5.6440    1.0670   -1.3110 O   0  0  0  0  0  0  0  0  0  0  0  0
    3.9660   -0.6980   -0.8190 C   0  0  0  0  0  0  0  0  0  0  0  0
    4.9180   -1.1730    0.2720 C   0  0  0  0  0  0  0  0  0  0  0  0
    6.2550   -1.5570   -0.3580 C   0  0  0  0  0  0  0  0  0  0  0  0
    2.8930   -1.3120   -0.9770 N   0  0  0  0  0  0  0  0  0  0  0  0
    1.8330   -1.2030   -1.8000 N   0  0  0  0  0  0  0  0  0  0  0  0
    0.5870   -0.5960   -1.4630 C   0  0  0  0  0  0  0  0  0  0  0  0
   -0.1960   -1.1270   -0.5500 C   0  0  0  0  0  0  0  0  0  0  0  0
    0.2820   -2.3950    0.1150 C   0  0  0  0  0  0  0  0  0  0  0  0
    0.3780   -2.0210    1.5780 C   0  0  0  0  0  0  0  0  0  0  0  0
    1.3090   -2.2310    2.5260 C   0  0  0  0  0  0  0  0  0  0  0  0
    0.8270   -1.6110    3.6470 N   0  0  0  0  0  0  0  0  0  0  0  0
   -0.3600   -1.0550    3.3520 N   0  0  0  0  0  0  0  0  0  0  0  0
   -0.6960   -1.2750    2.0810 C   0  0  0  0  0  0  0  0  0  0  0  0
   -1.8630   -0.9380    1.2520 C   0  0  0  0  0  0  0  0  0  0  0  0
   -1.4800   -0.5770   -0.1380 C   0  0  1  0  0  0  0  0  0  0  0  0
   -1.5840    0.8480   -0.3890 N   0  0  0  0  0  0  0  0  0  0  0  0
   -2.8300    1.4860   -0.2780 C   0  0  0  0  0  0  0  0  0  0  0  0
   -4.0020    0.8140   -0.0570 C   0  0  0  0  0  0  0  0  0  0  0  0
   -5.2080    1.4870    0.0240 C   0  0  0  0  0  0  0  0  0  0  0  0
   -6.3990    0.7450    0.2540 N   0  0  0  0  0  0  0  0  0  0  0  0
   -5.2870    2.8510   -0.1130 C   0  0  0  0  0  0  0  0  0  0  0  0
   -4.1210    3.5500   -0.3380 C   0  0  0  0  0  0  0  0  0  0  0  0
   -2.9160    2.8820   -0.4190 C   0  0  0  0  0  0  0  0  0  0  0  0
   -1.7700    3.6200   -0.6460 O   0  0  0  0  0  0  0  0  0  0  0  0
  1  2  2  0
  2  3  1  0
  2  4  1  0
  4  5  1  0
  4  7  2  3
  5  6  1  0
  7  8  1  0
  8  9  1  0
  9 10  2  3
 10 11  1  0
 10 18  1  0
 11 12  1  0
 12 13  1  0
 12 16  2  0
 13 14  2  0
 14 15  1  0
 15 16  1  0
 16 17  1  0
 17 18  1  0
 18 19  1  1
 19 20  1  0
 20 21  2  0
 20 26  1  0
 21 22  1  0
 22 23  1  0
 22 24  2  0
 24 25  1  0
 25 26  2  0
 26 27  1  0
M  CHG  1  23   1
M  END
