
     RDKit          3D

 29 32  0  0  0  0  0  0  0  0999 V2000
   -6.1250    0.6140   -1.9290 C   0  0  0  0  0  0  0  0  0  0  0  0
   -5.1770   -0.1290   -1.0630 C   0  0  0  0  0  0  0  0  0  0  0  0
   -5.7150   -1.1730   -0.3240 C   0  0  0  0  0  0  0  0  0  0  0  0
   -4.9650   -1.8660    0.5720 C   0  0  0  0  0  0  0  0  0  0  0  0
   -3.6440   -1.5080    0.7310 C   0  0  0  0  0  0  0  0  0  0  0  0
   -3.0550   -0.4850    0.0230 C   0  0  0  0  0  0  0  0  0  0  0  0
   -3.8470    0.2330   -0.9000 C   0  0  0  0  0  0  0  0  0  0  0  0
   -3.2640    1.3480   -1.6790 C   0  0  2  0  0  0  0  0  0  0  0  0
   -2.7960    2.4010   -0.6440 C   0  0  0  0  0  0  0  0  0  0  0  0
   -3.9790    1.9080   -2.8400 C   0  0  0  0  0  0  0  0  0  0  0  0
   -1.6300   -0.4130    0.3630 C   0  0  0  0  0  0  0  0  0  0  0  0
   -0.5240    0.2170   -0.3020 C   0  0  0  0  0  0  0  0  0  0  0  0
   -0.5060    0.7360   -1.4380 O   0  0  0  0  0  0  0  0  0  0  0  0
    0.7870    0.3000    0.3410 C   0  0  0  0  0  0  0  0  0  0  0  0
    1.0700    0.2410    1.6500 C   0  0  0  0  0  0  0  0  0  0  0  0
    2.3630    0.1820    2.1660 C   0  0  0  0  0  0  0  0  0  0  0  0
    3.4440    0.1840    1.3190 C   0  0  0  0  0  0  0  0  0  0  0  0
    3.1950    0.2490   -0.0470 C   0  0  0  0  0  0  0  0  0  0  0  0
    1.9060    0.3060   -0.5270 C   0  0  0  0  0  0  0  0  0  0  0  0
    4.3250    0.2230   -1.0420 C   0  0  1  0  0  0  0  0  0  0  0  0
    4.6060    1.5230   -1.3700 O   0  0  0  0  0  0  0  0  0  0  0  0
    5.5030   -0.4920   -0.3790 C   0  0  0  0  0  0  0  0  0  0  0  0
    5.8460    0.1350    0.9330 C   0  0  1  0  0  0  0  0  0  0  0  0
    6.9960   -0.6920    1.5120 C   0  0  0  0  0  0  0  0  0  0  0  0
    6.2980    1.5650    0.7540 C   0  0  0  0  0  0  0  0  0  0  0  0
    4.7380    0.1170    1.7860 O   0  0  0  0  0  0  0  0  0  0  0  0
   -1.4090   -1.4020    1.3030 C   0  0  0  0  0  0  0  0  0  0  0  0
   -2.6040   -2.1510    1.6250 C   0  0  2  0  0  0  0  0  0  0  0  0
   -2.5170   -3.6090    1.1750 C   0  0  0  0  0  0  0  0  0  0  0  0
  1  2  1  0
  2  3  2  0
  2  7  1  0
  3  4  1  0
  4  5  2  0
  5  6  1  0
  5 28  1  0
  6  7  2  0
  6 11  1  0
  7  8  1  0
  8  9  1  1
  8 10  1  0
 11 12  1  0
 11 27  2  0
 12 13  2  0
 12 14  1  0
 14 15  2  0
 14 19  1  0
 15 16  1  0
 16 17  2  0
 17 18  1  0
 17 26  1  0
 18 19  2  0
 18 20  1  0
 20 21  1  1
 20 22  1  0
 22 23  1  0
 23 24  1  1
 23 25  1  0
 23 26  1  0
 27 28  1  0
 28 29  1  6
M  END
