
     RDKit          3D

 29 32  0  0  0  0  0  0  0  0999 V2000
   -4.1670    4.1260   -0.0350 C   0  0  0  0  0  0  0  0  0  0  0  0
   -4.3360    2.6870    0.2440 C   0  0  0  0  0  0  0  0  0  0  0  0
   -5.4420    2.3100    0.9960 C   0  0  0  0  0  0  0  0  0  0  0  0
   -5.6140    0.9470    1.2750 C   0  0  0  0  0  0  0  0  0  0  0  0
   -4.7180    0.0130    0.8210 C   0  0  0  0  0  0  0  0  0  0  0  0
   -4.9840   -1.4220    1.0900 C   0  0  0  0  0  0  0  0  0  0  0  0
   -3.5970    0.4080    0.0560 C   0  0  0  0  0  0  0  0  0  0  0  0
   -2.6820   -0.6460   -0.3030 C   0  0  1  0  0  0  0  0  0  0  0  0
   -2.2840   -0.4970   -1.8200 C   0  0  0  0  0  0  0  0  0  0  0  0
   -1.9400   -1.9770   -2.1060 C   0  0  0  0  0  0  0  0  0  0  0  0
   -2.4030   -2.6270   -3.0100 O   0  0  0  0  0  0  0  0  0  0  0  0
   -0.9460   -2.5190   -1.1250 C   0  0  0  0  0  0  0  0  0  0  0  0
   -0.2940   -3.7670   -1.4130 C   0  0  0  0  0  0  0  0  0  0  0  0
    0.7900   -4.0940   -0.6890 C   0  0  0  0  0  0  0  0  0  0  0  0
    1.3210   -3.2510    0.3120 C   0  0  0  0  0  0  0  0  0  0  0  0
    0.6530   -2.0740    0.5310 C   0  0  0  0  0  0  0  0  0  0  0  0
    1.2600   -0.9330    1.3530 C   0  0  0  0  0  0  0  0  0  0  0  0
    2.4350   -0.6690    0.7830 O   0  0  0  0  0  0  0  0  0  0  0  0
    3.6050   -0.5930    0.2860 C   0  0  0  0  0  0  0  0  0  0  0  0
    4.3480   -1.6220    0.4090 O   0  0  0  0  0  0  0  0  0  0  0  0
    4.1200    0.6290   -0.4350 C   0  0  2  0  0  0  0  0  0  0  0  0
    3.1960    0.9680   -1.5460 C   0  0  0  0  0  0  0  0  0  0  0  0
    5.5350    0.4730   -0.8350 C   0  0  0  0  0  0  0  0  0  0  0  0
    6.2950    0.5520    0.4810 C   0  0  0  0  0  0  0  0  0  0  0  0
    5.6040    1.7370    1.1390 C   0  0  0  0  0  0  0  0  0  0  0  0
    4.2050    1.7440    0.5990 C   0  0  0  0  0  0  0  0  0  0  0  0
   -0.4950   -1.6700   -0.1480 C   0  0  0  0  0  0  0  0  0  0  0  0
   -1.2490   -0.4540    0.3320 C   0  0  0  0  0  0  0  0  0  0  0  0
   -3.4390    1.7240   -0.2100 C   0  0  0  0  0  0  0  0  0  0  0  0
  1  2  1  0
  2  3  2  0
  2 29  1  0
  3  4  1  0
  4  5  2  0
  5  6  1  0
  5  7  1  0
  8  7  1  1
  7 29  2  0
  8  9  1  0
  8 28  1  0
  9 10  1  0
 10 11  2  0
 10 12  1  0
 12 13  2  0
 12 27  1  0
 13 14  1  0
 14 15  2  0
 15 16  1  0
 16 17  1  0
 16 27  2  0
 17 18  1  0
 18 19  1  0
 19 20  2  0
 19 21  1  0
 21 22  1  6
 21 23  1  0
 21 26  1  0
 23 24  1  0
 24 25  1  0
 25 26  1  0
 27 28  1  0
M  END
