
     RDKit          3D

 31 34  0  0  0  0  0  0  0  0999 V2000
   -0.7640    2.9980    1.1650 C   0  0  0  0  0  0  0  0  0  0  0  0
   -0.5660    2.4840   -0.2400 C   0  0  0  0  0  0  0  0  0  0  0  0
    0.6270    1.6970   -0.2760 N   0  0  0  0  0  0  0  0  0  0  0  0
    1.8750    2.0690   -0.5250 C   0  0  0  0  0  0  0  0  0  0  0  0
    2.5120    3.3290   -0.8050 C   0  0  0  0  0  0  0  0  0  0  0  0
    3.8760    3.4470   -1.0510 N   0  0  0  0  0  0  0  0  0  0  0  0
    4.1770    4.6860   -1.2370 O   0  0  0  0  0  0  0  0  0  0  0  0
    3.1480    5.4400   -1.1440 N   0  0  0  0  0  0  0  0  0  0  0  0
    2.0810    4.5940   -0.8690 C   0  0  0  0  0  0  0  0  0  0  0  0
    0.8140    5.1440   -0.6900 N   0  0  0  0  0  0  0  0  0  0  0  0
    2.6040    0.8910   -0.4730 N   0  0  0  0  0  0  0  0  0  0  0  0
    1.8440   -0.1440   -0.2040 C   0  0  0  0  0  0  0  0  0  0  0  0
    2.1480   -1.5060   -0.0520 C   0  0  0  0  0  0  0  0  0  0  0  0
    3.5190   -1.9190   -0.2110 C   0  0  0  0  0  0  0  0  0  0  0  0
    4.6750   -2.2740   -0.3360 C   0  0  0  0  0  0  0  0  0  0  0  0
    6.0600   -2.7230   -0.4970 C   0  0  2  0  0  0  0  0  0  0  0  0
    6.1300   -4.1380   -1.0210 C   0  0  0  0  0  0  0  0  0  0  0  0
    6.7250   -2.6220    0.8620 C   0  0  0  0  0  0  0  0  0  0  0  0
    6.6680   -1.9000   -1.4390 O   0  0  0  0  0  0  0  0  0  0  0  0
    1.1540   -2.3230    0.2300 N   0  0  0  0  0  0  0  0  0  0  0  0
   -0.0970   -1.9200    0.3720 C   0  0  0  0  0  0  0  0  0  0  0  0
   -0.4060   -0.5790    0.2230 C   0  0  0  0  0  0  0  0  0  0  0  0
   -1.7050   -0.1700    0.3750 O   0  0  0  0  0  0  0  0  0  0  0  0
   -2.7360   -1.0850    0.6780 C   0  0  0  0  0  0  0  0  0  0  0  0
   -4.0490   -0.3330    0.7810 C   0  0  1  0  0  0  0  0  0  0  0  0
   -4.2940    0.3290   -0.5590 C   0  0  0  0  0  0  0  0  0  0  0  0
   -5.1280   -0.6470   -1.3830 C   0  0  0  0  0  0  0  0  0  0  0  0
   -6.4940   -0.7030   -0.7350 C   0  0  0  0  0  0  0  0  0  0  0  0
   -6.4340   -0.9160    0.6800 N   0  0  0  0  0  0  0  0  0  0  0  0
   -5.1250   -1.3010    1.1510 C   0  0  0  0  0  0  0  0  0  0  0  0
    0.5650    0.3330   -0.0690 C   0  0  0  0  0  0  0  0  0  0  0  0
  1  2  1  0
  2  3  1  0
  3  4  1  0
  3 31  1  0
  4  5  1  0
  4 11  2  0
  5  6  2  0
  5  9  1  0
  6  7  1  0
  7  8  1  0
  8  9  2  0
  9 10  1  0
 11 12  1  0
 12 13  2  0
 12 31  1  0
 13 14  1  0
 13 20  1  0
 14 15  3  0
 15 16  1  0
 16 17  1  6
 16 18  1  0
 16 19  1  0
 20 21  2  0
 21 22  1  0
 22 23  1  0
 22 31  2  0
 23 24  1  0
 25 24  1  6
 25 26  1  0
 25 30  1  0
 26 27  1  0
 27 28  1  0
 28 29  1  0
 29 30  1  0
M  CHG  1  29   1
M  END
