
     RDKit          3D

 29 32  0  0  0  0  0  0  0  0999 V2000
    7.1200    1.6550   -1.2150 C   0  0  0  0  0  0  0  0  0  0  0  0
    7.5610    0.5630   -0.2860 C   0  0  0  0  0  0  0  0  0  0  0  0
    6.9140   -0.7600   -0.5870 C   0  0  0  0  0  0  0  0  0  0  0  0
    5.4430   -0.6980   -0.4830 C   0  0  0  0  0  0  0  0  0  0  0  0
    4.6830   -0.6670   -1.6420 C   0  0  0  0  0  0  0  0  0  0  0  0
    3.3120   -0.6090   -1.6300 C   0  0  0  0  0  0  0  0  0  0  0  0
    2.6670   -0.5800   -0.4000 C   0  0  0  0  0  0  0  0  0  0  0  0
    1.1970   -0.4860   -0.4190 C   0  0  0  0  0  0  0  0  0  0  0  0
    0.3700   -1.2400    0.3180 C   0  0  0  0  0  0  0  0  0  0  0  0
    0.7230   -2.2770    1.2590 C   0  0  0  0  0  0  0  0  0  0  0  0
   -0.1360   -2.9070    1.8950 O   0  0  0  0  0  0  0  0  0  0  0  0
   -1.0280   -0.8490    0.0190 C   0  0  0  0  0  0  0  0  0  0  0  0
   -2.1310   -1.2900    0.5360 C   0  0  0  0  0  0  0  0  0  0  0  0
   -3.4520   -0.8220    0.1460 C   0  0  0  0  0  0  0  0  0  0  0  0
   -3.9320   -0.8150   -1.1460 C   0  0  0  0  0  0  0  0  0  0  0  0
   -5.1990   -0.3200   -1.4760 C   0  0  0  0  0  0  0  0  0  0  0  0
   -6.0130    0.1840   -0.4880 C   0  0  0  0  0  0  0  0  0  0  0  0
   -5.5550    0.1870    0.8140 C   0  0  0  0  0  0  0  0  0  0  0  0
   -4.3080   -0.3010    1.1340 C   0  0  0  0  0  0  0  0  0  0  0  0
   -6.4840    0.7450    1.8310 C   0  0  0  0  0  0  0  0  0  0  0  0
   -6.8780    2.1270    1.3160 C   0  0  0  0  0  0  0  0  0  0  0  0
   -7.3900    2.1120   -0.0870 C   0  0  0  0  0  0  0  0  0  0  0  0
   -7.3690    0.7370   -0.7250 C   0  0  0  0  0  0  0  0  0  0  0  0
   -0.9150    0.2120   -0.9690 C   0  0  0  0  0  0  0  0  0  0  0  0
   -1.8030    0.8760   -1.5400 O   0  0  0  0  0  0  0  0  0  0  0  0
    0.4430    0.3850   -1.1920 O   0  0  0  0  0  0  0  0  0  0  0  0
    3.4100   -0.6090    0.7510 C   0  0  0  0  0  0  0  0  0  0  0  0
    4.8070   -0.6680    0.7340 C   0  0  0  0  0  0  0  0  0  0  0  0
    5.5410   -0.6930    2.0350 C   0  0  0  0  0  0  0  0  0  0  0  0
  1  2  1  0
  2  3  1  0
  3  4  1  0
  4  5  2  0
  4 28  1  0
  5  6  1  0
  6  7  2  0
  7  8  1  0
  7 27  1  0
  8  9  2  0
  8 26  1  0
  9 10  1  0
  9 12  1  0
 10 11  2  0
 12 13  2  3
 12 24  1  0
 13 14  1  0
 14 15  2  0
 14 19  1  0
 15 16  1  0
 16 17  2  0
 17 18  1  0
 17 23  1  0
 18 19  2  0
 18 20  1  0
 20 21  1  0
 21 22  1  0
 22 23  1  0
 24 25  2  0
 24 26  1  0
 27 28  2  0
 28 29  1  0
M  END
