
     RDKit          3D

 49 53  0  0  0  0  0  0  0  0999 V2000
   -3.3860    3.7710    3.1360 C   0  0  0  0  0  0  0  0  0  0  0  0
   -2.0070    3.7050    2.5500 C   0  0  2  0  0  0  0  0  0  0  0  0
   -0.9960    3.3720    3.6320 C   0  0  0  0  0  0  0  0  0  0  0  0
   -1.6790    5.0920    2.0170 C   0  0  0  0  0  0  0  0  0  0  0  0
   -1.9870    2.7460    1.4640 N   0  0  0  0  0  0  0  0  0  0  0  0
   -2.3110    1.3800    1.6940 C   0  0  0  0  0  0  0  0  0  0  0  0
   -2.6060    1.0140    2.8450 O   0  0  0  0  0  0  0  0  0  0  0  0
   -2.2730    0.4510    0.5060 C   0  0  2  0  0  0  0  0  0  0  0  0
   -3.1700    1.0440   -0.5090 C   0  0  0  0  0  0  0  0  0  0  0  0
   -4.5920    0.5890   -0.5120 C   0  0  2  0  0  0  0  0  0  0  0  0
   -5.4580    1.1270    0.5700 C   0  0  0  0  0  0  0  0  0  0  0  0
   -6.8460    0.5410    0.3790 C   0  0  0  0  0  0  0  0  0  0  0  0
   -6.8060   -0.9730    0.4240 C   0  0  0  0  0  0  0  0  0  0  0  0
   -5.8920   -1.5440   -0.6220 C   0  0  0  0  0  0  0  0  0  0  0  0
   -4.5270   -0.9260   -0.5690 C   0  0  2  0  0  0  0  0  0  0  0  0
   -3.8550   -1.3800    0.6720 C   0  0  0  0  0  0  0  0  0  0  0  0
   -2.5120   -0.9050    0.8640 N   0  0  1  0  0  0  0  0  0  0  0  0
   -1.4860   -1.8190    0.4680 C   0  0  0  0  0  0  0  0  0  0  0  0
   -1.1460   -2.0010   -0.9450 C   0  0  1  0  0  0  0  0  0  0  0  0
   -0.6720   -0.8460   -1.5620 O   0  0  0  0  0  0  0  0  0  0  0  0
   -0.0280   -3.0410   -1.1680 C   0  0  2  0  0  0  0  0  0  0  0  0
   -0.5130   -4.4220   -1.0690 C   0  0  0  0  0  0  0  0  0  0  0  0
    0.4980   -5.4800   -1.2690 C   0  0  0  0  0  0  0  0  0  0  0  0
    1.2210   -5.9330   -0.1930 C   0  0  0  0  0  0  0  0  0  0  0  0
    2.1770   -6.9360   -0.3190 C   0  0  0  0  0  0  0  0  0  0  0  0
    2.4130   -7.4980   -1.5440 C   0  0  0  0  0  0  0  0  0  0  0  0
    1.7060   -7.0700   -2.6500 C   0  0  0  0  0  0  0  0  0  0  0  0
    0.7600   -6.0660   -2.4870 C   0  0  0  0  0  0  0  0  0  0  0  0
    1.2110   -2.6820   -0.5690 N   0  0  0  0  0  0  0  0  0  0  0  0
    2.1600   -1.7880   -1.1270 C   0  0  0  0  0  0  0  0  0  0  0  0
    1.8890   -1.2600   -2.2160 O   0  0  0  0  0  0  0  0  0  0  0  0
    3.4680   -1.4420   -0.4850 C   0  0  2  0  0  0  0  0  0  0  0  0
    3.4720   -1.9830    0.9040 C   0  0  0  0  0  0  0  0  0  0  0  0
    4.7540   -1.6640    1.6000 C   0  0  0  0  0  0  0  0  0  0  0  0
    4.9780   -2.0810    2.9160 N   0  0  0  0  0  0  0  0  0  0  0  0
    5.6350   -1.0160    0.9900 O   0  0  0  0  0  0  0  0  0  0  0  0
    3.8170   -0.0640   -0.6280 N   0  0  0  0  0  0  0  0  0  0  0  0
    4.5580    0.4980   -1.7150 C   0  0  0  0  0  0  0  0  0  0  0  0
    4.9260   -0.2380   -2.6320 O   0  0  0  0  0  0  0  0  0  0  0  0
    4.8720    1.9440   -1.7260 C   0  0  0  0  0  0  0  0  0  0  0  0
    5.3500    2.5600   -2.8610 C   0  0  0  0  0  0  0  0  0  0  0  0
    5.6900    3.9070   -2.8760 C   0  0  0  0  0  0  0  0  0  0  0  0
    5.5510    4.6700   -1.7240 C   0  0  0  0  0  0  0  0  0  0  0  0
    5.8880    6.0040   -1.6860 C   0  0  0  0  0  0  0  0  0  0  0  0
    5.7720    6.7730   -0.5540 C   0  0  0  0  0  0  0  0  0  0  0  0
    5.2850    6.1330    0.5880 C   0  0  0  0  0  0  0  0  0  0  0  0
    4.9400    4.7730    0.5560 C   0  0  0  0  0  0  0  0  0  0  0  0
    5.0710    4.0300   -0.6070 C   0  0  0  0  0  0  0  0  0  0  0  0
    4.7430    2.7010   -0.6170 N   0  0  0  0  0  0  0  0  0  0  0  0
  2  1  1  1
  2  3  1  0
  2  4  1  0
  2  5  1  0
  5  6  1  0
  6  7  2  0
  8  6  1  1
  8  9  1  0
  8 17  1  0
 10  9  1  1
 10 11  1  0
 10 15  1  0
 11 12  1  0
 12 13  1  0
 13 14  1  0
 15 14  1  1
 15 16  1  0
 16 17  1  0
 17 18  1  6
 18 19  1  0
 19 20  1  1
 19 21  1  0
 21 22  1  1
 21 29  1  0
 22 23  1  0
 23 24  2  0
 23 28  1  0
 24 25  1  0
 25 26  2  0
 26 27  1  0
 27 28  2  0
 29 30  1  0
 30 31  2  0
 30 32  1  0
 32 33  1  1
 32 37  1  0
 33 34  1  0
 34 35  1  0
 34 36  2  0
 37 38  1  0
 38 39  2  0
 38 40  1  0
 40 41  2  0
 40 49  1  0
 41 42  1  0
 42 43  2  0
 43 44  1  0
 43 48  1  0
 44 45  2  0
 45 46  1  0
 46 47  2  0
 47 48  1  0
 48 49  2  0
M  CHG  1  17   1
M  END
