
     RDKit          3D

 47 52  0  0  0  0  0  0  0  0999 V2000
   -2.6930   -1.6580   -2.9760 C   0  0  0  0  0  0  0  0  0  0  0  0
   -3.8660   -0.7850   -2.4960 C   0  0  2  0  0  0  0  0  0  0  0  0
   -3.8730    0.4550   -3.2130 N   0  0  0  0  0  0  0  0  0  0  0  0
   -4.7970    1.5090   -3.1170 C   0  0  0  0  0  0  0  0  0  0  0  0
   -5.3660    1.9150   -4.1970 O   0  0  0  0  0  0  0  0  0  0  0  0
   -5.1940    2.2200   -1.8760 C   0  0  1  0  0  0  0  0  0  0  0  0
   -6.4760    3.0310   -1.9300 C   0  0  0  0  0  0  0  0  0  0  0  0
   -6.4110    1.7630   -1.2120 C   0  0  1  0  0  0  0  0  0  0  0  0
   -7.0470    0.5380   -1.7970 C   0  0  0  0  0  0  0  0  0  0  0  0
   -7.0530   -0.6380   -0.8820 C   0  0  0  0  0  0  0  0  0  0  0  0
   -6.4820   -0.3290    0.4040 O   0  0  0  0  0  0  0  0  0  0  0  0
   -5.9040   -1.3010    1.2280 C   0  0  0  0  0  0  0  0  0  0  0  0
   -6.3750   -1.5600    2.5100 C   0  0  0  0  0  0  0  0  0  0  0  0
   -5.8380   -2.5100    3.3500 C   0  0  0  0  0  0  0  0  0  0  0  0
   -4.7820   -3.2550    2.9250 C   0  0  0  0  0  0  0  0  0  0  0  0
   -4.2990   -3.0050    1.6410 C   0  0  0  0  0  0  0  0  0  0  0  0
   -4.8250   -2.0580    0.7940 C   0  0  0  0  0  0  0  0  0  0  0  0
   -4.2590   -1.8940   -0.4540 O   0  0  0  0  0  0  0  0  0  0  0  0
   -3.7490   -0.7000   -1.0200 C   0  0  1  0  0  0  0  0  0  0  0  0
   -2.2790   -0.6670   -0.6690 C   0  0  0  0  0  0  0  0  0  0  0  0
   -1.7760   -1.5280    0.0840 O   0  0  0  0  0  0  0  0  0  0  0  0
   -1.4500    0.3480   -1.1940 N   0  0  0  0  0  0  0  0  0  0  0  0
   -0.0480    0.3970   -0.8570 C   0  0  0  0  0  0  0  0  0  0  0  0
    0.1850    0.6190    0.6260 C   0  0  2  0  0  0  0  0  0  0  0  0
   -0.4420    1.9380    0.9610 C   0  0  0  0  0  0  0  0  0  0  0  0
   -0.3900    2.1980    2.4660 C   0  0  0  0  0  0  0  0  0  0  0  0
    1.0330    2.0600    2.8980 C   0  0  0  0  0  0  0  0  0  0  0  0
    1.9350    1.7690    1.7190 C   0  0  0  0  0  0  0  0  0  0  0  0
    1.5840    0.5930    0.9660 N   0  0  1  0  0  0  0  0  0  0  0  0
    1.9140   -0.5400    1.7910 C   0  0  0  0  0  0  0  0  0  0  0  0
    3.3530   -0.8210    1.7660 C   0  0  0  0  0  0  0  0  0  0  0  0
    3.8560   -1.7570    2.4830 O   0  0  0  0  0  0  0  0  0  0  0  0
    4.2620   -0.1110    0.9800 N   0  0  0  0  0  0  0  0  0  0  0  0
    5.7050   -0.4270    1.0150 C   0  0  1  0  0  0  0  0  0  0  0  0
    6.0460   -1.5230    0.0720 C   0  0  0  0  0  0  0  0  0  0  0  0
    7.0010   -2.4650    0.3900 C   0  0  0  0  0  0  0  0  0  0  0  0
    7.2960   -3.5040   -0.5030 C   0  0  0  0  0  0  0  0  0  0  0  0
    6.6330   -3.5910   -1.7070 C   0  0  0  0  0  0  0  0  0  0  0  0
    5.6850   -2.6490   -2.0140 C   0  0  0  0  0  0  0  0  0  0  0  0
    5.3840   -1.6090   -1.1280 C   0  0  0  0  0  0  0  0  0  0  0  0
    6.4790    0.8060    0.7860 C   0  0  0  0  0  0  0  0  0  0  0  0
    6.1410    1.5730   -0.3120 C   0  0  0  0  0  0  0  0  0  0  0  0
    6.8270    2.7160   -0.5710 C   0  0  0  0  0  0  0  0  0  0  0  0
    7.8640    3.1350    0.2400 C   0  0  0  0  0  0  0  0  0  0  0  0
    8.2050    2.3900    1.3210 C   0  0  0  0  0  0  0  0  0  0  0  0
    7.5100    1.2080    1.6050 C   0  0  0  0  0  0  0  0  0  0  0  0
    7.9100    0.5030    2.7120 O   0  0  0  0  0  0  0  0  0  0  0  0
  2  1  1  6
  2  3  1  0
  2 19  1  0
  3  4  1  0
  4  5  2  0
  4  6  1  0
  6  7  1  6
  6  8  1  0
  8  7  1  6
  8  9  1  0
  9 10  1  0
 10 11  1  0
 11 12  1  0
 12 13  2  0
 12 17  1  0
 13 14  1  0
 14 15  2  0
 15 16  1  0
 16 17  2  0
 17 18  1  0
 18 19  1  0
 19 20  1  6
 20 21  2  0
 20 22  1  0
 22 23  1  0
 24 23  1  6
 24 25  1  0
 24 29  1  0
 25 26  1  0
 26 27  1  0
 27 28  1  0
 28 29  1  0
 29 30  1  1
 30 31  1  0
 31 32  2  0
 31 33  1  0
 34 33  1  6
 34 35  1  0
 34 41  1  0
 35 36  2  0
 35 40  1  0
 36 37  1  0
 37 38  2  0
 38 39  1  0
 39 40  2  0
 41 42  2  0
 41 46  1  0
 42 43  1  0
 43 44  2  0
 44 45  1  0
 45 46  2  0
 46 47  1  0
M  CHG  1  29   1
M  END
