
     RDKit          3D

 48 53  0  0  0  0  0  0  0  0999 V2000
   10.4980    0.6560    1.4990 C   0  0  0  0  0  0  0  0  0  0  0  0
    9.7830    1.5590    2.2380 O   0  0  0  0  0  0  0  0  0  0  0  0
    8.4370    1.6090    1.9610 C   0  0  0  0  0  0  0  0  0  0  0  0
    8.1070    1.9900    0.5320 C   0  0  0  0  0  0  0  0  0  0  0  0
    6.6610    2.0120    0.3560 N   0  0  0  0  0  0  0  0  0  0  0  0
    6.2560    1.7860   -1.0160 C   0  0  2  0  0  0  0  0  0  0  0  0
    5.8670    3.0480   -1.7150 C   0  0  0  0  0  0  0  0  0  0  0  0
    5.1290    2.7790   -3.0010 C   0  0  0  0  0  0  0  0  0  0  0  0
    5.3910    1.3650   -3.4910 C   0  0  0  0  0  0  0  0  0  0  0  0
    4.8850    0.3530   -2.4820 C   0  0  0  0  0  0  0  0  0  0  0  0
    5.2160    0.7160   -1.0530 C   0  0  2  0  0  0  0  0  0  0  0  0
    3.9670    1.0950   -0.3600 C   0  0  0  0  0  0  0  0  0  0  0  0
    3.7890    2.2520    0.1260 O   0  0  0  0  0  0  0  0  0  0  0  0
    2.8910    0.1310   -0.2220 C   0  0  0  0  0  0  0  0  0  0  0  0
    1.6910    0.4900    0.3800 C   0  0  0  0  0  0  0  0  0  0  0  0
    0.6590   -0.4110    0.5330 C   0  0  0  0  0  0  0  0  0  0  0  0
    0.7610   -1.7200    0.0970 C   0  0  0  0  0  0  0  0  0  0  0  0
   -0.3380   -2.6320    0.2840 C   0  0  0  0  0  0  0  0  0  0  0  0
   -0.3290   -3.8240   -0.1300 O   0  0  0  0  0  0  0  0  0  0  0  0
   -1.4820   -2.2310    0.9460 O   0  0  0  0  0  0  0  0  0  0  0  0
   -2.5800   -3.0810    1.1500 C   0  0  2  0  0  0  0  0  0  0  0  0
   -3.8540   -2.5810    0.5430 C   0  0  0  0  0  0  0  0  0  0  0  0
   -4.8780   -3.3160    0.5680 O   0  0  0  0  0  0  0  0  0  0  0  0
   -3.9130   -1.2950   -0.0540 N   0  0  0  0  0  0  0  0  0  0  0  0
   -5.0650   -0.7250   -0.6760 C   0  0  0  0  0  0  0  0  0  0  0  0
   -6.1640   -1.4390   -1.0250 C   0  0  0  0  0  0  0  0  0  0  0  0
   -7.2400   -0.8300   -1.6790 C   0  0  0  0  0  0  0  0  0  0  0  0
   -7.2030    0.5120   -1.9820 C   0  0  0  0  0  0  0  0  0  0  0  0
   -6.0930    1.2570   -1.6340 C   0  0  0  0  0  0  0  0  0  0  0  0
   -6.0820    2.6130   -1.9430 C   0  0  0  0  0  0  0  0  0  0  0  0
   -4.9760    3.3530   -1.5900 C   0  0  0  0  0  0  0  0  0  0  0  0
   -3.9100    2.7640   -0.9460 C   0  0  0  0  0  0  0  0  0  0  0  0
   -3.9420    1.4230   -0.6490 C   0  0  0  0  0  0  0  0  0  0  0  0
   -5.0120    0.6490   -0.9780 C   0  0  0  0  0  0  0  0  0  0  0  0
   -7.2270    3.2200   -2.6090 C   0  0  0  0  0  0  0  0  0  0  0  0
   -7.1820    4.4390   -2.8720 O   0  0  0  0  0  0  0  0  0  0  0  0
   -8.3600    2.4360   -2.9450 N   0  0  0  0  0  0  0  0  0  0  0  0
   -9.4870    3.0920   -3.5580 C   0  0  0  0  0  0  0  0  0  0  0  0
   -8.4000    1.0360   -2.6880 C   0  0  0  0  0  0  0  0  0  0  0  0
   -2.7990   -3.4040    2.5790 C   0  0  0  0  0  0  0  0  0  0  0  0
   -3.1190   -4.6240    3.0690 C   0  0  0  0  0  0  0  0  0  0  0  0
   -3.2860   -4.8250    4.4160 C   0  0  0  0  0  0  0  0  0  0  0  0
   -3.1380   -3.7960    5.3430 C   0  0  0  0  0  0  0  0  0  0  0  0
   -3.3120   -4.0040    6.8050 C   0  0  0  0  0  0  0  0  0  0  0  0
   -2.8130   -2.5670    4.8150 C   0  0  0  0  0  0  0  0  0  0  0  0
   -2.6410   -2.3430    3.4700 C   0  0  0  0  0  0  0  0  0  0  0  0
    1.9520   -2.0820   -0.5010 C   0  0  0  0  0  0  0  0  0  0  0  0
    3.0040   -1.1700   -0.6580 C   0  0  0  0  0  0  0  0  0  0  0  0
  1  2  1  0
  2  3  1  0
  3  4  1  0
  4  5  1  0
  6  5  1  1
  6  7  1  0
  6 11  1  0
  7  8  1  0
  8  9  1  0
  9 10  1  0
 10 11  1  0
 11 12  1  6
 12 13  2  0
 12 14  1  0
 14 15  2  0
 14 48  1  0
 15 16  1  0
 16 17  2  0
 17 18  1  0
 17 47  1  0
 18 19  2  0
 18 20  1  0
 21 20  1  1
 21 22  1  0
 21 40  1  0
 22 23  2  0
 22 24  1  0
 24 25  1  0
 25 26  2  0
 25 34  1  0
 26 27  1  0
 27 28  2  0
 28 29  1  0
 28 39  1  0
 29 30  2  0
 29 34  1  0
 30 31  1  0
 30 35  1  0
 31 32  2  0
 32 33  1  0
 33 34  2  0
 35 36  2  0
 35 37  1  0
 37 38  1  0
 37 39  1  0
 40 41  2  0
 40 46  1  0
 41 42  1  0
 42 43  2  0
 43 44  1  0
 43 45  1  0
 45 46  2  0
 47 48  2  0
M  CHG  1   5   1
M  END
