
     RDKit          3D

 48 53  0  0  0  0  0  0  0  0999 V2000
    3.6730    1.4810    0.8910 C   0  0  0  0  0  0  0  0  0  0  0  0
    4.9460    0.9350    0.6190 O   0  0  0  0  0  0  0  0  0  0  0  0
    5.0050   -0.3090    0.0000 C   0  0  0  0  0  0  0  0  0  0  0  0
    3.8470   -0.9670   -0.3260 C   0  0  0  0  0  0  0  0  0  0  0  0
    3.8340   -2.2030   -0.9400 C   0  0  0  0  0  0  0  0  0  0  0  0
    2.6750   -2.8770   -1.2730 O   0  0  0  0  0  0  0  0  0  0  0  0
    1.3990   -2.4380   -1.0990 C   0  0  0  0  0  0  0  0  0  0  0  0
    0.6970   -2.5760    0.1020 C   0  0  0  0  0  0  0  0  0  0  0  0
   -0.5920   -2.1320    0.2610 C   0  0  0  0  0  0  0  0  0  0  0  0
   -1.2510   -1.5210   -0.7890 C   0  0  0  0  0  0  0  0  0  0  0  0
   -2.6470   -1.0570   -0.6270 C   0  0  0  0  0  0  0  0  0  0  0  0
   -3.1650    0.0230   -1.2950 C   0  0  0  0  0  0  0  0  0  0  0  0
   -4.4790    0.4280   -1.1200 C   0  0  0  0  0  0  0  0  0  0  0  0
   -5.3310   -0.2360   -0.2630 C   0  0  0  0  0  0  0  0  0  0  0  0
   -6.7250    0.1560   -0.0620 C   0  0  0  0  0  0  0  0  0  0  0  0
   -7.4300    0.7050   -1.0980 C   0  0  0  0  0  0  0  0  0  0  0  0
   -8.7780    1.1010   -0.9500 C   0  0  0  0  0  0  0  0  0  0  0  0
   -9.4270    0.9460    0.2420 C   0  0  0  0  0  0  0  0  0  0  0  0
  -10.7340    1.3290    0.4070 N   0  0  1  0  0  0  0  0  0  0  0  0
  -11.3010    1.9150   -0.7720 C   0  0  0  0  0  0  0  0  0  0  0  0
  -11.8780    0.7300   -1.5180 C   0  0  0  0  0  0  0  0  0  0  0  0
  -11.9300   -0.4100   -0.4850 C   0  0  0  0  0  0  0  0  0  0  0  0
  -11.7330    0.3910    0.7630 C   0  0  2  0  0  0  0  0  0  0  0  0
  -13.0290    1.2130    0.9290 C   0  0  0  0  0  0  0  0  0  0  0  0
  -11.5910   -0.3800    2.0090 C   0  0  0  0  0  0  0  0  0  0  0  0
   -8.6680    0.3820    1.2700 C   0  0  0  0  0  0  0  0  0  0  0  0
   -7.3620   -0.0060    1.1430 C   0  0  0  0  0  0  0  0  0  0  0  0
   -4.8010   -1.3210    0.4060 C   0  0  0  0  0  0  0  0  0  0  0  0
   -3.4960   -1.7270    0.2340 C   0  0  0  0  0  0  0  0  0  0  0  0
   -0.5660   -1.3800   -1.9740 C   0  0  0  0  0  0  0  0  0  0  0  0
    0.7270   -1.8250   -2.1340 C   0  0  0  0  0  0  0  0  0  0  0  0
    5.0520   -2.7630   -1.2230 C   0  0  0  0  0  0  0  0  0  0  0  0
    6.2430   -2.0950   -0.8920 C   0  0  0  0  0  0  0  0  0  0  0  0
    6.2680   -0.8670   -0.2790 C   0  0  0  0  0  0  0  0  0  0  0  0
    7.4020   -0.1450    0.1270 N   0  0  0  0  0  0  0  0  0  0  0  0
    8.7150   -0.4840   -0.1690 C   0  0  0  0  0  0  0  0  0  0  0  0
    8.9770   -1.5160   -0.8790 O   0  0  0  0  0  0  0  0  0  0  0  0
    9.8540    0.2320    0.2580 N   0  0  0  0  0  0  0  0  0  0  0  0
    9.7230    1.3890    1.0880 C   0  0  0  0  0  0  0  0  0  0  0  0
   10.9090    1.5030    2.0110 C   0  0  0  0  0  0  0  0  0  0  0  0
   11.0280    2.5510    2.6660 O   0  0  0  0  0  0  0  0  0  0  0  0
   11.8160    0.4870    2.1170 O   0  0  0  0  0  0  0  0  0  0  0  0
   12.0680   -0.3960    1.0720 C   0  0  2  0  0  0  0  0  0  0  0  0
   13.5020   -0.2990    0.6150 C   0  0  0  0  0  0  0  0  0  0  0  0
   13.8440    1.0640    0.1460 C   0  0  0  0  0  0  0  0  0  0  0  0
   15.1870    1.3540   -0.3990 C   0  0  0  0  0  0  0  0  0  0  0  0
   13.0190    1.9560    0.2040 O   0  0  0  0  0  0  0  0  0  0  0  0
   11.1760   -0.2040   -0.1390 C   0  0  0  0  0  0  0  0  0  0  0  0
  1  2  1  0
  2  3  1  0
  3  4  2  0
  3 34  1  0
  4  5  1  0
  5  6  1  0
  5 32  2  0
  6  7  1  0
  7  8  2  0
  7 31  1  0
  8  9  1  0
  9 10  2  0
 10 11  1  0
 10 30  1  0
 11 12  2  0
 11 29  1  0
 12 13  1  0
 13 14  2  0
 14 15  1  0
 14 28  1  0
 15 16  2  0
 15 27  1  0
 16 17  1  0
 17 18  2  0
 19 18  1  6
 18 26  1  0
 19 20  1  0
 19 23  1  0
 20 21  1  0
 21 22  1  0
 22 23  1  0
 23 24  1  1
 23 25  1  0
 26 27  2  0
 28 29  2  0
 30 31  2  0
 32 33  1  0
 33 34  2  0
 34 35  1  0
 35 36  1  0
 36 37  2  0
 36 38  1  0
 38 39  1  0
 38 48  1  0
 39 40  1  0
 40 41  2  0
 40 42  1  0
 42 43  1  0
 43 44  1  6
 43 48  1  0
 44 45  1  0
 45 46  1  0
 45 47  2  0
M  CHG  1  19   1
M  END
