
     RDKit          3D

 48 53  0  0  0  0  0  0  0  0999 V2000
  -10.5590    1.6890    1.7030 C   0  0  0  0  0  0  0  0  0  0  0  0
   -9.1970    2.0370    1.6330 O   0  0  0  0  0  0  0  0  0  0  0  0
   -8.9420    2.8520    0.5420 C   0  0  0  0  0  0  0  0  0  0  0  0
   -7.4710    3.1910    0.5150 C   0  0  0  0  0  0  0  0  0  0  0  0
   -6.6430    1.9940    0.4020 N   0  0  0  0  0  0  0  0  0  0  0  0
   -5.4270    2.3760   -0.2420 C   0  0  2  0  0  0  0  0  0  0  0  0
   -5.6410    2.5900   -1.7490 C   0  0  0  0  0  0  0  0  0  0  0  0
   -6.2430    1.3400   -2.3510 C   0  0  0  0  0  0  0  0  0  0  0  0
   -5.4030    0.1170   -2.0520 C   0  0  0  0  0  0  0  0  0  0  0  0
   -4.9740    0.0450   -0.6270 C   0  0  0  0  0  0  0  0  0  0  0  0
   -4.3190    1.3420   -0.1640 C   0  0  2  0  0  0  0  0  0  0  0  0
   -3.7740    1.1520    1.1870 C   0  0  0  0  0  0  0  0  0  0  0  0
   -4.2990    1.6900    2.1670 O   0  0  0  0  0  0  0  0  0  0  0  0
   -2.5990    0.3110    1.3850 C   0  0  0  0  0  0  0  0  0  0  0  0
   -2.1930    0.0000    2.6880 C   0  0  0  0  0  0  0  0  0  0  0  0
   -1.0750   -0.7620    2.9370 C   0  0  0  0  0  0  0  0  0  0  0  0
   -0.2940   -1.2590    1.9160 C   0  0  0  0  0  0  0  0  0  0  0  0
    0.8770   -2.0860    2.1850 C   0  0  0  0  0  0  0  0  0  0  0  0
    1.1190   -2.4120    3.3810 O   0  0  0  0  0  0  0  0  0  0  0  0
    1.7330   -2.5290    1.2090 O   0  0  0  0  0  0  0  0  0  0  0  0
    2.8700   -3.3360    1.4050 C   0  0  2  0  0  0  0  0  0  0  0  0
    4.1260   -2.5490    1.0980 C   0  0  0  0  0  0  0  0  0  0  0  0
    5.2130   -3.1390    1.1590 O   0  0  0  0  0  0  0  0  0  0  0  0
    4.0170   -1.1780    0.7580 N   0  0  0  0  0  0  0  0  0  0  0  0
    5.0860   -0.3110    0.4400 C   0  0  0  0  0  0  0  0  0  0  0  0
    6.3740   -0.7630    0.2310 C   0  0  0  0  0  0  0  0  0  0  0  0
    7.4090    0.0830   -0.1100 C   0  0  0  0  0  0  0  0  0  0  0  0
    7.2030    1.4540   -0.2630 C   0  0  0  0  0  0  0  0  0  0  0  0
    5.9300    1.8980   -0.0560 C   0  0  0  0  0  0  0  0  0  0  0  0
    5.7270    3.2630   -0.2050 C   0  0  0  0  0  0  0  0  0  0  0  0
    4.4500    3.7580   -0.0010 C   0  0  0  0  0  0  0  0  0  0  0  0
    3.4110    2.9280    0.3390 C   0  0  0  0  0  0  0  0  0  0  0  0
    3.5990    1.5620    0.4910 C   0  0  0  0  0  0  0  0  0  0  0  0
    4.8630    1.0530    0.2920 C   0  0  0  0  0  0  0  0  0  0  0  0
    6.8380    4.1270   -0.5540 C   0  0  0  0  0  0  0  0  0  0  0  0
    6.6440    5.3650   -0.6860 O   0  0  0  0  0  0  0  0  0  0  0  0
    8.1640    3.6540   -0.7610 N   0  0  0  0  0  0  0  0  0  0  0  0
    9.2520    4.5630   -1.0830 C   0  0  0  0  0  0  0  0  0  0  0  0
    8.3820    2.2410   -0.6390 C   0  0  0  0  0  0  0  0  0  0  0  0
    2.8580   -4.5160    0.5250 C   0  0  0  0  0  0  0  0  0  0  0  0
    2.5820   -4.4130   -0.8320 C   0  0  0  0  0  0  0  0  0  0  0  0
    2.5900   -5.5330   -1.6190 C   0  0  0  0  0  0  0  0  0  0  0  0
    2.8690   -6.7880   -1.1040 C   0  0  0  0  0  0  0  0  0  0  0  0
    2.8740   -7.9850   -1.9920 C   0  0  0  0  0  0  0  0  0  0  0  0
    3.1440   -6.8980    0.2420 C   0  0  0  0  0  0  0  0  0  0  0  0
    3.1320   -5.7550    1.0280 C   0  0  0  0  0  0  0  0  0  0  0  0
   -0.6920   -0.9530    0.6290 C   0  0  0  0  0  0  0  0  0  0  0  0
   -1.8190   -0.1850    0.3780 C   0  0  0  0  0  0  0  0  0  0  0  0
  1  2  1  0
  2  3  1  0
  3  4  1  0
  4  5  1  0
  6  5  1  6
  6  7  1  0
  6 11  1  0
  7  8  1  0
  8  9  1  0
  9 10  1  0
 10 11  1  0
 11 12  1  1
 12 13  2  0
 12 14  1  0
 14 15  2  0
 14 48  1  0
 15 16  1  0
 16 17  2  0
 17 18  1  0
 17 47  1  0
 18 19  2  0
 18 20  1  0
 21 20  1  6
 21 22  1  0
 21 40  1  0
 22 23  2  0
 22 24  1  0
 24 25  1  0
 25 26  2  0
 25 34  1  0
 26 27  1  0
 27 28  2  0
 28 29  1  0
 28 39  1  0
 29 30  2  0
 29 34  1  0
 30 31  1  0
 30 35  1  0
 31 32  2  0
 32 33  1  0
 33 34  2  0
 35 36  2  0
 35 37  1  0
 37 38  1  0
 37 39  1  0
 40 41  2  0
 40 46  1  0
 41 42  1  0
 42 43  2  0
 43 44  1  0
 43 45  1  0
 45 46  2  0
 47 48  2  0
M  CHG  1   5   1
M  END
