
     RDKit          3D

 48 52  0  0  0  0  0  0  0  0999 V2000
    9.3050   -5.6280   -2.4890 C   0  0  0  0  0  0  0  0  0  0  0  0
    8.4010   -4.6390   -1.8590 C   0  0  0  0  0  0  0  0  0  0  0  0
    8.3340   -4.4790   -0.4920 C   0  0  0  0  0  0  0  0  0  0  0  0
    7.4740   -3.5380    0.0590 C   0  0  0  0  0  0  0  0  0  0  0  0
    6.6620   -2.7360   -0.7150 C   0  0  0  0  0  0  0  0  0  0  0  0
    5.7940   -1.7740   -0.1190 N   0  0  0  0  0  0  0  0  0  0  0  0
    5.6810   -0.3730   -0.4610 C   0  0  0  0  0  0  0  0  0  0  0  0
    6.3260    0.1950   -1.3520 O   0  0  0  0  0  0  0  0  0  0  0  0
    4.6520    0.1880    0.4680 C   0  0  0  0  0  0  0  0  0  0  0  0
    4.5870    1.4090    0.8820 C   0  0  0  0  0  0  0  0  0  0  0  0
    5.4820    2.4800    0.5400 C   0  0  0  0  0  0  0  0  0  0  0  0
    6.4700    2.3480   -0.2040 O   0  0  0  0  0  0  0  0  0  0  0  0
    5.1780    3.7750    1.1140 N   0  0  0  0  0  0  0  0  0  0  0  0
    4.0340    3.9870    1.9750 C   0  0  0  0  0  0  0  0  0  0  0  0
    6.0610    4.8640    0.7980 C   0  0  0  0  0  0  0  0  0  0  0  0
    3.8260   -0.9760    0.7660 C   0  0  2  0  0  0  0  0  0  0  0  0
    2.8970   -0.9370    1.8820 C   0  0  0  0  0  0  0  0  0  0  0  0
    1.7770   -0.0000    1.9260 C   0  0  0  0  0  0  0  0  0  0  0  0
    0.8290   -0.2040    0.7380 C   0  0  0  0  0  0  0  0  0  0  0  0
   -0.2220    0.8410    0.8680 C   0  0  0  0  0  0  0  0  0  0  0  0
    0.0180    1.8180    1.6550 O   0  0  0  0  0  0  0  0  0  0  0  0
   -1.4350    0.7660    0.1520 N   0  0  0  0  0  0  0  0  0  0  0  0
   -1.6880   -0.3550   -0.6810 C   0  0  0  0  0  0  0  0  0  0  0  0
   -3.1380   -0.6220   -0.9790 C   0  0  0  0  0  0  0  0  0  0  0  0
   -4.0330    0.3050   -0.2510 C   0  0  0  0  0  0  0  0  0  0  0  0
   -5.0740   -0.1040    0.3930 C   0  0  0  0  0  0  0  0  0  0  0  0
   -5.5900   -1.4360    0.5600 C   0  0  0  0  0  0  0  0  0  0  0  0
   -6.9430   -1.6390    0.2860 C   0  0  0  0  0  0  0  0  0  0  0  0
   -7.5190   -2.8770    0.4540 C   0  0  0  0  0  0  0  0  0  0  0  0
   -6.7750   -3.9480    0.8980 C   0  0  0  0  0  0  0  0  0  0  0  0
   -5.4440   -3.7560    1.1710 C   0  0  0  0  0  0  0  0  0  0  0  0
   -4.6830   -4.8510    1.6270 N   0  0  0  0  0  0  0  0  0  0  0  0
   -4.8490   -2.4910    1.0010 C   0  0  0  0  0  0  0  0  0  0  0  0
   -3.6820    1.7650   -0.2320 C   0  0  2  0  0  0  0  0  0  0  0  0
   -4.5680    2.4790    0.5770 O   0  0  0  0  0  0  0  0  0  0  0  0
   -3.6660    2.3790   -1.5900 C   0  0  0  0  0  0  0  0  0  0  0  0
   -4.9550    2.4020   -2.3480 C   0  0  0  0  0  0  0  0  0  0  0  0
   -6.0060    3.2260   -1.6530 C   0  0  0  0  0  0  0  0  0  0  0  0
   -6.9710    2.6560   -0.8740 C   0  0  0  0  0  0  0  0  0  0  0  0
   -7.9030    3.4250   -0.2130 C   0  0  0  0  0  0  0  0  0  0  0  0
   -7.8490    4.7940   -0.3510 C   0  0  0  0  0  0  0  0  0  0  0  0
   -6.8720    5.3830   -1.1420 C   0  0  0  0  0  0  0  0  0  0  0  0
   -5.9550    4.5950   -1.7890 C   0  0  0  0  0  0  0  0  0  0  0  0
   -2.3090    1.9130    0.3650 C   0  0  0  0  0  0  0  0  0  0  0  0
    4.8870   -2.0420    0.9420 C   0  0  0  0  0  0  0  0  0  0  0  0
    4.9100   -2.9210    1.8290 O   0  0  0  0  0  0  0  0  0  0  0  0
    6.7480   -2.9180   -2.0880 C   0  0  0  0  0  0  0  0  0  0  0  0
    7.5950   -3.8450   -2.6570 C   0  0  0  0  0  0  0  0  0  0  0  0
  1  2  1  0
  2  3  2  0
  2 48  1  0
  3  4  1  0
  4  5  2  0
  5  6  1  0
  5 47  1  0
  6  7  1  0
  6 45  1  0
  7  8  2  0
  7  9  1  0
  9 10  2  3
  9 16  1  0
 10 11  1  0
 11 12  2  0
 11 13  1  0
 13 14  1  0
 13 15  1  0
 16 17  1  1
 16 45  1  0
 17 18  1  0
 18 19  1  0
 19 20  1  0
 20 21  2  0
 20 22  1  0
 22 23  1  0
 22 44  1  0
 23 24  1  0
 24 25  1  0
 25 26  2  3
 25 34  1  0
 26 27  1  0
 27 28  2  0
 27 33  1  0
 28 29  1  0
 29 30  2  0
 30 31  1  0
 31 32  1  0
 31 33  2  0
 34 35  1  1
 34 36  1  0
 34 44  1  0
 36 37  1  0
 37 38  1  0
 38 39  2  0
 38 43  1  0
 39 40  1  0
 40 41  2  0
 41 42  1  0
 42 43  2  0
 45 46  2  0
 47 48  2  0
M  CHG  1  32   1
M  END
