
     RDKit          3D

 47 51  0  0  0  0  0  0  0  0999 V2000
   13.1600    1.9190    2.2520 C   0  0  0  0  0  0  0  0  0  0  0  0
   11.9750    1.2730    1.8420 O   0  0  0  0  0  0  0  0  0  0  0  0
   11.9230    0.0720    1.1540 C   0  0  0  0  0  0  0  0  0  0  0  0
   13.0630   -0.6050    0.8050 C   0  0  0  0  0  0  0  0  0  0  0  0
   13.0610   -1.7890    0.1270 C   0  0  0  0  0  0  0  0  0  0  0  0
   11.8090   -2.3010   -0.2080 C   0  0  0  0  0  0  0  0  0  0  0  0
   10.6440   -1.6520    0.1250 C   0  0  0  0  0  0  0  0  0  0  0  0
   10.7070   -0.4660    0.8060 C   0  0  0  0  0  0  0  0  0  0  0  0
    9.5220    0.2610    1.1970 C   0  0  0  0  0  0  0  0  0  0  0  0
    9.4480    0.7160    2.5090 C   0  0  0  0  0  0  0  0  0  0  0  0
    8.3450    1.4150    2.9190 C   0  0  0  0  0  0  0  0  0  0  0  0
    7.3020    1.6820    2.0690 C   0  0  0  0  0  0  0  0  0  0  0  0
    7.3800    1.2260    0.7630 C   0  0  0  0  0  0  0  0  0  0  0  0
    6.2500    1.5360   -0.1350 C   0  0  0  0  0  0  0  0  0  0  0  0
    5.1870    0.4380   -0.0590 C   0  0  2  0  0  0  0  0  0  0  0  0
    5.7150   -0.8920   -0.4630 C   0  0  0  0  0  0  0  0  0  0  0  0
    4.0650    0.9100   -0.7950 N   0  0  1  0  0  0  0  0  0  0  0  0
    4.3330    1.2130   -2.1650 C   0  0  0  0  0  0  0  0  0  0  0  0
    3.0020    1.0970   -2.8970 C   0  0  0  0  0  0  0  0  0  0  0  0
    2.0220    0.7200   -1.7760 C   0  0  1  0  0  0  0  0  0  0  0  0
    0.9220   -0.0780   -2.3670 C   0  0  0  0  0  0  0  0  0  0  0  0
   -0.0990   -0.5270   -1.4800 N   0  0  0  0  0  0  0  0  0  0  0  0
   -0.8990    0.3390   -0.6810 C   0  0  0  0  0  0  0  0  0  0  0  0
   -0.6940    1.5750   -0.7360 O   0  0  0  0  0  0  0  0  0  0  0  0
   -1.9480   -0.1730    0.1990 C   0  0  0  0  0  0  0  0  0  0  0  0
   -2.7120    0.5530    1.0830 C   0  0  0  0  0  0  0  0  0  0  0  0
   -3.5890   -0.3170    1.7120 C   0  0  0  0  0  0  0  0  0  0  0  0
   -3.2990   -1.5470    1.1600 C   0  0  0  0  0  0  0  0  0  0  0  0
   -4.0480   -2.7950    1.5750 C   0  0  0  0  0  0  0  0  0  0  0  0
   -4.3050   -3.4790    0.3640 O   0  0  0  0  0  0  0  0  0  0  0  0
   -4.9740   -2.6890   -0.5340 C   0  0  0  0  0  0  0  0  0  0  0  0
   -6.3080   -2.3000   -0.0820 C   0  0  0  0  0  0  0  0  0  0  0  0
   -6.8310   -2.8180    0.9150 O   0  0  0  0  0  0  0  0  0  0  0  0
   -7.0810   -1.3060   -0.7540 N   0  0  0  0  0  0  0  0  0  0  0  0
   -8.3910   -0.9310   -0.2980 C   0  0  1  0  0  0  0  0  0  0  0  0
   -8.3630    0.4060    0.4180 C   0  0  0  0  0  0  0  0  0  0  0  0
   -9.8010    0.6580    0.8390 C   0  0  1  0  0  0  0  0  0  0  0  0
  -10.3890   -0.5280    1.5780 C   0  0  0  0  0  0  0  0  0  0  0  0
   -9.7790    1.8220    1.8210 C   0  0  0  0  0  0  0  0  0  0  0  0
  -10.6550    0.9860   -0.3680 C   0  0  0  0  0  0  0  0  0  0  0  0
  -10.1690    0.3340   -1.6190 C   0  0  2  0  0  0  0  0  0  0  0  0
   -9.3920    1.3280   -2.4490 C   0  0  0  0  0  0  0  0  0  0  0  0
  -11.3850   -0.0540   -2.4390 C   0  0  0  0  0  0  0  0  0  0  0  0
   -9.3380   -0.8870   -1.4240 C   0  0  0  0  0  0  0  0  0  0  0  0
   -2.3450   -1.4140    0.2930 O   0  0  0  0  0  0  0  0  0  0  0  0
    2.9270   -0.0160   -0.8220 C   0  0  0  0  0  0  0  0  0  0  0  0
    8.4820    0.5220    0.3340 C   0  0  0  0  0  0  0  0  0  0  0  0
  1  2  1  0
  2  3  1  0
  3  4  2  0
  3  8  1  0
  4  5  1  0
  5  6  2  0
  6  7  1  0
  7  8  2  0
  8  9  1  0
  9 10  2  0
  9 47  1  0
 10 11  1  0
 11 12  2  0
 12 13  1  0
 13 14  1  0
 13 47  2  0
 14 15  1  0
 15 16  1  6
 15 17  1  0
 17 18  1  6
 17 46  1  0
 18 19  1  0
 19 20  1  0
 20 21  1  6
 20 46  1  0
 21 22  1  0
 22 23  1  0
 23 24  2  0
 23 25  1  0
 25 26  2  0
 25 45  1  0
 26 27  1  0
 27 28  2  0
 28 29  1  0
 28 45  1  0
 29 30  1  0
 30 31  1  0
 31 32  1  0
 32 33  2  0
 32 34  1  0
 35 34  1  6
 35 36  1  0
 35 44  1  0
 36 37  1  0
 37 38  1  1
 37 39  1  0
 37 40  1  0
 40 41  1  0
 41 42  1  6
 41 43  1  0
 41 44  1  0
M  CHG  1  17   1
M  END
