
     RDKit          3D

 47 50  0  0  0  0  0  0  0  0999 V2000
   -5.5150    5.2120   -1.1230 C   0  0  0  0  0  0  0  0  0  0  0  0
   -5.9800    3.8280   -0.7250 C   0  0  0  0  0  0  0  0  0  0  0  0
   -5.1560    2.8310   -1.5620 C   0  0  0  0  0  0  0  0  0  0  0  0
   -3.7460    2.9610   -1.3140 C   0  0  0  0  0  0  0  0  0  0  0  0
   -2.8450    2.0270   -0.8750 C   0  0  0  0  0  0  0  0  0  0  0  0
   -3.2610    0.7040   -0.5930 C   0  0  0  0  0  0  0  0  0  0  0  0
   -2.9820   -0.4740   -0.2310 C   0  0  0  0  0  0  0  0  0  0  0  0
   -1.8770   -1.2920    0.1670 C   0  0  0  0  0  0  0  0  0  0  0  0
   -2.2340   -2.5350    0.4270 O   0  0  0  0  0  0  0  0  0  0  0  0
   -0.5090   -1.1130    0.3550 N   0  0  0  0  0  0  0  0  0  0  0  0
    0.4280   -2.1300    0.8120 C   0  0  0  0  0  0  0  0  0  0  0  0
   -0.0450   -3.2560    1.4870 C   0  0  0  0  0  0  0  0  0  0  0  0
    0.8180   -4.2150    2.0350 C   0  0  0  0  0  0  0  0  0  0  0  0
    2.1570   -4.0160    1.8910 C   0  0  0  0  0  0  0  0  0  0  0  0
    2.6190   -2.8960    1.2210 C   0  0  0  0  0  0  0  0  0  0  0  0
    1.7820   -1.9360    0.6690 C   0  0  0  0  0  0  0  0  0  0  0  0
    2.3700   -0.8130   -0.0930 C   0  0  0  0  0  0  0  0  0  0  0  0
    1.6710   -0.0070   -0.7390 O   0  0  0  0  0  0  0  0  0  0  0  0
    3.7630   -0.5850   -0.1310 N   0  0  0  0  0  0  0  0  0  0  0  0
    4.3960    0.4680   -0.8200 C   0  0  0  0  0  0  0  0  0  0  0  0
    3.8210    1.6070   -1.3140 C   0  0  0  0  0  0  0  0  0  0  0  0
    4.5620    2.5880   -2.0020 C   0  0  0  0  0  0  0  0  0  0  0  0
    5.9040    2.4360   -2.2030 C   0  0  0  0  0  0  0  0  0  0  0  0
    6.5160    1.3010   -1.7170 C   0  0  0  0  0  0  0  0  0  0  0  0
    5.7770    0.3470   -1.0460 C   0  0  0  0  0  0  0  0  0  0  0  0
    7.9870    1.0310   -1.8740 C   0  0  2  0  0  0  0  0  0  0  0  0
    8.5420    0.8740   -0.5410 N   0  0  0  0  0  0  0  0  0  0  0  0
    8.0690    1.9030    0.3600 C   0  0  0  0  0  0  0  0  0  0  0  0
    8.6950    2.0950   -2.6580 C   0  0  0  0  0  0  0  0  0  0  0  0
    7.7430    2.6190   -3.7220 C   0  0  0  0  0  0  0  0  0  0  0  0
    6.7180    3.4610   -2.9440 C   0  0  0  0  0  0  0  0  0  0  0  0
   -4.2920   -1.3180   -0.0560 C   0  0  0  0  0  0  0  0  0  0  0  0
   -5.3410   -0.7210   -0.2500 O   0  0  0  0  0  0  0  0  0  0  0  0
   -4.2620   -2.6130    0.2890 O   0  0  0  0  0  0  0  0  0  0  0  0
   -5.4130   -3.4350    0.5050 C   0  0  1  0  0  0  0  0  0  0  0  0
   -5.4080   -4.6270   -0.4070 C   0  0  0  0  0  0  0  0  0  0  0  0
   -5.2400   -3.9290    1.9120 C   0  0  0  0  0  0  0  0  0  0  0  0
   -4.9600   -5.2320    2.2190 C   0  0  0  0  0  0  0  0  0  0  0  0
   -4.7820   -5.6430    3.5170 C   0  0  0  0  0  0  0  0  0  0  0  0
   -4.8820   -4.7450    4.5530 C   0  0  0  0  0  0  0  0  0  0  0  0
   -5.1680   -3.4150    4.2480 C   0  0  0  0  0  0  0  0  0  0  0  0
   -5.3430   -3.0190    2.9480 C   0  0  0  0  0  0  0  0  0  0  0  0
   -5.6290   -1.6710    2.6740 O   0  0  0  0  0  0  0  0  0  0  0  0
   -5.7270   -0.7700    3.7340 C   0  0  0  0  0  0  0  0  0  0  0  0
   -1.5130    2.5750   -0.7200 C   0  0  0  0  0  0  0  0  0  0  0  0
   -1.2500    4.0440   -1.0630 C   0  0  0  0  0  0  0  0  0  0  0  0
   -0.5480    1.9580   -0.3300 O   0  0  0  0  0  0  0  0  0  0  0  0
  1  2  1  0
  2  3  1  0
  3  4  1  0
  4  5  2  3
  5  6  1  0
  5 45  1  0
  6  7  2  3
  7  8  1  0
  7 32  1  0
  8  9  2  0
  8 10  1  0
 10 11  1  0
 11 12  2  0
 11 16  1  0
 12 13  1  0
 13 14  2  0
 14 15  1  0
 15 16  2  0
 16 17  1  0
 17 18  2  0
 17 19  1  0
 19 20  1  0
 20 21  2  0
 20 25  1  0
 21 22  1  0
 22 23  2  0
 23 24  1  0
 23 31  1  0
 24 25  2  0
 24 26  1  0
 26 27  1  1
 26 29  1  0
 27 28  1  0
 29 30  1  0
 30 31  1  0
 32 33  2  0
 32 34  1  0
 34 35  1  0
 35 36  1  6
 35 37  1  0
 37 38  2  0
 37 42  1  0
 38 39  1  0
 39 40  2  0
 40 41  1  0
 41 42  2  0
 42 43  1  0
 43 44  1  0
 45 46  1  0
 45 47  2  0
M  CHG  1  27   1
M  END
