
     RDKit          3D

 47 52  0  0  0  0  0  0  0  0999 V2000
   -8.4090   -3.8920   -1.4510 C   0  0  0  0  0  0  0  0  0  0  0  0
   -7.4360   -3.6920   -0.3440 C   0  0  0  0  0  0  0  0  0  0  0  0
   -7.6710   -4.1070    0.9500 C   0  0  0  0  0  0  0  0  0  0  0  0
   -6.7280   -3.8850    1.9410 C   0  0  0  0  0  0  0  0  0  0  0  0
   -5.5560   -3.2440    1.6170 C   0  0  0  0  0  0  0  0  0  0  0  0
   -5.2780   -2.8120    0.3400 C   0  0  0  0  0  0  0  0  0  0  0  0
   -4.0100   -2.1520    0.0650 C   0  0  1  0  0  0  0  0  0  0  0  0
   -3.2170   -2.7950   -1.0490 C   0  0  0  0  0  0  0  0  0  0  0  0
   -2.1660   -3.6760   -0.4950 C   0  0  0  0  0  0  0  0  0  0  0  0
   -2.4600   -4.8820   -0.3150 O   0  0  0  0  0  0  0  0  0  0  0  0
   -0.9170   -3.1960   -0.1870 O   0  0  0  0  0  0  0  0  0  0  0  0
   -0.0770   -2.4250   -1.0000 C   0  0  0  0  0  0  0  0  0  0  0  0
    0.9820   -1.7190   -0.2710 C   0  0  0  0  0  0  0  0  0  0  0  0
    2.1300   -1.7040   -0.8220 O   0  0  0  0  0  0  0  0  0  0  0  0
    0.8930   -1.0450    0.9750 N   0  0  0  0  0  0  0  0  0  0  0  0
    1.9940   -1.1110    1.9170 C   0  0  0  0  0  0  0  0  0  0  0  0
    3.1430   -0.2680    1.6600 C   0  0  0  0  0  0  0  0  0  0  0  0
    3.1810    1.0550    2.0060 C   0  0  0  0  0  0  0  0  0  0  0  0
    4.2810    1.8450    1.7670 C   0  0  0  0  0  0  0  0  0  0  0  0
    5.4210    1.3100    1.1490 C   0  0  0  0  0  0  0  0  0  0  0  0
    5.4150   -0.0070    0.7930 C   0  0  0  0  0  0  0  0  0  0  0  0
    6.5210   -0.6030    0.1540 N   0  0  0  0  0  0  0  0  0  0  0  0
    7.5910    0.0340   -0.5030 C   0  0  0  0  0  0  0  0  0  0  0  0
    7.6350    1.2630   -0.5820 O   0  0  0  0  0  0  0  0  0  0  0  0
    8.6580   -0.7100   -1.0970 N   0  0  0  0  0  0  0  0  0  0  0  0
    9.7760   -0.1110   -1.7890 C   0  0  2  0  0  0  0  0  0  0  0  0
   10.4410   -0.9650   -2.8790 C   0  0  0  0  0  0  0  0  0  0  0  0
   11.1290   -0.6970   -1.5900 C   0  0  0  0  0  0  0  0  0  0  0  0
    4.2700   -0.7820    1.0550 C   0  0  0  0  0  0  0  0  0  0  0  0
   -0.3080   -0.3440    1.3920 C   0  0  0  0  0  0  0  0  0  0  0  0
   -0.7080    0.8330    0.5840 C   0  0  2  0  0  0  0  0  0  0  0  0
    0.2710    1.2330   -0.4940 C   0  0  0  0  0  0  0  0  0  0  0  0
   -0.8500    2.0060    1.5270 C   0  0  0  0  0  0  0  0  0  0  0  0
   -1.2270    3.2890    0.9170 C   0  0  0  0  0  0  0  0  0  0  0  0
   -2.5590    3.7190    0.8790 C   0  0  0  0  0  0  0  0  0  0  0  0
   -2.9200    4.9060    0.2890 C   0  0  0  0  0  0  0  0  0  0  0  0
   -1.9940    5.7430   -0.2990 C   0  0  0  0  0  0  0  0  0  0  0  0
   -0.6830    5.3360   -0.2690 C   0  0  0  0  0  0  0  0  0  0  0  0
   -0.2850    4.1410    0.3210 C   0  0  0  0  0  0  0  0  0  0  0  0
    1.0970    4.0880    0.1590 O   0  0  0  0  0  0  0  0  0  0  0  0
    1.4370    4.8150   -1.0020 C   0  0  0  0  0  0  0  0  0  0  0  0
    0.5290    6.0310   -0.8380 C   0  0  0  0  0  0  0  0  0  0  0  0
   -2.0810    0.6660   -0.0370 C   0  0  0  0  0  0  0  0  0  0  0  0
   -3.0940    0.0550    0.7100 N   0  0  0  0  0  0  0  0  0  0  0  0
   -4.0800   -0.6590   -0.1390 C   0  0  2  0  0  0  0  0  0  0  0  0
   -5.4440   -0.0650    0.0160 C   0  0  0  0  0  0  0  0  0  0  0  0
   -6.2470   -3.0570   -0.6120 C   0  0  0  0  0  0  0  0  0  0  0  0
  1  2  1  0
  2  3  2  0
  2 47  1  0
  3  4  1  0
  4  5  2  0
  5  6  1  0
  7  6  1  6
  6 47  2  0
  7  8  1  0
  7 45  1  0
  8  9  1  0
  9 10  2  0
  9 11  1  0
 11 12  1  0
 12 13  1  0
 13 14  2  0
 13 15  1  0
 15 16  1  0
 15 30  1  0
 16 17  1  0
 17 18  2  0
 17 29  1  0
 18 19  1  0
 19 20  2  0
 20 21  1  0
 21 22  1  0
 21 29  2  0
 22 23  1  0
 23 24  2  0
 23 25  1  0
 26 25  1  1
 26 27  1  0
 26 28  1  0
 27 28  1  0
 30 31  1  0
 31 32  1  6
 31 33  1  0
 31 43  1  0
 33 34  1  0
 34 35  2  0
 34 39  1  0
 35 36  1  0
 36 37  2  0
 37 38  1  0
 38 39  2  0
 38 42  1  0
 39 40  1  0
 40 41  1  0
 41 42  1  0
 43 44  1  0
 44 45  1  0
 45 46  1  1
M  CHG  1  44   1
M  END
