
     RDKit          3D

 47 51  0  0  0  0  0  0  0  0999 V2000
   -3.6770    6.6630    1.8800 C   0  0  0  0  0  0  0  0  0  0  0  0
   -3.0260    5.4700    1.5400 O   0  0  0  0  0  0  0  0  0  0  0  0
   -3.4230    4.2250    1.9380 C   0  0  0  0  0  0  0  0  0  0  0  0
   -4.4430    4.0980    2.6640 O   0  0  0  0  0  0  0  0  0  0  0  0
   -2.6800    3.0310    1.5340 C   0  0  0  0  0  0  0  0  0  0  0  0
   -3.2890    1.7550    2.1180 C   0  0  0  0  0  0  0  0  0  0  0  0
   -2.5350    0.6170    1.6860 C   0  0  0  0  0  0  0  0  0  0  0  0
   -1.6190    0.3040    2.5650 O   0  0  0  0  0  0  0  0  0  0  0  0
   -2.5340   -0.2520    0.5500 C   0  0  0  0  0  0  0  0  0  0  0  0
   -3.3990   -0.1480   -0.4280 C   0  0  0  0  0  0  0  0  0  0  0  0
   -4.4660    0.8790   -0.5300 C   0  0  0  0  0  0  0  0  0  0  0  0
   -5.8170    0.1090   -0.5740 C   0  0  1  0  0  0  0  0  0  0  0  0
   -5.8990   -0.8060   -1.7530 C   0  0  0  0  0  0  0  0  0  0  0  0
   -5.9290   -0.6820    0.7160 C   0  0  0  0  0  0  0  0  0  0  0  0
   -6.9050    1.1550   -0.5390 C   0  0  0  0  0  0  0  0  0  0  0  0
   -3.4060   -1.0770   -1.4970 O   0  0  0  0  0  0  0  0  0  0  0  0
   -2.5370   -2.1320   -1.5840 C   0  0  0  0  0  0  0  0  0  0  0  0
   -2.7180   -2.9840   -2.7660 C   0  0  0  0  0  0  0  0  0  0  0  0
   -1.6300   -2.2980   -0.6630 C   0  0  0  0  0  0  0  0  0  0  0  0
   -0.6970   -3.4180   -0.6260 C   0  0  0  0  0  0  0  0  0  0  0  0
    0.3350   -3.4320    0.2060 N   0  0  0  0  0  0  0  0  0  0  0  0
    1.1290   -4.6270    0.0800 C   0  0  0  0  0  0  0  0  0  0  0  0
    0.3360   -5.5390   -0.7450 C   0  0  0  0  0  0  0  0  0  0  0  0
    0.2160   -6.7810   -1.2380 N   0  0  0  0  0  0  0  0  0  0  0  0
   -0.8340   -6.8300   -1.9940 N   0  0  0  0  0  0  0  0  0  0  0  0
   -1.4320   -5.6000   -2.0090 C   0  0  0  0  0  0  0  0  0  0  0  0
   -0.7150   -4.7460   -1.2230 C   0  0  0  0  0  0  0  0  0  0  0  0
   -1.3880   -1.2110    0.3110 C   0  0  1  0  0  0  0  0  0  0  0  0
   -0.0920   -0.5150    0.1900 C   0  0  0  0  0  0  0  0  0  0  0  0
    0.5910   -0.2890   -0.9360 C   0  0  0  0  0  0  0  0  0  0  0  0
    0.0880   -0.7210   -2.2470 C   0  0  0  0  0  0  0  0  0  0  0  0
    1.9120    0.3920   -0.9260 C   0  0  0  0  0  0  0  0  0  0  0  0
    2.1750    1.3970    0.1110 C   0  0  2  0  0  0  0  0  0  0  0  0
    3.5490    1.2230    0.6900 C   0  0  0  0  0  0  0  0  0  0  0  0
    3.6390    0.9560    1.8990 O   0  0  0  0  0  0  0  0  0  0  0  0
    4.6630    1.3640   -0.1350 N   0  0  0  0  0  0  0  0  0  0  0  0
    6.0070    1.2120    0.2820 C   0  0  0  0  0  0  0  0  0  0  0  0
    6.3730    0.5580    1.4280 C   0  0  0  0  0  0  0  0  0  0  0  0
    7.7090    0.4650    1.7920 C   0  0  0  0  0  0  0  0  0  0  0  0
    8.0570   -0.2570    3.0470 C   0  0  0  0  0  0  0  0  0  0  0  0
    8.6710    1.0280    1.0060 C   0  0  0  0  0  0  0  0  0  0  0  0
    8.2950    1.6870   -0.1510 C   0  0  0  0  0  0  0  0  0  0  0  0
    9.3640    2.2990   -0.9880 C   0  0  0  0  0  0  0  0  0  0  0  0
    6.9790    1.7820   -0.5150 C   0  0  0  0  0  0  0  0  0  0  0  0
    1.2100    1.3710    1.2770 C   0  0  0  0  0  0  0  0  0  0  0  0
    0.6660   -0.0020    1.3540 C   0  0  0  0  0  0  0  0  0  0  0  0
    0.8480   -0.7000    2.3650 O   0  0  0  0  0  0  0  0  0  0  0  0
  1  2  1  0
  2  3  1  0
  3  4  2  0
  3  5  1  0
  5  6  1  0
  6  7  1  0
  7  8  2  0
  7  9  1  0
  9 10  2  0
  9 28  1  0
 10 11  1  0
 10 16  1  0
 11 12  1  0
 12 13  1  6
 12 14  1  0
 12 15  1  0
 16 17  1  0
 17 18  1  0
 17 19  2  0
 19 20  1  0
 19 28  1  0
 20 21  2  0
 20 27  1  0
 21 22  1  0
 22 23  1  0
 23 24  1  0
 23 27  2  0
 24 25  1  0
 25 26  2  0
 26 27  1  0
 28 29  1  6
 29 30  2  0
 29 46  1  0
 30 31  1  0
 30 32  1  0
 32 33  1  0
 33 34  1  1
 33 45  1  0
 34 35  2  0
 34 36  1  0
 36 37  1  0
 37 38  2  0
 37 44  1  0
 38 39  1  0
 39 40  1  0
 39 41  2  0
 41 42  1  0
 42 43  1  0
 42 44  2  0
 45 46  1  0
 46 47  2  0
M  CHG  1  21   1
M  END
