
     RDKit          3D

 47 52  0  0  0  0  0  0  0  0999 V2000
    2.9240    1.8060   -1.5150 C   0  0  0  0  0  0  0  0  0  0  0  0
    3.9670    0.6780   -1.6470 C   0  0  2  0  0  0  0  0  0  0  0  0
    4.1510    0.3210   -3.0220 N   0  0  0  0  0  0  0  0  0  0  0  0
    4.9950    0.7530   -4.0270 C   0  0  0  0  0  0  0  0  0  0  0  0
    4.3660    1.0460   -5.1360 O   0  0  0  0  0  0  0  0  0  0  0  0
    6.4290    0.9470   -4.1100 C   0  0  1  0  0  0  0  0  0  0  0  0
    7.3690    1.0590   -2.9680 C   0  0  0  0  0  0  0  0  0  0  0  0
    7.3000   -0.1900   -3.6650 C   0  0  1  0  0  0  0  0  0  0  0  0
    6.6040   -1.4350   -3.2580 C   0  0  0  0  0  0  0  0  0  0  0  0
    6.6480   -1.7410   -1.7810 C   0  0  0  0  0  0  0  0  0  0  0  0
    6.9250   -0.6660   -0.9850 O   0  0  0  0  0  0  0  0  0  0  0  0
    6.6090   -0.3120    0.2900 C   0  0  0  0  0  0  0  0  0  0  0  0
    7.6280    0.2090    1.0620 C   0  0  0  0  0  0  0  0  0  0  0  0
    7.4870    0.6140    2.3700 C   0  0  0  0  0  0  0  0  0  0  0  0
    6.2540    0.4930    2.9510 C   0  0  0  0  0  0  0  0  0  0  0  0
    5.2180   -0.0330    2.1760 C   0  0  0  0  0  0  0  0  0  0  0  0
    5.3510   -0.4380    0.8700 C   0  0  0  0  0  0  0  0  0  0  0  0
    4.2700   -0.9380    0.1960 O   0  0  0  0  0  0  0  0  0  0  0  0
    3.5000   -0.5220   -0.8610 C   0  0  1  0  0  0  0  0  0  0  0  0
    2.0300   -0.4890   -0.5510 C   0  0  0  0  0  0  0  0  0  0  0  0
    1.2450   -0.0160   -1.3950 O   0  0  0  0  0  0  0  0  0  0  0  0
    1.4800   -0.9750    0.6610 N   0  0  0  0  0  0  0  0  0  0  0  0
    0.1080   -0.9840    1.0420 C   0  0  0  0  0  0  0  0  0  0  0  0
   -0.5470    0.3610    1.1660 C   0  0  2  0  0  0  0  0  0  0  0  0
    0.1370    1.2080    2.2280 C   0  0  0  0  0  0  0  0  0  0  0  0
    0.1410    0.4350    3.5310 C   0  0  0  0  0  0  0  0  0  0  0  0
   -1.1190   -0.2730    3.8580 C   0  0  0  0  0  0  0  0  0  0  0  0
   -1.9870   -0.7130    2.7510 C   0  0  0  0  0  0  0  0  0  0  0  0
   -1.9450    0.1190    1.5620 N   0  0  1  0  0  0  0  0  0  0  0  0
   -2.6730    1.3340    1.7440 C   0  0  0  0  0  0  0  0  0  0  0  0
   -4.0700    1.3480    1.3120 C   0  0  0  0  0  0  0  0  0  0  0  0
   -4.7320    2.4340    1.5060 O   0  0  0  0  0  0  0  0  0  0  0  0
   -4.8020    0.3040    0.6990 N   0  0  0  0  0  0  0  0  0  0  0  0
   -6.1820    0.5010    0.3620 C   0  0  1  0  0  0  0  0  0  0  0  0
   -6.4490    0.7690   -1.0650 C   0  0  0  0  0  0  0  0  0  0  0  0
   -7.5530    1.5200   -1.4370 C   0  0  0  0  0  0  0  0  0  0  0  0
   -7.7970    1.8030   -2.7610 C   0  0  0  0  0  0  0  0  0  0  0  0
   -6.9430    1.3410   -3.7460 C   0  0  0  0  0  0  0  0  0  0  0  0
   -5.8560    0.6020   -3.3910 C   0  0  0  0  0  0  0  0  0  0  0  0
   -5.6090    0.3160   -2.0590 C   0  0  0  0  0  0  0  0  0  0  0  0
   -6.9910   -0.6130    0.8780 C   0  0  0  0  0  0  0  0  0  0  0  0
   -8.0740   -0.4070    1.7330 C   0  0  0  0  0  0  0  0  0  0  0  0
   -8.8650   -1.4090    2.2300 C   0  0  0  0  0  0  0  0  0  0  0  0
   -8.5770   -2.7070    1.8660 C   0  0  0  0  0  0  0  0  0  0  0  0
   -7.5280   -2.9400    1.0340 C   0  0  0  0  0  0  0  0  0  0  0  0
   -6.7210   -1.9160    0.5270 C   0  0  0  0  0  0  0  0  0  0  0  0
   -5.6710   -2.2630   -0.3180 O   0  0  0  0  0  0  0  0  0  0  0  0
  2  1  1  6
  2  3  1  0
  2 19  1  0
  3  4  1  0
  4  5  2  0
  4  6  1  0
  6  7  1  1
  6  8  1  0
  8  7  1  1
  8  9  1  0
  9 10  1  0
 10 11  1  0
 11 12  1  0
 12 13  2  0
 12 17  1  0
 13 14  1  0
 14 15  2  0
 15 16  1  0
 16 17  2  0
 17 18  1  0
 18 19  1  0
 19 20  1  1
 20 21  2  0
 20 22  1  0
 22 23  1  0
 24 23  1  1
 24 25  1  0
 24 29  1  0
 25 26  1  0
 26 27  1  0
 27 28  1  0
 28 29  1  0
 29 30  1  1
 30 31  1  0
 31 32  2  0
 31 33  1  0
 34 33  1  6
 34 35  1  0
 34 41  1  0
 35 36  2  0
 35 40  1  0
 36 37  1  0
 37 38  2  0
 38 39  1  0
 39 40  2  0
 41 42  2  0
 41 46  1  0
 42 43  1  0
 43 44  2  0
 44 45  1  0
 45 46  2  0
 46 47  1  0
M  CHG  1  29   1
M  END
