
     RDKit          3D

 48 54  0  0  0  0  0  0  0  0999 V2000
   -4.2380   -5.1010    1.4260 C   0  0  0  0  0  0  0  0  0  0  0  0
   -4.9390   -4.7300    0.1480 C   0  0  0  0  0  0  0  0  0  0  0  0
   -4.1430   -3.9230   -0.7380 N   0  0  1  0  0  0  0  0  0  0  0  0
   -4.6500   -4.1320   -2.0840 C   0  0  0  0  0  0  0  0  0  0  0  0
   -4.0980   -2.5280   -0.3950 C   0  0  2  0  0  0  0  0  0  0  0  0
   -5.2450   -1.7970   -1.0670 C   0  0  0  0  0  0  0  0  0  0  0  0
   -5.2750   -0.4270   -0.7710 O   0  0  0  0  0  0  0  0  0  0  0  0
   -5.4230    0.0760    0.5160 C   0  0  0  0  0  0  0  0  0  0  0  0
   -5.5340   -0.7670    1.4330 O   0  0  0  0  0  0  0  0  0  0  0  0
   -5.4550    1.4880    0.8440 C   0  0  0  0  0  0  0  0  0  0  0  0
   -5.6180    1.8710    2.1580 C   0  0  0  0  0  0  0  0  0  0  0  0
   -5.6600    3.1750    2.5550 C   0  0  0  0  0  0  0  0  0  0  0  0
   -5.5390    4.1820    1.6370 C   0  0  0  0  0  0  0  0  0  0  0  0
   -5.5790    5.5080    2.0260 C   0  0  0  0  0  0  0  0  0  0  0  0
   -5.4550    6.5230    1.1040 C   0  0  0  0  0  0  0  0  0  0  0  0
   -5.2880    6.1860   -0.2310 C   0  0  0  0  0  0  0  0  0  0  0  0
   -5.2490    4.8530   -0.6170 C   0  0  0  0  0  0  0  0  0  0  0  0
   -5.3740    3.8310    0.3100 C   0  0  0  0  0  0  0  0  0  0  0  0
   -5.3320    2.4990   -0.0800 C   0  0  0  0  0  0  0  0  0  0  0  0
   -2.8400   -1.9090   -0.8960 C   0  0  0  0  0  0  0  0  0  0  0  0
   -1.5900   -2.4910   -0.3420 C   0  0  0  0  0  0  0  0  0  0  0  0
   -1.5810   -3.3490    0.5590 O   0  0  0  0  0  0  0  0  0  0  0  0
   -0.3750   -2.0240   -0.8900 N   0  0  0  0  0  0  0  0  0  0  0  0
   -0.3480   -0.9750   -1.9020 C   0  0  0  0  0  0  0  0  0  0  0  0
    1.0220   -0.4310   -2.0700 C   0  0  0  0  0  0  0  0  0  0  0  0
    1.8400   -0.3830   -0.7770 C   0  0  0  0  0  0  0  0  0  0  0  0
    2.0080   -1.7860   -0.3500 C   0  0  0  0  0  0  0  0  0  0  0  0
    3.2500   -2.2660    0.0920 C   0  0  0  0  0  0  0  0  0  0  0  0
    4.3520   -1.3740    0.2000 N   0  0  0  0  0  0  0  0  0  0  0  0
    5.6690   -1.7190    0.5080 C   0  0  0  0  0  0  0  0  0  0  0  0
    5.9360   -2.9550    0.7150 O   0  0  0  0  0  0  0  0  0  0  0  0
    6.7860   -0.7570    0.6140 C   0  0  0  0  0  0  0  0  0  0  0  0
    8.0340   -1.2590    0.9240 C   0  0  0  0  0  0  0  0  0  0  0  0
    9.1580   -0.4360    1.0450 C   0  0  0  0  0  0  0  0  0  0  0  0
    8.9770    0.9140    0.8410 C   0  0  0  0  0  0  0  0  0  0  0  0
    7.7430    1.4490    0.5290 C   0  0  0  0  0  0  0  0  0  0  0  0
    6.6380    0.5810    0.4190 C   0  0  0  0  0  0  0  0  0  0  0  0
    5.5240    1.3420    0.1020 O   0  0  0  0  0  0  0  0  0  0  0  0
    5.8830    2.6710    0.3440 C   0  0  1  0  0  0  0  0  0  0  0  0
    5.2070    3.5500   -0.6850 C   0  0  0  0  0  0  0  0  0  0  0  0
    5.5640    4.9310   -0.1150 C   0  0  0  0  0  0  0  0  0  0  0  0
    5.3550    4.7320    1.3700 C   0  0  0  0  0  0  0  0  0  0  0  0
    5.3270    3.2380    1.6220 C   0  0  0  0  0  0  0  0  0  0  0  0
    7.2760    2.7300    0.2770 O   0  0  0  0  0  0  0  0  0  0  0  0
    3.2940   -3.6030    0.4300 C   0  0  0  0  0  0  0  0  0  0  0  0
    2.1740   -4.3990    0.3300 C   0  0  0  0  0  0  0  0  0  0  0  0
    0.9670   -3.8980   -0.1070 C   0  0  0  0  0  0  0  0  0  0  0  0
    0.8770   -2.5690   -0.4530 C   0  0  0  0  0  0  0  0  0  0  0  0
  1  2  1  0
  2  3  1  0
  3  4  1  6
  3  5  1  0
  5  6  1  6
  5 20  1  0
  6  7  1  0
  7  8  1  0
  8  9  2  0
  8 10  1  0
 10 11  2  0
 10 19  1  0
 11 12  1  0
 12 13  2  0
 13 14  1  0
 13 18  1  0
 14 15  2  0
 15 16  1  0
 16 17  2  0
 17 18  1  0
 18 19  2  0
 20 21  1  0
 21 22  2  0
 21 23  1  0
 23 24  1  0
 23 48  1  0
 24 25  1  0
 25 26  1  0
 26 27  1  0
 27 28  2  0
 27 48  1  0
 28 29  1  0
 28 45  1  0
 29 30  1  0
 30 31  2  0
 30 32  1  0
 32 33  2  0
 32 37  1  0
 33 34  1  0
 34 35  2  0
 35 36  1  0
 36 37  2  0
 36 44  1  0
 37 38  1  0
 38 39  1  0
 39 40  1  6
 39 43  1  0
 39 44  1  0
 40 41  1  0
 41 42  1  0
 42 43  1  0
 45 46  2  0
 46 47  1  0
 47 48  2  0
M  CHG  1   3   1
M  END
