
     RDKit          3D

 38 42  0  0  0  0  0  0  0  0999 V2000
   -8.2660    1.3190    0.0950 C   0  0  0  0  0  0  0  0  0  0  0  0
   -6.9830    1.9390   -0.3070 C   0  0  0  0  0  0  0  0  0  0  0  0
   -6.9690    3.2500   -0.7810 C   0  0  0  0  0  0  0  0  0  0  0  0
   -5.7670    3.8250   -1.1550 C   0  0  0  0  0  0  0  0  0  0  0  0
   -4.5910    3.1060   -1.0580 C   0  0  0  0  0  0  0  0  0  0  0  0
   -4.6270    1.8120   -0.5880 C   0  0  0  0  0  0  0  0  0  0  0  0
   -3.3780    1.0190   -0.4860 C   0  0  0  0  0  0  0  0  0  0  0  0
   -2.3070    1.8660   -0.9350 O   0  0  0  0  0  0  0  0  0  0  0  0
   -0.9990    1.3980   -0.9650 C   0  0  0  0  0  0  0  0  0  0  0  0
   -0.7920    0.2230   -0.5830 O   0  0  0  0  0  0  0  0  0  0  0  0
    0.1400    2.2280   -1.4270 C   0  0  0  0  0  0  0  0  0  0  0  0
    1.3670    1.5650   -1.3360 O   0  0  0  0  0  0  0  0  0  0  0  0
    1.9180    1.1020   -0.1630 C   0  0  0  0  0  0  0  0  0  0  0  0
    1.2800    1.2890    0.8940 O   0  0  0  0  0  0  0  0  0  0  0  0
    3.2590    0.3840   -0.1190 C   0  0  0  0  0  0  0  0  0  0  0  0
    3.5080    0.1000    1.2520 N   0  0  1  0  0  0  0  0  0  0  0  0
    2.4410   -0.7380    1.8290 C   0  0  0  0  0  0  0  0  0  0  0  0
    4.7620   -0.4880    1.4970 C   0  0  0  0  0  0  0  0  0  0  0  0
    5.2070   -0.8120    2.7660 N   0  0  0  0  0  0  0  0  0  0  0  0
    6.3890   -1.3520    2.6910 N   0  0  0  0  0  0  0  0  0  0  0  0
    6.7720   -1.4080    1.3920 C   0  0  0  0  0  0  0  0  0  0  0  0
    5.7520   -0.8700    0.6840 N   0  0  0  0  0  0  0  0  0  0  0  0
    6.1890   -0.9480   -0.6840 C   0  0  0  0  0  0  0  0  0  0  0  0
    5.5530   -0.5630   -1.6800 O   0  0  0  0  0  0  0  0  0  0  0  0
    7.5150   -1.5560   -0.7640 C   0  0  0  0  0  0  0  0  0  0  0  0
    8.3620   -1.8580   -1.8140 C   0  0  0  0  0  0  0  0  0  0  0  0
    9.5870   -2.4500   -1.5960 C   0  0  0  0  0  0  0  0  0  0  0  0
    9.9460   -2.7360   -0.2810 C   0  0  0  0  0  0  0  0  0  0  0  0
    9.0980   -2.4330    0.7620 C   0  0  0  0  0  0  0  0  0  0  0  0
    7.8670   -1.8370    0.5330 C   0  0  0  0  0  0  0  0  0  0  0  0
   -5.8100    1.2170   -0.2090 C   0  0  0  0  0  0  0  0  0  0  0  0
   -5.7560   -0.1510    0.2780 C   0  0  0  0  0  0  0  0  0  0  0  0
   -5.8340   -0.3270    1.6530 C   0  0  0  0  0  0  0  0  0  0  0  0
   -5.7920   -1.5640    2.2530 C   0  0  0  0  0  0  0  0  0  0  0  0
   -5.6690   -2.6370    1.4460 N   0  0  0  0  0  0  0  0  0  0  0  0
   -5.5930   -2.4910    0.1250 C   0  0  0  0  0  0  0  0  0  0  0  0
   -5.4320   -3.9420   -0.8460 Cl  0  0  0  0  0  0  0  0  0  0  0  0
   -5.6330   -1.2660   -0.4940 C   0  0  0  0  0  0  0  0  0  0  0  0
  1  2  1  0
  2  3  2  0
  2 31  1  0
  3  4  1  0
  4  5  2  0
  5  6  1  0
  6  7  1  0
  6 31  2  0
  7  8  1  0
  8  9  1  0
  9 10  2  0
  9 11  1  0
 11 12  1  0
 12 13  1  0
 13 14  2  0
 13 15  1  0
 15 16  1  0
 16 17  1  6
 16 18  1  0
 18 19  2  0
 18 22  1  0
 19 20  1  0
 20 21  2  0
 21 22  1  0
 21 30  1  0
 22 23  1  0
 23 24  2  0
 23 25  1  0
 25 26  2  0
 25 30  1  0
 26 27  1  0
 27 28  2  0
 28 29  1  0
 29 30  2  0
 31 32  1  0
 32 33  2  0
 32 38  1  0
 33 34  1  0
 34 35  2  0
 35 36  1  0
 36 37  1  0
 36 38  2  0
M  CHG  2  16   1  35   1
M  END
