
     RDKit          3D

 38 42  0  0  0  0  0  0  0  0999 V2000
    5.0090   -1.8010    2.5850 C   0  0  0  0  0  0  0  0  0  0  0  0
    4.6980   -0.7580    1.6940 O   0  0  0  0  0  0  0  0  0  0  0  0
    5.6350    0.2850    1.5780 C   0  0  0  0  0  0  0  0  0  0  0  0
    6.7920    0.2710    2.3090 C   0  0  0  0  0  0  0  0  0  0  0  0
    7.7250    1.2810    2.2140 C   0  0  0  0  0  0  0  0  0  0  0  0
    7.4360    2.3050    1.3480 C   0  0  0  0  0  0  0  0  0  0  0  0
    6.2600    2.3390    0.5920 C   0  0  0  0  0  0  0  0  0  0  0  0
    5.3320    1.3360    0.6850 C   0  0  0  0  0  0  0  0  0  0  0  0
    4.1150    1.3000   -0.0430 N   0  0  0  0  0  0  0  0  0  0  0  0
    3.6070    2.1930   -0.9690 C   0  0  0  0  0  0  0  0  0  0  0  0
    4.3420    3.2190   -1.2240 O   0  0  0  0  0  0  0  0  0  0  0  0
    2.3650    2.1800   -1.7220 C   0  0  0  0  0  0  0  0  0  0  0  0
    1.4330    1.2050   -1.5890 O   0  0  0  0  0  0  0  0  0  0  0  0
    0.7080    0.7840   -0.4890 C   0  0  0  0  0  0  0  0  0  0  0  0
    0.9610    1.3800    0.5890 O   0  0  0  0  0  0  0  0  0  0  0  0
   -0.2830   -0.2650   -0.5250 C   0  0  0  0  0  0  0  0  0  0  0  0
    0.1380   -1.5900   -0.3650 C   0  0  0  0  0  0  0  0  0  0  0  0
    1.5640   -1.9120   -0.1690 C   0  0  0  0  0  0  0  0  0  0  0  0
    2.3950   -1.7600   -1.7290 Cl  0  0  0  0  0  0  0  0  0  0  0  0
   -0.7210   -2.6150   -0.3660 N   0  0  0  0  0  0  0  0  0  0  0  0
   -2.0140   -2.3190   -0.5280 C   0  0  0  0  0  0  0  0  0  0  0  0
   -2.9520   -3.4010   -0.5380 N   0  0  0  0  0  0  0  0  0  0  0  0
   -3.5080   -3.9410    0.6870 C   0  0  0  0  0  0  0  0  0  0  0  0
   -4.6000   -4.8790    0.2820 C   0  0  0  0  0  0  0  0  0  0  0  0
   -4.8150   -4.6430   -1.1990 C   0  0  0  0  0  0  0  0  0  0  0  0
   -3.4930   -4.1070   -1.6560 C   0  0  0  0  0  0  0  0  0  0  0  0
   -2.4420   -1.0510   -0.6830 N   0  0  0  0  0  0  0  0  0  0  0  0
   -1.6110    0.0330   -0.6880 C   0  0  0  0  0  0  0  0  0  0  0  0
   -2.2260    1.3460   -0.7560 C   0  0  0  0  0  0  0  0  0  0  0  0
   -1.6180    2.5170   -1.0620 C   0  0  0  0  0  0  0  0  0  0  0  0
   -2.2990    3.7390   -1.0240 C   0  0  0  0  0  0  0  0  0  0  0  0
   -3.6240    3.8000   -0.6730 C   0  0  0  0  0  0  0  0  0  0  0  0
   -4.2800    2.6370   -0.3550 C   0  0  0  0  0  0  0  0  0  0  0  0
   -3.5840    1.4480   -0.4000 C   0  0  0  0  0  0  0  0  0  0  0  0
   -5.6780    2.9740   -0.0070 C   0  0  0  0  0  0  0  0  0  0  0  0
   -6.6040    2.1390    0.1160 O   0  0  0  0  0  0  0  0  0  0  0  0
   -5.6970    4.4570    0.1490 C   0  0  0  0  0  0  0  0  0  0  0  0
   -4.5130    4.9010   -0.5650 N   0  0  0  0  0  0  0  0  0  0  0  0
  1  2  1  0
  2  3  1  0
  3  4  2  0
  3  8  1  0
  4  5  1  0
  5  6  2  0
  6  7  1  0
  7  8  2  0
  8  9  1  0
  9 10  1  0
 10 11  2  0
 10 12  1  0
 12 13  1  0
 13 14  1  0
 14 15  2  0
 14 16  1  0
 16 17  2  0
 16 28  1  0
 17 18  1  0
 17 20  1  0
 18 19  1  0
 20 21  2  0
 21 22  1  0
 21 27  1  0
 22 23  1  0
 22 26  1  0
 23 24  1  0
 24 25  1  0
 25 26  1  0
 27 28  2  0
 28 29  1  0
 29 30  2  0
 29 34  1  0
 30 31  1  0
 31 32  2  0
 32 33  1  0
 32 38  1  0
 33 34  2  0
 33 35  1  0
 35 36  2  0
 35 37  1  0
 37 38  1  0
M  CHG  2  20   1  27   1
M  END
