
     RDKit          3D

 38 42  0  0  0  0  0  0  0  0999 V2000
   -5.6760    1.1390    1.9670 C   0  0  0  0  0  0  0  0  0  0  0  0
   -6.8100    0.9260    1.4020 C   0  0  0  0  0  0  0  0  0  0  0  0
   -7.1460    0.4310    0.0890 C   0  0  0  0  0  0  0  0  0  0  0  0
   -8.4680    0.3760   -0.1860 C   0  0  0  0  0  0  0  0  0  0  0  0
   -9.0750   -0.0880   -1.4350 C   0  0  0  0  0  0  0  0  0  0  0  0
  -10.1770   -1.4760   -1.1100 Cl  0  0  0  0  0  0  0  0  0  0  0  0
   -6.2260    0.1070   -0.9910 C   0  0  0  0  0  0  0  0  0  0  0  0
   -5.4670   -1.1610   -0.9370 C   0  0  0  0  0  0  0  0  0  0  0  0
   -4.6060   -1.3440    0.1720 N   0  0  0  0  0  0  0  0  0  0  0  0
   -5.0600   -1.9540    1.2810 C   0  0  0  0  0  0  0  0  0  0  0  0
   -6.2760   -2.3480    1.3590 O   0  0  0  0  0  0  0  0  0  0  0  0
   -4.2030   -2.1320    2.2890 N   0  0  0  0  0  0  0  0  0  0  0  0
   -2.9150   -1.7170    2.2110 C   0  0  0  0  0  0  0  0  0  0  0  0
   -2.0770   -1.9180    3.2570 N   0  0  0  0  0  0  0  0  0  0  0  0
   -0.8040   -1.5100    3.1860 C   0  0  0  0  0  0  0  0  0  0  0  0
   -0.3070   -0.8780    2.0560 C   0  0  0  0  0  0  0  0  0  0  0  0
   -1.1140   -0.6560    0.9810 C   0  0  0  0  0  0  0  0  0  0  0  0
   -0.6800    0.0090   -0.2600 C   0  0  0  0  0  0  0  0  0  0  0  0
    0.7360    0.4090   -0.2290 N   0  0  2  0  0  0  0  0  0  0  0  0
    0.9050    1.4320   -1.2400 C   0  0  0  0  0  0  0  0  0  0  0  0
    1.7620    1.0320   -2.3960 C   0  0  0  0  0  0  0  0  0  0  0  0
    3.1530    0.6280   -2.0470 C   0  0  0  0  0  0  0  0  0  0  0  0
    3.4820    0.6580   -0.5900 C   0  0  2  0  0  0  0  0  0  0  0  0
    4.9840    0.6780   -0.4800 C   0  0  0  0  0  0  0  0  0  0  0  0
    5.7400    1.6020    0.1390 N   0  0  0  0  0  0  0  0  0  0  0  0
    7.0330    1.2660    0.0150 C   0  0  0  0  0  0  0  0  0  0  0  0
    7.0450    0.0920   -0.7090 C   0  0  0  0  0  0  0  0  0  0  0  0
    5.8010   -0.2140   -0.9790 O   0  0  0  0  0  0  0  0  0  0  0  0
    8.2070   -0.7220   -1.1360 C   0  0  0  0  0  0  0  0  0  0  0  0
    9.1380   -0.9060   -0.1410 O   0  0  0  0  0  0  0  0  0  0  0  0
    9.0690    0.0100    0.8870 C   0  0  0  0  0  0  0  0  0  0  0  0
    9.3440    1.3100    0.4580 O   0  0  0  0  0  0  0  0  0  0  0  0
    8.1880    2.0530    0.5750 C   0  0  0  0  0  0  0  0  0  0  0  0
    2.9250   -0.6010    0.0490 C   0  0  0  0  0  0  0  0  0  0  0  0
    1.5190   -0.7660   -0.4900 C   0  0  0  0  0  0  0  0  0  0  0  0
   -2.4470   -1.0850    1.0620 C   0  0  0  0  0  0  0  0  0  0  0  0
   -3.3340   -0.9110    0.0440 C   0  0  0  0  0  0  0  0  0  0  0  0
   -2.9480   -0.3430   -1.0150 O   0  0  0  0  0  0  0  0  0  0  0  0
  1  2  2  0
  2  3  1  0
  3  4  2  3
  3  7  1  0
  4  5  1  0
  5  6  1  0
  7  8  1  0
  8  9  1  0
  9 10  1  0
  9 37  1  0
 10 11  2  0
 10 12  1  0
 12 13  1  0
 13 14  2  0
 13 36  1  0
 14 15  1  0
 15 16  2  0
 16 17  1  0
 17 18  1  0
 17 36  2  0
 19 18  1  6
 19 20  1  0
 19 35  1  0
 20 21  1  0
 21 22  1  0
 22 23  1  0
 23 24  1  6
 23 34  1  0
 24 25  2  0
 24 28  1  0
 25 26  1  0
 26 27  2  0
 26 33  1  0
 27 28  1  0
 27 29  1  0
 29 30  1  0
 30 31  1  0
 31 32  1  0
 32 33  1  0
 34 35  1  0
 36 37  1  0
 37 38  2  0
M  CHG  2  19   1  25   1
M  END
