
     RDKit          3D

 38 42  0  0  0  0  0  0  0  0999 V2000
    9.0190    1.8310    1.2510 C   0  0  0  0  0  0  0  0  0  0  0  0
    7.9440    0.8610    1.1260 N   0  0  2  0  0  0  0  0  0  0  0  0
    7.9150   -0.0300    2.2710 C   0  0  0  0  0  0  0  0  0  0  0  0
    7.8210   -1.4630    1.8150 C   0  0  0  0  0  0  0  0  0  0  0  0
    6.6190   -1.5420    0.8580 C   0  0  0  0  0  0  0  0  0  0  0  0
    6.8680   -0.7380   -0.3720 C   0  0  1  0  0  0  0  0  0  0  0  0
    5.7520    0.0900   -0.8410 C   0  0  0  0  0  0  0  0  0  0  0  0
    5.9130    1.3680   -0.8630 O   0  0  0  0  0  0  0  0  0  0  0  0
    4.4950   -0.3630   -1.2830 N   0  0  0  0  0  0  0  0  0  0  0  0
    4.0550   -1.7250   -1.3600 C   0  0  0  0  0  0  0  0  0  0  0  0
    2.5590   -1.6050   -1.1210 C   0  0  0  0  0  0  0  0  0  0  0  0
    2.2800   -0.1920   -1.0160 N   0  0  2  0  0  0  0  0  0  0  0  0
    1.0120    0.1090   -1.6430 C   0  0  0  0  0  0  0  0  0  0  0  0
   -0.0300    0.1690   -0.5340 C   0  0  0  0  0  0  0  0  0  0  0  0
   -1.3250    0.4610   -1.0470 O   0  0  0  0  0  0  0  0  0  0  0  0
   -1.6050    1.6280   -1.7350 C   0  0  0  0  0  0  0  0  0  0  0  0
   -0.7210    2.4930   -1.9400 O   0  0  0  0  0  0  0  0  0  0  0  0
   -2.9830    1.8440   -2.2330 C   0  0  0  0  0  0  0  0  0  0  0  0
   -3.8430    0.7120   -1.8810 N   0  0  0  0  0  0  0  0  0  0  0  0
   -3.9960   -0.3520   -2.6550 N   0  0  0  0  0  0  0  0  0  0  0  0
   -4.8380   -1.2040   -2.0570 C   0  0  0  0  0  0  0  0  0  0  0  0
   -5.2070   -0.6210   -0.8670 C   0  0  0  0  0  0  0  0  0  0  0  0
   -6.0530   -1.0210    0.1730 C   0  0  0  0  0  0  0  0  0  0  0  0
   -6.2540   -0.2170    1.2900 C   0  0  0  0  0  0  0  0  0  0  0  0
   -7.1130   -0.6980    2.2740 O   0  0  0  0  0  0  0  0  0  0  0  0
   -8.4730   -0.4050    2.1830 C   0  0  0  0  0  0  0  0  0  0  0  0
   -9.3070   -1.2760    1.4990 C   0  0  0  0  0  0  0  0  0  0  0  0
  -10.6550   -1.0080    1.3960 C   0  0  0  0  0  0  0  0  0  0  0  0
  -11.1900    0.1330    1.9740 C   0  0  0  0  0  0  0  0  0  0  0  0
  -12.5510    0.4330    1.8890 O   0  0  0  0  0  0  0  0  0  0  0  0
  -10.3250    0.9670    2.6420 C   0  0  0  0  0  0  0  0  0  0  0  0
  -11.0050    2.4130    3.3730 Cl  0  0  0  0  0  0  0  0  0  0  0  0
   -8.9730    0.7340    2.7670 C   0  0  0  0  0  0  0  0  0  0  0  0
   -5.6080    0.9890    1.3670 C   0  0  0  0  0  0  0  0  0  0  0  0
   -4.7640    1.3890    0.3300 C   0  0  0  0  0  0  0  0  0  0  0  0
   -4.5630    0.5940   -0.7770 C   0  0  0  0  0  0  0  0  0  0  0  0
    3.3900    0.4320   -1.7550 C   0  0  0  0  0  0  0  0  0  0  0  0
    8.0850    0.1280   -0.1200 C   0  0  0  0  0  0  0  0  0  0  0  0
  2  1  1  1
  2  3  1  0
  2 38  1  0
  3  4  1  0
  4  5  1  0
  5  6  1  0
  6  7  1  1
  6 38  1  0
  7  8  2  0
  7  9  1  0
  9 10  1  0
  9 37  1  0
 10 11  1  0
 11 12  1  0
 12 13  1  6
 12 37  1  0
 13 14  1  0
 14 15  1  0
 15 16  1  0
 16 17  2  0
 16 18  1  0
 18 19  1  0
 19 20  1  0
 19 36  1  0
 20 21  2  0
 21 22  1  0
 22 23  2  0
 22 36  1  0
 23 24  1  0
 24 25  1  0
 24 34  2  0
 25 26  1  0
 26 27  2  0
 26 33  1  0
 27 28  1  0
 28 29  2  0
 29 30  1  0
 29 31  1  0
 31 32  1  0
 31 33  2  0
 34 35  1  0
 35 36  2  0
M  CHG  2   2   1  12   1
M  END
