
     RDKit          3D

 38 43  0  0  0  0  0  0  0  0999 V2000
   -8.5320    2.1100   -1.0350 C   0  0  0  0  0  0  0  0  0  0  0  0
   -8.5130    1.2660    0.2350 C   0  0  0  0  0  0  0  0  0  0  0  0
   -8.1180    2.0090    1.3220 O   0  0  0  0  0  0  0  0  0  0  0  0
   -6.8700    2.5660    1.2240 C   0  0  0  0  0  0  0  0  0  0  0  0
   -5.7550    1.6040    1.0860 C   0  0  0  0  0  0  0  0  0  0  0  0
   -5.8030    0.2980    1.0520 O   0  0  0  0  0  0  0  0  0  0  0  0
   -4.6310   -0.2300    0.9220 C   0  0  0  0  0  0  0  0  0  0  0  0
   -4.3420   -1.5700    0.8540 O   0  0  0  0  0  0  0  0  0  0  0  0
   -3.9630   -2.2680    2.0250 C   0  0  0  0  0  0  0  0  0  0  0  0
   -3.6910    0.8010    0.8620 C   0  0  0  0  0  0  0  0  0  0  0  0
   -2.2500    0.6760    0.7190 C   0  0  0  0  0  0  0  0  0  0  0  0
   -1.5390   -0.4830    0.6160 N   0  0  0  0  0  0  0  0  0  0  0  0
   -0.2300   -0.2070    0.4980 C   0  0  0  0  0  0  0  0  0  0  0  0
    0.9120   -0.9860    0.3650 C   0  0  0  0  0  0  0  0  0  0  0  0
    2.1120   -0.3190    0.2690 C   0  0  0  0  0  0  0  0  0  0  0  0
    2.1840    1.0350    0.3030 N   0  0  0  0  0  0  0  0  0  0  0  0
    1.0940    1.7940    0.4300 C   0  0  0  0  0  0  0  0  0  0  0  0
   -0.1280    1.1750    0.5290 C   0  0  0  0  0  0  0  0  0  0  0  0
   -1.3740    1.6850    0.6650 N   0  0  0  0  0  0  0  0  0  0  0  0
    3.2190   -1.2980    0.1360 C   0  0  2  0  0  0  0  0  0  0  0  0
    3.7040   -1.3130   -1.2100 N   0  0  0  0  0  0  0  0  0  0  0  0
    4.5130   -0.1770   -1.5320 C   0  0  0  0  0  0  0  0  0  0  0  0
    5.9900   -0.4420   -1.3070 C   0  0  1  0  0  0  0  0  0  0  0  0
    6.7700    0.6930   -1.6310 O   0  0  0  0  0  0  0  0  0  0  0  0
    6.8170    1.5620   -0.5300 C   0  0  0  0  0  0  0  0  0  0  0  0
    7.1080    2.9020   -0.3750 C   0  0  0  0  0  0  0  0  0  0  0  0
    7.0680    3.4980    0.8800 C   0  0  0  0  0  0  0  0  0  0  0  0
    6.7320    2.7320    1.9770 C   0  0  0  0  0  0  0  0  0  0  0  0
    6.4460    1.3980    1.7940 C   0  0  0  0  0  0  0  0  0  0  0  0
    6.4790    0.7850    0.5610 C   0  0  0  0  0  0  0  0  0  0  0  0
    6.2380   -0.5250    0.1040 O   0  0  0  0  0  0  0  0  0  0  0  0
    2.6250   -2.6030    0.5610 C   0  0  0  0  0  0  0  0  0  0  0  0
    1.1490   -2.4210    0.2970 C   0  0  2  0  0  0  0  0  0  0  0  0
    0.7720   -3.0200   -0.9630 N   0  0  1  0  0  0  0  0  0  0  0  0
    0.0110   -4.2060   -0.7050 C   0  0  0  0  0  0  0  0  0  0  0  0
    0.0970   -2.0910   -1.8400 C   0  0  0  0  0  0  0  0  0  0  0  0
   -4.4140    1.9550    0.9670 C   0  0  0  0  0  0  0  0  0  0  0  0
   -3.8650    3.6150    0.9640 Cl  0  0  0  0  0  0  0  0  0  0  0  0
  1  2  1  0
  2  3  1  0
  3  4  1  0
  4  5  1  0
  5  6  1  0
  5 37  2  0
  6  7  1  0
  7  8  1  0
  7 10  2  0
  8  9  1  0
 10 11  1  0
 10 37  1  0
 11 12  2  0
 11 19  1  0
 12 13  1  0
 13 14  2  0
 13 18  1  0
 14 15  1  0
 14 33  1  0
 15 16  2  0
 15 20  1  0
 16 17  1  0
 17 18  2  0
 18 19  1  0
 20 21  1  6
 20 32  1  0
 21 22  1  0
 23 22  1  1
 23 24  1  0
 23 31  1  0
 24 25  1  0
 25 26  2  0
 25 30  1  0
 26 27  1  0
 27 28  2  0
 28 29  1  0
 29 30  2  0
 30 31  1  0
 33 32  1  6
 33 34  1  0
 34 35  1  1
 34 36  1  0
 37 38  1  0
M  CHG  2  21   1  34   1
M  END
