
     RDKit          3D

 14 14  0  0  0  0  0  0  0  0999 V2000
    4.0760   -1.2550   -0.4590 C   0  0  0  0  0  0  0  0  0  0  0  0
    3.0150   -0.3280   -0.5290 O   0  0  0  0  0  0  0  0  0  0  0  0
    1.9900   -0.2470    0.3770 C   0  0  0  0  0  0  0  0  0  0  0  0
    2.0050   -1.0640    1.3410 O   0  0  0  0  0  0  0  0  0  0  0  0
    0.8730    0.7320    0.3000 C   0  0  1  0  0  0  0  0  0  0  0  0
    1.0190    1.5800   -0.8580 N   0  0  0  0  0  0  0  0  0  0  0  0
   -0.4790    0.0210    0.2090 C   0  0  2  0  0  0  0  0  0  0  0  0
   -0.6670   -0.7990    1.2880 O   0  0  0  0  0  0  0  0  0  0  0  0
   -1.8130   -1.5500    1.3220 C   0  0  0  0  0  0  0  0  0  0  0  0
   -0.6100   -0.6550   -1.1320 C   0  0  0  0  0  0  0  0  0  0  0  0
   -1.0500    0.3700   -1.9670 O   0  0  0  0  0  0  0  0  0  0  0  0
   -2.1600    0.8680   -1.2600 C   0  0  0  0  0  0  0  0  0  0  0  0
   -1.4970    1.1440    0.0890 C   0  0  1  0  0  0  0  0  0  0  0  0
   -2.4000    1.2570    1.1750 N   0  0  0  0  0  0  0  0  0  0  0  0
  1  2  1  0
  2  3  1  0
  3  4  2  0
  3  5  1  0
  5  6  1  6
  5  7  1  0
  7  8  1  1
  7 10  1  0
  7 13  1  0
  8  9  1  0
 10 11  1  0
 11 12  1  0
 12 13  1  0
 13 14  1  1
M  END
