
     RDKit          3D

 14 15  0  0  0  0  0  0  0  0999 V2000
   -0.6520    1.3390   -1.5240 N   0  0  0  0  0  0  0  0  0  0  0  0
   -1.3600    0.4180   -0.6910 C   0  0  0  0  0  0  0  0  0  0  0  0
   -2.6720    0.2660   -0.8590 C   0  0  0  0  0  0  0  0  0  0  0  0
   -3.4180   -0.6700   -0.0180 C   0  0  0  0  0  0  0  0  0  0  0  0
   -2.7590   -1.3530    0.9040 C   0  0  0  0  0  0  0  0  0  0  0  0
   -1.3840   -1.2080    1.0960 O   0  0  0  0  0  0  0  0  0  0  0  0
   -0.6310   -0.3330    0.3240 C   0  0  0  0  0  0  0  0  0  0  0  0
    0.6840   -0.1790    0.4910 C   0  0  0  0  0  0  0  0  0  0  0  0
    1.4600    0.6820   -0.2590 O   0  0  0  0  0  0  0  0  0  0  0  0
    2.7930    0.3150   -0.1090 C   0  0  1  0  0  0  0  0  0  0  0  0
    3.5760    1.4680   -0.1750 O   0  0  0  0  0  0  0  0  0  0  0  0
    2.8650   -0.3160    1.1990 N   0  0  0  0  0  0  0  0  0  0  0  0
    1.5540   -0.8360    1.4390 C   0  0  0  0  0  0  0  0  0  0  0  0
    1.2170   -1.6970    2.3010 O   0  0  0  0  0  0  0  0  0  0  0  0
  1  2  1  0
  2  3  2  0
  2  7  1  0
  3  4  1  0
  4  5  2  0
  5  6  1  0
  6  7  1  0
  7  8  2  3
  8  9  1  0
  8 13  1  0
  9 10  1  0
 10 11  1  1
 10 12  1  0
 12 13  1  0
 13 14  2  0
M  END
