
     RDKit          3D

 14 15  0  0  0  0  0  0  0  0999 V2000
    3.0580   -0.1230    1.1900 O   0  0  0  0  0  0  0  0  0  0  0  0
    1.8860   -0.8460    0.9890 C   0  0  0  0  0  0  0  0  0  0  0  0
    0.9950   -0.1790   -0.0360 C   0  0  2  0  0  0  0  0  0  0  0  0
    0.5800    1.1990    0.3530 C   0  0  1  0  0  0  0  0  0  0  0  0
    1.6080    2.1300    0.2350 O   0  0  0  0  0  0  0  0  0  0  0  0
   -0.5730    1.5980   -0.5730 C   0  0  2  0  0  0  0  0  0  0  0  0
   -0.8110    2.9560   -0.5320 O   0  0  0  0  0  0  0  0  0  0  0  0
   -1.7640    0.7780   -0.1180 C   0  0  2  0  0  0  0  0  0  0  0  0
   -1.9290    1.0150    1.2550 O   0  0  0  0  0  0  0  0  0  0  0  0
   -1.4140   -0.6450   -0.3390 C   0  0  0  0  0  0  0  0  0  0  0  0
   -2.1990   -1.6940   -0.5980 N   0  0  0  0  0  0  0  0  0  0  0  0
   -1.4190   -2.8030   -0.7240 C   0  0  0  0  0  0  0  0  0  0  0  0
   -0.1260   -2.3740   -0.5290 C   0  0  0  0  0  0  0  0  0  0  0  0
   -0.1350   -1.0440   -0.2930 N   0  0  0  0  0  0  0  0  0  0  0  0
  1  2  1  0
  3  2  1  1
  3  4  1  0
  3 14  1  0
  4  5  1  6
  4  6  1  0
  6  7  1  1
  6  8  1  0
  8  9  1  1
  8 10  1  0
 10 11  2  0
 10 14  1  0
 11 12  1  0
 12 13  2  0
 13 14  1  0
M  END
