
     RDKit          3D

 26 27  0  0  0  0  0  0  0  0999 V2000
   -1.4590   -1.0690   -1.5480 C   0  0  0  0  0  0  0  0  0  0  0  0
   -0.8470   -0.3920   -0.6490 C   0  0  0  0  0  0  0  0  0  0  0  0
    0.5350   -0.7990   -0.2470 C   0  0  0  0  0  0  0  0  0  0  0  0
    0.6600   -2.0150    0.1090 C   0  0  0  0  0  0  0  0  0  0  0  0
    2.0160   -2.9880    0.6750 S   0  0  0  0  0  0  0  0  0  0  0  0
    1.7300   -3.6200    2.3510 C   0  0  0  0  0  0  0  0  0  0  0  0
    1.6310    0.1890   -0.3180 C   0  0  0  0  0  0  0  0  0  0  0  0
    2.9140   -0.3760   -0.6480 C   0  0  0  0  0  0  0  0  0  0  0  0
    3.0470   -1.5960   -0.8840 O   0  0  0  0  0  0  0  0  0  0  0  0
    4.1400    0.3550   -0.7400 N   0  0  0  0  0  0  0  0  0  0  0  0
    5.3660   -0.3100   -1.0760 C   0  0  0  0  0  0  0  0  0  0  0  0
    5.4100   -1.9040   -1.3620 S   0  0  0  0  0  0  0  0  0  0  0  0
    6.5190    0.4300   -1.1530 O   0  0  0  0  0  0  0  0  0  0  0  0
    6.6390    1.7160   -0.5300 C   0  0  0  0  0  0  0  0  0  0  0  0
    1.5360    1.5240   -0.1570 C   0  0  0  0  0  0  0  0  0  0  0  0
    0.3560    2.3740    0.1210 C   0  0  0  0  0  0  0  0  0  0  0  0
   -0.9310    2.0400    0.0980 C   0  0  0  0  0  0  0  0  0  0  0  0
   -1.7510    3.1430    0.4260 N   0  0  0  0  0  0  0  0  0  0  0  0
   -3.0050    2.9210    0.5350 C   0  0  0  0  0  0  0  0  0  0  0  0
   -3.6410    1.5880    0.3430 C   0  0  0  0  0  0  0  0  0  0  0  0
   -5.1130    1.5650    0.5020 C   0  0  0  0  0  0  0  0  0  0  0  0
   -5.5720    2.0190    2.1850 Cl  0  0  0  0  0  0  0  0  0  0  0  0
   -2.9310    0.5070    0.0370 C   0  0  0  0  0  0  0  0  0  0  0  0
   -3.3860   -0.8370   -0.1650 C   0  0  0  0  0  0  0  0  0  0  0  0
   -4.7050   -1.2880   -0.3080 N   0  0  0  0  0  0  0  0  0  0  0  0
   -1.5380    0.7500   -0.0990 N   0  0  0  0  0  0  0  0  0  0  0  0
  1  2  2  0
  2  3  1  0
  2 26  1  0
  3  4  2  3
  3  7  1  0
  4  5  1  0
  5  6  1  0
  7  8  1  0
  7 15  2  0
  8  9  2  0
  8 10  1  0
 10 11  1  0
 11 12  2  0
 11 13  1  0
 13 14  1  0
 15 16  1  0
 16 17  2  0
 17 18  1  0
 17 26  1  0
 18 19  2  0
 19 20  1  0
 20 21  1  0
 20 23  2  0
 21 22  1  0
 23 24  1  0
 23 26  1  0
 24 25  1  0
M  CHG  1  25   1
M  END
