
     RDKit          3D

 14 15  0  0  0  0  0  0  0  0999 V2000
   -2.2760    1.8640    2.1480 O   0  0  0  0  0  0  0  0  0  0  0  0
   -1.8990    1.0570    1.2790 C   0  0  0  0  0  0  0  0  0  0  0  0
   -2.7470    0.7830    0.1630 N   0  0  0  0  0  0  0  0  0  0  0  0
   -2.5890   -0.4210   -0.6400 C   0  0  0  0  0  0  0  0  0  0  0  0
   -1.3270   -1.1530   -0.3080 C   0  0  0  0  0  0  0  0  0  0  0  0
   -0.2240   -0.2690    0.1950 C   0  0  1  0  0  0  0  0  0  0  0  0
    0.9230   -1.1610    0.6290 C   0  0  0  0  0  0  0  0  0  0  0  0
    2.1770   -0.3110    0.7690 C   0  0  2  0  0  0  0  0  0  0  0  0
    1.8040    0.8590    1.4060 O   0  0  0  0  0  0  0  0  0  0  0  0
    2.6550    0.0640   -0.6310 C   0  0  0  0  0  0  0  0  0  0  0  0
    1.5780    0.8180   -1.2490 N   0  0  0  0  0  0  0  0  0  0  0  0
    0.2300    0.7050   -0.8210 C   0  0  0  0  0  0  0  0  0  0  0  0
   -0.6310    1.4700   -1.3270 O   0  0  0  0  0  0  0  0  0  0  0  0
   -0.6630    0.4140    1.3680 O   0  0  0  0  0  0  0  0  0  0  0  0
  1  2  2  0
  2  3  1  0
  2 14  1  0
  3  4  1  0
  4  5  1  0
  6  5  1  6
  6  7  1  0
  6 12  1  0
  6 14  1  0
  7  8  1  0
  8  9  1  1
  8 10  1  0
 10 11  1  0
 11 12  1  0
 12 13  2  0
M  END
