
     RDKit          3D

 11 11  0  0  0  0  0  0  0  0999 V2000
   -3.1300   -0.5060    0.6370 C   0  0  0  0  0  0  0  0  0  0  0  0
   -2.2700    0.2720   -0.1260 O   0  0  0  0  0  0  0  0  0  0  0  0
   -0.9060    0.2150   -0.1460 C   0  0  0  0  0  0  0  0  0  0  0  0
   -0.1480   -0.6590    0.6210 C   0  0  0  0  0  0  0  0  0  0  0  0
    1.2340   -0.6570    0.5460 C   0  0  0  0  0  0  0  0  0  0  0  0
    1.9620   -1.5300    1.3120 O   0  0  0  0  0  0  0  0  0  0  0  0
    1.8880    0.2170   -0.2970 C   0  0  0  0  0  0  0  0  0  0  0  0
    3.2980    0.1730   -0.3310 N   0  0  0  0  0  0  0  0  0  0  0  0
    1.1450    1.1030   -1.0760 C   0  0  0  0  0  0  0  0  0  0  0  0
   -0.2400    1.0830   -0.9830 C   0  0  0  0  0  0  0  0  0  0  0  0
   -0.9590    1.9710   -1.7650 O   0  0  0  0  0  0  0  0  0  0  0  0
  1  2  1  0
  2  3  1  0
  3  4  2  0
  3 10  1  0
  4  5  1  0
  5  6  1  0
  5  7  2  0
  7  8  1  0
  7  9  1  0
  9 10  2  0
 10 11  1  0
M  END
