
     RDKit          3D

 14 15  0  0  0  0  0  0  0  0999 V2000
   -2.8360   -1.5140   -0.4100 O   0  0  0  0  0  0  0  0  0  0  0  0
   -2.3460   -0.2830    0.0140 C   0  0  0  0  0  0  0  0  0  0  0  0
   -0.8920   -0.1630   -0.3700 C   0  0  2  0  0  0  0  0  0  0  0  0
   -0.0440   -1.2490    0.2580 C   0  0  1  0  0  0  0  0  0  0  0  0
   -0.5970   -2.5060    0.1180 O   0  0  0  0  0  0  0  0  0  0  0  0
    1.3200   -1.1500   -0.4080 C   0  0  2  0  0  0  0  0  0  0  0  0
    2.1400   -2.2160   -0.0810 O   0  0  0  0  0  0  0  0  0  0  0  0
    1.9780    0.1460   -0.0440 C   0  0  1  0  0  0  0  0  0  0  0  0
    2.8330    0.5780   -1.0770 O   0  0  0  0  0  0  0  0  0  0  0  0
    0.9890    1.2290    0.2000 C   0  0  0  0  0  0  0  0  0  0  0  0
    1.2070    2.4860    0.5940 N   0  0  0  0  0  0  0  0  0  0  0  0
    0.0410    3.1500    0.6980 C   0  0  0  0  0  0  0  0  0  0  0  0
   -0.9360    2.2510    0.3500 C   0  0  0  0  0  0  0  0  0  0  0  0
   -0.3240    1.0960    0.0540 N   0  0  0  0  0  0  0  0  0  0  0  0
  1  2  1  0
  3  2  1  1
  3  4  1  0
  3 14  1  0
  4  5  1  6
  4  6  1  0
  6  7  1  1
  6  8  1  0
  8  9  1  6
  8 10  1  0
 10 11  2  0
 10 14  1  0
 11 12  1  0
 12 13  2  0
 13 14  1  0
M  END
