
     RDKit          3D

 13 13  0  0  0  0  0  0  0  0999 V2000
    4.0630   -0.1320   -0.6070 C   0  0  0  0  0  0  0  0  0  0  0  0
    2.7420    0.0100    0.1130 C   0  0  0  0  0  0  0  0  0  0  0  0
    1.6940   -0.2120   -0.8390 O   0  0  0  0  0  0  0  0  0  0  0  0
    0.3610   -0.1340   -0.4100 C   0  0  0  0  0  0  0  0  0  0  0  0
   -0.4210    0.8460   -0.8120 C   0  0  0  0  0  0  0  0  0  0  0  0
    0.1270    1.8050   -1.6820 O   0  0  0  0  0  0  0  0  0  0  0  0
   -1.7980    0.9400   -0.3780 C   0  0  0  0  0  0  0  0  0  0  0  0
   -2.4610    1.9680   -0.8580 N   0  0  0  0  0  0  0  0  0  0  0  0
   -2.4010   -0.0240    0.5140 C   0  0  1  0  0  0  0  0  0  0  0  0
   -3.6490   -0.5830   -0.0020 N   0  0  0  0  0  0  0  0  0  0  0  0
   -1.4650   -1.0790    0.9130 C   0  0  0  0  0  0  0  0  0  0  0  0
   -0.2220   -1.1130    0.4860 C   0  0  0  0  0  0  0  0  0  0  0  0
    0.6130   -2.1680    0.9220 O   0  0  0  0  0  0  0  0  0  0  0  0
  1  2  1  0
  2  3  1  0
  3  4  1  0
  4  5  2  0
  4 12  1  0
  5  6  1  0
  5  7  1  0
  7  8  2  0
  7  9  1  0
  9 10  1  6
  9 11  1  0
 11 12  2  0
 12 13  1  0
M  END
