
     RDKit          3D

 14 14  0  0  0  0  0  0  0  0999 V2000
    3.9670    0.9300    0.3780 C   0  0  0  0  0  0  0  0  0  0  0  0
    3.1140   -0.0460   -0.1880 O   0  0  0  0  0  0  0  0  0  0  0  0
    1.7420   -0.0200   -0.0630 C   0  0  0  0  0  0  0  0  0  0  0  0
    1.2470    0.9240    0.5880 O   0  0  0  0  0  0  0  0  0  0  0  0
    0.8640   -1.0470   -0.6600 C   0  0  0  0  0  0  0  0  0  0  0  0
   -0.5930   -0.8330   -0.4400 C   0  0  2  0  0  0  0  0  0  0  0  0
   -1.2840   -1.9050   -1.0660 O   0  0  0  0  0  0  0  0  0  0  0  0
   -1.0200    0.3840   -1.2740 C   0  0  0  0  0  0  0  0  0  0  0  0
   -2.4450    0.7550   -0.8810 C   0  0  0  0  0  0  0  0  0  0  0  0
   -2.4230    1.8240   -0.0300 O   0  0  0  0  0  0  0  0  0  0  0  0
   -1.8570    1.6390    1.1960 C   0  0  0  0  0  0  0  0  0  0  0  0
   -1.4860    0.3160    1.5580 N   0  0  0  0  0  0  0  0  0  0  0  0
   -0.9870   -0.6920    0.9580 C   0  0  0  0  0  0  0  0  0  0  0  0
   -0.7950   -1.8270    1.7800 N   0  0  0  0  0  0  0  0  0  0  0  0
  1  2  1  0
  2  3  1  0
  3  4  2  0
  3  5  1  0
  5  6  1  0
  6  7  1  6
  6  8  1  0
  6 13  1  0
  8  9  1  0
  9 10  1  0
 10 11  1  0
 11 12  1  0
 12 13  2  0
 13 14  1  0
M  END
