
     RDKit          3D

 14 15  0  0  0  0  0  0  0  0999 V2000
   -0.3540   -1.6160   -0.3590 C   0  0  0  0  0  0  0  0  0  0  0  0
    0.3630   -0.4910    0.3960 C   0  0  1  0  0  0  0  0  0  0  0  0
    0.8360   -1.0650    1.6750 C   0  0  0  0  0  0  0  0  0  0  0  0
    1.3400    0.1150   -0.5020 C   0  0  2  0  0  0  0  0  0  0  0  0
    2.5790    0.6820    0.1080 C   0  0  0  0  0  0  0  0  0  0  0  0
    2.2510    1.7560    0.9630 O   0  0  0  0  0  0  0  0  0  0  0  0
    0.7160    1.1070   -1.2240 O   0  0  0  0  0  0  0  0  0  0  0  0
   -0.4990    1.3850   -0.6840 C   0  0  1  0  0  0  0  0  0  0  0  0
   -1.5700    0.8100   -1.5540 C   0  0  0  0  0  0  0  0  0  0  0  0
   -1.6550    0.8000   -2.8020 O   0  0  0  0  0  0  0  0  0  0  0  0
   -2.5340    0.2430   -0.6770 N   0  0  0  0  0  0  0  0  0  0  0  0
   -2.0460    0.1300    0.5110 C   0  0  0  0  0  0  0  0  0  0  0  0
   -2.7890   -0.4080    1.5970 N   0  0  0  0  0  0  0  0  0  0  0  0
   -0.6650    0.6130    0.5960 C   0  0  1  0  0  0  0  0  0  0  0  0
  2  1  1  6
  2  3  1  0
  2  4  1  0
  2 14  1  0
  4  5  1  1
  4  7  1  0
  5  6  1  0
  8  7  1  6
  8  9  1  0
  8 14  1  0
  9 10  2  0
  9 11  1  0
 11 12  2  0
 12 13  1  0
 14 12  1  6
M  END
