
     RDKit          3D

 16 18  0  0  0  0  0  0  0  0999 V2000
    4.2560    0.7790    0.1310 C   0  0  0  0  0  0  0  0  0  0  0  0
    3.2410    0.6340    0.9460 C   0  0  0  0  0  0  0  0  0  0  0  0
    2.2960   -0.3540    0.4430 C   0  0  0  0  0  0  0  0  0  0  0  0
    1.1140   -0.7300    1.1020 N   0  0  0  0  0  0  0  0  0  0  0  0
   -0.2230   -0.6720    0.6590 C   0  0  2  0  0  0  0  0  0  0  0  0
   -0.5090   -1.4340   -0.6210 C   0  0  0  0  0  0  0  0  0  0  0  0
   -1.9750   -1.3150   -0.9520 C   0  0  0  0  0  0  0  0  0  0  0  0
   -2.8970   -1.3600    0.2100 C   0  0  0  0  0  0  0  0  0  0  0  0
   -3.2530   -0.0210    0.8010 C   0  0  0  0  0  0  0  0  0  0  0  0
   -2.1640    0.9050    0.5760 N   0  0  0  0  0  0  0  0  0  0  0  0
   -2.3730    2.2010    0.3950 C   0  0  0  0  0  0  0  0  0  0  0  0
   -1.1470    2.7630    0.2150 C   0  0  0  0  0  0  0  0  0  0  0  0
   -0.2040    1.8150    0.2860 N   0  0  0  0  0  0  0  0  0  0  0  0
   -0.8330    0.6550    0.5110 C   0  0  0  0  0  0  0  0  0  0  0  0
    2.7650   -0.8030   -0.6970 C   0  0  0  0  0  0  0  0  0  0  0  0
    4.0700   -0.1310   -1.0260 C   0  0  0  0  0  0  0  0  0  0  0  0
  1  2  2  0
  1 16  1  0
  2  3  1  0
  3  4  1  0
  3 15  2  0
  5  4  1  6
  5  6  1  0
  5 14  1  0
  6  7  1  0
  7  8  1  0
  8  9  1  0
  9 10  1  0
 10 11  1  0
 10 14  1  0
 11 12  2  0
 12 13  1  0
 13 14  2  0
 15 16  1  0
M  CHG  1  13   1
M  END
