
     RDKit          3D

 16 18  0  0  0  0  0  0  0  0999 V2000
    4.9300    1.3670   -0.4860 C   0  0  0  0  0  0  0  0  0  0  0  0
    3.9260    0.2870   -0.2750 C   0  0  0  0  0  0  0  0  0  0  0  0
    2.7210    0.5830    0.1470 C   0  0  0  0  0  0  0  0  0  0  0  0
    1.7510   -0.5140    0.3460 C   0  0  0  0  0  0  0  0  0  0  0  0
    0.5000   -0.2980    0.7750 C   0  0  0  0  0  0  0  0  0  0  0  0
   -0.4430    0.6810    1.1840 N   0  0  0  0  0  0  0  0  0  0  0  0
   -1.6690    0.0090    1.5110 C   0  0  1  0  0  0  0  0  0  0  0  0
   -2.7970    0.4360    0.6470 C   0  0  0  0  0  0  0  0  0  0  0  0
   -3.4830   -0.3800   -0.1290 C   0  0  0  0  0  0  0  0  0  0  0  0
   -4.5150    0.4060   -0.8280 C   0  0  0  0  0  0  0  0  0  0  0  0
   -4.3070    1.7980   -0.3250 C   0  0  0  0  0  0  0  0  0  0  0  0
   -3.3070    1.7990    0.5290 C   0  0  0  0  0  0  0  0  0  0  0  0
   -1.3860   -1.3760    1.2720 N   0  0  0  0  0  0  0  0  0  0  0  0
   -0.1650   -1.5750    0.8550 C   0  0  0  0  0  0  0  0  0  0  0  0
    0.8160   -2.5860    0.4290 C   0  0  0  0  0  0  0  0  0  0  0  0
    2.0080   -1.8770    0.1190 N   0  0  0  0  0  0  0  0  0  0  0  0
  1  2  1  0
  2  3  2  3
  3  4  1  0
  4  5  2  0
  4 16  1  0
  5  6  1  0
  5 14  1  0
  6  7  1  0
  7  8  1  6
  7 13  1  0
  8  9  2  0
  8 12  1  0
  9 10  1  0
 10 11  1  0
 11 12  2  0
 13 14  2  0
 14 15  1  0
 15 16  1  0
M  CHG  1  16   1
M  END
