
     RDKit          3D

 16 18  0  0  0  0  0  0  0  0999 V2000
    2.9560   -0.5810    1.1180 C   0  0  0  0  0  0  0  0  0  0  0  0
    1.6990    0.1090    0.9000 N   0  0  0  0  0  0  0  0  0  0  0  0
    2.0250    1.4120    0.3580 C   0  0  0  0  0  0  0  0  0  0  0  0
    2.1990    1.2250   -1.1230 C   0  0  0  0  0  0  0  0  0  0  0  0
    1.5550   -0.1070   -1.4100 C   0  0  0  0  0  0  0  0  0  0  0  0
    0.9600   -0.5710   -0.1430 C   0  0  2  0  0  0  0  0  0  0  0  0
   -0.5060   -0.5030    0.0150 C   0  0  2  0  0  0  0  0  0  0  0  0
   -1.1100    0.8400    0.0460 C   0  0  0  0  0  0  0  0  0  0  0  0
   -1.7740    1.3180    1.0650 C   0  0  0  0  0  0  0  0  0  0  0  0
   -2.2190    2.6880    0.7140 C   0  0  0  0  0  0  0  0  0  0  0  0
   -1.7060    2.8600   -0.6060 N   0  0  0  0  0  0  0  0  0  0  0  0
   -1.0660    1.8220   -1.0180 C   0  0  0  0  0  0  0  0  0  0  0  0
   -0.9310   -1.3590    1.2040 C   0  0  0  0  0  0  0  0  0  0  0  0
   -2.2620   -1.8650    0.6670 C   0  0  0  0  0  0  0  0  0  0  0  0
   -1.8120   -2.3740   -0.6160 N   0  0  0  0  0  0  0  0  0  0  0  0
   -1.1390   -1.2250   -1.1770 C   0  0  0  0  0  0  0  0  0  0  0  0
  1  2  1  0
  2  3  1  0
  2  6  1  0
  3  4  1  0
  4  5  1  0
  6  5  1  6
  6  7  1  0
  7  8  1  1
  7 13  1  0
  7 16  1  0
  8  9  2  0
  8 12  1  0
  9 10  1  0
 10 11  1  0
 11 12  2  0
 13 14  1  0
 14 15  1  0
 15 16  1  0
M  CHG  1  15   1
M  END
