
     RDKit          3D

 16 18  0  0  0  0  0  0  0  0999 V2000
   -5.1250    0.7640    0.6610 C   0  0  0  0  0  0  0  0  0  0  0  0
   -4.2850    0.3970   -0.5520 C   0  0  0  0  0  0  0  0  0  0  0  0
   -2.8600    0.7540   -0.2950 C   0  0  0  0  0  0  0  0  0  0  0  0
   -1.9280   -0.1830   -0.3180 C   0  0  0  0  0  0  0  0  0  0  0  0
   -2.0840   -1.6420   -0.5790 C   0  0  0  0  0  0  0  0  0  0  0  0
   -0.6900   -2.0980   -0.7310 N   0  0  0  0  0  0  0  0  0  0  0  0
   -0.0600   -1.3700    0.3200 C   0  0  1  0  0  0  0  0  0  0  0  0
    1.3510   -1.4560    0.5300 C   0  0  0  0  0  0  0  0  0  0  0  0
    2.1460   -0.4260    0.4820 C   0  0  0  0  0  0  0  0  0  0  0  0
    3.6360   -0.5630    0.7170 C   0  0  0  0  0  0  0  0  0  0  0  0
    4.2520    0.2990   -0.3890 C   0  0  0  0  0  0  0  0  0  0  0  0
    3.9760    1.7250    0.0240 C   0  0  0  0  0  0  0  0  0  0  0  0
    2.5320    2.0460    0.1010 C   0  0  0  0  0  0  0  0  0  0  0  0
    1.6810    0.8620    0.1590 N   0  0  0  0  0  0  0  0  0  0  0  0
    0.2940    1.0050   -0.1240 N   0  0  0  0  0  0  0  0  0  0  0  0
   -0.5090    0.0270   -0.0880 C   0  0  0  0  0  0  0  0  0  0  0  0
  1  2  1  0
  2  3  1  0
  3  4  2  3
  4  5  1  0
  4 16  1  0
  5  6  1  0
  7  6  1  6
  7  8  1  0
  7 16  1  0
  8  9  2  0
  9 10  1  0
  9 14  1  0
 10 11  1  0
 11 12  1  0
 12 13  1  0
 13 14  1  0
 14 15  1  0
 15 16  2  0
M  CHG  1   6   1
M  END
