
     RDKit          3D

 22 22  0  0  0  0  0  0  0  0999 V2000
   -2.8520   -1.6190   -1.1080 N   0  0  0  0  0  0  0  0  0  0  0  0
   -2.6580   -0.7100    0.0330 C   0  0  1  0  0  0  0  0  0  0  0  0
   -1.4190   -1.1360    0.7210 C   0  0  2  0  0  0  0  0  0  0  0  0
   -1.1650   -0.4160    1.9010 O   0  0  0  0  0  0  0  0  0  0  0  0
   -0.1900   -1.3050   -0.1120 C   0  0  2  0  0  0  0  0  0  0  0  0
    0.3210   -2.7440   -0.1030 C   0  0  0  0  0  0  0  0  0  0  0  0
   -0.5640   -3.6320   -0.6840 O   0  0  0  0  0  0  0  0  0  0  0  0
    0.8380   -0.5620    0.5130 O   0  0  0  0  0  0  0  0  0  0  0  0
    2.0700   -0.7570   -0.0980 C   0  0  0  0  0  0  0  0  0  0  0  0
    2.8520    0.5320    0.0480 C   0  0  1  0  0  0  0  0  0  0  0  0
    4.2340    0.3200   -0.4820 C   0  0  0  0  0  0  0  0  0  0  0  0
    5.0070   -0.7570    0.2260 C   0  0  0  0  0  0  0  0  0  0  0  0
    6.2660   -0.8230   -0.3770 O   0  0  0  0  0  0  0  0  0  0  0  0
    2.1430    1.6690   -0.6620 C   0  0  0  0  0  0  0  0  0  0  0  0
    1.3810    2.5720    0.2510 C   0  0  0  0  0  0  0  0  0  0  0  0
    0.1600    2.0760    0.6330 O   0  0  0  0  0  0  0  0  0  0  0  0
   -0.7950    2.0740   -0.3960 C   0  0  0  0  0  0  0  0  0  0  0  0
   -2.1170    1.7670    0.2450 C   0  0  1  0  0  0  0  0  0  0  0  0
   -2.8830    2.9550    0.0920 O   0  0  0  0  0  0  0  0  0  0  0  0
   -2.8850    0.6570   -0.3810 C   0  0  2  0  0  0  0  0  0  0  0  0
   -4.3710    1.0120   -0.1890 C   0  0  0  0  0  0  0  0  0  0  0  0
   -5.2210    0.2230   -0.9090 O   0  0  0  0  0  0  0  0  0  0  0  0
  2  1  1  6
  2  3  1  0
  2 20  1  0
  3  4  1  1
  3  5  1  0
  5  6  1  1
  5  8  1  0
  6  7  1  0
  8  9  1  0
  9 10  1  0
 10 11  1  6
 10 14  1  0
 11 12  1  0
 12 13  1  0
 14 15  1  0
 15 16  1  0
 16 17  1  0
 17 18  1  0
 18 19  1  6
 18 20  1  0
 20 21  1  1
 21 22  1  0
M  CHG  1   1   1
M  END
