
     RDKit          3D

 23 24  0  0  0  0  0  0  0  0999 V2000
   -2.9930   -3.6060    0.4830 N   0  0  0  0  0  0  0  0  0  0  0  0
   -1.7900   -2.8460    0.0610 C   0  0  0  0  0  0  0  0  0  0  0  0
   -2.1520   -1.4380    0.0600 C   0  0  2  0  0  0  0  0  0  0  0  0
   -3.1940   -1.2090   -0.8410 O   0  0  0  0  0  0  0  0  0  0  0  0
   -1.0880   -0.3850   -0.1290 C   0  0  2  0  0  0  0  0  0  0  0  0
   -1.9210    0.9230   -0.0850 C   0  0  0  0  0  0  0  0  0  0  0  0
   -1.1520    2.1670   -0.2360 C   0  0  0  0  0  0  0  0  0  0  0  0
   -2.2130    3.2900   -0.1500 C   0  0  0  0  0  0  0  0  0  0  0  0
   -3.1530    3.1430   -1.1650 O   0  0  0  0  0  0  0  0  0  0  0  0
   -0.5860   -0.4730   -1.5460 C   0  0  0  0  0  0  0  0  0  0  0  0
    0.6470   -1.3050   -1.5920 C   0  0  0  0  0  0  0  0  0  0  0  0
    1.6520   -0.6210   -0.9400 O   0  0  0  0  0  0  0  0  0  0  0  0
    1.4200   -0.3930    0.3920 C   0  0  1  0  0  0  0  0  0  0  0  0
    2.1850    0.8600    0.7600 C   0  0  0  0  0  0  0  0  0  0  0  0
    3.6470    0.6800    0.5280 C   0  0  2  0  0  0  0  0  0  0  0  0
    4.2050   -0.3450    1.2530 O   0  0  0  0  0  0  0  0  0  0  0  0
    4.4120    1.9710    0.8510 C   0  0  0  0  0  0  0  0  0  0  0  0
    4.5940    2.6200   -0.3570 O   0  0  0  0  0  0  0  0  0  0  0  0
    4.1070    1.8700   -1.3380 O   0  0  0  0  0  0  0  0  0  0  0  0
    3.9830    0.5470   -0.8990 C   0  0  0  0  0  0  0  0  0  0  0  0
    4.1330   -0.4750   -1.5940 O   0  0  0  0  0  0  0  0  0  0  0  0
    0.0150   -0.3570    0.8280 C   0  0  2  0  0  0  0  0  0  0  0  0
   -0.1980   -1.3340    1.8300 O   0  0  0  0  0  0  0  0  0  0  0  0
  1  2  1  0
  2  3  1  0
  3  4  1  6
  3  5  1  0
  5  6  1  6
  5 10  1  0
  5 22  1  0
  6  7  1  0
  7  8  1  0
  8  9  1  0
 10 11  1  0
 11 12  1  0
 12 13  1  0
 13 14  1  6
 13 22  1  0
 14 15  1  0
 15 16  1  1
 15 17  1  0
 15 20  1  0
 17 18  1  0
 18 19  1  0
 19 20  1  0
 20 21  2  0
 22 23  1  1
M  CHG  1   1   1
M  END
