
     RDKit          3D

 23 24  0  0  0  0  0  0  0  0999 V2000
   -2.7250    1.5970    0.6260 N   0  0  0  0  0  0  0  0  0  0  0  0
   -2.0410    1.5120   -0.6230 C   0  0  1  0  0  0  0  0  0  0  0  0
   -0.7670    2.2630   -0.7330 C   0  0  0  0  0  0  0  0  0  0  0  0
    0.4020    1.6750    0.0280 C   0  0  1  0  0  0  0  0  0  0  0  0
    1.5280    2.2190   -0.6390 O   0  0  0  0  0  0  0  0  0  0  0  0
    0.3640    2.3710    1.3750 C   0  0  0  0  0  0  0  0  0  0  0  0
    0.2350    3.7490    1.0940 O   0  0  0  0  0  0  0  0  0  0  0  0
    0.4520    0.2120    0.0700 C   0  0  2  0  0  0  0  0  0  0  0  0
    1.7940   -0.3790   -0.2460 C   0  0  0  0  0  0  0  0  0  0  0  0
    2.9440   -0.0680    0.6150 C   0  0  1  0  0  0  0  0  0  0  0  0
    3.3470    1.2410    0.7360 O   0  0  0  0  0  0  0  0  0  0  0  0
    2.7660   -0.6300    1.8990 O   0  0  0  0  0  0  0  0  0  0  0  0
    4.1700   -0.7810   -0.0070 C   0  0  0  0  0  0  0  0  0  0  0  0
    5.2660   -0.6620    0.8130 O   0  0  0  0  0  0  0  0  0  0  0  0
   -0.5720   -0.5610   -0.7150 C   0  0  2  0  0  0  0  0  0  0  0  0
    0.1000   -0.9460   -1.9170 O   0  0  0  0  0  0  0  0  0  0  0  0
   -1.7980    0.1330   -1.1370 C   0  0  1  0  0  0  0  0  0  0  0  0
   -2.9270   -0.6560   -0.8040 O   0  0  0  0  0  0  0  0  0  0  0  0
   -2.8160   -1.7970   -1.5970 C   0  0  0  0  0  0  0  0  0  0  0  0
   -1.8060   -2.7070   -0.9800 C   0  0  0  0  0  0  0  0  0  0  0  0
   -0.8710   -1.8970   -0.0690 C   0  0  2  0  0  0  0  0  0  0  0  0
   -1.4840   -1.8670    1.2780 C   0  0  0  0  0  0  0  0  0  0  0  0
   -1.6570   -3.2240    1.6610 O   0  0  0  0  0  0  0  0  0  0  0  0
  2  1  1  1
  2  3  1  0
  2 17  1  0
  3  4  1  0
  4  5  1  6
  4  6  1  0
  4  8  1  0
  6  7  1  0
  8  9  1  6
  8 15  1  0
  9 10  1  0
 10 11  1  1
 10 12  1  0
 10 13  1  0
 13 14  1  0
 15 16  1  6
 15 17  1  0
 15 21  1  0
 17 18  1  1
 18 19  1  0
 19 20  1  0
 20 21  1  0
 21 22  1  1
 22 23  1  0
M  CHG  1   1   1
M  END
