
     RDKit          3D

 19 20  0  0  0  0  0  0  0  0999 V2000
   -3.2400   -0.8800    1.0960 C   0  0  0  0  0  0  0  0  0  0  0  0
   -2.7040    0.1320    0.1070 C   0  0  2  0  0  0  0  0  0  0  0  0
   -1.3510    0.5060    0.5320 C   0  0  0  0  0  0  0  0  0  0  0  0
   -1.1870    0.9560    1.6870 O   0  0  0  0  0  0  0  0  0  0  0  0
   -0.2980    0.3600   -0.3340 O   0  0  0  0  0  0  0  0  0  0  0  0
    1.0170    0.6900   -0.0020 C   0  0  0  0  0  0  0  0  0  0  0  0
    1.4830   -0.1540    1.1450 C   0  0  0  0  0  0  0  0  0  0  0  0
    2.8260    0.1510    1.5140 O   0  0  0  0  0  0  0  0  0  0  0  0
    3.8940    0.0230    0.6490 C   0  0  0  0  0  0  0  0  0  0  0  0
    4.6300   -1.0660    0.6740 C   0  0  0  0  0  0  0  0  0  0  0  0
    5.7980   -1.3250   -0.1980 C   0  0  0  0  0  0  0  0  0  0  0  0
    5.9930   -0.2320   -1.0490 O   0  0  0  0  0  0  0  0  0  0  0  0
    5.2480    0.9160   -1.1020 C   0  0  0  0  0  0  0  0  0  0  0  0
    4.2110    1.0840   -0.2900 C   0  0  0  0  0  0  0  0  0  0  0  0
   -3.6300    1.3360    0.1470 C   0  0  0  0  0  0  0  0  0  0  0  0
   -4.9370    0.8140    0.0520 O   0  0  0  0  0  0  0  0  0  0  0  0
   -5.0970    0.1710   -1.1480 C   0  0  0  0  0  0  0  0  0  0  0  0
   -4.0040   -0.7690   -1.5160 C   0  0  0  0  0  0  0  0  0  0  0  0
   -2.7390   -0.3510   -1.1970 O   0  0  0  0  0  0  0  0  0  0  0  0
  2  1  1  1
  2  3  1  0
  2 15  1  0
  2 19  1  0
  3  4  2  0
  3  5  1  0
  5  6  1  0
  6  7  1  0
  7  8  1  0
  8  9  1  0
  9 10  2  0
  9 14  1  0
 10 11  1  0
 11 12  1  0
 12 13  1  0
 13 14  2  0
 15 16  1  0
 16 17  1  0
 17 18  1  0
 18 19  1  0
M  END
