
     RDKit          3D

 19 20  0  0  0  0  0  0  0  0999 V2000
    1.4080    0.2310   -0.3840 O   0  0  0  0  0  0  0  0  0  0  0  0
    1.7610   -0.8800   -0.8000 C   0  0  0  0  0  0  0  0  0  0  0  0
    0.6880   -1.7760   -1.3400 C   0  0  0  0  0  0  0  0  0  0  0  0
   -0.5800   -1.1920   -1.2830 O   0  0  0  0  0  0  0  0  0  0  0  0
   -1.1840   -0.7810   -0.0910 C   0  0  0  0  0  0  0  0  0  0  0  0
   -0.5220   -0.9640    0.9540 O   0  0  0  0  0  0  0  0  0  0  0  0
   -2.5100   -0.1740   -0.0630 C   0  0  0  0  0  0  0  0  0  0  0  0
   -3.0100    0.1860    1.1030 C   0  0  0  0  0  0  0  0  0  0  0  0
   -4.3720    0.8190    1.2150 C   0  0  2  0  0  0  0  0  0  0  0  0
   -5.3520   -0.1070    1.4820 O   0  0  0  0  0  0  0  0  0  0  0  0
   -4.6490    1.5800   -0.0540 C   0  0  0  0  0  0  0  0  0  0  0  0
   -4.4950    0.6650   -1.2470 C   0  0  0  0  0  0  0  0  0  0  0  0
   -3.2210    0.0170   -1.2330 O   0  0  0  0  0  0  0  0  0  0  0  0
    3.0530   -1.2950   -0.7810 O   0  0  0  0  0  0  0  0  0  0  0  0
    4.1070   -0.5500   -0.3070 C   0  0  0  0  0  0  0  0  0  0  0  0
    4.0400    0.6570    0.1930 C   0  0  0  0  0  0  0  0  0  0  0  0
    5.4270    1.0530    0.5690 C   0  0  0  0  0  0  0  0  0  0  0  0
    6.2550   -0.1060    0.2040 C   0  0  0  0  0  0  0  0  0  0  0  0
    5.4910   -1.0220   -0.2990 C   0  0  0  0  0  0  0  0  0  0  0  0
  1  2  2  0
  2  3  1  0
  2 14  1  0
  3  4  1  0
  4  5  1  0
  5  6  2  0
  5  7  1  0
  7  8  2  0
  7 13  1  0
  8  9  1  0
  9 10  1  6
  9 11  1  0
 11 12  1  0
 12 13  1  0
 14 15  1  0
 15 16  2  0
 15 19  1  0
 16 17  1  0
 17 18  1  0
 18 19  2  0
M  END
