
     RDKit          3D

 19 20  0  0  0  0  0  0  0  0999 V2000
    1.5480   -1.5880   -0.7490 O   0  0  0  0  0  0  0  0  0  0  0  0
    2.1560   -0.7260   -0.0950 C   0  0  0  0  0  0  0  0  0  0  0  0
    1.4550    0.0770    0.9450 C   0  0  0  0  0  0  0  0  0  0  0  0
    0.0980   -0.2630    1.0690 O   0  0  0  0  0  0  0  0  0  0  0  0
   -0.7660   -0.1320   -0.0140 C   0  0  0  0  0  0  0  0  0  0  0  0
   -0.2780    0.2960   -1.0830 O   0  0  0  0  0  0  0  0  0  0  0  0
   -2.2230   -0.4940    0.1070 C   0  0  1  0  0  0  0  0  0  0  0  0
   -2.8910    0.3370    1.1560 C   0  0  0  0  0  0  0  0  0  0  0  0
   -3.6920    1.3210    0.3270 C   0  0  0  0  0  0  0  0  0  0  0  0
   -3.9570    0.4850   -0.9120 C   0  0  2  0  0  0  0  0  0  0  0  0
   -5.2110   -0.3110   -0.6710 C   0  0  0  0  0  0  0  0  0  0  0  0
   -5.1550   -1.1130    0.4410 O   0  0  0  0  0  0  0  0  0  0  0  0
   -2.8330   -0.2700   -1.0950 O   0  0  0  0  0  0  0  0  0  0  0  0
    3.5680   -0.4420   -0.2940 C   0  0  0  0  0  0  0  0  0  0  0  0
    4.2410    0.4630    0.3810 C   0  0  0  0  0  0  0  0  0  0  0  0
    5.6710    0.7530    0.1830 C   0  0  0  0  0  0  0  0  0  0  0  0
    6.2750   -0.0270   -0.8030 O   0  0  0  0  0  0  0  0  0  0  0  0
    5.5840   -0.9830   -1.5230 C   0  0  0  0  0  0  0  0  0  0  0  0
    4.2850   -1.2080   -1.3040 C   0  0  0  0  0  0  0  0  0  0  0  0
  1  2  2  0
  2  3  1  0
  2 14  1  0
  3  4  1  0
  4  5  1  0
  5  6  2  0
  7  5  1  6
  7  8  1  0
  7 13  1  0
  8  9  1  0
  9 10  1  0
 10 11  1  1
 10 13  1  0
 11 12  1  0
 14 15  2  0
 14 19  1  0
 15 16  1  0
 16 17  1  0
 17 18  1  0
 18 19  2  0
M  END
