
     RDKit          3D

 19 20  0  0  0  0  0  0  0  0999 V2000
   -1.7990    1.3700   -1.3580 O   0  0  0  0  0  0  0  0  0  0  0  0
   -2.2370    0.5140   -0.5370 C   0  0  0  0  0  0  0  0  0  0  0  0
   -1.3150   -0.3490    0.2450 C   0  0  0  0  0  0  0  0  0  0  0  0
   -0.0020   -0.0260   -0.1040 O   0  0  0  0  0  0  0  0  0  0  0  0
    1.1270   -0.6330    0.4290 C   0  0  0  0  0  0  0  0  0  0  0  0
    0.9270   -1.5300    1.2810 O   0  0  0  0  0  0  0  0  0  0  0  0
    2.4440   -0.1940   -0.0290 C   0  0  2  0  0  0  0  0  0  0  0  0
    2.3360    0.8180   -0.9780 O   0  0  0  0  0  0  0  0  0  0  0  0
    3.3010   -1.3340   -0.5620 C   0  0  0  0  0  0  0  0  0  0  0  0
    4.7350   -0.9210   -0.3010 C   0  0  0  0  0  0  0  0  0  0  0  0
    4.6560    0.4280    0.3690 C   0  0  2  0  0  0  0  0  0  0  0  0
    5.7020    0.6660    1.2430 O   0  0  0  0  0  0  0  0  0  0  0  0
    3.3210    0.3350    1.0860 C   0  0  0  0  0  0  0  0  0  0  0  0
   -3.6750    0.3790   -0.3600 C   0  0  0  0  0  0  0  0  0  0  0  0
   -4.5200    1.1340   -1.0430 C   0  0  0  0  0  0  0  0  0  0  0  0
   -5.9910    1.0470   -0.9110 C   0  0  0  0  0  0  0  0  0  0  0  0
   -6.4250    0.0820    0.0120 O   0  0  0  0  0  0  0  0  0  0  0  0
   -5.5480   -0.7030    0.7220 C   0  0  0  0  0  0  0  0  0  0  0  0
   -4.2510   -0.5750    0.5570 C   0  0  0  0  0  0  0  0  0  0  0  0
  1  2  2  0
  2  3  1  0
  2 14  1  0
  3  4  1  0
  4  5  1  0
  5  6  2  0
  5  7  1  0
  7  8  1  6
  7  9  1  0
  7 13  1  0
  9 10  1  0
 10 11  1  0
 11 12  1  1
 11 13  1  0
 14 15  2  0
 14 19  1  0
 15 16  1  0
 16 17  1  0
 17 18  1  0
 18 19  2  0
M  END
