
     RDKit          3D

 19 20  0  0  0  0  0  0  0  0999 V2000
    0.9140   -1.8390    1.6180 O   0  0  0  0  0  0  0  0  0  0  0  0
    0.7330   -0.7850    0.9570 C   0  0  0  0  0  0  0  0  0  0  0  0
   -0.5650   -0.4600    0.6100 O   0  0  0  0  0  0  0  0  0  0  0  0
   -1.6880   -1.2240    0.9460 C   0  0  0  0  0  0  0  0  0  0  0  0
   -2.9020   -0.5270    0.4030 C   0  0  0  0  0  0  0  0  0  0  0  0
   -3.8520   -0.1200    1.2340 C   0  0  0  0  0  0  0  0  0  0  0  0
   -5.0550    0.5640    0.7510 C   0  0  0  0  0  0  0  0  0  0  0  0
   -4.7930    1.3100   -0.5290 C   0  0  0  0  0  0  0  0  0  0  0  0
   -4.2170    0.3900   -1.4710 O   0  0  0  0  0  0  0  0  0  0  0  0
   -3.0600   -0.2810   -1.0190 C   0  0  0  0  0  0  0  0  0  0  0  0
   -2.1820   -0.6560   -1.9260 C   0  0  0  0  0  0  0  0  0  0  0  0
   -0.9970   -1.3280   -1.7010 O   0  0  0  0  0  0  0  0  0  0  0  0
    1.9020    0.0290    0.5950 C   0  0  2  0  0  0  0  0  0  0  0  0
    2.0460    0.1760   -0.9260 C   0  0  0  0  0  0  0  0  0  0  0  0
    3.5070    0.6080   -0.9810 C   0  0  0  0  0  0  0  0  0  0  0  0
    4.0840   -0.2080    0.1490 C   0  0  1  0  0  0  0  0  0  0  0  0
    5.2760    0.4820    0.7800 C   0  0  0  0  0  0  0  0  0  0  0  0
    4.8990    1.6840    1.3450 O   0  0  0  0  0  0  0  0  0  0  0  0
    3.0890   -0.4810    1.0410 O   0  0  0  0  0  0  0  0  0  0  0  0
  1  2  2  0
  2  3  1  0
 13  2  1  6
  3  4  1  0
  4  5  1  0
  5  6  2  0
  5 10  1  0
  6  7  1  0
  7  8  1  0
  8  9  1  0
  9 10  1  0
 10 11  2  3
 11 12  1  0
 13 14  1  0
 13 19  1  0
 14 15  1  0
 15 16  1  0
 16 17  1  1
 16 19  1  0
 17 18  1  0
M  END
