
     RDKit          3D

 13 14  0  0  0  0  0  0  0  0999 V2000
    3.2040   -0.0840    1.7400 C   0  0  0  0  0  0  0  0  0  0  0  0
    1.9830   -0.3270    1.1010 C   0  0  0  0  0  0  0  0  0  0  0  0
    1.7990    0.0860   -0.1870 C   0  0  0  0  0  0  0  0  0  0  0  0
    0.5970   -0.1040   -0.9330 N   0  0  0  0  0  0  0  0  0  0  0  0
   -0.5810   -0.7030   -0.3490 C   0  0  2  0  0  0  0  0  0  0  0  0
   -1.6810   -0.8460   -1.3540 C   0  0  0  0  0  0  0  0  0  0  0  0
   -2.9830   -1.1420   -0.6710 C   0  0  0  0  0  0  0  0  0  0  0  0
   -3.4260    0.0390    0.1640 C   0  0  0  0  0  0  0  0  0  0  0  0
   -2.2690    0.9850    0.2990 C   0  0  0  0  0  0  0  0  0  0  0  0
   -1.0520    0.2260    0.7480 C   0  0  0  0  0  0  0  0  0  0  0  0
    2.8590    0.7380   -0.7980 C   0  0  0  0  0  0  0  0  0  0  0  0
    4.0510    0.9590   -0.1320 C   0  0  0  0  0  0  0  0  0  0  0  0
    4.2250    0.5490    1.1370 N   0  0  0  0  0  0  0  0  0  0  0  0
  1  2  2  0
  1 13  1  0
  2  3  1  0
  3  4  1  0
  3 11  2  0
  5  4  1  6
  5  6  1  0
  5 10  1  0
  6  7  1  0
  7  8  1  0
  8  9  1  0
  9 10  1  0
 11 12  1  0
 12 13  2  0
M  CHG  1  13   1
M  END
