
     RDKit          3D

 21 23  0  0  0  0  0  0  0  0999 V2000
    0.1300   -0.0050    2.4160 N   0  0  0  0  0  0  0  0  0  0  0  0
   -0.0100    0.0430    0.9920 C   0  0  0  0  0  0  0  0  0  0  0  0
   -1.2870   -0.0420    0.4820 C   0  0  0  0  0  0  0  0  0  0  0  0
   -2.4170   -0.1740    1.4380 C   0  0  0  0  0  0  0  0  0  0  0  0
   -3.6940   -0.1120    0.7970 N   0  0  0  0  0  0  0  0  0  0  0  0
   -4.4160    1.0000    0.5560 C   0  0  0  0  0  0  0  0  0  0  0  0
   -5.5970    0.6750   -0.0640 C   0  0  0  0  0  0  0  0  0  0  0  0
   -5.5980   -0.6900   -0.2070 C   0  0  0  0  0  0  0  0  0  0  0  0
   -4.4090   -1.1400    0.3350 C   0  0  0  0  0  0  0  0  0  0  0  0
   -1.4290    0.0210   -0.8870 C   0  0  0  0  0  0  0  0  0  0  0  0
   -2.6900   -0.0580   -1.4300 O   0  0  0  0  0  0  0  0  0  0  0  0
   -0.3140    0.1630   -1.7000 C   0  0  0  0  0  0  0  0  0  0  0  0
    0.9740    0.2480   -1.1740 C   0  0  0  0  0  0  0  0  0  0  0  0
    2.4460    0.4860   -2.3230 Br  0  0  0  0  0  0  0  0  0  0  0  0
    1.1310    0.1870    0.1760 C   0  0  0  0  0  0  0  0  0  0  0  0
    2.3910    0.3010    0.8940 C   0  0  0  0  0  0  0  0  0  0  0  0
    3.6420    0.1230    0.2000 C   0  0  0  0  0  0  0  0  0  0  0  0
    4.4600    1.1370   -0.1110 C   0  0  0  0  0  0  0  0  0  0  0  0
    5.6250    0.5800   -0.7990 C   0  0  0  0  0  0  0  0  0  0  0  0
    5.4900   -0.7140   -0.8750 C   0  0  0  0  0  0  0  0  0  0  0  0
    4.2520   -1.0680   -0.2450 N   0  0  0  0  0  0  0  0  0  0  0  0
  1  2  1  0
  2  3  2  0
  2 15  1  0
  3  4  1  0
  3 10  1  0
  4  5  1  0
  5  6  1  0
  5  9  1  0
  6  7  2  0
  7  8  1  0
  8  9  2  0
 10 11  1  0
 10 12  2  0
 12 13  1  0
 13 14  1  0
 13 15  2  0
 15 16  1  0
 16 17  1  0
 17 18  2  0
 17 21  1  0
 18 19  1  0
 19 20  2  0
 20 21  1  0
M  CHG  1  21   1
M  END
