
     RDKit          3D

 13 13  0  0  0  0  0  0  0  0999 V2000
   -4.9000   -0.8360   -0.9700 C   0  0  0  0  0  0  0  0  0  0  0  0
   -3.4260   -0.9210   -0.7310 C   0  0  0  0  0  0  0  0  0  0  0  0
   -2.7940    0.0820   -0.1590 C   0  0  0  0  0  0  0  0  0  0  0  0
   -1.3730    0.0560    0.0960 C   0  0  0  0  0  0  0  0  0  0  0  0
   -0.7940    1.1100    0.6810 C   0  0  0  0  0  0  0  0  0  0  0  0
   -1.5070    2.2730    1.0750 N   0  0  0  0  0  0  0  0  0  0  0  0
    0.6680    1.0170    0.9130 C   0  0  0  0  0  0  0  0  0  0  0  0
    1.3060    0.6820   -0.4160 C   0  0  1  0  0  0  0  0  0  0  0  0
    2.7140    0.5450   -0.2640 N   0  0  0  0  0  0  0  0  0  0  0  0
    3.1630   -0.4950    0.5850 C   0  0  0  0  0  0  0  0  0  0  0  0
    4.6980   -0.4480    0.5920 C   0  0  0  0  0  0  0  0  0  0  0  0
    0.6420   -0.4720   -1.1140 C   0  0  0  0  0  0  0  0  0  0  0  0
   -0.4730   -1.0780   -0.2480 C   0  0  0  0  0  0  0  0  0  0  0  0
  1  2  1  0
  2  3  2  3
  3  4  1  0
  4  5  2  0
  4 13  1  0
  5  6  1  0
  5  7  1  0
  7  8  1  0
  8  9  1  1
  8 12  1  0
  9 10  1  0
 10 11  1  0
 12 13  1  0
M  END
