
     RDKit          3D

 22 23  0  0  0  0  0  0  0  0999 V2000
    5.2080   -1.8810    2.0960 O   0  0  0  0  0  0  0  0  0  0  0  0
    4.7300   -1.0010    1.3050 C   0  0  0  0  0  0  0  0  0  0  0  0
    3.3730   -0.5820    1.5450 N   0  0  0  0  0  0  0  0  0  0  0  0
    2.4680    0.0830    0.6660 C   0  0  0  0  0  0  0  0  0  0  0  0
    1.0870   -0.0570    0.9800 C   0  0  0  0  0  0  0  0  0  0  0  0
    0.8720   -0.7450    1.9870 O   0  0  0  0  0  0  0  0  0  0  0  0
   -0.2440    0.1840    0.7410 N   0  0  2  0  0  0  0  0  0  0  0  0
   -1.0840    0.3740    1.9970 C   0  0  0  0  0  0  0  0  0  0  0  0
   -2.3220    1.2010    1.6360 C   0  0  0  0  0  0  0  0  0  0  0  0
   -3.0180    0.3740    0.6770 N   0  0  0  0  0  0  0  0  0  0  0  0
   -4.1940    0.7940    0.0470 C   0  0  0  0  0  0  0  0  0  0  0  0
   -4.6750    1.9180    0.3070 O   0  0  0  0  0  0  0  0  0  0  0  0
   -4.8770   -0.0820   -0.9290 C   0  0  0  0  0  0  0  0  0  0  0  0
   -6.0230    0.5040   -1.4480 O   0  0  0  0  0  0  0  0  0  0  0  0
   -2.4510   -0.9060    0.3950 C   0  0  0  0  0  0  0  0  0  0  0  0
   -0.9770   -0.8810    0.1280 C   0  0  1  0  0  0  0  0  0  0  0  0
   -0.8030   -0.7610   -1.3700 C   0  0  0  0  0  0  0  0  0  0  0  0
    0.5200   -0.8610   -1.7590 O   0  0  0  0  0  0  0  0  0  0  0  0
    2.9280    0.7730   -0.3690 C   0  0  0  0  0  0  0  0  0  0  0  0
    4.2440    1.0810   -0.9270 C   0  0  0  0  0  0  0  0  0  0  0  0
    5.1300   -0.1660   -1.0170 C   0  0  0  0  0  0  0  0  0  0  0  0
    5.5350   -0.5210    0.2890 O   0  0  0  0  0  0  0  0  0  0  0  0
  1  2  2  0
  2  3  1  0
  2 22  1  0
  3  4  1  0
  4  5  1  0
  4 19  2  0
  5  6  2  0
  7  5  1  1
  7  8  1  0
  7 16  1  0
  8  9  1  0
  9 10  1  0
 10 11  1  0
 10 15  1  0
 11 12  2  0
 11 13  1  0
 13 14  1  0
 15 16  1  0
 16 17  1  6
 17 18  1  0
 19 20  1  0
 20 21  1  0
 21 22  1  0
M  CHG  1   7   1
M  END
