
     RDKit          3D

 22 23  0  0  0  0  0  0  0  0999 V2000
    5.9060   -1.9350    0.3890 N   0  0  0  0  0  0  0  0  0  0  0  0
    5.5950   -1.0260   -0.6530 C   0  0  0  0  0  0  0  0  0  0  0  0
    5.9730   -1.3180   -1.8110 O   0  0  0  0  0  0  0  0  0  0  0  0
    4.8600    0.1890   -0.3190 C   0  0  0  0  0  0  0  0  0  0  0  0
    4.4990    0.4410    0.8720 O   0  0  0  0  0  0  0  0  0  0  0  0
    4.5150    1.1330   -1.2800 O   0  0  0  0  0  0  0  0  0  0  0  0
    3.8000    2.3060   -0.9700 C   0  0  0  0  0  0  0  0  0  0  0  0
    2.4540    2.0960   -0.4400 C   0  0  0  0  0  0  0  0  0  0  0  0
    1.8120    3.1380   -0.0750 O   0  0  0  0  0  0  0  0  0  0  0  0
    1.7900    0.8750   -0.2890 N   0  0  0  0  0  0  0  0  0  0  0  0
    0.4270    0.7760    0.2620 C   0  0  2  0  0  0  0  0  0  0  0  0
    0.5140   -0.0420    1.4990 C   0  0  0  0  0  0  0  0  0  0  0  0
   -0.6740   -0.8810    1.7980 C   0  0  0  0  0  0  0  0  0  0  0  0
   -1.3310   -1.3790    0.6960 O   0  0  0  0  0  0  0  0  0  0  0  0
   -1.7310   -0.4110   -0.1980 C   0  0  1  0  0  0  0  0  0  0  0  0
   -2.5260   -1.0150   -1.3080 C   0  0  0  0  0  0  0  0  0  0  0  0
   -3.8650   -1.3910   -0.9350 N   0  0  0  0  0  0  0  0  0  0  0  0
   -4.7210   -0.2770   -0.6410 C   0  0  0  0  0  0  0  0  0  0  0  0
   -4.7220   -0.0330    0.8450 C   0  0  0  0  0  0  0  0  0  0  0  0
   -3.4660    0.0900    1.3890 O   0  0  0  0  0  0  0  0  0  0  0  0
   -2.5290    0.6590    0.5560 C   0  0  0  0  0  0  0  0  0  0  0  0
   -0.4820    0.2120   -0.7950 C   0  0  0  0  0  0  0  0  0  0  0  0
  1  2  1  0
  2  3  2  0
  2  4  1  0
  4  5  2  0
  4  6  1  0
  6  7  1  0
  7  8  1  0
  8  9  2  0
  8 10  1  0
 11 10  1  6
 11 12  1  0
 11 22  1  0
 12 13  1  0
 13 14  1  0
 14 15  1  0
 15 16  1  6
 15 21  1  0
 15 22  1  0
 16 17  1  0
 17 18  1  0
 18 19  1  0
 19 20  1  0
 20 21  1  0
M  CHG  1  17   1
M  END
