
     RDKit          3D

 14 14  0  0  0  0  0  0  0  0999 V2000
   -4.9790    0.9050   -0.0320 C   0  0  0  0  0  0  0  0  0  0  0  0
   -3.6310    1.2610   -0.5650 C   0  0  0  0  0  0  0  0  0  0  0  0
   -2.5960    0.3470   -0.1130 N   0  0  0  0  0  0  0  0  0  0  0  0
   -1.2310    0.4580   -0.4730 C   0  0  0  0  0  0  0  0  0  0  0  0
   -0.9230    1.4120   -1.2290 O   0  0  0  0  0  0  0  0  0  0  0  0
   -0.2150   -0.4890    0.0080 C   0  0  0  0  0  0  0  0  0  0  0  0
    1.0640   -0.4040   -0.3160 C   0  0  0  0  0  0  0  0  0  0  0  0
    1.7810    0.8570   -1.3820 S   0  0  0  0  0  0  0  0  0  0  0  0
    3.5560    0.6270   -1.5600 C   0  0  0  0  0  0  0  0  0  0  0  0
    4.2350    0.8800   -0.2380 C   0  0  0  0  0  0  0  0  0  0  0  0
    1.8480   -1.4870    0.3090 C   0  0  0  0  0  0  0  0  0  0  0  0
    0.9350   -1.9620    1.4170 C   0  0  0  0  0  0  0  0  0  0  0  0
   -0.4060   -1.6310    0.8800 C   0  0  0  0  0  0  0  0  0  0  0  0
   -1.4860   -2.1990    1.1150 O   0  0  0  0  0  0  0  0  0  0  0  0
  1  2  1  0
  2  3  1  0
  3  4  1  0
  4  5  2  0
  4  6  1  0
  6  7  2  0
  6 13  1  0
  7  8  1  0
  7 11  1  0
  8  9  1  0
  9 10  1  0
 11 12  1  0
 12 13  1  0
 13 14  2  0
M  END
