
     RDKit          3D

 14 14  0  0  0  0  0  0  0  0999 V2000
    5.1550    0.0750    0.4090 C   0  0  0  0  0  0  0  0  0  0  0  0
    3.6940    0.2050    0.6830 C   0  0  0  0  0  0  0  0  0  0  0  0
    2.8980    0.0580   -0.4830 O   0  0  0  0  0  0  0  0  0  0  0  0
    1.5270    0.1650   -0.3190 C   0  0  0  0  0  0  0  0  0  0  0  0
    1.0250    0.3810    0.8120 O   0  0  0  0  0  0  0  0  0  0  0  0
    0.5780    0.0300   -1.4650 C   0  0  0  0  0  0  0  0  0  0  0  0
   -0.7920    0.1590   -1.0390 N   0  0  0  0  0  0  0  0  0  0  0  0
   -1.3720   -0.8150   -0.1110 C   0  0  0  0  0  0  0  0  0  0  0  0
   -0.6360   -1.8690    0.3160 C   0  0  0  0  0  0  0  0  0  0  0  0
   -1.7320   -2.7950    1.4140 S   0  0  0  0  0  0  0  0  0  0  0  0
   -3.1110   -1.6490    1.1870 C   0  0  0  0  0  0  0  0  0  0  0  0
   -2.6460   -0.6940    0.3310 C   0  0  0  0  0  0  0  0  0  0  0  0
   -3.6030    0.4400   -0.0580 C   0  0  0  0  0  0  0  0  0  0  0  0
   -3.2680    1.6950    0.6790 C   0  0  0  0  0  0  0  0  0  0  0  0
  1  2  1  0
  2  3  1  0
  3  4  1  0
  4  5  2  0
  4  6  1  0
  6  7  1  0
  7  8  1  0
  8  9  2  0
  8 12  1  0
  9 10  1  0
 10 11  1  0
 11 12  2  0
 12 13  1  0
 13 14  1  0
M  END
