
     RDKit          3D

 14 14  0  0  0  0  0  0  0  0999 V2000
   -5.5710    0.5590   -0.3100 C   0  0  0  0  0  0  0  0  0  0  0  0
   -4.4130    0.5090    0.5430 N   0  0  0  0  0  0  0  0  0  0  0  0
   -3.3540   -0.3750    0.2290 C   0  0  0  0  0  0  0  0  0  0  0  0
   -3.4580   -1.0930   -0.7890 O   0  0  0  0  0  0  0  0  0  0  0  0
   -2.1730   -0.4270    1.0980 C   0  0  0  0  0  0  0  0  0  0  0  0
   -1.1440   -1.4290    0.6190 C   0  0  0  0  0  0  0  0  0  0  0  0
   -0.6330   -0.9250   -1.0470 S   0  0  0  0  0  0  0  0  0  0  0  0
    0.2490    0.6620   -0.8890 C   0  0  0  0  0  0  0  0  0  0  0  0
    1.5570    0.4470   -0.1140 C   0  0  1  0  0  0  0  0  0  0  0  0
    2.3750   -0.5500   -0.9160 C   0  0  0  0  0  0  0  0  0  0  0  0
    3.6510   -0.7730   -0.1250 C   0  0  0  0  0  0  0  0  0  0  0  0
    4.2790    0.5120    0.2980 C   0  0  0  0  0  0  0  0  0  0  0  0
    3.5070    1.7270   -0.0840 C   0  0  0  0  0  0  0  0  0  0  0  0
    2.1520    1.6650    0.0420 O   0  0  0  0  0  0  0  0  0  0  0  0
  1  2  1  0
  2  3  1  0
  3  4  2  0
  3  5  1  0
  5  6  1  0
  6  7  1  0
  7  8  1  0
  9  8  1  6
  9 10  1  0
  9 14  1  0
 10 11  1  0
 11 12  1  0
 12 13  1  0
 13 14  1  0
M  END
