
     RDKit          3D

 26 25  0  0  0  0  0  0  0  0999 V2000
    5.8910   -1.6860   -2.0690 C   0  0  0  0  0  0  0  0  0  0  0  0
    4.8700   -1.8490   -1.1640 O   0  0  0  0  0  0  0  0  0  0  0  0
    3.6800   -1.4430   -1.7410 C   0  0  0  0  0  0  0  0  0  0  0  0
    2.4980   -1.5900   -0.8090 C   0  0  2  0  0  0  0  0  0  0  0  0
    1.3580   -1.1670   -1.5020 O   0  0  0  0  0  0  0  0  0  0  0  0
    0.4370   -2.1720   -1.6580 C   0  0  0  0  0  0  0  0  0  0  0  0
   -0.7530   -1.7100   -2.4470 C   0  0  0  0  0  0  0  0  0  0  0  0
   -1.4260   -0.6750   -1.8850 O   0  0  0  0  0  0  0  0  0  0  0  0
   -1.9510   -0.8550   -0.6360 C   0  0  0  0  0  0  0  0  0  0  0  0
   -2.7130    0.4110   -0.2620 C   0  0  2  0  0  0  0  0  0  0  0  0
   -3.4530    0.3750    0.9990 C   0  0  0  0  0  0  0  0  0  0  0  0
   -4.3220    1.4580    1.2780 N   0  0  0  0  0  0  0  0  0  0  0  0
   -4.0360    2.8350    1.4180 C   0  0  0  0  0  0  0  0  0  0  0  0
   -5.0940    3.7590    1.7010 N   0  0  0  0  0  0  0  0  0  0  0  0
   -2.8790    3.2430    1.2960 O   0  0  0  0  0  0  0  0  0  0  0  0
   -3.6200    0.6420   -1.4990 C   0  0  0  0  0  0  0  0  0  0  0  0
   -4.7000   -0.7070   -1.8590 S   0  0  0  0  0  0  0  0  0  0  0  0
   -6.0110   -1.0520   -0.7150 C   0  0  0  0  0  0  0  0  0  0  0  0
   -1.8120    1.4750   -0.3010 O   0  0  0  0  0  0  0  0  0  0  0  0
   -0.6850    1.2810    0.4940 C   0  0  0  0  0  0  0  0  0  0  0  0
    2.6900   -0.8760    0.4640 C   0  0  0  0  0  0  0  0  0  0  0  0
    1.7410   -1.1050    1.4680 O   0  0  0  0  0  0  0  0  0  0  0  0
    3.6880   -0.0510    0.7020 C   0  0  0  0  0  0  0  0  0  0  0  0
    3.8050    0.6130    1.9850 C   0  0  0  0  0  0  0  0  0  0  0  0
    4.8050    1.4420    2.2240 C   0  0  0  0  0  0  0  0  0  0  0  0
    4.9200    2.0850    3.4680 N   0  0  0  0  0  0  0  0  0  0  0  0
  1  2  1  0
  2  3  1  0
  4  3  1  6
  4  5  1  0
  4 21  1  0
  5  6  1  0
  6  7  1  0
  7  8  1  0
  8  9  1  0
 10  9  1  6
 10 11  1  0
 10 16  1  0
 10 19  1  0
 11 12  1  0
 12 13  1  0
 13 14  1  0
 13 15  2  0
 16 17  1  0
 17 18  1  0
 19 20  1  0
 21 22  1  0
 21 23  2  3
 23 24  1  0
 24 25  2  3
 25 26  1  0
M  CHG  1  26   1
M  END
