
     RDKit          3D

 14 14  0  0  0  0  0  0  0  0999 V2000
    2.3360    1.7990    1.0280 C   0  0  0  0  0  0  0  0  0  0  0  0
    3.1310    0.5270    1.1030 C   0  0  0  0  0  0  0  0  0  0  0  0
    2.6940   -0.4760    0.0570 C   0  0  0  0  0  0  0  0  0  0  0  0
    1.2360   -0.8440    0.2310 C   0  0  0  0  0  0  0  0  0  0  0  0
    0.7940   -1.7910   -0.7440 N   0  0  0  0  0  0  0  0  0  0  0  0
   -0.8570   -2.1710   -0.5020 S   0  0  1  0  0  0  0  0  0  0  0  0
   -1.3580   -3.2000   -1.4650 O   0  0  0  0  0  0  0  0  0  0  0  0
   -1.0600   -2.6600    0.9200 O   0  0  0  0  0  0  0  0  0  0  0  0
   -1.8290   -0.7360   -0.6860 C   0  0  0  0  0  0  0  0  0  0  0  0
   -2.3670   -0.3300   -1.8890 C   0  0  0  0  0  0  0  0  0  0  0  0
   -3.1240    0.8030   -1.9830 C   0  0  0  0  0  0  0  0  0  0  0  0
   -3.3900    1.6030   -0.8780 C   0  0  0  0  0  0  0  0  0  0  0  0
   -2.8570    1.2050    0.3250 C   0  0  0  0  0  0  0  0  0  0  0  0
   -2.0960    0.0650    0.4210 C   0  0  0  0  0  0  0  0  0  0  0  0
  1  2  1  0
  2  3  1  0
  3  4  1  0
  4  5  1  0
  6  5  1  6
  6  7  2  0
  6  8  2  0
  6  9  1  0
  9 10  2  0
  9 14  1  0
 10 11  1  0
 11 12  2  0
 12 13  1  0
 13 14  2  0
M  END
