
     RDKit          3D

 14 14  0  0  0  0  0  0  0  0999 V2000
    2.8190    1.6990    1.3660 C   0  0  0  0  0  0  0  0  0  0  0  0
    1.9200    0.5240    1.3060 C   0  0  0  0  0  0  0  0  0  0  0  0
    2.1400   -0.5280    0.5330 C   0  0  0  0  0  0  0  0  0  0  0  0
    3.3520   -0.5400   -0.3240 C   0  0  0  0  0  0  0  0  0  0  0  0
    1.2050   -1.6670    0.5190 C   0  0  0  0  0  0  0  0  0  0  0  0
    0.5120   -1.9520   -1.1010 S   0  0  2  0  0  0  0  0  0  0  0  0
   -0.4480   -3.1150   -0.9770 O   0  0  0  0  0  0  0  0  0  0  0  0
    1.5430   -2.3380   -2.0980 O   0  0  0  0  0  0  0  0  0  0  0  0
   -0.3580   -0.5660   -1.6500 N   0  0  0  0  0  0  0  0  0  0  0  0
   -1.4470   -0.3080   -0.7460 C   0  0  2  0  0  0  0  0  0  0  0  0
   -2.7940   -0.3170   -1.4860 C   0  0  0  0  0  0  0  0  0  0  0  0
   -3.6790    0.1990   -0.3520 C   0  0  0  0  0  0  0  0  0  0  0  0
   -2.9130    1.4820   -0.0040 C   0  0  0  0  0  0  0  0  0  0  0  0
   -1.4520    1.1080   -0.2120 C   0  0  0  0  0  0  0  0  0  0  0  0
  1  2  1  0
  2  3  2  3
  3  4  1  0
  3  5  1  0
  6  5  1  1
  6  7  2  0
  6  8  2  0
  6  9  1  0
 10  9  1  6
 10 11  1  0
 10 14  1  0
 11 12  1  0
 12 13  1  0
 13 14  1  0
M  END
