
     RDKit          3D

 14 13  0  0  0  0  0  0  0  0999 V2000
    4.7940    2.3470    0.6180 C   0  0  0  0  0  0  0  0  0  0  0  0
    3.4000    1.9610    0.2980 C   0  0  0  0  0  0  0  0  0  0  0  0
    3.1470    0.6860    0.0680 C   0  0  0  0  0  0  0  0  0  0  0  0
    4.1910   -0.3600    0.1180 C   0  0  0  0  0  0  0  0  0  0  0  0
    1.8070    0.3010   -0.2420 N   0  0  0  0  0  0  0  0  0  0  0  0
    1.1320   -0.7700    0.4590 C   0  0  0  0  0  0  0  0  0  0  0  0
   -0.2710   -0.8790   -0.1520 C   0  0  0  0  0  0  0  0  0  0  0  0
   -1.0670   -1.9450    0.4820 C   0  0  0  0  0  0  0  0  0  0  0  0
   -2.6560   -2.1410   -0.2000 S   0  0  1  0  0  0  0  0  0  0  0  0
   -2.5480   -2.4420   -1.7160 O   0  0  0  0  0  0  0  0  0  0  0  0
   -3.3260   -3.4110    0.3250 O   0  0  0  0  0  0  0  0  0  0  0  0
   -3.7750   -0.8320   -0.0490 C   0  0  0  0  0  0  0  0  0  0  0  0
   -3.4510    0.4810   -0.6390 C   0  0  0  0  0  0  0  0  0  0  0  0
   -4.6820    1.4270   -0.4340 C   0  0  0  0  0  0  0  0  0  0  0  0
  1  2  1  0
  2  3  2  3
  3  4  1  0
  3  5  1  0
  5  6  1  0
  6  7  1  0
  7  8  1  0
  9  8  1  1
  9 10  2  0
  9 11  2  0
  9 12  1  0
 12 13  1  0
 13 14  1  0
M  END
