
     RDKit          3D

 35 35  0  0  0  0  0  0  0  0999 V2000
   -5.2740    3.0150    0.0910 C   0  0  0  0  0  0  0  0  0  0  0  0
   -3.9040    3.2770    0.7360 C   0  0  0  0  0  0  0  0  0  0  0  0
   -3.4500    2.0120    1.0940 O   0  0  0  0  0  0  0  0  0  0  0  0
   -2.5880    1.3160   -0.2480 P   0  0  0  0  0  0  0  0  0  0  0  0
   -1.4970    2.5060   -1.1200 C   0  0  0  0  0  0  0  0  0  0  0  0
   -0.5210    2.9280   -0.0580 C   0  0  0  0  0  0  0  0  0  0  0  0
   -0.5650    4.0190    0.5040 O   0  0  0  0  0  0  0  0  0  0  0  0
    0.5100    1.9890    0.3400 N   0  0  0  0  0  0  0  0  0  0  0  0
    1.0420    1.0410   -0.6100 C   0  0  0  0  0  0  0  0  0  0  0  0
    2.5050    0.6010   -0.3510 C   0  0  1  0  0  0  0  0  0  0  0  0
    3.1400    0.7320   -1.6050 O   0  0  0  0  0  0  0  0  0  0  0  0
    3.1090    1.4910    0.6560 C   0  0  0  0  0  0  0  0  0  0  0  0
    4.4450    1.6200    0.9540 O   0  0  0  0  0  0  0  0  0  0  0  0
    5.3480    2.1100    0.0330 C   0  0  0  0  0  0  0  0  0  0  0  0
    5.0440    2.5500   -1.0510 O   0  0  0  0  0  0  0  0  0  0  0  0
    6.7420    2.1760    0.3380 O   0  0  0  0  0  0  0  0  0  0  0  0
    2.4900   -0.8220    0.0200 C   0  0  2  0  0  0  0  0  0  0  0  0
    3.8700   -1.1040    0.4450 C   0  0  0  0  0  0  0  0  0  0  0  0
    4.2290   -1.3610    1.5520 O   0  0  0  0  0  0  0  0  0  0  0  0
    4.8230   -1.0340   -0.6550 O   0  0  0  0  0  0  0  0  0  0  0  0
    6.1950   -1.2980   -0.3140 C   0  0  0  0  0  0  0  0  0  0  0  0
    1.8910   -1.6570   -0.9420 N   0  0  0  0  0  0  0  0  0  0  0  0
    1.7150   -3.0470   -0.9170 C   0  0  0  0  0  0  0  0  0  0  0  0
    2.0090   -3.6720   -1.9630 O   0  0  0  0  0  0  0  0  0  0  0  0
    1.1740   -3.7300    0.2760 C   0  0  0  0  0  0  0  0  0  0  0  0
   -0.0120   -3.1390    0.7130 O   0  0  0  0  0  0  0  0  0  0  0  0
   -1.0270   -3.3260   -0.2040 C   0  0  0  0  0  0  0  0  0  0  0  0
   -2.4990   -2.3000    0.2340 P   0  0  0  0  0  0  0  0  0  0  0  0
   -3.7230   -3.3730    0.8870 O   0  0  0  0  0  0  0  0  0  0  0  0
   -3.0980   -1.5180   -1.1230 O   0  0  0  0  0  0  0  0  0  0  0  0
   -4.1040   -0.6420   -1.0360 C   0  0  2  0  0  0  0  0  0  0  0  0
   -4.7020   -0.6760    0.4000 C   0  0  0  0  0  0  0  0  0  0  0  0
   -5.2140   -0.9880   -1.8400 O   0  0  0  0  0  0  0  0  0  0  0  0
   -5.9170   -1.9790   -1.4410 O   0  0  0  0  0  0  0  0  0  0  0  0
   -3.7890    0.6460   -1.3450 O   0  0  0  0  0  0  0  0  0  0  0  0
  1  2  1  0
  2  3  1  0
  3  4  1  0
  4  5  1  0
  4 35  1  0
  5  6  1  0
  6  7  2  0
  6  8  1  0
  8  9  1  0
  9 10  1  0
 10 11  1  6
 10 12  1  0
 10 17  1  0
 12 13  1  0
 13 14  1  0
 14 15  2  0
 14 16  1  0
 17 18  1  6
 17 22  1  0
 18 19  2  0
 18 20  1  0
 20 21  1  0
 22 23  1  0
 23 24  2  0
 23 25  1  0
 25 26  1  0
 26 27  1  0
 27 28  1  0
 28 29  1  0
 28 30  1  0
 30 31  1  0
 31 32  1  1
 31 33  1  0
 31 35  1  0
 33 34  1  0
M  END
