
     RDKit          3D

 34 35  0  0  0  0  0  0  0  0999 V2000
   -1.2830   -1.5470   -3.7250 O   0  0  0  0  0  0  0  0  0  0  0  0
   -1.6660   -1.7750   -2.5240 C   0  0  0  0  0  0  0  0  0  0  0  0
   -0.6890   -2.5350   -1.7000 C   0  0  0  0  0  0  0  0  0  0  0  0
   -0.9330   -2.2830   -0.3620 O   0  0  0  0  0  0  0  0  0  0  0  0
   -0.2600   -2.7190    0.7570 C   0  0  0  0  0  0  0  0  0  0  0  0
   -1.0030   -3.3310    1.6340 O   0  0  0  0  0  0  0  0  0  0  0  0
    1.1470   -2.5990    1.0990 C   0  0  0  0  0  0  0  0  0  0  0  0
    1.8020   -3.9810    1.3160 C   0  0  0  0  0  0  0  0  0  0  0  0
    1.1100   -4.6820    2.2730 O   0  0  0  0  0  0  0  0  0  0  0  0
    1.8600   -1.5400    1.3120 C   0  0  0  0  0  0  0  0  0  0  0  0
    3.2420   -1.8300    1.6220 O   0  0  0  0  0  0  0  0  0  0  0  0
    4.3670   -2.1910    0.3200 P   0  0  0  0  0  0  0  0  0  0  0  0
    3.6640   -1.9970   -1.2330 O   0  0  0  0  0  0  0  0  0  0  0  0
    5.8530   -1.3180    0.5010 O   0  0  0  0  0  0  0  0  0  0  0  0
    1.5560   -0.1010    1.3090 C   0  0  0  0  0  0  0  0  0  0  0  0
    2.6060    0.7180    1.0760 C   0  0  0  0  0  0  0  0  0  0  0  0
    2.4780    2.1760    1.0390 C   0  0  0  0  0  0  0  0  0  0  0  0
    2.8660    2.6910   -0.2080 O   0  0  0  0  0  0  0  0  0  0  0  0
    2.7030    4.4020   -0.2110 P   0  0  0  0  0  0  0  0  0  0  0  0
    2.9140    5.0170    1.3920 O   0  0  0  0  0  0  0  0  0  0  0  0
    3.9290    5.0760   -1.2480 O   0  0  0  0  0  0  0  0  0  0  0  0
    0.2800    0.5230    1.5720 C   0  0  0  0  0  0  0  0  0  0  0  0
    0.2010    1.2800    2.6470 O   0  0  0  0  0  0  0  0  0  0  0  0
   -0.9420    0.4700    0.8660 N   0  0  0  0  0  0  0  0  0  0  0  0
   -1.1810    0.8880   -0.4970 C   0  0  0  0  0  0  0  0  0  0  0  0
   -2.6180    0.7830   -0.8620 C   0  0  1  0  0  0  0  0  0  0  0  0
   -2.8510    1.3370   -2.1220 O   0  0  0  0  0  0  0  0  0  0  0  0
   -3.1790   -0.6150   -0.8670 C   0  0  1  0  0  0  0  0  0  0  0  0
   -4.6680   -0.3030   -0.7650 C   0  0  0  0  0  0  0  0  0  0  0  0
   -4.7980    1.0160   -0.4260 O   0  0  0  0  0  0  0  0  0  0  0  0
   -3.5690    1.4610    0.0910 C   0  0  2  0  0  0  0  0  0  0  0  0
   -3.4650    2.9640    0.0130 C   0  0  0  0  0  0  0  0  0  0  0  0
   -2.2400    3.3670    0.5380 O   0  0  0  0  0  0  0  0  0  0  0  0
   -2.9170   -1.3100   -2.1030 N   0  0  0  0  0  0  0  0  0  0  0  0
  1  2  2  0
  2  3  1  0
  2 34  1  0
  3  4  1  0
  4  5  1  0
  5  6  2  0
  5  7  1  0
  7  8  1  0
  7 10  2  0
  8  9  1  0
 10 11  1  0
 10 15  1  0
 11 12  1  0
 12 13  1  0
 12 14  1  0
 15 16  2  3
 15 22  1  0
 16 17  1  0
 17 18  1  0
 18 19  1  0
 19 20  1  0
 19 21  1  0
 22 23  2  0
 22 24  1  0
 24 25  1  0
 25 26  1  0
 26 27  1  6
 26 28  1  0
 26 31  1  0
 28 29  1  6
 28 34  1  0
 29 30  1  0
 30 31  1  0
 31 32  1  6
 32 33  1  0
M  END
