
     RDKit          3D

 34 35  0  0  0  0  0  0  0  0999 V2000
   -5.2260    3.1650   -1.8430 O   0  0  0  0  0  0  0  0  0  0  0  0
   -6.0270    1.9210   -2.2850 P   0  0  0  0  0  0  0  0  0  0  0  0
   -6.1780    0.4720   -1.2800 O   0  0  0  0  0  0  0  0  0  0  0  0
   -5.3060    0.3830   -0.1920 C   0  0  0  0  0  0  0  0  0  0  0  0
   -5.8090    0.7090    1.1200 C   0  0  0  0  0  0  0  0  0  0  0  0
   -7.0900    1.0930    1.2540 C   0  0  0  0  0  0  0  0  0  0  0  0
   -7.9190    1.1760    0.1450 O   0  0  0  0  0  0  0  0  0  0  0  0
   -4.0400    0.0040   -0.3580 C   0  0  0  0  0  0  0  0  0  0  0  0
   -3.6200   -0.3160   -1.7480 C   0  0  0  0  0  0  0  0  0  0  0  0
   -4.5540   -0.6700   -2.5270 O   0  0  0  0  0  0  0  0  0  0  0  0
   -2.3580   -0.2670   -2.2500 O   0  0  0  0  0  0  0  0  0  0  0  0
   -1.2500    0.4520   -1.8260 C   0  0  0  0  0  0  0  0  0  0  0  0
   -0.0600   -0.4530   -1.9100 C   0  0  0  0  0  0  0  0  0  0  0  0
    0.9890   -0.1410   -0.9580 N   0  0  0  0  0  0  0  0  0  0  0  0
    2.3350    0.2850   -1.0770 C   0  0  0  0  0  0  0  0  0  0  0  0
    2.8670    0.7460   -2.1150 O   0  0  0  0  0  0  0  0  0  0  0  0
    3.0000    0.0800    0.2660 C   0  0  1  0  0  0  0  0  0  0  0  0
    4.0350    0.9570    0.3540 O   0  0  0  0  0  0  0  0  0  0  0  0
    5.2780    0.3890    0.5260 C   0  0  0  0  0  0  0  0  0  0  0  0
    5.6890   -0.5440   -0.5890 C   0  0  0  0  0  0  0  0  0  0  0  0
    7.3810   -1.1980   -0.1640 P   0  0  0  0  0  0  0  0  0  0  0  0
    7.6530   -1.0320    1.5420 O   0  0  0  0  0  0  0  0  0  0  0  0
    8.5730   -0.2140   -0.9770 O   0  0  0  0  0  0  0  0  0  0  0  0
    1.8250    0.3650    1.1570 C   0  0  2  0  0  0  0  0  0  0  0  0
    1.9300   -0.2360    2.4030 O   0  0  0  0  0  0  0  0  0  0  0  0
    0.6770   -0.2820    0.4280 C   0  0  2  0  0  0  0  0  0  0  0  0
    0.5840   -1.7270    0.8200 C   0  0  0  0  0  0  0  0  0  0  0  0
    1.5500   -2.1690    1.4940 O   0  0  0  0  0  0  0  0  0  0  0  0
   -0.5020   -2.4540    0.4370 O   0  0  0  0  0  0  0  0  0  0  0  0
   -1.8440   -2.2480    0.7340 C   0  0  0  0  0  0  0  0  0  0  0  0
   -2.5630   -3.3160    0.6780 O   0  0  0  0  0  0  0  0  0  0  0  0
   -2.3140   -1.0200    1.0510 N   0  0  0  0  0  0  0  0  0  0  0  0
   -3.0960   -0.0950    0.7520 C   0  0  0  0  0  0  0  0  0  0  0  0
   -3.0990    1.0660    1.5990 O   0  0  0  0  0  0  0  0  0  0  0  0
  1  2  2  0
  2  3  1  0
  3  4  1  0
  4  5  1  0
  4  8  2  3
  5  6  2  3
  6  7  1  0
  8  9  1  0
  8 33  1  0
  9 10  2  0
  9 11  1  0
 11 12  1  0
 12 13  1  0
 13 14  1  0
 14 15  1  0
 14 26  1  0
 15 16  2  0
 15 17  1  0
 17 18  1  1
 17 24  1  0
 18 19  1  0
 19 20  1  0
 20 21  1  0
 21 22  1  0
 21 23  1  0
 24 25  1  1
 24 26  1  0
 26 27  1  1
 27 28  2  0
 27 29  1  0
 29 30  1  0
 30 31  2  0
 30 32  1  0
 32 33  2  0
 33 34  1  0
M  END
