
     RDKit          3D

 34 35  0  0  0  0  0  0  0  0999 V2000
    6.3260   -5.0190   -0.3780 O   0  0  0  0  0  0  0  0  0  0  0  0
    5.1950   -4.3770   -1.2220 P   0  0  0  0  0  0  0  0  0  0  0  0
    4.9370   -2.5390   -1.1370 C   0  0  0  0  0  0  0  0  0  0  0  0
    3.6740   -2.1660   -1.9060 C   0  0  0  0  0  0  0  0  0  0  0  0
    3.4190   -0.6920   -1.8710 C   0  0  0  0  0  0  0  0  0  0  0  0
    3.2390   -0.1590   -0.4780 C   0  0  0  0  0  0  0  0  0  0  0  0
    2.9820    1.3550   -0.5010 C   0  0  0  0  0  0  0  0  0  0  0  0
    2.8280    1.7500    0.8740 N   0  0  0  0  0  0  0  0  0  0  0  0
    4.0160    2.1660    1.5730 C   0  0  0  0  0  0  0  0  0  0  0  0
    5.1630    1.8940    1.1660 O   0  0  0  0  0  0  0  0  0  0  0  0
    3.8500    2.9440    2.8160 C   0  0  0  0  0  0  0  0  0  0  0  0
    2.6510    2.4690    3.4780 N   0  0  0  0  0  0  0  0  0  0  0  0
    1.5230    2.0600    2.7620 N   0  0  0  0  0  0  0  0  0  0  0  0
    1.5740    1.7040    1.4980 C   0  0  0  0  0  0  0  0  0  0  0  0
    0.3770    1.2760    0.8300 C   0  0  0  0  0  0  0  0  0  0  0  0
    0.0650    1.6120   -0.4240 N   0  0  0  0  0  0  0  0  0  0  0  0
   -1.0320    1.2380   -1.0820 C   0  0  0  0  0  0  0  0  0  0  0  0
   -1.3230    1.6500   -2.4880 C   0  0  0  0  0  0  0  0  0  0  0  0
   -2.2700    3.2290   -2.4540 P   0  0  0  0  0  0  0  0  0  0  0  0
   -2.4290    3.8490   -0.8630 O   0  0  0  0  0  0  0  0  0  0  0  0
   -1.6480    4.4110   -3.5250 O   0  0  0  0  0  0  0  0  0  0  0  0
   -1.9000    0.4480   -0.4150 N   0  0  0  0  0  0  0  0  0  0  0  0
   -1.6650    0.0530    0.8710 C   0  0  0  0  0  0  0  0  0  0  0  0
   -2.5640   -0.7580    1.5460 O   0  0  0  0  0  0  0  0  0  0  0  0
   -3.7250   -1.1780    0.9030 C   0  0  2  0  0  0  0  0  0  0  0  0
   -4.9480   -0.7050    1.6660 C   0  0  0  0  0  0  0  0  0  0  0  0
   -6.1940   -1.1490    0.9890 C   0  0  0  0  0  0  0  0  0  0  0  0
   -6.5950   -2.3380    1.0710 O   0  0  0  0  0  0  0  0  0  0  0  0
   -6.9670   -0.2760    0.2370 O   0  0  0  0  0  0  0  0  0  0  0  0
   -3.8310   -3.0170    0.7240 P   0  0  0  0  0  0  0  0  0  0  0  0
   -4.5890   -3.6620    2.1460 O   0  0  0  0  0  0  0  0  0  0  0  0
   -4.8640   -3.3650   -0.6260 O   0  0  0  0  0  0  0  0  0  0  0  0
   -5.0650   -4.6700   -0.7560 O   0  0  0  0  0  0  0  0  0  0  0  0
   -0.5420    0.4720    1.4580 N   0  0  0  0  0  0  0  0  0  0  0  0
  1  2  2  0
  2  3  1  0
  3  4  1  0
  4  5  1  0
  5  6  1  0
  6  7  1  0
  7  8  1  0
  8  9  1  0
  8 14  1  0
  9 10  2  0
  9 11  1  0
 11 12  1  0
 12 13  1  0
 13 14  2  0
 14 15  1  0
 15 16  2  0
 15 34  1  0
 16 17  1  0
 17 18  1  0
 17 22  2  0
 18 19  1  0
 19 20  1  0
 19 21  1  0
 22 23  1  0
 23 24  1  0
 23 34  2  0
 24 25  1  0
 25 26  1  1
 25 30  1  0
 26 27  1  0
 27 28  2  0
 27 29  1  0
 30 31  1  0
 30 32  1  0
 32 33  1  0
M  END
