
     RDKit          3D

 34 35  0  0  0  0  0  0  0  0999 V2000
   -9.8180    1.9940   -0.2010 C   0  0  0  0  0  0  0  0  0  0  0  0
   -8.9740    3.1450    0.0340 N   0  0  0  0  0  0  0  0  0  0  0  0
   -7.7260    3.0210   -0.5310 O   0  0  0  0  0  0  0  0  0  0  0  0
   -7.0610    1.8230   -0.6070 N   0  0  0  0  0  0  0  0  0  0  0  0
   -7.0850    0.8350    0.2930 N   0  0  0  0  0  0  0  0  0  0  0  0
   -6.3250   -0.1760   -0.1040 C   0  0  0  0  0  0  0  0  0  0  0  0
   -6.0290   -1.4050    0.4670 O   0  0  0  0  0  0  0  0  0  0  0  0
   -4.8600   -1.4890    1.2130 C   0  0  0  0  0  0  0  0  0  0  0  0
   -3.6360   -1.7310    0.6180 C   0  0  0  0  0  0  0  0  0  0  0  0
   -2.4770   -1.8140    1.3590 C   0  0  0  0  0  0  0  0  0  0  0  0
   -1.2460   -2.0530    0.7980 O   0  0  0  0  0  0  0  0  0  0  0  0
   -0.9580   -2.2440   -0.5500 C   0  0  0  0  0  0  0  0  0  0  0  0
    0.4960   -2.4690   -0.6970 C   0  0  0  0  0  0  0  0  0  0  0  0
    0.9510   -2.6600   -1.8480 O   0  0  0  0  0  0  0  0  0  0  0  0
    1.3550   -2.4690    0.4300 N   0  0  0  0  0  0  0  0  0  0  0  0
    2.7660   -2.6790    0.3650 C   0  0  0  0  0  0  0  0  0  0  0  0
    3.4830   -1.6490   -0.4830 C   0  0  0  0  0  0  0  0  0  0  0  0
    4.9750   -1.9760   -0.4750 C   0  0  0  0  0  0  0  0  0  0  0  0
    5.7060   -0.9650   -1.3110 C   0  0  0  0  0  0  0  0  0  0  0  0
    5.3950    0.7160   -0.5580 P   0  0  0  0  0  0  0  0  0  0  0  0
    6.1240    1.9720   -1.4960 O   0  0  0  0  0  0  0  0  0  0  0  0
    5.9900    0.8100    1.0510 O   0  0  0  0  0  0  0  0  0  0  0  0
    7.2910    1.9210    1.2370 P   0  0  0  0  0  0  0  0  0  0  0  0
    7.3280    3.0950   -0.0330 O   0  0  0  0  0  0  0  0  0  0  0  0
    8.8050    1.1460    1.4740 O   0  0  0  0  0  0  0  0  0  0  0  0
    9.9370    1.6420    0.2290 P   0  0  0  0  0  0  0  0  0  0  0  0
    9.9040    3.3630    0.1260 O   0  0  0  0  0  0  0  0  0  0  0  0
   11.5200    1.0360    0.6010 O   0  0  0  0  0  0  0  0  0  0  0  0
   -2.5850   -1.6470    2.7290 C   0  0  0  0  0  0  0  0  0  0  0  0
   -3.8040   -1.4050    3.3300 C   0  0  0  0  0  0  0  0  0  0  0  0
   -4.9010   -1.3330    2.5630 N   0  0  0  0  0  0  0  0  0  0  0  0
   -5.8030    0.2010   -1.3070 N   0  0  0  0  0  0  0  0  0  0  0  0
   -6.2590    1.4360   -1.6140 C   0  0  0  0  0  0  0  0  0  0  0  0
   -5.9050    2.1770   -2.8520 C   0  0  0  0  0  0  0  0  0  0  0  0
  1  2  1  0
  2  3  1  0
  3  4  1  0
  4  5  1  0
  4 33  1  0
  5  6  2  0
  6  7  1  0
  6 32  1  0
  7  8  1  0
  8  9  2  0
  8 31  1  0
  9 10  1  0
 10 11  1  0
 10 29  2  0
 11 12  1  0
 12 13  1  0
 13 14  2  0
 13 15  1  0
 15 16  1  0
 16 17  1  0
 17 18  1  0
 18 19  1  0
 19 20  1  0
 20 21  1  0
 20 22  1  0
 22 23  1  0
 23 24  1  0
 23 25  1  0
 25 26  1  0
 26 27  1  0
 26 28  1  0
 29 30  1  0
 30 31  2  0
 32 33  2  0
 33 34  1  0
M  END
