
     RDKit          3D

 34 35  0  0  0  0  0  0  0  0999 V2000
   -3.8760    3.1360    0.4690 C   0  0  0  0  0  0  0  0  0  0  0  0
   -4.9640    2.0580    0.3310 C   0  0  0  0  0  0  0  0  0  0  0  0
   -4.4680    0.9430    0.9410 O   0  0  0  0  0  0  0  0  0  0  0  0
   -3.5070    0.2200    0.2730 C   0  0  0  0  0  0  0  0  0  0  0  0
   -2.2900   -0.1560    1.0150 C   0  0  1  0  0  0  0  0  0  0  0  0
   -2.5990   -0.0350    2.5880 C   0  0  0  0  0  0  0  0  0  0  0  0
   -3.9270   -0.1820    2.5910 O   0  0  0  0  0  0  0  0  0  0  0  0
   -4.8600   -1.3270    3.2270 P   0  0  0  0  0  0  0  0  0  0  0  0
   -4.9700   -1.8340    4.7770 O   0  0  0  0  0  0  0  0  0  0  0  0
   -6.1530   -1.8410    2.1230 O   0  0  0  0  0  0  0  0  0  0  0  0
   -1.9830   -1.6490    0.9220 C   0  0  0  0  0  0  0  0  0  0  0  0
   -0.6160   -1.9690    0.9320 N   0  0  0  0  0  0  0  0  0  0  0  0
    0.6570   -1.4210    0.4950 C   0  0  0  0  0  0  0  0  0  0  0  0
    1.6430   -1.8080    0.8010 O   0  0  0  0  0  0  0  0  0  0  0  0
    0.5310   -0.1220   -0.4110 C   0  0  1  0  0  0  0  0  0  0  0  0
    1.5300    0.9180    0.0780 C   0  0  0  0  0  0  0  0  0  0  0  0
    2.6280    0.4620    0.5840 O   0  0  0  0  0  0  0  0  0  0  0  0
    3.7050   -0.0620    0.1330 C   0  0  0  0  0  0  0  0  0  0  0  0
    4.7080    0.9280   -0.5230 C   0  0  0  0  0  0  0  0  0  0  0  0
    5.0140    1.8240    0.5190 O   0  0  0  0  0  0  0  0  0  0  0  0
    6.6340    1.5310    0.9570 P   0  0  0  0  0  0  0  0  0  0  0  0
    6.6080    0.8880    2.6130 O   0  0  0  0  0  0  0  0  0  0  0  0
    7.7280    2.7990    0.8720 O   0  0  0  0  0  0  0  0  0  0  0  0
    1.0230   -0.6060   -1.6960 N   0  0  0  0  0  0  0  0  0  0  0  0
    1.6200   -1.8600   -1.8680 C   0  0  0  0  0  0  0  0  0  0  0  0
    1.6550   -2.8660   -1.3290 O   0  0  0  0  0  0  0  0  0  0  0  0
    2.5050   -1.8110   -3.0570 O   0  0  0  0  0  0  0  0  0  0  0  0
    3.3340   -2.9180   -3.3220 C   0  0  0  0  0  0  0  0  0  0  0  0
    0.7220    0.2640   -2.8110 C   0  0  0  0  0  0  0  0  0  0  0  0
   -0.2150    1.3700   -2.5780 C   0  0  0  0  0  0  0  0  0  0  0  0
   -0.7130    1.5580   -1.3080 O   0  0  0  0  0  0  0  0  0  0  0  0
   -0.7750    0.3860   -0.5560 C   0  0  1  0  0  0  0  0  0  0  0  0
   -1.5720   -0.5460   -1.2040 O   0  0  0  0  0  0  0  0  0  0  0  0
   -1.2450    0.6770    0.7800 O   0  0  0  0  0  0  0  0  0  0  0  0
  1  2  1  0
  2  3  1  0
  3  4  1  0
  5  4  1  6
  5  6  1  0
  5 11  1  0
  5 34  1  0
  6  7  1  0
  7  8  1  0
  8  9  1  0
  8 10  1  0
 11 12  1  0
 12 13  1  0
 13 14  2  0
 13 15  1  0
 15 16  1  1
 15 24  1  0
 15 32  1  0
 16 17  1  0
 17 18  1  0
 18 19  1  0
 19 20  1  0
 20 21  1  0
 21 22  1  0
 21 23  1  0
 24 25  1  0
 24 29  1  0
 25 26  2  0
 25 27  1  0
 27 28  1  0
 29 30  1  0
 30 31  1  0
 31 32  1  0
 32 33  1  6
 32 34  1  0
M  END
