
     RDKit          3D

 34 35  0  0  0  0  0  0  0  0999 V2000
   -5.9780    0.1540    2.0940 C   0  0  0  0  0  0  0  0  0  0  0  0
   -6.0680   -1.1280    1.7600 O   0  0  0  0  0  0  0  0  0  0  0  0
   -5.1510   -1.9240    1.2710 C   0  0  0  0  0  0  0  0  0  0  0  0
   -4.4970   -1.6810   -0.0650 C   0  0  1  0  0  0  0  0  0  0  0  0
   -5.7570   -1.7900   -1.4440 P   0  0  0  0  0  0  0  0  0  0  0  0
   -6.9940   -2.9450   -1.0740 O   0  0  0  0  0  0  0  0  0  0  0  0
   -6.4340   -0.2420   -1.7880 O   0  0  0  0  0  0  0  0  0  0  0  0
   -3.7390   -0.4500   -0.1930 C   0  0  0  0  0  0  0  0  0  0  0  0
   -2.4160   -0.3600   -0.4100 C   0  0  0  0  0  0  0  0  0  0  0  0
   -1.5840    0.6390   -0.5450 O   0  0  0  0  0  0  0  0  0  0  0  0
   -0.3700    0.2380   -0.7520 C   0  0  0  0  0  0  0  0  0  0  0  0
    0.9030    0.9470   -0.9610 C   0  0  2  0  0  0  0  0  0  0  0  0
    1.9740    0.4440   -0.1910 O   0  0  0  0  0  0  0  0  0  0  0  0
    3.1020   -0.1300   -0.7230 C   0  0  0  0  0  0  0  0  0  0  0  0
    3.1710   -0.2060   -1.9850 O   0  0  0  0  0  0  0  0  0  0  0  0
    4.1800   -0.6380    0.0210 N   0  0  0  0  0  0  0  0  0  0  0  0
    5.3570   -1.2390   -0.5900 C   0  0  0  0  0  0  0  0  0  0  0  0
    6.3460   -1.6920    0.4610 C   0  0  0  0  0  0  0  0  0  0  0  0
    7.4590   -2.2620   -0.1460 O   0  0  0  0  0  0  0  0  0  0  0  0
    8.6310   -2.8030    0.9800 P   0  0  0  0  0  0  0  0  0  0  0  0
    8.4510   -4.5060    1.3300 O   0  0  0  0  0  0  0  0  0  0  0  0
   10.2490   -2.5070    0.4160 O   0  0  0  0  0  0  0  0  0  0  0  0
    0.7630    2.4650   -0.8470 C   0  0  1  0  0  0  0  0  0  0  0  0
   -0.1640    2.9730   -1.8470 C   0  0  0  0  0  0  0  0  0  0  0  0
   -0.2630    4.3750   -1.8380 O   0  0  0  0  0  0  0  0  0  0  0  0
    0.6250    2.8400    0.5820 C   0  0  0  0  0  0  0  0  0  0  0  0
    0.4100    4.1630    0.8950 O   0  0  0  0  0  0  0  0  0  0  0  0
   -0.7620    4.8640    0.8280 C   0  0  0  0  0  0  0  0  0  0  0  0
   -1.8190    4.3050    0.4770 O   0  0  0  0  0  0  0  0  0  0  0  0
   -0.8460    6.2300    1.1440 O   0  0  0  0  0  0  0  0  0  0  0  0
   -0.4140   -1.1300   -0.7530 N   0  0  0  0  0  0  0  0  0  0  0  0
   -1.6860   -1.5070   -0.5410 C   0  0  0  0  0  0  0  0  0  0  0  0
   -2.2980   -2.6790   -0.4560 C   0  0  0  0  0  0  0  0  0  0  0  0
   -3.6370   -2.8180   -0.2450 O   0  0  0  0  0  0  0  0  0  0  0  0
  1  2  1  0
  2  3  1  0
  4  3  1  1
  4  5  1  0
  4  8  1  0
  4 34  1  0
  5  6  1  0
  5  7  1  0
  8  9  2  0
  9 10  1  0
  9 32  1  0
 10 11  1  0
 11 12  1  0
 11 31  2  0
 12 13  1  1
 12 23  1  0
 13 14  1  0
 14 15  2  0
 14 16  1  0
 16 17  1  0
 17 18  1  0
 18 19  1  0
 19 20  1  0
 20 21  1  0
 20 22  1  0
 23 24  1  6
 23 26  1  0
 24 25  1  0
 26 27  1  0
 27 28  1  0
 28 29  2  0
 28 30  1  0
 31 32  1  0
 32 33  2  0
 33 34  1  0
M  END
