
     RDKit          3D

 34 35  0  0  0  0  0  0  0  0999 V2000
    3.2480    6.2570   -2.0950 O   0  0  0  0  0  0  0  0  0  0  0  0
    2.0270    5.3650   -1.8320 P   0  0  0  0  0  0  0  0  0  0  0  0
    0.9450    5.5340   -0.3220 C   0  0  0  0  0  0  0  0  0  0  0  0
    1.3240    4.7130    0.6890 O   0  0  0  0  0  0  0  0  0  0  0  0
    1.3450    3.3610    0.4590 C   0  0  0  0  0  0  0  0  0  0  0  0
    0.0620    2.7390    0.1750 C   0  0  0  0  0  0  0  0  0  0  0  0
   -0.9330    3.5580    0.0810 O   0  0  0  0  0  0  0  0  0  0  0  0
   -0.2590    1.3810   -0.0080 N   0  0  0  0  0  0  0  0  0  0  0  0
   -1.6620    0.9710   -0.2660 C   0  0  0  0  0  0  0  0  0  0  0  0
   -1.5960   -0.5180    0.0740 C   0  0  1  0  0  0  0  0  0  0  0  0
   -2.7000   -1.2320   -0.3010 O   0  0  0  0  0  0  0  0  0  0  0  0
   -3.9540   -0.9420    0.1820 C   0  0  0  0  0  0  0  0  0  0  0  0
   -4.0440    0.0160    0.9920 O   0  0  0  0  0  0  0  0  0  0  0  0
   -5.1810   -1.6730   -0.1850 C   0  0  1  0  0  0  0  0  0  0  0  0
   -5.0630   -3.1520    0.1990 C   0  0  0  0  0  0  0  0  0  0  0  0
   -6.5980   -4.0520   -0.2630 P   0  0  0  0  0  0  0  0  0  0  0  0
   -7.5180   -3.5010   -1.3890 O   0  0  0  0  0  0  0  0  0  0  0  0
   -6.3420   -1.1410    0.5710 C   0  0  0  0  0  0  0  0  0  0  0  0
   -7.3520   -0.6430    0.0150 O   0  0  0  0  0  0  0  0  0  0  0  0
   -6.3230   -1.1900    1.9420 O   0  0  0  0  0  0  0  0  0  0  0  0
   -0.3530   -0.8130   -0.7460 C   0  0  0  0  0  0  0  0  0  0  0  0
    0.5150    0.2230    0.0660 C   0  0  1  0  0  0  0  0  0  0  0  0
    1.8690    0.1510   -0.3800 C   0  0  0  0  0  0  0  0  0  0  0  0
    2.3180    0.8570   -1.3000 O   0  0  0  0  0  0  0  0  0  0  0  0
    2.8070   -0.7490    0.2130 N   0  0  0  0  0  0  0  0  0  0  0  0
    4.1620   -0.8140   -0.2440 C   0  0  0  0  0  0  0  0  0  0  0  0
    4.5010   -0.0670   -1.1710 O   0  0  0  0  0  0  0  0  0  0  0  0
    5.0290   -1.7140    0.3750 O   0  0  0  0  0  0  0  0  0  0  0  0
    6.3620   -1.7800   -0.0730 C   0  0  0  0  0  0  0  0  0  0  0  0
    7.0630   -2.8040    0.7440 C   0  0  0  0  0  0  0  0  0  0  0  0
    8.2610   -3.0320    0.5200 O   0  0  0  0  0  0  0  0  0  0  0  0
    6.4290   -3.5100    1.7420 O   0  0  0  0  0  0  0  0  0  0  0  0
    0.2230   -0.4690    1.4130 C   0  0  0  0  0  0  0  0  0  0  0  0
   -1.1860   -0.6430    1.3650 O   0  0  0  0  0  0  0  0  0  0  0  0
  1  2  2  0
  2  3  1  0
  3  4  1  0
  4  5  1  0
  5  6  1  0
  6  7  2  0
  6  8  1  0
  8  9  1  0
  8 22  1  0
  9 10  1  0
 10 11  1  6
 10 21  1  0
 10 34  1  0
 11 12  1  0
 12 13  2  0
 12 14  1  0
 14 15  1  1
 14 18  1  0
 15 16  1  0
 16 17  2  0
 18 19  2  0
 18 20  1  0
 21 22  1  0
 22 23  1  6
 22 33  1  0
 23 24  2  0
 23 25  1  0
 25 26  1  0
 26 27  2  0
 26 28  1  0
 28 29  1  0
 29 30  1  0
 30 31  2  0
 30 32  1  0
 33 34  1  0
M  END
