
     RDKit          3D

 34 35  0  0  0  0  0  0  0  0999 V2000
   -4.6360    1.7600   -2.6860 O   0  0  0  0  0  0  0  0  0  0  0  0
   -5.0780    1.4920   -1.5400 C   0  0  0  0  0  0  0  0  0  0  0  0
   -4.3230    2.0560   -0.3830 C   0  0  0  0  0  0  0  0  0  0  0  0
   -2.8830    1.6030   -0.4210 C   0  0  1  0  0  0  0  0  0  0  0  0
   -2.0860    2.6940   -1.0350 C   0  0  0  0  0  0  0  0  0  0  0  0
   -1.1710    3.2890   -0.4240 O   0  0  0  0  0  0  0  0  0  0  0  0
   -2.3750    3.0590   -2.3370 O   0  0  0  0  0  0  0  0  0  0  0  0
   -2.4390    1.3510    0.9520 N   0  0  0  0  0  0  0  0  0  0  0  0
   -1.3260    0.5630    1.2820 C   0  0  0  0  0  0  0  0  0  0  0  0
   -0.9640    0.5010    2.5100 O   0  0  0  0  0  0  0  0  0  0  0  0
   -0.5290   -0.2070    0.3230 C   0  0  1  0  0  0  0  0  0  0  0  0
    0.7650    0.3330    0.1830 O   0  0  0  0  0  0  0  0  0  0  0  0
    1.4720   -0.0880    1.2820 C   0  0  2  0  0  0  0  0  0  0  0  0
    2.9520   -0.0710    0.9420 C   0  0  0  0  0  0  0  0  0  0  0  0
    3.2410   -0.9080   -0.1230 O   0  0  0  0  0  0  0  0  0  0  0  0
    4.5480   -0.9460   -0.4860 C   0  0  0  0  0  0  0  0  0  0  0  0
    5.1400    0.3600   -0.9140 C   0  0  0  0  0  0  0  0  0  0  0  0
    6.9340    0.0240   -1.3580 P   0  0  0  0  0  0  0  0  0  0  0  0
    7.0200   -1.3020   -2.4690 O   0  0  0  0  0  0  0  0  0  0  0  0
    7.8900   -0.2490    0.0430 O   0  0  0  0  0  0  0  0  0  0  0  0
    9.4010    0.5950   -0.1260 P   0  0  0  0  0  0  0  0  0  0  0  0
   10.4020   -0.1430   -1.3290 O   0  0  0  0  0  0  0  0  0  0  0  0
    9.0460    2.2480   -0.4890 O   0  0  0  0  0  0  0  0  0  0  0  0
    1.0010   -1.4080    1.4840 O   0  0  0  0  0  0  0  0  0  0  0  0
   -0.1820   -1.5730    0.7800 C   0  0  0  0  0  0  0  0  0  0  0  0
   -0.8500   -2.6380    0.5540 N   0  0  0  0  0  0  0  0  0  0  0  0
   -2.0390   -2.7890   -0.1560 C   0  0  0  0  0  0  0  0  0  0  0  0
   -2.1210   -3.5480   -1.1890 O   0  0  0  0  0  0  0  0  0  0  0  0
   -3.1890   -2.1230    0.2220 O   0  0  0  0  0  0  0  0  0  0  0  0
   -3.7220   -2.0290    1.5100 C   0  0  0  0  0  0  0  0  0  0  0  0
   -5.1080   -1.3870    1.3850 C   0  0  0  0  0  0  0  0  0  0  0  0
   -5.4660   -1.1600   -0.0660 C   0  0  0  0  0  0  0  0  0  0  0  0
   -6.4730   -0.0770   -0.2740 C   0  0  0  0  0  0  0  0  0  0  0  0
   -6.2000    0.7180   -1.4300 O   0  0  0  0  0  0  0  0  0  0  0  0
  1  2  2  0
  2  3  1  0
  2 34  1  0
  3  4  1  0
  4  5  1  1
  4  8  1  0
  5  6  2  0
  5  7  1  0
  8  9  1  0
  9 10  2  0
  9 11  1  0
 11 12  1  1
 11 25  1  0
 12 13  1  0
 13 14  1  6
 13 24  1  0
 14 15  1  0
 15 16  1  0
 16 17  1  0
 17 18  1  0
 18 19  1  0
 18 20  1  0
 20 21  1  0
 21 22  1  0
 21 23  1  0
 24 25  1  0
 25 26  2  0
 26 27  1  0
 27 28  2  0
 27 29  1  0
 29 30  1  0
 30 31  1  0
 31 32  1  0
 32 33  1  0
 33 34  1  0
M  END
