
     RDKit          3D

  8  8  0  0  0  0  0  0  0  0999 V2000
    2.5270   -1.1270   -0.0200 O   0  0  0  0  0  0  0  0  0  0  0  0
    1.7690    0.0090   -0.2860 C   0  0  0  0  0  0  0  0  0  0  0  0
    0.5520   -0.0570    0.4880 N   0  0  0  0  0  0  0  0  0  0  0  0
   -0.2590   -1.1830    0.2060 C   0  0  0  0  0  0  0  0  0  0  0  0
   -1.7070   -0.9060   -0.0030 C   0  0  0  0  0  0  0  0  0  0  0  0
   -2.0210    0.2630   -0.6040 O   0  0  0  0  0  0  0  0  0  0  0  0
   -1.1430    1.2870   -0.5010 C   0  0  0  0  0  0  0  0  0  0  0  0
   -0.1440    1.1770    0.6010 C   0  0  0  0  0  0  0  0  0  0  0  0
  1  2  1  0
  2  3  1  0
  3  4  1  0
  3  8  1  0
  4  5  1  0
  5  6  1  0
  6  7  1  0
  7  8  1  0
M  END
