
     RDKit          3D

  8  8  0  0  0  0  0  0  0  0999 V2000
    2.3590    1.9790    0.1490 O   0  0  0  0  0  0  0  0  0  0  0  0
    1.3370    1.2550    0.1540 C   0  0  0  0  0  0  0  0  0  0  0  0
    1.5040   -0.1970    0.5080 C   0  0  0  0  0  0  0  0  0  0  0  0
    0.8890   -0.9220   -0.6030 N   0  0  0  0  0  0  0  0  0  0  0  0
   -0.4780   -1.2300   -0.3580 C   0  0  0  0  0  0  0  0  0  0  0  0
   -1.2780   -0.1340    0.2590 C   0  0  0  0  0  0  0  0  0  0  0  0
   -1.1490    1.1850   -0.4410 C   0  0  0  0  0  0  0  0  0  0  0  0
    0.1050    1.8100   -0.1630 O   0  0  0  0  0  0  0  0  0  0  0  0
  1  2  2  0
  2  3  1  0
  2  8  1  0
  3  4  1  0
  4  5  1  0
  5  6  1  0
  6  7  1  0
  7  8  1  0
M  END
