
     RDKit          3D

  7  7  0  0  0  0  0  0  0  0999 V2000
    2.6320   -0.9230    0.1290 O   0  0  0  0  0  0  0  0  0  0  0  0
    1.4500   -0.5210    0.1880 C   0  0  0  0  0  0  0  0  0  0  0  0
    1.1470    0.8560   -0.2550 C   0  0  0  0  0  0  0  0  0  0  0  0
   -0.1910    0.9370   -0.7650 N   0  0  0  0  0  0  0  0  0  0  0  0
   -1.1840    0.4430    0.1510 C   0  0  0  0  0  0  0  0  0  0  0  0
   -0.9460   -1.0210    0.4230 C   0  0  0  0  0  0  0  0  0  0  0  0
    0.4040   -1.2970    0.6470 O   0  0  0  0  0  0  0  0  0  0  0  0
  1  2  2  0
  2  3  1  0
  2  7  1  0
  3  4  1  0
  4  5  1  0
  5  6  1  0
  6  7  1  0
M  END
