
     RDKit          3D

 26 29  0  0  0  0  0  0  0  0999 V2000
    1.1660   -2.9440    1.6990 C   0  0  0  0  0  0  0  0  0  0  0  0
    2.1570   -1.9930    1.1180 C   0  0  0  0  0  0  0  0  0  0  0  0
    3.5030   -2.2300    1.3440 C   0  0  0  0  0  0  0  0  0  0  0  0
    4.4500   -1.3800    0.8230 C   0  0  0  0  0  0  0  0  0  0  0  0
    4.0980   -0.2610    0.0570 C   0  0  0  0  0  0  0  0  0  0  0  0
    5.1530    0.5970   -0.4630 C   0  0  0  0  0  0  0  0  0  0  0  0
    6.3800    0.3240   -0.2560 O   0  0  0  0  0  0  0  0  0  0  0  0
    4.8750    1.7570   -1.2120 N   0  0  0  0  0  0  0  0  0  0  0  0
    5.9480    2.6130   -1.7300 C   0  0  1  0  0  0  0  0  0  0  0  0
    5.6820    3.4880   -2.8700 C   0  0  0  0  0  0  0  0  0  0  0  0
    5.7140    4.0840   -1.6410 C   0  0  0  0  0  0  0  0  0  0  0  0
    2.7560   -0.0600   -0.1430 C   0  0  0  0  0  0  0  0  0  0  0  0
    1.7810   -0.9020    0.3710 C   0  0  0  0  0  0  0  0  0  0  0  0
    0.3640   -0.6160    0.1160 C   0  0  0  0  0  0  0  0  0  0  0  0
   -0.5750   -0.6450    1.1050 C   0  0  0  0  0  0  0  0  0  0  0  0
   -1.9140   -0.3690    0.8110 C   0  0  0  0  0  0  0  0  0  0  0  0
   -2.3140   -0.0630   -0.4680 C   0  0  0  0  0  0  0  0  0  0  0  0
   -3.6970    0.2280   -0.8010 C   0  0  0  0  0  0  0  0  0  0  0  0
   -3.9630    0.5040   -2.0000 O   0  0  0  0  0  0  0  0  0  0  0  0
   -4.7770    0.2280    0.1100 N   0  0  0  0  0  0  0  0  0  0  0  0
   -6.1440    0.5260   -0.2690 C   0  0  0  0  0  0  0  0  0  0  0  0
   -7.0020    0.4260    0.9700 C   0  0  2  0  0  0  0  0  0  0  0  0
   -7.0010   -0.8890    1.6230 C   0  0  0  0  0  0  0  0  0  0  0  0
   -8.1580   -0.3890    1.0660 C   0  0  0  0  0  0  0  0  0  0  0  0
   -1.3290   -0.0460   -1.4330 C   0  0  0  0  0  0  0  0  0  0  0  0
   -0.0040   -0.3110   -1.1930 C   0  0  0  0  0  0  0  0  0  0  0  0
  1  2  1  0
  2  3  2  0
  2 13  1  0
  3  4  1  0
  4  5  2  0
  5  6  1  0
  5 12  1  0
  6  7  2  0
  6  8  1  0
  9  8  1  1
  9 10  1  0
  9 11  1  0
 10 11  2  0
 12 13  2  0
 13 14  1  0
 14 15  2  0
 14 26  1  0
 15 16  1  0
 16 17  2  0
 17 18  1  0
 17 25  1  0
 18 19  2  0
 18 20  1  0
 20 21  1  0
 22 21  1  6
 22 23  1  0
 22 24  1  0
 23 24  2  0
 25 26  2  0
M  END
