
     RDKit          3D

 34 37  0  0  0  0  0  0  0  0999 V2000
   -4.9990    3.6290    1.5630 C   0  0  0  0  0  0  0  0  0  0  0  0
   -5.1180    2.2530    1.2660 O   0  0  0  0  0  0  0  0  0  0  0  0
   -4.0550    1.4150    0.9990 C   0  0  0  0  0  0  0  0  0  0  0  0
   -2.8990    1.9000    1.0200 O   0  0  0  0  0  0  0  0  0  0  0  0
   -4.2060   -0.0010    0.6950 C   0  0  0  0  0  0  0  0  0  0  0  0
   -3.0930   -0.7970    0.4340 C   0  0  0  0  0  0  0  0  0  0  0  0
   -3.2740   -2.1180    0.1520 C   0  0  0  0  0  0  0  0  0  0  0  0
   -2.1610   -3.0020   -0.1290 C   0  0  0  0  0  0  0  0  0  0  0  0
   -1.9650   -4.2590    0.3580 N   0  0  0  0  0  0  0  0  0  0  0  0
   -0.8480   -4.7620   -0.1420 N   0  0  0  0  0  0  0  0  0  0  0  0
   -0.2670   -3.8770   -0.9660 C   0  0  0  0  0  0  0  0  0  0  0  0
   -1.1050   -2.7550   -0.9560 C   0  0  0  0  0  0  0  0  0  0  0  0
   -0.7990   -1.5500   -1.7170 C   0  0  0  0  0  0  0  0  0  0  0  0
   -1.3020   -1.3780   -2.8610 O   0  0  0  0  0  0  0  0  0  0  0  0
    0.0660   -0.5450   -1.2050 N   0  0  0  0  0  0  0  0  0  0  0  0
    0.6640   -0.7550    0.1200 C   0  0  0  0  0  0  0  0  0  0  0  0
    2.1060   -0.3450    0.0910 C   0  0  0  0  0  0  0  0  0  0  0  0
    2.8590   -0.4700    1.1540 C   0  0  0  0  0  0  0  0  0  0  0  0
    4.2480   -0.1090    1.2500 C   0  0  0  0  0  0  0  0  0  0  0  0
    5.2610   -0.9220    1.5230 O   0  0  0  0  0  0  0  0  0  0  0  0
    6.3960   -0.3070    1.5480 C   0  0  0  0  0  0  0  0  0  0  0  0
    6.1770    1.0200    1.2760 C   0  0  0  0  0  0  0  0  0  0  0  0
    4.7950    1.1460    1.0860 C   0  0  0  0  0  0  0  0  0  0  0  0
    4.1610    2.4500    0.8070 C   0  0  0  0  0  0  0  0  0  0  0  0
    5.2020    3.4740    0.7460 N   0  0  0  0  0  0  0  0  0  0  0  0
    2.6620    0.1460   -1.1560 C   0  0  0  0  0  0  0  0  0  0  0  0
    1.8860    0.6280   -2.0890 C   0  0  0  0  0  0  0  0  0  0  0  0
    0.4190    0.6750   -1.8800 C   0  0  1  0  0  0  0  0  0  0  0  0
   -0.2320    0.8600   -3.2180 C   0  0  0  0  0  0  0  0  0  0  0  0
   -4.5870   -2.6100    0.1390 C   0  0  0  0  0  0  0  0  0  0  0  0
   -5.6840   -1.8490    0.3910 C   0  0  0  0  0  0  0  0  0  0  0  0
   -6.9480   -2.3360    0.3760 F   0  0  0  0  0  0  0  0  0  0  0  0
   -5.4920   -0.5220    0.6740 C   0  0  0  0  0  0  0  0  0  0  0  0
   -6.5440    0.2970    0.9350 F   0  0  0  0  0  0  0  0  0  0  0  0
  1  2  1  0
  2  3  1  0
  3  4  2  0
  3  5  1  0
  5  6  2  0
  5 33  1  0
  6  7  1  0
  7  8  1  0
  7 30  2  0
  8  9  2  0
  8 12  1  0
  9 10  1  0
 10 11  1  0
 11 12  2  0
 12 13  1  0
 13 14  2  0
 13 15  1  0
 15 16  1  0
 15 28  1  0
 16 17  1  0
 17 18  2  3
 17 26  1  0
 18 19  1  0
 19 20  1  0
 19 23  2  0
 20 21  1  0
 21 22  2  0
 22 23  1  0
 23 24  1  0
 24 25  1  0
 26 27  2  0
 27 28  1  0
 28 29  1  6
 30 31  1  0
 31 32  1  0
 31 33  2  0
 33 34  1  0
M  END
