
     RDKit          3D

 35 39  0  0  0  0  0  0  0  0999 V2000
    3.5550    0.0990   -3.1180 N   0  0  0  0  0  0  0  0  0  0  0  0
    3.7460   -0.6720   -1.9320 C   0  0  0  0  0  0  0  0  0  0  0  0
    4.8000   -1.3550   -1.8760 O   0  0  0  0  0  0  0  0  0  0  0  0
    2.7170   -0.6130   -0.8820 C   0  0  2  0  0  0  0  0  0  0  0  0
    1.5020    0.0530   -1.3500 N   0  0  0  0  0  0  0  0  0  0  0  0
    0.4230   -0.8970   -1.4890 C   0  0  0  0  0  0  0  0  0  0  0  0
   -0.8390   -0.1870   -1.9130 C   0  0  0  0  0  0  0  0  0  0  0  0
   -0.8580    0.0910   -3.3630 C   0  0  0  0  0  0  0  0  0  0  0  0
    0.0470    1.0710   -3.9690 C   0  0  0  0  0  0  0  0  0  0  0  0
    0.0680    2.3500   -3.4490 O   0  0  0  0  0  0  0  0  0  0  0  0
   -1.8590   -0.0890   -1.0700 C   0  0  0  0  0  0  0  0  0  0  0  0
   -3.1240    0.5780   -1.3160 C   0  0  0  0  0  0  0  0  0  0  0  0
   -3.2290    1.4820   -2.3470 C   0  0  0  0  0  0  0  0  0  0  0  0
   -4.4160    2.1840   -2.5230 C   0  0  0  0  0  0  0  0  0  0  0  0
   -5.4970    2.0130   -1.6970 C   0  0  0  0  0  0  0  0  0  0  0  0
   -5.4060    1.1170   -0.6610 C   0  0  0  0  0  0  0  0  0  0  0  0
   -4.2370    0.4150   -0.4780 C   0  0  0  0  0  0  0  0  0  0  0  0
   -4.2040   -0.5000    0.6620 C   0  0  0  0  0  0  0  0  0  0  0  0
   -2.9270   -1.0560    0.9360 N   0  0  0  0  0  0  0  0  0  0  0  0
   -1.8410   -0.9350    0.1560 C   0  0  0  0  0  0  0  0  0  0  0  0
   -0.8830   -1.6300    0.7490 N   0  0  0  0  0  0  0  0  0  0  0  0
   -1.2810   -2.2070    1.8910 C   0  0  0  0  0  0  0  0  0  0  0  0
   -0.6700   -3.0030    2.8410 C   0  0  0  0  0  0  0  0  0  0  0  0
   -1.3760   -3.4440    3.9360 C   0  0  0  0  0  0  0  0  0  0  0  0
   -2.7030   -3.0750    4.0630 C   0  0  0  0  0  0  0  0  0  0  0  0
   -3.3140   -2.2840    3.1210 C   0  0  0  0  0  0  0  0  0  0  0  0
   -2.5960   -1.8440    2.0220 C   0  0  0  0  0  0  0  0  0  0  0  0
    3.2430   -0.0180    0.3390 C   0  0  0  0  0  0  0  0  0  0  0  0
    2.3750    0.2090    1.4170 C   0  0  0  0  0  0  0  0  0  0  0  0
    2.9020    0.7740    2.5570 C   0  0  0  0  0  0  0  0  0  0  0  0
    4.2300    1.1230    2.6820 C   0  0  0  0  0  0  0  0  0  0  0  0
    4.6990    1.7250    3.9620 C   0  0  0  0  0  0  0  0  0  0  0  0
    4.5330    3.5110    3.8350 S   0  0  0  0  0  0  0  0  0  0  0  0
    5.0800    0.8980    1.6180 C   0  0  0  0  0  0  0  0  0  0  0  0
    4.5630    0.3220    0.4460 C   0  0  0  0  0  0  0  0  0  0  0  0
  1  2  1  0
  2  3  2  0
  2  4  1  0
  4  5  1  6
  4 28  1  0
  5  6  1  0
  6  7  1  0
  7  8  1  0
  7 11  2  3
  8  9  1  0
  9 10  1  0
 11 12  1  0
 11 20  1  0
 12 13  2  0
 12 17  1  0
 13 14  1  0
 14 15  2  0
 15 16  1  0
 16 17  2  0
 17 18  1  0
 18 19  1  0
 19 20  1  0
 19 27  1  0
 20 21  2  0
 21 22  1  0
 22 23  2  0
 22 27  1  0
 23 24  1  0
 24 25  2  0
 25 26  1  0
 26 27  2  0
 28 29  2  0
 28 35  1  0
 29 30  1  0
 30 31  2  0
 31 32  1  0
 31 34  1  0
 32 33  1  0
 34 35  2  0
M  CHG  1   5   1
M  END
