
     RDKit          3D

 35 39  0  0  0  0  0  0  0  0999 V2000
    9.1400   -0.4960    3.2210 N   0  0  0  0  0  0  0  0  0  0  0  0
    7.7350   -0.2430    3.2030 C   0  0  0  0  0  0  0  0  0  0  0  0
    7.1990   -0.0300    1.8570 C   0  0  0  0  0  0  0  0  0  0  0  0
    7.7430    0.0050    0.6370 C   0  0  0  0  0  0  0  0  0  0  0  0
    6.9870    0.2250   -0.4530 C   0  0  0  0  0  0  0  0  0  0  0  0
    5.6520    0.4140   -0.2880 C   0  0  0  0  0  0  0  0  0  0  0  0
    4.5680    0.6710   -1.2450 C   0  0  0  0  0  0  0  0  0  0  0  0
    3.2940    0.8180   -0.7710 C   0  0  0  0  0  0  0  0  0  0  0  0
    2.2580    1.0610   -1.6470 C   0  0  0  0  0  0  0  0  0  0  0  0
    2.4410    1.1660   -3.0050 C   0  0  0  0  0  0  0  0  0  0  0  0
    1.3520    1.4230   -3.9810 C   0  0  0  0  0  0  0  0  0  0  0  0
    0.7230    0.1880   -4.5300 C   0  0  0  0  0  0  0  0  0  0  0  0
    0.1560   -0.5780   -3.5140 O   0  0  0  0  0  0  0  0  0  0  0  0
   -0.8550   -0.1700   -2.6770 C   0  0  0  0  0  0  0  0  0  0  0  0
   -1.3450    0.9760   -2.7950 O   0  0  0  0  0  0  0  0  0  0  0  0
   -1.3470   -1.0860   -1.6540 C   0  0  0  0  0  0  0  0  0  0  0  0
   -0.8480   -2.3470   -1.4840 C   0  0  0  0  0  0  0  0  0  0  0  0
   -1.3590   -3.1630   -0.4970 C   0  0  0  0  0  0  0  0  0  0  0  0
   -2.3610   -2.7600    0.3360 C   0  0  0  0  0  0  0  0  0  0  0  0
   -2.8950   -1.4750    0.1910 C   0  0  0  0  0  0  0  0  0  0  0  0
   -3.9260   -1.0530    1.0700 N   0  0  0  0  0  0  0  0  0  0  0  0
   -4.6550    0.1630    0.7680 C   0  0  1  0  0  0  0  0  0  0  0  0
   -5.4540   -0.0510   -0.4400 C   0  0  0  0  0  0  0  0  0  0  0  0
   -6.7230    0.0610   -0.5020 N   0  0  0  0  0  0  0  0  0  0  0  0
   -7.5270    0.4100    0.6010 C   0  0  0  0  0  0  0  0  0  0  0  0
   -8.9030    0.5330    0.5360 C   0  0  0  0  0  0  0  0  0  0  0  0
   -9.6530    0.8750    1.6310 C   0  0  0  0  0  0  0  0  0  0  0  0
   -9.0010    1.0990    2.8290 C   0  0  0  0  0  0  0  0  0  0  0  0
   -7.6370    0.9810    2.9120 C   0  0  0  0  0  0  0  0  0  0  0  0
   -6.9040    0.6410    1.8150 C   0  0  0  0  0  0  0  0  0  0  0  0
   -5.5010    0.5160    1.8860 N   0  0  0  0  0  0  0  0  0  0  0  0
   -2.3700   -0.6800   -0.8000 C   0  0  0  0  0  0  0  0  0  0  0  0
    3.7570    1.0100   -3.4560 C   0  0  0  0  0  0  0  0  0  0  0  0
    4.7930    0.7680   -2.5820 C   0  0  0  0  0  0  0  0  0  0  0  0
    5.4470    0.2720    1.5040 S   0  0  0  0  0  0  0  0  0  0  0  0
  1  2  1  0
  2  3  1  0
  3  4  2  0
  3 35  1  0
  4  5  1  0
  5  6  2  0
  6  7  1  0
  6 35  1  0
  7  8  2  0
  7 34  1  0
  8  9  1  0
  9 10  2  0
 10 11  1  0
 10 33  1  0
 11 12  1  0
 12 13  1  0
 13 14  1  0
 14 15  2  0
 14 16  1  0
 16 17  2  0
 16 32  1  0
 17 18  1  0
 18 19  2  0
 19 20  1  0
 20 21  1  0
 20 32  2  0
 22 21  1  1
 22 23  1  0
 22 31  1  0
 23 24  2  0
 24 25  1  0
 25 26  2  0
 25 30  1  0
 26 27  1  0
 27 28  2  0
 28 29  1  0
 29 30  2  0
 30 31  1  0
 33 34  2  0
M  CHG  1   1   1
M  END
