
     RDKit          3D

 35 39  0  0  0  0  0  0  0  0999 V2000
    0.6380   -4.0370    1.3560 C   0  0  0  0  0  0  0  0  0  0  0  0
   -0.2290   -2.8120    1.2670 C   0  0  0  0  0  0  0  0  0  0  0  0
   -1.2730   -2.5530    2.1110 N   0  0  0  0  0  0  0  0  0  0  0  0
   -1.8200   -1.3940    1.7300 C   0  0  0  0  0  0  0  0  0  0  0  0
   -1.1210   -0.9190    0.6430 C   0  0  0  0  0  0  0  0  0  0  0  0
   -1.5060    0.2730    0.0730 C   0  0  0  0  0  0  0  0  0  0  0  0
   -2.5900    1.0120    0.5740 C   0  0  0  0  0  0  0  0  0  0  0  0
   -3.0030    2.2720   -0.0190 C   0  0  0  0  0  0  0  0  0  0  0  0
   -2.4730    3.3180    0.4300 O   0  0  0  0  0  0  0  0  0  0  0  0
   -3.9450    2.3700   -1.0490 N   0  0  0  0  0  0  0  0  0  0  0  0
   -4.6090    1.1910   -1.6280 C   0  0  0  0  0  0  0  0  0  0  0  0
   -4.3190    3.6390   -1.6020 C   0  0  2  0  0  0  0  0  0  0  0  0
   -5.6880    3.9210   -2.0860 C   0  0  0  0  0  0  0  0  0  0  0  0
   -4.5530    3.7590   -3.0850 C   0  0  0  0  0  0  0  0  0  0  0  0
   -3.2980    0.5500    1.6600 C   0  0  0  0  0  0  0  0  0  0  0  0
   -4.3650    1.2830    2.1480 C   0  0  0  0  0  0  0  0  0  0  0  0
   -5.0420    0.7770    3.2370 C   0  0  0  0  0  0  0  0  0  0  0  0
   -4.6740   -0.4140    3.8230 C   0  0  0  0  0  0  0  0  0  0  0  0
   -3.5930   -1.1250    3.3040 C   0  0  0  0  0  0  0  0  0  0  0  0
   -2.9000   -0.6420    2.2160 C   0  0  0  0  0  0  0  0  0  0  0  0
   -0.0940   -1.8270    0.3390 C   0  0  0  0  0  0  0  0  0  0  0  0
    0.8390   -1.6090   -0.7410 C   0  0  0  0  0  0  0  0  0  0  0  0
    0.6430   -0.6510   -1.5860 O   0  0  0  0  0  0  0  0  0  0  0  0
    2.0160   -2.3420   -1.0250 N   0  0  0  0  0  0  0  0  0  0  0  0
    2.9080   -2.0570   -2.1380 C   0  0  1  0  0  0  0  0  0  0  0  0
    4.0200   -3.1210   -2.0810 C   0  0  0  0  0  0  0  0  0  0  0  0
    2.2090   -2.2970   -3.4690 C   0  0  0  0  0  0  0  0  0  0  0  0
    3.4690   -0.6850   -2.1590 C   0  0  0  0  0  0  0  0  0  0  0  0
    4.2610   -0.2430   -1.0430 C   0  0  0  0  0  0  0  0  0  0  0  0
    5.5430   -0.2520   -0.6880 C   0  0  0  0  0  0  0  0  0  0  0  0
    5.9720    0.2630    0.4650 C   0  0  0  0  0  0  0  0  0  0  0  0
    5.0290    0.8200    1.3040 C   0  0  0  0  0  0  0  0  0  0  0  0
    5.2200    1.4680    2.6540 C   0  0  0  0  0  0  0  0  0  0  0  0
    5.3880    2.8900    2.5310 N   0  0  0  0  0  0  0  0  0  0  0  0
    3.5380    0.6060    0.4440 S   0  0  0  0  0  0  0  0  0  0  0  0
  1  2  1  0
  2  3  1  0
  2 21  2  0
  3  4  1  0
  4  5  2  0
  4 20  1  0
  5  6  1  0
  5 21  1  0
  6  7  2  0
  7  8  1  0
  7 15  1  0
  8  9  2  0
  8 10  1  0
 10 11  1  0
 12 10  1  6
 12 13  1  0
 12 14  1  0
 13 14  1  0
 15 16  2  0
 15 20  1  0
 16 17  1  0
 17 18  2  0
 18 19  1  0
 19 20  2  0
 21 22  1  0
 22 23  2  0
 22 24  1  0
 24 25  1  0
 25 26  1  1
 25 27  1  0
 25 28  1  0
 28 29  1  0
 29 30  2  0
 29 35  1  0
 30 31  1  0
 31 32  2  0
 32 33  1  0
 32 35  1  0
 33 34  1  0
M  CHG  1  34   1
M  END
