
     RDKit          3D

 35 39  0  0  0  0  0  0  0  0999 V2000
    2.1400    2.7400    3.5680 C   0  0  0  0  0  0  0  0  0  0  0  0
    1.1380    2.0570    2.7330 C   0  0  0  0  0  0  0  0  0  0  0  0
   -0.2070    2.0630    3.1140 C   0  0  0  0  0  0  0  0  0  0  0  0
   -1.1880    1.4460    2.3860 C   0  0  0  0  0  0  0  0  0  0  0  0
   -0.8860    0.7860    1.2350 C   0  0  0  0  0  0  0  0  0  0  0  0
   -1.8460    0.1270    0.4100 N   0  0  0  0  0  0  0  0  0  0  0  0
   -3.2370    0.1610    0.5150 C   0  0  0  0  0  0  0  0  0  0  0  0
   -3.7500    0.8450    1.4310 O   0  0  0  0  0  0  0  0  0  0  0  0
   -4.1570   -0.5440   -0.3670 C   0  0  0  0  0  0  0  0  0  0  0  0
   -3.7170   -1.2350   -1.4560 C   0  0  0  0  0  0  0  0  0  0  0  0
   -4.6580   -1.8900   -2.2560 C   0  0  0  0  0  0  0  0  0  0  0  0
   -5.9630   -1.8540   -1.9800 N   0  0  0  0  0  0  0  0  0  0  0  0
   -6.4330   -1.1820   -0.9120 C   0  0  0  0  0  0  0  0  0  0  0  0
   -7.8430   -1.1670   -0.6460 N   0  0  0  0  0  0  0  0  0  0  0  0
   -8.7300   -1.9010   -1.5280 C   0  0  0  0  0  0  0  0  0  0  0  0
  -10.0500   -1.2290   -1.7470 C   0  0  0  0  0  0  0  0  0  0  0  0
  -10.6080   -0.8330   -0.5300 O   0  0  0  0  0  0  0  0  0  0  0  0
   -9.7800    0.0950    0.0510 C   0  0  0  0  0  0  0  0  0  0  0  0
   -8.4270   -0.4610    0.4520 C   0  0  0  0  0  0  0  0  0  0  0  0
   -5.5130   -0.5400   -0.1280 C   0  0  0  0  0  0  0  0  0  0  0  0
    0.4620    0.7670    0.8310 C   0  0  0  0  0  0  0  0  0  0  0  0
    1.4320    1.3880    1.5690 C   0  0  0  0  0  0  0  0  0  0  0  0
    2.8150    1.3350    1.0940 C   0  0  0  0  0  0  0  0  0  0  0  0
    3.3550    0.1410    0.6640 C   0  0  0  0  0  0  0  0  0  0  0  0
    4.6770    0.0810    0.2040 C   0  0  0  0  0  0  0  0  0  0  0  0
    5.4850    1.1870    0.1590 C   0  0  0  0  0  0  0  0  0  0  0  0
    6.8610    1.1380   -0.3160 C   0  0  0  0  0  0  0  0  0  0  0  0
    7.5760    2.1830   -0.3570 O   0  0  0  0  0  0  0  0  0  0  0  0
    7.4530   -0.0690   -0.7490 N   0  0  0  0  0  0  0  0  0  0  0  0
    8.8400   -0.0530   -1.2160 C   0  0  0  0  0  0  0  0  0  0  0  0
    9.2480   -1.4280   -1.6190 C   0  0  2  0  0  0  0  0  0  0  0  0
    9.1730   -2.4890   -0.4910 C   0  0  0  0  0  0  0  0  0  0  0  0
   10.4660   -2.0820   -1.1120 C   0  0  0  0  0  0  0  0  0  0  0  0
    4.9320    2.3960    0.5970 C   0  0  0  0  0  0  0  0  0  0  0  0
    3.6320    2.4390    1.0450 C   0  0  0  0  0  0  0  0  0  0  0  0
  1  2  1  0
  2  3  2  0
  2 22  1  0
  3  4  1  0
  4  5  2  0
  5  6  1  0
  5 21  1  0
  6  7  1  0
  7  8  2  0
  7  9  1  0
  9 10  2  0
  9 20  1  0
 10 11  1  0
 11 12  2  0
 12 13  1  0
 13 14  1  0
 13 20  2  0
 14 15  1  0
 14 19  1  0
 15 16  1  0
 16 17  1  0
 17 18  1  0
 18 19  1  0
 21 22  2  0
 22 23  1  0
 23 24  2  0
 23 35  1  0
 24 25  1  0
 25 26  2  0
 26 27  1  0
 26 34  1  0
 27 28  2  0
 27 29  1  0
 29 30  1  0
 31 30  1  1
 31 32  1  0
 31 33  1  0
 32 33  1  0
 34 35  2  0
M  END
