
     RDKit          3D

 19 19  0  0  0  0  0  0  0  0999 V2000
   -5.7590    2.3550   -0.4650 C   0  0  0  0  0  0  0  0  0  0  0  0
   -5.3890    1.1160    0.0490 O   0  0  0  0  0  0  0  0  0  0  0  0
   -4.0810    0.6610    0.1330 C   0  0  0  0  0  0  0  0  0  0  0  0
   -3.8180   -0.5830    0.6590 C   0  0  0  0  0  0  0  0  0  0  0  0
   -2.5540   -1.1010    0.7750 C   0  0  0  0  0  0  0  0  0  0  0  0
   -1.4490   -0.3450    0.3420 C   0  0  0  0  0  0  0  0  0  0  0  0
   -0.1670   -0.9160    0.5080 N   0  0  0  0  0  0  0  0  0  0  0  0
    1.0180   -0.5990   -0.1910 C   0  0  0  0  0  0  0  0  0  0  0  0
    1.0240    0.5010   -1.4020 S   0  0  0  0  0  0  0  0  0  0  0  0
    2.2040   -1.3030    0.1670 N   0  0  0  0  0  0  0  0  0  0  0  0
    3.4310   -1.0280   -0.4780 C   0  0  0  0  0  0  0  0  0  0  0  0
    3.8020    0.1650   -0.7340 N   0  0  0  0  0  0  0  0  0  0  0  0
    4.4830   -2.4340   -0.9080 S   0  0  0  0  0  0  0  0  0  0  0  0
    5.9160   -1.9080   -1.6770 O   0  0  0  0  0  0  0  0  0  0  0  0
    6.4400   -0.4240   -1.1240 S   0  0  1  0  0  0  0  0  0  0  0  0
    6.2120   -0.2670    0.3500 O   0  0  0  0  0  0  0  0  0  0  0  0
    7.9270   -0.3440   -1.3780 O   0  0  0  0  0  0  0  0  0  0  0  0
   -1.7430    0.8810   -0.1720 C   0  0  0  0  0  0  0  0  0  0  0  0
   -3.0220    1.3700   -0.2740 N   0  0  0  0  0  0  0  0  0  0  0  0
  1  2  1  0
  2  3  1  0
  3  4  2  0
  3 19  1  0
  4  5  1  0
  5  6  2  0
  6  7  1  0
  6 18  1  0
  7  8  1  0
  8  9  2  0
  8 10  1  0
 10 11  1  0
 11 12  2  0
 11 13  1  0
 13 14  1  0
 15 14  1  1
 15 16  2  0
 15 17  2  0
 18 19  2  0
M  END
