
     RDKit          3D

 19 19  0  0  0  0  0  0  0  0999 V2000
    4.1220    0.6290    0.6200 N   0  0  0  0  0  0  0  0  0  0  0  0
    4.0300    0.7690   -0.6310 C   0  0  0  0  0  0  0  0  0  0  0  0
    4.8500    2.1800   -1.3760 S   0  0  0  0  0  0  0  0  0  0  0  0
    3.1580   -0.3610   -1.6480 S   0  0  0  0  0  0  0  0  0  0  0  0
    2.3500   -1.6250   -0.7400 C   0  0  0  0  0  0  0  0  0  0  0  0
    1.7150   -2.7190   -1.4840 S   0  0  0  0  0  0  0  0  0  0  0  0
    2.2850   -1.6320    0.7450 C   0  0  0  0  0  0  0  0  0  0  0  0
    1.4150   -0.5990    1.2190 N   0  0  0  0  0  0  0  0  0  0  0  0
    0.0390   -0.6140    0.7930 C   0  0  0  0  0  0  0  0  0  0  0  0
   -0.4420   -1.4660    0.0410 O   0  0  0  0  0  0  0  0  0  0  0  0
   -0.7720    0.4010    1.2720 O   0  0  0  0  0  0  0  0  0  0  0  0
   -2.1020    0.4600    0.9130 C   0  0  0  0  0  0  0  0  0  0  0  0
   -2.4570    1.1670   -0.2110 C   0  0  0  0  0  0  0  0  0  0  0  0
   -3.7640    1.2530   -0.6060 N   0  0  0  0  0  0  0  0  0  0  0  0
   -4.7080    0.6430    0.1100 C   0  0  0  0  0  0  0  0  0  0  0  0
   -5.9310    0.7050   -0.2300 O   0  0  0  0  0  0  0  0  0  0  0  0
   -4.4140   -0.0650    1.2250 N   0  0  0  0  0  0  0  0  0  0  0  0
   -3.1210   -0.1470    1.6110 C   0  0  0  0  0  0  0  0  0  0  0  0
   -2.8730   -0.8090    2.6480 O   0  0  0  0  0  0  0  0  0  0  0  0
  1  2  2  0
  2  3  1  0
  2  4  1  0
  4  5  1  0
  5  6  2  0
  5  7  1  0
  7  8  1  0
  8  9  1  0
  9 10  2  0
  9 11  1  0
 11 12  1  0
 12 13  2  0
 12 18  1  0
 13 14  1  0
 14 15  1  0
 15 16  2  0
 15 17  1  0
 17 18  1  0
 18 19  2  0
M  END
