
     RDKit          3D

 19 20  0  0  0  0  0  0  0  0999 V2000
   -5.7070    0.7650   -1.4570 O   0  0  0  0  0  0  0  0  0  0  0  0
   -4.6030    0.4820   -0.9310 C   0  0  0  0  0  0  0  0  0  0  0  0
   -3.4850    1.1400   -1.2890 N   0  0  0  0  0  0  0  0  0  0  0  0
   -2.3000    0.8400   -0.7280 C   0  0  0  0  0  0  0  0  0  0  0  0
   -1.1560    1.5170   -1.0980 C   0  0  0  0  0  0  0  0  0  0  0  0
    0.0720    1.2270   -0.5360 C   0  0  0  0  0  0  0  0  0  0  0  0
    0.1980    0.2420    0.4220 C   0  0  0  0  0  0  0  0  0  0  0  0
    1.8050   -0.1250    1.1450 S   0  0  0  0  0  0  0  0  0  0  0  0
    2.6380   -1.3660    0.2140 N   0  0  0  0  0  0  0  0  0  0  0  0
    4.3300   -1.3050    0.3770 S   0  0  1  0  0  0  0  0  0  0  0  0
    4.6940   -0.8110    1.7420 O   0  0  0  0  0  0  0  0  0  0  0  0
    4.9350   -2.6900    0.1990 O   0  0  0  0  0  0  0  0  0  0  0  0
    5.0050   -0.2640   -0.8470 N   0  0  0  0  0  0  0  0  0  0  0  0
    5.0760    1.3950   -0.2050 S   0  0  0  0  0  0  0  0  0  0  0  0
   -0.9390   -0.4430    0.8010 C   0  0  0  0  0  0  0  0  0  0  0  0
   -2.1700   -0.1440    0.2300 C   0  0  0  0  0  0  0  0  0  0  0  0
   -3.2860   -0.8030    0.5890 N   0  0  0  0  0  0  0  0  0  0  0  0
   -4.4760   -0.5100    0.0340 C   0  0  0  0  0  0  0  0  0  0  0  0
   -5.4890   -1.1420    0.3920 O   0  0  0  0  0  0  0  0  0  0  0  0
  1  2  2  0
  2  3  1  0
  2 18  1  0
  3  4  1  0
  4  5  2  0
  4 16  1  0
  5  6  1  0
  6  7  2  0
  7  8  1  0
  7 15  1  0
  8  9  1  0
 10  9  1  1
 10 11  2  0
 10 12  2  0
 10 13  1  0
 13 14  1  0
 15 16  2  0
 16 17  1  0
 17 18  1  0
 18 19  2  0
M  END
