
     RDKit          3D

 12 13  0  0  0  0  0  0  0  0999 V2000
    3.9210   -0.2020    0.0850 O   0  0  0  0  0  0  0  0  0  0  0  0
    2.5470   -0.4670    0.0850 C   0  0  0  0  0  0  0  0  0  0  0  0
    2.0860   -1.6490    0.6260 C   0  0  0  0  0  0  0  0  0  0  0  0
    0.7250   -1.8950    0.6180 C   0  0  0  0  0  0  0  0  0  0  0  0
   -0.1370   -0.9690    0.0790 C   0  0  0  0  0  0  0  0  0  0  0  0
    0.3480    0.2000   -0.4530 C   0  0  0  0  0  0  0  0  0  0  0  0
    1.6890    0.4640   -0.4560 C   0  0  0  0  0  0  0  0  0  0  0  0
   -0.6450    1.1800   -1.0320 C   0  0  2  0  0  0  0  0  0  0  0  0
    0.0280    2.3800   -1.2030 O   0  0  0  0  0  0  0  0  0  0  0  0
   -1.8780    1.2990   -0.1980 C   0  0  0  0  0  0  0  0  0  0  0  0
   -2.2200    0.1000    0.6230 C   0  0  0  0  0  0  0  0  0  0  0  0
   -1.6050   -1.1600    0.0350 C   0  0  0  0  0  0  0  0  0  0  0  0
  1  2  1  0
  2  3  2  0
  2  7  1  0
  3  4  1  0
  4  5  2  0
  5  6  1  0
  5 12  1  0
  6  7  2  0
  6  8  1  0
  8  9  1  1
  8 10  1  0
 10 11  1  0
 11 12  1  0
M  END
