
     RDKit          3D

 12 12  0  0  0  0  0  0  0  0999 V2000
   -1.5710    2.5040    0.0520 C   0  0  0  0  0  0  0  0  0  0  0  0
   -0.6520    1.3370    0.0270 C   0  0  0  0  0  0  0  0  0  0  0  0
    0.7360    1.4900   -0.0150 C   0  0  0  0  0  0  0  0  0  0  0  0
    1.5720    0.4030   -0.0350 C   0  0  0  0  0  0  0  0  0  0  0  0
    3.0390    0.5180    0.0310 C   0  0  0  0  0  0  0  0  0  0  0  0
    3.6750   -0.2270   -0.9620 O   0  0  0  0  0  0  0  0  0  0  0  0
    1.0350   -0.8930   -0.0180 C   0  0  0  0  0  0  0  0  0  0  0  0
    1.9080   -1.9630   -0.0420 O   0  0  0  0  0  0  0  0  0  0  0  0
   -0.3240   -1.0310    0.0260 C   0  0  0  0  0  0  0  0  0  0  0  0
   -0.9790   -2.3550   -0.0050 C   0  0  0  0  0  0  0  0  0  0  0  0
   -1.1670    0.0720    0.0500 C   0  0  0  0  0  0  0  0  0  0  0  0
   -2.6140   -0.1400    0.1500 C   0  0  0  0  0  0  0  0  0  0  0  0
  1  2  1  0
  2  3  2  0
  2 11  1  0
  3  4  1  0
  4  5  1  0
  4  7  2  0
  5  6  1  0
  7  8  1  0
  7  9  1  0
  9 10  1  0
  9 11  2  0
 11 12  1  0
M  END
