
     RDKit          3D

 22 23  0  0  0  0  0  0  0  0999 V2000
   -0.9610   -0.4060    2.5400 O   0  0  0  0  0  0  0  0  0  0  0  0
   -0.3490   -0.7200    1.4230 C   0  0  0  0  0  0  0  0  0  0  0  0
    0.9470   -0.4940    1.6180 N   0  0  0  0  0  0  0  0  0  0  0  0
    2.2530   -0.3420    1.5890 C   0  0  0  0  0  0  0  0  0  0  0  0
    2.6180    0.0780    2.7810 O   0  0  0  0  0  0  0  0  0  0  0  0
    3.2890   -0.5120    0.6360 C   0  0  2  0  0  0  0  0  0  0  0  0
    4.5770    0.0720    1.1490 C   0  0  0  0  0  0  0  0  0  0  0  0
    5.2110    0.9120    0.1160 C   0  0  1  0  0  0  0  0  0  0  0  0
    5.5500    0.0970   -0.9650 O   0  0  0  0  0  0  0  0  0  0  0  0
    4.1380    1.8610   -0.4080 C   0  0  0  0  0  0  0  0  0  0  0  0
    2.9230    0.5350   -0.8340 S   0  0  0  0  0  0  0  0  0  0  0  0
   -1.1100   -1.1730    0.3860 N   0  0  0  0  0  0  0  0  0  0  0  0
   -2.5230   -1.2950    0.5360 C   0  0  2  0  0  0  0  0  0  0  0  0
   -2.9340   -2.5930    0.2770 O   0  0  0  0  0  0  0  0  0  0  0  0
   -3.2470   -0.3660   -0.3570 C   0  0  0  0  0  0  0  0  0  0  0  0
   -2.6520    0.4890   -1.1460 C   0  0  0  0  0  0  0  0  0  0  0  0
   -1.2690    0.6020   -1.2150 O   0  0  0  0  0  0  0  0  0  0  0  0
   -3.4220    1.4020   -2.0270 C   0  0  0  0  0  0  0  0  0  0  0  0
   -4.8040    1.2710   -1.9020 O   0  0  0  0  0  0  0  0  0  0  0  0
   -5.4460    0.3800   -1.0800 C   0  0  0  0  0  0  0  0  0  0  0  0
   -4.7080   -0.4130   -0.3310 C   0  0  0  0  0  0  0  0  0  0  0  0
   -5.3090   -1.3390    0.5250 O   0  0  0  0  0  0  0  0  0  0  0  0
  1  2  2  0
  2  3  1  0
  2 12  1  0
  3  4  1  0
  4  5  2  0
  6  4  1  1
  6  7  1  0
  6 11  1  0
  7  8  1  0
  8  9  1  6
  8 10  1  0
 10 11  1  0
 12 13  1  0
 13 14  1  6
 13 15  1  0
 15 16  2  0
 15 21  1  0
 16 17  1  0
 16 18  1  0
 18 19  1  0
 19 20  1  0
 20 21  2  0
 21 22  1  0
M  END
