
     RDKit          3D

 12 12  0  0  0  0  0  0  0  0999 V2000
    3.4240   -0.6160    1.5860 O   0  0  0  0  0  0  0  0  0  0  0  0
    3.6770   -0.3640    0.2480 C   0  0  0  0  0  0  0  0  0  0  0  0
    2.3900   -0.6150   -0.5320 C   0  0  0  0  0  0  0  0  0  0  0  0
    1.3610    0.3360    0.0290 C   0  0  0  0  0  0  0  0  0  0  0  0
    0.0300    0.2060   -0.6450 C   0  0  2  0  0  0  0  0  0  0  0  0
    0.2450    0.4950   -2.0150 O   0  0  0  0  0  0  0  0  0  0  0  0
   -0.9050    1.2980   -0.1600 C   0  0  0  0  0  0  0  0  0  0  0  0
   -2.3050    1.0370   -0.6000 C   0  0  0  0  0  0  0  0  0  0  0  0
   -3.0030   -0.0630    0.1110 C   0  0  0  0  0  0  0  0  0  0  0  0
   -2.2280   -0.6800    1.2360 C   0  0  0  0  0  0  0  0  0  0  0  0
   -1.0950   -1.5570    0.7560 C   0  0  0  0  0  0  0  0  0  0  0  0
   -0.5740   -1.1500   -0.5910 C   0  0  0  0  0  0  0  0  0  0  0  0
  1  2  1  0
  2  3  1  0
  3  4  1  0
  4  5  1  0
  5  6  1  6
  5  7  1  0
  5 12  1  0
  7  8  1  0
  8  9  1  0
  9 10  1  0
 10 11  1  0
 11 12  1  0
M  END
