
     RDKit          3D

 44 47  0  0  0  0  0  0  0  0999 V2000
   -4.8160    3.6760    2.7710 C   0  0  0  0  0  0  0  0  0  0  0  0
   -3.5140    3.8250    3.1650 O   0  0  0  0  0  0  0  0  0  0  0  0
   -2.6710    4.1610    2.1500 C   0  0  0  0  0  0  0  0  0  0  0  0
   -2.4430    3.1680    1.1010 C   0  0  0  0  0  0  0  0  0  0  0  0
   -1.8440    3.5900    0.0580 O   0  0  0  0  0  0  0  0  0  0  0  0
   -2.7980    1.8170    1.1030 N   0  0  0  0  0  0  0  0  0  0  0  0
   -2.4830    0.9890   -0.0710 C   0  0  2  0  0  0  0  0  0  0  0  0
   -3.1380    1.4700   -1.3220 C   0  0  0  0  0  0  0  0  0  0  0  0
   -2.8880   -0.4040    0.1860 C   0  0  0  0  0  0  0  0  0  0  0  0
   -3.3850   -0.7310    1.2870 O   0  0  0  0  0  0  0  0  0  0  0  0
   -2.7240   -1.3950   -0.8080 N   0  0  0  0  0  0  0  0  0  0  0  0
   -3.1540   -2.7560   -0.4780 C   0  0  0  0  0  0  0  0  0  0  0  0
   -4.5940   -2.6250   -0.1590 C   0  0  0  0  0  0  0  0  0  0  0  0
   -5.4840   -1.6560   -0.5030 C   0  0  0  0  0  0  0  0  0  0  0  0
   -6.7480   -1.7510   -0.0740 C   0  0  0  0  0  0  0  0  0  0  0  0
   -7.0660   -2.8530    0.7070 C   0  0  0  0  0  0  0  0  0  0  0  0
   -5.6070   -3.7140    0.8170 S   0  0  0  0  0  0  0  0  0  0  0  0
   -8.4780   -2.9890    1.2140 C   0  0  0  0  0  0  0  0  0  0  0  0
   -9.3600   -2.8840   -0.0120 C   0  0  0  0  0  0  0  0  0  0  0  0
   -9.1150   -1.6280   -0.7990 C   0  0  0  0  0  0  0  0  0  0  0  0
   -7.9430   -0.8360   -0.2990 C   0  0  0  0  0  0  0  0  0  0  0  0
   -0.9800    1.0090   -0.1480 C   0  0  0  0  0  0  0  0  0  0  0  0
   -0.3420    1.0930    0.9200 O   0  0  0  0  0  0  0  0  0  0  0  0
   -0.3020    0.9420   -1.3770 N   0  0  0  0  0  0  0  0  0  0  0  0
    1.1060    0.9580   -1.5670 C   0  0  0  0  0  0  0  0  0  0  0  0
    2.0380    0.8840   -0.5900 C   0  0  0  0  0  0  0  0  0  0  0  0
    3.4230    0.9110   -0.8540 C   0  0  0  0  0  0  0  0  0  0  0  0
    4.3420    0.8180    0.2590 C   0  0  0  0  0  0  0  0  0  0  0  0
    3.7830    0.6400    1.4330 O   0  0  0  0  0  0  0  0  0  0  0  0
    5.7880    0.8940    0.3070 C   0  0  2  0  0  0  0  0  0  0  0  0
    6.3530    2.1930   -0.1850 C   0  0  0  0  0  0  0  0  0  0  0  0
    7.7760    2.2310    0.3160 C   0  0  0  0  0  0  0  0  0  0  0  0
    8.4590    1.1230    0.4170 C   0  0  0  0  0  0  0  0  0  0  0  0
    7.9590   -0.2220    0.0770 C   0  0  1  0  0  0  0  0  0  0  0  0
    8.1910   -1.1190    1.2510 C   0  0  0  0  0  0  0  0  0  0  0  0
    7.7430   -2.5400    1.0450 C   0  0  0  0  0  0  0  0  0  0  0  0
    8.0150   -3.3590    2.2760 C   0  0  0  0  0  0  0  0  0  0  0  0
    7.7740   -4.7460    2.2050 N   0  0  0  0  0  0  0  0  0  0  0  0
    8.4390   -2.7700    3.2970 O   0  0  0  0  0  0  0  0  0  0  0  0
    6.5120   -0.2250   -0.3930 C   0  0  0  0  0  0  0  0  0  0  0  0
    3.8040    1.0160   -2.1670 C   0  0  0  0  0  0  0  0  0  0  0  0
    2.8630    1.0930   -3.1970 C   0  0  0  0  0  0  0  0  0  0  0  0
    1.5250    1.0640   -2.8970 C   0  0  0  0  0  0  0  0  0  0  0  0
    0.5210    1.1620   -3.9890 C   0  0  0  0  0  0  0  0  0  0  0  0
  1  2  1  0
  2  3  1  0
  3  4  1  0
  4  5  2  0
  4  6  1  0
  6  7  1  0
  7  8  1  6
  7  9  1  0
  7 22  1  0
  9 10  2  0
  9 11  1  0
 11 12  1  0
 12 13  1  0
 13 14  2  0
 13 17  1  0
 14 15  1  0
 15 16  2  0
 15 21  1  0
 16 17  1  0
 16 18  1  0
 18 19  1  0
 19 20  1  0
 20 21  1  0
 22 23  2  0
 22 24  1  0
 24 25  1  0
 25 26  2  0
 25 43  1  0
 26 27  1  0
 27 28  1  0
 27 41  2  0
 28 29  2  0
 30 28  1  6
 30 31  1  0
 30 40  1  0
 31 32  1  0
 32 33  2  0
 33 34  1  0
 34 35  1  1
 34 40  1  0
 35 36  1  0
 36 37  1  0
 37 38  1  0
 37 39  2  0
 41 42  1  0
 42 43  2  0
 43 44  1  0
M  END
