
     RDKit          3D

 44 47  0  0  0  0  0  0  0  0999 V2000
   -4.3640   -4.9510    2.9840 C   0  0  0  0  0  0  0  0  0  0  0  0
   -4.2960   -4.4770    1.7510 C   0  0  0  0  0  0  0  0  0  0  0  0
   -3.3580   -3.3660    1.3910 C   0  0  0  0  0  0  0  0  0  0  0  0
   -4.0690   -2.2280    0.8860 N   0  0  0  0  0  0  0  0  0  0  0  0
   -3.3890   -1.0630    0.4790 C   0  0  0  0  0  0  0  0  0  0  0  0
   -2.0390   -0.9870    0.7830 C   0  0  0  0  0  0  0  0  0  0  0  0
   -1.2830    0.1190    0.5110 C   0  0  0  0  0  0  0  0  0  0  0  0
    0.1460    0.1210    0.8650 C   0  0  0  0  0  0  0  0  0  0  0  0
    0.9120   -0.4160   -0.3190 C   0  0  0  0  0  0  0  0  0  0  0  0
    2.3380   -0.4640   -0.0940 N   0  0  0  0  0  0  0  0  0  0  0  0
    3.2270    0.5800   -0.3880 C   0  0  0  0  0  0  0  0  0  0  0  0
    2.6640    1.6610   -0.8060 O   0  0  0  0  0  0  0  0  0  0  0  0
    4.6710    0.6430   -0.2990 C   0  0  0  0  0  0  0  0  0  0  0  0
    5.2560   -0.5970    0.3660 C   0  0  0  0  0  0  0  0  0  0  0  0
    4.4040   -1.5710    0.6470 C   0  0  0  0  0  0  0  0  0  0  0  0
    5.4040   -2.8510    1.3710 S   0  0  0  0  0  0  0  0  0  0  0  0
    6.9500   -1.9710    1.2500 C   0  0  0  0  0  0  0  0  0  0  0  0
    8.2090   -2.5010    1.6940 C   0  0  0  0  0  0  0  0  0  0  0  0
    8.2440   -3.8170    2.2790 N   0  0  0  0  0  0  0  0  0  0  0  0
    9.2770   -1.9100    1.6120 O   0  0  0  0  0  0  0  0  0  0  0  0
    6.5900   -0.7500    0.6590 C   0  0  0  0  0  0  0  0  0  0  0  0
    7.6790    0.2360    0.3970 C   0  0  0  0  0  0  0  0  0  0  0  0
    7.6310    1.3800   -0.1810 C   0  0  0  0  0  0  0  0  0  0  0  0
    8.9210    2.1530   -0.2930 C   0  0  0  0  0  0  0  0  0  0  0  0
    8.9100    3.2700   -0.8500 O   0  0  0  0  0  0  0  0  0  0  0  0
   10.0870    1.6480    0.2040 O   0  0  0  0  0  0  0  0  0  0  0  0
   11.3280    2.2930    0.1470 C   0  0  0  0  0  0  0  0  0  0  0  0
   11.7490    2.5580   -1.2900 C   0  0  0  0  0  0  0  0  0  0  0  0
   13.0330    3.2230   -1.3090 N   0  0  0  0  0  0  0  0  0  0  0  0
    2.9410   -1.6160    0.4590 C   0  0  0  0  0  0  0  0  0  0  0  0
    2.3150   -2.6310    0.7820 O   0  0  0  0  0  0  0  0  0  0  0  0
   -1.8910    1.1900   -0.0860 C   0  0  0  0  0  0  0  0  0  0  0  0
   -3.2100    1.1290   -0.3910 C   0  0  0  0  0  0  0  0  0  0  0  0
   -4.0470    0.0080   -0.1340 C   0  0  0  0  0  0  0  0  0  0  0  0
   -5.3250    0.0690   -0.4820 O   0  0  0  0  0  0  0  0  0  0  0  0
   -6.4770   -0.5760   -0.6090 C   0  0  1  0  0  0  0  0  0  0  0  0
   -7.3670   -0.5150    0.6280 C   0  0  0  0  0  0  0  0  0  0  0  0
   -8.7940   -0.2150    0.3520 C   0  0  0  0  0  0  0  0  0  0  0  0
   -9.0260    1.2770    0.0760 C   0  0  0  0  0  0  0  0  0  0  0  0
   -9.0340    1.4310   -1.4090 C   0  0  0  0  0  0  0  0  0  0  0  0
   -7.6560    1.2130   -1.9740 C   0  0  1  0  0  0  0  0  0  0  0  0
   -6.6380    2.1910   -1.4840 C   0  0  0  0  0  0  0  0  0  0  0  0
   -7.0930    3.5870   -1.8820 C   0  0  0  0  0  0  0  0  0  0  0  0
   -7.2730   -0.2050   -1.8560 C   0  0  0  0  0  0  0  0  0  0  0  0
  1  2  2  0
  2  3  1  0
  3  4  1  0
  4  5  1  0
  5  6  2  0
  5 34  1  0
  6  7  1  0
  7  8  1  0
  7 32  2  0
  8  9  1  0
  9 10  1  0
 10 11  1  0
 10 30  1  0
 11 12  2  0
 11 13  1  0
 13 14  1  0
 14 15  2  0
 14 21  1  0
 15 16  1  0
 15 30  1  0
 16 17  1  0
 17 18  1  0
 17 21  2  0
 18 19  1  0
 18 20  2  0
 21 22  1  0
 22 23  2  3
 23 24  1  0
 24 25  2  0
 24 26  1  0
 26 27  1  0
 27 28  1  0
 28 29  1  0
 30 31  2  0
 32 33  1  0
 33 34  2  0
 34 35  1  0
 36 35  1  1
 36 37  1  0
 36 44  1  0
 37 38  1  0
 38 39  1  0
 39 40  1  0
 40 41  1  0
 41 42  1  1
 41 44  1  0
 42 43  1  0
M  END
