
     RDKit          3D

 44 48  0  0  0  0  0  0  0  0999 V2000
   -0.0940   -1.7140   -3.3900 C   0  0  0  0  0  0  0  0  0  0  0  0
   -0.1850   -0.8140   -2.2580 N   0  0  0  0  0  0  0  0  0  0  0  0
    0.9380   -0.7120   -1.3990 C   0  0  0  0  0  0  0  0  0  0  0  0
    0.8730    0.1490   -0.4510 O   0  0  0  0  0  0  0  0  0  0  0  0
    2.1690   -1.4960   -1.4840 C   0  0  1  0  0  0  0  0  0  0  0  0
    3.1450   -0.9590   -0.5830 O   0  0  0  0  0  0  0  0  0  0  0  0
    4.4210   -0.6380   -0.9500 C   0  0  0  0  0  0  0  0  0  0  0  0
    4.7350   -0.8410   -2.1670 O   0  0  0  0  0  0  0  0  0  0  0  0
    5.4310   -0.0910   -0.0610 C   0  0  0  0  0  0  0  0  0  0  0  0
    6.7140    0.1520   -0.5160 C   0  0  0  0  0  0  0  0  0  0  0  0
    7.6720    0.6790    0.3420 C   0  0  0  0  0  0  0  0  0  0  0  0
    7.4040    0.9850    1.6680 C   0  0  0  0  0  0  0  0  0  0  0  0
    8.3970    1.5210    2.5340 N   0  0  0  0  0  0  0  0  0  0  0  0
    9.7440    1.7430    2.1560 C   0  0  0  0  0  0  0  0  0  0  0  0
   10.3490    2.4420    1.1970 C   0  0  0  0  0  0  0  0  0  0  0  0
   11.6200    2.0220    1.6670 N   0  0  0  0  0  0  0  0  0  0  0  0
   11.0280    1.2610    2.7250 C   0  0  0  0  0  0  0  0  0  0  0  0
    6.1160    0.7390    2.1140 C   0  0  0  0  0  0  0  0  0  0  0  0
    5.1690    0.2140    1.2580 C   0  0  0  0  0  0  0  0  0  0  0  0
    1.8950   -2.9460   -1.0540 C   0  0  2  0  0  0  0  0  0  0  0  0
    1.4090   -2.9010    0.2580 O   0  0  0  0  0  0  0  0  0  0  0  0
    3.1890   -3.7160   -1.1380 C   0  0  0  0  0  0  0  0  0  0  0  0
    3.0390   -5.0330   -0.6970 O   0  0  0  0  0  0  0  0  0  0  0  0
   -1.3480   -0.0730   -1.9270 C   0  0  0  0  0  0  0  0  0  0  0  0
   -1.2530    0.6930   -0.8900 O   0  0  0  0  0  0  0  0  0  0  0  0
   -2.6470   -0.0620   -2.5980 C   0  0  1  0  0  0  0  0  0  0  0  0
   -3.6630    0.6040   -1.7430 N   0  0  0  0  0  0  0  0  0  0  0  0
   -3.8120   -0.2070   -0.5850 C   0  0  0  0  0  0  0  0  0  0  0  0
   -4.7570    0.2940    0.4380 C   0  0  0  0  0  0  0  0  0  0  0  0
   -5.3810   -0.6540    1.2200 C   0  0  0  0  0  0  0  0  0  0  0  0
   -6.2700   -0.2900    2.2420 C   0  0  0  0  0  0  0  0  0  0  0  0
   -6.5300    1.0410    2.4780 C   0  0  0  0  0  0  0  0  0  0  0  0
   -7.4560    1.4460    3.5580 C   0  0  0  0  0  0  0  0  0  0  0  0
   -7.7920    2.6600    3.9010 C   0  0  0  0  0  0  0  0  0  0  0  0
   -8.7440    2.5690    5.0340 C   0  0  0  0  0  0  0  0  0  0  0  0
   -8.9060    1.1250    5.2900 C   0  0  0  0  0  0  0  0  0  0  0  0
   -8.1600    0.4850    4.4370 C   0  0  0  0  0  0  0  0  0  0  0  0
   -5.9010    1.9760    1.6920 C   0  0  0  0  0  0  0  0  0  0  0  0
   -5.0180    1.6200    0.6730 C   0  0  0  0  0  0  0  0  0  0  0  0
   -2.4950    0.9220   -3.7810 C   0  0  0  0  0  0  0  0  0  0  0  0
   -3.8440    1.5760   -4.0340 C   0  0  0  0  0  0  0  0  0  0  0  0
   -5.1860    0.4420   -3.5450 S   0  0  0  0  0  0  0  0  0  0  0  0
   -4.5750   -1.2700   -3.5460 C   0  0  0  0  0  0  0  0  0  0  0  0
   -3.1270   -1.3510   -3.1580 C   0  0  0  0  0  0  0  0  0  0  0  0
  1  2  1  0
  2  3  1  0
  2 24  1  0
  3  4  2  0
  3  5  1  0
  5  6  1  1
  5 20  1  0
  6  7  1  0
  7  8  2  0
  7  9  1  0
  9 10  2  0
  9 19  1  0
 10 11  1  0
 11 12  2  0
 12 13  1  0
 12 18  1  0
 13 14  1  0
 14 15  2  0
 14 17  1  0
 15 16  1  0
 16 17  1  0
 18 19  2  0
 20 21  1  1
 20 22  1  0
 22 23  1  0
 24 25  2  0
 24 26  1  0
 26 27  1  1
 26 40  1  0
 26 44  1  0
 27 28  1  0
 28 29  1  0
 29 30  2  0
 29 39  1  0
 30 31  1  0
 31 32  2  0
 32 33  1  0
 32 38  1  0
 33 34  2  0
 33 37  1  0
 34 35  1  0
 35 36  1  0
 36 37  2  0
 38 39  2  0
 40 41  1  0
 41 42  1  0
 42 43  1  0
 43 44  1  0
M  END
