
     RDKit          3D

 44 47  0  0  0  0  0  0  0  0999 V2000
   -6.8280   -2.9260    0.1280 C   0  0  0  0  0  0  0  0  0  0  0  0
   -5.7000   -2.4390    1.0210 C   0  0  1  0  0  0  0  0  0  0  0  0
   -5.9560   -1.1960    1.7680 C   0  0  0  0  0  0  0  0  0  0  0  0
   -5.7250   -3.5670    2.1530 C   0  0  0  0  0  0  0  0  0  0  0  0
   -4.1200   -2.5270    0.3000 S   0  0  2  0  0  0  0  0  0  0  0  0
   -3.8320   -4.0380    0.1160 O   0  0  0  0  0  0  0  0  0  0  0  0
   -3.1200   -2.1480    1.3940 O   0  0  0  0  0  0  0  0  0  0  0  0
   -3.7890   -1.7750   -1.1950 C   0  0  0  0  0  0  0  0  0  0  0  0
   -3.9130   -0.3450   -1.4740 C   0  0  1  0  0  0  0  0  0  0  0  0
   -5.2320    0.3210   -1.3860 C   0  0  0  0  0  0  0  0  0  0  0  0
   -5.2130    1.7880   -1.7070 C   0  0  0  0  0  0  0  0  0  0  0  0
   -5.1250    2.2200   -3.0350 C   0  0  0  0  0  0  0  0  0  0  0  0
   -5.1620    3.5640   -3.3380 C   0  0  0  0  0  0  0  0  0  0  0  0
   -5.2880    4.5020   -2.3260 C   0  0  0  0  0  0  0  0  0  0  0  0
   -5.3770    4.1010   -1.0250 C   0  0  0  0  0  0  0  0  0  0  0  0
   -5.3370    2.7420   -0.7460 C   0  0  0  0  0  0  0  0  0  0  0  0
   -2.8540    0.4650   -0.7630 C   0  0  0  0  0  0  0  0  0  0  0  0
   -3.1510    1.3210    0.0760 O   0  0  0  0  0  0  0  0  0  0  0  0
   -1.4960    0.2600   -1.0420 N   0  0  0  0  0  0  0  0  0  0  0  0
   -0.3100    0.8510   -0.5860 C   0  0  1  0  0  0  0  0  0  0  0  0
   -0.3600    1.7980    0.5780 C   0  0  0  0  0  0  0  0  0  0  0  0
   -1.1080    3.0070    0.2350 C   0  0  0  0  0  0  0  0  0  0  0  0
   -1.6000    4.0250    1.0090 C   0  0  0  0  0  0  0  0  0  0  0  0
   -2.1550    4.9680    0.2460 N   0  0  0  0  0  0  0  0  0  0  0  0
   -2.0130    4.5420   -1.0410 C   0  0  0  0  0  0  0  0  0  0  0  0
   -1.3890    3.3730   -1.0520 N   0  0  0  0  0  0  0  0  0  0  0  0
    0.8440   -0.0320   -0.4680 C   0  0  0  0  0  0  0  0  0  0  0  0
    0.6540   -1.2730   -0.7140 O   0  0  0  0  0  0  0  0  0  0  0  0
    2.1660    0.3270   -0.1110 N   0  0  0  0  0  0  0  0  0  0  0  0
    3.2250   -0.7020   -0.0290 C   0  0  1  0  0  0  0  0  0  0  0  0
    4.2680   -0.2680   -1.0030 C   0  0  0  0  0  0  0  0  0  0  0  0
    5.4600   -1.1460   -1.1410 C   0  0  1  0  0  0  0  0  0  0  0  0
    5.0170   -2.5320   -1.6080 C   0  0  0  0  0  0  0  0  0  0  0  0
    6.2410   -3.4260   -1.6710 C   0  0  0  0  0  0  0  0  0  0  0  0
    7.5080   -2.6150   -1.6170 C   0  0  0  0  0  0  0  0  0  0  0  0
    7.5080   -1.3960   -2.4750 C   0  0  0  0  0  0  0  0  0  0  0  0
    6.3040   -0.5590   -2.2720 C   0  0  0  0  0  0  0  0  0  0  0  0
    3.6710   -0.8240    1.3930 C   0  0  1  0  0  0  0  0  0  0  0  0
    4.6540   -1.8550    1.4580 O   0  0  0  0  0  0  0  0  0  0  0  0
    4.2070    0.4160    2.0250 C   0  0  1  0  0  0  0  0  0  0  0  0
    3.2690    1.4260    2.0280 O   0  0  0  0  0  0  0  0  0  0  0  0
    4.5690    0.0910    3.4700 C   0  0  2  0  0  0  0  0  0  0  0  0
    5.1470    1.2390    4.2950 C   0  0  0  0  0  0  0  0  0  0  0  0
    5.9560    0.0160    3.9260 C   0  0  0  0  0  0  0  0  0  0  0  0
  2  1  1  6
  2  3  1  0
  2  4  1  0
  2  5  1  0
  5  6  2  0
  5  7  2  0
  5  8  1  6
  9  8  1  1
  9 10  1  0
  9 17  1  0
 10 11  1  0
 11 12  2  0
 11 16  1  0
 12 13  1  0
 13 14  2  0
 14 15  1  0
 15 16  2  0
 17 18  2  0
 17 19  1  0
 19 20  1  0
 20 21  1  1
 20 27  1  0
 21 22  1  0
 22 23  2  0
 22 26  1  0
 23 24  1  0
 24 25  1  0
 25 26  2  0
 27 28  2  0
 27 29  1  0
 29 30  1  0
 30 31  1  6
 30 38  1  0
 32 31  1  6
 32 33  1  0
 32 37  1  0
 33 34  1  0
 34 35  1  0
 35 36  1  0
 36 37  1  0
 38 39  1  6
 38 40  1  0
 40 41  1  1
 40 42  1  0
 42 43  1  1
 42 44  1  0
 43 44  1  0
M  END
