
     RDKit          3D

 44 47  0  0  0  0  0  0  0  0999 V2000
   -1.9810   -4.3000    3.3650 C   0  0  0  0  0  0  0  0  0  0  0  0
   -1.6220   -2.8270    3.1930 C   0  0  0  0  0  0  0  0  0  0  0  0
   -2.5060   -2.1750    2.1260 C   0  0  0  0  0  0  0  0  0  0  0  0
   -2.2810   -2.9030    0.8410 C   0  0  0  0  0  0  0  0  0  0  0  0
   -3.0470   -2.4400   -0.2740 N   0  0  0  0  0  0  0  0  0  0  0  0
   -4.4290   -2.9690   -0.3370 C   0  0  0  0  0  0  0  0  0  0  0  0
   -4.5250   -4.2140   -1.1230 C   0  0  0  0  0  0  0  0  0  0  0  0
   -4.4610   -5.4930   -0.6080 C   0  0  0  0  0  0  0  0  0  0  0  0
   -4.5740   -6.5220   -1.4660 C   0  0  0  0  0  0  0  0  0  0  0  0
   -4.7450   -6.2660   -2.7820 C   0  0  0  0  0  0  0  0  0  0  0  0
   -4.7440   -4.4730   -2.7990 S   0  0  0  0  0  0  0  0  0  0  0  0
   -2.5920   -1.5390   -1.2400 C   0  0  0  0  0  0  0  0  0  0  0  0
   -3.4840   -1.3100   -2.1850 O   0  0  0  0  0  0  0  0  0  0  0  0
   -1.3500   -0.8210   -1.4120 C   0  0  2  0  0  0  0  0  0  0  0  0
   -0.3050   -1.7810   -2.0060 C   0  0  0  0  0  0  0  0  0  0  0  0
    0.8090   -0.9390   -2.5730 C   0  0  0  0  0  0  0  0  0  0  0  0
    1.2440    0.1620   -1.6400 C   0  0  0  0  0  0  0  0  0  0  0  0
    0.6350   -0.0380   -0.3010 C   0  0  1  0  0  0  0  0  0  0  0  0
    1.1690    0.8750    0.7760 C   0  0  1  0  0  0  0  0  0  0  0  0
    0.8790    0.4120    2.0620 O   0  0  0  0  0  0  0  0  0  0  0  0
    2.5790    1.2960    0.6350 C   0  0  0  0  0  0  0  0  0  0  0  0
    3.5360    0.1860    0.6350 C   0  0  0  0  0  0  0  0  0  0  0  0
    3.2440   -1.0310    0.7620 O   0  0  0  0  0  0  0  0  0  0  0  0
    4.9510    0.4370    0.4810 N   0  0  0  0  0  0  0  0  0  0  0  0
    5.9580   -0.5710    0.4660 C   0  0  1  0  0  0  0  0  0  0  0  0
    5.7880   -1.5850   -0.6400 C   0  0  0  0  0  0  0  0  0  0  0  0
    7.3110    0.1320    0.2490 C   0  0  0  0  0  0  0  0  0  0  0  0
    8.2790   -0.9590    0.5820 C   0  0  0  0  0  0  0  0  0  0  0  0
    7.5680   -1.9080    1.5130 C   0  0  0  0  0  0  0  0  0  0  0  0
    6.2060   -1.2520    1.7790 C   0  0  0  0  0  0  0  0  0  0  0  0
   -0.7650   -0.1530   -0.3110 N   0  0  0  0  0  0  0  0  0  0  0  0
   -1.5770    0.7870    0.3330 C   0  0  0  0  0  0  0  0  0  0  0  0
   -1.6580    2.1050   -0.3370 C   0  0  0  0  0  0  0  0  0  0  0  0
   -1.1000    2.4120   -1.4030 O   0  0  0  0  0  0  0  0  0  0  0  0
   -2.4430    3.1100    0.2950 N   0  0  0  0  0  0  0  0  0  0  0  0
   -2.6660    4.4070   -0.1570 C   0  0  0  0  0  0  0  0  0  0  0  0
   -2.3900    4.8440   -1.4150 C   0  0  0  0  0  0  0  0  0  0  0  0
   -2.6310    6.1800   -1.8170 C   0  0  0  0  0  0  0  0  0  0  0  0
   -3.1580    7.0810   -0.9340 C   0  0  0  0  0  0  0  0  0  0  0  0
   -3.4470    8.5040   -1.2810 C   0  0  0  0  0  0  0  0  0  0  0  0
   -3.1040    8.7800   -2.5980 O   0  0  0  0  0  0  0  0  0  0  0  0
   -3.4370    6.6330    0.3410 C   0  0  0  0  0  0  0  0  0  0  0  0
   -3.9800    7.5420    1.2660 O   0  0  0  0  0  0  0  0  0  0  0  0
   -3.2030    5.3510    0.7200 C   0  0  0  0  0  0  0  0  0  0  0  0
  1  2  1  0
  2  3  1  0
  3  4  1  0
  4  5  1  0
  5  6  1  0
  5 12  1  0
  6  7  1  0
  7  8  2  0
  7 11  1  0
  8  9  1  0
  9 10  2  0
 10 11  1  0
 12 13  2  0
 14 12  1  1
 14 15  1  0
 14 31  1  0
 15 16  1  0
 16 17  1  0
 18 17  1  6
 18 19  1  0
 18 31  1  0
 19 20  1  1
 19 21  1  0
 21 22  1  0
 22 23  2  0
 22 24  1  0
 24 25  1  0
 25 26  1  6
 25 27  1  0
 25 30  1  0
 27 28  1  0
 28 29  1  0
 29 30  1  0
 31 32  1  0
 32 33  1  0
 33 34  2  0
 33 35  1  0
 35 36  1  0
 36 37  2  0
 36 44  1  0
 37 38  1  0
 38 39  2  0
 39 40  1  0
 39 42  1  0
 40 41  1  0
 42 43  1  0
 42 44  2  0
M  END
