
     RDKit          3D

 10 10  0  0  0  0  0  0  0  0999 V2000
    3.2050    0.1310   -0.5270 O   0  0  0  0  0  0  0  0  0  0  0  0
    2.0500   -0.0030   -0.0380 C   0  0  0  0  0  0  0  0  0  0  0  0
    2.0150   -0.2420    1.3290 O   0  0  0  0  0  0  0  0  0  0  0  0
    0.8580    0.0940   -0.8840 C   0  0  1  0  0  0  0  0  0  0  0  0
    0.0530   -1.1800   -0.8500 C   0  0  0  0  0  0  0  0  0  0  0  0
   -0.7670   -1.2760    0.4030 C   0  0  0  0  0  0  0  0  0  0  0  0
   -1.9910   -0.4330    0.2280 C   0  0  0  0  0  0  0  0  0  0  0  0
   -1.8930    0.8330    0.7470 O   0  0  0  0  0  0  0  0  0  0  0  0
   -0.6090    1.3610    0.7240 C   0  0  0  0  0  0  0  0  0  0  0  0
    0.0340    1.3230   -0.6120 C   0  0  0  0  0  0  0  0  0  0  0  0
  1  2  2  0
  2  3  1  0
  4  2  1  1
  4  5  1  0
  4 10  1  0
  5  6  1  0
  6  7  1  0
  7  8  1  0
  8  9  1  0
  9 10  1  0
M  END
