
     RDKit          3D

 11 11  0  0  0  0  0  0  0  0999 V2000
   -3.2260   -1.0830    0.0950 C   0  0  0  0  0  0  0  0  0  0  0  0
   -2.5710    0.1410    0.1500 O   0  0  0  0  0  0  0  0  0  0  0  0
   -1.2230    0.3560    0.1880 C   0  0  0  0  0  0  0  0  0  0  0  0
   -0.7610    1.6600    0.2410 C   0  0  0  0  0  0  0  0  0  0  0  0
    0.6040    1.9530    0.2820 C   0  0  0  0  0  0  0  0  0  0  0  0
    1.0710    3.2570    0.3350 O   0  0  0  0  0  0  0  0  0  0  0  0
    1.5310    0.9360    0.2690 C   0  0  0  0  0  0  0  0  0  0  0  0
    1.0880   -0.3700    0.2170 C   0  0  0  0  0  0  0  0  0  0  0  0
    2.0720   -1.4970    0.2020 C   0  0  0  0  0  0  0  0  0  0  0  0
    3.3610   -1.0080    0.2480 O   0  0  0  0  0  0  0  0  0  0  0  0
   -0.2620   -0.6350    0.1770 C   0  0  0  0  0  0  0  0  0  0  0  0
  1  2  1  0
  2  3  1  0
  3  4  2  0
  3 11  1  0
  4  5  1  0
  5  6  1  0
  5  7  2  0
  7  8  1  0
  8  9  1  0
  8 11  2  0
  9 10  1  0
M  END
