
     RDKit          3D

 10 10  0  0  0  0  0  0  0  0999 V2000
   -2.7220    0.5160   -0.5990 C   0  0  0  0  0  0  0  0  0  0  0  0
   -1.8030   -0.6430   -0.5010 C   0  0  0  0  0  0  0  0  0  0  0  0
   -0.4610   -0.3550    0.0310 C   0  0  0  0  0  0  0  0  0  0  0  0
   -0.0280    0.8180    0.4140 C   0  0  0  0  0  0  0  0  0  0  0  0
   -0.8920    1.9050    0.3210 O   0  0  0  0  0  0  0  0  0  0  0  0
    1.3540    0.9300    0.9260 C   0  0  0  0  0  0  0  0  0  0  0  0
    2.3520    0.1230    0.1340 C   0  0  0  0  0  0  0  0  0  0  0  0
    1.9400   -1.3230   -0.0090 C   0  0  0  0  0  0  0  0  0  0  0  0
    0.4650   -1.4880    0.1360 C   0  0  0  0  0  0  0  0  0  0  0  0
    0.0500   -2.6540    0.3550 O   0  0  0  0  0  0  0  0  0  0  0  0
  1  2  1  0
  2  3  1  0
  3  4  2  0
  3  9  1  0
  4  5  1  0
  4  6  1  0
  6  7  1  0
  7  8  1  0
  8  9  1  0
  9 10  2  0
M  END
