
     RDKit          3D

 16 17  0  0  0  0  0  0  0  0999 V2000
    4.7950    1.4020    0.0420 N   0  0  0  0  0  0  0  0  0  0  0  0
    4.2410   -0.2280    0.3410 S   0  0  2  0  0  0  0  0  0  0  0  0
    4.3590   -0.4180    1.8270 O   0  0  0  0  0  0  0  0  0  0  0  0
    5.1160   -1.1790   -0.3950 O   0  0  0  0  0  0  0  0  0  0  0  0
    2.5860   -0.3340   -0.1940 C   0  0  0  0  0  0  0  0  0  0  0  0
    1.9620   -0.6020   -1.2330 N   0  0  0  0  0  0  0  0  0  0  0  0
    0.6760   -0.5950   -1.2960 N   0  0  0  0  0  0  0  0  0  0  0  0
   -0.0680   -0.3370   -0.3920 C   0  0  0  0  0  0  0  0  0  0  0  0
   -1.5170   -0.2280   -0.0860 C   0  0  0  0  0  0  0  0  0  0  0  0
   -2.3680   -0.4880   -1.1090 C   0  0  0  0  0  0  0  0  0  0  0  0
   -3.7490   -0.4040   -0.8940 C   0  0  0  0  0  0  0  0  0  0  0  0
   -4.2050   -0.0590    0.3490 C   0  0  0  0  0  0  0  0  0  0  0  0
   -3.3590    0.2090    1.4030 C   0  0  0  0  0  0  0  0  0  0  0  0
   -2.0020    0.1150    1.1500 C   0  0  0  0  0  0  0  0  0  0  0  0
   -0.8740    0.4450    2.4490 Cl  0  0  0  0  0  0  0  0  0  0  0  0
    1.1330    0.0020    0.9510 S   0  0  0  0  0  0  0  0  0  0  0  0
  2  1  1  1
  2  3  2  0
  2  4  2  0
  2  5  1  0
  5  6  2  0
  5 16  1  0
  6  7  1  0
  7  8  2  0
  8  9  1  0
  8 16  1  0
  9 10  2  0
  9 14  1  0
 10 11  1  0
 11 12  2  0
 12 13  1  0
 13 14  2  0
 14 15  1  0
M  END
