
     RDKit          3D

 11 11  0  0  0  0  0  0  0  0999 V2000
    2.6020   -1.0620    0.5420 C   0  0  0  0  0  0  0  0  0  0  0  0
    2.5280    0.2260   -0.2170 C   0  0  0  0  0  0  0  0  0  0  0  0
    1.3550    0.2810   -0.9880 O   0  0  0  0  0  0  0  0  0  0  0  0
    0.0690    0.2360   -0.5070 C   0  0  0  0  0  0  0  0  0  0  0  0
   -0.1570    0.1370    0.8420 C   0  0  0  0  0  0  0  0  0  0  0  0
   -1.4680    0.0900    1.3450 C   0  0  0  0  0  0  0  0  0  0  0  0
   -2.5510    0.1400    0.4930 C   0  0  0  0  0  0  0  0  0  0  0  0
   -3.8320    0.0900    1.0280 O   0  0  0  0  0  0  0  0  0  0  0  0
   -2.3230    0.2390   -0.8630 C   0  0  0  0  0  0  0  0  0  0  0  0
   -1.0230    0.2850   -1.3440 C   0  0  0  0  0  0  0  0  0  0  0  0
   -0.7640    0.3860   -2.7120 O   0  0  0  0  0  0  0  0  0  0  0  0
  1  2  1  0
  2  3  1  0
  3  4  1  0
  4  5  2  0
  4 10  1  0
  5  6  1  0
  6  7  2  0
  7  8  1  0
  7  9  1  0
  9 10  2  0
 10 11  1  0
M  END
