
     RDKit          3D

 11 11  0  0  0  0  0  0  0  0999 V2000
    3.4800   -0.9320   -0.5800 O   0  0  0  0  0  0  0  0  0  0  0  0
    2.7260   -0.9540    0.3680 C   0  0  0  0  0  0  0  0  0  0  0  0
    1.8750    0.2260    0.6620 C   0  0  0  0  0  0  0  0  0  0  0  0
    0.7280    0.2590   -0.3570 C   0  0  2  0  0  0  0  0  0  0  0  0
    1.3720    0.3580   -1.6140 O   0  0  0  0  0  0  0  0  0  0  0  0
   -0.1330    1.4370   -0.1710 C   0  0  0  0  0  0  0  0  0  0  0  0
   -1.4780    1.2310    0.3870 C   0  0  0  0  0  0  0  0  0  0  0  0
   -2.0820   -0.1130    0.1880 C   0  0  1  0  0  0  0  0  0  0  0  0
   -2.2860   -0.4220   -1.1540 O   0  0  0  0  0  0  0  0  0  0  0  0
   -1.0550   -1.1370    0.6990 C   0  0  0  0  0  0  0  0  0  0  0  0
    0.0630   -1.0690   -0.3170 C   0  0  0  0  0  0  0  0  0  0  0  0
  1  2  2  0
  2  3  1  0
  3  4  1  0
  4  5  1  6
  4  6  1  0
  4 11  1  0
  6  7  1  0
  7  8  1  0
  8  9  1  6
  8 10  1  0
 10 11  1  0
M  END
