
     RDKit          3D

 17 19  0  0  0  0  0  0  0  0999 V2000
    0.1430   -1.3210    1.3060 O   0  0  0  0  0  0  0  0  0  0  0  0
   -0.0250   -0.2390    0.6510 C   0  0  0  0  0  0  0  0  0  0  0  0
    1.1440    0.4040    0.0810 C   0  0  0  0  0  0  0  0  0  0  0  0
    1.2370    1.5710   -0.6220 C   0  0  0  0  0  0  0  0  0  0  0  0
   -0.1000    2.6560   -0.9790 Cl  0  0  0  0  0  0  0  0  0  0  0  0
    2.5330    1.7930   -0.9940 N   0  0  0  0  0  0  0  0  0  0  0  0
    3.2530    0.7530   -0.5170 C   0  0  0  0  0  0  0  0  0  0  0  0
    2.4430   -0.1220    0.1480 C   0  0  0  0  0  0  0  0  0  0  0  0
    3.1500   -1.1460    0.6190 C   0  0  0  0  0  0  0  0  0  0  0  0
    4.5450   -0.9280    0.2310 C   0  0  0  0  0  0  0  0  0  0  0  0
    4.5200    0.3460   -0.5140 C   0  0  0  0  0  0  0  0  0  0  0  0
   -1.4100    0.2420    0.5460 C   0  0  1  0  0  0  0  0  0  0  0  0
   -1.9120    0.1330   -0.8940 C   0  0  0  0  0  0  0  0  0  0  0  0
   -2.8930   -1.0570   -0.9150 C   0  0  0  0  0  0  0  0  0  0  0  0
   -4.1190   -0.5340   -0.1520 C   0  0  0  0  0  0  0  0  0  0  0  0
   -3.5570    0.0330    1.1510 C   0  0  0  0  0  0  0  0  0  0  0  0
   -2.2720   -0.5110    1.3850 O   0  0  0  0  0  0  0  0  0  0  0  0
  1  2  2  0
  2  3  1  0
 12  2  1  6
  3  4  2  0
  3  8  1  0
  4  5  1  0
  4  6  1  0
  6  7  1  0
  7  8  1  0
  7 11  2  0
  8  9  2  0
  9 10  1  0
 10 11  1  0
 12 13  1  0
 12 17  1  0
 13 14  1  0
 14 15  1  0
 15 16  1  0
 16 17  1  0
M  END
