
     RDKit          3D

 17 19  0  0  0  0  0  0  0  0999 V2000
   -3.4130    1.7580   -1.4210 O   0  0  0  0  0  0  0  0  0  0  0  0
   -3.7620    0.7910   -0.4830 C   0  0  0  0  0  0  0  0  0  0  0  0
   -2.5370    0.1200    0.0250 C   0  0  0  0  0  0  0  0  0  0  0  0
   -1.2750    0.4610   -0.4160 C   0  0  0  0  0  0  0  0  0  0  0  0
   -0.1720   -0.1980    0.0920 C   0  0  0  0  0  0  0  0  0  0  0  0
   -0.2830   -1.1970    1.0380 C   0  0  0  0  0  0  0  0  0  0  0  0
   -1.5510   -1.5340    1.4760 C   0  0  0  0  0  0  0  0  0  0  0  0
   -2.6330   -0.8780    0.9680 C   0  0  0  0  0  0  0  0  0  0  0  0
   -4.2390   -1.3200    1.5370 Cl  0  0  0  0  0  0  0  0  0  0  0  0
    0.9630   -1.6040    1.2970 N   0  0  0  0  0  0  0  0  0  0  0  0
    1.8480   -0.9080    0.5610 C   0  0  0  0  0  0  0  0  0  0  0  0
    3.2230   -0.9600    0.4750 C   0  0  0  0  0  0  0  0  0  0  0  0
    3.8930   -0.1150   -0.3800 C   0  0  0  0  0  0  0  0  0  0  0  0
    3.2230    0.8090   -1.1780 C   0  0  0  0  0  0  0  0  0  0  0  0
    3.9260    1.6530   -2.0360 O   0  0  0  0  0  0  0  0  0  0  0  0
    1.8460    0.8460   -1.0790 C   0  0  0  0  0  0  0  0  0  0  0  0
    1.1670    0.0020   -0.2240 C   0  0  0  0  0  0  0  0  0  0  0  0
  1  2  1  0
  2  3  1  0
  3  4  2  0
  3  8  1  0
  4  5  1  0
  5  6  2  0
  5 17  1  0
  6  7  1  0
  6 10  1  0
  7  8  2  0
  8  9  1  0
 10 11  1  0
 11 12  2  0
 11 17  1  0
 12 13  1  0
 13 14  2  0
 14 15  1  0
 14 16  1  0
 16 17  2  0
M  END
