
     RDKit          3D

 10 10  0  0  0  0  0  0  0  0999 V2000
    1.0680   -1.4880    1.1450 C   0  0  0  0  0  0  0  0  0  0  0  0
    0.1660   -0.5670    0.3350 C   0  0  2  0  0  0  0  0  0  0  0  0
    0.9610   -0.1640   -0.8910 C   0  0  0  0  0  0  0  0  0  0  0  0
    2.2260    0.5530   -0.4710 C   0  0  0  0  0  0  0  0  0  0  0  0
    2.9850    0.9380   -1.5700 O   0  0  0  0  0  0  0  0  0  0  0  0
   -0.1970    0.6230    1.1690 C   0  0  0  0  0  0  0  0  0  0  0  0
   -0.9900    1.6180    0.3360 C   0  0  0  0  0  0  0  0  0  0  0  0
   -2.1040    0.9400   -0.3880 C   0  0  0  0  0  0  0  0  0  0  0  0
   -2.3340   -0.4370    0.1870 C   0  0  0  0  0  0  0  0  0  0  0  0
   -1.0980   -1.2910   -0.0170 C   0  0  0  0  0  0  0  0  0  0  0  0
  2  1  1  1
  2  3  1  0
  2  6  1  0
  2 10  1  0
  3  4  1  0
  4  5  1  0
  6  7  1  0
  7  8  1  0
  8  9  1  0
  9 10  1  0
M  END
