
     RDKit          3D

 17 19  0  0  0  0  0  0  0  0999 V2000
    4.3820   -0.0630    0.5880 C   0  0  0  0  0  0  0  0  0  0  0  0
    3.8710   -0.6640   -0.6950 C   0  0  0  0  0  0  0  0  0  0  0  0
    2.6040   -0.1840   -0.9920 O   0  0  0  0  0  0  0  0  0  0  0  0
    1.4650   -0.2980   -0.2460 C   0  0  0  0  0  0  0  0  0  0  0  0
    1.4250   -0.9510    0.9830 C   0  0  0  0  0  0  0  0  0  0  0  0
    0.2510   -1.0450    1.7070 C   0  0  0  0  0  0  0  0  0  0  0  0
    0.1480   -1.8600    3.2680 Cl  0  0  0  0  0  0  0  0  0  0  0  0
   -0.8900   -0.4780    1.1930 C   0  0  0  0  0  0  0  0  0  0  0  0
   -0.8160    0.1560   -0.0140 C   0  0  0  0  0  0  0  0  0  0  0  0
    0.3010    0.2780   -0.7660 C   0  0  0  0  0  0  0  0  0  0  0  0
   -0.0420    1.0160   -1.9880 C   0  0  0  0  0  0  0  0  0  0  0  0
   -1.5750    0.9100   -2.0470 C   0  0  0  0  0  0  0  0  0  0  0  0
   -2.0150    0.8000   -0.6220 C   0  0  2  0  0  0  0  0  0  0  0  0
   -2.1740    2.0390   -0.0080 O   0  0  0  0  0  0  0  0  0  0  0  0
   -3.1600   -0.1170   -0.3590 C   0  0  0  0  0  0  0  0  0  0  0  0
   -3.3770   -0.2440    1.1320 C   0  0  0  0  0  0  0  0  0  0  0  0
   -2.1510   -0.5210    1.8460 N   0  0  0  0  0  0  0  0  0  0  0  0
  1  2  1  0
  2  3  1  0
  3  4  1  0
  4  5  2  0
  4 10  1  0
  5  6  1  0
  6  7  1  0
  6  8  2  0
  8  9  1  0
  8 17  1  0
  9 10  2  0
  9 13  1  0
 10 11  1  0
 11 12  1  0
 12 13  1  0
 13 14  1  1
 13 15  1  0
 15 16  1  0
 16 17  1  0
M  END
