
     RDKit          3D

 19 19  0  0  0  0  0  0  0  0999 V2000
    5.0830   -0.2110    0.0880 C   0  0  0  0  0  0  0  0  0  0  0  0
    4.4720   -1.0420    1.0810 N   0  0  0  0  0  0  0  0  0  0  0  0
    3.2950   -1.7370    0.9900 N   0  0  0  0  0  0  0  0  0  0  0  0
    2.1770   -1.0760    0.6080 C   0  0  0  0  0  0  0  0  0  0  0  0
    0.6300   -1.6290    0.4140 S   0  0  0  0  0  0  0  0  0  0  0  0
   -0.4130   -0.3350   -0.1210 C   0  0  0  0  0  0  0  0  0  0  0  0
   -1.8040   -0.4050   -0.3440 N   0  0  0  0  0  0  0  0  0  0  0  0
   -2.5050   -1.6900    0.0790 C   0  0  0  0  0  0  0  0  0  0  0  0
   -1.7190   -2.5020    0.5700 O   0  0  0  0  0  0  0  0  0  0  0  0
   -3.7610   -1.5260   -0.2100 N   0  0  0  0  0  0  0  0  0  0  0  0
   -4.3630   -3.0030    0.5290 C   0  0  0  0  0  0  0  0  0  0  0  0
   -3.5250   -3.6200    1.0240 O   0  0  0  0  0  0  0  0  0  0  0  0
   -6.1020   -3.1460    0.3120 S   0  0  0  0  0  0  0  0  0  0  0  0
    0.3440    0.7750   -0.2270 C   0  0  0  0  0  0  0  0  0  0  0  0
   -0.1730    2.1140   -0.6300 C   0  0  0  0  0  0  0  0  0  0  0  0
   -1.3760    2.2880   -0.8990 O   0  0  0  0  0  0  0  0  0  0  0  0
    0.6470    3.2260   -0.7300 O   0  0  0  0  0  0  0  0  0  0  0  0
    0.1320    4.5020   -1.1200 C   0  0  0  0  0  0  0  0  0  0  0  0
    1.9720    0.5490    0.1710 S   0  0  0  0  0  0  0  0  0  0  0  0
  1  2  1  0
  2  3  1  0
  3  4  2  3
  4  5  1  0
  4 19  1  0
  5  6  1  0
  6  7  1  0
  6 14  2  0
  7  8  1  0
  8  9  2  0
  8 10  1  0
 10 11  1  0
 11 12  2  0
 11 13  1  0
 14 15  1  0
 14 19  1  0
 15 16  2  0
 15 17  1  0
 17 18  1  0
M  END
