
     RDKit          3D

 19 19  0  0  0  0  0  0  0  0999 V2000
   -3.6530    1.3220    0.6450 O   0  0  0  0  0  0  0  0  0  0  0  0
   -4.6270    0.6790    0.2320 C   0  0  0  0  0  0  0  0  0  0  0  0
   -5.6850    1.3660   -0.3500 O   0  0  0  0  0  0  0  0  0  0  0  0
   -4.6310   -0.7300    0.3640 N   0  0  0  0  0  0  0  0  0  0  0  0
   -3.5480   -1.4710    0.9530 C   0  0  0  0  0  0  0  0  0  0  0  0
   -2.2650   -1.3710    0.2360 C   0  0  0  0  0  0  0  0  0  0  0  0
   -1.2250   -1.9530    0.6830 O   0  0  0  0  0  0  0  0  0  0  0  0
   -2.0880   -0.6510   -0.9640 N   0  0  0  0  0  0  0  0  0  0  0  0
   -0.8320   -0.5970   -1.5900 N   0  0  0  0  0  0  0  0  0  0  0  0
    0.0790    0.4440   -1.2840 C   0  0  0  0  0  0  0  0  0  0  0  0
   -0.3010    1.3000   -0.4310 O   0  0  0  0  0  0  0  0  0  0  0  0
    1.4220    0.5230   -1.9400 C   0  0  0  0  0  0  0  0  0  0  0  0
    2.3130    1.9510   -1.3410 S   0  0  0  0  0  0  0  0  0  0  0  0
    2.7090    1.7430    0.4020 C   0  0  0  0  0  0  0  0  0  0  0  0
    3.7040    0.6040    0.5940 C   0  0  0  0  0  0  0  0  0  0  0  0
    4.1850   -0.1330   -0.2980 N   0  0  0  0  0  0  0  0  0  0  0  0
    5.2940   -1.3380    0.2510 S   0  0  0  0  0  0  0  0  0  0  0  0
    5.7880   -0.6790    1.9020 C   0  0  0  0  0  0  0  0  0  0  0  0
    4.2620    0.2410    2.2490 S   0  0  0  0  0  0  0  0  0  0  0  0
  1  2  2  0
  2  3  1  0
  2  4  1  0
  4  5  1  0
  5  6  1  0
  6  7  2  0
  6  8  1  0
  8  9  1  0
  9 10  1  0
 10 11  2  0
 10 12  1  0
 12 13  1  0
 13 14  1  0
 14 15  1  0
 15 16  2  0
 15 19  1  0
 16 17  1  0
 17 18  1  0
 18 19  1  0
M  END
