
     RDKit          3D

 19 19  0  0  0  0  0  0  0  0999 V2000
    6.5880   -0.4530    0.7460 C   0  0  0  0  0  0  0  0  0  0  0  0
    5.2180   -0.8770    0.7850 N   0  0  0  0  0  0  0  0  0  0  0  0
    4.2070   -0.0360    0.3020 C   0  0  0  0  0  0  0  0  0  0  0  0
    4.5450    1.1010   -0.1670 O   0  0  0  0  0  0  0  0  0  0  0  0
    2.7770   -0.3690    0.2950 C   0  0  0  0  0  0  0  0  0  0  0  0
    1.9360    0.7410   -0.2880 C   0  0  0  0  0  0  0  0  0  0  0  0
    0.2330    0.2390   -0.2480 S   0  0  1  0  0  0  0  0  0  0  0  0
    0.0300   -1.0150   -1.0420 O   0  0  0  0  0  0  0  0  0  0  0  0
   -0.1610    0.0270    1.1970 O   0  0  0  0  0  0  0  0  0  0  0  0
   -0.8180    1.5110   -0.9270 C   0  0  0  0  0  0  0  0  0  0  0  0
   -2.2290    1.0590   -0.8740 C   0  0  0  0  0  0  0  0  0  0  0  0
   -2.7210    0.4150   -1.8530 O   0  0  0  0  0  0  0  0  0  0  0  0
   -3.0770    1.3160    0.2400 N   0  0  0  0  0  0  0  0  0  0  0  0
   -4.3840    0.8720    0.2350 N   0  0  0  0  0  0  0  0  0  0  0  0
   -4.7240   -0.5420    0.4340 C   0  0  0  0  0  0  0  0  0  0  0  0
   -3.8500   -1.3180    0.8410 N   0  0  0  0  0  0  0  0  0  0  0  0
   -4.2880   -2.9990    1.0660 S   0  0  0  0  0  0  0  0  0  0  0  0
   -6.0760   -2.7800   -0.1500 S   0  0  0  0  0  0  0  0  0  0  0  0
   -6.0940   -0.9820    0.1530 C   0  0  0  0  0  0  0  0  0  0  0  0
  1  2  1  0
  2  3  1  0
  3  4  2  0
  3  5  1  0
  5  6  1  0
  7  6  1  1
  7  8  2  0
  7  9  2  0
  7 10  1  0
 10 11  1  0
 11 12  2  0
 11 13  1  0
 13 14  1  0
 14 15  1  0
 15 16  2  0
 15 19  1  0
 16 17  1  0
 17 18  1  0
 18 19  1  0
M  END
