
     RDKit          3D

 19 20  0  0  0  0  0  0  0  0999 V2000
    3.1380    2.3790    0.0690 C   0  0  0  0  0  0  0  0  0  0  0  0
    2.0910    1.0920   -0.6830 S   0  0  0  0  0  0  0  0  0  0  0  0
    2.3080   -0.4650    0.1790 C   0  0  0  0  0  0  0  0  0  0  0  0
    3.1320   -0.6630    1.2460 N   0  0  0  0  0  0  0  0  0  0  0  0
    3.0610   -1.9180    1.6420 N   0  0  0  0  0  0  0  0  0  0  0  0
    2.1960   -2.5910    0.8570 C   0  0  0  0  0  0  0  0  0  0  0  0
    1.7140   -1.6760   -0.0730 C   0  0  0  0  0  0  0  0  0  0  0  0
    0.5540   -1.9820   -1.3390 S   0  0  1  0  0  0  0  0  0  0  0  0
    1.1930   -1.6100   -2.6700 O   0  0  0  0  0  0  0  0  0  0  0  0
    0.2430   -3.4460   -1.4340 O   0  0  0  0  0  0  0  0  0  0  0  0
   -0.8750   -1.0360   -1.1560 N   0  0  0  0  0  0  0  0  0  0  0  0
   -1.2100   -0.4850    0.1040 C   0  0  0  0  0  0  0  0  0  0  0  0
   -0.4500   -0.6990    1.0730 O   0  0  0  0  0  0  0  0  0  0  0  0
   -2.4170    0.3060    0.2370 C   0  0  0  0  0  0  0  0  0  0  0  0
   -3.3610    0.6420   -0.6960 C   0  0  0  0  0  0  0  0  0  0  0  0
   -4.3710    1.3690   -0.3520 N   0  0  0  0  0  0  0  0  0  0  0  0
   -4.4900    1.7930    0.9330 C   0  0  0  0  0  0  0  0  0  0  0  0
   -5.3840    2.5080    1.5070 O   0  0  0  0  0  0  0  0  0  0  0  0
   -3.0180    1.0830    1.7080 S   0  0  0  0  0  0  0  0  0  0  0  0
  1  2  1  0
  2  3  1  0
  3  4  1  0
  3  7  2  0
  4  5  1  0
  5  6  2  0
  6  7  1  0
  7  8  1  0
  8  9  2  0
  8 10  2  0
  8 11  1  1
 11 12  1  0
 12 13  2  0
 12 14  1  0
 14 15  2  0
 14 19  1  0
 15 16  1  0
 16 17  1  0
 17 18  2  0
 17 19  1  0
M  END
