
     RDKit          3D

 12 12  0  0  0  0  0  0  0  0999 V2000
   -3.4250   -0.6680    1.0730 O   0  0  0  0  0  0  0  0  0  0  0  0
   -2.2950   -0.3600    0.6100 C   0  0  0  0  0  0  0  0  0  0  0  0
   -1.8220   -1.0440   -0.4620 N   0  0  0  0  0  0  0  0  0  0  0  0
   -0.6220   -0.7620   -1.0030 C   0  0  0  0  0  0  0  0  0  0  0  0
   -0.2160   -1.4320   -2.0140 O   0  0  0  0  0  0  0  0  0  0  0  0
    0.1460    0.2260   -0.4760 N   0  0  0  0  0  0  0  0  0  0  0  0
    1.4150    0.4730   -1.1120 C   0  0  0  0  0  0  0  0  0  0  0  0
    2.6740   -0.5620   -0.3320 S   0  0  0  0  0  0  0  0  0  0  0  0
    2.8900   -0.0440    1.2710 O   0  0  0  0  0  0  0  0  0  0  0  0
   -0.3210    0.9050    0.5870 C   0  0  0  0  0  0  0  0  0  0  0  0
    0.6160    2.1050    1.2200 S   0  0  0  0  0  0  0  0  0  0  0  0
   -1.5220    0.6210    1.1260 N   0  0  0  0  0  0  0  0  0  0  0  0
  1  2  2  0
  2  3  1  0
  2 12  1  0
  3  4  1  0
  4  5  2  0
  4  6  1  0
  6  7  1  0
  6 10  1  0
  7  8  1  0
  8  9  1  0
 10 11  2  0
 10 12  1  0
M  END
