
     RDKit          3D

 13 13  0  0  0  0  0  0  0  0999 V2000
   -3.7440    0.9610    1.5910 C   0  0  0  0  0  0  0  0  0  0  0  0
   -3.1960    0.0900    0.1570 S   0  0  2  0  0  0  0  0  0  0  0  0
   -2.9640    1.0990   -0.9310 O   0  0  0  0  0  0  0  0  0  0  0  0
   -4.1990   -0.8750   -0.3530 O   0  0  0  0  0  0  0  0  0  0  0  0
   -1.7210   -0.7090    0.6060 N   0  0  0  0  0  0  0  0  0  0  0  0
   -0.5580   -0.3520   -0.0990 C   0  0  0  0  0  0  0  0  0  0  0  0
   -0.5810    0.5060   -0.9880 O   0  0  0  0  0  0  0  0  0  0  0  0
    0.6940   -0.9410    0.1450 N   0  0  0  0  0  0  0  0  0  0  0  0
    1.8090   -0.4860   -0.5640 C   0  0  0  0  0  0  0  0  0  0  0  0
    2.7760   -1.2080   -0.6680 N   0  0  0  0  0  0  0  0  0  0  0  0
    3.8340   -0.7340   -1.3900 N   0  0  0  0  0  0  0  0  0  0  0  0
    4.2450    0.5820   -0.8590 C   0  0  0  0  0  0  0  0  0  0  0  0
    2.4850    1.1680   -1.0560 S   0  0  0  0  0  0  0  0  0  0  0  0
  2  1  1  1
  2  3  2  0
  2  4  2  0
  2  5  1  0
  5  6  1  0
  6  7  2  0
  6  8  1  0
  8  9  1  0
  9 10  2  0
  9 13  1  0
 10 11  1  0
 11 12  1  0
 12 13  1  0
M  END
