
     RDKit          3D

 13 13  0  0  0  0  0  0  0  0999 V2000
    2.2930    0.2510   -1.7300 O   0  0  0  0  0  0  0  0  0  0  0  0
    2.4520    0.2750   -0.5220 C   0  0  0  0  0  0  0  0  0  0  0  0
    4.1580    0.4500    0.0860 S   0  0  0  0  0  0  0  0  0  0  0  0
    1.4250    0.1790    0.4090 N   0  0  0  0  0  0  0  0  0  0  0  0
    0.0760    0.0420    0.1160 N   0  0  0  0  0  0  0  0  0  0  0  0
   -0.5000   -0.0240   -1.0750 C   0  0  0  0  0  0  0  0  0  0  0  0
    0.1400    0.0330   -2.1320 O   0  0  0  0  0  0  0  0  0  0  0  0
   -1.8490   -0.1600   -1.2010 N   0  0  0  0  0  0  0  0  0  0  0  0
   -2.6570   -0.2330   -0.1450 C   0  0  0  0  0  0  0  0  0  0  0  0
   -3.9020   -0.3580   -0.2650 O   0  0  0  0  0  0  0  0  0  0  0  0
   -2.1030   -0.1690    1.0670 N   0  0  0  0  0  0  0  0  0  0  0  0
   -0.7770   -0.0360    1.1950 C   0  0  0  0  0  0  0  0  0  0  0  0
   -0.1210    0.0400    2.6930 S   0  0  0  0  0  0  0  0  0  0  0  0
  1  2  2  0
  2  3  1  0
  2  4  1  0
  4  5  1  0
  5  6  1  0
  5 12  1  0
  6  7  2  0
  6  8  1  0
  8  9  1  0
  9 10  2  0
  9 11  1  0
 11 12  1  0
 12 13  2  0
M  END
