
     RDKit          3D

 20 22  0  0  0  0  0  0  0  0999 V2000
   -5.0730   -0.0530   -1.6520 N   0  0  0  0  0  0  0  0  0  0  0  0
   -3.7440   -0.0600   -1.1550 C   0  0  0  0  0  0  0  0  0  0  0  0
   -2.7050    0.3100   -1.9590 C   0  0  0  0  0  0  0  0  0  0  0  0
   -1.4710    0.2970   -1.4750 N   0  0  0  0  0  0  0  0  0  0  0  0
   -1.2130   -0.0720   -0.2120 C   0  0  0  0  0  0  0  0  0  0  0  0
    0.1650   -0.0610    0.2460 C   0  0  0  0  0  0  0  0  0  0  0  0
    0.5310   -0.4220    1.5260 C   0  0  0  0  0  0  0  0  0  0  0  0
    1.8500   -0.3990    1.9260 C   0  0  0  0  0  0  0  0  0  0  0  0
    2.8410   -0.0090    1.0400 C   0  0  0  0  0  0  0  0  0  0  0  0
    4.1650    0.0360    1.3720 C   0  0  0  0  0  0  0  0  0  0  0  0
    4.7070   -0.4560    3.1310 Br  0  0  0  0  0  0  0  0  0  0  0  0
    5.1530    0.4250    0.4900 C   0  0  0  0  0  0  0  0  0  0  0  0
    4.7420    0.7790   -0.7810 C   0  0  0  0  0  0  0  0  0  0  0  0
    6.0950    1.3190   -2.0150 Br  0  0  0  0  0  0  0  0  0  0  0  0
    3.4120    0.7400   -1.1340 C   0  0  0  0  0  0  0  0  0  0  0  0
    2.4330    0.3450   -0.2290 C   0  0  0  0  0  0  0  0  0  0  0  0
    1.1280    0.3150   -0.6030 N   0  0  0  0  0  0  0  0  0  0  0  0
   -2.2270   -0.4430    0.6060 N   0  0  0  0  0  0  0  0  0  0  0  0
   -3.4780   -0.4450    0.1620 C   0  0  0  0  0  0  0  0  0  0  0  0
   -4.5590   -0.8260    0.9870 N   0  0  0  0  0  0  0  0  0  0  0  0
  1  2  1  0
  2  3  2  0
  2 19  1  0
  3  4  1  0
  4  5  2  0
  5  6  1  0
  5 18  1  0
  6  7  2  0
  6 17  1  0
  7  8  1  0
  8  9  2  0
  9 10  1  0
  9 16  1  0
 10 11  1  0
 10 12  2  0
 12 13  1  0
 13 14  1  0
 13 15  2  0
 15 16  1  0
 16 17  2  0
 18 19  2  0
 19 20  1  0
M  END
