
     RDKit          3D

 12 12  0  0  0  0  0  0  0  0999 V2000
   -2.3350    2.4450    1.2290 O   0  0  0  0  0  0  0  0  0  0  0  0
   -2.0130    1.3630    0.6740 C   0  0  0  0  0  0  0  0  0  0  0  0
   -0.9560    1.3280   -0.1710 N   0  0  0  0  0  0  0  0  0  0  0  0
   -0.6010    0.1770   -0.7700 C   0  0  0  0  0  0  0  0  0  0  0  0
    0.7890    0.1510   -1.8760 S   0  0  0  0  0  0  0  0  0  0  0  0
    2.3300   -0.2200   -1.0330 C   0  0  0  0  0  0  0  0  0  0  0  0
    2.8060    1.0950    0.1220 S   0  0  0  0  0  0  0  0  0  0  0  0
    4.2810    0.6840    0.8930 O   0  0  0  0  0  0  0  0  0  0  0  0
   -1.2970   -0.9490   -0.5320 N   0  0  0  0  0  0  0  0  0  0  0  0
   -2.3620   -0.9530    0.3080 C   0  0  0  0  0  0  0  0  0  0  0  0
   -3.0340   -1.9880    0.5530 O   0  0  0  0  0  0  0  0  0  0  0  0
   -2.6870    0.2250    0.8920 N   0  0  0  0  0  0  0  0  0  0  0  0
  1  2  2  0
  2  3  1  0
  2 12  1  0
  3  4  2  0
  4  5  1  0
  4  9  1  0
  5  6  1  0
  6  7  1  0
  7  8  1  0
  9 10  1  0
 10 11  2  0
 10 12  1  0
M  END
