
     RDKit          3D

 10 10  0  0  0  0  0  0  0  0999 V2000
    3.2930   -0.5520   -0.1010 O   0  0  0  0  0  0  0  0  0  0  0  0
    2.1560   -0.1580    0.2320 C   0  0  0  0  0  0  0  0  0  0  0  0
    2.0470    0.6280    1.3730 O   0  0  0  0  0  0  0  0  0  0  0  0
    0.9730   -0.5300   -0.5790 C   0  0  1  0  0  0  0  0  0  0  0  0
    0.0310   -1.2920    0.2870 C   0  0  0  0  0  0  0  0  0  0  0  0
   -1.4110   -1.0910   -0.0190 C   0  0  0  0  0  0  0  0  0  0  0  0
   -1.9130    0.1690    0.6880 C   0  0  0  0  0  0  0  0  0  0  0  0
   -0.7950    0.9780    0.8800 O   0  0  0  0  0  0  0  0  0  0  0  0
   -0.4450    1.5320   -0.3170 C   0  0  0  0  0  0  0  0  0  0  0  0
    0.4160    0.7090   -1.1930 C   0  0  0  0  0  0  0  0  0  0  0  0
  1  2  2  0
  2  3  1  0
  4  2  1  1
  4  5  1  0
  4 10  1  0
  5  6  1  0
  6  7  1  0
  7  8  1  0
  8  9  1  0
  9 10  1  0
M  END
