
     RDKit          3D

 10 10  0  0  0  0  0  0  0  0999 V2000
   -2.8090    0.6640   -0.4310 C   0  0  0  0  0  0  0  0  0  0  0  0
   -1.9040   -0.3030    0.2950 C   0  0  0  0  0  0  0  0  0  0  0  0
   -0.4660    0.0250    0.1040 C   0  0  0  0  0  0  0  0  0  0  0  0
    0.3260    0.3090    1.1260 C   0  0  0  0  0  0  0  0  0  0  0  0
   -0.2120    0.2980    2.4110 O   0  0  0  0  0  0  0  0  0  0  0  0
    1.7350    0.6220    0.8470 C   0  0  0  0  0  0  0  0  0  0  0  0
    2.3440   -0.2980   -0.1840 C   0  0  0  0  0  0  0  0  0  0  0  0
    1.5210   -0.4090   -1.4270 C   0  0  0  0  0  0  0  0  0  0  0  0
    0.1160    0.0410   -1.2300 C   0  0  0  0  0  0  0  0  0  0  0  0
   -0.6040    0.4420   -2.1880 O   0  0  0  0  0  0  0  0  0  0  0  0
  1  2  1  0
  2  3  1  0
  3  4  2  0
  3  9  1  0
  4  5  1  0
  4  6  1  0
  6  7  1  0
  7  8  1  0
  8  9  1  0
  9 10  2  0
M  END
