
     RDKit          3D

 11 11  0  0  0  0  0  0  0  0999 V2000
   -2.8470    0.3090   -0.7070 C   0  0  0  0  0  0  0  0  0  0  0  0
   -2.3640   -0.7940    0.1750 C   0  0  0  0  0  0  0  0  0  0  0  0
   -1.0790   -1.2450   -0.0890 O   0  0  0  0  0  0  0  0  0  0  0  0
    0.0880   -0.5360   -0.0500 C   0  0  0  0  0  0  0  0  0  0  0  0
    0.0950    0.8020    0.2810 C   0  0  0  0  0  0  0  0  0  0  0  0
    1.2830    1.5340    0.3220 C   0  0  0  0  0  0  0  0  0  0  0  0
    2.4640    0.8710    0.0190 C   0  0  0  0  0  0  0  0  0  0  0  0
    3.6380    1.6110    0.0640 O   0  0  0  0  0  0  0  0  0  0  0  0
    2.4930   -0.4680   -0.3170 C   0  0  0  0  0  0  0  0  0  0  0  0
    1.2730   -1.1660   -0.3460 C   0  0  0  0  0  0  0  0  0  0  0  0
    1.2610   -2.5060   -0.6780 O   0  0  0  0  0  0  0  0  0  0  0  0
  1  2  1  0
  2  3  1  0
  3  4  1  0
  4  5  2  0
  4 10  1  0
  5  6  1  0
  6  7  2  0
  7  8  1  0
  7  9  1  0
  9 10  2  0
 10 11  1  0
M  END
