
     RDKit          3D

 16 17  0  0  0  0  0  0  0  0999 V2000
    1.7780    1.0610   -0.6640 O   0  0  0  0  0  0  0  0  0  0  0  0
    1.7750   -0.1550   -0.9350 C   0  0  0  0  0  0  0  0  0  0  0  0
    0.8940   -0.6670   -2.0060 C   0  0  0  0  0  0  0  0  0  0  0  0
   -0.6380   -1.3080   -1.3140 S   0  0  0  0  0  0  0  0  0  0  0  0
   -1.7230   -0.0570   -0.6650 C   0  0  0  0  0  0  0  0  0  0  0  0
   -1.5170    1.2600   -0.7580 N   0  0  0  0  0  0  0  0  0  0  0  0
   -2.5190    1.8500   -0.1480 N   0  0  0  0  0  0  0  0  0  0  0  0
   -3.4020    0.9320    0.3550 C   0  0  0  0  0  0  0  0  0  0  0  0
   -2.9190   -0.2640    0.0410 C   0  0  0  0  0  0  0  0  0  0  0  0
   -3.6920   -1.4380    0.4720 C   0  0  0  0  0  0  0  0  0  0  0  0
   -4.9800   -0.7070    1.5240 S   0  0  0  0  0  0  0  0  0  0  0  0
   -4.6540    1.0230    1.1000 C   0  0  0  0  0  0  0  0  0  0  0  0
    2.6120   -0.9820   -0.2030 O   0  0  0  0  0  0  0  0  0  0  0  0
    3.4710   -0.5890    0.8170 C   0  0  0  0  0  0  0  0  0  0  0  0
    4.4940    0.3860    0.2960 C   0  0  0  0  0  0  0  0  0  0  0  0
    5.3660    0.7910    1.3200 O   0  0  0  0  0  0  0  0  0  0  0  0
  1  2  2  0
  2  3  1  0
  2 13  1  0
  3  4  1  0
  4  5  1  0
  5  6  1  0
  5  9  2  0
  6  7  1  0
  7  8  2  0
  8  9  1  0
  8 12  1  0
  9 10  1  0
 10 11  1  0
 11 12  1  0
 13 14  1  0
 14 15  1  0
 15 16  1  0
M  END
