
     RDKit          3D

 16 16  0  0  0  0  0  0  0  0999 V2000
   -5.7610    1.2090   -1.2880 C   0  0  0  0  0  0  0  0  0  0  0  0
   -4.7340    0.5070   -0.8480 C   0  0  0  0  0  0  0  0  0  0  0  0
   -3.1640    1.2240   -0.2970 S   0  0  0  0  0  0  0  0  0  0  0  0
   -2.4230   -0.3620    0.0950 C   0  0  0  0  0  0  0  0  0  0  0  0
   -1.1110   -0.4970    0.6050 N   0  0  0  0  0  0  0  0  0  0  0  0
    0.0490   -0.0540   -0.0740 C   0  0  0  0  0  0  0  0  0  0  0  0
   -0.0880    0.4910   -1.1930 O   0  0  0  0  0  0  0  0  0  0  0  0
    1.3820   -0.2270    0.5170 C   0  0  0  0  0  0  0  0  0  0  0  0
    2.4370    0.2770   -0.3030 N   0  0  0  0  0  0  0  0  0  0  0  0
    3.7720    0.1760    0.1430 C   0  0  0  0  0  0  0  0  0  0  0  0
    4.0180   -0.3650    1.2750 O   0  0  0  0  0  0  0  0  0  0  0  0
    4.8390    0.6490   -0.6130 O   0  0  0  0  0  0  0  0  0  0  0  0
    6.1520    0.5010   -0.0750 C   0  0  0  0  0  0  0  0  0  0  0  0
   -3.2710   -1.3090   -0.1640 C   0  0  0  0  0  0  0  0  0  0  0  0
   -4.5440   -0.9100   -0.6780 C   0  0  0  0  0  0  0  0  0  0  0  0
   -5.7580   -1.9720   -1.0690 S   0  0  0  0  0  0  0  0  0  0  0  0
  1  2  2  0
  2  3  1  0
  2 15  1  0
  3  4  1  0
  4  5  1  0
  4 14  2  0
  5  6  1  0
  6  7  2  0
  6  8  1  0
  8  9  1  0
  9 10  1  0
 10 11  2  0
 10 12  1  0
 12 13  1  0
 14 15  1  0
 15 16  2  0
M  END
