
     RDKit          3D

 16 17  0  0  0  0  0  0  0  0999 V2000
    3.2980    0.2880   -1.0080 C   0  0  0  0  0  0  0  0  0  0  0  0
    2.7480   -0.9070   -0.2780 C   0  0  0  0  0  0  0  0  0  0  0  0
    2.4110   -0.4450    1.4050 S   0  0  1  0  0  0  0  0  0  0  0  0
    1.9160   -1.6350    2.1640 O   0  0  0  0  0  0  0  0  0  0  0  0
    3.6980    0.0360    2.0610 O   0  0  0  0  0  0  0  0  0  0  0  0
    1.2680    0.8280    1.5020 N   0  0  0  0  0  0  0  0  0  0  0  0
   -0.0280    0.6440    0.9980 C   0  0  0  0  0  0  0  0  0  0  0  0
   -0.6950    1.5400    0.2070 C   0  0  0  0  0  0  0  0  0  0  0  0
   -1.9520    1.3600   -0.2830 C   0  0  0  0  0  0  0  0  0  0  0  0
   -2.6860    0.1750    0.0100 C   0  0  0  0  0  0  0  0  0  0  0  0
   -3.8870   -0.0900   -0.4090 N   0  0  0  0  0  0  0  0  0  0  0  0
   -4.5060   -1.2300   -0.0860 C   0  0  0  0  0  0  0  0  0  0  0  0
   -5.5810   -1.7160   -0.3270 O   0  0  0  0  0  0  0  0  0  0  0  0
   -3.2030   -2.0460    0.9590 S   0  0  0  0  0  0  0  0  0  0  0  0
   -2.0040   -0.6940    0.7940 C   0  0  0  0  0  0  0  0  0  0  0  0
   -0.7290   -0.5330    1.3030 C   0  0  0  0  0  0  0  0  0  0  0  0
  1  2  1  0
  3  2  1  6
  3  4  2  0
  3  5  2  0
  3  6  1  0
  6  7  1  0
  7  8  2  0
  7 16  1  0
  8  9  1  0
  9 10  2  0
 10 11  1  0
 10 15  1  0
 11 12  1  0
 12 13  2  0
 12 14  1  0
 14 15  1  0
 15 16  2  0
M  END
