
     RDKit          3D

 13 14  0  0  0  0  0  0  0  0999 V2000
    3.6130   -0.1850   -0.1370 C   0  0  0  0  0  0  0  0  0  0  0  0
    2.3000   -0.4390    0.6130 C   0  0  0  0  0  0  0  0  0  0  0  0
    1.1830   -0.7450   -0.3630 C   0  0  2  0  0  0  0  0  0  0  0  0
    0.9490    0.3940   -1.3260 C   0  0  0  0  0  0  0  0  0  0  0  0
   -0.4240    0.5380   -1.6700 N   0  0  0  0  0  0  0  0  0  0  0  0
   -1.3250    0.6280   -0.5800 C   0  0  1  0  0  0  0  0  0  0  0  0
   -2.6050   -0.1270   -0.7150 C   0  0  0  0  0  0  0  0  0  0  0  0
   -3.2100    0.0510    0.9530 S   0  0  1  0  0  0  0  0  0  0  0  0
   -3.8730    1.3770    1.1610 O   0  0  0  0  0  0  0  0  0  0  0  0
   -4.0720   -1.0990    1.3540 O   0  0  0  0  0  0  0  0  0  0  0  0
   -1.6300    0.0200    1.7630 C   0  0  0  0  0  0  0  0  0  0  0  0
   -0.6260    0.1550    0.6580 C   0  0  1  0  0  0  0  0  0  0  0  0
    0.0400   -1.0180    0.3780 O   0  0  0  0  0  0  0  0  0  0  0  0
  1  2  1  0
  3  2  1  1
  3  4  1  0
  3 13  1  0
  4  5  1  0
  5  6  1  0
  6  7  1  6
  6 12  1  0
  8  7  1  6
  8  9  2  0
  8 10  2  0
  8 11  1  0
 12 11  1  1
 12 13  1  0
M  END
