
     RDKit          3D

 13 14  0  0  0  0  0  0  0  0999 V2000
    3.7410    0.3520   -0.6460 C   0  0  0  0  0  0  0  0  0  0  0  0
    2.0250    0.9470   -0.8260 S   0  0  0  0  0  0  0  0  0  0  0  0
    1.0210   -0.1160    0.2360 C   0  0  2  0  0  0  0  0  0  0  0  0
    1.1110   -1.5490   -0.2020 C   0  0  0  0  0  0  0  0  0  0  0  0
    0.1180   -1.9730   -1.0420 O   0  0  0  0  0  0  0  0  0  0  0  0
   -1.1710   -1.7480   -0.6260 C   0  0  0  0  0  0  0  0  0  0  0  0
   -1.1570   -0.9720    0.6790 C   0  0  2  0  0  0  0  0  0  0  0  0
   -2.4610   -0.7300    1.2130 N   0  0  0  0  0  0  0  0  0  0  0  0
   -0.4200    0.3110    0.3010 C   0  0  1  0  0  0  0  0  0  0  0  0
   -0.6690    1.3440    1.1710 O   0  0  0  0  0  0  0  0  0  0  0  0
   -1.6460    2.1190    0.5240 C   0  0  0  0  0  0  0  0  0  0  0  0
   -1.0910    2.0790   -0.8960 C   0  0  0  0  0  0  0  0  0  0  0  0
   -0.7730    0.7210   -0.9810 O   0  0  0  0  0  0  0  0  0  0  0  0
  1  2  1  0
  3  2  1  6
  3  4  1  0
  3  9  1  0
  4  5  1  0
  5  6  1  0
  6  7  1  0
  7  8  1  6
  7  9  1  0
  9 10  1  1
  9 13  1  0
 10 11  1  0
 11 12  1  0
 12 13  1  0
M  END
