
     RDKit          3D

 14 15  0  0  0  0  0  0  0  0999 V2000
   -1.3360    3.2550    0.6810 O   0  0  0  0  0  0  0  0  0  0  0  0
   -0.5210    1.9970    0.5880 S   0  0  0  0  0  0  0  0  0  0  0  0
    0.9510    2.2280   -0.3390 N   0  0  0  0  0  0  0  0  0  0  0  0
    1.9360    1.2260   -0.0450 C   0  0  0  0  0  0  0  0  0  0  0  0
    1.7700   -0.0470   -0.8140 C   0  0  1  0  0  0  0  0  0  0  0  0
    2.4260   -1.1730   -0.0330 C   0  0  0  0  0  0  0  0  0  0  0  0
    3.7320   -0.7400    0.2870 O   0  0  0  0  0  0  0  0  0  0  0  0
    0.4880   -0.3310   -1.1930 O   0  0  0  0  0  0  0  0  0  0  0  0
   -0.3900   -0.5360   -0.1650 C   0  0  2  0  0  0  0  0  0  0  0  0
   -1.2820   -1.7320   -0.3320 C   0  0  0  0  0  0  0  0  0  0  0  0
   -2.6960   -1.2550   -0.0720 C   0  0  0  0  0  0  0  0  0  0  0  0
   -2.5070    0.0830    0.6190 C   0  0  0  0  0  0  0  0  0  0  0  0
   -1.3730    0.6440   -0.1920 C   0  0  1  0  0  0  0  0  0  0  0  0
   -1.7720    0.8950   -1.4780 O   0  0  0  0  0  0  0  0  0  0  0  0
  1  2  2  0
  2  3  1  6
  2 13  1  0
  3  4  1  0
  4  5  1  0
  5  6  1  1
  5  8  1  0
  6  7  1  0
  8  9  1  0
  9 10  1  6
  9 13  1  0
 10 11  1  0
 11 12  1  0
 12 13  1  0
 13 14  1  6
M  END
