
     RDKit          3D

 13 14  0  0  0  0  0  0  0  0999 V2000
   -1.3260   -1.6700    0.1260 N   0  0  0  0  0  0  0  0  0  0  0  0
   -0.9120   -0.6500   -0.8180 C   0  0  1  0  0  0  0  0  0  0  0  0
   -1.9520    0.4030   -0.8840 C   0  0  2  0  0  0  0  0  0  0  0  0
   -1.9250    1.1270   -2.0760 O   0  0  0  0  0  0  0  0  0  0  0  0
   -1.9540    1.3040    0.3330 C   0  0  0  0  0  0  0  0  0  0  0  0
   -0.6690    1.7800    0.5000 O   0  0  0  0  0  0  0  0  0  0  0  0
    0.1510    0.7190    0.9100 C   0  0  0  0  0  0  0  0  0  0  0  0
    0.4360   -0.1270   -0.3060 C   0  0  1  0  0  0  0  0  0  0  0  0
    1.2250   -1.3620    0.0240 C   0  0  0  0  0  0  0  0  0  0  0  0
    2.6820   -1.1560    0.1740 C   0  0  0  0  0  0  0  0  0  0  0  0
    3.2040    0.5640    0.1310 S   0  0  0  0  0  0  0  0  0  0  0  0
    2.0030    1.4650   -0.9220 C   0  0  0  0  0  0  0  0  0  0  0  0
    0.9720    0.6420   -1.3030 O   0  0  0  0  0  0  0  0  0  0  0  0
  2  1  1  1
  2  3  1  0
  2  8  1  0
  3  4  1  6
  3  5  1  0
  5  6  1  0
  6  7  1  0
  8  7  1  1
  8  9  1  0
  8 13  1  0
  9 10  1  0
 10 11  1  0
 11 12  1  0
 12 13  1  0
M  END
