
     RDKit          3D

 19 20  0  0  0  0  0  0  0  0999 V2000
    5.7300    0.6620   -0.2480 C   0  0  0  0  0  0  0  0  0  0  0  0
    4.6190    0.7560    0.5730 O   0  0  0  0  0  0  0  0  0  0  0  0
    3.5220    0.2760   -0.1340 C   0  0  1  0  0  0  0  0  0  0  0  0
    3.3150    1.1060   -1.3770 C   0  0  0  0  0  0  0  0  0  0  0  0
    3.6570   -1.1980   -0.4470 C   0  0  0  0  0  0  0  0  0  0  0  0
    2.2970   -1.8090   -0.1160 C   0  0  0  0  0  0  0  0  0  0  0  0
    1.4380   -0.6560   -0.0200 N   0  0  1  0  0  0  0  0  0  0  0  0
    0.1960   -0.9320    0.6630 C   0  0  0  0  0  0  0  0  0  0  0  0
   -0.8220    0.0780    0.1380 C   0  0  1  0  0  0  0  0  0  0  0  0
   -0.9730   -0.0680   -1.2280 O   0  0  0  0  0  0  0  0  0  0  0  0
   -2.1590   -0.0970    0.8450 C   0  0  2  0  0  0  0  0  0  0  0  0
   -2.7350   -1.3980    0.6090 N   0  0  0  0  0  0  0  0  0  0  0  0
   -3.0550    1.0250    0.3100 C   0  0  2  0  0  0  0  0  0  0  0  0
   -4.2970    1.1830    1.0990 C   0  0  0  0  0  0  0  0  0  0  0  0
   -5.5610    0.8500    0.3890 C   0  0  0  0  0  0  0  0  0  0  0  0
   -5.4260    1.1360   -0.9600 O   0  0  0  0  0  0  0  0  0  0  0  0
   -4.3930    0.3010   -1.4370 C   0  0  0  0  0  0  0  0  0  0  0  0
   -3.2100    0.8450   -1.0310 O   0  0  0  0  0  0  0  0  0  0  0  0
    2.2630    0.2880    0.7040 C   0  0  0  0  0  0  0  0  0  0  0  0
  1  2  1  0
  2  3  1  0
  3  4  1  6
  3  5  1  0
  3 19  1  0
  5  6  1  0
  6  7  1  0
  7  8  1  1
  7 19  1  0
  8  9  1  0
  9 10  1  6
  9 11  1  0
 11 12  1  6
 11 13  1  0
 13 14  1  1
 13 18  1  0
 14 15  1  0
 15 16  1  0
 16 17  1  0
 17 18  1  0
M  CHG  1   7   1
M  END
