
     RDKit          3D

 19 20  0  0  0  0  0  0  0  0999 V2000
    5.2470    1.1640   -1.4340 O   0  0  0  0  0  0  0  0  0  0  0  0
    4.3320    0.7310   -0.6980 C   0  0  0  0  0  0  0  0  0  0  0  0
    3.4170   -0.3080   -1.0240 N   0  0  0  0  0  0  0  0  0  0  0  0
    2.3010   -0.3070   -0.0770 C   0  0  2  0  0  0  0  0  0  0  0  0
    1.0180   -0.4050   -0.8700 C   0  0  0  0  0  0  0  0  0  0  0  0
   -0.0920   -0.4040    0.0580 N   0  0  0  0  0  0  0  0  0  0  0  0
   -1.3210   -0.8700   -0.5600 C   0  0  1  0  0  0  0  0  0  0  0  0
   -1.5970   -2.2490   -0.0520 C   0  0  0  0  0  0  0  0  0  0  0  0
   -0.5690   -3.1440   -0.3530 O   0  0  0  0  0  0  0  0  0  0  0  0
   -2.4300    0.0360   -0.1940 C   0  0  0  0  0  0  0  0  0  0  0  0
   -2.2720    1.4260   -0.2530 C   0  0  0  0  0  0  0  0  0  0  0  0
   -3.2710    2.2950    0.0780 C   0  0  0  0  0  0  0  0  0  0  0  0
   -4.4890    1.8040    0.4880 C   0  0  0  0  0  0  0  0  0  0  0  0
   -4.7000    0.4570    0.5650 C   0  0  0  0  0  0  0  0  0  0  0  0
   -3.6650   -0.4140    0.2230 C   0  0  0  0  0  0  0  0  0  0  0  0
    2.4460    1.0220    0.6240 C   0  0  1  0  0  0  0  0  0  0  0  0
    1.9560    1.0010    1.9240 O   0  0  0  0  0  0  0  0  0  0  0  0
    3.9620    1.1710    0.6720 C   0  0  1  0  0  0  0  0  0  0  0  0
    4.4240    0.2130    1.5660 O   0  0  0  0  0  0  0  0  0  0  0  0
  1  2  2  0
  2  3  1  0
  2 18  1  0
  3  4  1  0
  4  5  1  6
  4 16  1  0
  5  6  1  0
  6  7  1  0
  7  8  1  1
  7 10  1  0
  8  9  1  0
 10 11  2  0
 10 15  1  0
 11 12  1  0
 12 13  2  0
 13 14  1  0
 14 15  2  0
 16 17  1  1
 16 18  1  0
 18 19  1  1
M  CHG  1   6   1
M  END
