
     RDKit          3D

 19 20  0  0  0  0  0  0  0  0999 V2000
    4.5700   -2.4780    0.5300 C   0  0  0  0  0  0  0  0  0  0  0  0
    3.5630   -2.1160   -0.3960 O   0  0  0  0  0  0  0  0  0  0  0  0
    2.7530   -1.0080   -0.1300 C   0  0  0  0  0  0  0  0  0  0  0  0
    3.2720    0.1880   -0.2150 C   0  0  0  0  0  0  0  0  0  0  0  0
    2.4490    1.3430    0.0570 N   0  0  0  0  0  0  0  0  0  0  0  0
    1.0850    1.2160    0.4170 C   0  0  0  0  0  0  0  0  0  0  0  0
    0.2840    2.1990    0.6760 C   0  0  0  0  0  0  0  0  0  0  0  0
    0.6240    3.6010    0.6480 C   0  0  0  0  0  0  0  0  0  0  0  0
   -0.2850    4.4700    0.9300 O   0  0  0  0  0  0  0  0  0  0  0  0
    1.8450    4.1380    0.3450 O   0  0  0  0  0  0  0  0  0  0  0  0
    0.5790   -0.1570    0.4910 C   0  0  0  0  0  0  0  0  0  0  0  0
   -0.7480   -0.4410    0.8340 O   0  0  0  0  0  0  0  0  0  0  0  0
   -1.5190   -1.0930   -0.1590 C   0  0  2  0  0  0  0  0  0  0  0  0
   -1.5300   -0.1580   -1.3670 C   0  0  0  0  0  0  0  0  0  0  0  0
   -2.7120    0.7610   -1.1400 C   0  0  0  0  0  0  0  0  0  0  0  0
   -3.3670    0.3070    0.1480 C   0  0  0  0  0  0  0  0  0  0  0  0
   -2.9760   -1.1500    0.1950 C   0  0  2  0  0  0  0  0  0  0  0  0
   -3.2200   -1.7330    1.4980 N   0  0  0  0  0  0  0  0  0  0  0  0
    1.3540   -1.1870    0.2370 C   0  0  0  0  0  0  0  0  0  0  0  0
  1  2  1  0
  2  3  1  0
  3  4  2  0
  3 19  1  0
  4  5  1  0
  5  6  1  0
  6  7  2  3
  6 11  1  0
  7  8  1  0
  8  9  2  0
  8 10  1  0
 11 12  1  0
 11 19  2  0
 13 12  1  1
 13 14  1  0
 13 17  1  0
 14 15  1  0
 15 16  1  0
 16 17  1  0
 17 18  1  1
M  CHG  1  18   1
M  END
