
     RDKit          3D

 19 20  0  0  0  0  0  0  0  0999 V2000
   -2.9960    1.0630   -0.9390 O   0  0  0  0  0  0  0  0  0  0  0  0
   -2.0840    0.5150   -0.2080 C   0  0  0  0  0  0  0  0  0  0  0  0
   -2.5080   -0.7470    0.4300 C   0  0  1  0  0  0  0  0  0  0  0  0
   -4.0440   -0.9070    0.4570 C   0  0  0  0  0  0  0  0  0  0  0  0
   -3.8000   -2.3760    0.2110 C   0  0  0  0  0  0  0  0  0  0  0  0
   -2.5630   -1.9060   -0.5760 C   0  0  0  0  0  0  0  0  0  0  0  0
   -0.8230    1.1310   -0.0850 N   0  0  0  0  0  0  0  0  0  0  0  0
   -0.5990    2.3860   -0.7970 C   0  0  0  0  0  0  0  0  0  0  0  0
   -1.0010    3.5560    0.1090 C   0  0  0  0  0  0  0  0  0  0  0  0
   -0.7820    4.7380   -0.5810 O   0  0  0  0  0  0  0  0  0  0  0  0
    0.2240    0.6000    0.6950 C   0  0  0  0  0  0  0  0  0  0  0  0
    1.2030   -0.3060    0.0380 C   0  0  1  0  0  0  0  0  0  0  0  0
    0.6740   -1.4620   -0.5120 O   0  0  0  0  0  0  0  0  0  0  0  0
    1.9980    0.3590   -1.0590 C   0  0  0  0  0  0  0  0  0  0  0  0
    3.0840   -0.5950   -1.4890 C   0  0  0  0  0  0  0  0  0  0  0  0
    3.8800   -1.1130   -0.4210 N   0  0  0  0  0  0  0  0  0  0  0  0
    3.0470   -1.8160    0.5550 C   0  0  0  0  0  0  0  0  0  0  0  0
    2.1440   -0.7840    1.1570 C   0  0  1  0  0  0  0  0  0  0  0  0
    2.8120    0.2670    1.7420 O   0  0  0  0  0  0  0  0  0  0  0  0
  1  2  2  0
  3  2  1  6
  2  7  1  0
  3  4  1  0
  3  6  1  0
  4  5  1  0
  5  6  1  0
  7  8  1  0
  7 11  1  0
  8  9  1  0
  9 10  1  0
 11 12  1  0
 12 13  1  6
 12 14  1  0
 12 18  1  0
 14 15  1  0
 15 16  1  0
 16 17  1  0
 17 18  1  0
 18 19  1  6
M  CHG  1  16   1
M  END
