
     RDKit          3D

 19 19  0  0  0  0  0  0  0  0999 V2000
   -6.2560   -0.4770    0.1360 C   0  0  0  0  0  0  0  0  0  0  0  0
   -4.9420   -0.3810    0.0530 C   0  0  0  0  0  0  0  0  0  0  0  0
   -4.0950   -1.2420    0.9180 C   0  0  0  0  0  0  0  0  0  0  0  0
   -2.6960   -0.8740    0.8350 N   0  0  0  0  0  0  0  0  0  0  0  0
   -2.2340   -0.7560   -0.5200 C   0  0  2  0  0  0  0  0  0  0  0  0
   -0.7470   -0.4570   -0.4960 C   0  0  0  0  0  0  0  0  0  0  0  0
   -0.4200    0.8070    0.2210 C   0  0  0  0  0  0  0  0  0  0  0  0
    1.0130    1.0070    0.1920 N   0  0  0  0  0  0  0  0  0  0  0  0
    1.9100    0.0730    0.7720 C   0  0  0  0  0  0  0  0  0  0  0  0
    1.5370   -0.9710    1.3410 O   0  0  0  0  0  0  0  0  0  0  0  0
    3.3720    0.3760    0.6830 C   0  0  1  0  0  0  0  0  0  0  0  0
    4.0140   -0.6850    1.3210 O   0  0  0  0  0  0  0  0  0  0  0  0
    3.8380    0.4590   -0.7270 C   0  0  0  0  0  0  0  0  0  0  0  0
    5.2920    0.7860   -0.8090 C   0  0  0  0  0  0  0  0  0  0  0  0
    6.2110   -0.2050   -0.1550 C   0  0  0  0  0  0  0  0  0  0  0  0
    6.0750   -1.4850   -0.6910 O   0  0  0  0  0  0  0  0  0  0  0  0
   -2.9760    0.1890   -1.3730 C   0  0  0  0  0  0  0  0  0  0  0  0
   -4.3420    0.5690   -0.8850 C   0  0  2  0  0  0  0  0  0  0  0  0
   -4.2810    1.8360   -0.2590 O   0  0  0  0  0  0  0  0  0  0  0  0
  1  2  2  0
  2  3  1  0
  2 18  1  0
  3  4  1  0
  4  5  1  0
  5  6  1  1
  5 17  1  0
  6  7  1  0
  7  8  1  0
  8  9  1  0
  9 10  2  0
  9 11  1  0
 11 12  1  1
 11 13  1  0
 13 14  1  0
 14 15  1  0
 15 16  1  0
 17 18  1  0
 18 19  1  1
M  CHG  1   4   1
M  END
