
     RDKit          3D

 12 13  0  0  0  0  0  0  0  0999 V2000
   -0.9490   -2.3040   -0.2030 C   0  0  0  0  0  0  0  0  0  0  0  0
   -1.0730   -0.8290   -0.4530 C   0  0  1  0  0  0  0  0  0  0  0  0
   -1.3310   -0.1400    0.8920 C   0  0  2  0  0  0  0  0  0  0  0  0
   -1.8230    1.2530    0.4750 C   0  0  0  0  0  0  0  0  0  0  0  0
   -0.7200    1.9550   -0.0870 N   0  0  0  0  0  0  0  0  0  0  0  0
    0.0570    1.2480   -1.0340 C   0  0  0  0  0  0  0  0  0  0  0  0
    0.3050   -0.1960   -0.7100 C   0  0  2  0  0  0  0  0  0  0  0  0
    0.9730   -0.8290   -1.7130 O   0  0  0  0  0  0  0  0  0  0  0  0
    0.8850   -0.3980    0.6610 C   0  0  1  0  0  0  0  0  0  0  0  0
    2.1970    0.2930    0.8640 C   0  0  0  0  0  0  0  0  0  0  0  0
    3.0960   -0.2590   -0.0790 O   0  0  0  0  0  0  0  0  0  0  0  0
   -0.1140    0.0170    1.5010 O   0  0  0  0  0  0  0  0  0  0  0  0
  2  1  1  1
  2  3  1  0
  2  7  1  0
  3  4  1  6
  3 12  1  0
  4  5  1  0
  5  6  1  0
  6  7  1  0
  7  8  1  6
  7  9  1  0
  9 10  1  6
  9 12  1  0
 10 11  1  0
M  CHG  1   5   1
M  END
