
     RDKit          3D

 16 17  0  0  0  0  0  0  0  0999 V2000
    1.4190   -2.2800   -0.1760 N   0  0  0  0  0  0  0  0  0  0  0  0
    1.7860   -1.1230    0.5760 C   0  0  1  0  0  0  0  0  0  0  0  0
    2.5710   -0.1080   -0.2620 C   0  0  0  0  0  0  0  0  0  0  0  0
    2.8210    1.0510    0.6670 C   0  0  0  0  0  0  0  0  0  0  0  0
    3.4290    2.0800    0.2770 O   0  0  0  0  0  0  0  0  0  0  0  0
    2.3530    0.9660    2.0140 N   0  0  0  0  0  0  0  0  0  0  0  0
    1.0970    0.3350    2.3710 C   0  0  0  0  0  0  0  0  0  0  0  0
    0.5790   -0.3800    1.1370 C   0  0  1  0  0  0  0  0  0  0  0  0
    0.2180    0.5720    0.2160 O   0  0  0  0  0  0  0  0  0  0  0  0
   -1.0670    0.5150   -0.2360 C   0  0  2  0  0  0  0  0  0  0  0  0
   -1.2140    0.2420   -1.7040 C   0  0  0  0  0  0  0  0  0  0  0  0
   -2.6570    0.0020   -2.0400 C   0  0  0  0  0  0  0  0  0  0  0  0
   -3.6270    0.4970   -1.0230 C   0  0  0  0  0  0  0  0  0  0  0  0
   -3.1290    1.7560   -0.5360 O   0  0  0  0  0  0  0  0  0  0  0  0
   -1.8870    1.7050    0.0780 C   0  0  0  0  0  0  0  0  0  0  0  0
   -1.5550    2.6450    0.8350 O   0  0  0  0  0  0  0  0  0  0  0  0
  2  1  1  6
  2  3  1  0
  2  8  1  0
  3  4  1  0
  4  5  2  0
  4  6  1  0
  6  7  1  0
  7  8  1  0
  8  9  1  6
 10  9  1  6
 10 11  1  0
 10 15  1  0
 11 12  1  0
 12 13  1  0
 13 14  1  0
 14 15  1  0
 15 16  2  0
M  CHG  1   1   1
M  END
