
     RDKit          3D

 16 17  0  0  0  0  0  0  0  0999 V2000
    3.6460    0.8060   -1.1860 N   0  0  0  0  0  0  0  0  0  0  0  0
    4.2020    0.4420    0.1100 C   0  0  0  0  0  0  0  0  0  0  0  0
    3.2890   -0.6600    0.6580 C   0  0  2  0  0  0  0  0  0  0  0  0
    3.3330   -1.7110   -0.2570 O   0  0  0  0  0  0  0  0  0  0  0  0
    1.8730   -0.0720    0.7110 C   0  0  0  0  0  0  0  0  0  0  0  0
    0.9570   -1.0040    1.0920 O   0  0  0  0  0  0  0  0  0  0  0  0
   -0.3370   -0.6620    1.2680 C   0  0  0  0  0  0  0  0  0  0  0  0
   -1.0930   -0.0570    0.1360 C   0  0  1  0  0  0  0  0  0  0  0  0
   -1.1400   -0.8980   -1.0880 C   0  0  0  0  0  0  0  0  0  0  0  0
   -2.4400   -0.8000   -1.6750 N   0  0  0  0  0  0  0  0  0  0  0  0
   -3.2780   -0.0590   -0.7870 C   0  0  0  0  0  0  0  0  0  0  0  0
   -2.6130   -0.0700    0.5400 C   0  0  1  0  0  0  0  0  0  0  0  0
   -2.8880   -1.1980    1.2640 O   0  0  0  0  0  0  0  0  0  0  0  0
   -2.6880    1.2010    1.3110 C   0  0  0  0  0  0  0  0  0  0  0  0
   -1.4930    1.8620    1.1990 O   0  0  0  0  0  0  0  0  0  0  0  0
   -0.9550    1.4030   -0.0290 C   0  0  0  0  0  0  0  0  0  0  0  0
  1  2  1  0
  2  3  1  0
  3  4  1  6
  3  5  1  0
  5  6  1  0
  6  7  1  0
  8  7  1  1
  8  9  1  0
  8 12  1  0
  8 16  1  0
  9 10  1  0
 10 11  1  0
 11 12  1  0
 12 13  1  1
 12 14  1  0
 14 15  1  0
 15 16  1  0
M  CHG  1  10   1
M  END
