
     RDKit          3D

 16 17  0  0  0  0  0  0  0  0999 V2000
   -2.4330   -1.0370    1.4730 C   0  0  0  0  0  0  0  0  0  0  0  0
   -2.1120   -0.2880    0.1920 C   0  0  1  0  0  0  0  0  0  0  0  0
   -3.2080    0.4570   -0.3310 O   0  0  0  0  0  0  0  0  0  0  0  0
   -3.0040    1.8190   -0.3560 C   0  0  0  0  0  0  0  0  0  0  0  0
   -4.0410    2.5800   -0.1170 O   0  0  0  0  0  0  0  0  0  0  0  0
   -1.6910    2.4080   -0.6140 C   0  0  0  0  0  0  0  0  0  0  0  0
   -0.7630    1.3560   -0.7870 O   0  0  0  0  0  0  0  0  0  0  0  0
   -0.8670    0.5440    0.3320 C   0  0  2  0  0  0  0  0  0  0  0  0
   -0.1050   -0.7980    0.1470 C   0  0  2  0  0  0  0  0  0  0  0  0
    1.0870   -0.6070   -0.7440 C   0  0  0  0  0  0  0  0  0  0  0  0
    2.1150    0.3340   -0.4320 C   0  0  0  0  0  0  0  0  0  0  0  0
    3.1290    0.2000    0.6530 C   0  0  0  0  0  0  0  0  0  0  0  0
    3.8440    1.4430    0.5120 O   0  0  0  0  0  0  0  0  0  0  0  0
    4.9930    1.2070   -0.1010 N   0  0  0  0  0  0  0  0  0  0  0  0
   -1.3420   -1.1050   -0.7680 C   0  0  1  0  0  0  0  0  0  0  0  0
   -1.6170   -2.4850   -0.9380 N   0  0  0  0  0  0  0  0  0  0  0  0
  2  1  1  1
  2  3  1  0
  2  8  1  0
  2 15  1  0
  3  4  1  0
  4  5  2  0
  4  6  1  0
  6  7  1  0
  8  7  1  6
  8  9  1  0
  9 10  1  6
  9 15  1  0
 10 11  1  0
 11 12  1  0
 12 13  1  0
 13 14  1  0
 15 16  1  1
M  CHG  1  16   1
M  END
