
     RDKit          3D

 16 17  0  0  0  0  0  0  0  0999 V2000
    0.0870   -2.5410   -0.7240 N   0  0  0  0  0  0  0  0  0  0  0  0
   -0.2640   -1.2040   -0.9770 C   0  0  0  0  0  0  0  0  0  0  0  0
   -0.5770   -0.8840   -2.1760 O   0  0  0  0  0  0  0  0  0  0  0  0
   -0.3030   -0.1290    0.0250 C   0  0  2  0  0  0  0  0  0  0  0  0
   -0.9570   -0.5280    1.2810 C   0  0  0  0  0  0  0  0  0  0  0  0
   -2.4300   -0.5880    0.9330 C   0  0  0  0  0  0  0  0  0  0  0  0
   -2.5750    0.0890   -0.4120 C   0  0  0  0  0  0  0  0  0  0  0  0
   -1.3550    0.9190   -0.4650 C   0  0  2  0  0  0  0  0  0  0  0  0
   -0.9330    1.2560   -1.7740 O   0  0  0  0  0  0  0  0  0  0  0  0
    0.1250    2.1530   -1.9970 C   0  0  0  0  0  0  0  0  0  0  0  0
    0.2060    2.6300   -3.1530 O   0  0  0  0  0  0  0  0  0  0  0  0
    1.1610    2.5910   -0.9870 C   0  0  0  0  0  0  0  0  0  0  0  0
    0.8430    1.9570    0.2430 O   0  0  0  0  0  0  0  0  0  0  0  0
    1.0370    0.5400    0.1110 C   0  0  1  0  0  0  0  0  0  0  0  0
    1.9130    0.0570    1.2060 C   0  0  0  0  0  0  0  0  0  0  0  0
    2.2720   -1.3340    1.1900 N   0  0  0  0  0  0  0  0  0  0  0  0
  1  2  1  0
  2  3  2  0
  4  2  1  6
  4  5  1  0
  4  8  1  0
  4 14  1  0
  5  6  1  0
  6  7  1  0
  8  7  1  6
  8  9  1  0
  9 10  1  0
 10 11  2  0
 10 12  1  0
 12 13  1  0
 13 14  1  0
 14 15  1  1
 15 16  1  0
M  CHG  1  16   1
M  END
