
     RDKit          3D

 16 17  0  0  0  0  0  0  0  0999 V2000
   -0.3380   -0.0530   -2.1970 C   0  0  0  0  0  0  0  0  0  0  0  0
   -0.7180   -0.1500   -0.7450 C   0  0  2  0  0  0  0  0  0  0  0  0
   -1.9520   -0.7240   -0.6420 O   0  0  0  0  0  0  0  0  0  0  0  0
   -2.8600    0.1530   -0.0500 C   0  0  1  0  0  0  0  0  0  0  0  0
   -4.1870   -0.5560    0.0140 C   0  0  0  0  0  0  0  0  0  0  0  0
   -5.2300    0.2440    0.6100 N   0  0  0  0  0  0  0  0  0  0  0  0
   -2.3230    0.5510    1.2790 C   0  0  0  0  0  0  0  0  0  0  0  0
   -1.2090    1.3600    1.0770 O   0  0  0  0  0  0  0  0  0  0  0  0
   -0.6790    1.2770   -0.1840 C   0  0  1  0  0  0  0  0  0  0  0  0
    0.8310    1.4770   -0.1410 C   0  0  0  0  0  0  0  0  0  0  0  0
    1.3340    0.1000    0.0800 C   0  0  1  0  0  0  0  0  0  0  0  0
    2.0460   -0.1530    1.1820 O   0  0  0  0  0  0  0  0  0  0  0  0
    3.2940   -0.6670    1.0840 C   0  0  0  0  0  0  0  0  0  0  0  0
    4.2560    0.2240    0.3110 C   0  0  0  0  0  0  0  0  0  0  0  0
    5.5780   -0.3730    0.2360 N   0  0  0  0  0  0  0  0  0  0  0  0
    0.2270   -0.7720    0.0390 O   0  0  0  0  0  0  0  0  0  0  0  0
  2  1  1  6
  2  3  1  0
  2  9  1  0
  2 16  1  0
  3  4  1  0
  4  5  1  1
  4  7  1  0
  5  6  1  0
  7  8  1  0
  8  9  1  0
  9 10  1  1
 10 11  1  0
 11 12  1  1
 11 16  1  0
 12 13  1  0
 13 14  1  0
 14 15  1  0
M  CHG  2   6   1  15   1
M  END
