
     RDKit          3D

 31 34  0  0  0  0  0  0  0  0999 V2000
   -6.3330    3.3730   -0.2940 C   0  0  0  0  0  0  0  0  0  0  0  0
   -5.7420    2.4020    0.7020 C   0  0  0  0  0  0  0  0  0  0  0  0
   -4.8810    1.4100   -0.1000 C   0  0  0  0  0  0  0  0  0  0  0  0
   -4.2580    0.3990    0.7910 C   0  0  0  0  0  0  0  0  0  0  0  0
   -3.4160   -0.6200    0.1760 C   0  0  0  0  0  0  0  0  0  0  0  0
   -3.9240   -1.7620   -0.3920 C   0  0  0  0  0  0  0  0  0  0  0  0
   -5.3490   -2.1440   -0.4640 C   0  0  0  0  0  0  0  0  0  0  0  0
   -6.1310   -1.5170   -1.5580 C   0  0  0  0  0  0  0  0  0  0  0  0
   -3.0290   -2.6800   -0.9630 C   0  0  0  0  0  0  0  0  0  0  0  0
   -1.6760   -2.4450   -0.9570 C   0  0  0  0  0  0  0  0  0  0  0  0
   -1.2060   -1.2830   -0.3750 C   0  0  0  0  0  0  0  0  0  0  0  0
   -2.0290   -0.3510    0.1980 C   0  0  0  0  0  0  0  0  0  0  0  0
   -1.2720    0.7690    0.7330 C   0  0  0  0  0  0  0  0  0  0  0  0
   -1.6810    1.7990    1.3220 O   0  0  0  0  0  0  0  0  0  0  0  0
    0.0990    0.4970    0.4660 N   0  0  0  0  0  0  0  0  0  0  0  0
    0.1840   -0.7580   -0.2150 C   0  0  0  0  0  0  0  0  0  0  0  0
    1.1580   -1.3950   -0.6430 N   0  0  0  0  0  0  0  0  0  0  0  0
    2.4160   -1.5170   -0.8200 N   0  0  0  0  0  0  0  0  0  0  0  0
    3.4290   -0.8180   -0.7700 C   0  0  0  0  0  0  0  0  0  0  0  0
    3.5980    0.9130   -0.3690 S   0  0  0  0  0  0  0  0  0  0  0  0
    5.3480    0.7980    0.1000 C   0  0  0  0  0  0  0  0  0  0  0  0
    6.0060    1.6150    0.8400 C   0  0  0  0  0  0  0  0  0  0  0  0
    7.4020    1.4420    1.1660 C   0  0  0  0  0  0  0  0  0  0  0  0
    8.0420    0.3130    1.6090 C   0  0  0  0  0  0  0  0  0  0  0  0
    9.4010    0.6110    1.7660 C   0  0  0  0  0  0  0  0  0  0  0  0
    9.5240    1.8810    1.4200 N   0  0  0  0  0  0  0  0  0  0  0  0
    8.3740    2.4070    1.0610 N   0  0  0  0  0  0  0  0  0  0  0  0
    5.7770   -0.3970   -0.5920 C   0  0  0  0  0  0  0  0  0  0  0  0
    7.0310   -0.6790   -0.7880 O   0  0  0  0  0  0  0  0  0  0  0  0
    4.7720   -1.2430   -1.0460 N   0  0  0  0  0  0  0  0  0  0  0  0
    5.0270   -2.5090   -1.7730 C   0  0  0  0  0  0  0  0  0  0  0  0
  1  2  1  0
  2  3  1  0
  3  4  1  0
  4  5  1  0
  5  6  2  0
  5 12  1  0
  6  7  1  0
  6  9  1  0
  7  8  1  0
  9 10  2  0
 10 11  1  0
 11 12  2  0
 11 16  1  0
 12 13  1  0
 13 14  2  0
 13 15  1  0
 15 16  1  0
 16 17  2  3
 17 18  1  0
 18 19  2  3
 19 20  1  0
 19 30  1  0
 20 21  1  0
 21 22  2  3
 21 28  1  0
 22 23  1  0
 23 24  2  0
 23 27  1  0
 24 25  1  0
 25 26  2  0
 26 27  1  0
 28 29  2  0
 28 30  1  0
 30 31  1  0
M  END
