
     RDKit          3D

 31 34  0  0  0  0  0  0  0  0999 V2000
   -3.4730    4.0990    2.3350 C   0  0  0  0  0  0  0  0  0  0  0  0
   -2.6080    3.1020    1.6980 C   0  0  0  0  0  0  0  0  0  0  0  0
   -2.4740    1.9010    2.2230 C   0  0  0  0  0  0  0  0  0  0  0  0
   -1.6410    0.9090    1.6280 N   0  0  0  0  0  0  0  0  0  0  0  0
   -0.2540    1.1710    1.4950 C   0  0  0  0  0  0  0  0  0  0  0  0
    0.1470    2.3080    1.9640 O   0  0  0  0  0  0  0  0  0  0  0  0
    0.7370    0.2650    0.8760 C   0  0  0  0  0  0  0  0  0  0  0  0
    0.0910   -0.9570    0.3920 C   0  0  0  0  0  0  0  0  0  0  0  0
    0.8210   -1.8840   -0.2110 C   0  0  0  0  0  0  0  0  0  0  0  0
    2.2310   -1.7990   -0.4410 C   0  0  0  0  0  0  0  0  0  0  0  0
    2.9030   -0.7760   -0.0590 N   0  0  0  0  0  0  0  0  0  0  0  0
    4.3060   -0.6900   -0.2870 C   0  0  0  0  0  0  0  0  0  0  0  0
    5.3220   -1.1740    0.0380 N   0  0  0  0  0  0  0  0  0  0  0  0
    6.5310   -0.8830   -0.3530 C   0  0  0  0  0  0  0  0  0  0  0  0
    7.7480   -1.6140    0.1710 C   0  0  0  0  0  0  0  0  0  0  0  0
    6.6610    0.1210   -1.2670 C   0  0  0  0  0  0  0  0  0  0  0  0
    7.8470    0.6970   -1.9120 C   0  0  0  0  0  0  0  0  0  0  0  0
    7.4990    1.7550   -2.8240 N   0  0  0  0  0  0  0  0  0  0  0  0
    4.9680    0.5970   -1.5120 S   0  0  0  0  0  0  0  0  0  0  0  0
   -1.3030   -1.1430    0.5680 N   0  0  0  0  0  0  0  0  0  0  0  0
   -2.1130   -0.3180    1.1230 C   0  0  0  0  0  0  0  0  0  0  0  0
   -3.5050   -0.6710    1.1830 C   0  0  0  0  0  0  0  0  0  0  0  0
   -4.1960   -0.7980   -0.0280 C   0  0  0  0  0  0  0  0  0  0  0  0
   -5.5130   -1.1590   -0.0320 C   0  0  0  0  0  0  0  0  0  0  0  0
   -6.1330   -1.3930    1.2000 C   0  0  0  0  0  0  0  0  0  0  0  0
   -5.4880   -1.2760    2.3680 N   0  0  0  0  0  0  0  0  0  0  0  0
   -4.1710   -0.9140    2.3460 C   0  0  0  0  0  0  0  0  0  0  0  0
   -3.6380   -0.8310    3.4850 O   0  0  0  0  0  0  0  0  0  0  0  0
   -6.0320   -1.2300   -1.4260 C   0  0  0  0  0  0  0  0  0  0  0  0
   -4.7600   -1.3600   -2.2360 C   0  0  0  0  0  0  0  0  0  0  0  0
   -3.7200   -0.5960   -1.4440 C   0  0  0  0  0  0  0  0  0  0  0  0
  1  2  1  0
  2  3  2  3
  3  4  1  0
  4  5  1  0
  4 21  1  0
  5  6  2  0
  5  7  1  0
  7  8  1  0
  8  9  2  3
  8 20  1  0
  9 10  1  0
 10 11  2  3
 11 12  1  0
 12 13  2  0
 12 19  1  0
 13 14  1  0
 14 15  1  0
 14 16  2  0
 16 17  1  0
 16 19  1  0
 17 18  1  0
 20 21  2  0
 21 22  1  0
 22 23  2  0
 22 27  1  0
 23 24  1  0
 23 31  1  0
 24 25  2  0
 24 29  1  0
 25 26  1  0
 26 27  1  0
 27 28  2  0
 29 30  1  0
 30 31  1  0
M  END
