
     RDKit          3D

 31 34  0  0  0  0  0  0  0  0999 V2000
   -4.4210   -3.9620    0.6760 C   0  0  0  0  0  0  0  0  0  0  0  0
   -4.8420   -2.6270    0.0980 C   0  0  0  0  0  0  0  0  0  0  0  0
   -4.5460   -1.5550    1.1540 C   0  0  0  0  0  0  0  0  0  0  0  0
   -4.9340   -0.2100    0.6570 C   0  0  0  0  0  0  0  0  0  0  0  0
   -6.1400    0.3840    0.7990 N   0  0  0  0  0  0  0  0  0  0  0  0
   -6.1080    1.6050    0.2140 C   0  0  0  0  0  0  0  0  0  0  0  0
   -7.0540    2.5850    0.0830 C   0  0  0  0  0  0  0  0  0  0  0  0
   -6.6960    3.7380   -0.5840 C   0  0  0  0  0  0  0  0  0  0  0  0
   -5.4420    3.9490   -1.1220 C   0  0  0  0  0  0  0  0  0  0  0  0
   -4.5090    2.9440   -0.9760 C   0  0  0  0  0  0  0  0  0  0  0  0
   -4.8470    1.7840   -0.3120 C   0  0  0  0  0  0  0  0  0  0  0  0
   -4.1550    0.6500   -0.0210 N   0  0  0  0  0  0  0  0  0  0  0  0
   -2.7790    0.4090   -0.3890 C   0  0  0  0  0  0  0  0  0  0  0  0
   -1.8940    0.9180    0.7300 C   0  0  0  0  0  0  0  0  0  0  0  0
   -0.4690    0.7170    0.4500 C   0  0  0  0  0  0  0  0  0  0  0  0
    0.3870   -0.3490    0.7320 C   0  0  0  0  0  0  0  0  0  0  0  0
    1.6220   -0.2680    0.3740 N   0  0  0  0  0  0  0  0  0  0  0  0
    2.1480    0.7590   -0.2480 C   0  0  0  0  0  0  0  0  0  0  0  0
    3.2560    1.0800   -0.6870 N   0  0  0  0  0  0  0  0  0  0  0  0
    4.4560    0.3710   -0.6610 C   0  0  0  0  0  0  0  0  0  0  0  0
    4.7750   -0.2590   -1.7260 O   0  0  0  0  0  0  0  0  0  0  0  0
    5.3240    0.3360    0.5230 C   0  0  0  0  0  0  0  0  0  0  0  0
    6.5140   -0.4990    0.2230 C   0  0  0  0  0  0  0  0  0  0  0  0
    6.6010   -1.7720    0.7340 C   0  0  0  0  0  0  0  0  0  0  0  0
    7.7070   -2.5850    0.4720 C   0  0  0  0  0  0  0  0  0  0  0  0
    7.8030   -3.7420    0.9270 O   0  0  0  0  0  0  0  0  0  0  0  0
    8.6890   -2.0890   -0.2960 N   0  0  0  0  0  0  0  0  0  0  0  0
    8.5950   -0.8760   -0.7760 N   0  0  0  0  0  0  0  0  0  0  0  0
    7.5530   -0.0470   -0.5560 C   0  0  0  0  0  0  0  0  0  0  0  0
    7.5040    1.3080   -1.1240 C   0  0  0  0  0  0  0  0  0  0  0  0
    0.6560    1.8550   -0.3800 S   0  0  0  0  0  0  0  0  0  0  0  0
  1  2  1  0
  2  3  1  0
  3  4  1  0
  4  5  2  0
  4 12  1  0
  5  6  1  0
  6  7  2  0
  6 11  1  0
  7  8  1  0
  8  9  2  0
  9 10  1  0
 10 11  2  0
 11 12  1  0
 12 13  1  0
 13 14  1  0
 14 15  1  0
 15 16  2  0
 15 31  1  0
 16 17  1  0
 17 18  1  0
 18 19  2  3
 18 31  1  0
 19 20  1  0
 20 21  2  0
 20 22  1  0
 22 23  1  0
 23 24  2  0
 23 29  1  0
 24 25  1  0
 25 26  2  0
 25 27  1  0
 27 28  1  0
 28 29  2  0
 29 30  1  0
M  END
