
     RDKit          3D

 30 31  0  0  0  0  0  0  0  0999 V2000
    6.1640   -3.1380   -0.6120 C   0  0  0  0  0  0  0  0  0  0  0  0
    7.1100   -2.9410   -1.4930 C   0  0  0  0  0  0  0  0  0  0  0  0
    8.4210   -3.4550   -1.2350 O   0  0  0  0  0  0  0  0  0  0  0  0
    6.9230   -2.2320   -2.7220 C   0  0  0  0  0  0  0  0  0  0  0  0
    5.8700   -1.7160   -3.1200 N   0  0  0  0  0  0  0  0  0  0  0  0
    4.5860   -1.6100   -2.6260 C   0  0  0  0  0  0  0  0  0  0  0  0
    4.2150   -0.4240   -2.0240 C   0  0  0  0  0  0  0  0  0  0  0  0
    5.2590    0.6170   -1.9780 C   0  0  0  0  0  0  0  0  0  0  0  0
    2.8810   -0.3410   -1.5200 C   0  0  0  0  0  0  0  0  0  0  0  0
    2.1860    0.5630   -0.9170 C   0  0  0  0  0  0  0  0  0  0  0  0
    2.5910    1.8960   -0.5280 C   0  0  0  0  0  0  0  0  0  0  0  0
    3.6680    2.5350   -0.6700 O   0  0  0  0  0  0  0  0  0  0  0  0
    1.4610    2.4690    0.1260 N   0  0  0  0  0  0  0  0  0  0  0  0
    0.3980    1.5530    0.1490 C   0  0  0  0  0  0  0  0  0  0  0  0
   -0.8790    1.8420    0.7450 C   0  0  0  0  0  0  0  0  0  0  0  0
   -1.0480    2.9970    1.2790 O   0  0  0  0  0  0  0  0  0  0  0  0
   -2.0160    1.0220    0.8380 N   0  0  0  0  0  0  0  0  0  0  0  0
   -3.2340    1.4630    1.4730 C   0  0  2  0  0  0  0  0  0  0  0  0
   -4.2310    0.3690    1.3960 C   0  0  0  0  0  0  0  0  0  0  0  0
   -3.9400   -0.7090    0.8460 O   0  0  0  0  0  0  0  0  0  0  0  0
   -5.5080    0.4980    1.9250 O   0  0  0  0  0  0  0  0  0  0  0  0
   -6.4410   -0.5650    1.8370 C   0  0  0  0  0  0  0  0  0  0  0  0
   -6.7240   -0.9320    0.4050 C   0  0  0  0  0  0  0  0  0  0  0  0
   -3.8120    2.7080    0.9000 C   0  0  0  0  0  0  0  0  0  0  0  0
   -4.3830    3.5000    2.0560 C   0  0  0  0  0  0  0  0  0  0  0  0
   -3.7690    2.9440    3.3130 C   0  0  0  0  0  0  0  0  0  0  0  0
   -2.9950    1.7250    2.9450 C   0  0  0  0  0  0  0  0  0  0  0  0
    0.7710    0.4260   -0.4490 C   0  0  0  0  0  0  0  0  0  0  0  0
   -0.2900   -0.9590   -0.7190 S   0  0  0  0  0  0  0  0  0  0  0  0
    0.1020   -2.1230   -1.9700 C   0  0  0  0  0  0  0  0  0  0  0  0
  1  2  2  0
  2  3  1  0
  2  4  1  0
  4  5  2  3
  5  6  1  0
  6  7  2  3
  7  8  1  0
  7  9  1  0
  9 10  2  3
 10 11  1  0
 10 28  1  0
 11 12  2  0
 11 13  1  0
 13 14  1  0
 14 15  1  0
 14 28  2  0
 15 16  2  0
 15 17  1  0
 18 17  1  6
 18 19  1  0
 18 24  1  0
 18 27  1  0
 19 20  2  0
 19 21  1  0
 21 22  1  0
 22 23  1  0
 24 25  1  0
 25 26  1  0
 26 27  1  0
 28 29  1  0
 29 30  1  0
M  END
