
     RDKit          3D

 11 11  0  0  0  0  0  0  0  0999 V2000
    2.5610    0.0890    1.6500 C   0  0  0  0  0  0  0  0  0  0  0  0
    1.7280   -0.9770    1.1350 N   0  0  0  0  0  0  0  0  0  0  0  0
    0.5550   -0.7270    0.3780 C   0  0  0  0  0  0  0  0  0  0  0  0
   -0.2300   -1.7510   -0.1050 C   0  0  0  0  0  0  0  0  0  0  0  0
   -1.3510   -1.4100   -0.8310 C   0  0  0  0  0  0  0  0  0  0  0  0
   -1.6890   -0.0960   -1.0730 C   0  0  0  0  0  0  0  0  0  0  0  0
   -2.8360    0.2100   -1.8140 O   0  0  0  0  0  0  0  0  0  0  0  0
   -0.9130    0.9340   -0.5950 C   0  0  0  0  0  0  0  0  0  0  0  0
   -1.2490    2.3350   -0.8370 C   0  0  0  0  0  0  0  0  0  0  0  0
   -0.5560    3.2810   -0.4100 O   0  0  0  0  0  0  0  0  0  0  0  0
    0.2180    0.6010    0.1370 C   0  0  0  0  0  0  0  0  0  0  0  0
  1  2  1  0
  2  3  1  0
  3  4  2  0
  3 11  1  0
  4  5  1  0
  5  6  2  0
  6  7  1  0
  6  8  1  0
  8  9  1  0
  8 11  2  0
  9 10  2  0
M  END
