
     RDKit          3D

 11 11  0  0  0  0  0  0  0  0999 V2000
   -0.5940    2.2350   -0.5760 C   0  0  0  0  0  0  0  0  0  0  0  0
    0.3270    1.5150    0.1230 O   0  0  0  0  0  0  0  0  0  0  0  0
    0.0530    0.2070    0.3890 C   0  0  1  0  0  0  0  0  0  0  0  0
    1.1980   -0.4070    1.1960 C   0  0  0  0  0  0  0  0  0  0  0  0
    2.4740   -0.3350    0.4440 C   0  0  0  0  0  0  0  0  0  0  0  0
    2.5760    0.2370   -0.8530 N   0  0  0  0  0  0  0  0  0  0  0  0
    3.4900   -0.8120    1.0110 O   0  0  0  0  0  0  0  0  0  0  0  0
   -1.1920   -0.0520    1.1860 C   0  0  0  0  0  0  0  0  0  0  0  0
   -1.6790   -1.3720    0.6210 C   0  0  0  0  0  0  0  0  0  0  0  0
   -1.5660   -1.0390   -0.8760 C   0  0  0  0  0  0  0  0  0  0  0  0
   -0.1180   -0.5930   -0.9030 C   0  0  0  0  0  0  0  0  0  0  0  0
  1  2  1  0
  2  3  1  0
  3  4  1  1
  3  8  1  0
  3 11  1  0
  4  5  1  0
  5  6  1  0
  5  7  2  0
  8  9  1  0
  9 10  1  0
 10 11  1  0
M  END
