
     RDKit          3D

 18 20  0  0  0  0  0  0  0  0999 V2000
   -2.9260    2.7030   -0.4980 N   0  0  0  0  0  0  0  0  0  0  0  0
   -2.6070    1.3710   -0.0740 C   0  0  0  0  0  0  0  0  0  0  0  0
   -1.4920    0.7910   -0.5440 N   0  0  0  0  0  0  0  0  0  0  0  0
   -1.1630   -0.4570   -0.1730 C   0  0  0  0  0  0  0  0  0  0  0  0
   -0.1040   -1.2720   -0.5000 C   0  0  0  0  0  0  0  0  0  0  0  0
    1.0500   -0.9730   -1.3980 C   0  0  0  0  0  0  0  0  0  0  0  0
    2.0190   -0.1210   -0.6730 C   0  0  0  0  0  0  0  0  0  0  0  0
    3.0550   -0.6950    0.0510 C   0  0  0  0  0  0  0  0  0  0  0  0
    3.9730    0.0780    0.7360 C   0  0  0  0  0  0  0  0  0  0  0  0
    3.8430    1.4420    0.6900 C   0  0  0  0  0  0  0  0  0  0  0  0
    2.8370    1.9900   -0.0120 N   0  0  0  0  0  0  0  0  0  0  0  0
    1.9180    1.2500   -0.6980 C   0  0  0  0  0  0  0  0  0  0  0  0
   -0.3120   -2.4470    0.1910 C   0  0  0  0  0  0  0  0  0  0  0  0
   -1.4620   -2.3370    0.9100 N   0  0  0  0  0  0  0  0  0  0  0  0
   -2.0190   -1.1190    0.7110 C   0  0  0  0  0  0  0  0  0  0  0  0
   -3.1540   -0.5070    1.1800 C   0  0  0  0  0  0  0  0  0  0  0  0
   -3.9310   -1.0850    1.9720 O   0  0  0  0  0  0  0  0  0  0  0  0
   -3.4360    0.7370    0.7790 N   0  0  0  0  0  0  0  0  0  0  0  0
  1  2  1  0
  2  3  2  0
  2 18  1  0
  3  4  1  0
  4  5  1  0
  4 15  2  0
  5  6  1  0
  5 13  2  0
  6  7  1  0
  7  8  2  0
  7 12  1  0
  8  9  1  0
  9 10  2  0
 10 11  1  0
 11 12  2  0
 13 14  1  0
 14 15  1  0
 15 16  1  0
 16 17  2  0
 16 18  1  0
M  END
