
     RDKit          3D

 10 10  0  0  0  0  0  0  0  0999 V2000
    2.7670    0.3250   -0.3230 C   0  0  0  0  0  0  0  0  0  0  0  0
    2.1570   -0.9990   -0.2660 C   0  0  0  0  0  0  0  0  0  0  0  0
    0.7730   -1.2370    0.0350 C   0  0  0  0  0  0  0  0  0  0  0  0
    0.4550   -2.5310    0.1900 O   0  0  0  0  0  0  0  0  0  0  0  0
   -0.3730   -0.4060    0.2130 C   0  0  0  0  0  0  0  0  0  0  0  0
   -0.4920    0.8870    0.1380 C   0  0  0  0  0  0  0  0  0  0  0  0
    0.4310    1.8820   -0.1340 O   0  0  0  0  0  0  0  0  0  0  0  0
   -1.9170    1.2790    0.4130 C   0  0  0  0  0  0  0  0  0  0  0  0
   -2.6460    0.0480   -0.0740 C   0  0  0  0  0  0  0  0  0  0  0  0
   -1.7450   -1.0030    0.5410 C   0  0  0  0  0  0  0  0  0  0  0  0
  1  2  1  0
  2  3  1  0
  3  4  2  0
  3  5  1  0
  5  6  2  0
  5 10  1  0
  6  7  1  0
  6  8  1  0
  8  9  1  0
  9 10  1  0
M  END
