
     RDKit          3D

 38 41  0  0  0  0  0  0  0  0999 V2000
    9.5340   -1.8830    2.2870 C   0  0  0  0  0  0  0  0  0  0  0  0
    8.8200   -1.1740    1.3280 O   0  0  0  0  0  0  0  0  0  0  0  0
    9.3740   -0.6080    0.1920 C   0  0  0  0  0  0  0  0  0  0  0  0
   10.7170   -0.7170   -0.0630 C   0  0  0  0  0  0  0  0  0  0  0  0
   11.2650   -0.1550   -1.1900 C   0  0  0  0  0  0  0  0  0  0  0  0
   10.4800    0.5280   -2.0820 C   0  0  0  0  0  0  0  0  0  0  0  0
    9.1200    0.6230   -1.7960 C   0  0  0  0  0  0  0  0  0  0  0  0
    8.5600    0.0710   -0.6850 C   0  0  0  0  0  0  0  0  0  0  0  0
    7.2120    0.1040   -0.2960 N   0  0  0  0  0  0  0  0  0  0  0  0
    6.2140    0.5010   -1.0980 C   0  0  0  0  0  0  0  0  0  0  0  0
    6.4430    0.8950   -2.3340 O   0  0  0  0  0  0  0  0  0  0  0  0
    4.8820    0.5830   -0.8710 N   0  0  0  0  0  0  0  0  0  0  0  0
    3.5650    0.7140   -0.8000 C   0  0  0  0  0  0  0  0  0  0  0  0
    3.1370    1.1460   -1.9650 O   0  0  0  0  0  0  0  0  0  0  0  0
    2.6250    0.5100    0.1540 N   0  0  0  0  0  0  0  0  0  0  0  0
    1.2630    0.7650   -0.1350 C   0  0  0  0  0  0  0  0  0  0  0  0
    0.7480    1.2130   -1.3160 N   0  0  0  0  0  0  0  0  0  0  0  0
   -0.5540    1.3240   -1.1890 N   0  0  0  0  0  0  0  0  0  0  0  0
   -0.9160    0.9580    0.0500 C   0  0  0  0  0  0  0  0  0  0  0  0
   -2.2070    0.9130    0.6290 N   0  0  0  0  0  0  0  0  0  0  0  0
   -2.3400    0.5250    2.0070 C   0  0  0  0  0  0  0  0  0  0  0  0
   -2.9520   -0.8230    2.1990 C   0  0  1  0  0  0  0  0  0  0  0  0
   -3.9810   -0.8530    3.2930 C   0  0  0  0  0  0  0  0  0  0  0  0
   -3.7970   -1.2920    0.6430 S   0  0  0  0  0  0  0  0  0  0  0  0
   -4.4780    0.2780   -0.0300 C   0  0  2  0  0  0  0  0  0  0  0  0
   -5.1480   -0.0470   -1.3040 C   0  0  1  0  0  0  0  0  0  0  0  0
   -4.3060   -0.6770   -2.3540 C   0  0  0  0  0  0  0  0  0  0  0  0
   -3.2400    0.0580   -2.7870 O   0  0  0  0  0  0  0  0  0  0  0  0
   -6.3430   -0.9800   -1.0620 C   0  0  0  0  0  0  0  0  0  0  0  0
   -7.3180   -0.3080   -0.1710 C   0  0  2  0  0  0  0  0  0  0  0  0
   -8.4580   -1.2350    0.0250 N   0  0  0  0  0  0  0  0  0  0  0  0
   -9.2830   -0.5740    0.9750 N   0  0  0  0  0  0  0  0  0  0  0  0
   -9.3520    1.0080    0.2270 S   0  0  2  0  0  0  0  0  0  0  0  0
   -9.1980    2.0830    1.2390 O   0  0  0  0  0  0  0  0  0  0  0  0
  -10.5580    1.1450   -0.6240 O   0  0  0  0  0  0  0  0  0  0  0  0
   -7.8980    0.8940   -0.7440 N   0  0  0  0  0  0  0  0  0  0  0  0
   -3.3720    1.2530   -0.1580 C   0  0  0  0  0  0  0  0  0  0  0  0
    0.2510    0.6170    0.6760 N   0  0  0  0  0  0  0  0  0  0  0  0
  1  2  1  0
  2  3  1  0
  3  4  2  0
  3  8  1  0
  4  5  1  0
  5  6  2  0
  6  7  1  0
  7  8  2  0
  8  9  1  0
  9 10  1  0
 10 11  2  0
 10 12  1  0
 12 13  1  0
 13 14  2  0
 13 15  1  0
 15 16  1  0
 16 17  2  0
 16 38  1  0
 17 18  1  0
 18 19  1  0
 19 20  1  0
 19 38  2  0
 20 21  1  0
 20 37  1  0
 21 22  1  0
 22 23  1  1
 22 24  1  0
 24 25  1  0
 25 26  1  0
 25 37  1  6
 26 27  1  6
 26 29  1  0
 27 28  1  0
 30 29  1  6
 30 31  1  0
 30 36  1  0
 31 32  1  0
 33 32  1  1
 33 34  2  0
 33 35  2  0
 33 36  1  0
M  END
