
     RDKit          3D

 38 40  0  0  0  0  0  0  0  0999 V2000
   -6.7230    2.8710   -4.4940 C   0  0  0  0  0  0  0  0  0  0  0  0
   -5.3450    3.1000   -4.4060 O   0  0  0  0  0  0  0  0  0  0  0  0
   -4.6510    2.6210   -3.2960 C   0  0  0  0  0  0  0  0  0  0  0  0
   -3.2750    2.8280   -3.1680 C   0  0  0  0  0  0  0  0  0  0  0  0
   -2.5650    2.3690   -2.0880 C   0  0  0  0  0  0  0  0  0  0  0  0
   -3.2110    1.6840   -1.0950 C   0  0  0  0  0  0  0  0  0  0  0  0
   -2.3930    1.0430    0.3380 S   0  0  2  0  0  0  0  0  0  0  0  0
   -3.3260    1.2730    1.4830 O   0  0  0  0  0  0  0  0  0  0  0  0
   -1.1780    1.9210    0.6350 O   0  0  0  0  0  0  0  0  0  0  0  0
   -1.8870   -0.5200    0.1900 N   0  0  0  0  0  0  0  0  0  0  0  0
   -2.7570   -1.5780   -0.0310 C   0  0  0  0  0  0  0  0  0  0  0  0
   -3.1800   -2.4210    1.1370 C   0  0  2  0  0  0  0  0  0  0  0  0
   -4.1120   -3.4960    0.5860 C   0  0  0  0  0  0  0  0  0  0  0  0
   -3.9580   -1.6770    2.1920 C   0  0  0  0  0  0  0  0  0  0  0  0
   -0.5380   -0.8360    0.5260 C   0  0  0  0  0  0  0  0  0  0  0  0
    0.3070   -0.7870   -0.7270 C   0  0  1  0  0  0  0  0  0  0  0  0
    0.1730    0.5650   -1.1560 O   0  0  0  0  0  0  0  0  0  0  0  0
    1.7480   -1.0970   -0.4860 C   0  0  2  0  0  0  0  0  0  0  0  0
    2.1110   -2.5300   -0.5360 C   0  0  0  0  0  0  0  0  0  0  0  0
    1.4710   -3.4520    0.3860 C   0  0  0  0  0  0  0  0  0  0  0  0
    0.3350   -4.1620   -0.0070 C   0  0  0  0  0  0  0  0  0  0  0  0
   -0.2960   -5.0410    0.8410 C   0  0  0  0  0  0  0  0  0  0  0  0
    0.1670   -5.2610    2.1170 C   0  0  0  0  0  0  0  0  0  0  0  0
    1.2850   -4.5730    2.5270 C   0  0  0  0  0  0  0  0  0  0  0  0
    1.9190   -3.6850    1.6650 C   0  0  0  0  0  0  0  0  0  0  0  0
    2.3530   -0.3220    0.5660 N   0  0  0  0  0  0  0  0  0  0  0  0
    3.3640    0.6370    0.3010 C   0  0  0  0  0  0  0  0  0  0  0  0
    3.7660    0.8420   -0.8740 O   0  0  0  0  0  0  0  0  0  0  0  0
    3.9690    1.4000    1.2890 O   0  0  0  0  0  0  0  0  0  0  0  0
    4.9610    2.3310    0.9850 C   0  0  2  0  0  0  0  0  0  0  0  0
    6.1990    1.9350    1.7720 C   0  0  0  0  0  0  0  0  0  0  0  0
    7.1420    3.1180    1.7090 C   0  0  0  0  0  0  0  0  0  0  0  0
    7.2910    3.4320    0.3540 O   0  0  0  0  0  0  0  0  0  0  0  0
    6.3070    4.3210   -0.0750 C   0  0  0  0  0  0  0  0  0  0  0  0
    5.4330    4.6900    0.9050 O   0  0  0  0  0  0  0  0  0  0  0  0
    4.6060    3.7360    1.4120 C   0  0  0  0  0  0  0  0  0  0  0  0
   -4.5660    1.4770   -1.2150 C   0  0  0  0  0  0  0  0  0  0  0  0
   -5.2920    1.9310   -2.2920 C   0  0  0  0  0  0  0  0  0  0  0  0
  1  2  1  0
  2  3  1  0
  3  4  2  0
  3 38  1  0
  4  5  1  0
  5  6  2  0
  6  7  1  0
  6 37  1  0
  7  8  2  0
  7  9  2  0
  7 10  1  6
 10 11  1  0
 10 15  1  0
 11 12  1  0
 12 13  1  6
 12 14  1  0
 15 16  1  0
 16 17  1  1
 16 18  1  0
 18 19  1  1
 18 26  1  0
 19 20  1  0
 20 21  2  0
 20 25  1  0
 21 22  1  0
 22 23  2  0
 23 24  1  0
 24 25  2  0
 26 27  1  0
 27 28  2  0
 27 29  1  0
 30 29  1  1
 30 31  1  0
 30 36  1  0
 31 32  1  0
 32 33  1  0
 33 34  1  0
 34 35  1  0
 35 36  1  0
 37 38  2  0
M  END
