
     RDKit          3D

 38 42  0  0  0  0  0  0  0  0999 V2000
   -2.8190   -0.0550   -1.5700 O   0  0  0  0  0  0  0  0  0  0  0  0
   -3.2020    0.1670   -0.3910 C   0  0  0  0  0  0  0  0  0  0  0  0
   -4.4960    0.6990   -0.2410 N   0  0  0  0  0  0  0  0  0  0  0  0
   -5.3750    0.9940   -1.3580 C   0  0  1  0  0  0  0  0  0  0  0  0
   -6.4980   -0.0390   -1.3230 C   0  0  0  0  0  0  0  0  0  0  0  0
   -7.8880    0.6890   -0.4370 S   0  0  0  0  0  0  0  0  0  0  0  0
   -8.5110   -0.3370    0.4980 O   0  0  0  0  0  0  0  0  0  0  0  0
   -7.2450    1.9370    0.5190 O   0  0  0  0  0  0  0  0  0  0  0  0
   -6.6220    2.9030   -0.2630 C   0  0  0  0  0  0  0  0  0  0  0  0
   -5.8540    2.3970   -1.4200 C   0  0  2  0  0  0  0  0  0  0  0  0
   -6.5780    2.5380   -2.6110 O   0  0  0  0  0  0  0  0  0  0  0  0
   -2.3050   -0.1350    0.7180 C   0  0  0  0  0  0  0  0  0  0  0  0
   -1.0650   -0.6890    0.4750 C   0  0  0  0  0  0  0  0  0  0  0  0
   -0.1580   -1.0000    1.4760 C   0  0  0  0  0  0  0  0  0  0  0  0
    1.1350   -1.5930    1.1950 C   0  0  0  0  0  0  0  0  0  0  0  0
    2.2700   -1.1850    1.9230 N   0  0  0  0  0  0  0  0  0  0  0  0
    2.6810    0.4540    2.2190 S   0  0  1  0  0  0  0  0  0  0  0  0
    1.4260    1.2670    2.3480 O   0  0  0  0  0  0  0  0  0  0  0  0
    3.4780    0.5970    3.5020 O   0  0  0  0  0  0  0  0  0  0  0  0
    3.6800    1.0070    0.9300 N   0  0  0  0  0  0  0  0  0  0  0  0
    5.0820    0.8180    0.9950 C   0  0  0  0  0  0  0  0  0  0  0  0
    5.7420    0.2280    1.9960 N   0  0  0  0  0  0  0  0  0  0  0  0
    7.0380    0.2020    1.7700 N   0  0  0  0  0  0  0  0  0  0  0  0
    7.2490    0.7900    0.5860 C   0  0  0  0  0  0  0  0  0  0  0  0
    8.3810    1.0540   -0.1640 C   0  0  0  0  0  0  0  0  0  0  0  0
    8.2970    1.6800   -1.3540 N   0  0  0  0  0  0  0  0  0  0  0  0
    7.1180    2.0830   -1.8820 C   0  0  0  0  0  0  0  0  0  0  0  0
    5.9690    1.8350   -1.1600 C   0  0  0  0  0  0  0  0  0  0  0  0
    6.0300    1.1970    0.0600 C   0  0  0  0  0  0  0  0  0  0  0  0
    1.2590   -2.5150    0.2670 C   0  0  0  0  0  0  0  0  0  0  0  0
    0.1880   -3.0070   -0.5260 N   0  0  0  0  0  0  0  0  0  0  0  0
    0.3350   -3.9140   -1.4290 C   0  0  0  0  0  0  0  0  0  0  0  0
    1.6180   -4.4710   -1.6700 N   0  0  0  0  0  0  0  0  0  0  0  0
    2.7120   -4.0000   -0.8950 C   0  0  0  0  0  0  0  0  0  0  0  0
    2.5480   -3.1000   -0.0030 N   0  0  0  0  0  0  0  0  0  0  0  0
   -0.5210   -0.7370    2.7930 C   0  0  0  0  0  0  0  0  0  0  0  0
   -1.7590   -0.1850    3.0110 C   0  0  0  0  0  0  0  0  0  0  0  0
   -2.6170    0.1040    2.0010 N   0  0  0  0  0  0  0  0  0  0  0  0
  1  2  2  0
  2  3  1  0
  2 12  1  0
  4  3  1  1
  4  5  1  0
  4 10  1  0
  6  5  1  1
  6  7  2  0
  6  8  1  0
  8  9  1  0
  9 10  1  0
 10 11  1  6
 12 13  2  0
 12 38  1  0
 13 14  1  0
 14 15  1  0
 14 36  2  0
 15 16  1  0
 15 30  2  3
 17 16  1  6
 17 18  2  0
 17 19  2  0
 17 20  1  0
 20 21  1  0
 21 22  2  0
 21 29  1  0
 22 23  1  0
 23 24  1  0
 24 25  2  0
 24 29  1  0
 25 26  1  0
 26 27  2  0
 27 28  1  0
 28 29  2  0
 30 31  1  0
 30 35  1  0
 31 32  2  0
 32 33  1  0
 33 34  1  0
 34 35  2  0
 36 37  1  0
 37 38  2  0
M  END
