
     RDKit          3D

 25 26  0  0  0  0  0  0  0  0999 V2000
   -3.8850    2.2740    0.7480 C   0  0  0  0  0  0  0  0  0  0  0  0
   -3.5410    0.8770    1.1530 C   0  0  0  0  0  0  0  0  0  0  0  0
   -2.9030    0.0480    0.0670 C   0  0  1  0  0  0  0  0  0  0  0  0
   -3.8670   -0.0410   -1.0860 C   0  0  0  0  0  0  0  0  0  0  0  0
   -5.1820   -0.6770   -0.7140 C   0  0  0  0  0  0  0  0  0  0  0  0
   -5.9610   -0.6880   -1.8900 O   0  0  0  0  0  0  0  0  0  0  0  0
   -1.6760    0.7700   -0.4300 C   0  0  0  0  0  0  0  0  0  0  0  0
   -0.5700    0.6970    0.6260 C   0  0  0  0  0  0  0  0  0  0  0  0
    0.3090   -0.3330    0.2190 N   0  0  0  0  0  0  0  0  0  0  0  0
    1.6960   -0.0410    0.2430 C   0  0  0  0  0  0  0  0  0  0  0  0
    2.1290    0.9770   -0.7750 C   0  0  0  0  0  0  0  0  0  0  0  0
    3.4960    1.2680   -0.7570 O   0  0  0  0  0  0  0  0  0  0  0  0
    4.5010    0.3460   -0.9880 C   0  0  0  0  0  0  0  0  0  0  0  0
    4.1720   -0.8240   -1.2330 O   0  0  0  0  0  0  0  0  0  0  0  0
    5.9130    0.7170   -0.9500 C   0  0  0  0  0  0  0  0  0  0  0  0
    6.9960   -0.1030   -1.1680 C   0  0  0  0  0  0  0  0  0  0  0  0
    8.1070    0.7030   -1.0210 C   0  0  0  0  0  0  0  0  0  0  0  0
    7.7060    1.9370   -0.7310 O   0  0  0  0  0  0  0  0  0  0  0  0
    6.3950    1.9740   -0.6820 C   0  0  0  0  0  0  0  0  0  0  0  0
   -0.0660   -1.6610    0.4910 C   0  0  1  0  0  0  0  0  0  0  0  0
    0.5270   -2.1000    1.8370 C   0  0  0  0  0  0  0  0  0  0  0  0
    0.1040   -3.4290    2.0280 O   0  0  0  0  0  0  0  0  0  0  0  0
   -1.4640   -2.0140    0.4920 C   0  0  0  0  0  0  0  0  0  0  0  0
   -1.6610   -3.2760    0.3890 O   0  0  0  0  0  0  0  0  0  0  0  0
   -2.6280   -1.2490    0.5830 N   0  0  0  0  0  0  0  0  0  0  0  0
  1  2  1  0
  3  2  1  1
  3  4  1  0
  3  7  1  0
  3 25  1  0
  4  5  1  0
  5  6  1  0
  7  8  1  0
  8  9  1  0
  9 10  1  0
  9 20  1  0
 10 11  1  0
 11 12  1  0
 12 13  1  0
 13 14  2  0
 13 15  1  0
 15 16  1  0
 15 19  2  0
 16 17  2  0
 17 18  1  0
 18 19  1  0
 20 21  1  1
 20 23  1  0
 21 22  1  0
 23 24  2  0
 23 25  1  0
M  END
