
     RDKit          3D

 25 26  0  0  0  0  0  0  0  0999 V2000
    7.5840    0.6540    1.0420 C   0  0  0  0  0  0  0  0  0  0  0  0
    6.4390    1.5030    0.9890 O   0  0  0  0  0  0  0  0  0  0  0  0
    5.1900    0.9780    0.7280 C   0  0  0  0  0  0  0  0  0  0  0  0
    5.0660   -0.2410    0.5380 O   0  0  0  0  0  0  0  0  0  0  0  0
    4.0770    1.7720    0.6720 O   0  0  0  0  0  0  0  0  0  0  0  0
    2.7700    1.3560    0.4170 C   0  0  0  0  0  0  0  0  0  0  0  0
    2.6650    0.7090   -0.9270 C   0  0  0  0  0  0  0  0  0  0  0  0
    1.2290    0.2870   -1.1320 N   0  0  0  0  0  0  0  0  0  0  0  0
    0.3380    1.2010   -1.7410 C   0  0  0  0  0  0  0  0  0  0  0  0
   -0.7970    1.7800   -1.4430 C   0  0  0  0  0  0  0  0  0  0  0  0
   -1.7170    1.7790   -0.3500 C   0  0  0  0  0  0  0  0  0  0  0  0
   -1.3490    2.4270    0.7120 O   0  0  0  0  0  0  0  0  0  0  0  0
   -3.0740    1.1790   -0.1520 C   0  0  0  0  0  0  0  0  0  0  0  0
   -3.9010    1.8200    0.7240 C   0  0  0  0  0  0  0  0  0  0  0  0
   -5.2430    1.3480    1.0060 C   0  0  0  0  0  0  0  0  0  0  0  0
   -6.1640    2.3470    0.6610 O   0  0  0  0  0  0  0  0  0  0  0  0
   -3.5940    0.0170   -0.8320 C   0  0  0  0  0  0  0  0  0  0  0  0
   -3.3510   -1.2720   -0.6650 C   0  0  0  0  0  0  0  0  0  0  0  0
   -2.4530   -1.9130    0.3000 C   0  0  0  0  0  0  0  0  0  0  0  0
   -1.8480   -3.2070   -0.1880 C   0  0  0  0  0  0  0  0  0  0  0  0
   -0.3900   -3.0280   -0.3260 N   0  0  0  0  0  0  0  0  0  0  0  0
    0.0820   -3.1950   -1.6730 C   0  0  0  0  0  0  0  0  0  0  0  0
   -0.2110   -1.8340   -1.0920 C   0  0  2  0  0  0  0  0  0  0  0  0
    0.9310   -1.0250   -0.6820 C   0  0  0  0  0  0  0  0  0  0  0  0
    1.7630   -1.5220    0.1660 O   0  0  0  0  0  0  0  0  0  0  0  0
  1  2  1  0
  2  3  1  0
  3  4  2  0
  3  5  1  0
  5  6  1  0
  6  7  1  0
  7  8  1  0
  8  9  1  0
  8 24  1  0
  9 10  2  0
 10 11  1  0
 11 12  2  0
 11 13  1  0
 13 14  2  3
 13 17  1  0
 14 15  1  0
 15 16  1  0
 17 18  2  0
 18 19  1  0
 19 20  1  0
 20 21  1  0
 21 22  1  0
 21 23  1  0
 23 22  1  6
 23 24  1  0
 24 25  2  0
M  END
