
     RDKit          3D

 10  9  0  0  0  0  0  0  0  0999 V2000
    2.5660   -2.9250    0.0280 C   0  0  0  0  0  0  0  0  0  0  0  0
    1.4940   -2.0500    0.1800 O   0  0  0  0  0  0  0  0  0  0  0  0
    2.0990   -0.4310    0.2040 P   0  0  0  0  0  0  0  0  0  0  0  0
    1.0370    0.8360    0.2650 C   0  0  0  0  0  0  0  0  0  0  0  0
   -0.3750    0.5390    0.2960 C   0  0  0  0  0  0  0  0  0  0  0  0
   -0.8270   -0.6590    0.2780 N   0  0  0  0  0  0  0  0  0  0  0  0
   -2.2470   -0.9570    0.3100 C   0  0  0  0  0  0  0  0  0  0  0  0
   -2.9270    0.2090   -0.2700 N   0  0  0  0  0  0  0  0  0  0  0  0
    1.4930    2.1490    0.2860 O   0  0  0  0  0  0  0  0  0  0  0  0
    0.6900    3.1750   -0.2550 C   0  0  0  0  0  0  0  0  0  0  0  0
  1  2  1  0
  2  3  1  0
  3  4  2  3
  4  5  1  0
  4  9  1  0
  5  6  2  3
  6  7  1  0
  7  8  1  0
  9 10  1  0
M  END
