
     RDKit          3D

 27 28  0  0  0  0  0  0  0  0999 V2000
   -2.1160   -0.0690   -2.9850 C   0  0  0  0  0  0  0  0  0  0  0  0
   -1.8980    0.3280   -1.5770 C   0  0  2  0  0  0  0  0  0  0  0  0
   -0.5220    0.7380   -1.3380 O   0  0  0  0  0  0  0  0  0  0  0  0
   -0.1430    0.3560    0.0130 C   0  0  0  0  0  0  0  0  0  0  0  0
    0.8820   -0.2600    0.1540 N   0  0  0  0  0  0  0  0  0  0  0  0
    2.0310   -0.9280    0.1290 C   0  0  0  0  0  0  0  0  0  0  0  0
    3.1230   -0.2040   -0.5480 O   0  0  0  0  0  0  0  0  0  0  0  0
    3.2770   -0.3640   -1.9350 C   0  0  0  0  0  0  0  0  0  0  0  0
    4.4620    0.4870   -2.3490 C   0  0  0  0  0  0  0  0  0  0  0  0
    4.0740    2.2510   -1.9010 P   0  0  0  0  0  0  0  0  0  0  0  0
    3.7020    2.3670   -0.1930 O   0  0  0  0  0  0  0  0  0  0  0  0
    5.3860    3.3070   -2.3050 O   0  0  0  0  0  0  0  0  0  0  0  0
    2.3770   -2.1340    0.6080 C   0  0  0  0  0  0  0  0  0  0  0  0
    1.7150   -3.1830    1.3180 C   0  0  0  0  0  0  0  0  0  0  0  0
    0.5290   -3.5440    1.6330 C   0  0  0  0  0  0  0  0  0  0  0  0
   -0.8220   -2.9940    1.3890 C   0  0  0  0  0  0  0  0  0  0  0  0
   -1.4040   -3.3340    0.0740 C   0  0  0  0  0  0  0  0  0  0  0  0
   -2.7970   -2.9620   -0.1650 C   0  0  0  0  0  0  0  0  0  0  0  0
   -3.7350   -3.7290    0.1720 O   0  0  0  0  0  0  0  0  0  0  0  0
   -3.0760   -1.7080   -0.7900 O   0  0  0  0  0  0  0  0  0  0  0  0
   -2.2110   -0.6840   -0.5400 C   0  0  2  0  0  0  0  0  0  0  0  0
   -2.4560    0.1170    0.7480 C   0  0  0  0  0  0  0  0  0  0  0  0
   -1.1070    0.7970    0.9510 N   0  0  0  0  0  0  0  0  0  0  0  0
   -1.1600    1.7190    2.0220 C   0  0  0  0  0  0  0  0  0  0  0  0
   -2.0630    2.9280    1.6800 C   0  0  1  0  0  0  0  0  0  0  0  0
   -1.9170    3.8900    2.8410 C   0  0  0  0  0  0  0  0  0  0  0  0
   -1.5410    3.5610    0.5630 O   0  0  0  0  0  0  0  0  0  0  0  0
  2  1  1  6
  2  3  1  0
  2 21  1  0
  3  4  1  0
  4  5  2  0
  4 23  1  0
  5  6  1  0
  6  7  1  0
  6 13  2  0
  7  8  1  0
  8  9  1  0
  9 10  1  0
 10 11  1  0
 10 12  1  0
 13 14  1  0
 14 15  2  0
 15 16  1  0
 16 17  1  0
 17 18  1  0
 18 19  2  0
 18 20  1  0
 20 21  1  0
 21 22  1  1
 22 23  1  0
 23 24  1  0
 24 25  1  0
 25 26  1  1
 25 27  1  0
M  END
