
     RDKit          3D

 28 30  0  0  0  0  0  0  0  0999 V2000
    6.6930    0.0840    0.3130 C   0  0  0  0  0  0  0  0  0  0  0  0
    5.8210   -0.4590   -0.7510 C   0  0  0  0  0  0  0  0  0  0  0  0
    5.9300   -0.0850   -1.9000 O   0  0  0  0  0  0  0  0  0  0  0  0
    4.7870   -1.4800   -0.4330 C   0  0  2  0  0  0  0  0  0  0  0  0
    3.4120   -1.0560   -0.8150 C   0  0  0  0  0  0  0  0  0  0  0  0
    2.7410   -0.0430    0.0470 C   0  0  1  0  0  0  0  0  0  0  0  0
    3.0390   -0.1720    1.5260 C   0  0  0  0  0  0  0  0  0  0  0  0
    4.2290   -0.9560    1.8400 C   0  0  0  0  0  0  0  0  0  0  0  0
    4.7510   -0.8400    2.9780 O   0  0  0  0  0  0  0  0  0  0  0  0
    4.8090   -1.8240    0.9380 O   0  0  0  0  0  0  0  0  0  0  0  0
    3.0230    1.3070   -0.4560 C   0  0  0  0  0  0  0  0  0  0  0  0
    4.1380    1.9320   -0.4430 O   0  0  0  0  0  0  0  0  0  0  0  0
    1.8300    1.8490   -0.9820 N   0  0  0  0  0  0  0  0  0  0  0  0
    0.7900    0.8920   -0.7950 C   0  0  0  0  0  0  0  0  0  0  0  0
   -0.5760    0.9400   -1.1210 C   0  0  0  0  0  0  0  0  0  0  0  0
   -1.4170   -0.1030   -0.8330 C   0  0  0  0  0  0  0  0  0  0  0  0
   -2.7620   -0.0460   -1.1590 O   0  0  0  0  0  0  0  0  0  0  0  0
   -3.6230    0.4920   -0.1840 C   0  0  0  0  0  0  0  0  0  0  0  0
   -3.1570    0.8880    0.9100 O   0  0  0  0  0  0  0  0  0  0  0  0
   -5.0140    0.5960   -0.4130 N   0  0  0  0  0  0  0  0  0  0  0  0
   -5.5510    0.1380   -1.6760 C   0  0  0  0  0  0  0  0  0  0  0  0
   -5.8620    1.1460    0.5930 C   0  0  0  0  0  0  0  0  0  0  0  0
   -6.5270   -0.1150    1.7730 P   0  0  0  0  0  0  0  0  0  0  0  0
   -7.9920    0.4940    2.4680 O   0  0  0  0  0  0  0  0  0  0  0  0
   -6.7760   -1.6550    1.0100 O   0  0  0  0  0  0  0  0  0  0  0  0
   -0.8950   -1.2140   -0.2090 C   0  0  0  0  0  0  0  0  0  0  0  0
    0.4280   -1.2910    0.1200 C   0  0  0  0  0  0  0  0  0  0  0  0
    1.2690   -0.2210   -0.1810 C   0  0  0  0  0  0  0  0  0  0  0  0
  1  2  1  0
  2  3  2  0
  4  2  1  1
  4  5  1  0
  4 10  1  0
  6  5  1  6
  6  7  1  0
  6 11  1  0
  6 28  1  0
  7  8  1  0
  8  9  2  0
  8 10  1  0
 11 12  2  0
 11 13  1  0
 13 14  1  0
 14 15  2  0
 14 28  1  0
 15 16  1  0
 16 17  1  0
 16 26  2  0
 17 18  1  0
 18 19  2  0
 18 20  1  0
 20 21  1  0
 20 22  1  0
 22 23  1  0
 23 24  1  0
 23 25  1  0
 26 27  1  0
 27 28  2  0
M  END
