
     RDKit          3D

 23 24  0  0  0  0  0  0  0  0999 V2000
   -1.8790   -1.2480    1.9710 O   0  0  0  0  0  0  0  0  0  0  0  0
   -1.1650   -1.3490    0.9360 C   0  0  0  0  0  0  0  0  0  0  0  0
    0.1990   -1.5500    1.0830 O   0  0  0  0  0  0  0  0  0  0  0  0
    0.8250   -1.6480    2.3500 C   0  0  0  0  0  0  0  0  0  0  0  0
    2.1720   -1.8460    2.2130 O   0  0  0  0  0  0  0  0  0  0  0  0
    2.8450   -0.8310    1.5240 C   0  0  0  0  0  0  0  0  0  0  0  0
    2.7240    0.4940    2.1840 C   0  0  0  0  0  0  0  0  0  0  0  0
    3.3420    1.5100    1.5950 O   0  0  0  0  0  0  0  0  0  0  0  0
    3.0940    2.0900    0.4360 C   0  0  0  0  0  0  0  0  0  0  0  0
    3.1300    1.3170   -0.8460 C   0  0  0  0  0  0  0  0  0  0  0  0
    4.3740    0.7590   -1.0130 O   0  0  0  0  0  0  0  0  0  0  0  0
    4.4890    0.0630   -2.1180 O   0  0  0  0  0  0  0  0  0  0  0  0
    5.7180   -0.4080   -2.1590 O   0  0  0  0  0  0  0  0  0  0  0  0
   -1.7050   -1.2640   -0.4210 C   0  0  2  0  0  0  0  0  0  0  0  0
   -1.0640   -0.0860   -1.1200 C   0  0  0  0  0  0  0  0  0  0  0  0
   -1.6040    1.2350   -0.6290 C   0  0  0  0  0  0  0  0  0  0  0  0
   -3.1060    1.3070   -0.6910 C   0  0  0  0  0  0  0  0  0  0  0  0
   -3.5910    0.0160   -1.3260 C   0  0  2  0  0  0  0  0  0  0  0  0
   -5.0970   -0.0710   -1.3440 C   0  0  0  0  0  0  0  0  0  0  0  0
   -5.3720   -0.7950   -0.1660 O   0  0  0  0  0  0  0  0  0  0  0  0
   -4.2880   -1.6150    0.1270 C   0  0  0  0  0  0  0  0  0  0  0  0
   -4.2930   -2.6790    0.7950 O   0  0  0  0  0  0  0  0  0  0  0  0
   -3.1330   -1.0570   -0.4590 N   0  0  0  0  0  0  0  0  0  0  0  0
  1  2  2  0
  2  3  1  0
 14  2  1  1
  3  4  1  0
  4  5  1  0
  5  6  1  0
  6  7  1  0
  7  8  1  0
  8  9  1  0
  9 10  1  0
 10 11  1  0
 11 12  1  0
 12 13  1  0
 14 15  1  0
 14 23  1  0
 15 16  1  0
 16 17  1  0
 18 17  1  1
 18 19  1  0
 18 23  1  0
 19 20  1  0
 20 21  1  0
 21 22  2  0
 21 23  1  0
M  END
