
     RDKit          3D

 27 27  0  0  0  0  0  0  0  0999 V2000
    5.9190    3.5270   -0.4950 C   0  0  0  0  0  0  0  0  0  0  0  0
    4.8720    2.7300    0.1430 N   0  0  0  0  0  0  0  0  0  0  0  0
    4.0140    1.8740   -0.6250 C   0  0  0  0  0  0  0  0  0  0  0  0
    4.1830    1.8220   -1.8710 O   0  0  0  0  0  0  0  0  0  0  0  0
    2.9710    1.0820    0.0180 C   0  0  1  0  0  0  0  0  0  0  0  0
    1.9400    1.8780    0.7590 C   0  0  0  0  0  0  0  0  0  0  0  0
    2.3940    0.1170   -0.9660 C   0  0  0  0  0  0  0  0  0  0  0  0
    1.3290   -0.7190   -0.3830 N   0  0  0  0  0  0  0  0  0  0  0  0
    0.0320   -0.3940   -0.8110 C   0  0  0  0  0  0  0  0  0  0  0  0
   -0.9820   -1.0490   -1.2450 C   0  0  0  0  0  0  0  0  0  0  0  0
   -2.1700   -0.2680   -1.5850 N   0  0  0  0  0  0  0  0  0  0  0  0
   -3.0620    0.2060   -0.6110 C   0  0  0  0  0  0  0  0  0  0  0  0
   -4.1570    0.9370   -0.9870 C   0  0  0  0  0  0  0  0  0  0  0  0
   -5.0420    1.4080   -0.0330 C   0  0  0  0  0  0  0  0  0  0  0  0
   -4.8480    1.1580    1.3040 C   0  0  0  0  0  0  0  0  0  0  0  0
   -6.0270    1.7860    2.5780 P   0  0  0  0  0  0  0  0  0  0  0  0
   -5.5070    3.3660    3.0750 O   0  0  0  0  0  0  0  0  0  0  0  0
   -7.5720    1.9360    1.8360 O   0  0  0  0  0  0  0  0  0  0  0  0
   -3.7510    0.4250    1.6920 C   0  0  0  0  0  0  0  0  0  0  0  0
   -2.8790   -0.0380    0.7400 C   0  0  0  0  0  0  0  0  0  0  0  0
   -1.1580   -2.4680   -1.4550 C   0  0  0  0  0  0  0  0  0  0  0  0
   -2.2910   -2.8950   -1.9110 O   0  0  0  0  0  0  0  0  0  0  0  0
   -0.2490   -3.4700   -1.2290 O   0  0  0  0  0  0  0  0  0  0  0  0
   -0.5490   -4.8070   -1.4770 C   0  0  0  0  0  0  0  0  0  0  0  0
    1.6160   -1.6950    0.6070 C   0  0  0  0  0  0  0  0  0  0  0  0
    2.5250   -2.8190    0.1820 C   0  0  0  0  0  0  0  0  0  0  0  0
    2.6680   -3.6700    1.2990 O   0  0  0  0  0  0  0  0  0  0  0  0
  1  2  1  0
  2  3  1  0
  3  4  2  0
  3  5  1  0
  5  6  1  6
  5  7  1  0
  7  8  1  0
  8  9  1  0
  8 25  1  0
  9 10  2  3
 10 11  1  0
 10 21  1  0
 11 12  1  0
 12 13  2  0
 12 20  1  0
 13 14  1  0
 14 15  2  0
 15 16  1  0
 15 19  1  0
 16 17  1  0
 16 18  1  0
 19 20  2  0
 21 22  2  0
 21 23  1  0
 23 24  1  0
 25 26  1  0
 26 27  1  0
M  END
