
     RDKit          3D

 28 28  0  0  0  0  0  0  0  0999 V2000
   -3.8550   -3.0550   -1.4710 C   0  0  0  0  0  0  0  0  0  0  0  0
   -4.6000   -1.8190   -1.9090 C   0  0  0  0  0  0  0  0  0  0  0  0
   -3.7800   -0.6050   -1.9230 C   0  0  0  0  0  0  0  0  0  0  0  0
   -3.6260    0.0070   -3.0680 N   0  0  0  0  0  0  0  0  0  0  0  0
   -3.1220   -0.0130   -0.8230 N   0  0  0  0  0  0  0  0  0  0  0  0
   -3.8880    0.4580    0.2940 C   0  0  0  0  0  0  0  0  0  0  0  0
   -4.1380   -0.7660    1.6440 P   0  0  0  0  0  0  0  0  0  0  0  0
   -5.6620   -1.5380    1.4580 O   0  0  0  0  0  0  0  0  0  0  0  0
   -4.1230    0.0890    3.1600 O   0  0  0  0  0  0  0  0  0  0  0  0
   -1.7150    0.1350   -0.8330 C   0  0  0  0  0  0  0  0  0  0  0  0
   -1.0700   -0.2620   -1.8430 O   0  0  0  0  0  0  0  0  0  0  0  0
   -1.0560    0.7480    0.3390 C   0  0  0  0  0  0  0  0  0  0  0  0
    0.4140    0.8220    0.1330 N   0  0  0  0  0  0  0  0  0  0  0  0
    0.8290    2.0310   -0.5170 C   0  0  0  0  0  0  0  0  0  0  0  0
    1.1810    3.1590    0.4300 C   0  0  0  0  0  0  0  0  0  0  0  0
    1.5980    4.3510   -0.3360 C   0  0  0  0  0  0  0  0  0  0  0  0
    0.8140    4.8330   -1.1860 O   0  0  0  0  0  0  0  0  0  0  0  0
    2.8280    4.9430   -0.1430 O   0  0  0  0  0  0  0  0  0  0  0  0
    1.2100   -0.2560    0.5480 C   0  0  0  0  0  0  0  0  0  0  0  0
    0.4690   -1.2260    1.0590 O   0  0  0  0  0  0  0  0  0  0  0  0
    2.6230   -0.4730    0.5130 C   0  0  0  0  0  0  0  0  0  0  0  0
    3.5700    0.4370    0.1730 C   0  0  0  0  0  0  0  0  0  0  0  0
    4.9470    0.1670    0.1890 C   0  0  0  0  0  0  0  0  0  0  0  0
    5.3900   -1.0670    0.5620 C   0  0  0  0  0  0  0  0  0  0  0  0
    6.8360   -1.4240    0.6090 C   0  0  0  0  0  0  0  0  0  0  0  0
    4.4570   -2.0160    0.9130 C   0  0  0  0  0  0  0  0  0  0  0  0
    3.1090   -1.7330    0.8910 C   0  0  0  0  0  0  0  0  0  0  0  0
    2.2120   -2.6970    1.2450 O   0  0  0  0  0  0  0  0  0  0  0  0
  1  2  1  0
  2  3  1  0
  3  4  2  0
  3  5  1  0
  5  6  1  0
  5 10  1  0
  6  7  1  0
  7  8  1  0
  7  9  1  0
 10 11  2  0
 10 12  1  0
 12 13  1  0
 13 14  1  0
 13 19  1  0
 14 15  1  0
 15 16  1  0
 16 17  2  0
 16 18  1  0
 19 20  2  0
 19 21  1  0
 21 22  2  0
 21 27  1  0
 22 23  1  0
 23 24  2  0
 24 25  1  0
 24 26  1  0
 26 27  2  0
 27 28  1  0
M  END
