
     RDKit          3D

 28 28  0  0  0  0  0  0  0  0999 V2000
   -1.9640   -3.9870    0.4870 C   0  0  0  0  0  0  0  0  0  0  0  0
   -1.7330   -2.5320    0.5670 N   0  0  0  0  0  0  0  0  0  0  0  0
   -1.0220   -1.8430   -0.4370 C   0  0  0  0  0  0  0  0  0  0  0  0
   -0.5940   -2.5680   -1.3990 O   0  0  0  0  0  0  0  0  0  0  0  0
   -0.7810   -0.3880   -0.3880 C   0  0  2  0  0  0  0  0  0  0  0  0
   -0.0930    0.0220    0.8960 C   0  0  0  0  0  0  0  0  0  0  0  0
   -2.0040    0.4580   -0.5500 C   0  0  0  0  0  0  0  0  0  0  0  0
   -3.0910    0.2780    0.4400 C   0  0  0  0  0  0  0  0  0  0  0  0
   -4.1330    1.1970    0.1200 O   0  0  0  0  0  0  0  0  0  0  0  0
   -5.1200    0.9780    1.0680 C   0  0  0  0  0  0  0  0  0  0  0  0
   -6.2620    1.9460    0.7640 C   0  0  0  0  0  0  0  0  0  0  0  0
   -7.5800    1.6310    2.0470 P   0  0  0  0  0  0  0  0  0  0  0  0
   -7.5800   -0.0860    2.3640 O   0  0  0  0  0  0  0  0  0  0  0  0
   -7.1030    2.4440    3.4990 O   0  0  0  0  0  0  0  0  0  0  0  0
    0.1160    0.0190   -1.4710 N   0  0  0  0  0  0  0  0  0  0  0  0
    1.4330   -0.4810   -1.6070 C   0  0  0  0  0  0  0  0  0  0  0  0
    1.8400   -1.2980   -0.7640 O   0  0  0  0  0  0  0  0  0  0  0  0
    2.3050   -0.0930   -2.6600 N   0  0  0  0  0  0  0  0  0  0  0  0
    3.6530   -0.6150   -2.7840 C   0  0  0  0  0  0  0  0  0  0  0  0
    4.5680    0.0370   -1.8100 C   0  0  0  0  0  0  0  0  0  0  0  0
    5.8510   -0.4430   -1.6580 C   0  0  0  0  0  0  0  0  0  0  0  0
    6.7280    0.1420   -0.7720 C   0  0  0  0  0  0  0  0  0  0  0  0
    6.3130    1.2400   -0.0140 C   0  0  0  0  0  0  0  0  0  0  0  0
    7.2320    1.8640    0.9240 C   0  0  0  0  0  0  0  0  0  0  0  0
    6.8580    2.8460    1.5960 O   0  0  0  0  0  0  0  0  0  0  0  0
    8.5090    1.3660    1.0630 O   0  0  0  0  0  0  0  0  0  0  0  0
    5.0170    1.6960   -0.1920 C   0  0  0  0  0  0  0  0  0  0  0  0
    4.1250    1.1190   -1.0790 C   0  0  0  0  0  0  0  0  0  0  0  0
  1  2  1  0
  2  3  1  0
  3  4  2  0
  3  5  1  0
  5  6  1  1
  5  7  1  0
  5 15  1  0
  7  8  1  0
  8  9  1  0
  9 10  1  0
 10 11  1  0
 11 12  1  0
 12 13  1  0
 12 14  1  0
 15 16  1  0
 16 17  2  0
 16 18  1  0
 18 19  1  0
 19 20  1  0
 20 21  2  0
 20 28  1  0
 21 22  1  0
 22 23  2  0
 23 24  1  0
 23 27  1  0
 24 25  2  0
 24 26  1  0
 27 28  2  0
M  END
