
     RDKit          3D

 28 28  0  0  0  0  0  0  0  0999 V2000
   -5.3530   -3.3590    0.1460 C   0  0  0  0  0  0  0  0  0  0  0  0
   -4.7010   -2.3550    0.6870 C   0  0  0  0  0  0  0  0  0  0  0  0
   -4.1380   -2.5040    2.0420 C   0  0  0  0  0  0  0  0  0  0  0  0
   -4.5290   -1.1230   -0.0340 C   0  0  0  0  0  0  0  0  0  0  0  0
   -5.0190   -1.0290   -1.1980 O   0  0  0  0  0  0  0  0  0  0  0  0
   -3.8260   -0.0390    0.5420 N   0  0  0  0  0  0  0  0  0  0  0  0
   -3.6650    1.1760   -0.1940 C   0  0  2  0  0  0  0  0  0  0  0  0
   -2.1760    1.3580   -0.3960 C   0  0  0  0  0  0  0  0  0  0  0  0
   -1.5420    0.6860   -1.3040 C   0  0  0  0  0  0  0  0  0  0  0  0
   -0.1480    0.7520   -1.6060 C   0  0  0  0  0  0  0  0  0  0  0  0
    0.3910   -0.0580   -2.6290 C   0  0  0  0  0  0  0  0  0  0  0  0
    1.6860   -0.0250   -2.9370 N   0  0  0  0  0  0  0  0  0  0  0  0
    2.5800    0.7680   -2.3130 C   0  0  0  0  0  0  0  0  0  0  0  0
    3.9090    0.7480   -2.6860 O   0  0  0  0  0  0  0  0  0  0  0  0
    4.8680    1.5440   -2.0730 C   0  0  0  0  0  0  0  0  0  0  0  0
    4.9710    1.2570   -0.6180 C   0  0  0  0  0  0  0  0  0  0  0  0
    5.4120   -0.4910   -0.2420 P   0  0  0  0  0  0  0  0  0  0  0  0
    6.6030   -1.1320   -1.3250 O   0  0  0  0  0  0  0  0  0  0  0  0
    5.8800   -0.6980    1.4140 O   0  0  0  0  0  0  0  0  0  0  0  0
    5.6690   -2.0070    1.7980 C   0  0  0  0  0  0  0  0  0  0  0  0
    6.0580   -2.2830    3.2140 C   0  0  0  0  0  0  0  0  0  0  0  0
    2.0970    1.5440   -1.3430 N   0  0  0  0  0  0  0  0  0  0  0  0
    0.7730    1.5530   -0.9820 C   0  0  0  0  0  0  0  0  0  0  0  0
    0.3720    2.4060    0.0480 O   0  0  0  0  0  0  0  0  0  0  0  0
   -4.2570    2.3950    0.4660 C   0  0  0  0  0  0  0  0  0  0  0  0
   -5.6950    2.1960    0.6540 C   0  0  0  0  0  0  0  0  0  0  0  0
   -6.1360    1.1880    1.2780 O   0  0  0  0  0  0  0  0  0  0  0  0
   -6.6320    3.0850    0.1690 O   0  0  0  0  0  0  0  0  0  0  0  0
  1  2  2  0
  2  3  1  0
  2  4  1  0
  4  5  2  0
  4  6  1  0
  6  7  1  0
  7  8  1  0
  7 25  1  1
  8  9  2  3
  9 10  1  0
 10 11  2  0
 10 23  1  0
 11 12  1  0
 12 13  2  0
 13 14  1  0
 13 22  1  0
 14 15  1  0
 15 16  1  0
 16 17  1  0
 17 18  1  0
 17 19  1  0
 19 20  1  0
 20 21  1  0
 22 23  2  0
 23 24  1  0
 25 26  1  0
 26 27  2  0
 26 28  1  0
M  END
