
     RDKit          3D

 15 15  0  0  0  0  0  0  0  0999 V2000
    6.1090   -0.6790    0.0320 O   0  0  0  0  0  0  0  0  0  0  0  0
    5.1440   -1.7620   -0.5230 P   0  0  0  0  0  0  0  0  0  0  0  0
    3.5060   -1.2950   -0.9620 O   0  0  0  0  0  0  0  0  0  0  0  0
    2.5830   -0.8870   -0.0300 C   0  0  0  0  0  0  0  0  0  0  0  0
    2.9260   -0.8460    1.1980 O   0  0  0  0  0  0  0  0  0  0  0  0
    1.2790   -0.5120   -0.3520 O   0  0  0  0  0  0  0  0  0  0  0  0
    0.3550   -0.0970    0.6330 C   0  0  0  0  0  0  0  0  0  0  0  0
   -0.9430    0.2330   -0.0400 C   0  0  1  0  0  0  0  0  0  0  0  0
   -1.8840    0.7780    1.0060 C   0  0  0  0  0  0  0  0  0  0  0  0
   -2.1070   -0.2380    1.9360 O   0  0  0  0  0  0  0  0  0  0  0  0
   -2.9150    0.1240    2.8990 O   0  0  0  0  0  0  0  0  0  0  0  0
   -0.7140    1.2040   -1.1710 C   0  0  0  0  0  0  0  0  0  0  0  0
   -0.2630    0.3200   -2.1750 O   0  0  0  0  0  0  0  0  0  0  0  0
   -1.1820   -0.7200   -2.0490 C   0  0  0  0  0  0  0  0  0  0  0  0
   -1.4420   -0.8660   -0.6980 O   0  0  0  0  0  0  0  0  0  0  0  0
  1  2  2  0
  2  3  1  0
  3  4  1  0
  4  5  2  0
  4  6  1  0
  6  7  1  0
  8  7  1  1
  8  9  1  0
  8 12  1  0
  8 15  1  0
  9 10  1  0
 10 11  1  0
 12 13  1  0
 13 14  1  0
 14 15  1  0
M  END
