
     RDKit          3D

 10  9  0  0  0  0  0  0  0  0999 V2000
    3.3310   -0.1260    0.0920 C   0  0  0  0  0  0  0  0  0  0  0  0
    2.0150    0.4550    0.4820 C   0  0  0  0  0  0  0  0  0  0  0  0
    1.8640    0.7800    1.6980 O   0  0  0  0  0  0  0  0  0  0  0  0
    0.9890    0.6400   -0.4330 O   0  0  0  0  0  0  0  0  0  0  0  0
   -0.1580    1.1640   -0.0170 O   0  0  0  0  0  0  0  0  0  0  0  0
   -1.2220    0.2690   -0.0870 C   0  0  2  0  0  0  0  0  0  0  0  0
   -0.9690   -0.9600    0.7690 C   0  0  0  0  0  0  0  0  0  0  0  0
   -1.4520   -0.1090   -1.5310 C   0  0  0  0  0  0  0  0  0  0  0  0
   -2.4280    0.9300    0.4620 C   0  0  0  0  0  0  0  0  0  0  0  0
   -2.3280    2.0700    0.8660 O   0  0  0  0  0  0  0  0  0  0  0  0
  1  2  1  0
  2  3  2  0
  2  4  1  0
  4  5  1  0
  5  6  1  0
  6  7  1  1
  6  8  1  0
  6  9  1  0
  9 10  2  0
M  END
