
     RDKit          3D

 11 10  0  0  0  0  0  0  0  0999 V2000
   -1.4860    1.1540    0.0320 C   0  0  0  0  0  0  0  0  0  0  0  0
   -1.1660   -0.2360   -0.4680 C   0  0  2  0  0  0  0  0  0  0  0  0
   -2.4220   -1.0700   -0.3810 C   0  0  0  0  0  0  0  0  0  0  0  0
   -0.0850   -0.8610    0.3260 C   0  0  0  0  0  0  0  0  0  0  0  0
   -0.3530   -1.9170    0.9580 O   0  0  0  0  0  0  0  0  0  0  0  0
    1.2680   -0.3030    0.4050 C   0  0  0  0  0  0  0  0  0  0  0  0
    1.6390    0.7800   -0.2170 C   0  0  0  0  0  0  0  0  0  0  0  0
    2.9200    1.2500   -0.1010 O   0  0  0  0  0  0  0  0  0  0  0  0
    3.1110    2.5870   -0.0400 O   0  0  0  0  0  0  0  0  0  0  0  0
    2.2130   -0.9560    1.1820 O   0  0  0  0  0  0  0  0  0  0  0  0
    2.0330   -2.2590    1.4810 O   0  0  0  0  0  0  0  0  0  0  0  0
  2  1  1  1
  2  3  1  0
  2  4  1  0
  4  5  2  0
  4  6  1  0
  6  7  2  3
  6 10  1  0
  7  8  1  0
  8  9  1  0
 10 11  1  0
M  END
