
     RDKit          3D

 21 22  0  0  0  0  0  0  0  0999 V2000
    5.3360    1.7810    1.5430 N   0  0  0  0  0  0  0  0  0  0  0  0
    4.2110    1.2640    0.8470 C   0  0  0  0  0  0  0  0  0  0  0  0
    3.7510   -0.0130    1.1060 C   0  0  0  0  0  0  0  0  0  0  0  0
    2.6400   -0.4940    0.4040 C   0  0  0  0  0  0  0  0  0  0  0  0
    2.0240    0.2540   -0.5020 N   0  0  0  0  0  0  0  0  0  0  0  0
    0.8840   -0.1860   -1.2480 C   0  0  2  0  0  0  0  0  0  0  0  0
   -0.2880    0.2780   -0.6840 O   0  0  0  0  0  0  0  0  0  0  0  0
   -1.2320   -0.7270   -0.7790 C   0  0  2  0  0  0  0  0  0  0  0  0
   -2.3640   -0.5630    0.1960 C   0  0  0  0  0  0  0  0  0  0  0  0
   -2.9800    0.6300   -0.0580 O   0  0  0  0  0  0  0  0  0  0  0  0
   -4.2440    0.8640    0.9930 P   0  0  0  0  0  0  0  0  0  0  0  0
   -3.4010    1.9380    1.6900 O   0  0  0  0  0  0  0  0  0  0  0  0
   -5.4380    1.9060    0.5730 O   0  0  0  0  0  0  0  0  0  0  0  0
   -4.9490   -0.3230    0.3320 O   0  0  0  0  0  0  0  0  0  0  0  0
   -0.4010   -1.9610   -0.4850 C   0  0  1  0  0  0  0  0  0  0  0  0
   -1.0500   -3.1280   -0.8530 O   0  0  0  0  0  0  0  0  0  0  0  0
    0.7750   -1.6580   -1.4170 C   0  0  1  0  0  0  0  0  0  0  0  0
    0.3030   -1.9710   -2.7130 O   0  0  0  0  0  0  0  0  0  0  0  0
    2.4800    1.5120   -0.7530 C   0  0  0  0  0  0  0  0  0  0  0  0
    1.8970    2.2410   -1.6210 O   0  0  0  0  0  0  0  0  0  0  0  0
    3.5510    1.9810   -0.0800 N   0  0  0  0  0  0  0  0  0  0  0  0
  1  2  1  0
  2  3  1  0
  2 21  2  0
  3  4  2  0
  4  5  1  0
  6  5  1  1
  5 19  1  0
  6  7  1  0
  6 17  1  0
  7  8  1  0
  8  9  1  1
  8 15  1  0
  9 10  1  0
 10 11  1  0
 11 12  1  0
 11 13  1  0
 11 14  1  0
 15 16  1  6
 15 17  1  0
 17 18  1  6
 19 20  2  0
 19 21  1  0
M  CHG  1  21   1
M  END
