
     RDKit          3D

 10  9  0  0  0  0  0  0  0  0999 V2000
    1.2660   -0.3660   -1.3410 C   0  0  0  0  0  0  0  0  0  0  0  0
    0.9070   -0.4550   -0.0700 C   0  0  0  0  0  0  0  0  0  0  0  0
   -0.4040   -0.7700    0.2960 O   0  0  0  0  0  0  0  0  0  0  0  0
   -1.4650   -0.1760   -0.2180 O   0  0  0  0  0  0  0  0  0  0  0  0
   -2.1690   -0.9580   -1.0070 O   0  0  0  0  0  0  0  0  0  0  0  0
   -3.3390   -1.2410   -0.4570 O   0  0  0  0  0  0  0  0  0  0  0  0
   -3.8060   -0.0510    0.1370 C   0  0  0  0  0  0  0  0  0  0  0  0
    1.9070   -0.2190    0.9590 C   0  0  0  0  0  0  0  0  0  0  0  0
    3.3170    0.1190    0.6400 C   0  0  0  0  0  0  0  0  0  0  0  0
    1.5780   -0.3010    2.1500 O   0  0  0  0  0  0  0  0  0  0  0  0
  1  2  2  0
  2  3  1  0
  2  8  1  0
  3  4  1  0
  4  5  1  0
  5  6  1  0
  6  7  1  0
  8  9  1  0
  8 10  2  0
M  END
