
     RDKit          3D

 46 50  0  0  0  0  0  0  0  0999 V2000
   -1.7020    8.1700    0.6740 C   0  0  0  0  0  0  0  0  0  0  0  0
   -1.6130    6.8010    0.9770 O   0  0  0  0  0  0  0  0  0  0  0  0
   -2.4120    5.8290    0.4260 C   0  0  0  0  0  0  0  0  0  0  0  0
   -3.2860    6.2180   -0.4160 O   0  0  0  0  0  0  0  0  0  0  0  0
   -2.3190    4.4240    0.7390 C   0  0  0  0  0  0  0  0  0  0  0  0
   -3.0790    3.3680    0.2370 C   0  0  0  0  0  0  0  0  0  0  0  0
   -2.6400    2.2080    0.8200 C   0  0  0  0  0  0  0  0  0  0  0  0
   -3.1280    0.8500    0.6130 C   0  0  0  0  0  0  0  0  0  0  0  0
   -4.0610    0.4020    1.3320 O   0  0  0  0  0  0  0  0  0  0  0  0
   -2.5830   -0.0020   -0.3830 N   0  0  0  0  0  0  0  0  0  0  0  0
   -3.0930   -1.3180   -0.5790 C   0  0  0  0  0  0  0  0  0  0  0  0
   -4.1970   -1.4690   -1.5790 C   0  0  0  0  0  0  0  0  0  0  0  0
   -5.4630   -0.7520   -1.2820 C   0  0  0  0  0  0  0  0  0  0  0  0
   -6.1460   -1.1090   -0.1460 O   0  0  0  0  0  0  0  0  0  0  0  0
   -6.7570   -2.2920    0.1700 C   0  0  0  0  0  0  0  0  0  0  0  0
   -6.8390   -3.3960   -0.6480 C   0  0  0  0  0  0  0  0  0  0  0  0
   -7.4770   -4.5480   -0.2280 C   0  0  0  0  0  0  0  0  0  0  0  0
   -8.0620   -4.6650    1.0090 C   0  0  0  0  0  0  0  0  0  0  0  0
   -8.6880   -5.8400    1.3810 O   0  0  0  0  0  0  0  0  0  0  0  0
   -8.7290   -6.9280    0.4880 C   0  0  0  0  0  0  0  0  0  0  0  0
   -7.9890   -3.5680    1.8380 C   0  0  0  0  0  0  0  0  0  0  0  0
   -7.3620   -2.4230    1.4400 C   0  0  0  0  0  0  0  0  0  0  0  0
   -1.4840    0.5170   -1.1790 C   0  0  2  0  0  0  0  0  0  0  0  0
   -1.1840    0.0740   -2.5340 C   0  0  0  0  0  0  0  0  0  0  0  0
   -0.3150   -0.3850   -1.3530 C   0  0  1  0  0  0  0  0  0  0  0  0
    1.0710    0.1940   -1.4350 C   0  0  0  0  0  0  0  0  0  0  0  0
    1.2360    1.3730   -1.8360 O   0  0  0  0  0  0  0  0  0  0  0  0
    2.1640   -0.6120   -1.0550 N   0  0  0  0  0  0  0  0  0  0  0  0
    3.5420   -0.2250   -1.0640 C   0  0  0  0  0  0  0  0  0  0  0  0
    3.9730    1.0600   -1.2150 C   0  0  0  0  0  0  0  0  0  0  0  0
    5.3100    1.3110   -1.2250 C   0  0  0  0  0  0  0  0  0  0  0  0
    6.3250    0.3710   -1.0930 C   0  0  0  0  0  0  0  0  0  0  0  0
    7.9660    0.7100   -1.1060 S   0  0  0  0  0  0  0  0  0  0  0  0
    8.5730    2.0940   -0.3230 C   0  0  0  0  0  0  0  0  0  0  0  0
    8.9850   -0.1180   -2.2000 O   0  0  0  0  0  0  0  0  0  0  0  0
    8.4590   -0.3490    0.0950 C   0  0  0  0  0  0  0  0  0  0  0  0
    7.7660   -0.2260    1.3110 C   0  0  0  0  0  0  0  0  0  0  0  0
    8.0040   -0.9640    2.4250 C   0  0  0  0  0  0  0  0  0  0  0  0
    8.9870   -1.9040    2.3850 C   0  0  0  0  0  0  0  0  0  0  0  0
    9.7070   -2.0900    1.2510 C   0  0  0  0  0  0  0  0  0  0  0  0
    9.4280   -1.3200    0.1560 C   0  0  0  0  0  0  0  0  0  0  0  0
    5.8040   -0.9030   -0.9450 C   0  0  0  0  0  0  0  0  0  0  0  0
    4.4840   -1.2120   -0.9280 C   0  0  0  0  0  0  0  0  0  0  0  0
   -1.6210    2.5530    1.6700 C   0  0  0  0  0  0  0  0  0  0  0  0
   -0.8380    1.6310    2.5180 C   0  0  0  0  0  0  0  0  0  0  0  0
   -1.4360    3.8950    1.6120 N   0  0  0  0  0  0  0  0  0  0  0  0
  1  2  1  0
  2  3  1  0
  3  4  2  0
  3  5  1  0
  5  6  2  0
  5 46  1  0
  6  7  1  0
  7  8  1  0
  7 44  2  0
  8  9  2  0
  8 10  1  0
 10 11  1  0
 23 10  1  1
 11 12  1  0
 12 13  1  0
 13 14  1  0
 14 15  1  0
 15 16  2  0
 15 22  1  0
 16 17  1  0
 17 18  2  0
 18 19  1  0
 18 21  1  0
 19 20  1  0
 21 22  2  0
 23 24  1  0
 23 25  1  0
 24 25  1  0
 25 26  1  6
 26 27  2  0
 26 28  1  0
 28 29  1  0
 29 30  2  0
 29 43  1  0
 30 31  1  0
 31 32  2  0
 32 33  1  0
 32 42  1  0
 33 34  1  0
 33 35  2  0
 33 36  1  0
 36 37  2  0
 36 41  1  0
 37 38  1  0
 38 39  2  0
 39 40  1  0
 40 41  2  0
 42 43  2  0
 44 45  1  0
 44 46  1  0
M  END
