
     RDKit          3D

 46 50  0  0  0  0  0  0  0  0999 V2000
   11.7130    1.1780    1.3840 C   0  0  0  0  0  0  0  0  0  0  0  0
   11.9100    0.4370    0.2940 C   0  0  0  0  0  0  0  0  0  0  0  0
   10.7660   -0.1380   -0.4700 C   0  0  0  0  0  0  0  0  0  0  0  0
    9.5740    0.2350    0.1510 O   0  0  0  0  0  0  0  0  0  0  0  0
    8.3420   -0.1500   -0.3340 C   0  0  0  0  0  0  0  0  0  0  0  0
    8.2850   -0.9260   -1.4640 C   0  0  0  0  0  0  0  0  0  0  0  0
    7.0590   -1.3110   -1.9510 C   0  0  0  0  0  0  0  0  0  0  0  0
    5.8720   -0.9140   -1.2990 C   0  0  0  0  0  0  0  0  0  0  0  0
    5.9000   -0.1480   -0.1800 C   0  0  0  0  0  0  0  0  0  0  0  0
    4.7740    0.3690    0.5210 C   0  0  0  0  0  0  0  0  0  0  0  0
    4.9640    1.4360    1.2710 O   0  0  0  0  0  0  0  0  0  0  0  0
    3.4550   -0.1100    0.5330 N   0  0  0  0  0  0  0  0  0  0  0  0
    3.0230   -1.2730   -0.1410 C   0  0  0  0  0  0  0  0  0  0  0  0
    1.8020   -1.9430    0.4950 C   0  0  0  0  0  0  0  0  0  0  0  0
    1.3710   -1.3050    1.6180 O   0  0  0  0  0  0  0  0  0  0  0  0
    1.1910    0.0580    1.4650 C   0  0  2  0  0  0  0  0  0  0  0  0
    0.1310    0.3050    0.4190 C   0  0  0  0  0  0  0  0  0  0  0  0
   -0.1850    1.6570    0.1580 N   0  0  1  0  0  0  0  0  0  0  0  0
   -0.1960    2.0090   -1.2730 C   0  0  0  0  0  0  0  0  0  0  0  0
   -0.3030    0.7880   -2.1420 C   0  0  0  0  0  0  0  0  0  0  0  0
   -1.4950    0.0670   -2.2580 C   0  0  0  0  0  0  0  0  0  0  0  0
   -1.1210   -1.2400   -3.3790 S   0  0  0  0  0  0  0  0  0  0  0  0
    0.6930   -0.6270   -3.5690 C   0  0  0  0  0  0  0  0  0  0  0  0
    1.5820   -1.4370   -4.5020 C   0  0  0  0  0  0  0  0  0  0  0  0
    0.6620    0.2770   -2.8750 N   0  0  0  0  0  0  0  0  0  0  0  0
   -1.3420    2.2310    0.7220 C   0  0  0  0  0  0  0  0  0  0  0  0
   -2.3880    1.3770    1.3250 C   0  0  1  0  0  0  0  0  0  0  0  0
   -1.9530    0.6120    2.3930 O   0  0  0  0  0  0  0  0  0  0  0  0
   -3.4030    2.3550    1.9460 C   0  0  0  0  0  0  0  0  0  0  0  0
   -4.4660    1.6950    2.5500 O   0  0  0  0  0  0  0  0  0  0  0  0
   -5.3730    0.8560    1.9450 C   0  0  0  0  0  0  0  0  0  0  0  0
   -5.2930    0.6180    0.7270 O   0  0  0  0  0  0  0  0  0  0  0  0
   -6.4410    0.2410    2.7470 C   0  0  0  0  0  0  0  0  0  0  0  0
   -7.2880   -0.5930    1.8630 C   0  0  0  0  0  0  0  0  0  0  0  0
   -7.3380   -1.9640    1.7250 C   0  0  0  0  0  0  0  0  0  0  0  0
   -8.2570   -2.2990    0.8070 N   0  0  0  0  0  0  0  0  0  0  0  0
   -8.8260   -1.1880    0.3230 C   0  0  0  0  0  0  0  0  0  0  0  0
   -9.8160   -0.9850   -0.6300 C   0  0  0  0  0  0  0  0  0  0  0  0
  -10.4520   -2.1150   -1.3230 C   0  0  0  0  0  0  0  0  0  0  0  0
  -10.1760    0.3250   -0.8980 C   0  0  0  0  0  0  0  0  0  0  0  0
   -9.5820    1.3830   -0.2500 C   0  0  0  0  0  0  0  0  0  0  0  0
   -8.6080    1.1820    0.6870 C   0  0  0  0  0  0  0  0  0  0  0  0
   -8.2390   -0.1100    0.9650 C   0  0  0  0  0  0  0  0  0  0  0  0
    2.4830    0.7070    1.3070 C   0  0  0  0  0  0  0  0  0  0  0  0
    7.1780    0.2260    0.2860 C   0  0  0  0  0  0  0  0  0  0  0  0
    7.2180    1.0080    1.4290 O   0  0  0  0  0  0  0  0  0  0  0  0
  1  2  2  0
  2  3  1  0
  3  4  1  0
  4  5  1  0
  5  6  2  0
  5 45  1  0
  6  7  1  0
  7  8  2  0
  8  9  1  0
  9 10  1  0
  9 45  2  0
 10 11  2  0
 10 12  1  0
 12 13  1  0
 12 44  1  0
 13 14  1  0
 14 15  1  0
 15 16  1  0
 16 17  1  6
 16 44  1  0
 18 17  1  6
 18 19  1  0
 18 26  1  0
 19 20  1  0
 20 21  2  0
 20 25  1  0
 21 22  1  0
 22 23  1  0
 23 24  1  0
 23 25  2  0
 26 27  1  0
 27 28  1  1
 27 29  1  0
 29 30  1  0
 30 31  1  0
 31 32  2  0
 31 33  1  0
 33 34  1  0
 34 35  2  0
 34 43  1  0
 35 36  1  0
 36 37  1  0
 37 38  2  0
 37 43  1  0
 38 39  1  0
 38 40  1  0
 40 41  2  0
 41 42  1  0
 42 43  2  0
 45 46  1  0
M  CHG  1  18   1
M  END
