
     RDKit          3D

 36 39  0  0  0  0  0  0  0  0999 V2000
    4.4010    2.5220    4.9120 N   0  0  0  0  0  0  0  0  0  0  0  0
    3.3800    2.0230    4.0810 C   0  0  0  0  0  0  0  0  0  0  0  0
    2.0840    1.9790    4.4910 C   0  0  0  0  0  0  0  0  0  0  0  0
    1.0910    1.4780    3.6490 C   0  0  0  0  0  0  0  0  0  0  0  0
    1.4400    1.0210    2.3780 C   0  0  0  0  0  0  0  0  0  0  0  0
    0.4710    0.3850    1.5710 N   0  0  0  0  0  0  0  0  0  0  0  0
   -0.9250    0.5230    1.6570 C   0  0  0  0  0  0  0  0  0  0  0  0
   -1.4260    1.2790    2.5130 O   0  0  0  0  0  0  0  0  0  0  0  0
   -1.8600   -0.1950    0.7680 C   0  0  0  0  0  0  0  0  0  0  0  0
   -1.4560   -0.8300   -0.3730 C   0  0  0  0  0  0  0  0  0  0  0  0
   -2.3930   -1.4940   -1.1600 C   0  0  0  0  0  0  0  0  0  0  0  0
   -3.7260   -1.5280   -0.8190 C   0  0  0  0  0  0  0  0  0  0  0  0
   -4.7140   -2.2370   -1.6630 C   0  0  0  0  0  0  0  0  0  0  0  0
   -4.1090   -2.8460   -2.8220 N   0  0  0  0  0  0  0  0  0  0  0  0
   -4.1170   -0.8830    0.3340 C   0  0  0  0  0  0  0  0  0  0  0  0
   -5.4650   -0.8700    0.7590 N   0  0  0  0  0  0  0  0  0  0  0  0
   -5.9240    0.4160    1.1810 C   0  0  1  0  0  0  0  0  0  0  0  0
   -5.5330    1.5490    0.2880 C   0  0  0  0  0  0  0  0  0  0  0  0
   -6.1700    1.5220   -1.0670 C   0  0  0  0  0  0  0  0  0  0  0  0
   -7.6570    1.4210   -0.9640 C   0  0  0  0  0  0  0  0  0  0  0  0
   -8.1240    0.3450   -0.0130 C   0  0  0  0  0  0  0  0  0  0  0  0
   -7.4340    0.4390    1.3270 C   0  0  0  0  0  0  0  0  0  0  0  0
   -3.1970   -0.2260    1.1160 C   0  0  0  0  0  0  0  0  0  0  0  0
    2.7680    1.0550    1.9240 C   0  0  0  0  0  0  0  0  0  0  0  0
    3.0340    0.7240    0.5550 C   0  0  0  0  0  0  0  0  0  0  0  0
    2.1010    0.5900   -0.3120 O   0  0  0  0  0  0  0  0  0  0  0  0
    4.3540    0.5070    0.0190 N   0  0  0  0  0  0  0  0  0  0  0  0
    5.6530    0.4870    0.6010 C   0  0  0  0  0  0  0  0  0  0  0  0
    6.4960   -0.4030   -0.3230 C   0  0  0  0  0  0  0  0  0  0  0  0
    5.9870    0.0630   -1.6580 C   0  0  1  0  0  0  0  0  0  0  0  0
    6.6820    1.2080   -2.0630 O   0  0  0  0  0  0  0  0  0  0  0  0
    6.2640   -1.0590   -2.6540 C   0  0  0  0  0  0  0  0  0  0  0  0
    7.7640   -1.3370   -2.7170 C   0  0  0  0  0  0  0  0  0  0  0  0
    8.0110   -2.3990   -3.6620 N   0  0  0  0  0  0  0  0  0  0  0  0
    4.5390    0.2870   -1.4470 C   0  0  0  0  0  0  0  0  0  0  0  0
    3.7100    1.5590    2.7960 C   0  0  0  0  0  0  0  0  0  0  0  0
  1  2  1  0
  2  3  2  0
  2 36  1  0
  3  4  1  0
  4  5  2  0
  5  6  1  0
  5 24  1  0
  6  7  1  0
  7  8  2  0
  7  9  1  0
  9 10  2  0
  9 23  1  0
 10 11  1  0
 11 12  2  0
 12 13  1  0
 12 15  1  0
 13 14  1  0
 15 16  1  0
 15 23  2  0
 17 16  1  6
 17 18  1  0
 17 22  1  0
 18 19  1  0
 19 20  1  0
 20 21  1  0
 21 22  1  0
 24 25  1  0
 24 36  2  0
 25 26  2  0
 25 27  1  0
 27 28  1  0
 27 35  1  0
 28 29  1  0
 29 30  1  0
 30 31  1  6
 30 32  1  0
 30 35  1  0
 32 33  1  0
 33 34  1  0
M  CHG  3  14   1  16   1  34   1
M  END
