
     RDKit          3D

 36 39  0  0  0  0  0  0  0  0999 V2000
   -4.6830   -1.4490   -2.0360 C   0  0  0  0  0  0  0  0  0  0  0  0
   -5.1180   -1.9280   -0.6970 C   0  0  0  0  0  0  0  0  0  0  0  0
   -5.7700   -3.1220   -0.5340 C   0  0  0  0  0  0  0  0  0  0  0  0
   -6.1960   -3.6100    0.7150 C   0  0  0  0  0  0  0  0  0  0  0  0
   -5.9630   -2.8850    1.8260 C   0  0  0  0  0  0  0  0  0  0  0  0
   -5.2920   -1.6520    1.6760 C   0  0  0  0  0  0  0  0  0  0  0  0
   -4.8850   -1.1940    0.4460 C   0  0  0  0  0  0  0  0  0  0  0  0
   -4.2230    0.0190    0.2930 O   0  0  0  0  0  0  0  0  0  0  0  0
   -2.8450    0.1440    0.3090 C   0  0  0  0  0  0  0  0  0  0  0  0
   -2.1830   -0.9050    0.4710 O   0  0  0  0  0  0  0  0  0  0  0  0
   -2.1480    1.4100    0.1500 C   0  0  0  0  0  0  0  0  0  0  0  0
   -2.9690    2.4950   -0.0150 N   0  0  0  0  0  0  0  0  0  0  0  0
   -2.5040    3.7440   -0.1740 C   0  0  0  0  0  0  0  0  0  0  0  0
   -3.2680    4.7280   -0.3240 O   0  0  0  0  0  0  0  0  0  0  0  0
   -1.1240    3.9120   -0.1660 C   0  0  0  0  0  0  0  0  0  0  0  0
   -0.5340    5.2590   -0.3360 C   0  0  2  0  0  0  0  0  0  0  0  0
    0.5360    5.4720    0.6320 N   0  0  0  0  0  0  0  0  0  0  0  0
   -1.4770    6.3260   -0.1740 N   0  0  0  0  0  0  0  0  0  0  0  0
   -0.2770    2.8380   -0.0030 C   0  0  0  0  0  0  0  0  0  0  0  0
   -0.7810    1.5570    0.1590 C   0  0  0  0  0  0  0  0  0  0  0  0
    0.0610    0.3790    0.3340 C   0  0  0  0  0  0  0  0  0  0  0  0
    1.4790    0.6470    0.3300 N   0  0  0  0  0  0  0  0  0  0  0  0
    2.0920    0.6450   -0.9610 C   0  0  1  0  0  0  0  0  0  0  0  0
    1.2140    1.0790   -2.0920 C   0  0  0  0  0  0  0  0  0  0  0  0
    3.2550    1.6490   -0.9040 C   0  0  0  0  0  0  0  0  0  0  0  0
    2.6270   -0.7330   -1.3140 C   0  0  0  0  0  0  0  0  0  0  0  0
    3.6090   -1.0990   -0.3290 N   0  0  0  0  0  0  0  0  0  0  0  0
    4.7110   -1.8550   -0.9330 C   0  0  0  0  0  0  0  0  0  0  0  0
    5.7630   -1.9980    0.1040 C   0  0  0  0  0  0  0  0  0  0  0  0
    6.9810   -2.6090   -0.2120 C   0  0  0  0  0  0  0  0  0  0  0  0
    7.9540   -2.7430    0.7470 C   0  0  0  0  0  0  0  0  0  0  0  0
    7.8090   -2.3140    2.0020 N   0  0  0  0  0  0  0  0  0  0  0  0
    6.6650   -1.7280    2.3420 C   0  0  0  0  0  0  0  0  0  0  0  0
    5.6390   -1.5650    1.4060 C   0  0  0  0  0  0  0  0  0  0  0  0
   -6.5980   -3.8610    2.7070 C   0  0  0  0  0  0  0  0  0  0  0  0
   -6.8590   -4.6680    1.4990 C   0  0  0  0  0  0  0  0  0  0  0  0
  1  2  1  0
  2  3  2  0
  2  7  1  0
  3  4  1  0
  4  5  2  0
  4 36  1  0
  5  6  1  0
  5 35  1  0
  6  7  2  0
  7  8  1  0
  8  9  1  0
  9 10  2  0
  9 11  1  0
 11 12  1  0
 11 20  2  0
 12 13  1  0
 13 14  2  0
 13 15  1  0
 15 16  1  0
 15 19  2  0
 16 17  1  1
 16 18  1  0
 19 20  1  0
 20 21  1  0
 21 22  1  0
 22 23  1  0
 23 24  1  6
 23 25  1  0
 23 26  1  0
 26 27  1  0
 27 28  1  0
 28 29  1  0
 29 30  2  0
 29 34  1  0
 30 31  1  0
 31 32  2  0
 32 33  1  0
 33 34  2  0
 35 36  1  0
M  CHG  3  22   1  27   1  32   1
M  END
