
     RDKit          3D

 36 38  0  0  0  0  0  0  0  0999 V2000
    4.5920    3.0950    2.3650 C   0  0  0  0  0  0  0  0  0  0  0  0
    5.0640    2.2670    1.3500 O   0  0  0  0  0  0  0  0  0  0  0  0
    4.3770    1.1550    0.8840 C   0  0  0  0  0  0  0  0  0  0  0  0
    3.1880    0.8180    1.4080 C   0  0  0  0  0  0  0  0  0  0  0  0
    2.5660   -0.3020    0.8920 C   0  0  0  0  0  0  0  0  0  0  0  0
    3.1000   -1.0400   -0.0880 C   0  0  0  0  0  0  0  0  0  0  0  0
    2.5190   -2.1690   -0.6390 O   0  0  0  0  0  0  0  0  0  0  0  0
    1.2730   -2.6680   -0.2050 C   0  0  0  0  0  0  0  0  0  0  0  0
    0.2510   -1.6170   -0.4210 C   0  0  0  0  0  0  0  0  0  0  0  0
   -0.9210   -1.6450    0.3250 C   0  0  0  0  0  0  0  0  0  0  0  0
   -1.8570   -0.6730    0.1150 C   0  0  0  0  0  0  0  0  0  0  0  0
   -3.0390   -0.6540    0.8280 C   0  0  0  0  0  0  0  0  0  0  0  0
   -3.2700   -1.6330    1.7790 N   0  0  0  0  0  0  0  0  0  0  0  0
   -4.2890   -1.3530    2.7610 C   0  0  2  0  0  0  0  0  0  0  0  0
   -4.0550   -2.3840    3.8830 C   0  0  0  0  0  0  0  0  0  0  0  0
   -5.6740   -1.6170    2.2430 C   0  0  0  0  0  0  0  0  0  0  0  0
   -4.1190   -0.0040    3.4030 C   0  0  0  0  0  0  0  0  0  0  0  0
   -3.9250    0.3810    0.5330 C   0  0  0  0  0  0  0  0  0  0  0  0
   -3.6810    1.3450   -0.4010 C   0  0  0  0  0  0  0  0  0  0  0  0
   -4.6840    2.4160   -0.6550 C   0  0  0  0  0  0  0  0  0  0  0  0
   -5.4330    2.1570   -1.9480 C   0  0  0  0  0  0  0  0  0  0  0  0
   -6.4000    3.2030   -2.1830 N   0  0  0  0  0  0  0  0  0  0  0  0
   -2.4860    1.2840   -1.0880 C   0  0  0  0  0  0  0  0  0  0  0  0
   -2.2300    2.3020   -2.0710 N   0  0  0  0  0  0  0  0  0  0  0  0
   -1.5700    0.2860   -0.8410 C   0  0  0  0  0  0  0  0  0  0  0  0
   -0.4120    0.2790   -1.5500 C   0  0  0  0  0  0  0  0  0  0  0  0
   -0.1380    1.2760   -2.5260 N   0  0  0  0  0  0  0  0  0  0  0  0
    0.4960   -0.6700   -1.3410 N   0  0  0  0  0  0  0  0  0  0  0  0
    4.3750   -0.6700   -0.6430 C   0  0  0  0  0  0  0  0  0  0  0  0
    4.8270   -1.5660   -1.7080 C   0  0  1  0  0  0  0  0  0  0  0  0
    4.7490   -3.0260   -1.2000 C   0  0  0  0  0  0  0  0  0  0  0  0
    3.6910   -1.5080   -2.7970 C   0  0  0  0  0  0  0  0  0  0  0  0
    5.9640   -1.4510   -2.3700 O   0  0  0  0  0  0  0  0  0  0  0  0
    5.0330    0.4070   -0.1860 C   0  0  0  0  0  0  0  0  0  0  0  0
    6.2930    1.0110   -0.5390 C   0  0  0  0  0  0  0  0  0  0  0  0
    7.2000    0.5970   -1.4910 N   0  0  0  0  0  0  0  0  0  0  0  0
  1  2  1  0
  2  3  1  0
  3  4  2  0
  3 34  1  0
  4  5  1  0
  5  6  2  0
  6  7  1  0
  6 29  1  0
  7  8  1  0
  8  9  1  0
  9 10  2  0
  9 28  1  0
 10 11  1  0
 11 12  2  0
 11 25  1  0
 12 13  1  0
 12 18  1  0
 13 14  1  0
 14 15  1  1
 14 16  1  0
 14 17  1  0
 18 19  2  0
 19 20  1  0
 19 23  1  0
 20 21  1  0
 21 22  1  0
 23 24  1  0
 23 25  2  0
 25 26  1  0
 26 27  1  0
 26 28  2  0
 29 30  1  0
 29 34  2  0
 30 31  1  1
 30 32  1  0
 30 33  1  0
 34 35  1  0
 35 36  1  0
M  CHG  3  13   1  22   1  36   1
M  END
