
     RDKit          3D

 11 12  0  0  0  0  0  0  0  0999 V2000
    3.4090    0.4330   -0.2010 C   0  0  0  0  0  0  0  0  0  0  0  0
    2.9490   -0.9160    0.2740 C   0  0  0  0  0  0  0  0  0  0  0  0
    1.4530   -0.8860    0.0730 C   0  0  0  0  0  0  0  0  0  0  0  0
    1.0370    0.5480    0.2560 C   0  0  2  0  0  0  0  0  0  0  0  0
   -0.1930    0.7800   -0.6140 C   0  0  0  0  0  0  0  0  0  0  0  0
   -1.2650   -0.1760   -0.1340 C   0  0  2  0  0  0  0  0  0  0  0  0
   -2.5380   -0.0300   -0.9330 C   0  0  0  0  0  0  0  0  0  0  0  0
   -3.6280   -0.1310    0.1270 C   0  0  0  0  0  0  0  0  0  0  0  0
   -2.8040   -0.5950    1.3300 C   0  0  0  0  0  0  0  0  0  0  0  0
   -1.6470    0.1650    1.1640 O   0  0  0  0  0  0  0  0  0  0  0  0
    2.2250    1.3450   -0.2290 C   0  0  0  0  0  0  0  0  0  0  0  0
  1  2  1  0
  1 11  1  0
  2  3  1  0
  3  4  1  0
  4  5  1  6
  4 11  1  0
  6  5  1  6
  6  7  1  0
  6 10  1  0
  7  8  1  0
  8  9  1  0
  9 10  1  0
M  END
