
     RDKit          3D

 11 12  0  0  0  0  0  0  0  0999 V2000
   -2.3550   -0.3740    1.5020 C   0  0  0  0  0  0  0  0  0  0  0  0
   -1.1280   -0.1370    0.6780 C   0  0  0  0  0  0  0  0  0  0  0  0
    0.1250   -0.0230    1.2360 C   0  0  0  0  0  0  0  0  0  0  0  0
    1.2650    0.1960    0.4780 C   0  0  0  0  0  0  0  0  0  0  0  0
    1.0790    0.2970   -0.8850 C   0  0  0  0  0  0  0  0  0  0  0  0
   -0.1730    0.1840   -1.4530 C   0  0  0  0  0  0  0  0  0  0  0  0
   -1.2980   -0.0340   -0.6840 C   0  0  0  0  0  0  0  0  0  0  0  0
   -2.6410   -0.1550   -1.2980 C   0  0  0  0  0  0  0  0  0  0  0  0
    2.3300    0.5150   -1.4780 O   0  0  0  0  0  0  0  0  0  0  0  0
    3.3480    0.1110   -0.5650 C   0  0  0  0  0  0  0  0  0  0  0  0
    2.7010    0.3580    0.7790 C   0  0  0  0  0  0  0  0  0  0  0  0
  1  2  1  0
  2  3  2  0
  2  7  1  0
  3  4  1  0
  4  5  2  0
  4 11  1  0
  5  6  1  0
  5  9  1  0
  6  7  2  0
  7  8  1  0
  9 10  1  0
 10 11  1  0
M  END
