
     RDKit          3D

 22 23  0  0  0  0  0  0  0  0999 V2000
    5.1530   -1.6110    0.3980 C   0  0  0  0  0  0  0  0  0  0  0  0
    5.3270   -0.2020   -0.1830 C   0  0  2  0  0  0  0  0  0  0  0  0
    5.2370   -0.2670   -1.5440 O   0  0  0  0  0  0  0  0  0  0  0  0
    6.7550    0.2040    0.1710 C   0  0  0  0  0  0  0  0  0  0  0  0
    7.0730    1.4430   -0.3760 O   0  0  0  0  0  0  0  0  0  0  0  0
    4.4180    0.7650    0.4780 C   0  0  0  0  0  0  0  0  0  0  0  0
    3.0050    0.5450    0.2840 N   0  0  0  0  0  0  0  0  0  0  0  0
    2.3190    0.5620   -0.9400 C   0  0  0  0  0  0  0  0  0  0  0  0
    2.9540    0.7910   -1.9970 O   0  0  0  0  0  0  0  0  0  0  0  0
    0.8610    0.3150   -1.0090 C   0  0  0  0  0  0  0  0  0  0  0  0
    0.1430    0.3110   -2.0940 C   0  0  0  0  0  0  0  0  0  0  0  0
   -1.3140    0.0220   -1.7810 C   0  0  0  0  0  0  0  0  0  0  0  0
   -1.3870    0.4860   -0.3700 C   0  0  1  0  0  0  0  0  0  0  0  0
   -2.3510   -0.1500    0.5370 C   0  0  0  0  0  0  0  0  0  0  0  0
   -3.7910   -0.1070    0.2730 C   0  0  2  0  0  0  0  0  0  0  0  0
   -4.4490   -0.8630    1.4610 C   0  0  0  0  0  0  0  0  0  0  0  0
   -5.8130   -0.9020    1.3470 O   0  0  0  0  0  0  0  0  0  0  0  0
   -4.3160   -0.7630   -0.9480 C   0  0  0  0  0  0  0  0  0  0  0  0
   -5.6820   -0.1210   -1.0960 C   0  0  0  0  0  0  0  0  0  0  0  0
   -5.7050    1.0530   -0.2850 N   0  0  0  0  0  0  0  0  0  0  0  0
   -4.4110    1.2600    0.2810 C   0  0  0  0  0  0  0  0  0  0  0  0
   -0.0010    0.0360    0.1440 C   0  0  0  0  0  0  0  0  0  0  0  0
  2  1  1  1
  2  3  1  0
  2  4  1  0
  2  6  1  0
  4  5  1  0
  6  7  1  0
  7  8  1  0
  8  9  2  0
  8 10  1  0
 10 11  2  0
 10 22  1  0
 11 12  1  0
 12 13  1  0
 13 14  1  1
 13 22  1  0
 15 14  1  1
 15 16  1  0
 15 18  1  0
 15 21  1  0
 16 17  1  0
 18 19  1  0
 19 20  1  0
 20 21  1  0
M  END
