
     RDKit          3D

 22 22  0  0  0  0  0  0  0  0999 V2000
    5.3350   -0.7580    0.6840 C   0  0  0  0  0  0  0  0  0  0  0  0
    5.5660    0.4940   -0.1350 C   0  0  2  0  0  0  0  0  0  0  0  0
    7.0150    0.9230    0.0000 C   0  0  0  0  0  0  0  0  0  0  0  0
    7.3590    1.1960    1.3130 O   0  0  0  0  0  0  0  0  0  0  0  0
    4.6920    1.6260    0.3120 C   0  0  0  0  0  0  0  0  0  0  0  0
    3.2200    1.3020    0.1970 C   0  0  0  0  0  0  0  0  0  0  0  0
    2.8150    0.9860   -1.2190 C   0  0  0  0  0  0  0  0  0  0  0  0
    1.4010    0.6930   -1.2530 N   0  0  0  0  0  0  0  0  0  0  0  0
    0.7610   -0.3540   -0.5590 C   0  0  0  0  0  0  0  0  0  0  0  0
    1.5110   -1.1060    0.1600 O   0  0  0  0  0  0  0  0  0  0  0  0
   -0.6360   -0.5920   -0.6270 N   0  0  0  0  0  0  0  0  0  0  0  0
   -1.2070   -1.6820    0.1140 C   0  0  2  0  0  0  0  0  0  0  0  0
   -1.7470   -2.6950   -0.8680 C   0  0  0  0  0  0  0  0  0  0  0  0
   -2.9950   -2.1010   -1.4950 C   0  0  0  0  0  0  0  0  0  0  0  0
   -4.0340   -2.0810   -0.3870 C   0  0  0  0  0  0  0  0  0  0  0  0
   -3.6100   -1.1200    0.6860 C   0  0  2  0  0  0  0  0  0  0  0  0
   -3.9430    0.3240    0.3490 C   0  0  0  0  0  0  0  0  0  0  0  0
   -5.4260    0.5370    0.1530 C   0  0  1  0  0  0  0  0  0  0  0  0
   -6.1510    0.2110    1.2980 O   0  0  0  0  0  0  0  0  0  0  0  0
   -5.6130    2.0490   -0.0350 C   0  0  0  0  0  0  0  0  0  0  0  0
   -4.9100    2.4440   -1.1660 O   0  0  0  0  0  0  0  0  0  0  0  0
   -2.2110   -1.2540    1.1360 C   0  0  0  0  0  0  0  0  0  0  0  0
  2  1  1  1
  2  3  1  0
  2  5  1  0
  3  4  1  0
  5  6  1  0
  6  7  1  0
  7  8  1  0
  8  9  1  0
  9 10  2  0
  9 11  1  0
 12 11  1  6
 12 13  1  0
 12 22  1  0
 13 14  1  0
 14 15  1  0
 15 16  1  0
 16 17  1  6
 16 22  1  0
 17 18  1  0
 18 19  1  1
 18 20  1  0
 20 21  1  0
M  END
