
     RDKit          3D

 22 22  0  0  0  0  0  0  0  0999 V2000
    5.6490    1.6420   -0.2720 C   0  0  0  0  0  0  0  0  0  0  0  0
    4.6130    2.0670   -1.0540 O   0  0  0  0  0  0  0  0  0  0  0  0
    3.5500    1.2250   -1.1830 C   0  0  0  0  0  0  0  0  0  0  0  0
    2.8320    0.9010    0.0660 C   0  0  0  0  0  0  0  0  0  0  0  0
    3.1830    1.4060    1.1510 O   0  0  0  0  0  0  0  0  0  0  0  0
    1.7170    0.0090    0.1010 N   0  0  0  0  0  0  0  0  0  0  0  0
    0.9860   -0.3380    1.2860 C   0  0  2  0  0  0  0  0  0  0  0  0
    1.5410   -1.7110    1.7000 C   0  0  0  0  0  0  0  0  0  0  0  0
    1.3550   -2.6890    0.5930 C   0  0  0  0  0  0  0  0  0  0  0  0
   -0.0500   -2.8940    0.2770 C   0  0  0  0  0  0  0  0  0  0  0  0
   -0.9050   -1.6940    0.5080 C   0  0  0  0  0  0  0  0  0  0  0  0
   -2.3650   -1.8570    0.1730 C   0  0  1  0  0  0  0  0  0  0  0  0
   -2.4640   -2.2860   -1.3140 C   0  0  0  0  0  0  0  0  0  0  0  0
   -2.9700   -2.9260    0.9390 N   0  0  0  0  0  0  0  0  0  0  0  0
   -0.4880   -0.5330    0.9590 C   0  0  0  0  0  0  0  0  0  0  0  0
   -1.4160    0.5720    1.2500 C   0  0  0  0  0  0  0  0  0  0  0  0
   -1.3500    1.7670    0.4260 C   0  0  0  0  0  0  0  0  0  0  0  0
   -0.0480    2.5160    0.2780 C   0  0  0  0  0  0  0  0  0  0  0  0
   -2.3620    2.2960   -0.2110 C   0  0  0  0  0  0  0  0  0  0  0  0
   -2.1330    3.4640   -0.9820 O   0  0  0  0  0  0  0  0  0  0  0  0
   -3.7660    1.8330   -0.2330 C   0  0  0  0  0  0  0  0  0  0  0  0
   -4.5630    2.9070    0.2830 O   0  0  0  0  0  0  0  0  0  0  0  0
  1  2  1  0
  2  3  1  0
  3  4  1  0
  4  5  2  0
  4  6  1  0
  7  6  1  6
  7  8  1  0
  7 15  1  0
  8  9  1  0
  9 10  1  0
 10 11  1  0
 11 12  1  0
 11 15  2  0
 12 13  1  6
 12 14  1  0
 15 16  1  0
 16 17  1  0
 17 18  1  0
 17 19  2  3
 19 20  1  0
 19 21  1  0
 21 22  1  0
M  END
