
     RDKit          3D

 22 22  0  0  0  0  0  0  0  0999 V2000
    2.3010   -2.9820   -0.2580 C   0  0  0  0  0  0  0  0  0  0  0  0
    1.5690   -2.3450    0.8480 C   0  0  0  0  0  0  0  0  0  0  0  0
    1.0260   -0.9200    0.5280 C   0  0  2  0  0  0  0  0  0  0  0  0
    0.1160   -1.0680   -0.5980 C   0  0  0  0  0  0  0  0  0  0  0  0
   -0.6820    0.0640   -1.1180 C   0  0  1  0  0  0  0  0  0  0  0  0
   -1.4510   -0.5360   -2.2970 C   0  0  0  0  0  0  0  0  0  0  0  0
   -1.2830   -0.1470   -3.4610 O   0  0  0  0  0  0  0  0  0  0  0  0
   -2.3640   -1.5650   -1.9380 N   0  0  0  0  0  0  0  0  0  0  0  0
   -2.9610   -1.6240   -0.6480 C   0  0  0  0  0  0  0  0  0  0  0  0
   -3.8720   -2.4240   -0.3370 O   0  0  0  0  0  0  0  0  0  0  0  0
   -2.4900   -0.6810    0.4260 C   0  0  0  0  0  0  0  0  0  0  0  0
   -1.8350    0.4970   -0.2070 C   0  0  1  0  0  0  0  0  0  0  0  0
   -1.4520    1.4910    0.8320 C   0  0  0  0  0  0  0  0  0  0  0  0
   -2.8230    1.1930   -1.1240 C   0  0  0  0  0  0  0  0  0  0  0  0
   -4.0200    1.6870   -0.4120 C   0  0  0  0  0  0  0  0  0  0  0  0
   -4.1860    3.0770   -0.0630 N   0  0  0  0  0  0  0  0  0  0  0  0
   -4.9360    0.9270   -0.0840 O   0  0  0  0  0  0  0  0  0  0  0  0
    2.2810   -0.1150    0.3300 C   0  0  2  0  0  0  0  0  0  0  0  0
    3.0990   -0.1150    1.6040 C   0  0  0  0  0  0  0  0  0  0  0  0
    2.1950    1.1740   -0.3760 C   0  0  0  0  0  0  0  0  0  0  0  0
    3.5550    1.8790   -0.4490 C   0  0  0  0  0  0  0  0  0  0  0  0
    4.4840    1.1040   -1.1080 O   0  0  0  0  0  0  0  0  0  0  0  0
  1  2  1  0
  3  2  1  6
  3  4  1  0
  3 18  1  0
  5  4  1  1
  5  6  1  0
  5 12  1  0
  6  7  2  0
  6  8  1  0
  8  9  1  0
  9 10  2  0
  9 11  1  0
 11 12  1  0
 12 13  1  1
 12 14  1  0
 14 15  1  0
 15 16  1  0
 15 17  2  0
 18 19  1  1
 18 20  1  0
 20 21  1  0
 21 22  1  0
M  END
