
     RDKit          3D

 31 33  0  0  0  0  0  0  0  0999 V2000
    1.1270   -0.6210    0.2780 O   0  0  0  0  0  0  0  0  0  0  0  0
    1.3180    0.5310   -0.1700 C   0  0  0  0  0  0  0  0  0  0  0  0
    0.3290    1.5150   -0.5580 C   0  0  0  0  0  0  0  0  0  0  0  0
   -1.0320    1.1200   -0.4740 N   0  0  0  0  0  0  0  0  0  0  0  0
   -1.9820    2.2450   -0.5080 C   0  0  0  0  0  0  0  0  0  0  0  0
   -3.3760    1.8670   -0.1380 C   0  0  1  0  0  0  0  0  0  0  0  0
   -4.4790    3.2710   -0.7270 P   0  0  0  0  0  0  0  0  0  0  0  0
   -3.5290    4.7290   -0.9240 O   0  0  0  0  0  0  0  0  0  0  0  0
   -5.7920    3.5200    0.3710 O   0  0  0  0  0  0  0  0  0  0  0  0
   -3.7470    0.6440   -0.8350 N   0  0  0  0  0  0  0  0  0  0  0  0
   -2.9790   -0.4250   -0.2410 C   0  0  1  0  0  0  0  0  0  0  0  0
   -3.4310   -0.8040    1.4940 P   0  0  0  0  0  0  0  0  0  0  0  0
   -2.1470   -1.5980    2.3490 O   0  0  0  0  0  0  0  0  0  0  0  0
   -5.2000   -2.1490    1.4620 P   0  0  0  0  0  0  0  0  0  0  0  0
   -5.9590   -2.0860   -0.1170 O   0  0  0  0  0  0  0  0  0  0  0  0
   -4.6630   -3.7790    1.7410 O   0  0  0  0  0  0  0  0  0  0  0  0
   -3.1320   -1.6370   -0.9650 O   0  0  0  0  0  0  0  0  0  0  0  0
   -2.0830   -2.3070   -0.4140 O   0  0  0  0  0  0  0  0  0  0  0  0
   -1.0440   -1.3830   -0.5470 N   0  0  0  0  0  0  0  0  0  0  0  0
   -1.5160   -0.1990   -0.4400 C   0  0  0  0  0  0  0  0  0  0  0  0
    2.7360    0.8510   -0.2890 N   0  0  0  0  0  0  0  0  0  0  0  0
    3.7520   -0.0520    0.1340 C   0  0  0  0  0  0  0  0  0  0  0  0
    5.0730    0.1650    0.0110 N   0  0  0  0  0  0  0  0  0  0  0  0
    5.7750   -0.8700    0.5020 C   0  0  0  0  0  0  0  0  0  0  0  0
    7.2170   -0.9890    0.5340 C   0  0  0  0  0  0  0  0  0  0  0  0
    7.9440   -0.0830    0.0680 O   0  0  0  0  0  0  0  0  0  0  0  0
    7.8020   -2.1050    1.0820 O   0  0  0  0  0  0  0  0  0  0  0  0
    9.1090   -2.2680    1.1370 O   0  0  0  0  0  0  0  0  0  0  0  0
    9.5930   -2.4110   -0.0920 O   0  0  0  0  0  0  0  0  0  0  0  0
    4.8260   -1.7640    0.9480 C   0  0  0  0  0  0  0  0  0  0  0  0
    3.6480   -1.2300    0.7060 O   0  0  0  0  0  0  0  0  0  0  0  0
  1  2  2  0
  2  3  1  0
  2 21  1  0
  3  4  1  0
  4  5  1  0
  4 20  1  0
  5  6  1  0
  6  7  1  6
  6 10  1  0
  7  8  1  0
  7  9  1  0
 10 11  1  0
 11 12  1  1
 11 17  1  0
 11 20  1  0
 12 13  1  0
 12 14  1  0
 14 15  1  0
 14 16  1  0
 17 18  1  0
 18 19  1  0
 19 20  2  0
 21 22  1  0
 22 23  2  0
 22 31  1  0
 23 24  1  0
 24 25  1  0
 24 30  2  0
 25 26  2  0
 25 27  1  0
 27 28  1  0
 28 29  1  0
 30 31  1  0
M  END
