
     RDKit          3D

 30 31  0  0  0  0  0  0  0  0999 V2000
   -4.9890   -2.9810   -2.2750 O   0  0  0  0  0  0  0  0  0  0  0  0
   -3.9630   -2.0990   -3.0660 P   0  0  0  0  0  0  0  0  0  0  0  0
   -2.8470   -1.0120   -2.1940 N   0  0  0  0  0  0  0  0  0  0  0  0
   -2.6810   -1.0550   -0.7880 C   0  0  0  0  0  0  0  0  0  0  0  0
   -3.3540   -1.8980   -0.1450 O   0  0  0  0  0  0  0  0  0  0  0  0
   -1.7400   -0.1360   -0.0720 C   0  0  1  0  0  0  0  0  0  0  0  0
   -2.2040    1.3140   -0.2680 C   0  0  0  0  0  0  0  0  0  0  0  0
   -3.4950    1.4820    0.2400 O   0  0  0  0  0  0  0  0  0  0  0  0
   -3.9280    3.1410   -0.0270 P   0  0  0  0  0  0  0  0  0  0  0  0
   -4.2460    3.8620    1.5340 O   0  0  0  0  0  0  0  0  0  0  0  0
   -2.6730    4.0400   -0.7800 O   0  0  0  0  0  0  0  0  0  0  0  0
   -1.7600   -0.3870    1.3530 N   0  0  0  0  0  0  0  0  0  0  0  0
   -0.4470   -0.0570    1.7910 C   0  0  0  0  0  0  0  0  0  0  0  0
   -0.0900    0.3010    2.9270 O   0  0  0  0  0  0  0  0  0  0  0  0
    0.4080   -0.2360    0.5890 C   0  0  1  0  0  0  0  0  0  0  0  0
    1.3710    0.9250    0.4560 C   0  0  0  0  0  0  0  0  0  0  0  0
    2.1570    0.8180   -0.7150 O   0  0  0  0  0  0  0  0  0  0  0  0
    3.1030    1.7870   -1.0170 C   0  0  0  0  0  0  0  0  0  0  0  0
    3.2350    2.7670   -0.2080 O   0  0  0  0  0  0  0  0  0  0  0  0
    3.9030    1.7620   -2.1240 O   0  0  0  0  0  0  0  0  0  0  0  0
    5.0990    2.9940   -2.4990 P   0  0  0  0  0  0  0  0  0  0  0  0
    5.3170    4.1330   -1.4600 O   0  0  0  0  0  0  0  0  0  0  0  0
    1.1490   -1.5100    0.7680 C   0  0  0  0  0  0  0  0  0  0  0  0
    1.0260   -2.2720    1.8000 N   0  0  0  0  0  0  0  0  0  0  0  0
    1.7490   -3.4890    1.9460 C   0  0  0  0  0  0  0  0  0  0  0  0
    1.6520   -4.2540    2.9370 O   0  0  0  0  0  0  0  0  0  0  0  0
    2.6400   -3.8710    0.9070 N   0  0  0  0  0  0  0  0  0  0  0  0
    3.1160   -2.8420    0.0110 C   0  0  0  0  0  0  0  0  0  0  0  0
    2.0500   -1.9270   -0.2500 N   0  0  0  0  0  0  0  0  0  0  0  0
   -0.4480   -0.2910   -0.4800 O   0  0  0  0  0  0  0  0  0  0  0  0
  1  2  2  0
  2  3  1  0
  3  4  1  0
  4  5  2  0
  4  6  1  0
  6  7  1  1
  6 12  1  0
  6 30  1  0
  7  8  1  0
  8  9  1  0
  9 10  1  0
  9 11  1  0
 12 13  1  0
 13 14  2  0
 13 15  1  0
 15 16  1  6
 15 23  1  0
 15 30  1  0
 16 17  1  0
 17 18  1  0
 18 19  2  0
 18 20  1  0
 20 21  1  0
 21 22  2  0
 23 24  2  0
 23 29  1  0
 24 25  1  0
 25 26  2  0
 25 27  1  0
 27 28  1  0
 28 29  1  0
M  END
