
     RDKit          3D

 31 33  0  0  0  0  0  0  0  0999 V2000
   -2.9010   -2.9780    2.9500 O   0  0  0  0  0  0  0  0  0  0  0  0
   -2.9760   -2.1760    1.9640 C   0  0  0  0  0  0  0  0  0  0  0  0
   -1.9350   -1.3200    1.6640 O   0  0  0  0  0  0  0  0  0  0  0  0
   -2.1060   -0.0590    1.0540 C   0  0  1  0  0  0  0  0  0  0  0  0
   -2.0290    1.0210    2.0370 C   0  0  0  0  0  0  0  0  0  0  0  0
   -2.1700    2.2270    1.6700 O   0  0  0  0  0  0  0  0  0  0  0  0
   -1.8040    0.7520    3.3710 O   0  0  0  0  0  0  0  0  0  0  0  0
   -1.0650    0.0670   -0.0100 C   0  0  0  0  0  0  0  0  0  0  0  0
    0.1430   -0.3340    0.0120 N   0  0  0  0  0  0  0  0  0  0  0  0
    0.5760   -0.9760    1.1560 O   0  0  0  0  0  0  0  0  0  0  0  0
    2.2320   -0.7560    1.7050 P   0  0  0  0  0  0  0  0  0  0  0  0
    2.5620    0.9090    2.0820 O   0  0  0  0  0  0  0  0  0  0  0  0
    3.2730   -1.2240    0.4010 O   0  0  0  0  0  0  0  0  0  0  0  0
    3.7250    0.2370   -0.4520 P   0  0  0  0  0  0  0  0  0  0  0  0
    3.3180    0.0660   -2.1190 O   0  0  0  0  0  0  0  0  0  0  0  0
    5.4980    0.4170   -0.2870 N   0  0  0  0  0  0  0  0  0  0  0  0
    6.4750   -0.4540   -0.9030 C   0  0  0  0  0  0  0  0  0  0  0  0
    7.5980   -0.3750    0.1410 C   0  0  0  0  0  0  0  0  0  0  0  0
    7.6040    1.0120    0.4240 O   0  0  0  0  0  0  0  0  0  0  0  0
    6.2500    1.3840    0.4300 C   0  0  0  0  0  0  0  0  0  0  0  0
    5.7350    2.4020    0.9720 O   0  0  0  0  0  0  0  0  0  0  0  0
   -1.7290    0.7340   -1.0690 N   0  0  0  0  0  0  0  0  0  0  0  0
   -3.0120    0.6810   -0.9030 C   0  0  0  0  0  0  0  0  0  0  0  0
   -3.9860    1.2430   -1.7700 N   0  0  0  0  0  0  0  0  0  0  0  0
   -3.6180    1.6730   -3.4610 P   0  0  0  0  0  0  0  0  0  0  0  0
   -4.2240    0.3780   -4.4760 O   0  0  0  0  0  0  0  0  0  0  0  0
   -4.5600    3.0880   -3.8650 O   0  0  0  0  0  0  0  0  0  0  0  0
   -3.3400   -0.0220    0.2730 N   0  0  0  0  0  0  0  0  0  0  0  0
   -4.5050   -0.6620    0.8240 C   0  0  0  0  0  0  0  0  0  0  0  0
   -4.1900   -2.1300    1.0940 C   0  0  1  0  0  0  0  0  0  0  0  0
   -3.9030   -2.7220   -0.1370 O   0  0  0  0  0  0  0  0  0  0  0  0
  1  2  2  0
  2  3  1  0
  2 30  1  0
  3  4  1  0
  4  5  1  1
  4  8  1  0
  4 28  1  0
  5  6  2  0
  5  7  1  0
  8  9  2  3
  8 22  1  0
  9 10  1  0
 10 11  1  0
 11 12  1  0
 11 13  1  0
 13 14  1  0
 14 15  1  0
 14 16  1  0
 16 17  1  0
 16 20  1  0
 17 18  1  0
 18 19  1  0
 19 20  1  0
 20 21  2  0
 22 23  2  0
 23 24  1  0
 23 28  1  0
 24 25  1  0
 25 26  1  0
 25 27  1  0
 28 29  1  0
 29 30  1  0
 30 31  1  6
M  END
