
     RDKit          3D

 30 31  0  0  0  0  0  0  0  0999 V2000
   -3.0370   -2.3800   -0.0890 N   0  0  0  0  0  0  0  0  0  0  0  0
   -2.7800   -1.2450    0.4680 C   0  0  0  0  0  0  0  0  0  0  0  0
   -3.1130   -1.0840    1.8230 N   0  0  0  0  0  0  0  0  0  0  0  0
   -3.9050   -2.3330    2.8240 P   0  0  0  0  0  0  0  0  0  0  0  0
   -5.6240   -2.3640    2.6060 O   0  0  0  0  0  0  0  0  0  0  0  0
   -3.1960   -3.8870    2.6370 O   0  0  0  0  0  0  0  0  0  0  0  0
   -2.1770   -0.2240   -0.3110 N   0  0  0  0  0  0  0  0  0  0  0  0
   -0.9320    0.4170    0.0450 C   0  0  0  0  0  0  0  0  0  0  0  0
    0.1600   -0.5630   -0.0820 C   0  0  0  0  0  0  0  0  0  0  0  0
   -0.1260   -1.7270   -0.4550 O   0  0  0  0  0  0  0  0  0  0  0  0
    1.5230   -0.2480    0.1980 N   0  0  0  0  0  0  0  0  0  0  0  0
    2.1120    1.0020    0.6370 C   0  0  0  0  0  0  0  0  0  0  0  0
    3.5070    1.0260    0.0180 C   0  0  1  0  0  0  0  0  0  0  0  0
    3.5600    1.9190   -1.0500 O   0  0  0  0  0  0  0  0  0  0  0  0
    4.5170    1.4700    1.0480 C   0  0  0  0  0  0  0  0  0  0  0  0
    5.8410    1.4680    0.4620 N   0  0  0  0  0  0  0  0  0  0  0  0
    3.8070   -0.3730   -0.4240 C   0  0  2  0  0  0  0  0  0  0  0  0
    4.0400   -0.4930   -1.7710 O   0  0  0  0  0  0  0  0  0  0  0  0
    2.9870   -0.9300   -2.5220 C   0  0  0  0  0  0  0  0  0  0  0  0
    2.5330   -2.2270   -2.1080 O   0  0  0  0  0  0  0  0  0  0  0  0
    2.3270   -2.3500   -0.7300 C   0  0  0  0  0  0  0  0  0  0  0  0
    1.9020   -3.3890   -0.1770 O   0  0  0  0  0  0  0  0  0  0  0  0
    2.6410   -1.1620    0.0910 C   0  0  2  0  0  0  0  0  0  0  0  0
   -3.0660    0.2540   -1.8160 P   0  0  0  0  0  0  0  0  0  0  0  0
   -4.7570    0.4350   -1.4780 O   0  0  0  0  0  0  0  0  0  0  0  0
   -5.0040    0.0490   -0.2450 O   0  0  0  0  0  0  0  0  0  0  0  0
   -2.3950    1.7550   -2.3900 O   0  0  0  0  0  0  0  0  0  0  0  0
   -3.3790    3.1010   -1.9030 P   0  0  0  0  0  0  0  0  0  0  0  0
   -2.7790    3.7270   -0.4100 O   0  0  0  0  0  0  0  0  0  0  0  0
   -5.0520    2.5950   -1.7400 O   0  0  0  0  0  0  0  0  0  0  0  0
  1  2  2  0
  2  3  1  0
  2  7  1  0
  3  4  1  0
  4  5  1  0
  4  6  1  0
  7  8  1  0
  7 24  1  0
  8  9  1  0
  9 10  2  0
  9 11  1  0
 11 12  1  0
 23 11  1  6
 12 13  1  0
 13 14  1  6
 13 15  1  0
 13 17  1  0
 15 16  1  0
 17 18  1  6
 17 23  1  0
 18 19  1  0
 19 20  1  0
 20 21  1  0
 21 22  2  0
 21 23  1  0
 24 25  1  0
 24 27  1  0
 25 26  1  0
 27 28  1  0
 28 29  1  0
 28 30  1  0
M  END
