
     RDKit          3D

 31 33  0  0  0  0  0  0  0  0999 V2000
   -8.1660   -0.2420   -1.1500 N   0  0  0  0  0  0  0  0  0  0  0  0
   -7.0230    0.4490   -0.6670 C   0  0  0  0  0  0  0  0  0  0  0  0
   -7.0630    1.7690   -0.4050 N   0  0  0  0  0  0  0  0  0  0  0  0
   -5.9710    2.4270    0.0560 C   0  0  0  0  0  0  0  0  0  0  0  0
   -4.8020    1.7960    0.2720 N   0  0  0  0  0  0  0  0  0  0  0  0
   -4.7030    0.4680    0.0250 C   0  0  0  0  0  0  0  0  0  0  0  0
   -5.8120   -0.1860   -0.4400 C   0  0  0  0  0  0  0  0  0  0  0  0
   -5.4770   -1.4660   -0.6060 N   0  0  0  0  0  0  0  0  0  0  0  0
   -4.1730   -1.5920   -0.2450 C   0  0  0  0  0  0  0  0  0  0  0  0
   -3.6870   -0.4100    0.1440 N   0  0  0  0  0  0  0  0  0  0  0  0
   -2.3490   -0.1150    0.6030 C   0  0  2  0  0  0  0  0  0  0  0  0
   -1.5000    0.2630   -0.4230 O   0  0  0  0  0  0  0  0  0  0  0  0
   -0.2760    0.3180    0.1960 C   0  0  2  0  0  0  0  0  0  0  0  0
    0.8930    0.2170   -0.7580 C   0  0  0  0  0  0  0  0  0  0  0  0
    2.0550    0.2910    0.0440 O   0  0  0  0  0  0  0  0  0  0  0  0
    3.3960    0.1860   -0.9490 P   0  0  1  0  0  0  0  0  0  0  0  0
    3.0780   -0.7350   -2.1100 O   0  0  0  0  0  0  0  0  0  0  0  0
    3.8620    1.6750   -1.5760 O   0  0  0  0  0  0  0  0  0  0  0  0
    4.6810   -0.4300   -0.0250 O   0  0  0  0  0  0  0  0  0  0  0  0
    5.7770   -1.2790   -0.9790 P   0  0  2  0  0  0  0  0  0  0  0  0
    5.4980   -1.0600   -2.4620 O   0  0  0  0  0  0  0  0  0  0  0  0
    5.5780   -2.9310   -0.6270 O   0  0  0  0  0  0  0  0  0  0  0  0
    7.3580   -0.7760   -0.6960 O   0  0  0  0  0  0  0  0  0  0  0  0
    7.3910    0.8210   -0.1420 P   0  0  2  0  0  0  0  0  0  0  0  0
    7.1730    1.7590   -1.3160 O   0  0  0  0  0  0  0  0  0  0  0  0
    8.9010    1.0840    0.5850 O   0  0  0  0  0  0  0  0  0  0  0  0
    6.1800    1.0490    1.0340 O   0  0  0  0  0  0  0  0  0  0  0  0
   -0.2020   -0.8860    1.1270 C   0  0  1  0  0  0  0  0  0  0  0  0
    0.1870   -0.4460    2.3920 O   0  0  0  0  0  0  0  0  0  0  0  0
   -1.6500   -1.3450    1.1430 C   0  0  1  0  0  0  0  0  0  0  0  0
   -2.0710   -1.6570    2.4330 O   0  0  0  0  0  0  0  0  0  0  0  0
  1  2  1  0
  2  3  2  0
  2  7  1  0
  3  4  1  0
  4  5  2  0
  5  6  1  0
  6  7  2  0
  6 10  1  0
  7  8  1  0
  8  9  2  0
  9 10  1  0
 11 10  1  6
 11 12  1  0
 11 30  1  0
 12 13  1  0
 13 14  1  6
 13 28  1  0
 14 15  1  0
 15 16  1  0
 16 17  2  0
 16 18  1  6
 16 19  1  0
 19 20  1  0
 20 21  2  0
 20 22  1  6
 20 23  1  0
 23 24  1  0
 24 25  2  0
 24 26  1  1
 24 27  1  0
 28 29  1  1
 28 30  1  0
 30 31  1  1
M  END
