
     RDKit          3D

 31 32  0  0  0  0  0  0  0  0999 V2000
   -0.8650   -1.5080    1.1760 N   0  0  0  0  0  0  0  0  0  0  0  0
   -1.5900   -0.7840    0.4000 C   0  0  0  0  0  0  0  0  0  0  0  0
   -1.2690    0.5960    0.2350 N   0  0  0  0  0  0  0  0  0  0  0  0
   -0.3700    0.9950   -0.8200 C   0  0  0  0  0  0  0  0  0  0  0  0
    1.0210    0.5210   -0.6290 C   0  0  0  0  0  0  0  0  0  0  0  0
    1.6250   -0.3420   -1.3720 N   0  0  0  0  0  0  0  0  0  0  0  0
    2.9280   -0.5930   -0.9460 N   0  0  0  0  0  0  0  0  0  0  0  0
    3.8400   -1.5280   -1.5990 C   0  0  1  0  0  0  0  0  0  0  0  0
    5.2060   -0.9650   -1.8110 C   0  0  0  0  0  0  0  0  0  0  0  0
    5.5660   -1.4970   -0.5650 O   0  0  0  0  0  0  0  0  0  0  0  0
    4.5580   -2.4320   -0.6930 C   0  0  0  0  0  0  0  0  0  0  0  0
    4.3880   -3.5740   -0.2040 O   0  0  0  0  0  0  0  0  0  0  0  0
    3.1730    0.1990    0.1930 C   0  0  0  0  0  0  0  0  0  0  0  0
    4.2240    0.2440    0.8500 O   0  0  0  0  0  0  0  0  0  0  0  0
    1.9280    0.9700    0.4520 C   0  0  1  0  0  0  0  0  0  0  0  0
    2.2150    2.3060    0.4040 O   0  0  0  0  0  0  0  0  0  0  0  0
    1.8490    2.9280    1.4580 O   0  0  0  0  0  0  0  0  0  0  0  0
    1.9070    2.1200    2.9490 P   0  0  0  0  0  0  0  0  0  0  0  0
    2.9920    1.2000    3.4970 O   0  0  0  0  0  0  0  0  0  0  0  0
   -1.8980    1.5110    1.1570 C   0  0  0  0  0  0  0  0  0  0  0  0
   -1.5260    3.2770    0.8030 P   0  0  0  0  0  0  0  0  0  0  0  0
   -1.4700    4.2300    2.2620 O   0  0  0  0  0  0  0  0  0  0  0  0
   -2.7670    3.9170   -0.2330 O   0  0  0  0  0  0  0  0  0  0  0  0
   -2.6760   -1.4020   -0.2570 N   0  0  0  0  0  0  0  0  0  0  0  0
   -3.7250   -2.0220    0.4610 C   0  0  0  0  0  0  0  0  0  0  0  0
   -4.7020   -2.5740   -0.1410 O   0  0  0  0  0  0  0  0  0  0  0  0
   -3.7610   -2.0680    1.8470 O   0  0  0  0  0  0  0  0  0  0  0  0
   -4.7880   -2.6740    2.4910 O   0  0  0  0  0  0  0  0  0  0  0  0
   -2.7240   -1.3970   -2.0430 P   0  0  0  0  0  0  0  0  0  0  0  0
   -3.2800    0.1080   -2.6640 O   0  0  0  0  0  0  0  0  0  0  0  0
   -3.6580   -2.6950   -2.6690 O   0  0  0  0  0  0  0  0  0  0  0  0
  1  2  2  0
  2  3  1  0
  2 24  1  0
  3  4  1  0
  3 20  1  0
  4  5  1  0
  5  6  2  0
  5 15  1  0
  6  7  1  0
  8  7  1  1
  7 13  1  0
  8  9  1  0
  8 11  1  0
  9 10  1  0
 10 11  1  0
 11 12  2  0
 13 14  2  0
 13 15  1  0
 15 16  1  6
 16 17  1  0
 17 18  1  0
 18 19  2  0
 20 21  1  0
 21 22  1  0
 21 23  1  0
 24 25  1  0
 24 29  1  0
 25 26  2  0
 25 27  1  0
 27 28  1  0
 29 30  1  0
 29 31  1  0
M  END
