
     RDKit          3D

 23 24  0  0  0  0  0  0  0  0999 V2000
   -1.5980    1.4000    2.8850 C   0  0  0  0  0  0  0  0  0  0  0  0
   -1.7360    0.7970    1.5280 C   0  0  0  0  0  0  0  0  0  0  0  0
   -0.5780    0.5690    0.7660 C   0  0  0  0  0  0  0  0  0  0  0  0
   -0.7040    0.0160   -0.4760 C   0  0  0  0  0  0  0  0  0  0  0  0
    0.4010   -0.2780   -1.2940 N   0  0  0  0  0  0  0  0  0  0  0  0
    1.7030   -0.4270   -0.8360 C   0  0  0  0  0  0  0  0  0  0  0  0
    1.9980   -0.3140    0.3700 O   0  0  0  0  0  0  0  0  0  0  0  0
    2.7550   -0.7210   -1.7680 N   0  0  0  0  0  0  0  0  0  0  0  0
    4.0770   -0.8850   -1.3530 N   0  0  0  0  0  0  0  0  0  0  0  0
    4.7260    0.1160   -0.6170 C   0  0  0  0  0  0  0  0  0  0  0  0
    4.1020    1.1490   -0.3470 O   0  0  0  0  0  0  0  0  0  0  0  0
    6.1580   -0.0510   -0.1590 C   0  0  0  0  0  0  0  0  0  0  0  0
    6.8780    0.9600    0.2750 C   0  0  0  0  0  0  0  0  0  0  0  0
    8.1920    0.7950    0.7000 C   0  0  0  0  0  0  0  0  0  0  0  0
    8.3740   -1.0200    0.4320 S   0  0  0  0  0  0  0  0  0  0  0  0
    6.6810   -1.3120   -0.2080 C   0  0  0  0  0  0  0  0  0  0  0  0
   -1.9680   -0.3050   -0.9520 C   0  0  0  0  0  0  0  0  0  0  0  0
   -3.0880   -0.0640   -0.1700 C   0  0  0  0  0  0  0  0  0  0  0  0
   -4.3760   -0.4530   -0.7770 C   0  0  0  0  0  0  0  0  0  0  0  0
   -5.5810   -0.2570    0.0640 C   0  0  0  0  0  0  0  0  0  0  0  0
   -6.7260   -0.7210   -0.7460 N   0  0  0  0  0  0  0  0  0  0  0  0
   -2.9870    0.4900    1.0810 C   0  0  0  0  0  0  0  0  0  0  0  0
   -4.1350    0.7050    1.8100 O   0  0  0  0  0  0  0  0  0  0  0  0
  1  2  1  0
  2  3  2  0
  2 22  1  0
  3  4  1  0
  4  5  1  0
  4 17  2  0
  5  6  1  0
  6  7  2  0
  6  8  1  0
  8  9  1  0
  9 10  1  0
 10 11  2  0
 10 12  1  0
 12 13  1  0
 12 16  2  0
 13 14  2  0
 14 15  1  0
 15 16  1  0
 17 18  1  0
 18 19  1  0
 18 22  2  0
 19 20  1  0
 20 21  1  0
 22 23  1  0
M  CHG  1  21   1
M  END
