
     RDKit          3D

 23 24  0  0  0  0  0  0  0  0999 V2000
    6.5520   -2.2070   -0.2340 C   0  0  0  0  0  0  0  0  0  0  0  0
    6.8740   -1.2990    0.7310 O   0  0  0  0  0  0  0  0  0  0  0  0
    6.7660    0.0090    0.3760 C   0  0  0  0  0  0  0  0  0  0  0  0
    5.3640    0.4590    0.1660 C   0  0  0  0  0  0  0  0  0  0  0  0
    5.1840    1.5810   -0.4190 O   0  0  0  0  0  0  0  0  0  0  0  0
    4.2180   -0.2430    0.5660 N   0  0  0  0  0  0  0  0  0  0  0  0
    2.8850    0.0590    0.4290 N   0  0  0  0  0  0  0  0  0  0  0  0
    2.2470    1.0570   -0.3070 C   0  0  0  0  0  0  0  0  0  0  0  0
    2.9030    1.8610   -0.9820 O   0  0  0  0  0  0  0  0  0  0  0  0
    0.7910    1.2170   -0.3300 C   0  0  0  0  0  0  0  0  0  0  0  0
   -0.2480    0.5700    0.2190 C   0  0  0  0  0  0  0  0  0  0  0  0
   -1.5070    0.9650   -0.0020 C   0  0  0  0  0  0  0  0  0  0  0  0
   -2.7370    0.3220    0.5400 C   0  0  0  0  0  0  0  0  0  0  0  0
   -3.0470    0.4600    1.8840 C   0  0  0  0  0  0  0  0  0  0  0  0
   -4.1670   -0.1430    2.4120 C   0  0  0  0  0  0  0  0  0  0  0  0
   -5.0010   -0.8910    1.6250 C   0  0  0  0  0  0  0  0  0  0  0  0
   -4.7110   -1.0390    0.2900 C   0  0  0  0  0  0  0  0  0  0  0  0
   -5.5780   -1.8160   -0.5090 N   0  0  0  0  0  0  0  0  0  0  0  0
   -3.5850   -0.4320   -0.2400 C   0  0  0  0  0  0  0  0  0  0  0  0
   -3.2740   -0.5680   -1.6110 N   0  0  0  0  0  0  0  0  0  0  0  0
   -1.6620    2.0840   -0.8330 C   0  0  0  0  0  0  0  0  0  0  0  0
   -2.8880    2.7760   -1.2650 C   0  0  0  0  0  0  0  0  0  0  0  0
   -0.0800    2.5230   -1.2600 S   0  0  0  0  0  0  0  0  0  0  0  0
  1  2  1  0
  2  3  1  0
  3  4  1  0
  4  5  2  0
  4  6  1  0
  6  7  1  0
  7  8  1  0
  8  9  2  0
  8 10  1  0
 10 11  2  0
 10 23  1  0
 11 12  1  0
 12 13  1  0
 12 21  2  0
 13 14  2  0
 13 19  1  0
 14 15  1  0
 15 16  2  0
 16 17  1  0
 17 18  1  0
 17 19  2  0
 19 20  1  0
 21 22  1  0
 21 23  1  0
M  CHG  1  18   1
M  END
