
     RDKit          3D

 23 24  0  0  0  0  0  0  0  0999 V2000
   -4.3710    3.3780    0.1930 C   0  0  0  0  0  0  0  0  0  0  0  0
   -3.3470    2.8050   -0.3590 C   0  0  0  0  0  0  0  0  0  0  0  0
   -3.0000    1.3700   -0.3120 C   0  0  0  0  0  0  0  0  0  0  0  0
   -1.6470    1.0130   -0.1900 C   0  0  0  0  0  0  0  0  0  0  0  0
   -1.2110   -0.2810   -0.1610 C   0  0  0  0  0  0  0  0  0  0  0  0
    0.1760   -0.5480   -0.0480 N   0  0  0  0  0  0  0  0  0  0  0  0
    1.2200    0.3750    0.0990 C   0  0  0  0  0  0  0  0  0  0  0  0
    1.0190    1.5890    0.1500 O   0  0  0  0  0  0  0  0  0  0  0  0
    2.5900   -0.0890    0.1980 N   0  0  0  0  0  0  0  0  0  0  0  0
    3.6370    0.8230    0.3450 N   0  0  0  0  0  0  0  0  0  0  0  0
    4.9850    0.4320    0.4960 C   0  0  0  0  0  0  0  0  0  0  0  0
    5.2310   -0.7950    0.4950 O   0  0  0  0  0  0  0  0  0  0  0  0
    6.1050    1.3850    0.6540 C   0  0  0  0  0  0  0  0  0  0  0  0
    7.3960    0.6000    0.7870 C   0  0  0  0  0  0  0  0  0  0  0  0
    7.6160   -0.1820   -0.3430 O   0  0  0  0  0  0  0  0  0  0  0  0
   -2.1400   -1.3140   -0.2550 C   0  0  0  0  0  0  0  0  0  0  0  0
   -3.4670   -0.9540   -0.3740 C   0  0  0  0  0  0  0  0  0  0  0  0
   -3.9040    0.3600   -0.4040 C   0  0  0  0  0  0  0  0  0  0  0  0
   -5.3040    0.6470   -0.5690 N   0  0  0  0  0  0  0  0  0  0  0  0
   -4.7500   -2.2050   -0.5040 S   0  0  0  0  0  0  0  0  0  0  0  0
   -3.9860   -3.8060   -0.4330 C   0  0  0  0  0  0  0  0  0  0  0  0
   -2.5320   -3.7220   -0.3000 C   0  0  0  0  0  0  0  0  0  0  0  0
   -1.7300   -2.6970   -0.2230 C   0  0  0  0  0  0  0  0  0  0  0  0
  1  2  2  0
  2  3  1  0
  3  4  2  0
  3 18  1  0
  4  5  1  0
  5  6  1  0
  5 16  2  0
  6  7  1  0
  7  8  2  0
  7  9  1  0
  9 10  1  0
 10 11  1  0
 11 12  2  0
 11 13  1  0
 13 14  1  0
 14 15  1  0
 16 17  1  0
 16 23  1  0
 17 18  2  0
 17 20  1  0
 18 19  1  0
 20 21  1  0
 21 22  1  0
 22 23  2  0
M  CHG  1  19   1
M  END
