
     RDKit          3D

 23 24  0  0  0  0  0  0  0  0999 V2000
   -5.6020   -2.4370    0.3350 C   0  0  0  0  0  0  0  0  0  0  0  0
   -4.9830   -1.1200    0.1030 C   0  0  0  0  0  0  0  0  0  0  0  0
   -4.0570   -1.0000   -0.8560 C   0  0  0  0  0  0  0  0  0  0  0  0
   -3.3780    0.1840   -1.2000 N   0  0  0  0  0  0  0  0  0  0  0  0
   -2.9680    1.1810   -0.4910 C   0  0  0  0  0  0  0  0  0  0  0  0
   -2.3040    2.2300   -1.2240 N   0  0  0  0  0  0  0  0  0  0  0  0
   -3.0850    1.4410    0.9080 C   0  0  0  0  0  0  0  0  0  0  0  0
   -2.0770    2.1870    1.6620 C   0  0  0  0  0  0  0  0  0  0  0  0
   -0.5130    1.4540    1.9480 S   0  0  0  0  0  0  0  0  0  0  0  0
    0.5770    1.2760    0.6390 C   0  0  0  0  0  0  0  0  0  0  0  0
    0.4170    1.7220   -0.5170 O   0  0  0  0  0  0  0  0  0  0  0  0
    1.8520    0.5110    0.9140 C   0  0  0  0  0  0  0  0  0  0  0  0
    2.0730    0.0400    2.0470 O   0  0  0  0  0  0  0  0  0  0  0  0
    2.7970    0.3240   -0.1050 N   0  0  0  0  0  0  0  0  0  0  0  0
    4.0270   -0.3510   -0.0430 C   0  0  0  0  0  0  0  0  0  0  0  0
    4.5260   -0.9660    1.0760 C   0  0  0  0  0  0  0  0  0  0  0  0
    5.7540   -1.6320    1.1130 C   0  0  0  0  0  0  0  0  0  0  0  0
    6.5350   -1.6960   -0.0170 C   0  0  0  0  0  0  0  0  0  0  0  0
    6.0480   -1.0830   -1.1510 C   0  0  0  0  0  0  0  0  0  0  0  0
    4.8410   -0.4310   -1.1810 C   0  0  0  0  0  0  0  0  0  0  0  0
    4.3820    0.1800   -2.3560 O   0  0  0  0  0  0  0  0  0  0  0  0
   -4.1180    1.0750    1.7030 C   0  0  0  0  0  0  0  0  0  0  0  0
   -5.5920    0.1710    1.2200 S   0  0  0  0  0  0  0  0  0  0  0  0
  1  2  1  0
  2  3  2  0
  2 23  1  0
  3  4  1  0
  4  5  2  0
  5  6  1  0
  5  7  1  0
  7  8  1  0
  7 22  2  0
  8  9  1  0
  9 10  1  0
 10 11  2  0
 10 12  1  0
 12 13  2  0
 12 14  1  0
 14 15  1  0
 15 16  2  0
 15 20  1  0
 16 17  1  0
 17 18  2  0
 18 19  1  0
 19 20  2  0
 20 21  1  0
 22 23  1  0
M  CHG  1   4   1
M  END
