
     RDKit          3D

 23 25  0  0  0  0  0  0  0  0999 V2000
   -0.8500    0.8750   -1.5050 N   0  0  0  0  0  0  0  0  0  0  0  0
   -1.6370    0.1960   -0.4960 C   0  0  0  0  0  0  0  0  0  0  0  0
   -2.8320    0.5830   -0.0710 C   0  0  0  0  0  0  0  0  0  0  0  0
   -3.6300    1.7760   -0.5190 C   0  0  0  0  0  0  0  0  0  0  0  0
   -5.0630    1.5030   -0.1190 C   0  0  0  0  0  0  0  0  0  0  0  0
   -5.0650    1.2880    1.3880 C   0  0  0  0  0  0  0  0  0  0  0  0
   -4.6480   -0.1420    1.6280 C   0  0  1  0  0  0  0  0  0  0  0  0
   -4.4500   -0.3190    3.4030 Cl  0  0  0  0  0  0  0  0  0  0  0  0
   -5.8370   -1.2640    0.9870 Cl  0  0  0  0  0  0  0  0  0  0  0  0
   -3.3070   -0.3230    0.9500 C   0  0  0  0  0  0  0  0  0  0  0  0
   -2.4020   -1.2330    1.1250 N   0  0  0  0  0  0  0  0  0  0  0  0
   -1.2810   -0.9970    0.2420 C   0  0  0  0  0  0  0  0  0  0  0  0
   -0.2030   -1.7420    0.1400 C   0  0  0  0  0  0  0  0  0  0  0  0
    0.8870   -1.5020   -0.7840 C   0  0  0  0  0  0  0  0  0  0  0  0
    0.6460   -1.3980   -2.1260 C   0  0  0  0  0  0  0  0  0  0  0  0
    1.7000   -1.1320   -2.9740 C   0  0  0  0  0  0  0  0  0  0  0  0
    2.9720   -0.9820   -2.4210 C   0  0  0  0  0  0  0  0  0  0  0  0
    3.1900   -1.0920   -1.0670 C   0  0  0  0  0  0  0  0  0  0  0  0
    4.5180   -0.9300   -0.5250 N   0  0  0  0  0  0  0  0  0  0  0  0
    4.8020   -1.0370    0.8660 C   0  0  0  0  0  0  0  0  0  0  0  0
    4.0460   -0.0380    1.7100 C   0  0  0  0  0  0  0  0  0  0  0  0
    4.4180    1.2990    1.2660 N   0  0  0  0  0  0  0  0  0  0  0  0
    2.1470   -1.3510   -0.2670 N   0  0  0  0  0  0  0  0  0  0  0  0
  1  2  1  0
  2  3  2  0
  2 12  1  0
  3  4  1  0
  3 10  1  0
  4  5  1  0
  5  6  1  0
  6  7  1  0
  7  8  1  1
  7  9  1  0
  7 10  1  0
 10 11  2  0
 11 12  1  0
 12 13  2  3
 13 14  1  0
 14 15  2  0
 14 23  1  0
 15 16  1  0
 16 17  2  0
 17 18  1  0
 18 19  1  0
 18 23  2  0
 19 20  1  0
 20 21  1  0
 21 22  1  0
M  CHG  1  22   1
M  END
