
     RDKit          3D

 18 19  0  0  0  0  0  0  0  0999 V2000
   -1.3830    2.1630   -0.1470 C   0  0  0  0  0  0  0  0  0  0  0  0
   -1.1740    0.6790    0.1950 C   0  0  1  0  0  0  0  0  0  0  0  0
   -1.1440    0.5740    1.6990 C   0  0  0  0  0  0  0  0  0  0  0  0
   -2.3170   -0.1390   -0.3020 C   0  0  0  0  0  0  0  0  0  0  0  0
   -3.6570    0.2130    0.2480 C   0  0  0  0  0  0  0  0  0  0  0  0
   -3.7910    0.0870    1.6720 N   0  0  0  0  0  0  0  0  0  0  0  0
    0.0560    0.3030   -0.4280 N   0  0  0  0  0  0  0  0  0  0  0  0
    0.0830    0.4000   -1.8450 C   0  0  0  0  0  0  0  0  0  0  0  0
    0.1980   -0.9180   -2.5760 C   0  0  0  0  0  0  0  0  0  0  0  0
   -0.1490   -1.9570   -1.7170 O   0  0  0  0  0  0  0  0  0  0  0  0
    0.7130   -2.0470   -0.6440 C   0  0  0  0  0  0  0  0  0  0  0  0
    0.7880   -0.7510    0.1680 C   0  0  1  0  0  0  0  0  0  0  0  0
    2.2450   -0.4320    0.3770 C   0  0  0  0  0  0  0  0  0  0  0  0
    2.9360   -0.3480    1.4990 C   0  0  0  0  0  0  0  0  0  0  0  0
    2.2250   -0.6250    3.2400 Br  0  0  0  0  0  0  0  0  0  0  0  0
    4.3610   -0.0140    1.2360 C   0  0  0  0  0  0  0  0  0  0  0  0
    4.4050    0.0820   -0.2260 C   0  0  0  0  0  0  0  0  0  0  0  0
    3.2060   -0.1550   -0.7040 C   0  0  0  0  0  0  0  0  0  0  0  0
  2  1  1  1
  2  3  1  0
  2  4  1  0
  2  7  1  0
  4  5  1  0
  5  6  1  0
  7  8  1  0
  7 12  1  0
  8  9  1  0
  9 10  1  0
 10 11  1  0
 11 12  1  0
 12 13  1  6
 13 14  2  0
 13 18  1  0
 14 15  1  0
 14 16  1  0
 16 17  1  0
 17 18  2  0
M  END
