
     RDKit          3D

 29 29  0  0  0  0  0  0  0  0999 V2000
   -8.0890    3.2760    0.1670 C   0  0  0  0  0  0  0  0  0  0  0  0
   -6.8330    2.6100    0.6890 C   0  0  0  0  0  0  0  0  0  0  0  0
   -5.8580    2.6460   -0.3590 O   0  0  0  0  0  0  0  0  0  0  0  0
   -5.4220    1.0160   -0.6590 P   0  0  0  0  0  0  0  0  0  0  0  0
   -4.1180    0.2300    0.3230 C   0  0  0  0  0  0  0  0  0  0  0  0
   -2.7430    0.6020   -0.0150 C   0  0  0  0  0  0  0  0  0  0  0  0
   -1.8410   -0.2030    0.7500 O   0  0  0  0  0  0  0  0  0  0  0  0
   -2.0680   -1.5400    0.5050 C   0  0  0  0  0  0  0  0  0  0  0  0
   -1.8080   -1.9640   -0.9260 C   0  0  0  0  0  0  0  0  0  0  0  0
   -0.0440   -1.8230   -1.4090 P   0  0  0  0  0  0  0  0  0  0  0  0
    0.1500   -2.0640   -3.0820 O   0  0  0  0  0  0  0  0  0  0  0  0
    0.6240   -0.2200   -0.8530 C   0  0  0  0  0  0  0  0  0  0  0  0
    1.7230   -0.0120   -0.2020 C   0  0  0  0  0  0  0  0  0  0  0  0
    1.9650    1.3850    0.0670 O   0  0  0  0  0  0  0  0  0  0  0  0
    2.7480   -0.9040    0.3250 C   0  0  2  0  0  0  0  0  0  0  0  0
    2.2850   -2.1860    0.8800 C   0  0  0  0  0  0  0  0  0  0  0  0
    1.6970   -3.1170    0.1020 O   0  0  0  0  0  0  0  0  0  0  0  0
    3.5840   -0.2280    1.3570 C   0  0  0  0  0  0  0  0  0  0  0  0
    5.0270   -0.7810    1.3780 C   0  0  0  0  0  0  0  0  0  0  0  0
    5.7320   -0.3300    0.1300 C   0  0  2  0  0  0  0  0  0  0  0  0
    6.8440    0.6210    0.4170 C   0  0  0  0  0  0  0  0  0  0  0  0
    7.4580    1.1630   -0.8680 C   0  0  0  0  0  0  0  0  0  0  0  0
    6.5660    2.0410   -1.5080 O   0  0  0  0  0  0  0  0  0  0  0  0
    6.5550    3.2620   -0.8010 C   0  0  0  0  0  0  0  0  0  0  0  0
    4.7490   -0.0400   -0.9350 C   0  0  0  0  0  0  0  0  0  0  0  0
    3.7330   -1.2120   -0.8600 C   0  0  0  0  0  0  0  0  0  0  0  0
   -6.9570    0.1620   -0.1020 O   0  0  0  0  0  0  0  0  0  0  0  0
   -6.9190   -1.0920   -0.6300 C   0  0  0  0  0  0  0  0  0  0  0  0
   -7.9750   -1.8930    0.1190 C   0  0  0  0  0  0  0  0  0  0  0  0
  1  2  1  0
  2  3  1  0
  3  4  1  0
  4  5  1  0
  4 27  1  0
  5  6  1  0
  6  7  1  0
  7  8  1  0
  8  9  1  0
  9 10  1  0
 10 11  1  0
 10 12  1  0
 12 13  2  3
 13 14  1  0
 13 15  1  0
 15 16  1  1
 15 18  1  0
 15 26  1  0
 16 17  1  0
 18 19  1  0
 19 20  1  0
 20 21  1  1
 20 25  1  0
 21 22  1  0
 22 23  1  0
 23 24  1  0
 25 26  1  0
 27 28  1  0
 28 29  1  0
M  END
