
     RDKit          3D

 33 34  0  0  0  0  0  0  0  0999 V2000
   -5.3200   -5.0770    2.6710 C   0  0  0  0  0  0  0  0  0  0  0  0
   -3.9640   -4.3760    2.8260 C   0  0  0  0  0  0  0  0  0  0  0  0
   -3.8870   -3.4470    1.7580 O   0  0  0  0  0  0  0  0  0  0  0  0
   -2.8220   -2.6130    1.5350 C   0  0  0  0  0  0  0  0  0  0  0  0
   -1.8460   -2.6710    2.3280 O   0  0  0  0  0  0  0  0  0  0  0  0
   -2.8690   -1.6900    0.3820 C   0  0  1  0  0  0  0  0  0  0  0  0
   -4.0040   -0.7020    0.4770 C   0  0  0  0  0  0  0  0  0  0  0  0
   -3.4960    0.3540   -0.3700 N   0  0  0  0  0  0  0  0  0  0  0  0
   -4.2670    1.2070   -1.1920 C   0  0  0  0  0  0  0  0  0  0  0  0
   -3.7140    2.1140   -1.9050 O   0  0  0  0  0  0  0  0  0  0  0  0
   -5.6780    1.1100   -1.2740 N   0  0  0  0  0  0  0  0  0  0  0  0
   -6.4560    1.9870   -2.1150 C   0  0  0  0  0  0  0  0  0  0  0  0
   -6.2960    3.4330   -1.7290 C   0  0  0  0  0  0  0  0  0  0  0  0
   -6.7670    3.5560   -0.2840 C   0  0  0  0  0  0  0  0  0  0  0  0
   -8.1040    3.1590   -0.2170 O   0  0  0  0  0  0  0  0  0  0  0  0
   -2.0820    0.3810   -0.2270 C   0  0  0  0  0  0  0  0  0  0  0  0
   -1.1470    1.3930   -0.4660 C   0  0  0  0  0  0  0  0  0  0  0  0
    0.2020    1.2140   -0.2480 C   0  0  0  0  0  0  0  0  0  0  0  0
    0.6100   -0.0170    0.2230 C   0  0  0  0  0  0  0  0  0  0  0  0
    1.9980   -0.2270    0.4580 N   0  0  0  0  0  0  0  0  0  0  0  0
    3.0100    0.7500    0.2550 C   0  0  1  0  0  0  0  0  0  0  0  0
    2.8600    1.9870    1.0860 C   0  0  0  0  0  0  0  0  0  0  0  0
    4.3420    0.1390    0.4840 C   0  0  0  0  0  0  0  0  0  0  0  0
    4.4780   -1.0800    0.8090 O   0  0  0  0  0  0  0  0  0  0  0  0
    5.5540    0.8820    0.3520 N   0  0  0  0  0  0  0  0  0  0  0  0
    6.8490    0.2490    0.5850 C   0  0  0  0  0  0  0  0  0  0  0  0
    7.1450   -1.1620   -0.5590 P   0  0  0  0  0  0  0  0  0  0  0  0
    7.8020   -2.4890    0.3170 O   0  0  0  0  0  0  0  0  0  0  0  0
    8.1490   -0.7420   -1.8930 O   0  0  0  0  0  0  0  0  0  0  0  0
    9.3710   -0.2080   -1.4770 C   0  0  0  0  0  0  0  0  0  0  0  0
   10.2350    0.1530   -2.6610 C   0  0  0  0  0  0  0  0  0  0  0  0
   -0.3150   -1.0080    0.4560 C   0  0  0  0  0  0  0  0  0  0  0  0
   -1.6840   -0.8510    0.2430 C   0  0  0  0  0  0  0  0  0  0  0  0
  1  2  1  0
  2  3  1  0
  3  4  1  0
  4  5  2  0
  6  4  1  1
  6  7  1  0
  6 33  1  0
  7  8  1  0
  8  9  1  0
  8 16  1  0
  9 10  2  0
  9 11  1  0
 11 12  1  0
 12 13  1  0
 13 14  1  0
 14 15  1  0
 16 17  2  0
 16 33  1  0
 17 18  1  0
 18 19  2  0
 19 20  1  0
 19 32  1  0
 20 21  1  0
 21 22  1  1
 21 23  1  0
 23 24  2  0
 23 25  1  0
 25 26  1  0
 26 27  1  0
 27 28  1  0
 27 29  1  0
 29 30  1  0
 30 31  1  0
 32 33  2  0
M  END
