
     RDKit          3D

 34 35  0  0  0  0  0  0  0  0999 V2000
   -7.3560   -3.4880    1.0070 C   0  0  0  0  0  0  0  0  0  0  0  0
   -6.8960   -3.1400   -0.3930 C   0  0  0  0  0  0  0  0  0  0  0  0
   -5.4340   -2.6860   -0.3550 C   0  0  0  0  0  0  0  0  0  0  0  0
   -5.3690   -1.5850    0.4590 O   0  0  0  0  0  0  0  0  0  0  0  0
   -4.1200   -1.0470    0.6040 C   0  0  0  0  0  0  0  0  0  0  0  0
   -3.4880   -0.5840   -0.6600 C   0  0  0  0  0  0  0  0  0  0  0  0
   -2.1280   -0.0200   -0.3500 C   0  0  0  0  0  0  0  0  0  0  0  0
   -1.7590   -0.0200    0.8070 O   0  0  0  0  0  0  0  0  0  0  0  0
   -1.3380    0.4790   -1.3730 N   0  0  0  0  0  0  0  0  0  0  0  0
   -0.0430    1.0450   -1.4030 C   0  0  1  0  0  0  0  0  0  0  0  0
    1.1550    0.2820   -1.1390 C   0  0  0  0  0  0  0  0  0  0  0  0
    1.5020   -0.3680    0.0930 C   0  0  0  0  0  0  0  0  0  0  0  0
    0.9930   -0.1660    1.1950 O   0  0  0  0  0  0  0  0  0  0  0  0
    2.5430   -1.3480    0.0340 N   0  0  0  0  0  0  0  0  0  0  0  0
    3.0640   -2.1160    1.0640 C   0  0  0  0  0  0  0  0  0  0  0  0
    2.6510   -2.0580    2.3720 C   0  0  0  0  0  0  0  0  0  0  0  0
    3.2250   -2.8690    3.3690 C   0  0  0  0  0  0  0  0  0  0  0  0
    4.2230   -3.7480    3.0550 C   0  0  0  0  0  0  0  0  0  0  0  0
    4.6550   -3.8240    1.7520 C   0  0  0  0  0  0  0  0  0  0  0  0
    4.0840   -3.0270    0.7950 C   0  0  0  0  0  0  0  0  0  0  0  0
    4.5330   -3.1220   -0.5050 O   0  0  0  0  0  0  0  0  0  0  0  0
    5.8030   -4.2320   -0.9340 P   0  0  0  0  0  0  0  0  0  0  0  0
    7.2660   -3.9310   -0.0250 O   0  0  0  0  0  0  0  0  0  0  0  0
    6.2160   -4.1160   -2.6090 O   0  0  0  0  0  0  0  0  0  0  0  0
    0.1380    1.6380   -2.8240 C   0  0  0  0  0  0  0  0  0  0  0  0
    1.4680    2.1960   -2.8460 N   0  0  0  0  0  0  0  0  0  0  0  0
    1.7170    3.2510   -1.8960 C   0  0  0  0  0  0  0  0  0  0  0  0
    2.5170    4.1680   -2.0980 O   0  0  0  0  0  0  0  0  0  0  0  0
    0.9800    3.1870   -0.6810 N   0  0  0  0  0  0  0  0  0  0  0  0
    1.3970    4.0480    0.4180 C   0  0  0  0  0  0  0  0  0  0  0  0
    0.6920    5.3870    0.3620 C   0  0  0  0  0  0  0  0  0  0  0  0
    1.0780    6.2180    1.4040 O   0  0  0  0  0  0  0  0  0  0  0  0
    0.3830    7.4200    1.2720 C   0  0  0  0  0  0  0  0  0  0  0  0
   -0.1530    2.3070   -0.5120 C   0  0  0  0  0  0  0  0  0  0  0  0
  1  2  1  0
  2  3  1  0
  3  4  1  0
  4  5  1  0
  5  6  1  0
  6  7  1  0
  7  8  2  0
  7  9  1  0
  9 10  1  0
 10 11  1  1
 10 25  1  0
 10 34  1  0
 11 12  1  0
 12 13  2  0
 12 14  1  0
 14 15  1  0
 15 16  2  0
 15 20  1  0
 16 17  1  0
 17 18  2  0
 18 19  1  0
 19 20  2  0
 20 21  1  0
 21 22  1  0
 22 23  1  0
 22 24  1  0
 25 26  1  0
 26 27  1  0
 27 28  2  0
 27 29  1  0
 29 30  1  0
 29 34  1  0
 30 31  1  0
 31 32  1  0
 32 33  1  0
M  END
