
     RDKit          3D

 37 39  0  0  0  0  0  0  0  0999 V2000
    0.6740   -3.3810   -1.4670 C   0  0  0  0  0  0  0  0  0  0  0  0
   -0.0080   -3.2630   -0.1490 C   0  0  1  0  0  0  0  0  0  0  0  0
    0.2450   -4.5790    0.6000 C   0  0  0  0  0  0  0  0  0  0  0  0
    0.4560   -2.1690    0.7410 C   0  0  0  0  0  0  0  0  0  0  0  0
    0.3220   -0.7830    0.2090 C   0  0  2  0  0  0  0  0  0  0  0  0
   -1.0730   -0.5270   -0.0710 N   0  0  0  0  0  0  0  0  0  0  0  0
   -2.0850   -0.5730    1.3530 P   0  0  2  0  0  0  0  0  0  0  0  0
   -1.2950   -0.4330    2.6340 O   0  0  0  0  0  0  0  0  0  0  0  0
   -2.9070   -2.0700    1.3310 O   0  0  0  0  0  0  0  0  0  0  0  0
   -3.1960    0.7060    1.3330 O   0  0  0  0  0  0  0  0  0  0  0  0
   -4.0710    0.5320    0.2710 C   0  0  2  0  0  0  0  0  0  0  0  0
   -4.0100    1.5470   -0.6550 O   0  0  0  0  0  0  0  0  0  0  0  0
   -4.6480    2.6990   -0.3320 C   0  0  1  0  0  0  0  0  0  0  0  0
   -5.6810    3.0010   -1.4140 C   0  0  0  0  0  0  0  0  0  0  0  0
   -5.2270    2.7880    1.0350 C   0  0  2  0  0  0  0  0  0  0  0  0
   -4.2420    3.0360    1.9770 O   0  0  0  0  0  0  0  0  0  0  0  0
   -6.0400    1.5860    1.4110 C   0  0  1  0  0  0  0  0  0  0  0  0
   -7.3580    1.6480    0.9870 O   0  0  0  0  0  0  0  0  0  0  0  0
   -5.4420    0.3160    0.8520 C   0  0  1  0  0  0  0  0  0  0  0  0
   -6.2940   -0.3040   -0.0690 O   0  0  0  0  0  0  0  0  0  0  0  0
    1.1290   -0.4590   -0.9660 C   0  0  0  0  0  0  0  0  0  0  0  0
    0.5650   -0.0510   -2.0380 O   0  0  0  0  0  0  0  0  0  0  0  0
    2.5510   -0.5520   -1.0440 N   0  0  0  0  0  0  0  0  0  0  0  0
    3.2680   -0.2060   -2.2500 C   0  0  1  0  0  0  0  0  0  0  0  0
    4.0000    1.1130   -2.1720 C   0  0  0  0  0  0  0  0  0  0  0  0
    4.9910    1.1250   -1.0960 C   0  0  0  0  0  0  0  0  0  0  0  0
    6.3570    0.8820   -1.2740 C   0  0  0  0  0  0  0  0  0  0  0  0
    6.9020    0.9600   -0.0570 N   0  0  0  0  0  0  0  0  0  0  0  0
    5.9910    1.2330    0.8780 C   0  0  0  0  0  0  0  0  0  0  0  0
    6.0320    1.4210    2.2600 C   0  0  0  0  0  0  0  0  0  0  0  0
    4.9090    1.7100    3.0060 C   0  0  0  0  0  0  0  0  0  0  0  0
    3.7090    1.8150    2.3590 C   0  0  0  0  0  0  0  0  0  0  0  0
    3.6410    1.6320    0.9810 C   0  0  0  0  0  0  0  0  0  0  0  0
    4.7730    1.3420    0.2450 C   0  0  0  0  0  0  0  0  0  0  0  0
    4.2100   -1.3070   -2.5520 C   0  0  0  0  0  0  0  0  0  0  0  0
    4.3050   -2.3180   -1.8200 O   0  0  0  0  0  0  0  0  0  0  0  0
    5.0190   -1.2350   -3.6740 O   0  0  0  0  0  0  0  0  0  0  0  0
  2  1  1  6
  2  3  1  0
  2  4  1  0
  5  4  1  6
  5  6  1  0
  5 21  1  0
  6  7  1  0
  7  8  2  0
  7  9  1  1
  7 10  1  0
 11 10  1  1
 11 12  1  0
 11 19  1  0
 12 13  1  0
 13 14  1  6
 13 15  1  0
 15 16  1  1
 15 17  1  0
 17 18  1  6
 17 19  1  0
 19 20  1  6
 21 22  2  0
 21 23  1  0
 23 24  1  0
 24 25  1  1
 24 35  1  0
 25 26  1  0
 26 27  2  0
 26 34  1  0
 27 28  1  0
 28 29  1  0
 29 30  2  0
 29 34  1  0
 30 31  1  0
 31 32  2  0
 32 33  1  0
 33 34  2  0
 35 36  2  0
 35 37  1  0
M  END
