
     RDKit          3D

 34 35  0  0  0  0  0  0  0  0999 V2000
    8.9790   -1.5650   -1.2520 C   0  0  0  0  0  0  0  0  0  0  0  0
    7.5230   -1.4070   -0.8680 C   0  0  0  0  0  0  0  0  0  0  0  0
    7.0280   -0.2940   -1.5440 O   0  0  0  0  0  0  0  0  0  0  0  0
    5.3670   -0.1040   -1.1060 P   0  0  0  0  0  0  0  0  0  0  0  0
    4.6300   -1.6650   -0.4290 C   0  0  0  0  0  0  0  0  0  0  0  0
    3.6330   -1.3750    0.5930 N   0  0  0  0  0  0  0  0  0  0  0  0
    3.9430   -1.2580    1.9970 C   0  0  0  0  0  0  0  0  0  0  0  0
    2.2960   -1.2080    0.1730 C   0  0  0  0  0  0  0  0  0  0  0  0
    1.9690   -1.3240   -1.0460 O   0  0  0  0  0  0  0  0  0  0  0  0
    1.2680   -0.8900    1.1980 C   0  0  0  0  0  0  0  0  0  0  0  0
   -0.0390   -0.7660    0.5750 N   0  0  0  0  0  0  0  0  0  0  0  0
   -1.2060   -0.4540    1.3200 C   0  0  0  0  0  0  0  0  0  0  0  0
   -1.0720   -0.2810    2.5490 O   0  0  0  0  0  0  0  0  0  0  0  0
   -2.4960   -0.3540    0.6090 C   0  0  2  0  0  0  0  0  0  0  0  0
   -2.8970   -1.6780   -0.0100 C   0  0  0  0  0  0  0  0  0  0  0  0
   -3.0450   -2.7600    1.0300 C   0  0  0  0  0  0  0  0  0  0  0  0
   -3.4320   -4.0150    0.3500 C   0  0  0  0  0  0  0  0  0  0  0  0
   -3.6740   -5.2350    1.0350 N   0  0  0  0  0  0  0  0  0  0  0  0
   -3.5590   -4.0260   -0.8970 O   0  0  0  0  0  0  0  0  0  0  0  0
   -2.3000    0.6190   -0.5540 C   0  0  0  0  0  0  0  0  0  0  0  0
   -3.7270    1.0430   -0.8570 C   0  0  0  0  0  0  0  0  0  0  0  0
   -4.3180    1.1550    0.4450 N   0  0  0  0  0  0  0  0  0  0  0  0
   -5.4470    1.9420    0.7760 C   0  0  0  0  0  0  0  0  0  0  0  0
   -5.7820    1.9240    2.0250 O   0  0  0  0  0  0  0  0  0  0  0  0
   -6.2520    2.7580   -0.1430 C   0  0  2  0  0  0  0  0  0  0  0  0
   -6.5530    4.1390    0.3950 C   0  0  0  0  0  0  0  0  0  0  0  0
   -7.2320    4.9550   -0.2760 O   0  0  0  0  0  0  0  0  0  0  0  0
   -6.0610    4.4700    1.6350 O   0  0  0  0  0  0  0  0  0  0  0  0
   -7.4160    2.0620   -0.7810 C   0  0  0  0  0  0  0  0  0  0  0  0
   -6.2800    2.6390   -1.5980 C   0  0  0  0  0  0  0  0  0  0  0  0
   -3.5760    0.3090    1.3910 C   0  0  0  0  0  0  0  0  0  0  0  0
    5.1390    1.2240   -0.0170 O   0  0  0  0  0  0  0  0  0  0  0  0
    5.8210    2.3490   -0.4710 C   0  0  0  0  0  0  0  0  0  0  0  0
    5.6310    3.5150    0.4780 C   0  0  0  0  0  0  0  0  0  0  0  0
  1  2  1  0
  2  3  1  0
  3  4  1  0
  4  5  1  0
  4 32  1  0
  5  6  1  0
  6  7  1  0
  6  8  1  0
  8  9  2  0
  8 10  1  0
 10 11  1  0
 11 12  1  0
 12 13  2  0
 12 14  1  0
 14 15  1  6
 14 20  1  0
 14 31  1  0
 15 16  1  0
 16 17  1  0
 17 18  1  0
 17 19  2  0
 20 21  1  0
 21 22  1  0
 22 23  1  0
 22 31  1  0
 23 24  2  0
 25 23  1  1
 25 26  1  0
 25 29  1  0
 25 30  1  0
 26 27  2  0
 26 28  1  0
 29 30  1  0
 32 33  1  0
 33 34  1  0
M  END
