
     RDKit          3D

  9  8  0  0  0  0  0  0  0  0999 V2000
    3.7760    0.7450   -0.2100 O   0  0  0  0  0  0  0  0  0  0  0  0
    2.5960    0.0470   -0.5180 C   0  0  0  0  0  0  0  0  0  0  0  0
    1.9070   -0.2410    0.8160 C   0  0  0  0  0  0  0  0  0  0  0  0
    0.6850   -0.9640    0.4980 N   0  0  0  0  0  0  0  0  0  0  0  0
   -0.3970   -0.0070    0.5600 C   0  0  0  0  0  0  0  0  0  0  0  0
   -1.5440   -0.4150   -0.3330 C   0  0  1  0  0  0  0  0  0  0  0  0
   -2.0320   -1.6380    0.0530 O   0  0  0  0  0  0  0  0  0  0  0  0
   -2.6010    0.6820   -0.2090 C   0  0  0  0  0  0  0  0  0  0  0  0
   -3.0110    0.7670    1.1210 O   0  0  0  0  0  0  0  0  0  0  0  0
  1  2  1  0
  2  3  1  0
  3  4  1  0
  4  5  1  0
  5  6  1  0
  6  7  1  1
  6  8  1  0
  8  9  1  0
M  CHG  1   4   1
M  END
