
     RDKit          3D

  8  8  0  0  0  0  0  0  0  0999 V2000
    1.0730   -0.3060    1.2320 N   0  0  0  0  0  0  0  0  0  0  0  0
    0.2230    0.0560    0.1210 C   0  0  2  0  0  0  0  0  0  0  0  0
    0.9470    1.1080   -0.6920 C   0  0  0  0  0  0  0  0  0  0  0  0
    2.1440    0.5880   -1.1510 O   0  0  0  0  0  0  0  0  0  0  0  0
   -1.1040    0.5320    0.6170 C   0  0  0  0  0  0  0  0  0  0  0  0
   -2.0810   -0.2220   -0.2390 C   0  0  0  0  0  0  0  0  0  0  0  0
   -1.4440   -1.3230   -0.7490 O   0  0  0  0  0  0  0  0  0  0  0  0
   -0.0980   -1.1060   -0.7750 C   0  0  0  0  0  0  0  0  0  0  0  0
  2  1  1  1
  2  3  1  0
  2  5  1  0
  2  8  1  0
  3  4  1  0
  5  6  1  0
  6  7  1  0
  7  8  1  0
M  CHG  1   1   1
M  END
