
     RDKit          3D

  8  7  0  0  0  0  0  0  0  0999 V2000
    2.0950   -0.4120    1.0110 C   0  0  0  0  0  0  0  0  0  0  0  0
    1.0250   -0.2800   -0.0550 C   0  0  2  0  0  0  0  0  0  0  0  0
    1.0580    1.1260   -0.6190 C   0  0  0  0  0  0  0  0  0  0  0  0
    2.2890    1.4030   -1.2050 O   0  0  0  0  0  0  0  0  0  0  0  0
   -0.2400   -0.5850    0.5550 N   0  0  0  0  0  0  0  0  0  0  0  0
   -1.2690   -0.9460   -0.3750 C   0  0  0  0  0  0  0  0  0  0  0  0
   -2.5590   -0.2700    0.1010 C   0  0  0  0  0  0  0  0  0  0  0  0
   -2.3500    1.1160    0.1150 O   0  0  0  0  0  0  0  0  0  0  0  0
  2  1  1  1
  2  3  1  0
  2  5  1  0
  3  4  1  0
  5  6  1  0
  6  7  1  0
  7  8  1  0
M  CHG  1   5   1
M  END
