
     RDKit          3D

  8  8  0  0  0  0  0  0  0  0999 V2000
   -1.8070   -0.2500   -0.2720 N   0  0  0  0  0  0  0  0  0  0  0  0
   -0.7830    0.2280    0.6490 C   0  0  2  0  0  0  0  0  0  0  0  0
   -0.2870    1.5700    0.2140 C   0  0  0  0  0  0  0  0  0  0  0  0
    0.8960    1.5490   -0.4760 O   0  0  0  0  0  0  0  0  0  0  0  0
    1.0830    0.4340   -1.2610 C   0  0  0  0  0  0  0  0  0  0  0  0
    1.1990   -0.8340   -0.4600 C   0  0  0  0  0  0  0  0  0  0  0  0
    0.3320   -0.7940    0.7700 C   0  0  1  0  0  0  0  0  0  0  0  0
    1.0960   -0.4690    1.8880 O   0  0  0  0  0  0  0  0  0  0  0  0
  2  1  1  6
  2  3  1  0
  2  7  1  0
  3  4  1  0
  4  5  1  0
  5  6  1  0
  6  7  1  0
  7  8  1  1
M  CHG  1   1   1
M  END
