
     RDKit          3D

 17 19  0  0  0  0  0  0  0  0999 V2000
   -3.5380    1.9220    0.2800 C   0  0  0  0  0  0  0  0  0  0  0  0
   -2.8780    0.7350   -0.0510 C   0  0  0  0  0  0  0  0  0  0  0  0
   -3.8290   -0.2800   -0.4840 C   0  0  0  0  0  0  0  0  0  0  0  0
   -1.5020    0.7760    0.0900 C   0  0  0  0  0  0  0  0  0  0  0  0
   -0.3840    0.1430   -0.0100 C   0  0  0  0  0  0  0  0  0  0  0  0
    0.8030    0.8610    0.3300 C   0  0  0  0  0  0  0  0  0  0  0  0
    2.0670    0.3510    0.2860 C   0  0  0  0  0  0  0  0  0  0  0  0
    2.2000   -0.9510   -0.1170 C   0  0  0  0  0  0  0  0  0  0  0  0
    1.0830   -1.6780   -0.4530 C   0  0  0  0  0  0  0  0  0  0  0  0
   -0.2160   -1.1520   -0.4060 C   0  0  0  0  0  0  0  0  0  0  0  0
   -1.3480   -2.0340   -0.7810 C   0  0  0  0  0  0  0  0  0  0  0  0
    3.5190   -1.2140   -0.0780 N   0  0  0  0  0  0  0  0  0  0  0  0
    4.1680   -0.0890    0.3420 C   0  0  0  0  0  0  0  0  0  0  0  0
    5.3740    0.4360    0.6210 N   0  0  0  0  0  0  0  0  0  0  0  0
    5.2200    1.7030    1.0110 C   0  0  0  0  0  0  0  0  0  0  0  0
    3.9120    1.9810    0.9780 N   0  0  0  0  0  0  0  0  0  0  0  0
    3.2860    0.8940    0.5730 N   0  0  0  0  0  0  0  0  0  0  0  0
  1  2  2  0
  2  3  1  0
  2  4  1  0
  4  5  2  3
  5  6  1  0
  5 10  1  0
  6  7  2  0
  7  8  1  0
  7 17  1  0
  8  9  1  0
  8 12  2  0
  9 10  2  0
 10 11  1  0
 12 13  1  0
 13 14  2  0
 13 17  1  0
 14 15  1  0
 15 16  2  0
 16 17  1  0
M  END
