
     RDKit          3D

 17 19  0  0  0  0  0  0  0  0999 V2000
    6.1290   -0.2400   -1.4120 C   0  0  0  0  0  0  0  0  0  0  0  0
    4.9730   -0.0560   -0.4790 C   0  0  0  0  0  0  0  0  0  0  0  0
    4.9820   -0.0270    0.8720 N   0  0  0  0  0  0  0  0  0  0  0  0
    3.7270    0.1620    1.3250 C   0  0  0  0  0  0  0  0  0  0  0  0
    2.9140    0.2540    0.2530 N   0  0  0  0  0  0  0  0  0  0  0  0
    1.4770    0.4600    0.2370 C   0  0  0  0  0  0  0  0  0  0  0  0
    0.7310   -0.8830    0.2640 C   0  0  0  0  0  0  0  0  0  0  0  0
   -0.7020   -0.5240    0.2400 N   0  0  0  0  0  0  0  0  0  0  0  0
   -1.6090   -0.7530   -0.8110 C   0  0  0  0  0  0  0  0  0  0  0  0
   -2.8230   -0.3030   -0.5430 C   0  0  0  0  0  0  0  0  0  0  0  0
   -4.0920   -0.3190   -1.3410 C   0  0  0  0  0  0  0  0  0  0  0  0
   -5.1830    0.3250   -0.6000 C   0  0  0  0  0  0  0  0  0  0  0  0
   -5.1170    0.8510    0.5950 C   0  0  0  0  0  0  0  0  0  0  0  0
   -3.8600    0.8310    1.3250 C   0  0  0  0  0  0  0  0  0  0  0  0
   -2.7740    0.2840    0.7880 C   0  0  0  0  0  0  0  0  0  0  0  0
   -1.4020    0.1320    1.3170 C   0  0  0  0  0  0  0  0  0  0  0  0
    3.6850    0.1200   -0.8180 N   0  0  0  0  0  0  0  0  0  0  0  0
  1  2  1  0
  2  3  1  0
  2 17  2  0
  3  4  2  0
  4  5  1  0
  5  6  1  0
  5 17  1  0
  6  7  1  0
  7  8  1  0
  8  9  1  0
  8 16  1  0
  9 10  2  0
 10 11  1  0
 10 15  1  0
 11 12  1  0
 12 13  2  0
 13 14  1  0
 14 15  2  0
 15 16  1  0
M  END
