
     RDKit          3D

 17 19  0  0  0  0  0  0  0  0999 V2000
    2.1370    0.7970    1.0160 C   0  0  0  0  0  0  0  0  0  0  0  0
    2.8920   -0.3800    0.5520 C   0  0  0  0  0  0  0  0  0  0  0  0
    4.0760   -0.7820    1.0280 C   0  0  0  0  0  0  0  0  0  0  0  0
    4.4650   -1.9510    0.3180 N   0  0  0  0  0  0  0  0  0  0  0  0
    3.5860   -2.2830   -0.5610 C   0  0  0  0  0  0  0  0  0  0  0  0
    2.5090   -1.3120   -0.4900 C   0  0  0  0  0  0  0  0  0  0  0  0
    1.4690   -1.3080   -1.2000 N   0  0  0  0  0  0  0  0  0  0  0  0
    0.3980   -0.3810   -1.1610 C   0  0  0  0  0  0  0  0  0  0  0  0
    0.4590    0.8710   -1.7100 C   0  0  0  0  0  0  0  0  0  0  0  0
   -0.6290    1.7090   -1.6290 C   0  0  0  0  0  0  0  0  0  0  0  0
   -1.7740    1.2830   -0.9970 C   0  0  0  0  0  0  0  0  0  0  0  0
   -2.9960    1.8960   -0.7690 C   0  0  0  0  0  0  0  0  0  0  0  0
   -3.7730    0.9900   -0.0820 C   0  0  0  0  0  0  0  0  0  0  0  0
   -3.0350   -0.1280    0.0940 N   0  0  0  0  0  0  0  0  0  0  0  0
   -3.5080   -1.3310    0.7850 C   0  0  0  0  0  0  0  0  0  0  0  0
   -1.8180    0.0200   -0.4510 C   0  0  0  0  0  0  0  0  0  0  0  0
   -0.7290   -0.7690   -0.5520 N   0  0  0  0  0  0  0  0  0  0  0  0
  1  2  1  0
  2  3  2  0
  2  6  1  0
  3  4  1  0
  4  5  2  0
  5  6  1  0
  6  7  2  3
  7  8  1  0
  8  9  2  0
  8 17  1  0
  9 10  1  0
 10 11  2  0
 11 12  1  0
 11 16  1  0
 12 13  2  0
 13 14  1  0
 14 15  1  0
 14 16  1  0
 16 17  2  0
M  END
