
     RDKit          3D

 17 19  0  0  0  0  0  0  0  0999 V2000
   -1.2020    2.7840   -0.4910 C   0  0  0  0  0  0  0  0  0  0  0  0
   -1.9470    1.5220   -0.2270 C   0  0  0  0  0  0  0  0  0  0  0  0
   -3.2640    1.3470   -0.1520 N   0  0  0  0  0  0  0  0  0  0  0  0
   -3.5410    0.0550    0.1020 C   0  0  0  0  0  0  0  0  0  0  0  0
   -4.5660   -0.8320    0.3040 C   0  0  0  0  0  0  0  0  0  0  0  0
   -3.9840   -2.0430    0.5160 C   0  0  0  0  0  0  0  0  0  0  0  0
   -2.5970   -1.9040    0.4450 C   0  0  0  0  0  0  0  0  0  0  0  0
   -2.3670   -0.6050    0.1910 N   0  0  0  0  0  0  0  0  0  0  0  0
   -1.3440    0.2640   -0.0070 C   0  0  0  0  0  0  0  0  0  0  0  0
   -0.0420    0.0720   -0.0120 C   0  0  0  0  0  0  0  0  0  0  0  0
    0.7000   -1.1310    0.1930 C   0  0  0  0  0  0  0  0  0  0  0  0
    1.9510   -1.3840    0.2010 C   0  0  0  0  0  0  0  0  0  0  0  0
    3.0760   -0.6070    0.0180 N   0  0  0  0  0  0  0  0  0  0  0  0
    3.2310    0.6960   -0.2350 C   0  0  0  0  0  0  0  0  0  0  0  0
    4.6190    0.9140   -0.3210 C   0  0  0  0  0  0  0  0  0  0  0  0
    5.2640   -0.2650   -0.1170 C   0  0  0  0  0  0  0  0  0  0  0  0
    4.3170   -1.1710    0.0850 N   0  0  0  0  0  0  0  0  0  0  0  0
  1  2  1  0
  2  3  2  0
  2  9  1  0
  3  4  1  0
  4  5  2  0
  4  8  1  0
  5  6  1  0
  6  7  2  0
  7  8  1  0
  8  9  1  0
  9 10  2  3
 10 11  1  0
 11 12  2  3
 12 13  1  0
 13 14  1  0
 13 17  1  0
 14 15  2  0
 15 16  1  0
 16 17  2  0
M  END
