
     RDKit          3D

 10 10  0  0  0  0  0  0  0  0999 V2000
   -3.6130   -0.0520    0.7650 O   0  0  0  0  0  0  0  0  0  0  0  0
   -2.2360   -0.1360    0.7300 C   0  0  0  0  0  0  0  0  0  0  0  0
   -1.6870    0.1750   -0.6680 C   0  0  0  0  0  0  0  0  0  0  0  0
   -0.2630    0.0460   -0.5640 N   0  0  0  0  0  0  0  0  0  0  0  0
    0.2540   -1.2540   -0.4410 C   0  0  0  0  0  0  0  0  0  0  0  0
    1.4660   -1.6670   -0.0300 C   0  0  0  0  0  0  0  0  0  0  0  0
    2.5640   -0.8000    0.4000 C   0  0  0  0  0  0  0  0  0  0  0  0
    2.6780    0.5320    0.3380 C   0  0  0  0  0  0  0  0  0  0  0  0
    1.7250    1.4880   -0.1810 C   0  0  0  0  0  0  0  0  0  0  0  0
    0.4620    1.2600   -0.5670 C   0  0  0  0  0  0  0  0  0  0  0  0
  1  2  1  0
  2  3  1  0
  3  4  1  0
  4  5  1  0
  4 10  1  0
  5  6  2  0
  6  7  1  0
  7  8  2  0
  8  9  1  0
  9 10  2  0
M  END
