
     RDKit          3D

 10 10  0  0  0  0  0  0  0  0999 V2000
   -1.4710    1.5310   -1.2920 C   0  0  0  0  0  0  0  0  0  0  0  0
   -0.7420    0.6780   -0.5850 C   0  0  0  0  0  0  0  0  0  0  0  0
    0.7210    0.8490   -0.4780 C   0  0  0  0  0  0  0  0  0  0  0  0
    1.3130    1.7980   -1.0490 O   0  0  0  0  0  0  0  0  0  0  0  0
    1.4460   -0.1250    0.3140 C   0  0  0  0  0  0  0  0  0  0  0  0
    2.9200   -0.0100    0.4610 C   0  0  0  0  0  0  0  0  0  0  0  0
    0.7890   -1.1000    0.8920 C   0  0  0  0  0  0  0  0  0  0  0  0
   -0.6600   -1.2650    0.7830 C   0  0  0  0  0  0  0  0  0  0  0  0
   -1.4160   -0.4330    0.0860 C   0  0  0  0  0  0  0  0  0  0  0  0
   -2.8250   -0.5450   -0.0540 N   0  0  0  0  0  0  0  0  0  0  0  0
  1  2  2  0
  2  3  1  0
  2  9  1  0
  3  4  2  0
  3  5  1  0
  5  6  1  0
  5  7  2  0
  7  8  1  0
  8  9  2  0
  9 10  1  0
M  END
