
     RDKit          3D

 10 10  0  0  0  0  0  0  0  0999 V2000
    1.8890   -1.4210    0.2010 C   0  0  0  0  0  0  0  0  0  0  0  0
    0.7680   -0.8190   -0.1330 C   0  0  0  0  0  0  0  0  0  0  0  0
   -0.2030   -1.5890   -0.7940 O   0  0  0  0  0  0  0  0  0  0  0  0
   -1.6050   -1.5280   -0.7930 C   0  0  0  0  0  0  0  0  0  0  0  0
   -2.1740   -0.5300    0.1700 C   0  0  0  0  0  0  0  0  0  0  0  0
   -1.7460    0.8710   -0.0780 C   0  0  0  0  0  0  0  0  0  0  0  0
   -0.5620    1.2810    0.7850 C   0  0  0  0  0  0  0  0  0  0  0  0
    0.6210    0.5720    0.1990 C   0  0  0  0  0  0  0  0  0  0  0  0
    1.6790    1.3240   -0.0850 C   0  0  0  0  0  0  0  0  0  0  0  0
    2.8620    0.8330   -0.6680 N   0  0  0  0  0  0  0  0  0  0  0  0
  1  2  2  0
  2  3  1  0
  2  8  1  0
  3  4  1  0
  4  5  1  0
  5  6  1  0
  6  7  1  0
  7  8  1  0
  8  9  2  3
  9 10  1  0
M  END
