
     RDKit          3D

 10 11  0  0  0  0  0  0  0  0999 V2000
   -1.6760    2.0140    0.6740 N   0  0  0  0  0  0  0  0  0  0  0  0
   -1.1150    0.6930    0.3500 C   0  0  0  0  0  0  0  0  0  0  0  0
    0.1770    0.6440    0.1280 C   0  0  0  0  0  0  0  0  0  0  0  0
    1.1260    1.6910    0.1540 O   0  0  0  0  0  0  0  0  0  0  0  0
    2.3270    1.2200   -0.4090 C   0  0  0  0  0  0  0  0  0  0  0  0
    2.2810   -0.2690   -0.3790 C   0  0  0  0  0  0  0  0  0  0  0  0
    0.8520   -0.5940   -0.2000 C   0  0  0  0  0  0  0  0  0  0  0  0
    0.1090   -1.6820   -0.2680 C   0  0  0  0  0  0  0  0  0  0  0  0
   -1.3430   -1.7440   -0.0390 C   0  0  0  0  0  0  0  0  0  0  0  0
   -1.9740   -0.4650    0.2920 C   0  0  0  0  0  0  0  0  0  0  0  0
  1  2  1  0
  2  3  2  0
  2 10  1  0
  3  4  1  0
  3  7  1  0
  4  5  1  0
  5  6  1  0
  6  7  1  0
  7  8  2  0
  8  9  1  0
  9 10  1  0
M  END
