
     RDKit          3D

 10 10  0  0  0  0  0  0  0  0999 V2000
   -2.7590    0.1940   -0.1330 C   0  0  0  0  0  0  0  0  0  0  0  0
   -2.1670   -0.8670   -1.0330 C   0  0  0  0  0  0  0  0  0  0  0  0
   -0.7770   -0.6950   -1.2150 O   0  0  0  0  0  0  0  0  0  0  0  0
    0.1300   -0.7150   -0.1700 C   0  0  0  0  0  0  0  0  0  0  0  0
    0.1900   -1.5810    0.8520 C   0  0  0  0  0  0  0  0  0  0  0  0
    1.3110   -1.2100    1.7080 C   0  0  0  0  0  0  0  0  0  0  0  0
    1.9280   -0.1270    1.2100 C   0  0  0  0  0  0  0  0  0  0  0  0
    1.2130    0.2440   -0.0040 C   0  0  0  0  0  0  0  0  0  0  0  0
    1.4840    1.2500   -0.8070 C   0  0  0  0  0  0  0  0  0  0  0  0
    2.5480    2.1580   -0.6060 N   0  0  0  0  0  0  0  0  0  0  0  0
  1  2  1  0
  2  3  1  0
  3  4  1  0
  4  5  2  0
  4  8  1  0
  5  6  1  0
  6  7  2  0
  7  8  1  0
  8  9  2  3
  9 10  1  0
M  END
