
     RDKit          3D

 11 11  0  0  0  0  0  0  0  0999 V2000
    1.1830   -0.0830   -1.8140 N   0  0  0  0  0  0  0  0  0  0  0  0
    0.6140   -0.6470   -0.6310 C   0  0  1  0  0  0  0  0  0  0  0  0
    1.6660   -0.7640    0.4780 C   0  0  0  0  0  0  0  0  0  0  0  0
    2.1650    0.5160    0.7780 O   0  0  0  0  0  0  0  0  0  0  0  0
    3.0580    0.3830    1.7250 O   0  0  0  0  0  0  0  0  0  0  0  0
   -0.5100    0.1670   -0.0630 C   0  0  2  0  0  0  0  0  0  0  0  0
   -0.1250    1.4460    0.2880 O   0  0  0  0  0  0  0  0  0  0  0  0
   -1.2180   -0.5430    1.0730 C   0  0  0  0  0  0  0  0  0  0  0  0
   -2.5170    0.2450    1.0540 C   0  0  0  0  0  0  0  0  0  0  0  0
   -2.8130    0.4920   -0.2600 O   0  0  0  0  0  0  0  0  0  0  0  0
   -1.6800    0.3010   -1.0230 C   0  0  0  0  0  0  0  0  0  0  0  0
  2  1  1  6
  2  3  1  0
  2  6  1  0
  3  4  1  0
  4  5  1  0
  6  7  1  1
  6  8  1  0
  6 11  1  0
  8  9  1  0
  9 10  1  0
 10 11  1  0
M  CHG  1   1   1
M  END
