
     RDKit          3D

 10 10  0  0  0  0  0  0  0  0999 V2000
    2.3310    1.0100   -0.1270 N   0  0  0  0  0  0  0  0  0  0  0  0
    1.9720   -0.3110    0.2770 C   0  0  0  0  0  0  0  0  0  0  0  0
    0.4960   -0.5890    0.2350 C   0  0  2  0  0  0  0  0  0  0  0  0
    0.3110   -1.9100    0.6550 O   0  0  0  0  0  0  0  0  0  0  0  0
   -0.1180   -0.4420   -1.1100 C   0  0  0  0  0  0  0  0  0  0  0  0
   -1.6350   -0.5870   -0.9240 C   0  0  0  0  0  0  0  0  0  0  0  0
   -2.0760    0.6420   -0.1460 C   0  0  1  0  0  0  0  0  0  0  0  0
   -3.0760    0.3440    0.7590 O   0  0  0  0  0  0  0  0  0  0  0  0
   -0.9850    1.2260    0.5200 O   0  0  0  0  0  0  0  0  0  0  0  0
   -0.2520    0.2890    1.2180 C   0  0  0  0  0  0  0  0  0  0  0  0
  1  2  1  0
  2  3  1  0
  3  4  1  1
  3  5  1  0
  3 10  1  0
  5  6  1  0
  6  7  1  0
  7  8  1  1
  7  9  1  0
  9 10  1  0
M  CHG  1   1   1
M  END
