
     RDKit          3D

 11 10  0  0  0  0  0  0  0  0999 V2000
    0.9940   -2.0990    0.2840 C   0  0  0  0  0  0  0  0  0  0  0  0
    0.5170   -0.6640    0.2140 C   0  0  2  0  0  0  0  0  0  0  0  0
   -0.8180   -0.7040   -0.3560 N   0  0  0  0  0  0  0  0  0  0  0  0
   -1.5660    0.4940   -0.1450 C   0  0  2  0  0  0  0  0  0  0  0  0
   -1.1800    1.1800    0.9910 O   0  0  0  0  0  0  0  0  0  0  0  0
   -3.0490    0.1280    0.0080 C   0  0  0  0  0  0  0  0  0  0  0  0
   -3.8200    1.2670    0.2160 O   0  0  0  0  0  0  0  0  0  0  0  0
    1.3790    0.1860   -0.6630 C   0  0  1  0  0  0  0  0  0  0  0  0
    0.8190    1.4620   -0.7030 O   0  0  0  0  0  0  0  0  0  0  0  0
    2.7900    0.3160   -0.1840 C   0  0  0  0  0  0  0  0  0  0  0  0
    2.8520    0.8760    1.0760 O   0  0  0  0  0  0  0  0  0  0  0  0
  2  1  1  6
  2  3  1  0
  2  8  1  0
  3  4  1  0
  4  5  1  1
  4  6  1  0
  6  7  1  0
  8  9  1  1
  8 10  1  0
 10 11  1  0
M  CHG  1   3   1
M  END
