
     RDKit          3D

 10 10  0  0  0  0  0  0  0  0999 V2000
   -1.2310   -0.1800    1.4000 N   0  0  0  0  0  0  0  0  0  0  0  0
   -0.8310   -0.1510    0.0070 C   0  0  1  0  0  0  0  0  0  0  0  0
   -1.9200    0.5610   -0.7520 C   0  0  0  0  0  0  0  0  0  0  0  0
   -2.1350    1.8530   -0.3300 O   0  0  0  0  0  0  0  0  0  0  0  0
    0.4960    0.4970   -0.1710 C   0  0  0  0  0  0  0  0  0  0  0  0
    1.4020   -0.4220   -0.4660 C   0  0  0  0  0  0  0  0  0  0  0  0
    2.8600   -0.2300   -0.7280 C   0  0  0  0  0  0  0  0  0  0  0  0
    3.2390    1.0860   -0.6360 O   0  0  0  0  0  0  0  0  0  0  0  0
    0.7990   -1.6800   -0.5070 O   0  0  0  0  0  0  0  0  0  0  0  0
   -0.6150   -1.5070   -0.5710 C   0  0  0  0  0  0  0  0  0  0  0  0
  2  1  1  1
  2  3  1  0
  2  5  1  0
  2 10  1  0
  3  4  1  0
  5  6  2  0
  6  7  1  0
  6  9  1  0
  7  8  1  0
  9 10  1  0
M  CHG  1   1   1
M  END
