
     RDKit          3D

 15 15  0  0  0  0  0  0  0  0999 V2000
    1.1170   -2.3450   -0.7370 C   0  0  0  0  0  0  0  0  0  0  0  0
    1.2860   -1.0590   -0.0040 C   0  0  1  0  0  0  0  0  0  0  0  0
    1.6840   -1.3440    1.3000 O   0  0  0  0  0  0  0  0  0  0  0  0
    2.4190   -0.2940   -0.6580 C   0  0  0  0  0  0  0  0  0  0  0  0
    2.6540    1.2800    0.2100 S   0  0  0  0  0  0  0  0  0  0  0  0
    3.9460    2.1410   -0.5430 O   0  0  0  0  0  0  0  0  0  0  0  0
    0.0390   -0.1850   -0.0200 C   0  0  1  0  0  0  0  0  0  0  0  0
   -0.3820    0.1000   -1.4180 C   0  0  0  0  0  0  0  0  0  0  0  0
   -1.0130   -0.8830    0.8080 C   0  0  0  0  0  0  0  0  0  0  0  0
   -2.2240   -0.0200    0.8830 C   0  0  2  0  0  0  0  0  0  0  0  0
   -3.1620   -0.5380   -0.0410 O   0  0  0  0  0  0  0  0  0  0  0  0
   -2.0120    1.4240    0.6490 C   0  0  1  0  0  0  0  0  0  0  0  0
   -2.7770    2.1350    1.6070 O   0  0  0  0  0  0  0  0  0  0  0  0
   -0.6110    1.9100    0.7430 C   0  0  0  0  0  0  0  0  0  0  0  0
    0.3720    0.9810    0.6390 O   0  0  0  0  0  0  0  0  0  0  0  0
  2  1  1  6
  2  3  1  0
  2  4  1  0
  2  7  1  0
  4  5  1  0
  5  6  1  0
  7  8  1  6
  7  9  1  0
  7 15  1  0
  9 10  1  0
 10 11  1  6
 10 12  1  0
 12 13  1  1
 12 14  1  0
 14 15  1  0
M  END
