
     RDKit          3D

 15 15  0  0  0  0  0  0  0  0999 V2000
    4.2000    1.2340   -1.0660 O   0  0  0  0  0  0  0  0  0  0  0  0
    4.2350   -0.0750   -0.6490 C   0  0  0  0  0  0  0  0  0  0  0  0
    3.0640   -0.3360    0.2680 C   0  0  1  0  0  0  0  0  0  0  0  0
    3.1450    0.5130    1.3740 O   0  0  0  0  0  0  0  0  0  0  0  0
    1.7800   -0.1350   -0.5050 C   0  0  0  0  0  0  0  0  0  0  0  0
    0.6640   -0.3900    0.3070 O   0  0  0  0  0  0  0  0  0  0  0  0
   -0.5130   -0.2100   -0.3860 C   0  0  2  0  0  0  0  0  0  0  0  0
   -1.2910    0.9030    0.2840 C   0  0  0  0  0  0  0  0  0  0  0  0
   -2.4390    1.3910   -0.5510 C   0  0  2  0  0  0  0  0  0  0  0  0
   -2.6740    2.7300   -0.1670 O   0  0  0  0  0  0  0  0  0  0  0  0
   -3.6980    0.6190   -0.3780 C   0  0  0  0  0  0  0  0  0  0  0  0
   -3.6280   -0.7270    0.7760 S   0  0  0  0  0  0  0  0  0  0  0  0
   -2.0920   -1.6290    0.8050 C   0  0  0  0  0  0  0  0  0  0  0  0
   -1.2740   -1.5020   -0.4400 C   0  0  2  0  0  0  0  0  0  0  0  0
   -0.3700   -2.5630   -0.4770 O   0  0  0  0  0  0  0  0  0  0  0  0
  1  2  1  0
  2  3  1  0
  3  4  1  1
  3  5  1  0
  5  6  1  0
  7  6  1  1
  7  8  1  0
  7 14  1  0
  8  9  1  0
  9 10  1  1
  9 11  1  0
 11 12  1  0
 12 13  1  0
 13 14  1  0
 14 15  1  1
M  END
