
     RDKit          3D

 15 15  0  0  0  0  0  0  0  0999 V2000
    4.0220   -0.9320    0.3720 C   0  0  0  0  0  0  0  0  0  0  0  0
    2.7060   -0.1830    0.5500 C   0  0  1  0  0  0  0  0  0  0  0  0
    2.9600    1.2280    1.0580 C   0  0  0  0  0  0  0  0  0  0  0  0
    1.8970   -0.1730   -1.0620 S   0  0  0  0  0  0  0  0  0  0  0  0
    0.1090   -0.2220   -0.9530 C   0  0  2  0  0  0  0  0  0  0  0  0
   -0.4010    0.9600   -0.3980 O   0  0  0  0  0  0  0  0  0  0  0  0
   -1.7390    0.9970   -0.7760 C   0  0  2  0  0  0  0  0  0  0  0  0
   -2.2860    2.3890   -0.7320 C   0  0  0  0  0  0  0  0  0  0  0  0
   -2.2120    2.9820    0.5170 O   0  0  0  0  0  0  0  0  0  0  0  0
   -2.4760    0.0080    0.0740 C   0  0  2  0  0  0  0  0  0  0  0  0
   -2.2090    0.1590    1.4380 O   0  0  0  0  0  0  0  0  0  0  0  0
   -1.9420   -1.3640   -0.3270 C   0  0  2  0  0  0  0  0  0  0  0  0
   -2.5500   -2.3910    0.3710 O   0  0  0  0  0  0  0  0  0  0  0  0
   -0.4250   -1.3850   -0.1660 C   0  0  1  0  0  0  0  0  0  0  0  0
    0.0310   -2.5520   -0.7800 O   0  0  0  0  0  0  0  0  0  0  0  0
  2  1  1  6
  2  3  1  0
  2  4  1  0
  5  4  1  1
  5  6  1  0
  5 14  1  0
  6  7  1  0
  7  8  1  1
  7 10  1  0
  8  9  1  0
 10 11  1  1
 10 12  1  0
 12 13  1  1
 12 14  1  0
 14 15  1  6
M  END
