
     RDKit          3D

 15 15  0  0  0  0  0  0  0  0999 V2000
   -2.8410   -2.1030    0.9080 O   0  0  0  0  0  0  0  0  0  0  0  0
   -1.5830   -1.5430    0.7530 C   0  0  0  0  0  0  0  0  0  0  0  0
   -1.6930   -0.1160    0.2880 C   0  0  0  0  0  0  0  0  0  0  0  0
   -2.8710    0.3880    0.0980 C   0  0  0  0  0  0  0  0  0  0  0  0
   -3.2710    1.7250   -0.3450 C   0  0  1  0  0  0  0  0  0  0  0  0
   -4.0430    2.2800    0.6930 O   0  0  0  0  0  0  0  0  0  0  0  0
   -1.8510    2.7620   -0.6500 S   0  0  0  0  0  0  0  0  0  0  0  0
   -0.3930    1.8500   -0.3220 C   0  0  0  0  0  0  0  0  0  0  0  0
   -0.4430    0.6140    0.0780 C   0  0  0  0  0  0  0  0  0  0  0  0
    0.7760   -0.0430    0.3180 O   0  0  0  0  0  0  0  0  0  0  0  0
    1.5680   -0.5140   -0.7720 C   0  0  0  0  0  0  0  0  0  0  0  0
    2.8230   -1.1810   -0.2260 C   0  0  2  0  0  0  0  0  0  0  0  0
    2.4590   -2.2510    0.5870 O   0  0  0  0  0  0  0  0  0  0  0  0
    3.6150   -0.1520    0.5850 C   0  0  0  0  0  0  0  0  0  0  0  0
    3.9430    0.8820   -0.2840 O   0  0  0  0  0  0  0  0  0  0  0  0
  1  2  1  0
  2  3  1  0
  3  4  2  0
  3  9  1  0
  4  5  1  0
  5  6  1  1
  5  7  1  0
  7  8  1  0
  8  9  2  0
  9 10  1  0
 10 11  1  0
 11 12  1  0
 12 13  1  1
 12 14  1  0
 14 15  1  0
M  END
