
     RDKit          3D

 15 15  0  0  0  0  0  0  0  0999 V2000
   -0.3340    2.6580   -0.5060 C   0  0  0  0  0  0  0  0  0  0  0  0
   -1.0210    1.5310    0.2010 C   0  0  1  0  0  0  0  0  0  0  0  0
   -1.1470    1.8230    1.5690 O   0  0  0  0  0  0  0  0  0  0  0  0
   -2.2900    1.2580   -0.2620 O   0  0  0  0  0  0  0  0  0  0  0  0
   -2.3600    0.2710   -1.2210 C   0  0  0  0  0  0  0  0  0  0  0  0
   -1.9830   -1.1050   -0.6850 C   0  0  0  0  0  0  0  0  0  0  0  0
   -1.1760   -0.8270    0.5770 C   0  0  1  0  0  0  0  0  0  0  0  0
   -2.0430   -0.3040    1.5310 O   0  0  0  0  0  0  0  0  0  0  0  0
   -0.5220   -2.0470    1.1350 C   0  0  0  0  0  0  0  0  0  0  0  0
   -1.5400   -2.8610    1.6520 O   0  0  0  0  0  0  0  0  0  0  0  0
   -0.2000    0.2470    0.1470 C   0  0  2  0  0  0  0  0  0  0  0  0
    1.2840    0.3170    1.1390 S   0  0  0  0  0  0  0  0  0  0  0  0
    2.6130   -0.5670    0.2850 C   0  0  0  0  0  0  0  0  0  0  0  0
    3.8160    0.2970    0.0280 C   0  0  0  0  0  0  0  0  0  0  0  0
    4.8750   -0.5490   -0.3350 O   0  0  0  0  0  0  0  0  0  0  0  0
  2  1  1  6
  2  3  1  0
  2  4  1  0
  2 11  1  0
  4  5  1  0
  5  6  1  0
  6  7  1  0
  7  8  1  1
  7  9  1  0
  7 11  1  0
  9 10  1  0
 11 12  1  1
 12 13  1  0
 13 14  1  0
 14 15  1  0
M  END
