
     RDKit          3D

 18 19  0  0  0  0  0  0  0  0999 V2000
    6.1950   -1.5370   -0.9400 C   0  0  0  0  0  0  0  0  0  0  0  0
    4.8930   -0.8410   -0.6750 C   0  0  0  0  0  0  0  0  0  0  0  0
    4.6150    0.0290    0.3080 N   0  0  0  0  0  0  0  0  0  0  0  0
    3.3170    0.4340    0.2020 C   0  0  0  0  0  0  0  0  0  0  0  0
    2.6200    1.4000    1.0900 C   0  0  0  0  0  0  0  0  0  0  0  0
    1.1850    1.5940    0.7050 C   0  0  0  0  0  0  0  0  0  0  0  0
    0.3710    0.3510    0.7820 C   0  0  0  0  0  0  0  0  0  0  0  0
   -1.0300    0.6150    0.3970 N   0  0  0  0  0  0  0  0  0  0  0  0
   -1.9580   -0.4460    0.4080 C   0  0  0  0  0  0  0  0  0  0  0  0
   -1.5200   -1.5770    0.7540 O   0  0  0  0  0  0  0  0  0  0  0  0
   -3.3860   -0.2740    0.0370 C   0  0  0  0  0  0  0  0  0  0  0  0
   -4.1600   -1.3390    0.0850 C   0  0  0  0  0  0  0  0  0  0  0  0
   -5.5930   -1.4370   -0.2290 C   0  0  0  0  0  0  0  0  0  0  0  0
   -6.3280    0.1120   -0.7350 S   0  0  0  0  0  0  0  0  0  0  0  0
   -5.0540    1.3490   -0.7030 C   0  0  0  0  0  0  0  0  0  0  0  0
   -3.8240    1.0480   -0.3500 C   0  0  0  0  0  0  0  0  0  0  0  0
    2.8590   -0.2300   -0.8730 N   0  0  0  0  0  0  0  0  0  0  0  0
    3.7840   -0.9790   -1.3880 O   0  0  0  0  0  0  0  0  0  0  0  0
  1  2  1  0
  2  3  2  0
  2 18  1  0
  3  4  1  0
  4  5  1  0
  4 17  2  0
  5  6  1  0
  6  7  1  0
  7  8  1  0
  8  9  1  0
  9 10  2  0
  9 11  1  0
 11 12  2  0
 11 16  1  0
 12 13  1  0
 13 14  1  0
 14 15  1  0
 15 16  2  0
 17 18  1  0
M  END
