
     RDKit          3D

 18 19  0  0  0  0  0  0  0  0999 V2000
    5.0760   -1.7570    0.7610 C   0  0  0  0  0  0  0  0  0  0  0  0
    3.6630   -1.7440    0.5800 N   0  0  0  0  0  0  0  0  0  0  0  0
    2.8490   -0.8460    0.8740 C   0  0  0  0  0  0  0  0  0  0  0  0
    3.2200    0.4370    1.4980 C   0  0  0  0  0  0  0  0  0  0  0  0
    2.8570    1.5350    0.6800 O   0  0  0  0  0  0  0  0  0  0  0  0
    3.5080    1.4030   -0.5290 C   0  0  0  0  0  0  0  0  0  0  0  0
    1.1120   -1.1840    0.5030 S   0  0  0  0  0  0  0  0  0  0  0  0
    0.1370    0.2310    1.0710 C   0  0  0  0  0  0  0  0  0  0  0  0
   -1.3100    0.0250    0.7940 C   0  0  0  0  0  0  0  0  0  0  0  0
   -2.0110   -0.6040    1.6210 O   0  0  0  0  0  0  0  0  0  0  0  0
   -1.8900    0.5570   -0.4320 C   0  0  0  0  0  0  0  0  0  0  0  0
   -1.2730    1.2570   -1.4040 N   0  0  0  0  0  0  0  0  0  0  0  0
   -2.1450    1.5680   -2.3800 C   0  0  0  0  0  0  0  0  0  0  0  0
   -3.3360    1.0590   -2.0250 N   0  0  0  0  0  0  0  0  0  0  0  0
   -3.2040    0.4280   -0.8220 C   0  0  0  0  0  0  0  0  0  0  0  0
   -4.2880   -0.2690   -0.0750 C   0  0  1  0  0  0  0  0  0  0  0  0
   -5.6270   -0.4260   -0.7120 C   0  0  0  0  0  0  0  0  0  0  0  0
   -4.7580   -1.6270   -0.5730 C   0  0  0  0  0  0  0  0  0  0  0  0
  1  2  1  0
  2  3  2  3
  3  4  1  0
  3  7  1  0
  4  5  1  0
  5  6  1  0
  7  8  1  0
  8  9  1  0
  9 10  2  0
  9 11  1  0
 11 12  1  0
 11 15  2  0
 12 13  1  0
 13 14  2  0
 14 15  1  0
 16 15  1  6
 16 17  1  0
 16 18  1  0
 17 18  1  0
M  END
