
     RDKit          3D

 18 19  0  0  0  0  0  0  0  0999 V2000
    0.7370   -0.3940    1.2470 O   0  0  0  0  0  0  0  0  0  0  0  0
    0.4960    0.2200    0.1750 C   0  0  0  0  0  0  0  0  0  0  0  0
    1.0680    1.5660   -0.1510 C   0  0  0  0  0  0  0  0  0  0  0  0
    2.3830    1.5130   -1.3750 S   0  0  0  0  0  0  0  0  0  0  0  0
    3.8240    0.6930   -0.7500 C   0  0  0  0  0  0  0  0  0  0  0  0
    4.8210    1.3160   -0.1040 N   0  0  0  0  0  0  0  0  0  0  0  0
    5.8980    0.6810    0.3480 C   0  0  0  0  0  0  0  0  0  0  0  0
    5.9780   -0.6450    0.1440 N   0  0  0  0  0  0  0  0  0  0  0  0
    5.0070   -1.3200   -0.4960 C   0  0  0  0  0  0  0  0  0  0  0  0
    3.9330   -0.6300   -0.9380 N   0  0  0  0  0  0  0  0  0  0  0  0
   -0.3430   -0.4080   -0.7160 O   0  0  0  0  0  0  0  0  0  0  0  0
   -0.9790   -1.6180   -0.5910 C   0  0  0  0  0  0  0  0  0  0  0  0
   -1.9700   -1.6530    0.5680 C   0  0  0  0  0  0  0  0  0  0  0  0
   -2.9270   -0.5380    0.2750 C   0  0  0  0  0  0  0  0  0  0  0  0
   -3.1370    0.4800    1.0740 C   0  0  0  0  0  0  0  0  0  0  0  0
   -4.1260    1.3610    0.4660 C   0  0  0  0  0  0  0  0  0  0  0  0
   -4.4710    0.7340   -0.8100 C   0  0  0  0  0  0  0  0  0  0  0  0
   -3.7580   -0.3780   -0.8970 C   0  0  0  0  0  0  0  0  0  0  0  0
  1  2  2  0
  2  3  1  0
  2 11  1  0
  3  4  1  0
  4  5  1  0
  5  6  2  0
  5 10  1  0
  6  7  1  0
  7  8  2  0
  8  9  1  0
  9 10  2  0
 11 12  1  0
 12 13  1  0
 13 14  1  0
 14 15  2  0
 14 18  1  0
 15 16  1  0
 16 17  1  0
 17 18  2  0
M  END
