
     RDKit          3D

 18 19  0  0  0  0  0  0  0  0999 V2000
   -4.0460    1.7490    1.0810 C   0  0  0  0  0  0  0  0  0  0  0  0
   -2.9870    1.1080    0.6100 C   0  0  0  0  0  0  0  0  0  0  0  0
   -2.2800    0.0930    1.4380 C   0  0  0  0  0  0  0  0  0  0  0  0
   -2.3300   -1.2480    0.6960 C   0  0  0  0  0  0  0  0  0  0  0  0
   -1.6670   -1.0720   -0.5970 C   0  0  0  0  0  0  0  0  0  0  0  0
   -2.3160   -0.9510   -1.7610 N   0  0  0  0  0  0  0  0  0  0  0  0
   -1.4460   -0.8040   -2.7460 N   0  0  0  0  0  0  0  0  0  0  0  0
   -0.1910   -0.8250   -2.2620 C   0  0  0  0  0  0  0  0  0  0  0  0
    1.0720   -0.6930   -3.0380 C   0  0  0  0  0  0  0  0  0  0  0  0
   -0.3340   -0.9960   -0.8920 C   0  0  0  0  0  0  0  0  0  0  0  0
    0.9770   -1.0920    0.2160 S   0  0  2  0  0  0  0  0  0  0  0  0
    2.1890   -1.6320   -0.5020 O   0  0  0  0  0  0  0  0  0  0  0  0
    0.7310   -1.9870    1.3830 O   0  0  0  0  0  0  0  0  0  0  0  0
    1.4400    0.4580    0.8450 N   0  0  0  0  0  0  0  0  0  0  0  0
    2.6810    0.7820    1.0020 C   0  0  0  0  0  0  0  0  0  0  0  0
    3.2870    2.0050    1.5030 C   0  0  0  0  0  0  0  0  0  0  0  0
    4.4880    1.4950    1.3250 C   0  0  0  0  0  0  0  0  0  0  0  0
    4.0030    0.2000    0.7970 C   0  0  0  0  0  0  0  0  0  0  0  0
  1  2  2  0
  2  3  1  0
  3  4  1  0
  4  5  1  0
  5  6  1  0
  5 10  2  0
  6  7  1  0
  7  8  2  0
  8  9  1  0
  8 10  1  0
 10 11  1  0
 11 12  2  0
 11 13  2  0
 11 14  1  1
 14 15  2  3
 15 16  1  0
 15 18  1  0
 16 17  2  0
 17 18  1  0
M  END
