
     RDKit          3D

 11 11  0  0  0  0  0  0  0  0999 V2000
   -1.9950   -1.2120   -1.9490 C   0  0  0  0  0  0  0  0  0  0  0  0
   -1.9860   -0.6910   -0.7350 C   0  0  0  0  0  0  0  0  0  0  0  0
   -1.9150   -0.1690    0.4520 C   0  0  0  0  0  0  0  0  0  0  0  0
   -2.9990   -0.0600    1.2630 O   0  0  0  0  0  0  0  0  0  0  0  0
   -2.5520    0.9190    2.6830 P   0  0  0  0  0  0  0  0  0  0  0  0
   -0.8460    0.6310    2.8480 O   0  0  0  0  0  0  0  0  0  0  0  0
   -0.3930    0.4650    1.1580 P   0  0  0  0  0  0  0  0  0  0  0  0
    0.9810   -0.5710    0.9680 O   0  0  0  0  0  0  0  0  0  0  0  0
    1.9580   -0.2060    0.0180 C   0  0  0  0  0  0  0  0  0  0  0  0
    2.7900   -1.0850   -0.4660 C   0  0  0  0  0  0  0  0  0  0  0  0
    2.0690    1.5310   -0.5530 P   0  0  0  0  0  0  0  0  0  0  0  0
  1  2  2  0
  2  3  2  0
  3  4  1  0
  3  7  1  0
  4  5  1  0
  5  6  1  0
  6  7  1  0
  7  8  1  0
  8  9  1  0
  9 10  2  0
  9 11  1  0
M  END
