
     RDKit          3D

 11 10  0  0  0  0  0  0  0  0999 V2000
   -4.8770   -0.1940   -0.1480 C   0  0  0  0  0  0  0  0  0  0  0  0
   -3.5620   -0.2540   -0.1260 C   0  0  0  0  0  0  0  0  0  0  0  0
   -2.8210    0.8410   -0.5050 O   0  0  0  0  0  0  0  0  0  0  0  0
   -1.5770    1.0470    0.1390 C   0  0  0  0  0  0  0  0  0  0  0  0
   -0.7760   -0.0660   -0.1040 O   0  0  0  0  0  0  0  0  0  0  0  0
    0.5020   -0.2680    0.3400 C   0  0  0  0  0  0  0  0  0  0  0  0
    0.7100   -0.9420    1.8440 P   0  0  0  0  0  0  0  0  0  0  0  0
    1.6270    0.0980   -0.4830 C   0  0  0  0  0  0  0  0  0  0  0  0
    2.8500   -0.0920   -0.0630 C   0  0  0  0  0  0  0  0  0  0  0  0
    4.0670    0.2500   -0.8340 C   0  0  0  0  0  0  0  0  0  0  0  0
    3.0540   -0.6560    1.1940 O   0  0  0  0  0  0  0  0  0  0  0  0
  1  2  2  0
  2  3  1  0
  3  4  1  0
  4  5  1  0
  5  6  1  0
  6  7  2  0
  6  8  1  0
  8  9  2  3
  9 10  1  0
  9 11  1  0
M  END
