
     RDKit          3D

 10  9  0  0  0  0  0  0  0  0999 V2000
    0.6790   -0.3340    1.0320 O   0  0  0  0  0  0  0  0  0  0  0  0
    0.2690   -0.9450    0.0130 C   0  0  0  0  0  0  0  0  0  0  0  0
   -1.1320   -1.2750   -0.0730 C   0  0  0  0  0  0  0  0  0  0  0  0
   -1.9620   -0.3340    0.3090 C   0  0  0  0  0  0  0  0  0  0  0  0
   -2.7070    0.6970    0.5950 C   0  0  0  0  0  0  0  0  0  0  0  0
   -3.0650    1.8190   -0.7830 P   0  0  0  0  0  0  0  0  0  0  0  0
    1.2020   -1.3060   -1.0490 C   0  0  0  0  0  0  0  0  0  0  0  0
    2.4790   -0.9860   -0.9300 C   0  0  0  0  0  0  0  0  0  0  0  0
    2.9670   -0.3070    0.1880 O   0  0  0  0  0  0  0  0  0  0  0  0
    3.2950    0.9780    0.0930 O   0  0  0  0  0  0  0  0  0  0  0  0
  1  2  2  0
  2  3  1  0
  2  7  1  0
  3  4  2  0
  4  5  2  0
  5  6  1  0
  7  8  2  3
  8  9  1  0
  9 10  1  0
M  END
