
     RDKit          3D

 11 10  0  0  0  0  0  0  0  0999 V2000
    3.8810    0.5510   -0.0520 C   0  0  0  0  0  0  0  0  0  0  0  0
    2.6130   -0.7180   -0.5210 P   0  0  0  0  0  0  0  0  0  0  0  0
    0.9900   -0.3580    0.2190 C   0  0  0  0  0  0  0  0  0  0  0  0
   -0.1050   -0.3150   -0.5200 C   0  0  0  0  0  0  0  0  0  0  0  0
   -1.4390   -0.0210    0.0750 C   0  0  2  0  0  0  0  0  0  0  0  0
   -1.2520    0.4210    1.3810 O   0  0  0  0  0  0  0  0  0  0  0  0
   -2.1990   -1.3320    0.1050 C   0  0  0  0  0  0  0  0  0  0  0  0
   -1.2760   -2.4810    1.1060 Cl  0  0  0  0  0  0  0  0  0  0  0  0
   -2.1280    1.0060   -0.7150 C   0  0  0  0  0  0  0  0  0  0  0  0
   -2.3800    0.7720   -1.9280 O   0  0  0  0  0  0  0  0  0  0  0  0
   -2.4900    2.2050   -0.1300 O   0  0  0  0  0  0  0  0  0  0  0  0
  1  2  1  0
  2  3  1  0
  3  4  2  3
  4  5  1  0
  5  6  1  1
  5  7  1  0
  5  9  1  0
  7  8  1  0
  9 10  2  0
  9 11  1  0
M  END
