
     RDKit          3D

 42 46  0  0  0  0  0  0  0  0999 V2000
   -9.5430   -3.2590   -0.7820 C   0  0  0  0  0  0  0  0  0  0  0  0
   -8.5450   -2.1980   -1.0860 C   0  0  0  0  0  0  0  0  0  0  0  0
   -8.3880   -1.7240   -2.3880 C   0  0  0  0  0  0  0  0  0  0  0  0
   -7.4630   -0.7400   -2.6830 C   0  0  0  0  0  0  0  0  0  0  0  0
   -7.2820   -0.2220   -4.0680 C   0  0  0  0  0  0  0  0  0  0  0  0
   -6.6890   -0.2290   -1.6590 C   0  0  0  0  0  0  0  0  0  0  0  0
   -5.7390    0.7640   -1.9000 C   0  0  0  0  0  0  0  0  0  0  0  0
   -4.9580    1.2840   -0.8890 C   0  0  0  0  0  0  0  0  0  0  0  0
   -3.9860    2.2370   -0.8880 N   0  0  0  0  0  0  0  0  0  0  0  0
   -3.5140    2.3920    0.3590 C   0  0  0  0  0  0  0  0  0  0  0  0
   -2.4460    3.3190    0.8070 C   0  0  0  0  0  0  0  0  0  0  0  0
   -1.1740    2.7210    1.0060 N   0  0  0  0  0  0  0  0  0  0  0  0
   -0.6000    1.7800    0.4320 C   0  0  0  0  0  0  0  0  0  0  0  0
   -1.4300    0.9720   -0.8850 Cl  0  0  0  0  0  0  0  0  0  0  0  0
    0.7260    1.3150    0.7890 C   0  0  0  0  0  0  0  0  0  0  0  0
    1.3100    0.2520    0.0910 C   0  0  0  0  0  0  0  0  0  0  0  0
    2.5720   -0.2300    0.3580 C   0  0  0  0  0  0  0  0  0  0  0  0
    3.3250    0.3320    1.3490 C   0  0  0  0  0  0  0  0  0  0  0  0
    4.6290   -0.0450    1.7310 N   0  0  0  0  0  0  0  0  0  0  0  0
    5.3970   -1.0980    1.2070 C   0  0  0  0  0  0  0  0  0  0  0  0
    4.9240   -1.8230    0.3050 O   0  0  0  0  0  0  0  0  0  0  0  0
    6.7340   -1.3690    1.6860 N   0  0  0  0  0  0  0  0  0  0  0  0
    7.5290   -2.4360    1.1680 C   0  0  0  0  0  0  0  0  0  0  0  0
    8.1080   -2.1700   -0.1760 C   0  0  0  0  0  0  0  0  0  0  0  0
    7.4970   -2.7490   -1.2720 C   0  0  0  0  0  0  0  0  0  0  0  0
    7.9780   -2.5420   -2.5320 C   0  0  0  0  0  0  0  0  0  0  0  0
    9.0930   -1.7400   -2.6880 C   0  0  0  0  0  0  0  0  0  0  0  0
    9.7100   -1.1580   -1.6040 C   0  0  0  0  0  0  0  0  0  0  0  0
   10.9240   -0.2830   -1.7680 C   0  0  0  0  0  0  0  0  0  0  0  0
    9.1850   -1.4010   -0.3810 N   0  0  0  0  0  0  0  0  0  0  0  0
    2.7380    1.3900    2.0420 C   0  0  0  0  0  0  0  0  0  0  0  0
    3.4010    1.9420    2.9700 O   0  0  0  0  0  0  0  0  0  0  0  0
    1.5030    1.8380    1.7580 N   0  0  0  0  0  0  0  0  0  0  0  0
    1.0200    2.9450    2.5590 C   0  0  0  0  0  0  0  0  0  0  0  0
    1.3080    4.2560    1.9190 C   0  0  0  0  0  0  0  0  0  0  0  0
    1.8850    4.2650    0.8510 O   0  0  0  0  0  0  0  0  0  0  0  0
   -4.2010    1.5240    1.1490 N   0  0  0  0  0  0  0  0  0  0  0  0
   -4.0530    1.3170    2.5750 C   0  0  0  0  0  0  0  0  0  0  0  0
   -5.0910    0.8380    0.3950 C   0  0  0  0  0  0  0  0  0  0  0  0
   -6.0230   -0.1430    0.6520 C   0  0  0  0  0  0  0  0  0  0  0  0
   -6.8050   -0.6640   -0.3570 C   0  0  0  0  0  0  0  0  0  0  0  0
   -7.7470   -1.6540   -0.1020 C   0  0  0  0  0  0  0  0  0  0  0  0
  1  2  1  0
  2  3  2  0
  2 42  1  0
  3  4  1  0
  4  5  1  0
  4  6  2  0
  6  7  1  0
  6 41  1  0
  7  8  2  0
  8  9  1  0
  8 39  1  0
  9 10  2  0
 10 11  1  0
 10 37  1  0
 11 12  1  0
 12 13  2  3
 13 14  1  0
 13 15  1  0
 15 16  2  0
 15 33  1  0
 16 17  1  0
 17 18  2  0
 18 19  1  0
 18 31  1  0
 19 20  1  0
 20 21  2  0
 20 22  1  0
 22 23  1  0
 23 24  1  0
 24 25  2  0
 24 30  1  0
 25 26  1  0
 26 27  2  0
 27 28  1  0
 28 29  1  0
 28 30  2  0
 31 32  2  0
 31 33  1  0
 33 34  1  0
 34 35  1  0
 35 36  2  0
 37 38  1  0
 37 39  1  0
 39 40  2  0
 40 41  1  0
 41 42  2  0
M  END
