
     RDKit          3D

 42 46  0  0  0  0  0  0  0  0999 V2000
   10.0640    2.7550    1.0750 C   0  0  0  0  0  0  0  0  0  0  0  0
   10.2270    1.6330    0.1190 C   0  0  0  0  0  0  0  0  0  0  0  0
   11.3750    1.2190   -0.1700 O   0  0  0  0  0  0  0  0  0  0  0  0
    9.0820    0.9930   -0.5010 C   0  0  0  0  0  0  0  0  0  0  0  0
    9.2310   -0.0480   -1.3900 C   0  0  0  0  0  0  0  0  0  0  0  0
    8.0700   -0.5980   -1.9310 C   0  0  0  0  0  0  0  0  0  0  0  0
    6.8130   -0.1330   -1.6010 C   0  0  0  0  0  0  0  0  0  0  0  0
    5.6410   -0.7840   -2.2320 C   0  0  0  0  0  0  0  0  0  0  0  0
    4.4900   -0.4230   -1.4980 O   0  0  0  0  0  0  0  0  0  0  0  0
    4.4490   -0.7780   -0.1660 C   0  0  0  0  0  0  0  0  0  0  0  0
    5.4040   -1.3930    0.3490 O   0  0  0  0  0  0  0  0  0  0  0  0
    3.2790   -0.4380    0.6750 C   0  0  2  0  0  0  0  0  0  0  0  0
    3.4770   -0.9040    2.0310 N   0  0  0  0  0  0  0  0  0  0  0  0
    3.0110   -2.2430    2.0550 C   0  0  0  0  0  0  0  0  0  0  0  0
    3.0240   -3.0400    3.0450 O   0  0  0  0  0  0  0  0  0  0  0  0
    2.5150   -2.5680    0.7770 O   0  0  0  0  0  0  0  0  0  0  0  0
    2.1270   -1.3170    0.2220 C   0  0  1  0  0  0  0  0  0  0  0  0
    0.8450   -0.8490    0.8240 C   0  0  0  0  0  0  0  0  0  0  0  0
    0.4270    0.3880    1.2690 C   0  0  0  0  0  0  0  0  0  0  0  0
   -0.7770    0.4340    1.7570 N   0  0  0  0  0  0  0  0  0  0  0  0
   -1.5880   -0.4340    1.8830 C   0  0  0  0  0  0  0  0  0  0  0  0
   -2.9560   -0.6600    2.4210 C   0  0  0  0  0  0  0  0  0  0  0  0
   -3.4840   -2.0130    2.1390 C   0  0  0  0  0  0  0  0  0  0  0  0
   -3.6720   -2.2960    0.6930 C   0  0  0  0  0  0  0  0  0  0  0  0
   -4.5780   -1.4100    0.0640 O   0  0  0  0  0  0  0  0  0  0  0  0
   -4.8880   -1.5090   -1.2880 C   0  0  0  0  0  0  0  0  0  0  0  0
   -4.2700   -2.5270   -2.0420 C   0  0  0  0  0  0  0  0  0  0  0  0
   -4.5290   -2.6840   -3.3830 C   0  0  0  0  0  0  0  0  0  0  0  0
   -5.4130   -1.8140   -3.9770 C   0  0  0  0  0  0  0  0  0  0  0  0
   -6.0000   -0.8390   -3.2380 C   0  0  0  0  0  0  0  0  0  0  0  0
   -5.7630   -0.6460   -1.8690 C   0  0  0  0  0  0  0  0  0  0  0  0
   -6.4480    0.4240   -1.1780 C   0  0  0  0  0  0  0  0  0  0  0  0
   -7.2540    1.1750   -1.8480 O   0  0  0  0  0  0  0  0  0  0  0  0
   -6.3530    0.7730    0.1770 N   0  0  0  0  0  0  0  0  0  0  0  0
   -7.0850    1.8580    0.7410 C   0  0  2  0  0  0  0  0  0  0  0  0
   -6.1760    2.9610    1.2720 C   0  0  0  0  0  0  0  0  0  0  0  0
   -7.1300    4.1140    1.5600 C   0  0  0  0  0  0  0  0  0  0  0  0
   -8.5010    3.1970    2.3720 S   0  0  0  0  0  0  0  0  0  0  0  0
   -7.9870    1.4960    1.8800 C   0  0  0  0  0  0  0  0  0  0  0  0
   -0.6030   -1.8900    1.1650 S   0  0  0  0  0  0  0  0  0  0  0  0
    6.6570    0.8950   -0.7230 C   0  0  0  0  0  0  0  0  0  0  0  0
    7.8260    1.4410   -0.1850 C   0  0  0  0  0  0  0  0  0  0  0  0
  1  2  1  0
  2  3  2  0
  2  4  1  0
  4  5  2  0
  4 42  1  0
  5  6  1  0
  6  7  2  0
  7  8  1  0
  7 41  1  0
  8  9  1  0
  9 10  1  0
 10 11  2  0
 12 10  1  6
 12 13  1  0
 12 17  1  0
 13 14  1  0
 14 15  2  0
 14 16  1  0
 16 17  1  0
 17 18  1  1
 18 19  2  0
 18 40  1  0
 19 20  1  0
 20 21  2  0
 21 22  1  0
 21 40  1  0
 22 23  1  0
 23 24  1  0
 24 25  1  0
 25 26  1  0
 26 27  2  0
 26 31  1  0
 27 28  1  0
 28 29  2  0
 29 30  1  0
 30 31  2  0
 31 32  1  0
 32 33  2  0
 32 34  1  0
 35 34  1  1
 35 36  1  0
 35 39  1  0
 36 37  1  0
 37 38  1  0
 38 39  1  0
 41 42  2  0
M  END
