
     RDKit          3D

 42 46  0  0  0  0  0  0  0  0999 V2000
   -6.0940   -2.0070    2.7360 C   0  0  0  0  0  0  0  0  0  0  0  0
   -5.6250   -1.9260    1.3060 C   0  0  0  0  0  0  0  0  0  0  0  0
   -6.0650   -1.0070    0.4920 C   0  0  0  0  0  0  0  0  0  0  0  0
   -5.6000   -0.9170   -0.9480 C   0  0  0  0  0  0  0  0  0  0  0  0
   -5.1360    0.4770   -1.2210 C   0  0  0  0  0  0  0  0  0  0  0  0
   -3.8690    0.8400   -0.7380 C   0  0  0  0  0  0  0  0  0  0  0  0
   -3.0070   -0.1350   -0.2420 N   0  0  0  0  0  0  0  0  0  0  0  0
   -1.6110   -0.0180   -0.1210 C   0  0  0  0  0  0  0  0  0  0  0  0
   -0.8500   -1.0310    0.4230 N   0  0  0  0  0  0  0  0  0  0  0  0
    0.4410   -0.7520    0.3710 C   0  0  0  0  0  0  0  0  0  0  0  0
    1.4980   -1.6290    0.7760 C   0  0  0  0  0  0  0  0  0  0  0  0
    2.4920   -1.4270    1.5870 C   0  0  0  0  0  0  0  0  0  0  0  0
    3.5460   -2.4180    1.9270 C   0  0  0  0  0  0  0  0  0  0  0  0
    3.5950   -3.5690    1.4480 O   0  0  0  0  0  0  0  0  0  0  0  0
    4.4060   -1.7970    2.8460 N   0  0  0  0  0  0  0  0  0  0  0  0
    5.5970   -2.4690    3.3870 C   0  0  0  0  0  0  0  0  0  0  0  0
    6.7420   -2.1740    2.4270 C   0  0  0  0  0  0  0  0  0  0  0  0
    7.8750   -2.6270    2.6720 O   0  0  0  0  0  0  0  0  0  0  0  0
    6.5120   -1.3950    1.2740 N   0  0  0  0  0  0  0  0  0  0  0  0
    7.4550   -1.0400    0.2980 C   0  0  0  0  0  0  0  0  0  0  0  0
    8.7330   -1.3450    0.3070 C   0  0  0  0  0  0  0  0  0  0  0  0
    9.4920   -0.8130   -0.8930 C   0  0  0  0  0  0  0  0  0  0  0  0
    9.2550    0.6740   -0.8800 C   0  0  0  0  0  0  0  0  0  0  0  0
    7.8090    0.9700   -1.1460 C   0  0  0  0  0  0  0  0  0  0  0  0
    6.9680   -0.2430   -0.8920 C   0  0  0  0  0  0  0  0  0  0  0  0
    3.9910   -0.4860    3.1290 C   0  0  0  0  0  0  0  0  0  0  0  0
    4.4980    0.3710    3.8920 O   0  0  0  0  0  0  0  0  0  0  0  0
    2.7980   -0.2720    2.3390 N   0  0  0  0  0  0  0  0  0  0  0  0
    2.0650    0.9880    2.4190 C   0  0  0  0  0  0  0  0  0  0  0  0
    0.5570    0.4880   -0.2250 C   0  0  0  0  0  0  0  0  0  0  0  0
   -0.7270    0.8800   -0.5010 N   0  0  0  0  0  0  0  0  0  0  0  0
   -3.6050    2.1970   -0.8070 C   0  0  0  0  0  0  0  0  0  0  0  0
   -4.4750    3.1440   -1.3050 C   0  0  0  0  0  0  0  0  0  0  0  0
   -4.0640    4.5890   -1.3190 C   0  0  0  0  0  0  0  0  0  0  0  0
   -5.6610    2.7440   -1.7580 N   0  0  0  0  0  0  0  0  0  0  0  0
   -6.0060    1.4000   -1.7250 C   0  0  0  0  0  0  0  0  0  0  0  0
   -7.2040    1.0250   -2.4730 C   0  0  0  0  0  0  0  0  0  0  0  0
   -8.3300    1.7540   -2.3430 C   0  0  0  0  0  0  0  0  0  0  0  0
   -9.3760    1.1760   -3.2030 C   0  0  0  0  0  0  0  0  0  0  0  0
   -8.6730    0.0740   -3.8840 C   0  0  0  0  0  0  0  0  0  0  0  0
   -7.4180   -0.0110   -3.4510 C   0  0  0  0  0  0  0  0  0  0  0  0
   -6.2300   -1.1620   -4.1420 Cl  0  0  0  0  0  0  0  0  0  0  0  0
  1  2  1  0
  2  3  2  3
  3  4  1  0
  4  5  1  0
  5  6  2  0
  5 36  1  0
  6  7  1  0
  6 32  1  0
  7  8  1  0
  8  9  2  0
  8 31  1  0
  9 10  1  0
 10 11  1  0
 10 30  2  0
 11 12  2  3
 12 13  1  0
 12 28  1  0
 13 14  2  0
 13 15  1  0
 15 16  1  0
 15 26  1  0
 16 17  1  0
 17 18  2  0
 17 19  1  0
 19 20  1  0
 20 21  2  0
 20 25  1  0
 21 22  1  0
 22 23  1  0
 23 24  1  0
 24 25  1  0
 26 27  2  0
 26 28  1  0
 28 29  1  0
 30 31  1  0
 32 33  2  0
 33 34  1  0
 33 35  1  0
 35 36  2  0
 36 37  1  0
 37 38  2  0
 37 41  1  0
 38 39  1  0
 39 40  1  0
 40 41  2  0
 41 42  1  0
M  END
