
     RDKit          3D

 42 45  0  0  0  0  0  0  0  0999 V2000
   -5.5140    3.0480   -2.2030 C   0  0  0  0  0  0  0  0  0  0  0  0
   -6.0270    1.6850   -1.8350 C   0  0  0  0  0  0  0  0  0  0  0  0
   -5.5420    1.2010   -0.5060 C   0  0  2  0  0  0  0  0  0  0  0  0
   -5.9640    2.1200    0.5950 C   0  0  0  0  0  0  0  0  0  0  0  0
   -4.7670    3.0260    0.7980 C   0  0  0  0  0  0  0  0  0  0  0  0
   -3.6260    2.2070    0.2970 C   0  0  0  0  0  0  0  0  0  0  0  0
   -4.0440    1.1550   -0.4510 C   0  0  0  0  0  0  0  0  0  0  0  0
   -3.1400    0.3180   -0.9750 N   0  0  0  0  0  0  0  0  0  0  0  0
   -1.7940    0.4500   -0.8070 C   0  0  0  0  0  0  0  0  0  0  0  0
   -0.9980   -0.4030   -1.3400 N   0  0  0  0  0  0  0  0  0  0  0  0
    0.7290   -0.3390   -1.1990 S   0  0  1  0  0  0  0  0  0  0  0  0
    1.5100   -1.0080   -2.2150 O   0  0  0  0  0  0  0  0  0  0  0  0
    0.8890    1.1940   -1.6550 O   0  0  0  0  0  0  0  0  0  0  0  0
    1.2960   -0.3410    0.4370 C   0  0  0  0  0  0  0  0  0  0  0  0
    2.0800    0.6360    0.8980 C   0  0  0  0  0  0  0  0  0  0  0  0
    2.5030    1.7380   -0.0050 C   0  0  0  0  0  0  0  0  0  0  0  0
    3.9730    2.1350    0.2130 C   0  0  0  0  0  0  0  0  0  0  0  0
    4.8990    0.9940   -0.0250 C   0  0  0  0  0  0  0  0  0  0  0  0
    6.3200    1.3930    0.2010 C   0  0  0  0  0  0  0  0  0  0  0  0
    7.2010    0.5050    0.0260 O   0  0  0  0  0  0  0  0  0  0  0  0
    6.6710    2.6610    0.5810 O   0  0  0  0  0  0  0  0  0  0  0  0
    8.0610    2.9390    0.7700 C   0  0  1  0  0  0  0  0  0  0  0  0
    8.4620    3.9730   -0.2650 C   0  0  0  0  0  0  0  0  0  0  0  0
    8.3470    3.4680    2.1380 C   0  0  0  0  0  0  0  0  0  0  0  0
    2.5780    0.7940    2.2700 C   0  0  0  0  0  0  0  0  0  0  0  0
    2.4810   -0.4080    3.0960 C   0  0  0  0  0  0  0  0  0  0  0  0
    1.5680   -1.4080    2.5630 C   0  0  0  0  0  0  0  0  0  0  0  0
    1.0100   -2.7800    3.4460 S   0  0  0  0  0  0  0  0  0  0  0  0
    0.0210   -3.4850    2.2090 C   0  0  0  0  0  0  0  0  0  0  0  0
    0.1880   -2.5610    1.1040 C   0  0  0  0  0  0  0  0  0  0  0  0
   -0.4670   -3.0570   -0.1490 C   0  0  0  0  0  0  0  0  0  0  0  0
    0.1250   -3.1020   -1.2000 O   0  0  0  0  0  0  0  0  0  0  0  0
   -1.7890   -3.4860   -0.1220 O   0  0  0  0  0  0  0  0  0  0  0  0
   -2.4550   -3.9770   -1.2710 C   0  0  2  0  0  0  0  0  0  0  0  0
   -3.7320   -3.3030   -1.6040 C   0  0  0  0  0  0  0  0  0  0  0  0
   -2.6930   -5.4660   -1.0540 C   0  0  2  0  0  0  0  0  0  0  0  0
   -3.3960   -6.0990   -2.2110 C   0  0  0  0  0  0  0  0  0  0  0  0
   -3.5760   -5.6280    0.1770 C   0  0  0  0  0  0  0  0  0  0  0  0
    0.9760   -1.5210    1.3270 C   0  0  0  0  0  0  0  0  0  0  0  0
   -1.4150    1.4960   -0.0650 N   0  0  0  0  0  0  0  0  0  0  0  0
   -2.2900    2.3790    0.4920 C   0  0  0  0  0  0  0  0  0  0  0  0
   -1.8740    3.3500    1.1840 O   0  0  0  0  0  0  0  0  0  0  0  0
  1  2  1  0
  3  2  1  6
  3  4  1  0
  3  7  1  0
  4  5  1  0
  5  6  1  0
  6  7  2  0
  6 41  1  0
  7  8  1  0
  8  9  1  0
  9 10  2  3
  9 40  1  0
 11 10  1  1
 11 12  2  0
 11 13  2  0
 11 14  1  0
 14 15  2  0
 14 39  1  0
 15 16  1  0
 15 25  1  0
 16 17  1  0
 17 18  1  0
 18 19  1  0
 19 20  2  0
 19 21  1  0
 21 22  1  0
 22 23  1  6
 22 24  1  0
 25 26  1  0
 26 27  1  0
 27 28  1  0
 27 39  2  0
 28 29  1  0
 29 30  2  0
 30 31  1  0
 30 39  1  0
 31 32  2  0
 31 33  1  0
 33 34  1  0
 34 35  1  1
 34 36  1  0
 36 37  1  6
 36 38  1  0
 40 41  1  0
 41 42  2  0
M  END
