
     RDKit          3D

 15 15  0  0  0  0  0  0  0  0999 V2000
   -1.0730   -0.1400    1.5040 O   0  0  0  0  0  0  0  0  0  0  0  0
   -1.0860   -0.6810    0.3720 C   0  0  0  0  0  0  0  0  0  0  0  0
   -1.4300    0.0910   -0.7190 O   0  0  0  0  0  0  0  0  0  0  0  0
   -1.7720    1.4630   -0.6500 C   0  0  0  0  0  0  0  0  0  0  0  0
   -2.9770    1.7130    0.2240 C   0  0  0  0  0  0  0  0  0  0  0  0
   -3.2500    3.0600    0.2440 O   0  0  0  0  0  0  0  0  0  0  0  0
   -0.7310   -2.1120    0.2820 C   0  0  2  0  0  0  0  0  0  0  0  0
   -0.4240   -2.6800    1.4890 O   0  0  0  0  0  0  0  0  0  0  0  0
    0.8450   -2.1300    1.7820 C   0  0  0  0  0  0  0  0  0  0  0  0
    1.3510   -1.6630    0.4580 C   0  0  2  0  0  0  0  0  0  0  0  0
    1.3930   -0.2990    0.3130 O   0  0  0  0  0  0  0  0  0  0  0  0
    2.9260    0.3080   -0.1310 P   0  0  0  0  0  0  0  0  0  0  0  0
    2.8420    1.1930   -1.6170 O   0  0  0  0  0  0  0  0  0  0  0  0
    3.7140    1.1980    1.1100 O   0  0  0  0  0  0  0  0  0  0  0  0
    0.4790   -2.2920   -0.4300 O   0  0  0  0  0  0  0  0  0  0  0  0
  1  2  2  0
  2  3  1  0
  7  2  1  1
  3  4  1  0
  4  5  1  0
  5  6  1  0
  7  8  1  0
  7 15  1  0
  8  9  1  0
  9 10  1  0
 10 11  1  1
 10 15  1  0
 11 12  1  0
 12 13  1  0
 12 14  1  0
M  END
