
     RDKit          3D

 15 15  0  0  0  0  0  0  0  0999 V2000
   -1.1490   -0.6050    2.1790 O   0  0  0  0  0  0  0  0  0  0  0  0
   -0.9210   -0.1700    1.0410 C   0  0  0  0  0  0  0  0  0  0  0  0
    0.3370   -0.2930    0.5080 O   0  0  0  0  0  0  0  0  0  0  0  0
    1.4310   -0.8920    1.1630 C   0  0  0  0  0  0  0  0  0  0  0  0
    2.6130   -0.8050    0.2000 C   0  0  0  0  0  0  0  0  0  0  0  0
    2.8300    0.5430   -0.0530 O   0  0  0  0  0  0  0  0  0  0  0  0
    4.1380    0.8210   -1.1290 P   0  0  0  0  0  0  0  0  0  0  0  0
    5.2750   -0.4820   -1.1420 O   0  0  0  0  0  0  0  0  0  0  0  0
    4.8930    2.3310   -0.7800 O   0  0  0  0  0  0  0  0  0  0  0  0
   -1.9740    0.4840    0.2330 C   0  0  2  0  0  0  0  0  0  0  0  0
   -3.1920    0.5180    0.9430 O   0  0  0  0  0  0  0  0  0  0  0  0
   -4.0590    0.8930   -0.1090 C   0  0  0  0  0  0  0  0  0  0  0  0
   -3.6060   -0.1020   -1.1810 C   0  0  2  0  0  0  0  0  0  0  0  0
   -4.1500   -1.3440   -0.8650 O   0  0  0  0  0  0  0  0  0  0  0  0
   -2.2330   -0.1650   -0.9500 O   0  0  0  0  0  0  0  0  0  0  0  0
  1  2  2  0
  2  3  1  0
 10  2  1  1
  3  4  1  0
  4  5  1  0
  5  6  1  0
  6  7  1  0
  7  8  1  0
  7  9  1  0
 10 11  1  0
 10 15  1  0
 11 12  1  0
 12 13  1  0
 13 14  1  1
 13 15  1  0
M  END
