
     RDKit          3D

 15 15  0  0  0  0  0  0  0  0999 V2000
   -4.8680    1.9020   -0.1900 O   0  0  0  0  0  0  0  0  0  0  0  0
   -3.8660    1.1760   -0.0820 C   0  0  0  0  0  0  0  0  0  0  0  0
   -2.7580    1.3520    0.7450 O   0  0  0  0  0  0  0  0  0  0  0  0
   -2.1640    0.0780    0.8620 C   0  0  2  0  0  0  0  0  0  0  0  0
   -0.8060    0.0280    0.1670 C   0  0  0  0  0  0  0  0  0  0  0  0
   -0.2260   -1.2170    0.2800 O   0  0  0  0  0  0  0  0  0  0  0  0
    0.9860   -1.2820   -0.3600 C   0  0  0  0  0  0  0  0  0  0  0  0
    2.0340   -0.3230    0.1440 C   0  0  0  0  0  0  0  0  0  0  0  0
    3.1850   -0.5480   -0.6240 O   0  0  0  0  0  0  0  0  0  0  0  0
    4.4710    0.4950   -0.1430 P   0  0  0  0  0  0  0  0  0  0  0  0
    5.7960   -0.4660    0.4290 O   0  0  0  0  0  0  0  0  0  0  0  0
    3.9330    1.5040    1.1400 O   0  0  0  0  0  0  0  0  0  0  0  0
   -2.9950   -0.8470    0.2470 O   0  0  0  0  0  0  0  0  0  0  0  0
   -3.5360   -0.1080   -0.8000 C   0  0  1  0  0  0  0  0  0  0  0  0
   -4.6860   -0.6910   -1.3170 O   0  0  0  0  0  0  0  0  0  0  0  0
  1  2  2  0
  2  3  1  0
  2 14  1  0
  3  4  1  0
  4  5  1  6
  4 13  1  0
  5  6  1  0
  6  7  1  0
  7  8  1  0
  8  9  1  0
  9 10  1  0
 10 11  1  0
 10 12  1  0
 13 14  1  0
 14 15  1  1
M  END
