
     RDKit          3D

 16 16  0  0  0  0  0  0  0  0999 V2000
   -0.4590   -0.0360   -0.6960 O   0  0  0  0  0  0  0  0  0  0  0  0
   -0.7410   -1.1890   -0.3390 C   0  0  0  0  0  0  0  0  0  0  0  0
    0.2620   -2.1430   -0.3040 O   0  0  0  0  0  0  0  0  0  0  0  0
    1.5740   -1.8210   -0.6630 C   0  0  0  0  0  0  0  0  0  0  0  0
    2.2120   -0.7510    0.1950 C   0  0  0  0  0  0  0  0  0  0  0  0
    3.5010   -0.5620   -0.3000 O   0  0  0  0  0  0  0  0  0  0  0  0
    4.3650    0.6430    0.5870 P   0  0  0  0  0  0  0  0  0  0  0  0
    6.0670    0.4810    0.4230 O   0  0  0  0  0  0  0  0  0  0  0  0
    3.7950    2.2340    0.2960 O   0  0  0  0  0  0  0  0  0  0  0  0
   -2.0510   -1.4520    0.0060 O   0  0  0  0  0  0  0  0  0  0  0  0
   -3.0890   -0.5440   -0.0090 C   0  0  0  0  0  0  0  0  0  0  0  0
   -3.1780    0.7130   -0.3150 C   0  0  0  0  0  0  0  0  0  0  0  0
   -4.5880    1.1350   -0.1260 C   0  0  2  0  0  0  0  0  0  0  0  0
   -4.6720    1.6770    1.1680 O   0  0  0  0  0  0  0  0  0  0  0  0
   -5.2650   -0.0600   -0.1530 O   0  0  0  0  0  0  0  0  0  0  0  0
   -4.3900   -0.9410    0.3670 O   0  0  0  0  0  0  0  0  0  0  0  0
  1  2  2  0
  2  3  1  0
  2 10  1  0
  3  4  1  0
  4  5  1  0
  5  6  1  0
  6  7  1  0
  7  8  1  0
  7  9  1  0
 10 11  1  0
 11 12  2  0
 11 16  1  0
 12 13  1  0
 13 14  1  1
 13 15  1  0
 15 16  1  0
M  END
