
     RDKit          3D

 33 37  0  0  0  0  0  0  0  0999 V2000
    7.4340   -0.8740    0.4440 C   0  0  0  0  0  0  0  0  0  0  0  0
    6.5280    0.1370   -0.1950 C   0  0  0  0  0  0  0  0  0  0  0  0
    6.9890    1.4020   -0.3740 C   0  0  0  0  0  0  0  0  0  0  0  0
    8.5900    1.9230    0.1020 Cl  0  0  0  0  0  0  0  0  0  0  0  0
    6.1610    2.3420   -0.9630 C   0  0  0  0  0  0  0  0  0  0  0  0
    4.8840    1.9990   -1.3630 C   0  0  0  0  0  0  0  0  0  0  0  0
    4.0450    2.8970   -1.9440 F   0  0  0  0  0  0  0  0  0  0  0  0
    4.4200    0.7080   -1.1780 C   0  0  0  0  0  0  0  0  0  0  0  0
    5.2530   -0.2220   -0.5900 C   0  0  0  0  0  0  0  0  0  0  0  0
    4.8530   -1.5500   -0.3950 N   0  0  0  0  0  0  0  0  0  0  0  0
    3.5030   -1.9820   -0.6520 C   0  0  0  0  0  0  0  0  0  0  0  0
    2.4910   -1.5050    0.3390 C   0  0  0  0  0  0  0  0  0  0  0  0
    2.8130   -2.0020    1.7230 C   0  0  0  0  0  0  0  0  0  0  0  0
    3.8280   -2.7250    1.9060 O   0  0  0  0  0  0  0  0  0  0  0  0
    2.0160   -1.6900    2.8430 N   0  0  0  0  0  0  0  0  0  0  0  0
    0.8140   -1.2650    2.5830 C   0  0  0  0  0  0  0  0  0  0  0  0
    0.0790   -1.0230    1.7010 O   0  0  0  0  0  0  0  0  0  0  0  0
   -1.1090   -0.5960    1.7300 C   0  0  0  0  0  0  0  0  0  0  0  0
   -1.6560   -0.3700    2.9980 C   0  0  0  0  0  0  0  0  0  0  0  0
   -0.3080   -0.8290    4.0180 S   0  0  0  0  0  0  0  0  0  0  0  0
   -2.9850    0.1130    3.2910 C   0  0  0  0  0  0  0  0  0  0  0  0
   -3.6960    0.3400    2.1130 O   0  0  0  0  0  0  0  0  0  0  0  0
   -3.2610    0.1530    0.8250 C   0  0  0  0  0  0  0  0  0  0  0  0
   -2.0060   -0.3020    0.5820 C   0  0  0  0  0  0  0  0  0  0  0  0
   -1.5990   -0.4790   -0.7230 C   0  0  0  0  0  0  0  0  0  0  0  0
   -2.4370   -0.2040   -1.7830 C   0  0  0  0  0  0  0  0  0  0  0  0
   -3.7160    0.2600   -1.5620 C   0  0  0  0  0  0  0  0  0  0  0  0
   -4.1170    0.4340   -0.2630 C   0  0  0  0  0  0  0  0  0  0  0  0
   -5.5000    0.9210   -0.2780 C   0  0  1  0  0  0  0  0  0  0  0  0
   -6.4650   -0.2420   -0.3170 C   0  0  0  0  0  0  0  0  0  0  0  0
   -5.8130    1.7820    0.8390 N   0  0  0  0  0  0  0  0  0  0  0  0
   -5.6100    1.6380   -1.6010 C   0  0  0  0  0  0  0  0  0  0  0  0
   -4.8380    0.6490   -2.4940 C   0  0  0  0  0  0  0  0  0  0  0  0
  1  2  1  0
  2  3  2  0
  2  9  1  0
  3  4  1  0
  3  5  1  0
  5  6  2  0
  6  7  1  0
  6  8  1  0
  8  9  2  0
  9 10  1  0
 10 11  1  0
 11 12  1  0
 12 13  1  0
 13 14  2  0
 13 15  1  0
 15 16  2  3
 16 17  1  0
 16 20  1  0
 17 18  1  0
 18 19  2  0
 18 24  1  0
 19 20  1  0
 19 21  1  0
 21 22  1  0
 22 23  1  0
 23 24  2  0
 23 28  1  0
 24 25  1  0
 25 26  2  0
 26 27  1  0
 27 28  2  0
 27 33  1  0
 28 29  1  0
 29 30  1  6
 29 31  1  0
 29 32  1  0
 32 33  1  0
M  CHG  1  31   1
M  END
