
     RDKit          3D

 32 33  0  0  0  0  0  0  0  0999 V2000
   -4.1420   -1.9350    0.9840 C   0  0  0  0  0  0  0  0  0  0  0  0
   -3.2210   -1.9470    2.1700 C   0  0  0  0  0  0  0  0  0  0  0  0
   -2.2380   -0.8790    2.0790 N   0  0  0  0  0  0  0  0  0  0  0  0
   -2.7160    0.0670    1.1530 C   0  0  0  0  0  0  0  0  0  0  0  0
   -3.5130    1.0260    1.6890 C   0  0  0  0  0  0  0  0  0  0  0  0
   -4.1070    2.0860    0.9170 C   0  0  0  0  0  0  0  0  0  0  0  0
   -4.9420    3.0880    1.5030 N   0  0  0  0  0  0  0  0  0  0  0  0
   -3.8490    2.1100   -0.3980 C   0  0  0  0  0  0  0  0  0  0  0  0
   -4.4730    3.2110   -1.1500 C   0  0  0  0  0  0  0  0  0  0  0  0
   -5.5280    2.6690   -2.0750 C   0  0  0  0  0  0  0  0  0  0  0  0
   -5.0950    1.7790   -3.0210 O   0  0  0  0  0  0  0  0  0  0  0  0
   -3.0030    1.1230   -1.0590 C   0  0  0  0  0  0  0  0  0  0  0  0
   -2.7680    1.1590   -2.2770 O   0  0  0  0  0  0  0  0  0  0  0  0
   -2.3950    0.0320   -0.2460 C   0  0  0  0  0  0  0  0  0  0  0  0
   -1.6300   -0.8670   -0.7740 C   0  0  0  0  0  0  0  0  0  0  0  0
   -1.3530   -0.8150   -2.2750 C   0  0  0  0  0  0  0  0  0  0  0  0
   -0.9610   -1.9630   -0.1820 N   0  0  0  0  0  0  0  0  0  0  0  0
    0.4740   -1.9080   -0.0430 C   0  0  0  0  0  0  0  0  0  0  0  0
    1.1960   -3.0130    0.3830 C   0  0  0  0  0  0  0  0  0  0  0  0
    2.5640   -3.0120    0.5430 C   0  0  0  0  0  0  0  0  0  0  0  0
    3.2070   -4.1640    0.9740 O   0  0  0  0  0  0  0  0  0  0  0  0
    4.6080   -4.1360    1.1290 C   0  0  0  0  0  0  0  0  0  0  0  0
    3.2160   -1.8320    0.2550 C   0  0  0  0  0  0  0  0  0  0  0  0
    2.5450   -0.7020   -0.1720 C   0  0  0  0  0  0  0  0  0  0  0  0
    3.2020    0.4860   -0.4610 O   0  0  0  0  0  0  0  0  0  0  0  0
    4.6070    0.5140   -0.3050 C   0  0  0  0  0  0  0  0  0  0  0  0
    5.1610    1.8960   -0.6660 C   0  0  0  0  0  0  0  0  0  0  0  0
    6.9270    1.9170   -0.4660 S   0  0  1  0  0  0  0  0  0  0  0  0
    7.6180    0.8770   -1.3730 N   0  0  0  0  0  0  0  0  0  0  0  0
    7.5000    3.4910   -0.8840 N   0  0  0  0  0  0  0  0  0  0  0  0
    7.3170    1.6190    0.9530 O   0  0  0  0  0  0  0  0  0  0  0  0
    1.1530   -0.7540   -0.3190 C   0  0  0  0  0  0  0  0  0  0  0  0
  1  2  1  0
  2  3  1  0
  3  4  1  0
  4  5  2  0
  4 14  1  0
  5  6  1  0
  6  7  1  0
  6  8  2  0
  8  9  1  0
  8 12  1  0
  9 10  1  0
 10 11  1  0
 12 13  2  0
 12 14  1  0
 14 15  2  3
 15 16  1  0
 15 17  1  0
 17 18  1  0
 18 19  2  0
 18 32  1  0
 19 20  1  0
 20 21  1  0
 20 23  2  0
 21 22  1  0
 23 24  1  0
 24 25  1  0
 24 32  2  0
 25 26  1  0
 26 27  1  0
 27 28  1  0
 28 29  2  0
 28 30  1  6
 28 31  2  0
M  CHG  1   3   1
M  END
