
     RDKit          3D

 33 37  0  0  0  0  0  0  0  0999 V2000
   -3.3330    1.5450    3.5250 O   0  0  0  0  0  0  0  0  0  0  0  0
   -3.1130    0.8220    2.5080 C   0  0  0  0  0  0  0  0  0  0  0  0
   -1.7610    0.4810    2.2420 N   0  0  0  0  0  0  0  0  0  0  0  0
   -0.6520    0.9080    3.0530 C   0  0  1  0  0  0  0  0  0  0  0  0
    0.4830   -0.0070    3.3890 C   0  0  0  0  0  0  0  0  0  0  0  0
    0.6830    1.2180    2.5600 C   0  0  1  0  0  0  0  0  0  0  0  0
    1.1860    1.1310    1.1710 C   0  0  0  0  0  0  0  0  0  0  0  0
    1.1720   -0.1530    0.5380 N   0  0  1  0  0  0  0  0  0  0  0  0
    0.6050    0.0250   -0.7790 C   0  0  0  0  0  0  0  0  0  0  0  0
    1.0660   -1.0150   -1.7820 C   0  0  0  0  0  0  0  0  0  0  0  0
    2.5270   -0.8190   -1.9090 C   0  0  0  0  0  0  0  0  0  0  0  0
    3.1420   -0.8120   -3.1210 C   0  0  0  0  0  0  0  0  0  0  0  0
    2.1880   -1.0550   -4.5700 Cl  0  0  0  0  0  0  0  0  0  0  0  0
    4.5210   -0.6120   -3.2100 C   0  0  0  0  0  0  0  0  0  0  0  0
    5.2850   -0.4170   -2.0440 C   0  0  0  0  0  0  0  0  0  0  0  0
    6.6120   -0.2340   -2.2330 O   0  0  0  0  0  0  0  0  0  0  0  0
    7.6710   -0.0010   -1.4000 C   0  0  0  0  0  0  0  0  0  0  0  0
    7.6140    1.2860   -0.6180 C   0  0  0  0  0  0  0  0  0  0  0  0
    9.1410    1.3270    0.3940 S   0  0  0  0  0  0  0  0  0  0  0  0
    9.1570    2.7650    1.3170 F   0  0  0  0  0  0  0  0  0  0  0  0
    4.5970   -0.4370   -0.8560 C   0  0  0  0  0  0  0  0  0  0  0  0
    3.2240   -0.6340   -0.7450 C   0  0  0  0  0  0  0  0  0  0  0  0
    2.5290   -0.6630    0.5360 C   0  0  0  0  0  0  0  0  0  0  0  0
   -4.2130    0.3680    1.6570 C   0  0  0  0  0  0  0  0  0  0  0  0
   -5.5450    0.6670    1.8980 C   0  0  0  0  0  0  0  0  0  0  0  0
   -6.3040    0.0860    0.9060 C   0  0  0  0  0  0  0  0  0  0  0  0
   -5.4380   -0.5700    0.0560 C   0  0  0  0  0  0  0  0  0  0  0  0
   -4.2010   -0.3660    0.5550 N   0  0  0  0  0  0  0  0  0  0  0  0
   -5.9710   -1.3100   -1.1420 C   0  0  0  0  0  0  0  0  0  0  0  0
   -7.2470   -0.6630   -1.6110 C   0  0  0  0  0  0  0  0  0  0  0  0
   -8.2640   -0.7700   -0.4930 C   0  0  0  0  0  0  0  0  0  0  0  0
   -7.7320    0.0510    0.6320 C   0  0  0  0  0  0  0  0  0  0  0  0
   -8.5570    0.6970    1.3170 O   0  0  0  0  0  0  0  0  0  0  0  0
  1  2  2  0
  2  3  1  0
  2 24  1  0
  4  3  1  6
  4  5  1  0
  4  6  1  0
  5  6  1  0
  6  7  1  6
  8  7  1  6
  8  9  1  0
  8 23  1  0
  9 10  1  0
 10 11  1  0
 11 12  2  0
 11 22  1  0
 12 13  1  0
 12 14  1  0
 14 15  2  0
 15 16  1  0
 15 21  1  0
 16 17  1  0
 17 18  1  0
 18 19  1  0
 19 20  1  0
 21 22  2  0
 22 23  1  0
 24 25  2  0
 24 28  1  0
 25 26  1  0
 26 27  2  0
 26 32  1  0
 27 28  1  0
 27 29  1  0
 29 30  1  0
 30 31  1  0
 31 32  1  0
 32 33  2  0
M  CHG  1   8   1
M  END
