
     RDKit          3D

 31 32  0  0  0  0  0  0  0  0999 V2000
    5.9630    5.3230   -0.2350 C   0  0  0  0  0  0  0  0  0  0  0  0
    6.1890    3.9380    0.4190 C   0  0  0  0  0  0  0  0  0  0  0  0
    5.6860    2.9860    0.7250 N   0  0  0  0  0  0  0  0  0  0  0  0
    6.1390    1.8880    1.3040 C   0  0  0  0  0  0  0  0  0  0  0  0
    5.3230    0.6800    1.6520 C   0  0  0  0  0  0  0  0  0  0  0  0
    5.8450   -0.3120    2.2040 O   0  0  0  0  0  0  0  0  0  0  0  0
    3.9360    0.6200    1.3700 N   0  0  0  0  0  0  0  0  0  0  0  0
    3.1020   -0.5070    1.6790 C   0  0  0  0  0  0  0  0  0  0  0  0
    3.5440   -1.7810    0.9970 C   0  0  2  0  0  0  0  0  0  0  0  0
    3.5310   -1.6530   -0.3900 O   0  0  0  0  0  0  0  0  0  0  0  0
    2.5670   -2.8720    1.3690 C   0  0  0  0  0  0  0  0  0  0  0  0
    1.2210   -2.5260    0.9150 N   0  0  0  0  0  0  0  0  0  0  0  0
    0.4310   -3.7120    0.6780 C   0  0  0  0  0  0  0  0  0  0  0  0
    0.0640   -3.7940   -0.7890 C   0  0  0  0  0  0  0  0  0  0  0  0
   -0.7030   -2.6420   -1.2040 N   0  0  0  0  0  0  0  0  0  0  0  0
   -1.9480   -2.3190   -0.6230 C   0  0  0  0  0  0  0  0  0  0  0  0
   -2.4510   -3.0370    0.2990 O   0  0  0  0  0  0  0  0  0  0  0  0
   -2.7150   -1.1310   -1.0640 C   0  0  0  0  0  0  0  0  0  0  0  0
   -3.8610   -0.8380   -0.5260 C   0  0  0  0  0  0  0  0  0  0  0  0
   -4.7420    0.2760   -0.8320 C   0  0  0  0  0  0  0  0  0  0  0  0
   -5.9510    0.4200   -0.1320 C   0  0  0  0  0  0  0  0  0  0  0  0
   -6.8020    1.4610   -0.3990 C   0  0  0  0  0  0  0  0  0  0  0  0
   -8.0630    1.6010    0.3390 C   0  0  0  0  0  0  0  0  0  0  0  0
   -8.3760    0.6370    1.3310 N   0  0  0  0  0  0  0  0  0  0  0  0
   -8.8600    2.5230    0.1310 O   0  0  0  0  0  0  0  0  0  0  0  0
   -6.5340    2.4150   -1.3530 C   0  0  0  0  0  0  0  0  0  0  0  0
   -5.3600    2.2900   -2.0440 C   0  0  0  0  0  0  0  0  0  0  0  0
   -4.4840    1.2370   -1.7830 C   0  0  0  0  0  0  0  0  0  0  0  0
   -3.3150    1.1780   -2.5250 O   0  0  0  0  0  0  0  0  0  0  0  0
    7.5010    1.9170    1.5910 C   0  0  0  0  0  0  0  0  0  0  0  0
    7.9660    3.5890    0.9620 S   0  0  0  0  0  0  0  0  0  0  0  0
  1  2  1  0
  2  3  2  0
  2 31  1  0
  3  4  1  0
  4  5  1  0
  4 30  2  0
  5  6  2  0
  5  7  1  0
  7  8  1  0
  8  9  1  0
  9 10  1  6
  9 11  1  0
 11 12  1  0
 12 13  1  0
 13 14  1  0
 14 15  1  0
 15 16  1  0
 16 17  2  0
 16 18  1  0
 18 19  2  3
 19 20  1  0
 20 21  2  0
 20 28  1  0
 21 22  1  0
 22 23  1  0
 22 26  2  0
 23 24  1  0
 23 25  2  0
 26 27  1  0
 27 28  2  0
 28 29  1  0
 30 31  1  0
M  CHG  1  12   1
M  END
