
     RDKit          3D

 33 37  0  0  0  0  0  0  0  0999 V2000
   -6.7710   -1.1420    1.6140 C   0  0  0  0  0  0  0  0  0  0  0  0
   -6.3740   -0.6450    0.3130 N   0  0  1  0  0  0  0  0  0  0  0  0
   -7.3260   -1.1070   -0.6620 C   0  0  0  0  0  0  0  0  0  0  0  0
   -8.3560   -0.0370   -0.8320 C   0  0  0  0  0  0  0  0  0  0  0  0
   -7.9540    1.0180    0.1810 C   0  0  0  0  0  0  0  0  0  0  0  0
   -6.4620    0.8010    0.3250 C   0  0  2  0  0  0  0  0  0  0  0  0
   -5.7930    1.4100   -0.8880 C   0  0  0  0  0  0  0  0  0  0  0  0
   -4.4020    1.0840   -0.9740 N   0  0  0  0  0  0  0  0  0  0  0  0
   -3.4950    1.4500    0.0510 C   0  0  0  0  0  0  0  0  0  0  0  0
   -3.9370    2.0770    1.0580 O   0  0  0  0  0  0  0  0  0  0  0  0
   -2.0740    1.1630    0.0500 C   0  0  0  0  0  0  0  0  0  0  0  0
   -1.2290    1.5390    1.0700 C   0  0  0  0  0  0  0  0  0  0  0  0
    0.1100    1.2710    1.0730 C   0  0  0  0  0  0  0  0  0  0  0  0
    0.6670    0.5840   -0.0020 C   0  0  0  0  0  0  0  0  0  0  0  0
    2.0620    0.3500    0.0740 N   0  0  0  0  0  0  0  0  0  0  0  0
    2.8570   -0.3940   -0.8210 C   0  0  0  0  0  0  0  0  0  0  0  0
    2.3500   -0.9410   -1.8170 O   0  0  0  0  0  0  0  0  0  0  0  0
    4.3140   -0.5500   -0.6100 C   0  0  0  0  0  0  0  0  0  0  0  0
    5.0720   -0.0350    0.4130 C   0  0  0  0  0  0  0  0  0  0  0  0
    6.4030   -0.4090    0.2520 C   0  0  0  0  0  0  0  0  0  0  0  0
    7.5540   -0.1750    0.9670 C   0  0  0  0  0  0  0  0  0  0  0  0
    8.7820   -0.7130    0.5220 C   0  0  0  0  0  0  0  0  0  0  0  0
    8.7090   -1.4430   -0.6220 C   0  0  0  0  0  0  0  0  0  0  0  0
    7.5720   -1.6870   -1.3460 C   0  0  0  0  0  0  0  0  0  0  0  0
    6.3760   -1.1610   -0.9100 C   0  0  0  0  0  0  0  0  0  0  0  0
    5.1340   -1.2170   -1.3780 O   0  0  0  0  0  0  0  0  0  0  0  0
   10.4030   -1.9860   -0.9700 S   0  0  0  0  0  0  0  0  0  0  0  0
   11.1820   -0.7120    0.1170 C   0  0  1  0  0  0  0  0  0  0  0  0
   12.3810   -1.1390    0.5830 F   0  0  0  0  0  0  0  0  0  0  0  0
   11.2710    0.7780   -0.8280 Cl  0  0  0  0  0  0  0  0  0  0  0  0
   10.1150   -0.5920    1.1380 C   0  0  0  0  0  0  0  0  0  0  0  0
   -0.1300    0.1900   -1.0380 C   0  0  0  0  0  0  0  0  0  0  0  0
   -1.4930    0.4900   -0.9910 C   0  0  0  0  0  0  0  0  0  0  0  0
  2  1  1  1
  2  3  1  0
  2  6  1  0
  3  4  1  0
  4  5  1  0
  5  6  1  0
  6  7  1  6
  7  8  1  0
  8  9  1  0
  9 10  2  0
  9 11  1  0
 11 12  2  0
 11 33  1  0
 12 13  1  0
 13 14  2  0
 14 15  1  0
 14 32  1  0
 15 16  1  0
 16 17  2  0
 16 18  1  0
 18 19  2  0
 18 26  1  0
 19 20  1  0
 20 21  2  0
 20 25  1  0
 21 22  1  0
 22 23  2  0
 22 31  1  0
 23 24  1  0
 23 27  1  0
 24 25  2  0
 25 26  1  0
 27 28  1  0
 28 29  1  1
 28 30  1  0
 28 31  1  0
 32 33  2  0
M  CHG  1   2   1
M  END
