
     RDKit          3D

 12 12  0  0  0  0  0  0  0  0999 V2000
   -2.2070    1.6950   -0.2320 C   0  0  0  0  0  0  0  0  0  0  0  0
   -2.0380    0.7090   -1.2120 O   0  0  0  0  0  0  0  0  0  0  0  0
   -1.6210   -0.4990   -0.7120 C   0  0  0  0  0  0  0  0  0  0  0  0
   -0.2170   -0.4190   -0.2660 C   0  0  0  0  0  0  0  0  0  0  0  0
    0.6090    0.6600   -0.4810 C   0  0  0  0  0  0  0  0  0  0  0  0
    1.9490    0.6610   -0.0860 C   0  0  0  0  0  0  0  0  0  0  0  0
    2.7290    1.7680   -0.3250 O   0  0  0  0  0  0  0  0  0  0  0  0
    2.4910   -0.4290    0.5350 C   0  0  0  0  0  0  0  0  0  0  0  0
    1.6890   -1.5530    0.7740 C   0  0  0  0  0  0  0  0  0  0  0  0
    2.3920   -2.9480    1.5710 Cl  0  0  0  0  0  0  0  0  0  0  0  0
    0.3840   -1.5160    0.3750 C   0  0  0  0  0  0  0  0  0  0  0  0
   -0.3980   -2.6290    0.6160 O   0  0  0  0  0  0  0  0  0  0  0  0
  1  2  1  0
  2  3  1  0
  3  4  1  0
  4  5  2  0
  4 11  1  0
  5  6  1  0
  6  7  1  0
  6  8  2  0
  8  9  1  0
  9 10  1  0
  9 11  2  0
 11 12  1  0
M  END
