
     RDKit          3D

 12 12  0  0  0  0  0  0  0  0999 V2000
    3.5300    0.2160   -0.0970 C   0  0  0  0  0  0  0  0  0  0  0  0
    2.1000    0.5980   -0.3220 C   0  0  0  0  0  0  0  0  0  0  0  0
    1.1980   -0.3510    0.2040 O   0  0  0  0  0  0  0  0  0  0  0  0
   -0.1480   -0.1320    0.0710 C   0  0  0  0  0  0  0  0  0  0  0  0
   -0.5990    0.9980   -0.5670 C   0  0  0  0  0  0  0  0  0  0  0  0
   -1.9510    1.2520   -0.7190 C   0  0  0  0  0  0  0  0  0  0  0  0
   -2.5000    2.6880   -1.5290 Cl  0  0  0  0  0  0  0  0  0  0  0  0
   -2.8520    0.3340   -0.2100 C   0  0  0  0  0  0  0  0  0  0  0  0
   -2.4400   -0.8020    0.4310 C   0  0  0  0  0  0  0  0  0  0  0  0
   -3.3450   -1.7110    0.9360 O   0  0  0  0  0  0  0  0  0  0  0  0
   -1.0770   -1.0140    0.5600 C   0  0  0  0  0  0  0  0  0  0  0  0
   -0.6530   -2.1490    1.2010 O   0  0  0  0  0  0  0  0  0  0  0  0
  1  2  1  0
  2  3  1  0
  3  4  1  0
  4  5  2  0
  4 11  1  0
  5  6  1  0
  6  7  1  0
  6  8  2  0
  8  9  1  0
  9 10  1  0
  9 11  2  0
 11 12  1  0
M  END
