
     RDKit          3D

 44 48  0  0  0  0  0  0  0  0999 V2000
  -11.3160   -2.2070   -1.1590 C   0  0  0  0  0  0  0  0  0  0  0  0
  -10.0360   -2.3970   -0.6010 O   0  0  0  0  0  0  0  0  0  0  0  0
   -9.0830   -1.4060   -0.6250 C   0  0  0  0  0  0  0  0  0  0  0  0
   -9.3920   -0.1770   -1.2210 C   0  0  0  0  0  0  0  0  0  0  0  0
   -8.4280    0.8040   -1.2370 C   0  0  0  0  0  0  0  0  0  0  0  0
   -8.6770    2.0440   -1.8130 O   0  0  0  0  0  0  0  0  0  0  0  0
   -9.9320    2.3100   -2.3910 C   0  0  0  0  0  0  0  0  0  0  0  0
   -7.1680    0.5810   -0.6720 C   0  0  0  0  0  0  0  0  0  0  0  0
   -6.8470   -0.6210   -0.0830 C   0  0  0  0  0  0  0  0  0  0  0  0
   -5.6070   -0.8430    0.4760 O   0  0  0  0  0  0  0  0  0  0  0  0
   -5.1730   -2.0100    1.0960 C   0  0  0  0  0  0  0  0  0  0  0  0
   -3.7550   -1.7980    1.5730 C   0  0  0  0  0  0  0  0  0  0  0  0
   -3.2390   -2.7400    2.1870 O   0  0  0  0  0  0  0  0  0  0  0  0
   -3.0810   -0.5840    1.3190 N   0  0  0  0  0  0  0  0  0  0  0  0
   -1.7600   -0.2640    1.7250 C   0  0  0  0  0  0  0  0  0  0  0  0
   -0.9530   -1.0460    2.5140 C   0  0  0  0  0  0  0  0  0  0  0  0
    0.3360   -0.6720    2.9120 C   0  0  0  0  0  0  0  0  0  0  0  0
    0.8100    0.5310    2.4930 C   0  0  0  0  0  0  0  0  0  0  0  0
    2.1590    0.9560    2.8430 C   0  0  0  0  0  0  0  0  0  0  0  0
    3.3220    0.5750    2.0280 C   0  0  2  0  0  0  0  0  0  0  0  0
    3.3060    0.9730    0.6250 C   0  0  0  0  0  0  0  0  0  0  0  0
    2.3460    0.5100   -0.2820 N   0  0  0  0  0  0  0  0  0  0  0  0
    2.8890    0.0100   -1.5370 C   0  0  1  0  0  0  0  0  0  0  0  0
    3.1650    1.0930   -2.5450 C   0  0  0  0  0  0  0  0  0  0  0  0
    4.6350    1.3850   -2.4280 C   0  0  0  0  0  0  0  0  0  0  0  0
    5.1990    0.0990   -1.9420 C   0  0  0  0  0  0  0  0  0  0  0  0
    4.1890   -0.6730   -1.4170 C   0  0  0  0  0  0  0  0  0  0  0  0
    4.5580   -1.9270   -0.9050 C   0  0  0  0  0  0  0  0  0  0  0  0
    5.8670   -2.3440   -0.9370 C   0  0  0  0  0  0  0  0  0  0  0  0
    6.8460   -1.5290   -1.4760 C   0  0  0  0  0  0  0  0  0  0  0  0
    8.2490   -2.0340   -1.4820 C   0  0  0  0  0  0  0  0  0  0  0  0
    6.5360   -0.2920   -1.9900 C   0  0  0  0  0  0  0  0  0  0  0  0
    7.5840    0.5950   -2.5720 C   0  0  0  0  0  0  0  0  0  0  0  0
    3.7640   -0.8530    2.2870 C   0  0  0  0  0  0  0  0  0  0  0  0
    5.2620   -0.9770    2.3420 C   0  0  0  0  0  0  0  0  0  0  0  0
    5.9130   -0.1620    1.4460 O   0  0  0  0  0  0  0  0  0  0  0  0
    5.7660    1.1450    1.8420 C   0  0  0  0  0  0  0  0  0  0  0  0
    4.5100    1.3910    2.6350 C   0  0  0  0  0  0  0  0  0  0  0  0
    0.0120    1.3230    1.7050 C   0  0  0  0  0  0  0  0  0  0  0  0
    0.4380    2.5870    1.2430 O   0  0  0  0  0  0  0  0  0  0  0  0
   -1.2550    0.9720    1.3030 C   0  0  0  0  0  0  0  0  0  0  0  0
   -2.0460    1.7790    0.5070 O   0  0  0  0  0  0  0  0  0  0  0  0
   -2.0300    1.7080   -0.9090 C   0  0  0  0  0  0  0  0  0  0  0  0
   -7.8390   -1.5900   -0.0820 C   0  0  0  0  0  0  0  0  0  0  0  0
  1  2  1  0
  2  3  1  0
  3  4  2  0
  3 44  1  0
  4  5  1  0
  5  6  1  0
  5  8  2  0
  6  7  1  0
  8  9  1  0
  9 10  1  0
  9 44  2  0
 10 11  1  0
 11 12  1  0
 12 13  2  0
 12 14  1  0
 14 15  1  0
 15 16  2  0
 15 41  1  0
 16 17  1  0
 17 18  2  0
 18 19  1  0
 18 39  1  0
 20 19  1  1
 20 21  1  0
 20 34  1  0
 20 38  1  0
 21 22  1  0
 23 22  1  1
 23 24  1  0
 23 27  1  0
 24 25  1  0
 25 26  1  0
 26 27  2  0
 26 32  1  0
 27 28  1  0
 28 29  2  0
 29 30  1  0
 30 31  1  0
 30 32  2  0
 32 33  1  0
 34 35  1  0
 35 36  1  0
 36 37  1  0
 37 38  1  0
 39 40  1  0
 39 41  2  0
 41 42  1  0
 42 43  1  0
M  CHG  1  22   1
M  END
