
     RDKit          3D

 44 47  0  0  0  0  0  0  0  0999 V2000
   -1.5970   -3.7180    5.0940 C   0  0  0  0  0  0  0  0  0  0  0  0
   -2.0420   -3.1610    3.7470 C   0  0  0  0  0  0  0  0  0  0  0  0
   -0.8970   -2.9980    2.8710 N   0  0  0  0  0  0  0  0  0  0  0  0
   -1.1410   -2.2020    1.7220 C   0  0  2  0  0  0  0  0  0  0  0  0
   -2.5480   -2.0890    1.3260 C   0  0  0  0  0  0  0  0  0  0  0  0
   -2.7160   -1.2200    0.0890 C   0  0  0  0  0  0  0  0  0  0  0  0
   -1.7790   -0.6530   -0.4790 O   0  0  0  0  0  0  0  0  0  0  0  0
   -3.9820   -1.0800   -0.3940 O   0  0  0  0  0  0  0  0  0  0  0  0
   -4.3810   -0.3390   -1.5020 C   0  0  0  0  0  0  0  0  0  0  0  0
   -4.1120    1.0890   -1.4600 C   0  0  0  0  0  0  0  0  0  0  0  0
   -3.0050    1.6240   -2.0670 C   0  0  0  0  0  0  0  0  0  0  0  0
   -2.7510    3.0010   -2.0230 C   0  0  0  0  0  0  0  0  0  0  0  0
   -3.6200    3.8340   -1.3650 C   0  0  0  0  0  0  0  0  0  0  0  0
   -4.7320    3.3150   -0.7520 C   0  0  0  0  0  0  0  0  0  0  0  0
   -5.6150    4.1990   -0.0820 N   0  0  0  0  0  0  0  0  0  0  0  0
   -5.3970    5.6180   -0.0620 C   0  0  0  0  0  0  0  0  0  0  0  0
   -4.9690    1.9450   -0.8050 C   0  0  0  0  0  0  0  0  0  0  0  0
   -0.1490   -2.5080    0.6370 C   0  0  0  0  0  0  0  0  0  0  0  0
   -0.0790   -3.6830   -0.1490 C   0  0  0  0  0  0  0  0  0  0  0  0
   -0.6280   -4.8500   -0.2580 C   0  0  0  0  0  0  0  0  0  0  0  0
   -1.6740   -5.4280    0.5360 C   0  0  0  0  0  0  0  0  0  0  0  0
   -2.2180   -6.6310    0.3630 C   0  0  0  0  0  0  0  0  0  0  0  0
   -1.7360   -7.4650   -0.7150 C   0  0  0  0  0  0  0  0  0  0  0  0
   -0.7840   -7.0370   -1.4980 C   0  0  0  0  0  0  0  0  0  0  0  0
   -0.1400   -5.7400   -1.3780 C   0  0  0  0  0  0  0  0  0  0  0  0
    0.7610   -5.3580   -2.1340 O   0  0  0  0  0  0  0  0  0  0  0  0
    0.7150   -1.4720    0.3800 C   0  0  0  0  0  0  0  0  0  0  0  0
    1.7610   -1.4080   -0.5560 C   0  0  0  0  0  0  0  0  0  0  0  0
    2.5240   -0.2900   -0.6830 C   0  0  0  0  0  0  0  0  0  0  0  0
    2.3100    0.8800    0.1190 C   0  0  0  0  0  0  0  0  0  0  0  0
    1.4850    1.1060    1.0130 O   0  0  0  0  0  0  0  0  0  0  0  0
    3.1640    2.0090   -0.1100 O   0  0  0  0  0  0  0  0  0  0  0  0
    3.0270    3.1910    0.6270 C   0  0  0  0  0  0  0  0  0  0  0  0
    4.0670    4.1400    0.1200 C   0  0  0  0  0  0  0  0  0  0  0  0
    3.7500    5.0950   -0.8100 C   0  0  0  0  0  0  0  0  0  0  0  0
    4.7180    5.9750   -1.2870 C   0  0  0  0  0  0  0  0  0  0  0  0
    6.0150    5.9130   -0.8410 C   0  0  0  0  0  0  0  0  0  0  0  0
    7.1010    6.8250   -1.3130 C   0  0  0  0  0  0  0  0  0  0  0  0
    6.3130    4.9370    0.1020 C   0  0  0  0  0  0  0  0  0  0  0  0
    5.3570    4.0630    0.5780 C   0  0  0  0  0  0  0  0  0  0  0  0
    3.5370   -0.3570   -1.6540 O   0  0  0  0  0  0  0  0  0  0  0  0
    4.3730   -1.4870   -1.7140 C   0  0  0  0  0  0  0  0  0  0  0  0
    3.5430   -2.7250   -1.5150 C   0  0  0  0  0  0  0  0  0  0  0  0
    2.1710   -2.4210   -1.4620 O   0  0  0  0  0  0  0  0  0  0  0  0
  1  2  1  0
  2  3  1  0
  3  4  1  0
  4  5  1  6
  4 18  1  0
  5  6  1  0
  6  7  2  0
  6  8  1  0
  8  9  1  0
  9 10  1  0
 10 11  2  0
 10 17  1  0
 11 12  1  0
 12 13  2  0
 13 14  1  0
 14 15  1  0
 14 17  2  0
 15 16  1  0
 18 19  1  0
 18 27  2  3
 19 20  2  3
 20 21  1  0
 20 25  1  0
 21 22  2  0
 22 23  1  0
 23 24  2  0
 24 25  1  0
 25 26  2  0
 27 28  1  0
 28 29  2  0
 28 44  1  0
 29 30  1  0
 29 41  1  0
 30 31  2  0
 30 32  1  0
 32 33  1  0
 33 34  1  0
 34 35  2  0
 34 40  1  0
 35 36  1  0
 36 37  2  0
 37 38  1  0
 37 39  1  0
 39 40  2  0
 41 42  1  0
 42 43  1  0
 43 44  1  0
M  CHG  1   3   1
M  END
