
     RDKit          3D

 44 48  0  0  0  0  0  0  0  0999 V2000
    6.4790   -0.1350    2.3020 C   0  0  0  0  0  0  0  0  0  0  0  0
    6.1480    0.1740    0.8540 C   0  0  0  0  0  0  0  0  0  0  0  0
    4.6670    0.4090    0.6670 C   0  0  0  0  0  0  0  0  0  0  0  0
    4.3930    0.6880   -0.7760 C   0  0  2  0  0  0  0  0  0  0  0  0
    4.8240   -0.4380   -1.5170 O   0  0  0  0  0  0  0  0  0  0  0  0
    5.0360    1.9430   -1.3100 C   0  0  0  0  0  0  0  0  0  0  0  0
    4.9240    1.9000   -2.8160 C   0  0  0  0  0  0  0  0  0  0  0  0
    3.6140    1.4440   -3.3420 C   0  0  0  0  0  0  0  0  0  0  0  0
    2.5630    1.2170   -2.3100 C   0  0  0  0  0  0  0  0  0  0  0  0
    1.2260    1.3820   -2.6610 C   0  0  0  0  0  0  0  0  0  0  0  0
    0.2580    1.1610   -1.7080 C   0  0  0  0  0  0  0  0  0  0  0  0
    0.6000    0.7860   -0.4360 C   0  0  0  0  0  0  0  0  0  0  0  0
   -0.4020    0.5600    0.5340 N   0  0  0  0  0  0  0  0  0  0  0  0
   -1.1160   -0.6700    0.4790 C   0  0  0  0  0  0  0  0  0  0  0  0
   -1.9600   -0.8750    1.4140 O   0  0  0  0  0  0  0  0  0  0  0  0
   -0.9490   -1.6800   -0.5430 C   0  0  0  0  0  0  0  0  0  0  0  0
   -0.1700   -1.6080   -1.6170 O   0  0  0  0  0  0  0  0  0  0  0  0
   -0.2450   -2.6800   -2.3390 C   0  0  0  0  0  0  0  0  0  0  0  0
    0.4500   -2.9820   -3.5830 C   0  0  0  0  0  0  0  0  0  0  0  0
    1.2400   -2.1620   -4.1020 O   0  0  0  0  0  0  0  0  0  0  0  0
    0.2640   -4.1980   -4.2480 O   0  0  0  0  0  0  0  0  0  0  0  0
    0.9370   -4.4960   -5.4550 C   0  0  0  0  0  0  0  0  0  0  0  0
   -1.1340   -3.5350   -1.7130 C   0  0  0  0  0  0  0  0  0  0  0  0
   -1.5840   -2.8990   -0.5630 C   0  0  0  0  0  0  0  0  0  0  0  0
   -2.5280   -3.5170    0.4180 C   0  0  0  0  0  0  0  0  0  0  0  0
   -1.7150   -4.0820    1.5890 C   0  0  0  0  0  0  0  0  0  0  0  0
   -2.5740   -4.7040    2.6160 C   0  0  0  0  0  0  0  0  0  0  0  0
   -3.8250   -4.7500    2.4970 O   0  0  0  0  0  0  0  0  0  0  0  0
   -2.0090   -5.2560    3.7510 O   0  0  0  0  0  0  0  0  0  0  0  0
   -2.7440   -5.8640    4.7780 C   0  0  0  0  0  0  0  0  0  0  0  0
   -0.6970    1.5590    1.5600 C   0  0  2  0  0  0  0  0  0  0  0  0
   -0.5230    0.9130    2.9010 C   0  0  0  0  0  0  0  0  0  0  0  0
   -1.7830    1.1270    3.6460 C   0  0  0  0  0  0  0  0  0  0  0  0
   -2.7220    1.7370    2.6950 C   0  0  0  0  0  0  0  0  0  0  0  0
   -4.0720    2.0660    2.8720 C   0  0  0  0  0  0  0  0  0  0  0  0
   -4.8220    2.6430    1.8760 C   0  0  0  0  0  0  0  0  0  0  0  0
   -4.2050    2.8970    0.6740 C   0  0  0  0  0  0  0  0  0  0  0  0
   -4.9670    3.5040   -0.3630 N   0  0  0  0  0  0  0  0  0  0  0  0
   -4.6060    4.9040   -0.5230 C   0  0  0  0  0  0  0  0  0  0  0  0
   -5.7160    5.7610   -1.0330 C   0  0  0  0  0  0  0  0  0  0  0  0
   -2.8650    2.5700    0.4980 C   0  0  0  0  0  0  0  0  0  0  0  0
   -2.1070    1.9910    1.4930 C   0  0  0  0  0  0  0  0  0  0  0  0
    1.9530    0.6270   -0.1080 C   0  0  0  0  0  0  0  0  0  0  0  0
    2.9340    0.8420   -1.0450 C   0  0  0  0  0  0  0  0  0  0  0  0
  1  2  1  0
  2  3  1  0
  3  4  1  0
  4  5  1  6
  4  6  1  0
  4 44  1  0
  6  7  1  0
  7  8  1  0
  8  9  1  0
  9 10  2  0
  9 44  1  0
 10 11  1  0
 11 12  2  0
 12 13  1  0
 12 43  1  0
 13 14  1  0
 31 13  1  6
 14 15  2  0
 14 16  1  0
 16 17  1  0
 16 24  2  0
 17 18  1  0
 18 19  1  0
 18 23  2  0
 19 20  2  0
 19 21  1  0
 21 22  1  0
 23 24  1  0
 24 25  1  0
 25 26  1  0
 26 27  1  0
 27 28  2  0
 27 29  1  0
 29 30  1  0
 31 32  1  0
 31 42  1  0
 32 33  1  0
 33 34  1  0
 34 35  2  0
 34 42  1  0
 35 36  1  0
 36 37  2  0
 37 38  1  0
 37 41  1  0
 38 39  1  0
 39 40  1  0
 41 42  2  0
 43 44  2  0
M  CHG  1  38   1
M  END
