
     RDKit          3D

 44 48  0  0  0  0  0  0  0  0999 V2000
   11.7960    1.7950    0.6600 C   0  0  0  0  0  0  0  0  0  0  0  0
   11.1730    0.5300    0.6590 O   0  0  0  0  0  0  0  0  0  0  0  0
    9.9590    0.3150    0.0300 C   0  0  0  0  0  0  0  0  0  0  0  0
    9.3860   -0.9550    0.0750 C   0  0  0  0  0  0  0  0  0  0  0  0
    8.1880   -1.2200   -0.5310 C   0  0  0  0  0  0  0  0  0  0  0  0
    7.4860   -0.2530   -1.2150 C   0  0  0  0  0  0  0  0  0  0  0  0
    6.2650   -0.6210   -1.7880 O   0  0  0  0  0  0  0  0  0  0  0  0
    5.0740   -0.2680   -1.0840 C   0  0  0  0  0  0  0  0  0  0  0  0
    5.2550    0.3750   -0.0390 O   0  0  0  0  0  0  0  0  0  0  0  0
    3.8220   -0.6860   -1.6240 C   0  0  0  0  0  0  0  0  0  0  0  0
    2.6340   -0.4580   -0.7460 C   0  0  0  0  0  0  0  0  0  0  0  0
    1.5480    0.2530   -1.1970 C   0  0  0  0  0  0  0  0  0  0  0  0
    0.3400    0.3230   -0.4680 C   0  0  0  0  0  0  0  0  0  0  0  0
    0.2500   -0.3210    0.6990 C   0  0  0  0  0  0  0  0  0  0  0  0
   -1.0530   -0.6040    1.4500 C   0  0  1  0  0  0  0  0  0  0  0  0
   -2.0990    0.2880    1.2560 N   0  0  0  0  0  0  0  0  0  0  0  0
   -3.2060   -0.0990    0.4690 C   0  0  0  0  0  0  0  0  0  0  0  0
   -4.1830    0.9140    0.0080 C   0  0  0  0  0  0  0  0  0  0  0  0
   -4.1200    1.1940   -1.3770 C   0  0  0  0  0  0  0  0  0  0  0  0
   -3.0260    0.7640   -2.0800 O   0  0  0  0  0  0  0  0  0  0  0  0
   -2.7710    0.9870   -3.4410 C   0  0  0  0  0  0  0  0  0  0  0  0
   -3.7320    0.3330   -4.3180 C   0  0  0  0  0  0  0  0  0  0  0  0
   -4.6080   -0.4060   -3.9020 O   0  0  0  0  0  0  0  0  0  0  0  0
   -5.1450    1.8840   -1.9440 C   0  0  0  0  0  0  0  0  0  0  0  0
   -6.2620    2.3290   -1.2230 C   0  0  0  0  0  0  0  0  0  0  0  0
   -7.3620    2.9740   -1.9390 C   0  0  0  0  0  0  0  0  0  0  0  0
   -6.3190    2.0640    0.1200 C   0  0  0  0  0  0  0  0  0  0  0  0
   -5.2590    1.3510    0.7210 C   0  0  0  0  0  0  0  0  0  0  0  0
   -5.2380    1.0420    2.0910 O   0  0  0  0  0  0  0  0  0  0  0  0
   -6.3940    0.5290    2.8300 C   0  0  0  0  0  0  0  0  0  0  0  0
   -7.6350    0.4690    1.9650 C   0  0  0  0  0  0  0  0  0  0  0  0
   -8.2730    1.7760    1.6700 C   0  0  0  0  0  0  0  0  0  0  0  0
   -7.4550    2.5440    0.7580 O   0  0  0  0  0  0  0  0  0  0  0  0
   -1.1950   -2.0550    1.0740 C   0  0  0  0  0  0  0  0  0  0  0  0
   -1.3980   -2.4680   -0.2220 C   0  0  0  0  0  0  0  0  0  0  0  0
   -1.3880   -3.8030   -0.5320 C   0  0  0  0  0  0  0  0  0  0  0  0
   -1.1830   -4.7150    0.4300 N   0  0  0  0  0  0  0  0  0  0  0  0
   -0.9850   -4.3780    1.6980 C   0  0  0  0  0  0  0  0  0  0  0  0
   -0.9900   -3.0260    2.0210 C   0  0  0  0  0  0  0  0  0  0  0  0
    1.3610   -1.0320    1.1660 C   0  0  0  0  0  0  0  0  0  0  0  0
    2.5390   -1.1160    0.4750 C   0  0  0  0  0  0  0  0  0  0  0  0
    3.6730   -1.8990    0.9970 C   0  0  0  0  0  0  0  0  0  0  0  0
    8.0240    0.9970   -1.2750 C   0  0  0  0  0  0  0  0  0  0  0  0
    9.2480    1.2730   -0.6570 C   0  0  0  0  0  0  0  0  0  0  0  0
  1  2  1  0
  2  3  1  0
  3  4  2  0
  3 44  1  0
  4  5  1  0
  5  6  2  0
  6  7  1  0
  6 43  1  0
  7  8  1  0
  8  9  2  0
  8 10  1  0
 10 11  1  0
 11 12  2  0
 11 41  1  0
 12 13  1  0
 13 14  2  0
 14 15  1  0
 14 40  1  0
 15 16  1  6
 15 34  1  0
 16 17  1  0
 17 18  1  0
 18 19  2  0
 18 28  1  0
 19 20  1  0
 19 24  1  0
 20 21  1  0
 21 22  1  0
 22 23  2  0
 24 25  2  0
 25 26  1  0
 25 27  1  0
 27 28  2  0
 27 33  1  0
 28 29  1  0
 29 30  1  0
 30 31  1  0
 31 32  1  0
 32 33  1  0
 34 35  2  0
 34 39  1  0
 35 36  1  0
 36 37  2  0
 37 38  1  0
 38 39  2  0
 40 41  2  0
 41 42  1  0
 43 44  2  0
M  CHG  1  16   1
M  END
