
     RDKit          3D

 44 48  0  0  0  0  0  0  0  0999 V2000
   -4.7480   -3.6980   -3.2170 C   0  0  0  0  0  0  0  0  0  0  0  0
   -5.7150   -2.7960   -2.5340 C   0  0  0  0  0  0  0  0  0  0  0  0
   -4.9800   -1.7300   -1.7470 C   0  0  0  0  0  0  0  0  0  0  0  0
   -3.7440   -1.7940   -1.8260 O   0  0  0  0  0  0  0  0  0  0  0  0
   -5.7880   -0.7890   -1.0140 C   0  0  0  0  0  0  0  0  0  0  0  0
   -7.1830   -0.8620   -1.1320 C   0  0  0  0  0  0  0  0  0  0  0  0
   -8.0190    0.0280   -0.5000 C   0  0  0  0  0  0  0  0  0  0  0  0
   -7.5080    1.0210    0.2720 C   0  0  0  0  0  0  0  0  0  0  0  0
   -6.1250    1.1160    0.4080 C   0  0  0  0  0  0  0  0  0  0  0  0
   -5.2670    0.2110   -0.2340 C   0  0  0  0  0  0  0  0  0  0  0  0
   -3.8750    0.2980   -0.0140 N   0  0  0  0  0  0  0  0  0  0  0  0
   -3.1550    1.3890    0.5350 C   0  0  0  0  0  0  0  0  0  0  0  0
   -3.7530    2.4240    0.8720 O   0  0  0  0  0  0  0  0  0  0  0  0
   -1.6670    1.3220    0.7190 C   0  0  2  0  0  0  0  0  0  0  0  0
   -1.0860    2.3460   -0.2740 C   0  0  0  0  0  0  0  0  0  0  0  0
   -1.0830    0.0670    0.4190 N   0  0  0  0  0  0  0  0  0  0  0  0
    0.2360   -0.1200    0.9710 C   0  0  0  0  0  0  0  0  0  0  0  0
    0.2980   -0.4190    2.3900 C   0  0  0  0  0  0  0  0  0  0  0  0
   -0.8260   -0.5250    3.1670 C   0  0  0  0  0  0  0  0  0  0  0  0
   -0.7710   -0.8160    4.5360 C   0  0  0  0  0  0  0  0  0  0  0  0
    0.4650   -0.9990    5.1040 C   0  0  0  0  0  0  0  0  0  0  0  0
    1.6210   -0.9000    4.3530 C   0  0  0  0  0  0  0  0  0  0  0  0
    1.5130   -0.6100    3.0020 C   0  0  0  0  0  0  0  0  0  0  0  0
    2.6660   -0.5090    2.2440 O   0  0  0  0  0  0  0  0  0  0  0  0
    3.3040    0.7260    2.1130 C   0  0  0  0  0  0  0  0  0  0  0  0
    2.7650    1.6930    2.7120 O   0  0  0  0  0  0  0  0  0  0  0  0
    4.5220    0.8850    1.3270 C   0  0  0  0  0  0  0  0  0  0  0  0
    5.1310   -0.1560    0.6680 C   0  0  0  0  0  0  0  0  0  0  0  0
    6.2990    0.0340   -0.0730 C   0  0  0  0  0  0  0  0  0  0  0  0
    6.8930    1.2730   -0.1760 C   0  0  0  0  0  0  0  0  0  0  0  0
    8.0560    1.4990   -0.9060 O   0  0  0  0  0  0  0  0  0  0  0  0
    8.5610    0.4570   -1.6740 C   0  0  0  0  0  0  0  0  0  0  0  0
    9.7990   -0.0960   -1.3860 C   0  0  0  0  0  0  0  0  0  0  0  0
   10.2600   -1.1180   -2.1630 C   0  0  0  0  0  0  0  0  0  0  0  0
    9.4990   -1.5810   -3.2090 C   0  0  0  0  0  0  0  0  0  0  0  0
    8.2660   -1.0520   -3.5190 C   0  0  0  0  0  0  0  0  0  0  0  0
    7.7930   -0.0020   -2.7220 C   0  0  0  0  0  0  0  0  0  0  0  0
    6.5120    0.5830   -3.0770 C   0  0  0  0  0  0  0  0  0  0  0  0
    5.8590    0.1080   -4.0270 O   0  0  0  0  0  0  0  0  0  0  0  0
    6.2600    2.3170    0.5000 C   0  0  0  0  0  0  0  0  0  0  0  0
    5.1070    2.1230    1.2290 C   0  0  0  0  0  0  0  0  0  0  0  0
   -8.5940    1.8680    0.8590 C   0  0  0  0  0  0  0  0  0  0  0  0
   -9.8150    1.0140    0.5310 C   0  0  0  0  0  0  0  0  0  0  0  0
   -9.4060    0.1320   -0.4850 O   0  0  0  0  0  0  0  0  0  0  0  0
  1  2  1  0
  2  3  1  0
  3  4  2  0
  3  5  1  0
  5  6  2  0
  5 10  1  0
  6  7  1  0
  7  8  2  0
  7 44  1  0
  8  9  1  0
  8 42  1  0
  9 10  2  0
 10 11  1  0
 11 12  1  0
 12 13  2  0
 12 14  1  0
 14 15  1  6
 14 16  1  0
 16 17  1  0
 17 18  1  0
 18 19  2  0
 18 23  1  0
 19 20  1  0
 20 21  2  0
 21 22  1  0
 22 23  2  0
 23 24  1  0
 24 25  1  0
 25 26  2  0
 25 27  1  0
 27 28  2  0
 27 41  1  0
 28 29  1  0
 29 30  2  0
 30 31  1  0
 30 40  1  0
 31 32  1  0
 32 33  2  0
 32 37  1  0
 33 34  1  0
 34 35  2  0
 35 36  1  0
 36 37  2  0
 37 38  1  0
 38 39  2  0
 40 41  2  0
 42 43  1  0
 43 44  1  0
M  CHG  1  16   1
M  END
