
     RDKit          3D

 44 48  0  0  0  0  0  0  0  0999 V2000
    1.1570    2.2120   -4.6310 C   0  0  0  0  0  0  0  0  0  0  0  0
    1.6960    0.8190   -4.3880 C   0  0  0  0  0  0  0  0  0  0  0  0
    1.7440    0.5860   -3.0220 O   0  0  0  0  0  0  0  0  0  0  0  0
    0.6840    0.5770   -2.1290 C   0  0  0  0  0  0  0  0  0  0  0  0
   -0.5790    0.8030   -2.5590 C   0  0  0  0  0  0  0  0  0  0  0  0
   -1.6390    0.7970   -1.6700 C   0  0  0  0  0  0  0  0  0  0  0  0
   -1.4210    0.5600   -0.3290 C   0  0  0  0  0  0  0  0  0  0  0  0
   -2.5900    0.5390    0.5650 C   0  0  0  0  0  0  0  0  0  0  0  0
   -2.4250    0.3550    1.7840 O   0  0  0  0  0  0  0  0  0  0  0  0
   -3.9410    0.7320    0.0120 C   0  0  0  0  0  0  0  0  0  0  0  0
   -5.0740    0.5250    0.9460 C   0  0  2  0  0  0  0  0  0  0  0  0
   -4.9930   -0.9330    1.4190 C   0  0  0  0  0  0  0  0  0  0  0  0
   -5.0880   -1.8650    0.2700 C   0  0  0  0  0  0  0  0  0  0  0  0
   -4.0170   -2.2010   -0.3030 O   0  0  0  0  0  0  0  0  0  0  0  0
   -6.2780   -2.3490   -0.1640 O   0  0  0  0  0  0  0  0  0  0  0  0
   -6.2750   -3.2410   -1.2800 C   0  0  0  0  0  0  0  0  0  0  0  0
   -6.3960    0.8120    0.3470 C   0  0  0  0  0  0  0  0  0  0  0  0
   -6.4780    0.9450   -1.0370 C   0  0  0  0  0  0  0  0  0  0  0  0
   -7.7200    1.1850   -1.5820 C   0  0  0  0  0  0  0  0  0  0  0  0
   -8.8570    1.2960   -0.8120 C   0  0  0  0  0  0  0  0  0  0  0  0
   -8.7210    1.1560    0.5520 C   0  0  0  0  0  0  0  0  0  0  0  0
   -7.4870    0.9120    1.1670 C   0  0  0  0  0  0  0  0  0  0  0  0
   -7.4630    0.8130    2.5880 N   0  0  0  0  0  0  0  0  0  0  0  0
   -8.3370   -0.2270    3.0940 C   0  0  0  0  0  0  0  0  0  0  0  0
   -0.1400    0.3320    0.1020 C   0  0  0  0  0  0  0  0  0  0  0  0
    0.9390    0.3320   -0.7670 C   0  0  0  0  0  0  0  0  0  0  0  0
    2.2280    0.1120   -0.4200 O   0  0  0  0  0  0  0  0  0  0  0  0
    2.7930   -0.1470    0.8360 C   0  0  0  0  0  0  0  0  0  0  0  0
    4.2790   -0.3160    0.6740 C   0  0  0  0  0  0  0  0  0  0  0  0
    4.8190   -0.1130   -0.4640 O   0  0  0  0  0  0  0  0  0  0  0  0
    5.1520   -0.7000    1.7230 N   0  0  0  0  0  0  0  0  0  0  0  0
    6.5480   -0.8400    1.4810 C   0  0  0  0  0  0  0  0  0  0  0  0
    7.0970   -2.0070    0.9650 C   0  0  0  0  0  0  0  0  0  0  0  0
    6.1580   -3.1200    0.6750 C   0  0  0  0  0  0  0  0  0  0  0  0
    8.4690   -2.1290    0.7290 C   0  0  0  0  0  0  0  0  0  0  0  0
    9.3120   -1.0710    1.0110 C   0  0  0  0  0  0  0  0  0  0  0  0
    8.7360    0.0580    1.5170 C   0  0  0  0  0  0  0  0  0  0  0  0
    9.6860    1.0070    1.7560 C   0  0  0  0  0  0  0  0  0  0  0  0
    9.2270    2.2070    2.2860 C   0  0  0  0  0  0  0  0  0  0  0  0
    7.8640    2.3940    2.5450 C   0  0  0  0  0  0  0  0  0  0  0  0
    6.9410    1.4180    2.2920 C   0  0  0  0  0  0  0  0  0  0  0  0
    7.3780    0.2120    1.7630 C   0  0  0  0  0  0  0  0  0  0  0  0
   10.9250    0.4850    1.3860 O   0  0  0  0  0  0  0  0  0  0  0  0
   10.7860   -0.8340    0.8750 C   0  0  0  0  0  0  0  0  0  0  0  0
  1  2  1  0
  2  3  1  0
  3  4  1  0
  4  5  2  0
  4 26  1  0
  5  6  1  0
  6  7  2  0
  7  8  1  0
  7 25  1  0
  8  9  2  0
  8 10  1  0
 11 10  1  6
 11 12  1  0
 11 17  1  0
 12 13  1  0
 13 14  2  0
 13 15  1  0
 15 16  1  0
 17 18  2  0
 17 22  1  0
 18 19  1  0
 19 20  2  0
 20 21  1  0
 21 22  2  0
 22 23  1  0
 23 24  1  0
 25 26  2  0
 26 27  1  0
 27 28  1  0
 28 29  1  0
 29 30  2  0
 29 31  1  0
 31 32  1  0
 32 33  2  0
 32 42  1  0
 33 34  1  0
 33 35  1  0
 35 36  2  0
 36 37  1  0
 36 44  1  0
 37 38  2  0
 37 42  1  0
 38 39  1  0
 38 43  1  0
 39 40  2  0
 40 41  1  0
 41 42  2  0
 43 44  1  0
M  CHG  1  23   1
M  END
