
     RDKit          3D

 28 32  0  0  0  0  0  0  0  0999 V2000
    4.7800   -0.5740    0.7900 O   0  0  0  0  0  0  0  0  0  0  0  0
    4.0310    0.3100    0.3760 C   0  0  0  0  0  0  0  0  0  0  0  0
    2.6850    0.0590    0.1340 N   0  0  0  0  0  0  0  0  0  0  0  0
    1.9940   -1.1640    0.3140 C   0  0  0  0  0  0  0  0  0  0  0  0
    2.5500   -2.2090    0.9980 C   0  0  0  0  0  0  0  0  0  0  0  0
    1.8000   -3.3870    1.1110 C   0  0  0  0  0  0  0  0  0  0  0  0
    0.5460   -3.4890    0.5540 C   0  0  0  0  0  0  0  0  0  0  0  0
   -0.0320   -2.4380   -0.1430 C   0  0  0  0  0  0  0  0  0  0  0  0
   -1.3590   -2.5620   -0.7320 C   0  0  0  0  0  0  0  0  0  0  0  0
   -1.8400   -3.5820   -1.4600 N   0  0  0  0  0  0  0  0  0  0  0  0
   -3.0760   -3.3810   -1.8380 N   0  0  0  0  0  0  0  0  0  0  0  0
   -3.4420   -2.1840   -1.3500 C   0  0  0  0  0  0  0  0  0  0  0  0
   -4.6080   -1.4680   -1.4270 C   0  0  0  0  0  0  0  0  0  0  0  0
   -4.7080   -0.2310   -0.8110 C   0  0  0  0  0  0  0  0  0  0  0  0
   -3.6680    0.3290   -0.1070 C   0  0  0  0  0  0  0  0  0  0  0  0
   -3.7610    1.6280    0.5440 C   0  0  0  0  0  0  0  0  0  0  0  0
   -4.8390    2.4300    0.5480 N   0  0  0  0  0  0  0  0  0  0  0  0
   -4.5620    3.5500    1.2490 C   0  0  0  0  0  0  0  0  0  0  0  0
   -3.3030    3.4500    1.6890 N   0  0  0  0  0  0  0  0  0  0  0  0
   -2.8390    2.2910    1.2570 N   0  0  0  0  0  0  0  0  0  0  0  0
   -2.4880   -0.4060   -0.0340 C   0  0  0  0  0  0  0  0  0  0  0  0
   -2.3730   -1.6380   -0.6410 C   0  0  0  0  0  0  0  0  0  0  0  0
    0.7040   -1.2900   -0.2510 C   0  0  0  0  0  0  0  0  0  0  0  0
    4.6340    1.6460    0.1510 C   0  0  0  0  0  0  0  0  0  0  0  0
    5.9480    1.9980    0.3580 C   0  0  0  0  0  0  0  0  0  0  0  0
    6.1030    3.3340    0.0290 C   0  0  0  0  0  0  0  0  0  0  0  0
    4.8470    3.7380   -0.3710 C   0  0  0  0  0  0  0  0  0  0  0  0
    4.0240    2.7300   -0.2860 O   0  0  0  0  0  0  0  0  0  0  0  0
  1  2  2  0
  2  3  1  0
  2 24  1  0
  3  4  1  0
  4  5  2  0
  4 23  1  0
  5  6  1  0
  6  7  2  0
  7  8  1  0
  8  9  1  0
  8 23  2  0
  9 10  2  0
  9 22  1  0
 10 11  1  0
 11 12  1  0
 12 13  2  0
 12 22  1  0
 13 14  1  0
 14 15  2  0
 15 16  1  0
 15 21  1  0
 16 17  1  0
 16 20  2  0
 17 18  2  0
 18 19  1  0
 19 20  1  0
 21 22  2  0
 24 25  2  0
 24 28  1  0
 25 26  1  0
 26 27  2  0
 27 28  1  0
M  END
