
     RDKit          3D

 23 25  0  0  0  0  0  0  0  0999 V2000
   -6.4910    1.3170   -1.0580 C   0  0  0  0  0  0  0  0  0  0  0  0
   -5.0320    1.1960   -1.1320 C   0  0  0  0  0  0  0  0  0  0  0  0
   -4.3570    0.6390   -0.1110 C   0  0  0  0  0  0  0  0  0  0  0  0
   -4.8710    0.1320    1.0700 O   0  0  0  0  0  0  0  0  0  0  0  0
   -3.8690   -0.6550    1.6990 C   0  0  0  0  0  0  0  0  0  0  0  0
   -2.6500   -0.1570    1.1820 O   0  0  0  0  0  0  0  0  0  0  0  0
   -2.9080    0.4490   -0.0360 C   0  0  0  0  0  0  0  0  0  0  0  0
   -2.0170    0.7840   -0.9400 C   0  0  0  0  0  0  0  0  0  0  0  0
   -0.6050    0.5480   -0.7590 C   0  0  0  0  0  0  0  0  0  0  0  0
    0.1970    0.8980   -1.6600 O   0  0  0  0  0  0  0  0  0  0  0  0
   -0.1130   -0.1020    0.4830 C   0  0  0  0  0  0  0  0  0  0  0  0
    1.3720   -0.2210    0.4810 C   0  0  0  0  0  0  0  0  0  0  0  0
    2.1710    0.5740    1.1970 N   0  0  0  0  0  0  0  0  0  0  0  0
    3.5240    0.4630    1.1900 C   0  0  0  0  0  0  0  0  0  0  0  0
    4.3160    1.4000    2.0270 C   0  0  0  0  0  0  0  0  0  0  0  0
    4.6950    2.6550    1.3060 C   0  0  0  0  0  0  0  0  0  0  0  0
    4.0620   -0.4840    0.4320 N   0  0  0  0  0  0  0  0  0  0  0  0
    3.3510   -1.3470   -0.3340 C   0  0  0  0  0  0  0  0  0  0  0  0
    3.9390   -2.3190   -1.1090 C   0  0  0  0  0  0  0  0  0  0  0  0
    3.1880   -3.1830   -1.8780 C   0  0  0  0  0  0  0  0  0  0  0  0
    1.8220   -3.0480   -1.8520 C   0  0  0  0  0  0  0  0  0  0  0  0
    1.2360   -2.0760   -1.0780 C   0  0  0  0  0  0  0  0  0  0  0  0
    1.9650   -1.1950   -0.2960 C   0  0  0  0  0  0  0  0  0  0  0  0
  1  2  1  0
  2  3  2  3
  3  4  1  0
  3  7  1  0
  4  5  1  0
  5  6  1  0
  6  7  1  0
  7  8  2  3
  8  9  1  0
  9 10  2  0
  9 11  1  0
 11 12  1  0
 12 13  2  0
 12 23  1  0
 13 14  1  0
 14 15  1  0
 14 17  2  0
 15 16  1  0
 17 18  1  0
 18 19  2  0
 18 23  1  0
 19 20  1  0
 20 21  2  0
 21 22  1  0
 22 23  2  0
M  END
