
     RDKit          3D

 23 25  0  0  0  0  0  0  0  0999 V2000
   -5.4290    1.7300   -0.5920 C   0  0  0  0  0  0  0  0  0  0  0  0
   -4.9370    0.8520    0.5060 C   0  0  0  0  0  0  0  0  0  0  0  0
   -5.5820    0.7140    1.5690 O   0  0  0  0  0  0  0  0  0  0  0  0
   -3.6770    0.1450    0.3230 C   0  0  0  0  0  0  0  0  0  0  0  0
   -3.6550   -1.1140   -0.2390 C   0  0  0  0  0  0  0  0  0  0  0  0
   -4.9140   -1.8060   -0.6820 C   0  0  0  0  0  0  0  0  0  0  0  0
   -2.4970   -1.7960   -0.4220 N   0  0  0  0  0  0  0  0  0  0  0  0
   -1.3000   -1.2560   -0.0530 C   0  0  0  0  0  0  0  0  0  0  0  0
   -1.3240    0.0090    0.5110 C   0  0  0  0  0  0  0  0  0  0  0  0
   -2.5010    0.7160    0.7030 C   0  0  0  0  0  0  0  0  0  0  0  0
   -2.4290    2.0700    1.3170 C   0  0  0  0  0  0  0  0  0  0  0  0
    0.0500    0.3840    0.8240 C   0  0  0  0  0  0  0  0  0  0  0  0
    0.4420    1.4750    1.3550 O   0  0  0  0  0  0  0  0  0  0  0  0
    0.9060   -0.6830    0.4370 N   0  0  0  0  0  0  0  0  0  0  0  0
    2.3640   -0.6990    0.5850 C   0  0  0  0  0  0  0  0  0  0  0  0
    2.9610   -0.1240   -0.6620 C   0  0  0  0  0  0  0  0  0  0  0  0
    4.4680   -0.1420   -0.5060 C   0  0  0  0  0  0  0  0  0  0  0  0
    5.1480   -0.5770    0.5260 C   0  0  0  0  0  0  0  0  0  0  0  0
    6.5870   -0.4150    0.2740 C   0  0  0  0  0  0  0  0  0  0  0  0
    6.6490    0.1850   -1.0730 C   0  0  0  0  0  0  0  0  0  0  0  0
    5.4100    0.3330   -1.5020 C   0  0  0  0  0  0  0  0  0  0  0  0
    0.0720   -1.6920   -0.1030 C   0  0  0  0  0  0  0  0  0  0  0  0
    0.4670   -2.7920   -0.5540 O   0  0  0  0  0  0  0  0  0  0  0  0
  1  2  1  0
  2  3  2  0
  2  4  1  0
  4  5  2  0
  4 10  1  0
  5  6  1  0
  5  7  1  0
  7  8  2  0
  8  9  1  0
  8 22  1  0
  9 10  2  0
  9 12  1  0
 10 11  1  0
 12 13  2  0
 12 14  1  0
 14 15  1  0
 14 22  1  0
 15 16  1  0
 16 17  1  0
 17 18  2  0
 17 21  1  0
 18 19  1  0
 19 20  1  0
 20 21  2  0
 22 23  2  0
M  END
