
     RDKit          3D

 23 25  0  0  0  0  0  0  0  0999 V2000
    7.0140   -0.9220    0.7540 C   0  0  0  0  0  0  0  0  0  0  0  0
    6.1130    0.0290    0.7200 C   0  0  0  0  0  0  0  0  0  0  0  0
    5.2230    0.1690   -0.4590 C   0  0  0  0  0  0  0  0  0  0  0  0
    3.8510    0.0320   -0.0920 N   0  0  0  0  0  0  0  0  0  0  0  0
    2.8600    0.4580   -0.7610 C   0  0  0  0  0  0  0  0  0  0  0  0
    3.2190    1.1640   -2.0500 C   0  0  0  0  0  0  0  0  0  0  0  0
    1.4550    0.3310   -0.4100 C   0  0  0  0  0  0  0  0  0  0  0  0
    0.4060    0.8060   -1.1590 C   0  0  0  0  0  0  0  0  0  0  0  0
   -0.7820    0.4880   -0.4910 C   0  0  0  0  0  0  0  0  0  0  0  0
   -2.0940    0.8380   -0.9850 C   0  0  0  0  0  0  0  0  0  0  0  0
   -2.1180    1.4920   -2.0910 O   0  0  0  0  0  0  0  0  0  0  0  0
   -3.3820    0.5370   -0.3840 C   0  0  1  0  0  0  0  0  0  0  0  0
   -4.5180    1.1730   -1.2680 C   0  0  0  0  0  0  0  0  0  0  0  0
   -5.7080    0.6570   -0.4610 C   0  0  0  0  0  0  0  0  0  0  0  0
   -5.3580   -0.8000   -0.2950 C   0  0  0  0  0  0  0  0  0  0  0  0
   -3.8360   -0.8950   -0.4990 C   0  0  0  0  0  0  0  0  0  0  0  0
   -0.4270   -0.1730    0.6500 N   0  0  0  0  0  0  0  0  0  0  0  0
    0.9320   -0.2740    0.7110 C   0  0  0  0  0  0  0  0  0  0  0  0
    1.5350   -0.9280    1.8590 C   0  0  0  0  0  0  0  0  0  0  0  0
    2.7790   -1.0300    1.9250 O   0  0  0  0  0  0  0  0  0  0  0  0
    0.7420   -1.4560    2.9130 O   0  0  0  0  0  0  0  0  0  0  0  0
   -0.4920   -0.7390    3.0320 C   0  0  0  0  0  0  0  0  0  0  0  0
   -1.2070   -0.7550    1.7060 C   0  0  0  0  0  0  0  0  0  0  0  0
  1  2  2  0
  2  3  1  0
  3  4  1  0
  4  5  2  3
  5  6  1  0
  5  7  1  0
  7  8  1  0
  7 18  2  0
  8  9  2  0
  9 10  1  0
  9 17  1  0
 10 11  2  0
 12 10  1  6
 12 13  1  0
 12 16  1  0
 13 14  1  0
 14 15  1  0
 15 16  1  0
 17 18  1  0
 17 23  1  0
 18 19  1  0
 19 20  2  0
 19 21  1  0
 21 22  1  0
 22 23  1  0
M  END
