
     RDKit          3D

 31 33  0  0  0  0  0  0  0  0999 V2000
   -1.6100   -1.8050   -3.3760 O   0  0  0  0  0  0  0  0  0  0  0  0
   -1.8520   -1.9820   -2.1550 C   0  0  0  0  0  0  0  0  0  0  0  0
   -1.1130   -1.2910   -1.1690 O   0  0  0  0  0  0  0  0  0  0  0  0
   -1.8140   -0.9610    0.0380 C   0  0  1  0  0  0  0  0  0  0  0  0
   -1.4300   -1.8570    1.1450 C   0  0  0  0  0  0  0  0  0  0  0  0
   -1.8860   -1.8010    2.2950 O   0  0  0  0  0  0  0  0  0  0  0  0
   -0.4870   -2.8330    0.8810 O   0  0  0  0  0  0  0  0  0  0  0  0
   -1.5330    0.4680    0.4170 C   0  0  0  0  0  0  0  0  0  0  0  0
   -0.5170    1.0340    0.7350 N   0  0  0  0  0  0  0  0  0  0  0  0
    0.6000    1.4890    1.0460 O   0  0  0  0  0  0  0  0  0  0  0  0
    1.9730    0.7970    1.8270 P   0  0  0  0  0  0  0  0  0  0  0  0
    2.7650   -0.3770    0.8770 O   0  0  0  0  0  0  0  0  0  0  0  0
    2.9650    1.8590    2.6980 O   0  0  0  0  0  0  0  0  0  0  0  0
    4.1400    2.6170    1.7280 P   0  0  0  0  0  0  0  0  0  0  0  0
    3.4780    3.3680    0.3400 O   0  0  0  0  0  0  0  0  0  0  0  0
    5.4640    1.4820    1.3370 N   0  0  0  0  0  0  0  0  0  0  0  0
    6.1360    1.3960    0.0570 C   0  0  0  0  0  0  0  0  0  0  0  0
    7.1260    0.2730    0.2490 C   0  0  0  0  0  0  0  0  0  0  0  0
    6.6580   -0.4070    1.3780 O   0  0  0  0  0  0  0  0  0  0  0  0
    6.0310    0.5270    2.2180 C   0  0  0  0  0  0  0  0  0  0  0  0
    5.9630    0.5480    3.4620 O   0  0  0  0  0  0  0  0  0  0  0  0
   -2.8230    1.1170    0.3300 N   0  0  0  0  0  0  0  0  0  0  0  0
   -3.7330    0.3090   -0.0520 C   0  0  0  0  0  0  0  0  0  0  0  0
   -5.0980    0.7310   -0.2110 N   0  0  0  0  0  0  0  0  0  0  0  0
   -5.6040    2.3950   -0.5380 P   0  0  0  0  0  0  0  0  0  0  0  0
   -7.0870    2.4870   -1.4190 O   0  0  0  0  0  0  0  0  0  0  0  0
   -4.3770    3.3850   -1.1960 O   0  0  0  0  0  0  0  0  0  0  0  0
   -3.2020   -0.9860   -0.2790 N   0  0  0  0  0  0  0  0  0  0  0  0
   -3.8030   -2.2150   -0.7410 C   0  0  0  0  0  0  0  0  0  0  0  0
   -2.9280   -2.9260   -1.7430 C   0  0  1  0  0  0  0  0  0  0  0  0
   -3.6200   -3.4150   -2.8280 O   0  0  0  0  0  0  0  0  0  0  0  0
  1  2  2  0
  2  3  1  0
  2 30  1  0
  3  4  1  0
  4  5  1  1
  4  8  1  0
  4 28  1  0
  5  6  2  0
  5  7  1  0
  8  9  2  3
  8 22  1  0
  9 10  1  0
 10 11  1  0
 11 12  1  0
 11 13  1  0
 13 14  1  0
 14 15  1  0
 14 16  1  0
 16 17  1  0
 16 20  1  0
 17 18  1  0
 18 19  1  0
 19 20  1  0
 20 21  2  0
 22 23  2  0
 23 24  1  0
 23 28  1  0
 24 25  1  0
 25 26  1  0
 25 27  1  0
 28 29  1  0
 29 30  1  0
 30 31  1  6
M  END
