
     RDKit          3D

 30 32  0  0  0  0  0  0  0  0999 V2000
    1.4270   -2.4020   -1.3670 C   0  0  0  0  0  0  0  0  0  0  0  0
    1.1440   -1.8850    0.0320 C   0  0  1  0  0  0  0  0  0  0  0  0
   -0.2170   -1.5390    0.1930 O   0  0  0  0  0  0  0  0  0  0  0  0
   -1.2070   -2.4770    0.0240 C   0  0  0  0  0  0  0  0  0  0  0  0
   -0.8630   -3.6490   -0.2760 O   0  0  0  0  0  0  0  0  0  0  0  0
   -2.6580   -2.2140    0.1700 C   0  0  0  0  0  0  0  0  0  0  0  0
   -2.9370   -0.8500    0.5120 N   0  0  0  0  0  0  0  0  0  0  0  0
   -3.0460   -0.2730    1.7880 C   0  0  0  0  0  0  0  0  0  0  0  0
   -2.9240   -0.8260    2.9090 O   0  0  0  0  0  0  0  0  0  0  0  0
   -3.3320    1.1030    1.6000 N   0  0  0  0  0  0  0  0  0  0  0  0
   -3.4020    1.3980    0.2650 N   0  0  0  0  0  0  0  0  0  0  0  0
   -3.1600    0.1980   -0.4510 C   0  0  0  0  0  0  0  0  0  0  0  0
   -3.1760    0.2290   -1.7240 N   0  0  0  0  0  0  0  0  0  0  0  0
   -3.4000    1.2840   -2.5930 C   0  0  0  0  0  0  0  0  0  0  0  0
   -3.3600    1.0460   -3.8540 O   0  0  0  0  0  0  0  0  0  0  0  0
   -3.6700    2.6050   -2.2810 O   0  0  0  0  0  0  0  0  0  0  0  0
   -3.7310    2.9600   -0.5510 P   0  0  0  0  0  0  0  0  0  0  0  0
   -2.4650    4.0890   -0.1900 O   0  0  0  0  0  0  0  0  0  0  0  0
    1.5910   -2.8640    1.0590 C   0  0  0  0  0  0  0  0  0  0  0  0
    0.9010   -3.6810    1.7250 O   0  0  0  0  0  0  0  0  0  0  0  0
    3.0010   -2.6880    1.1420 N   0  0  0  0  0  0  0  0  0  0  0  0
    3.3610   -1.3750    0.6380 C   0  0  0  0  0  0  0  0  0  0  0  0
    2.0400   -0.7200    0.2880 C   0  0  1  0  0  0  0  0  0  0  0  0
    2.1740    0.0340   -0.8770 O   0  0  0  0  0  0  0  0  0  0  0  0
    1.5390    0.0550    1.3240 O   0  0  0  0  0  0  0  0  0  0  0  0
    2.5120    1.4200    1.6830 P   0  0  0  0  0  0  0  0  0  0  0  0
    4.0410    1.3910    0.8630 O   0  0  0  0  0  0  0  0  0  0  0  0
    1.4740    3.3070    1.1770 P   0  0  0  0  0  0  0  0  0  0  0  0
    1.7420    3.5950   -0.5260 O   0  0  0  0  0  0  0  0  0  0  0  0
    2.1640    4.6050    2.0650 O   0  0  0  0  0  0  0  0  0  0  0  0
  2  1  1  6
  2  3  1  0
  2 19  1  0
  2 23  1  0
  3  4  1  0
  4  5  2  0
  4  6  1  0
  6  7  1  0
  7  8  1  0
  7 12  1  0
  8  9  2  0
  8 10  1  0
 10 11  1  0
 11 12  1  0
 11 17  1  0
 12 13  2  0
 13 14  1  0
 14 15  2  0
 14 16  1  0
 16 17  1  0
 17 18  1  0
 19 20  2  0
 19 21  1  0
 21 22  1  0
 22 23  1  0
 23 24  1  6
 23 25  1  0
 25 26  1  0
 26 27  1  0
 26 28  1  0
 28 29  1  0
 28 30  1  0
M  END
