
     RDKit          3D

 30 31  0  0  0  0  0  0  0  0999 V2000
    2.6040   -4.6950    2.2480 O   0  0  0  0  0  0  0  0  0  0  0  0
    2.2410   -4.1230    0.8340 P   0  0  0  0  0  0  0  0  0  0  0  0
    2.2190   -2.3390    0.5580 N   0  0  0  0  0  0  0  0  0  0  0  0
    1.4360   -1.7720   -0.4620 C   0  0  0  0  0  0  0  0  0  0  0  0
    0.7320   -2.4800   -1.2090 O   0  0  0  0  0  0  0  0  0  0  0  0
    1.4420   -0.3080   -0.6590 C   0  0  1  0  0  0  0  0  0  0  0  0
    2.8310    0.2010   -1.0060 C   0  0  0  0  0  0  0  0  0  0  0  0
    3.2570   -0.3570   -2.2280 O   0  0  0  0  0  0  0  0  0  0  0  0
    4.8240    0.1900   -2.6610 P   0  0  0  0  0  0  0  0  0  0  0  0
    6.0460   -0.3200   -1.5440 O   0  0  0  0  0  0  0  0  0  0  0  0
    4.8750    1.9210   -2.8380 O   0  0  0  0  0  0  0  0  0  0  0  0
    0.5820    0.1040   -1.7400 N   0  0  0  0  0  0  0  0  0  0  0  0
   -0.2650    1.1010   -1.2000 C   0  0  0  0  0  0  0  0  0  0  0  0
   -0.8320    2.0530   -1.7790 O   0  0  0  0  0  0  0  0  0  0  0  0
   -0.3260    0.7360    0.2790 C   0  0  1  0  0  0  0  0  0  0  0  0
   -0.5110    1.9330    1.1150 C   0  0  0  0  0  0  0  0  0  0  0  0
   -1.7670    2.5030    1.1320 O   0  0  0  0  0  0  0  0  0  0  0  0
   -2.8850    1.9580    1.7140 C   0  0  0  0  0  0  0  0  0  0  0  0
   -2.8500    0.8600    2.3180 O   0  0  0  0  0  0  0  0  0  0  0  0
   -4.1080    2.6170    1.6480 O   0  0  0  0  0  0  0  0  0  0  0  0
   -5.5340    1.9180    2.3930 P   0  0  0  0  0  0  0  0  0  0  0  0
   -5.4460    1.2480    3.7970 O   0  0  0  0  0  0  0  0  0  0  0  0
   -1.2850   -0.3640    0.3590 C   0  0  0  0  0  0  0  0  0  0  0  0
   -1.0890   -1.4120    1.1180 N   0  0  0  0  0  0  0  0  0  0  0  0
   -2.0070   -2.4890    1.2090 C   0  0  0  0  0  0  0  0  0  0  0  0
   -1.8320   -3.5000    1.9330 O   0  0  0  0  0  0  0  0  0  0  0  0
   -3.2220   -2.4530    0.4380 N   0  0  0  0  0  0  0  0  0  0  0  0
   -3.6440   -1.1900   -0.1280 C   0  0  0  0  0  0  0  0  0  0  0  0
   -2.5110   -0.3780   -0.4010 N   0  0  0  0  0  0  0  0  0  0  0  0
    0.9970    0.3000    0.4860 O   0  0  0  0  0  0  0  0  0  0  0  0
  1  2  2  0
  2  3  1  0
  3  4  1  0
  4  5  2  0
  4  6  1  0
  6  7  1  6
  6 12  1  0
  6 30  1  0
  7  8  1  0
  8  9  1  0
  9 10  1  0
  9 11  1  0
 12 13  1  0
 13 14  2  0
 13 15  1  0
 15 16  1  1
 15 23  1  0
 15 30  1  0
 16 17  1  0
 17 18  1  0
 18 19  2  0
 18 20  1  0
 20 21  1  0
 21 22  2  0
 23 24  2  0
 23 29  1  0
 24 25  1  0
 25 26  2  0
 25 27  1  0
 27 28  1  0
 28 29  1  0
M  END
