
     RDKit          3D

 30 31  0  0  0  0  0  0  0  0999 V2000
    8.7400   -1.0420   -0.5460 O   0  0  0  0  0  0  0  0  0  0  0  0
    7.6740   -1.7770    0.3330 P   0  0  0  0  0  0  0  0  0  0  0  0
    5.9880   -1.2070    0.3390 N   0  0  0  0  0  0  0  0  0  0  0  0
    5.4990   -0.2670   -0.5900 C   0  0  0  0  0  0  0  0  0  0  0  0
    6.2600    0.2070   -1.4720 O   0  0  0  0  0  0  0  0  0  0  0  0
    4.0500    0.1660   -0.5160 C   0  0  1  0  0  0  0  0  0  0  0  0
    3.3950   -0.4800    0.5290 O   0  0  0  0  0  0  0  0  0  0  0  0
    2.4120   -1.3800    0.4950 N   0  0  0  0  0  0  0  0  0  0  0  0
    1.1810   -1.2960    0.2450 C   0  0  0  0  0  0  0  0  0  0  0  0
    0.4340   -2.4370    0.2980 N   0  0  0  0  0  0  0  0  0  0  0  0
   -0.8710   -2.4350    0.0480 C   0  0  0  0  0  0  0  0  0  0  0  0
   -1.5060   -3.5140    0.1110 O   0  0  0  0  0  0  0  0  0  0  0  0
   -1.5270   -1.2950   -0.2740 N   0  0  0  0  0  0  0  0  0  0  0  0
   -0.8270   -0.1580   -0.3350 C   0  0  0  0  0  0  0  0  0  0  0  0
    0.5380   -0.1460   -0.0760 C   0  0  0  0  0  0  0  0  0  0  0  0
    0.9090    1.1780   -0.2370 O   0  0  0  0  0  0  0  0  0  0  0  0
    0.0030    1.7660   -1.0740 O   0  0  0  0  0  0  0  0  0  0  0  0
   -1.1720    1.1670   -0.6190 N   0  0  0  0  0  0  0  0  0  0  0  0
   -2.3720    1.8480   -0.4820 C   0  0  0  0  0  0  0  0  0  0  0  0
   -2.3700    3.0940   -0.9000 O   0  0  0  0  0  0  0  0  0  0  0  0
   -3.6290    1.3630    0.0630 C   0  0  1  0  0  0  0  0  0  0  0  0
   -4.5260    0.6550   -0.8840 C   0  0  0  0  0  0  0  0  0  0  0  0
   -6.0580    0.1150    0.0480 P   0  0  0  0  0  0  0  0  0  0  0  0
   -6.2540    1.1750    1.3880 O   0  0  0  0  0  0  0  0  0  0  0  0
   -5.8960   -1.5220    0.5860 O   0  0  0  0  0  0  0  0  0  0  0  0
   -3.4170    0.5270    1.7060 P   0  0  0  0  0  0  0  0  0  0  0  0
   -3.7310   -0.9480    1.9730 O   0  0  0  0  0  0  0  0  0  0  0  0
    4.1050    1.6230   -0.2530 C   0  0  0  0  0  0  0  0  0  0  0  0
    4.6530    2.4140   -1.0960 O   0  0  0  0  0  0  0  0  0  0  0  0
    3.5900    2.2200    0.8750 O   0  0  0  0  0  0  0  0  0  0  0  0
  1  2  2  0
  2  3  1  0
  3  4  1  0
  4  5  2  0
  4  6  1  0
  6  7  1  1
  6 28  1  0
  7  8  1  0
  8  9  2  3
  9 10  1  0
  9 15  1  0
 10 11  1  0
 11 12  2  0
 11 13  1  0
 13 14  1  0
 14 15  2  0
 14 18  1  0
 15 16  1  0
 16 17  1  0
 17 18  1  0
 18 19  1  0
 19 20  2  0
 19 21  1  0
 21 22  1  6
 21 26  1  0
 22 23  1  0
 23 24  1  0
 23 25  1  0
 26 27  2  0
 28 29  2  0
 28 30  1  0
M  END
