
     RDKit          3D

 31 32  0  0  0  0  0  0  0  0999 V2000
   -0.8960    1.4240   -1.6390 N   0  0  0  0  0  0  0  0  0  0  0  0
   -1.4800    0.8080   -0.6800 C   0  0  0  0  0  0  0  0  0  0  0  0
   -1.0060    1.0590    0.6590 N   0  0  0  0  0  0  0  0  0  0  0  0
   -0.2740    0.0120    1.3290 C   0  0  0  0  0  0  0  0  0  0  0  0
    1.0670   -0.2500    0.7420 C   0  0  0  0  0  0  0  0  0  0  0  0
    1.6900    0.4040   -0.1420 N   0  0  0  0  0  0  0  0  0  0  0  0
    2.9380   -0.1280   -0.4560 N   0  0  0  0  0  0  0  0  0  0  0  0
    3.9110    0.3770   -1.4230 C   0  0  1  0  0  0  0  0  0  0  0  0
    5.3380    0.3130   -0.9290 C   0  0  0  0  0  0  0  0  0  0  0  0
    5.6230   -0.8380   -1.7050 O   0  0  0  0  0  0  0  0  0  0  0  0
    4.4130   -0.6600   -2.3580 C   0  0  0  0  0  0  0  0  0  0  0  0
    3.9210   -1.1910   -3.3800 O   0  0  0  0  0  0  0  0  0  0  0  0
    3.1060   -1.2770    0.3570 C   0  0  0  0  0  0  0  0  0  0  0  0
    4.1360   -1.9980    0.3370 O   0  0  0  0  0  0  0  0  0  0  0  0
    1.8800   -1.4100    1.1670 C   0  0  1  0  0  0  0  0  0  0  0  0
    2.1250   -1.4760    2.5230 O   0  0  0  0  0  0  0  0  0  0  0  0
    1.6370   -2.6260    2.9600 O   0  0  0  0  0  0  0  0  0  0  0  0
    2.9010   -3.8420    2.9890 P   0  0  0  0  0  0  0  0  0  0  0  0
    2.4240   -5.3270    3.0360 O   0  0  0  0  0  0  0  0  0  0  0  0
   -1.2520    2.3080    1.3470 C   0  0  0  0  0  0  0  0  0  0  0  0
   -3.0670    2.5740    1.6770 P   0  0  0  0  0  0  0  0  0  0  0  0
   -3.3960    2.0850    3.3070 O   0  0  0  0  0  0  0  0  0  0  0  0
   -3.4160    4.2640    1.5390 O   0  0  0  0  0  0  0  0  0  0  0  0
   -2.5230   -0.0740   -0.9800 N   0  0  0  0  0  0  0  0  0  0  0  0
   -2.2890   -1.2180   -1.7740 C   0  0  0  0  0  0  0  0  0  0  0  0
   -1.1420   -1.4440   -2.2120 O   0  0  0  0  0  0  0  0  0  0  0  0
   -3.2990   -2.1230   -2.0970 O   0  0  0  0  0  0  0  0  0  0  0  0
   -3.0270   -3.2090   -2.8640 O   0  0  0  0  0  0  0  0  0  0  0  0
   -4.1700    0.2400   -0.3700 P   0  0  0  0  0  0  0  0  0  0  0  0
   -4.7940    1.6430   -1.1980 O   0  0  0  0  0  0  0  0  0  0  0  0
   -5.2690   -1.0660   -0.6830 O   0  0  0  0  0  0  0  0  0  0  0  0
  1  2  2  0
  2  3  1  0
  2 24  1  0
  3  4  1  0
  3 20  1  0
  4  5  1  0
  5  6  2  0
  5 15  1  0
  6  7  1  0
  8  7  1  1
  7 13  1  0
  8  9  1  0
  8 11  1  0
  9 10  1  0
 10 11  1  0
 11 12  2  0
 13 14  2  0
 13 15  1  0
 15 16  1  1
 16 17  1  0
 17 18  1  0
 18 19  2  0
 20 21  1  0
 21 22  1  0
 21 23  1  0
 24 25  1  0
 24 29  1  0
 25 26  2  0
 25 27  1  0
 27 28  1  0
 29 30  1  0
 29 31  1  0
M  END
