
     RDKit          3D

 31 33  0  0  0  0  0  0  0  0999 V2000
   -6.1200    0.8630    3.0810 N   0  0  0  0  0  0  0  0  0  0  0  0
   -5.7220    0.0030    1.9850 C   0  0  0  0  0  0  0  0  0  0  0  0
   -6.6380   -0.7900    1.4490 N   0  0  0  0  0  0  0  0  0  0  0  0
   -6.2610   -1.4970    0.3190 C   0  0  0  0  0  0  0  0  0  0  0  0
   -5.0900   -1.3820   -0.1740 N   0  0  0  0  0  0  0  0  0  0  0  0
   -4.1510   -0.6220    0.3340 C   0  0  0  0  0  0  0  0  0  0  0  0
   -4.4770    0.1230    1.4890 C   0  0  0  0  0  0  0  0  0  0  0  0
   -3.3550    0.7690    1.8790 N   0  0  0  0  0  0  0  0  0  0  0  0
   -2.3680    0.4770    1.0480 C   0  0  0  0  0  0  0  0  0  0  0  0
   -2.8620   -0.3370    0.1320 N   0  0  0  0  0  0  0  0  0  0  0  0
   -2.1730   -0.8780   -1.0380 C   0  0  2  0  0  0  0  0  0  0  0  0
   -0.8650   -0.8210   -0.7940 O   0  0  0  0  0  0  0  0  0  0  0  0
   -0.2040   -0.0400   -1.7720 C   0  0  2  0  0  0  0  0  0  0  0  0
    0.7630    0.7900   -0.9640 C   0  0  0  0  0  0  0  0  0  0  0  0
    1.9570    0.7440   -1.7070 O   0  0  0  0  0  0  0  0  0  0  0  0
    3.1060    0.2310   -0.5710 P   0  0  1  0  0  0  0  0  0  0  0  0
    2.3180   -0.7230    0.3870 O   0  0  0  0  0  0  0  0  0  0  0  0
    4.0960   -0.8680   -1.4510 O   0  0  0  0  0  0  0  0  0  0  0  0
    3.8690    1.3910    0.2420 O   0  0  0  0  0  0  0  0  0  0  0  0
    4.6140    0.7640    1.6570 P   0  0  2  0  0  0  0  0  0  0  0  0
    4.2010   -0.6740    1.9040 O   0  0  0  0  0  0  0  0  0  0  0  0
    4.1410    1.7280    2.9480 O   0  0  0  0  0  0  0  0  0  0  0  0
    6.2750    0.9030    1.4560 O   0  0  0  0  0  0  0  0  0  0  0  0
    6.9710   -0.4690    0.7760 P   0  0  2  0  0  0  0  0  0  0  0  0
    7.0440   -0.3860   -0.7300 O   0  0  0  0  0  0  0  0  0  0  0  0
    6.0770   -1.8170    1.1970 O   0  0  0  0  0  0  0  0  0  0  0  0
    8.5730   -0.5670    1.3490 O   0  0  0  0  0  0  0  0  0  0  0  0
   -1.1880    0.7030   -2.5240 C   0  0  1  0  0  0  0  0  0  0  0  0
   -0.8580    0.5830   -3.9050 O   0  0  0  0  0  0  0  0  0  0  0  0
   -2.4790   -0.0620   -2.2570 C   0  0  1  0  0  0  0  0  0  0  0  0
   -2.7230   -0.8740   -3.3650 O   0  0  0  0  0  0  0  0  0  0  0  0
  1  2  1  0
  2  3  2  0
  2  7  1  0
  3  4  1  0
  4  5  2  0
  5  6  1  0
  6  7  2  0
  6 10  1  0
  7  8  1  0
  8  9  2  0
  9 10  1  0
 11 10  1  1
 11 12  1  0
 11 30  1  0
 12 13  1  0
 13 14  1  1
 13 28  1  0
 14 15  1  0
 15 16  1  0
 16 17  2  0
 16 18  1  6
 16 19  1  0
 19 20  1  0
 20 21  2  0
 20 22  1  1
 20 23  1  0
 23 24  1  0
 24 25  2  0
 24 26  1  6
 24 27  1  0
 28 29  1  6
 28 30  1  0
 30 31  1  6
M  END
