
     RDKit          3D

 30 31  0  0  0  0  0  0  0  0999 V2000
   -7.3600   -0.5530    1.1510 O   0  0  0  0  0  0  0  0  0  0  0  0
   -6.2740    0.0610    1.3460 C   0  0  0  0  0  0  0  0  0  0  0  0
   -5.8360    0.2590    2.6480 O   0  0  0  0  0  0  0  0  0  0  0  0
   -5.5240    0.5380    0.2100 N   0  0  0  0  0  0  0  0  0  0  0  0
   -5.9840    0.3280   -1.1070 C   0  0  0  0  0  0  0  0  0  0  0  0
   -7.0970   -0.2860   -1.2450 O   0  0  0  0  0  0  0  0  0  0  0  0
   -5.2680    0.7710   -2.3200 C   0  0  0  0  0  0  0  0  0  0  0  0
   -4.0130    1.2870   -1.9440 O   0  0  0  0  0  0  0  0  0  0  0  0
   -3.0410    0.4970   -1.3470 C   0  0  0  0  0  0  0  0  0  0  0  0
   -3.3360   -0.7220   -1.1610 O   0  0  0  0  0  0  0  0  0  0  0  0
   -1.7760    0.9900   -0.9520 N   0  0  0  0  0  0  0  0  0  0  0  0
   -0.8060    0.0800   -0.3250 C   0  0  2  0  0  0  0  0  0  0  0  0
   -1.6030   -0.4390    1.2970 P   0  0  0  0  0  0  0  0  0  0  0  0
   -1.6530    0.9600    2.3280 O   0  0  0  0  0  0  0  0  0  0  0  0
   -0.6850   -1.6510    2.0880 O   0  0  0  0  0  0  0  0  0  0  0  0
    0.4640    0.7820    0.0190 C   0  0  0  0  0  0  0  0  0  0  0  0
    1.5500   -0.1890   -0.0280 N   0  0  0  0  0  0  0  0  0  0  0  0
    2.4570   -0.3830    1.0960 C   0  0  0  0  0  0  0  0  0  0  0  0
    3.8540   -0.5100    0.4730 C   0  0  1  0  0  0  0  0  0  0  0  0
    4.6960   -0.9910    1.4680 O   0  0  0  0  0  0  0  0  0  0  0  0
    5.8720    0.2300    1.8340 P   0  0  0  0  0  0  0  0  0  0  0  0
    5.1680    1.7900    1.4530 O   0  0  0  0  0  0  0  0  0  0  0  0
    7.5490   -0.0480    0.4010 P   0  0  0  0  0  0  0  0  0  0  0  0
    6.9650    0.1580   -1.2250 O   0  0  0  0  0  0  0  0  0  0  0  0
    8.8220    1.0830    0.7510 O   0  0  0  0  0  0  0  0  0  0  0  0
    3.8010   -1.4150   -0.6040 O   0  0  0  0  0  0  0  0  0  0  0  0
    2.7670   -1.5130   -1.4890 N   0  0  0  0  0  0  0  0  0  0  0  0
    1.6640   -0.9300   -1.2370 C   0  0  0  0  0  0  0  0  0  0  0  0
    0.4590   -0.9520   -2.1090 C   0  0  0  0  0  0  0  0  0  0  0  0
   -0.6800   -1.0490   -1.1880 N   0  0  0  0  0  0  0  0  0  0  0  0
  1  2  2  0
  2  3  1  0
  2  4  1  0
  4  5  1  0
  5  6  2  0
  5  7  1  0
  7  8  1  0
  8  9  1  0
  9 10  2  0
  9 11  1  0
 12 11  1  6
 12 13  1  0
 12 16  1  0
 12 30  1  0
 13 14  1  0
 13 15  1  0
 16 17  1  0
 17 18  1  0
 17 28  1  0
 18 19  1  0
 19 20  1  1
 19 26  1  0
 20 21  1  0
 21 22  1  0
 21 23  1  0
 23 24  1  0
 23 25  1  0
 26 27  1  0
 27 28  2  0
 28 29  1  0
 29 30  1  0
M  END
