
     RDKit          3D

 30 31  0  0  0  0  0  0  0  0999 V2000
   -2.2620    2.7130    0.0760 N   0  0  0  0  0  0  0  0  0  0  0  0
   -2.6090    1.6640   -0.6190 C   0  0  0  0  0  0  0  0  0  0  0  0
   -3.1620    1.9330   -1.9000 N   0  0  0  0  0  0  0  0  0  0  0  0
   -3.6730    3.5740   -2.3610 P   0  0  0  0  0  0  0  0  0  0  0  0
   -4.8540    4.2030   -1.2390 O   0  0  0  0  0  0  0  0  0  0  0  0
   -2.3240    4.6760   -2.4730 O   0  0  0  0  0  0  0  0  0  0  0  0
   -2.4340    0.3480   -0.1080 N   0  0  0  0  0  0  0  0  0  0  0  0
   -1.1350   -0.0290    0.4040 C   0  0  0  0  0  0  0  0  0  0  0  0
   -0.1160   -0.1210   -0.6440 C   0  0  0  0  0  0  0  0  0  0  0  0
   -0.4100    0.1060   -1.8410 O   0  0  0  0  0  0  0  0  0  0  0  0
    1.2200   -0.4690   -0.3340 N   0  0  0  0  0  0  0  0  0  0  0  0
    1.6930   -0.7480    1.0100 C   0  0  0  0  0  0  0  0  0  0  0  0
    3.1650   -0.2710    0.8700 C   0  0  1  0  0  0  0  0  0  0  0  0
    3.0800    1.0980    0.7360 O   0  0  0  0  0  0  0  0  0  0  0  0
    3.9540   -0.7060    2.0630 C   0  0  0  0  0  0  0  0  0  0  0  0
    5.2890   -0.1760    1.9780 N   0  0  0  0  0  0  0  0  0  0  0  0
    3.4910   -0.9810   -0.4110 C   0  0  2  0  0  0  0  0  0  0  0  0
    4.7060   -0.7150   -0.9590 O   0  0  0  0  0  0  0  0  0  0  0  0
    4.6760   -0.2540   -2.2640 C   0  0  0  0  0  0  0  0  0  0  0  0
    3.8670    0.9180   -2.3850 O   0  0  0  0  0  0  0  0  0  0  0  0
    2.5780    0.7570   -1.8380 C   0  0  0  0  0  0  0  0  0  0  0  0
    1.7300    1.6780   -1.8260 O   0  0  0  0  0  0  0  0  0  0  0  0
    2.3210   -0.6020   -1.2780 C   0  0  2  0  0  0  0  0  0  0  0  0
   -3.7800   -0.8110   -0.0980 P   0  0  0  0  0  0  0  0  0  0  0  0
   -4.4870   -1.0310    1.4660 O   0  0  0  0  0  0  0  0  0  0  0  0
   -3.7090   -0.4560    2.3720 O   0  0  0  0  0  0  0  0  0  0  0  0
   -3.2550   -2.3130   -0.7950 O   0  0  0  0  0  0  0  0  0  0  0  0
   -4.1930   -3.6580   -0.2920 P   0  0  0  0  0  0  0  0  0  0  0  0
   -5.2810   -4.2290   -1.5220 O   0  0  0  0  0  0  0  0  0  0  0  0
   -5.0090   -3.4080    1.2110 O   0  0  0  0  0  0  0  0  0  0  0  0
  1  2  2  0
  2  3  1  0
  2  7  1  0
  3  4  1  0
  4  5  1  0
  4  6  1  0
  7  8  1  0
  7 24  1  0
  8  9  1  0
  9 10  2  0
  9 11  1  0
 11 12  1  0
 23 11  1  1
 12 13  1  0
 13 14  1  6
 13 15  1  0
 13 17  1  0
 15 16  1  0
 17 18  1  6
 17 23  1  0
 18 19  1  0
 19 20  1  0
 20 21  1  0
 21 22  2  0
 21 23  1  0
 24 25  1  0
 24 27  1  0
 25 26  1  0
 27 28  1  0
 28 29  1  0
 28 30  1  0
M  END
