
     RDKit          3D

 25 27  0  0  0  0  0  0  0  0999 V2000
    4.8870   -1.0770   -2.0150 C   0  0  0  0  0  0  0  0  0  0  0  0
    3.8580   -0.3170   -1.4630 O   0  0  0  0  0  0  0  0  0  0  0  0
    4.0640    0.6420   -0.4280 C   0  0  0  0  0  0  0  0  0  0  0  0
    3.1420    0.6410    0.6810 C   0  0  0  0  0  0  0  0  0  0  0  0
    2.1260   -0.2590    0.6960 C   0  0  0  0  0  0  0  0  0  0  0  0
    1.1190   -0.4030    1.7160 C   0  0  0  0  0  0  0  0  0  0  0  0
    0.2610   -1.3490    1.3310 C   0  0  0  0  0  0  0  0  0  0  0  0
   -0.9320   -1.7990    2.1130 C   0  0  0  0  0  0  0  0  0  0  0  0
   -2.0880   -1.6020    1.3990 O   0  0  0  0  0  0  0  0  0  0  0  0
   -2.7000   -0.4880    0.9020 C   0  0  0  0  0  0  0  0  0  0  0  0
   -2.2150    0.7760    1.0560 C   0  0  0  0  0  0  0  0  0  0  0  0
   -2.9190    1.8420    0.5090 C   0  0  0  0  0  0  0  0  0  0  0  0
   -4.0920    1.6160   -0.1770 C   0  0  0  0  0  0  0  0  0  0  0  0
   -4.8370    2.6560   -0.7460 O   0  0  0  0  0  0  0  0  0  0  0  0
   -4.5740    0.3380   -0.3270 C   0  0  0  0  0  0  0  0  0  0  0  0
   -5.7660    0.1100   -1.0250 C   0  0  0  0  0  0  0  0  0  0  0  0
   -6.1800   -1.1880   -1.1310 C   0  0  0  0  0  0  0  0  0  0  0  0
   -5.5000   -2.2560   -0.6000 C   0  0  0  0  0  0  0  0  0  0  0  0
   -4.3560   -1.9970    0.0660 N   0  0  0  0  0  0  0  0  0  0  0  0
   -3.8980   -0.7290    0.2020 C   0  0  0  0  0  0  0  0  0  0  0  0
    0.6390   -1.8530    0.0960 O   0  0  0  0  0  0  0  0  0  0  0  0
    1.8490   -1.2720   -0.3350 C   0  0  0  0  0  0  0  0  0  0  0  0
    5.0650    1.4070   -0.6080 C   0  0  0  0  0  0  0  0  0  0  0  0
    5.6090    2.4910    0.1880 C   0  0  0  0  0  0  0  0  0  0  0  0
    4.7510    2.8180    1.6590 Cl  0  0  0  0  0  0  0  0  0  0  0  0
  1  2  1  0
  2  3  1  0
  3  4  1  0
  3 23  2  3
  4  5  2  3
  5  6  1  0
  5 22  1  0
  6  7  2  0
  7  8  1  0
  7 21  1  0
  8  9  1  0
  9 10  1  0
 10 11  2  0
 10 20  1  0
 11 12  1  0
 12 13  2  0
 13 14  1  0
 13 15  1  0
 15 16  2  0
 15 20  1  0
 16 17  1  0
 17 18  2  0
 18 19  1  0
 19 20  2  0
 21 22  1  0
 23 24  1  0
 24 25  1  0
M  END
