
     RDKit          3D

 19 19  0  0  0  0  0  0  0  0999 V2000
   -3.9720    1.5000    1.3850 C   0  0  0  0  0  0  0  0  0  0  0  0
   -3.6990    0.8580    0.1840 O   0  0  0  0  0  0  0  0  0  0  0  0
   -2.7160    1.4400   -0.5720 C   0  0  0  0  0  0  0  0  0  0  0  0
   -1.3310    1.4180   -0.0010 C   0  0  0  0  0  0  0  0  0  0  0  0
   -0.8310   -0.0360    0.1620 C   0  0  2  0  0  0  0  0  0  0  0  0
    0.5330   -0.0600    0.7490 C   0  0  0  0  0  0  0  0  0  0  0  0
    1.6680    0.5920    0.1050 C   0  0  2  0  0  0  0  0  0  0  0  0
    1.5240    1.9610   -0.1170 O   0  0  0  0  0  0  0  0  0  0  0  0
    2.3700   -0.1140   -1.0190 C   0  0  2  0  0  0  0  0  0  0  0  0
    2.5260   -1.4580   -0.6830 O   0  0  0  0  0  0  0  0  0  0  0  0
    3.8000    0.4470   -1.1020 C   0  0  0  0  0  0  0  0  0  0  0  0
    4.4460    0.3040    0.1240 O   0  0  0  0  0  0  0  0  0  0  0  0
    5.7380    0.8120    0.0440 C   0  0  0  0  0  0  0  0  0  0  0  0
   -0.9370   -0.7700   -1.1090 C   0  0  0  0  0  0  0  0  0  0  0  0
   -1.9390   -1.8640   -1.2330 C   0  0  2  0  0  0  0  0  0  0  0  0
   -3.0110   -1.5470   -2.0600 O   0  0  0  0  0  0  0  0  0  0  0  0
   -2.4780   -2.3830    0.0650 C   0  0  0  0  0  0  0  0  0  0  0  0
   -1.6610   -1.8890    1.2470 C   0  0  0  0  0  0  0  0  0  0  0  0
   -1.6760   -0.5340    1.1700 O   0  0  0  0  0  0  0  0  0  0  0  0
  1  2  1  0
  2  3  1  0
  3  4  1  0
  5  4  1  6
  5  6  1  0
  5 14  1  0
  5 19  1  0
  6  7  1  0
  7  8  1  6
  7  9  1  0
  9 10  1  1
  9 11  1  0
 11 12  1  0
 12 13  1  0
 14 15  1  0
 15 16  1  6
 15 17  1  0
 17 18  1  0
 18 19  1  0
M  END
