
     RDKit          3D

 19 19  0  0  0  0  0  0  0  0999 V2000
   -3.4220    2.2830   -0.8650 C   0  0  0  0  0  0  0  0  0  0  0  0
   -2.9370    1.0220   -0.2190 C   0  0  2  0  0  0  0  0  0  0  0  0
   -2.0190    0.3060   -1.1740 C   0  0  0  0  0  0  0  0  0  0  0  0
   -1.4880   -0.9840   -0.6100 C   0  0  1  0  0  0  0  0  0  0  0  0
   -0.4850   -0.6730    0.2950 O   0  0  0  0  0  0  0  0  0  0  0  0
    0.7550   -1.1820   -0.0870 C   0  0  0  0  0  0  0  0  0  0  0  0
    1.7320   -0.7470    1.0150 C   0  0  1  0  0  0  0  0  0  0  0  0
    1.1620   -1.3660    2.2980 C   0  0  0  0  0  0  0  0  0  0  0  0
    1.1300   -2.7620    2.1890 O   0  0  0  0  0  0  0  0  0  0  0  0
    3.0060   -1.1810    0.7710 O   0  0  0  0  0  0  0  0  0  0  0  0
    3.8600   -0.0910    0.6960 C   0  0  0  0  0  0  0  0  0  0  0  0
    3.5200    0.8760   -0.4130 C   0  0  2  0  0  0  0  0  0  0  0  0
    3.5710    0.2460   -1.6590 O   0  0  0  0  0  0  0  0  0  0  0  0
    4.6080    1.9590   -0.4030 C   0  0  0  0  0  0  0  0  0  0  0  0
    4.3670    2.8780   -1.4230 O   0  0  0  0  0  0  0  0  0  0  0  0
   -2.5830   -1.8170   -0.0030 C   0  0  0  0  0  0  0  0  0  0  0  0
   -3.4480   -1.0400    0.9610 C   0  0  0  0  0  0  0  0  0  0  0  0
   -4.0900    0.0870    0.1380 C   0  0  2  0  0  0  0  0  0  0  0  0
   -4.5640   -0.5230   -1.0250 O   0  0  0  0  0  0  0  0  0  0  0  0
  2  1  1  6
  2  3  1  0
  2 18  1  0
  3  4  1  0
  4  5  1  1
  4 16  1  0
  5  6  1  0
  7  6  1  6
  7  8  1  0
  7 10  1  0
  8  9  1  0
 10 11  1  0
 11 12  1  0
 12 13  1  6
 12 14  1  0
 14 15  1  0
 16 17  1  0
 17 18  1  0
 18 19  1  6
M  END
