
     RDKit          3D

 37 39  0  0  0  0  0  0  0  0999 V2000
    6.1120   -0.1020   -3.7200 C   0  0  0  0  0  0  0  0  0  0  0  0
    4.8900    0.5370   -3.1560 C   0  0  0  0  0  0  0  0  0  0  0  0
    4.9950    1.1070   -1.7750 C   0  0  0  0  0  0  0  0  0  0  0  0
    5.3160    0.1730   -0.6900 C   0  0  0  0  0  0  0  0  0  0  0  0
    6.6930   -0.4620   -0.8160 C   0  0  0  0  0  0  0  0  0  0  0  0
    4.6660   -0.1580    0.3730 C   0  0  0  0  0  0  0  0  0  0  0  0
    5.1460   -1.1630    1.4130 C   0  0  0  0  0  0  0  0  0  0  0  0
    4.7320   -0.4390    2.5850 O   0  0  0  0  0  0  0  0  0  0  0  0
    3.4740    0.1060    2.3090 C   0  0  0  0  0  0  0  0  0  0  0  0
    2.4880    0.4010    3.3300 C   0  0  0  0  0  0  0  0  0  0  0  0
    1.3650    0.8930    3.1620 O   0  0  0  0  0  0  0  0  0  0  0  0
    2.7970    0.1130    4.6850 O   0  0  0  0  0  0  0  0  0  0  0  0
    1.8550    0.3910    5.7000 C   0  0  0  0  0  0  0  0  0  0  0  0
    3.3990    0.2810    0.9950 C   0  0  0  0  0  0  0  0  0  0  0  0
    2.2520    0.7790    0.2410 C   0  0  0  0  0  0  0  0  0  0  0  0
    1.7590   -0.1380   -0.8550 C   0  0  0  0  0  0  0  0  0  0  0  0
    1.2900   -1.4750   -0.4140 C   0  0  0  0  0  0  0  0  0  0  0  0
    0.0520   -1.4340    0.4990 C   0  0  2  0  0  0  0  0  0  0  0  0
   -0.1880   -2.8020    0.7840 O   0  0  0  0  0  0  0  0  0  0  0  0
   -1.0730   -0.8040   -0.1860 C   0  0  0  0  0  0  0  0  0  0  0  0
   -1.9400    0.1200    0.3200 C   0  0  0  0  0  0  0  0  0  0  0  0
   -1.8760    0.6340    1.6550 C   0  0  0  0  0  0  0  0  0  0  0  0
   -2.4180    1.4700    2.4310 C   0  0  0  0  0  0  0  0  0  0  0  0
   -3.4490    2.4520    2.4680 C   0  0  0  0  0  0  0  0  0  0  0  0
   -3.6040    3.0430    3.6420 O   0  0  0  0  0  0  0  0  0  0  0  0
   -4.3150    2.9180    1.5340 O   0  0  0  0  0  0  0  0  0  0  0  0
   -5.2820    3.9220    1.7660 C   0  0  0  0  0  0  0  0  0  0  0  0
   -6.2640    3.5570    2.8310 C   0  0  0  0  0  0  0  0  0  0  0  0
   -2.9000    0.3750   -0.7590 C   0  0  2  0  0  0  0  0  0  0  0  0
   -4.3220    0.6110   -0.4020 C   0  0  0  0  0  0  0  0  0  0  0  0
   -2.8120   -0.9130   -1.6060 C   0  0  1  0  0  0  0  0  0  0  0  0
   -3.4440   -2.0160   -0.8240 C   0  0  0  0  0  0  0  0  0  0  0  0
   -3.4820   -3.3120   -1.6110 C   0  0  0  0  0  0  0  0  0  0  0  0
   -3.9920   -3.1490   -3.0030 C   0  0  0  0  0  0  0  0  0  0  0  0
   -4.3450   -1.7500   -3.3880 C   0  0  0  0  0  0  0  0  0  0  0  0
   -3.3100   -0.7290   -2.9930 C   0  0  0  0  0  0  0  0  0  0  0  0
   -1.4010   -1.0960   -1.5110 O   0  0  0  0  0  0  0  0  0  0  0  0
  1  2  1  0
  2  3  1  0
  3  4  1  0
  4  5  1  0
  4  6  2  3
  6  7  1  0
  6 14  1  0
  7  8  1  0
  8  9  1  0
  9 10  1  0
  9 14  2  0
 10 11  2  0
 10 12  1  0
 12 13  1  0
 14 15  1  0
 15 16  1  0
 16 17  1  0
 17 18  1  0
 18 19  1  6
 18 20  1  0
 20 21  2  0
 20 37  1  0
 21 22  1  0
 21 29  1  0
 22 23  2  3
 23 24  1  0
 24 25  2  0
 24 26  1  0
 26 27  1  0
 27 28  1  0
 29 30  1  1
 29 31  1  0
 31 32  1  1
 31 36  1  0
 31 37  1  0
 32 33  1  0
 33 34  1  0
 34 35  1  0
 35 36  1  0
M  END
