
     RDKit          3D

 37 41  0  0  0  0  0  0  0  0999 V2000
   -2.1840   -4.4260    2.8520 N   0  0  0  0  0  0  0  0  0  0  0  0
   -2.7470   -5.2750    1.8790 C   0  0  0  0  0  0  0  0  0  0  0  0
   -2.8080   -6.5130    2.1580 O   0  0  0  0  0  0  0  0  0  0  0  0
   -3.2700   -4.8230    0.5670 C   0  0  0  0  0  0  0  0  0  0  0  0
   -3.0560   -3.4480    0.3890 O   0  0  0  0  0  0  0  0  0  0  0  0
   -1.8000   -2.8790    0.3390 C   0  0  0  0  0  0  0  0  0  0  0  0
   -0.6710   -3.6510    0.4440 C   0  0  0  0  0  0  0  0  0  0  0  0
    0.5550   -2.9970    0.3810 C   0  0  0  0  0  0  0  0  0  0  0  0
    0.6830   -1.6350    0.2210 C   0  0  0  0  0  0  0  0  0  0  0  0
    1.9250   -1.0210    0.1650 O   0  0  0  0  0  0  0  0  0  0  0  0
    1.9700    0.3790   -0.0020 C   0  0  0  0  0  0  0  0  0  0  0  0
    3.3870    0.8710   -0.0360 C   0  0  0  0  0  0  0  0  0  0  0  0
    3.5470    2.0980   -0.1840 O   0  0  0  0  0  0  0  0  0  0  0  0
    4.4650   -0.0180    0.0930 N   0  0  0  0  0  0  0  0  0  0  0  0
    5.8220    0.3350    0.0800 C   0  0  0  0  0  0  0  0  0  0  0  0
    6.7710   -0.7020    0.0560 C   0  0  0  0  0  0  0  0  0  0  0  0
    8.1130   -0.4220    0.0520 C   0  0  0  0  0  0  0  0  0  0  0  0
    8.5900    0.8800    0.0720 C   0  0  0  0  0  0  0  0  0  0  0  0
    9.8220    1.4070    0.0730 N   0  0  0  0  0  0  0  0  0  0  0  0
    9.7140    2.7400    0.0970 C   0  0  0  0  0  0  0  0  0  0  0  0
    8.3530    3.0580    0.1110 C   0  0  0  0  0  0  0  0  0  0  0  0
    7.6450    1.8780    0.0950 C   0  0  0  0  0  0  0  0  0  0  0  0
    6.2670    1.6180    0.0990 C   0  0  0  0  0  0  0  0  0  0  0  0
   -0.4930   -0.9070    0.1200 C   0  0  0  0  0  0  0  0  0  0  0  0
   -1.7310   -1.4970    0.1750 C   0  0  0  0  0  0  0  0  0  0  0  0
   -3.0000   -0.7520    0.0750 C   0  0  1  0  0  0  0  0  0  0  0  0
   -2.7800    0.7170   -0.1760 C   0  0  0  0  0  0  0  0  0  0  0  0
   -4.0590    1.4100   -0.1210 N   0  0  0  0  0  0  0  0  0  0  0  0
   -3.9900    2.6240   -0.9120 C   0  0  0  0  0  0  0  0  0  0  0  0
   -5.2960    3.3210   -0.7860 C   0  0  0  0  0  0  0  0  0  0  0  0
   -5.7210    4.3640   -1.5890 C   0  0  0  0  0  0  0  0  0  0  0  0
   -6.9880    4.7310   -1.1450 C   0  0  0  0  0  0  0  0  0  0  0  0
   -7.2570    3.8940   -0.1040 C   0  0  0  0  0  0  0  0  0  0  0  0
   -6.2530    3.0820    0.0820 O   0  0  0  0  0  0  0  0  0  0  0  0
   -5.1240    0.5730   -0.6540 C   0  0  0  0  0  0  0  0  0  0  0  0
   -4.5140   -0.4360   -1.6260 C   0  0  0  0  0  0  0  0  0  0  0  0
   -3.8090   -1.3560   -0.8530 O   0  0  0  0  0  0  0  0  0  0  0  0
  1  2  1  0
  2  3  2  0
  2  4  1  0
  4  5  1  0
  5  6  1  0
  6  7  2  0
  6 25  1  0
  7  8  1  0
  8  9  2  0
  9 10  1  0
  9 24  1  0
 10 11  1  0
 11 12  1  0
 12 13  2  0
 12 14  1  0
 14 15  1  0
 15 16  2  0
 15 23  1  0
 16 17  1  0
 17 18  2  0
 18 19  1  0
 18 22  1  0
 19 20  1  0
 20 21  2  0
 21 22  1  0
 22 23  2  0
 24 25  2  0
 26 25  1  6
 26 27  1  0
 26 37  1  0
 27 28  1  0
 28 29  1  0
 28 35  1  0
 29 30  1  0
 30 31  2  0
 30 34  1  0
 31 32  1  0
 32 33  2  0
 33 34  1  0
 35 36  1  0
 36 37  1  0
M  END
