
     RDKit          3D

 37 38  0  0  0  0  0  0  0  0999 V2000
    6.0290    4.6190    0.8510 C   0  0  0  0  0  0  0  0  0  0  0  0
    5.9570    3.3810    1.0450 C   0  0  0  0  0  0  0  0  0  0  0  0
    5.8840    2.0130    1.2670 C   0  0  1  0  0  0  0  0  0  0  0  0
    6.8020    1.7460    2.3190 O   0  0  0  0  0  0  0  0  0  0  0  0
    7.8400    0.9990    1.8840 C   0  0  0  0  0  0  0  0  0  0  0  0
    4.5770    1.4240    1.6070 C   0  0  0  0  0  0  0  0  0  0  0  0
    3.4300    2.1630    1.8860 C   0  0  0  0  0  0  0  0  0  0  0  0
    2.2520    1.3800    2.2040 C   0  0  0  0  0  0  0  0  0  0  0  0
    2.2240    0.0890    2.2370 C   0  0  0  0  0  0  0  0  0  0  0  0
    1.0250   -0.7700    2.5140 C   0  0  0  0  0  0  0  0  0  0  0  0
    1.1280   -1.9770    2.6590 O   0  0  0  0  0  0  0  0  0  0  0  0
   -0.2970   -0.0610    2.5990 C   0  0  0  0  0  0  0  0  0  0  0  0
   -0.8560   -0.0190    1.3670 O   0  0  0  0  0  0  0  0  0  0  0  0
   -1.3000   -0.9930    0.4920 C   0  0  0  0  0  0  0  0  0  0  0  0
   -1.2380   -2.1820    0.8770 O   0  0  0  0  0  0  0  0  0  0  0  0
   -1.8190   -0.6500   -0.8060 C   0  0  0  0  0  0  0  0  0  0  0  0
   -1.8240    0.5650   -1.2580 C   0  0  0  0  0  0  0  0  0  0  0  0
   -1.3400    1.7860   -0.6510 C   0  0  1  0  0  0  0  0  0  0  0  0
   -0.6050    2.5540   -1.8260 C   0  0  0  0  0  0  0  0  0  0  0  0
   -2.4330    2.6960   -0.2100 C   0  0  0  0  0  0  0  0  0  0  0  0
   -3.6270    2.4290   -0.2960 O   0  0  0  0  0  0  0  0  0  0  0  0
   -2.0050    3.9470    0.3540 C   0  0  0  0  0  0  0  0  0  0  0  0
   -2.7300    4.8670    0.8700 C   0  0  0  0  0  0  0  0  0  0  0  0
   -2.0380    6.0930    1.3940 C   0  0  0  0  0  0  0  0  0  0  0  0
   -2.2770    6.1560    2.8810 C   0  0  0  0  0  0  0  0  0  0  0  0
   -2.2270   -1.7850   -1.6770 C   0  0  0  0  0  0  0  0  0  0  0  0
   -2.3060   -1.6950   -3.0440 C   0  0  0  0  0  0  0  0  0  0  0  0
   -2.7040   -2.9060   -3.5350 C   0  0  0  0  0  0  0  0  0  0  0  0
   -2.8600   -3.7080   -2.4290 C   0  0  0  0  0  0  0  0  0  0  0  0
   -3.2900   -5.1360   -2.4400 C   0  0  1  0  0  0  0  0  0  0  0  0
   -4.1060   -5.5270   -3.6420 C   0  0  0  0  0  0  0  0  0  0  0  0
   -2.1210   -6.0760   -2.2410 C   0  0  2  0  0  0  0  0  0  0  0  0
   -2.6720   -7.4830   -2.3100 C   0  0  0  0  0  0  0  0  0  0  0  0
   -1.7180   -5.8510   -0.8840 O   0  0  0  0  0  0  0  0  0  0  0  0
   -2.5690   -3.0060   -1.3480 O   0  0  0  0  0  0  0  0  0  0  0  0
    3.3800   -0.6930    1.9550 C   0  0  0  0  0  0  0  0  0  0  0  0
    4.5130    0.0590    1.6490 C   0  0  0  0  0  0  0  0  0  0  0  0
  1  2  3  0
  3  2  1  1
  3  4  1  0
  3  6  1  0
  4  5  1  0
  6  7  2  0
  6 37  1  0
  7  8  1  0
  8  9  2  0
  9 10  1  0
  9 36  1  0
 10 11  2  0
 10 12  1  0
 12 13  1  0
 13 14  1  0
 14 15  2  0
 14 16  1  0
 16 17  2  3
 16 26  1  0
 17 18  1  0
 18 19  1  6
 18 20  1  0
 20 21  2  0
 20 22  1  0
 22 23  2  3
 23 24  1  0
 24 25  1  0
 26 27  2  0
 26 35  1  0
 27 28  1  0
 28 29  2  0
 29 30  1  0
 29 35  1  0
 30 31  1  6
 30 32  1  0
 32 33  1  1
 32 34  1  0
 36 37  2  0
M  END
