
     RDKit          3D

 37 38  0  0  0  0  0  0  0  0999 V2000
   -0.3530    3.1840    0.5430 C   0  0  0  0  0  0  0  0  0  0  0  0
   -0.0840    1.7270    0.5750 C   0  0  0  0  0  0  0  0  0  0  0  0
    1.0870    1.3480    1.1770 C   0  0  0  0  0  0  0  0  0  0  0  0
    1.4580    0.0520    1.2590 C   0  0  0  0  0  0  0  0  0  0  0  0
    2.6310   -0.3820    1.8570 O   0  0  0  0  0  0  0  0  0  0  0  0
    3.5390    0.5000    2.4260 C   0  0  0  0  0  0  0  0  0  0  0  0
    4.0750    1.4260    1.3780 C   0  0  0  0  0  0  0  0  0  0  0  0
    4.8940    2.3460    1.7410 O   0  0  0  0  0  0  0  0  0  0  0  0
    3.7510    1.3530    0.0640 O   0  0  0  0  0  0  0  0  0  0  0  0
    4.1730    2.1200   -0.9840 C   0  0  0  0  0  0  0  0  0  0  0  0
    5.6330    2.0590   -1.3210 C   0  0  0  0  0  0  0  0  0  0  0  0
    6.4070    2.4780   -0.2460 O   0  0  0  0  0  0  0  0  0  0  0  0
    7.7790    2.4960   -0.3500 C   0  0  0  0  0  0  0  0  0  0  0  0
    8.3940    2.1440   -1.3920 O   0  0  0  0  0  0  0  0  0  0  0  0
    0.5930   -0.9150    0.7040 C   0  0  0  0  0  0  0  0  0  0  0  0
    1.0130   -2.2960    0.7950 C   0  0  0  0  0  0  0  0  0  0  0  0
    1.9830   -2.8390   -0.1770 C   0  0  1  0  0  0  0  0  0  0  0  0
    3.3290   -2.1860   -0.2670 C   0  0  0  0  0  0  0  0  0  0  0  0
    2.2920   -4.1610    0.3250 O   0  0  0  0  0  0  0  0  0  0  0  0
    3.0940   -4.7260   -0.6700 C   0  0  0  0  0  0  0  0  0  0  0  0
    2.6940   -4.0910   -1.9530 C   0  0  0  0  0  0  0  0  0  0  0  0
    3.2000   -4.2560   -3.0150 O   0  0  0  0  0  0  0  0  0  0  0  0
    1.5110   -3.2180   -1.5340 C   0  0  1  0  0  0  0  0  0  0  0  0
    0.3280   -4.1160   -1.6080 C   0  0  0  0  0  0  0  0  0  0  0  0
    1.4410   -2.0990   -2.5280 C   0  0  0  0  0  0  0  0  0  0  0  0
   -0.6030   -0.5100    0.0950 C   0  0  0  0  0  0  0  0  0  0  0  0
   -1.5370   -1.5310   -0.3640 C   0  0  0  0  0  0  0  0  0  0  0  0
   -0.9870    0.8020    0.0010 C   0  0  0  0  0  0  0  0  0  0  0  0
   -2.2040    1.3070   -0.5780 C   0  0  1  0  0  0  0  0  0  0  0  0
   -2.8170    0.4860   -1.6750 C   0  0  0  0  0  0  0  0  0  0  0  0
   -3.1860    1.9930    0.3020 C   0  0  0  0  0  0  0  0  0  0  0  0
   -3.7990    1.3400    1.4500 C   0  0  2  0  0  0  0  0  0  0  0  0
   -2.9200    0.8010    2.5400 C   0  0  0  0  0  0  0  0  0  0  0  0
   -4.9660    0.4310    1.3000 C   0  0  0  0  0  0  0  0  0  0  0  0
   -6.2300    0.9640    0.7490 C   0  0  1  0  0  0  0  0  0  0  0  0
   -6.7900    2.1150    1.5670 C   0  0  0  0  0  0  0  0  0  0  0  0
   -6.3320    1.2720   -0.6890 C   0  0  0  0  0  0  0  0  0  0  0  0
  1  2  1  0
  2  3  2  0
  2 28  1  0
  3  4  1  0
  4  5  1  0
  4 15  2  0
  5  6  1  0
  6  7  1  0
  7  8  2  0
  7  9  1  0
  9 10  1  0
 10 11  1  0
 11 12  1  0
 12 13  1  0
 13 14  2  0
 15 16  1  0
 15 26  1  0
 16 17  1  0
 17 18  1  6
 17 19  1  0
 17 23  1  0
 19 20  1  0
 20 21  1  0
 21 22  2  0
 21 23  1  0
 23 24  1  1
 23 25  1  0
 26 27  1  0
 26 28  2  0
 28 29  1  0
 29 30  1  1
 29 31  1  0
 31 32  1  0
 32 33  1  6
 32 34  1  0
 34 35  1  0
 35 36  1  1
 35 37  1  0
M  END
