
     RDKit          3D

 37 41  0  0  0  0  0  0  0  0999 V2000
   -5.6120    3.7220   -2.2940 C   0  0  0  0  0  0  0  0  0  0  0  0
   -4.7290    2.5040   -2.2880 C   0  0  0  0  0  0  0  0  0  0  0  0
   -5.2220    1.4950   -1.2760 C   0  0  1  0  0  0  0  0  0  0  0  0
   -4.2880    0.2930   -1.3210 C   0  0  0  0  0  0  0  0  0  0  0  0
   -4.2840   -0.1050    0.1100 C   0  0  0  0  0  0  0  0  0  0  0  0
   -3.9430   -1.3050    0.6890 C   0  0  0  0  0  0  0  0  0  0  0  0
   -4.0250   -1.4370    2.0570 C   0  0  0  0  0  0  0  0  0  0  0  0
   -3.6910   -2.6330    2.7160 O   0  0  0  0  0  0  0  0  0  0  0  0
   -3.1400   -3.6700    1.9660 C   0  0  0  0  0  0  0  0  0  0  0  0
   -3.8240   -4.8710    1.8500 C   0  0  0  0  0  0  0  0  0  0  0  0
   -3.2860   -5.8990    1.1100 C   0  0  0  0  0  0  0  0  0  0  0  0
   -2.0680   -5.7380    0.4830 C   0  0  0  0  0  0  0  0  0  0  0  0
   -1.4530   -4.5700    0.6250 N   0  0  0  0  0  0  0  0  0  0  0  0
   -1.9350   -3.5420    1.3340 C   0  0  0  0  0  0  0  0  0  0  0  0
   -1.1860   -2.3470    1.4560 N   0  0  0  0  0  0  0  0  0  0  0  0
    0.0770   -2.1980    0.7780 C   0  0  0  0  0  0  0  0  0  0  0  0
    0.4910   -3.1460    0.0650 O   0  0  0  0  0  0  0  0  0  0  0  0
    0.8570   -0.9780    0.9120 C   0  0  0  0  0  0  0  0  0  0  0  0
    0.4790   -0.0160    1.6140 O   0  0  0  0  0  0  0  0  0  0  0  0
    2.1350   -0.8410    0.2120 N   0  0  0  0  0  0  0  0  0  0  0  0
    2.8410    0.3850    0.3940 C   0  0  0  0  0  0  0  0  0  0  0  0
    4.0950    0.5090   -0.3010 C   0  0  0  0  0  0  0  0  0  0  0  0
    4.7870    1.7180   -0.1170 C   0  0  0  0  0  0  0  0  0  0  0  0
    4.2660    2.7910    0.7360 C   0  0  0  0  0  0  0  0  0  0  0  0
    5.9900    1.9090   -0.7510 C   0  0  0  0  0  0  0  0  0  0  0  0
    6.5380    0.9520   -1.5610 C   0  0  0  0  0  0  0  0  0  0  0  0
    5.8780   -0.1820   -1.7280 N   0  0  0  0  0  0  0  0  0  0  0  0
    4.6690   -0.4090   -1.1080 C   0  0  0  0  0  0  0  0  0  0  0  0
    4.1890   -1.5500   -1.3870 O   0  0  0  0  0  0  0  0  0  0  0  0
    7.8400    1.3950   -2.1290 C   0  0  0  0  0  0  0  0  0  0  0  0
    7.9930    2.8270   -1.7460 C   0  0  0  0  0  0  0  0  0  0  0  0
    6.9260    3.0570   -0.7440 C   0  0  0  0  0  0  0  0  0  0  0  0
    6.8130    4.0620    0.0050 O   0  0  0  0  0  0  0  0  0  0  0  0
   -4.4460   -0.3700    2.8320 C   0  0  0  0  0  0  0  0  0  0  0  0
   -4.7890    0.8370    2.2490 C   0  0  0  0  0  0  0  0  0  0  0  0
   -4.7050    0.9650    0.8650 C   0  0  0  0  0  0  0  0  0  0  0  0
   -4.9680    2.0070    0.0100 O   0  0  0  0  0  0  0  0  0  0  0  0
  1  2  1  0
  3  2  1  6
  3  4  1  0
  3 37  1  0
  4  5  1  0
  5  6  2  0
  5 36  1  0
  6  7  1  0
  7  8  1  0
  7 34  2  0
  8  9  1  0
  9 10  2  0
  9 14  1  0
 10 11  1  0
 11 12  2  0
 12 13  1  0
 13 14  2  0
 14 15  1  0
 15 16  1  0
 16 17  2  0
 16 18  1  0
 18 19  2  0
 18 20  1  0
 20 21  1  0
 21 22  1  0
 22 23  2  0
 22 28  1  0
 23 24  1  0
 23 25  1  0
 25 26  2  0
 25 32  1  0
 26 27  1  0
 26 30  1  0
 27 28  1  0
 28 29  2  0
 30 31  1  0
 31 32  1  0
 32 33  2  0
 34 35  1  0
 35 36  2  0
 36 37  1  0
M  END
