
     RDKit          3D

 37 39  0  0  0  0  0  0  0  0999 V2000
    7.5080   -0.8530   -0.0210 C   0  0  0  0  0  0  0  0  0  0  0  0
    7.9440    0.3350   -0.4530 C   0  0  0  0  0  0  0  0  0  0  0  0
    9.3130    0.7930   -0.5120 C   0  0  0  0  0  0  0  0  0  0  0  0
    9.2920    2.0140   -0.9990 C   0  0  0  0  0  0  0  0  0  0  0  0
    7.9290    2.4270   -1.2850 C   0  0  0  0  0  0  0  0  0  0  0  0
    7.1250    1.4220   -0.9580 C   0  0  0  0  0  0  0  0  0  0  0  0
    5.7490    1.4270   -1.0830 O   0  0  0  0  0  0  0  0  0  0  0  0
    5.1180    0.8350   -2.2050 C   0  0  0  0  0  0  0  0  0  0  0  0
    3.6230    0.9790   -2.0930 C   0  0  0  0  0  0  0  0  0  0  0  0
    3.2320    0.3100   -0.8860 O   0  0  0  0  0  0  0  0  0  0  0  0
    1.9330    0.2400   -0.4640 C   0  0  0  0  0  0  0  0  0  0  0  0
    1.0300    0.7700   -1.1350 O   0  0  0  0  0  0  0  0  0  0  0  0
    1.5720   -0.4600    0.7890 C   0  0  2  0  0  0  0  0  0  0  0  0
    0.9950    0.5370    1.7600 C   0  0  0  0  0  0  0  0  0  0  0  0
    2.7330   -0.9700    1.3680 O   0  0  0  0  0  0  0  0  0  0  0  0
    0.6570   -1.6350    0.5410 C   0  0  2  0  0  0  0  0  0  0  0  0
   -0.6250   -1.2280   -0.1040 C   0  0  0  0  0  0  0  0  0  0  0  0
   -0.9720   -1.6670   -1.2140 O   0  0  0  0  0  0  0  0  0  0  0  0
   -1.4700   -0.3600    0.4930 O   0  0  0  0  0  0  0  0  0  0  0  0
   -2.7010    0.1500    0.0900 C   0  0  1  0  0  0  0  0  0  0  0  0
   -3.6480   -0.9680   -0.0610 C   0  0  0  0  0  0  0  0  0  0  0  0
   -3.9590   -1.8440    1.0800 C   0  0  1  0  0  0  0  0  0  0  0  0
   -4.5840   -1.2430    2.2880 C   0  0  0  0  0  0  0  0  0  0  0  0
   -4.9630   -2.8970    0.5670 C   0  0  0  0  0  0  0  0  0  0  0  0
   -3.0230    1.2320    1.0910 C   0  0  0  0  0  0  0  0  0  0  0  0
   -3.9710    2.2780    0.6370 C   0  0  2  0  0  0  0  0  0  0  0  0
   -4.9730    2.5180    1.7740 C   0  0  0  0  0  0  0  0  0  0  0  0
   -4.7440    2.0110   -0.5960 C   0  0  0  0  0  0  0  0  0  0  0  0
   -3.9320    1.3970   -1.6760 C   0  0  1  0  0  0  0  0  0  0  0  0
   -3.7430    2.3770   -2.8430 C   0  0  0  0  0  0  0  0  0  0  0  0
   -3.0470    3.6310   -2.4150 C   0  0  0  0  0  0  0  0  0  0  0  0
   -2.6160    0.8190   -1.2870 C   0  0  0  0  0  0  0  0  0  0  0  0
    0.4440   -2.3490    1.8330 C   0  0  0  0  0  0  0  0  0  0  0  0
   -0.0190   -3.7670    1.6860 C   0  0  0  0  0  0  0  0  0  0  0  0
    0.7860   -4.5150    0.8510 O   0  0  0  0  0  0  0  0  0  0  0  0
    1.8600   -3.8250    0.3450 C   0  0  0  0  0  0  0  0  0  0  0  0
    1.3880   -2.5740   -0.4000 C   0  0  0  0  0  0  0  0  0  0  0  0
  1  2  2  0
  2  3  1  0
  2  6  1  0
  3  4  2  0
  4  5  1  0
  5  6  2  0
  6  7  1  0
  7  8  1  0
  8  9  1  0
  9 10  1  0
 10 11  1  0
 11 12  2  0
 11 13  1  0
 13 14  1  1
 13 15  1  0
 13 16  1  0
 16 17  1  6
 16 33  1  0
 16 37  1  0
 17 18  2  0
 17 19  1  0
 19 20  1  0
 20 21  1  6
 20 25  1  0
 20 32  1  0
 21 22  1  0
 22 23  1  1
 22 24  1  0
 25 26  1  0
 26 27  1  1
 26 28  1  0
 28 29  1  0
 29 30  1  6
 29 32  1  0
 30 31  1  0
 33 34  1  0
 34 35  1  0
 35 36  1  0
 36 37  1  0
M  END
