
     RDKit          3D

 44 49  0  0  0  0  0  0  0  0999 V2000
   -1.4270    5.1050    0.7470 C   0  0  0  0  0  0  0  0  0  0  0  0
   -1.6030    3.6180    0.9430 C   0  0  0  0  0  0  0  0  0  0  0  0
   -2.7830    3.1210    0.8020 C   0  0  0  0  0  0  0  0  0  0  0  0
   -3.1430    1.6710    0.9570 C   0  0  0  0  0  0  0  0  0  0  0  0
   -4.3560    1.2690    0.8200 C   0  0  0  0  0  0  0  0  0  0  0  0
   -5.2160    0.1440    0.8510 C   0  0  0  0  0  0  0  0  0  0  0  0
   -5.3860   -1.0520    0.3720 C   0  0  0  0  0  0  0  0  0  0  0  0
   -6.5270   -1.9550    0.6930 N   0  0  0  0  0  0  0  0  0  0  0  0
   -6.1650   -3.3160    0.4660 C   0  0  0  0  0  0  0  0  0  0  0  0
   -4.7190   -3.2900    0.0970 C   0  0  0  0  0  0  0  0  0  0  0  0
   -4.6330   -1.8980   -0.5530 C   0  0  2  0  0  0  0  0  0  0  0  0
   -3.1800   -1.5800   -0.7710 C   0  0  0  0  0  0  0  0  0  0  0  0
   -2.4260   -2.0310    0.4050 N   0  0  0  0  0  0  0  0  0  0  0  0
   -1.1790   -2.5970    0.4000 C   0  0  0  0  0  0  0  0  0  0  0  0
   -0.8670   -3.3940    1.3700 O   0  0  0  0  0  0  0  0  0  0  0  0
   -0.0960   -2.4230   -0.5920 C   0  0  2  0  0  0  0  0  0  0  0  0
   -0.2450   -3.5590   -1.6120 C   0  0  0  0  0  0  0  0  0  0  0  0
    1.0440   -4.3300   -1.4530 C   0  0  0  0  0  0  0  0  0  0  0  0
    1.9890   -3.1740   -1.1560 C   0  0  0  0  0  0  0  0  0  0  0  0
    1.2330   -2.4880   -0.0790 N   0  0  0  0  0  0  0  0  0  0  0  0
    1.7640   -2.0190    1.1550 C   0  0  0  0  0  0  0  0  0  0  0  0
    2.0690   -3.0040    1.9800 O   0  0  0  0  0  0  0  0  0  0  0  0
    2.0190   -0.6850    1.6220 C   0  0  0  0  0  0  0  0  0  0  0  0
    2.8060   -0.6210    2.8450 O   0  0  0  0  0  0  0  0  0  0  0  0
    4.2080   -0.8300    2.7260 C   0  0  0  0  0  0  0  0  0  0  0  0
    4.8140    0.1780    1.8170 C   0  0  0  0  0  0  0  0  0  0  0  0
    4.9230   -0.0600    0.4510 C   0  0  0  0  0  0  0  0  0  0  0  0
    5.4700    0.8700   -0.4040 C   0  0  0  0  0  0  0  0  0  0  0  0
    5.9380    2.0820    0.0480 C   0  0  0  0  0  0  0  0  0  0  0  0
    5.8380    2.3280    1.3980 C   0  0  0  0  0  0  0  0  0  0  0  0
    5.2830    1.3900    2.2690 C   0  0  0  0  0  0  0  0  0  0  0  0
    6.3750    3.6030    1.5870 O   0  0  0  0  0  0  0  0  0  0  0  0
    7.1380    3.9480    0.4360 C   0  0  0  0  0  0  0  0  0  0  0  0
    6.5260    3.1820   -0.5880 O   0  0  0  0  0  0  0  0  0  0  0  0
    1.6890    0.5050    1.1810 C   0  0  0  0  0  0  0  0  0  0  0  0
    0.9240    0.9840    0.0590 C   0  0  0  0  0  0  0  0  0  0  0  0
    1.6500    1.4060   -1.0750 C   0  0  0  0  0  0  0  0  0  0  0  0
    1.0760    1.8700   -2.2280 C   0  0  0  0  0  0  0  0  0  0  0  0
    1.8150    2.2660   -3.3010 F   0  0  0  0  0  0  0  0  0  0  0  0
   -0.2960    1.9480   -2.3310 C   0  0  0  0  0  0  0  0  0  0  0  0
   -0.9280    2.4460   -3.5810 C   0  0  0  0  0  0  0  0  0  0  0  0
   -1.0360    1.5490   -1.2400 C   0  0  0  0  0  0  0  0  0  0  0  0
   -0.4450    1.0770   -0.0640 C   0  0  0  0  0  0  0  0  0  0  0  0
   -1.6220    0.7690    1.2720 S   0  0  0  0  0  0  0  0  0  0  0  0
  1  2  1  0
  2  3  2  3
  3  4  1  0
  4  5  2  0
  4 44  1  0
  5  6  1  0
  6  7  2  0
  7  8  1  0
  7 11  1  0
  8  9  1  0
  9 10  1  0
 11 10  1  1
 11 12  1  0
 12 13  1  0
 13 14  1  0
 14 15  2  0
 14 16  1  0
 16 17  1  6
 16 20  1  0
 17 18  1  0
 18 19  1  0
 19 20  1  0
 20 21  1  0
 21 22  2  0
 21 23  1  0
 23 24  1  0
 23 35  2  0
 24 25  1  0
 25 26  1  0
 26 27  2  0
 26 31  1  0
 27 28  1  0
 28 29  2  0
 29 30  1  0
 29 34  1  0
 30 31  2  0
 30 32  1  0
 32 33  1  0
 33 34  1  0
 35 36  1  0
 36 37  2  0
 36 43  1  0
 37 38  1  0
 38 39  1  0
 38 40  2  0
 40 41  1  0
 40 42  1  0
 42 43  2  0
 43 44  1  0
M  END
