
     RDKit          3D

 44 49  0  0  0  0  0  0  0  0999 V2000
    9.0810    3.4310    1.2580 C   0  0  0  0  0  0  0  0  0  0  0  0
    8.1860    2.3840    0.6280 C   0  0  0  0  0  0  0  0  0  0  0  0
    8.2980    2.1220   -0.6530 C   0  0  0  0  0  0  0  0  0  0  0  0
    7.4810    1.1410   -1.3160 C   0  0  0  0  0  0  0  0  0  0  0  0
    7.6440    0.9130   -2.6530 C   0  0  0  0  0  0  0  0  0  0  0  0
    6.8490   -0.0310   -3.2670 C   0  0  0  0  0  0  0  0  0  0  0  0
    7.0330   -0.2370   -4.5950 F   0  0  0  0  0  0  0  0  0  0  0  0
    5.9180   -0.7130   -2.5140 C   0  0  0  0  0  0  0  0  0  0  0  0
    5.7490   -0.4880   -1.1680 C   0  0  0  0  0  0  0  0  0  0  0  0
    4.7420   -1.2470   -0.4120 C   0  0  0  0  0  0  0  0  0  0  0  0
    3.5130   -0.4510   -0.0900 C   0  0  0  0  0  0  0  0  0  0  0  0
    2.5610   -1.3200    0.6710 C   0  0  0  0  0  0  0  0  0  0  0  0
    2.8540   -2.5200    0.9030 O   0  0  0  0  0  0  0  0  0  0  0  0
    1.3190   -0.8310    1.1480 N   0  0  0  0  0  0  0  0  0  0  0  0
    0.4510   -1.7350    1.8700 C   0  0  0  0  0  0  0  0  0  0  0  0
   -0.9530   -1.2030    1.9730 C   0  0  0  0  0  0  0  0  0  0  0  0
   -1.2190   -0.4600    0.6630 C   0  0  1  0  0  0  0  0  0  0  0  0
   -2.6050   -0.2170    0.3670 C   0  0  0  0  0  0  0  0  0  0  0  0
   -2.9650    0.9730    0.8130 O   0  0  0  0  0  0  0  0  0  0  0  0
   -3.6970   -0.8960   -0.2500 C   0  0  0  0  0  0  0  0  0  0  0  0
   -3.5620   -2.0940   -0.8170 C   0  0  0  0  0  0  0  0  0  0  0  0
   -2.2160   -2.6790   -0.7900 C   0  0  0  0  0  0  0  0  0  0  0  0
   -4.5800   -2.9130   -1.4320 N   0  0  0  0  0  0  0  0  0  0  0  0
   -5.9200   -3.2040   -1.0460 C   0  0  0  0  0  0  0  0  0  0  0  0
   -6.4820   -4.2330   -1.6470 N   0  0  0  0  0  0  0  0  0  0  0  0
   -7.7380   -4.6070   -1.3460 C   0  0  0  0  0  0  0  0  0  0  0  0
   -8.5210   -3.9680   -0.4140 C   0  0  0  0  0  0  0  0  0  0  0  0
   -7.9210   -2.8740    0.2240 C   0  0  0  0  0  0  0  0  0  0  0  0
   -6.6500   -2.5070   -0.0910 C   0  0  0  0  0  0  0  0  0  0  0  0
   -6.1370   -1.0670    0.8490 S   0  0  0  0  0  0  0  0  0  0  0  0
   -5.0320   -0.1480   -0.2650 C   0  0  1  0  0  0  0  0  0  0  0  0
   -4.9840    1.2600    0.0100 C   0  0  0  0  0  0  0  0  0  0  0  0
   -4.6140    2.1780   -0.9430 C   0  0  0  0  0  0  0  0  0  0  0  0
   -4.6120    3.5400   -0.7110 C   0  0  0  0  0  0  0  0  0  0  0  0
   -4.2410    4.4730   -1.6690 O   0  0  0  0  0  0  0  0  0  0  0  0
   -4.9930    4.0140    0.5210 C   0  0  0  0  0  0  0  0  0  0  0  0
   -5.3660    3.1080    1.4900 C   0  0  0  0  0  0  0  0  0  0  0  0
   -5.7530    3.5960    2.7440 O   0  0  0  0  0  0  0  0  0  0  0  0
   -5.3700    1.7490    1.2620 C   0  0  0  0  0  0  0  0  0  0  0  0
   -0.4500    0.8820    0.8920 C   0  0  0  0  0  0  0  0  0  0  0  0
    1.0000    0.5460    0.8840 C   0  0  0  0  0  0  0  0  0  0  0  0
    6.5530    0.4690   -0.5400 C   0  0  0  0  0  0  0  0  0  0  0  0
    6.4380    0.7450    0.7970 O   0  0  0  0  0  0  0  0  0  0  0  0
    7.2030    1.6800    1.4700 C   0  0  0  0  0  0  0  0  0  0  0  0
  1  2  1  0
  2  3  2  0
  2 44  1  0
  3  4  1  0
  4  5  2  0
  4 42  1  0
  5  6  1  0
  6  7  1  0
  6  8  2  0
  8  9  1  0
  9 10  1  0
  9 42  2  0
 10 11  1  0
 11 12  1  0
 12 13  2  0
 12 14  1  0
 14 15  1  0
 14 41  1  0
 15 16  1  0
 16 17  1  0
 17 18  1  1
 17 40  1  0
 18 19  2  0
 18 20  1  0
 20 21  2  0
 20 31  1  0
 21 22  1  0
 21 23  1  0
 23 24  1  0
 24 25  2  0
 24 29  1  0
 25 26  1  0
 26 27  2  0
 27 28  1  0
 28 29  2  0
 29 30  1  0
 30 31  1  0
 31 32  1  1
 32 33  2  0
 32 39  1  0
 33 34  1  0
 34 35  1  0
 34 36  2  0
 36 37  1  0
 37 38  1  0
 37 39  2  0
 40 41  1  0
 42 43  1  0
 43 44  1  0
M  END
