
     RDKit          3D

 44 49  0  0  0  0  0  0  0  0999 V2000
   -5.5390   -2.3260   -3.1330 C   0  0  0  0  0  0  0  0  0  0  0  0
   -5.3210   -1.3080   -2.0530 C   0  0  0  0  0  0  0  0  0  0  0  0
   -6.2900   -1.0600   -1.1430 C   0  0  0  0  0  0  0  0  0  0  0  0
   -6.1330   -0.1120   -0.1080 C   0  0  0  0  0  0  0  0  0  0  0  0
   -4.9670    0.5750   -0.0250 C   0  0  0  0  0  0  0  0  0  0  0  0
   -4.7840    1.5230    0.9820 C   0  0  0  0  0  0  0  0  0  0  0  0
   -5.7580    1.7700    1.9140 C   0  0  0  0  0  0  0  0  0  0  0  0
   -7.0420    1.0940    1.9950 C   0  0  0  0  0  0  0  0  0  0  0  0
   -5.4330    2.7550    2.8800 C   0  0  0  0  0  0  0  0  0  0  0  0
   -4.2470    3.4270    2.9100 C   0  0  0  0  0  0  0  0  0  0  0  0
   -3.3040    3.1560    1.9730 C   0  0  0  0  0  0  0  0  0  0  0  0
   -2.0900    3.7910    1.9470 F   0  0  0  0  0  0  0  0  0  0  0  0
   -3.5610    2.2110    1.0100 C   0  0  0  0  0  0  0  0  0  0  0  0
   -2.6000    1.9300    0.0600 C   0  0  0  0  0  0  0  0  0  0  0  0
   -1.5120    2.5710    0.1180 O   0  0  0  0  0  0  0  0  0  0  0  0
   -2.7910    1.0150   -0.8980 N   0  0  0  0  0  0  0  0  0  0  0  0
   -1.7420    0.7790   -1.8670 C   0  0  0  0  0  0  0  0  0  0  0  0
   -0.7940   -0.2750   -1.4040 C   0  0  0  0  0  0  0  0  0  0  0  0
   -0.9300   -0.7820   -0.2680 O   0  0  0  0  0  0  0  0  0  0  0  0
    0.2520   -0.6830   -2.2650 N   0  0  0  0  0  0  0  0  0  0  0  0
    1.2380   -1.6550   -1.9630 C   0  0  0  0  0  0  0  0  0  0  0  0
    1.9410   -2.2370   -3.0210 C   0  0  0  0  0  0  0  0  0  0  0  0
    2.9340   -3.1680   -2.8160 C   0  0  0  0  0  0  0  0  0  0  0  0
    3.2840   -3.5750   -1.5490 C   0  0  0  0  0  0  0  0  0  0  0  0
    4.3450   -4.5740   -1.3030 C   0  0  0  0  0  0  0  0  0  0  0  0
    2.5940   -3.0060   -0.4790 C   0  0  0  0  0  0  0  0  0  0  0  0
    2.9790   -3.4380    0.8090 N   0  0  0  0  0  0  0  0  0  0  0  0
    2.8440   -2.3900    2.1540 S   0  0  1  0  0  0  0  0  0  0  0  0
    1.4400   -1.9460    2.3720 O   0  0  0  0  0  0  0  0  0  0  0  0
    3.2990   -3.1010    3.4160 O   0  0  0  0  0  0  0  0  0  0  0  0
    3.8500   -0.9510    1.9460 C   0  0  0  0  0  0  0  0  0  0  0  0
    5.1470   -0.9200    2.4090 C   0  0  0  0  0  0  0  0  0  0  0  0
    5.9320    0.1990    2.2430 C   0  0  0  0  0  0  0  0  0  0  0  0
    5.4400    1.3220    1.6060 C   0  0  0  0  0  0  0  0  0  0  0  0
    4.1620    1.3030    1.1450 C   0  0  0  0  0  0  0  0  0  0  0  0
    3.3740    0.1740    1.3140 C   0  0  0  0  0  0  0  0  0  0  0  0
    3.6370    2.4930    0.4630 C   0  0  0  0  0  0  0  0  0  0  0  0
    2.4640    2.4940    0.0500 O   0  0  0  0  0  0  0  0  0  0  0  0
    4.4750    3.7030    0.2530 C   0  0  0  0  0  0  0  0  0  0  0  0
    5.9440    3.3350    0.2520 C   0  0  0  0  0  0  0  0  0  0  0  0
    6.3250    2.5080    1.4490 C   0  0  0  0  0  0  0  0  0  0  0  0
    1.5860   -2.0600   -0.7010 C   0  0  0  0  0  0  0  0  0  0  0  0
   -3.9430    0.3310   -0.9680 C   0  0  0  0  0  0  0  0  0  0  0  0
   -4.1410   -0.6050   -1.9600 C   0  0  0  0  0  0  0  0  0  0  0  0
  1  2  1  0
  2  3  2  0
  2 44  1  0
  3  4  1  0
  4  5  2  0
  5  6  1  0
  5 43  1  0
  6  7  2  0
  6 13  1  0
  7  8  1  0
  7  9  1  0
  9 10  2  0
 10 11  1  0
 11 12  1  0
 11 13  2  0
 13 14  1  0
 14 15  2  0
 14 16  1  0
 16 17  1  0
 16 43  1  0
 17 18  1  0
 18 19  2  0
 18 20  1  0
 20 21  1  0
 21 22  2  0
 21 42  1  0
 22 23  1  0
 23 24  2  0
 24 25  1  0
 24 26  1  0
 26 27  1  0
 26 42  2  0
 28 27  1  6
 28 29  2  0
 28 30  2  0
 28 31  1  0
 31 32  2  0
 31 36  1  0
 32 33  1  0
 33 34  2  0
 34 35  1  0
 34 41  1  0
 35 36  2  0
 35 37  1  0
 37 38  2  0
 37 39  1  0
 39 40  1  0
 40 41  1  0
 43 44  2  0
M  END
