
     RDKit          3D

 44 48  0  0  0  0  0  0  0  0999 V2000
   -0.3420   -2.9030    5.1860 C   0  0  0  0  0  0  0  0  0  0  0  0
   -0.6710   -3.0430    3.9580 C   0  0  0  0  0  0  0  0  0  0  0  0
   -0.2870   -2.1910    2.8960 C   0  0  0  0  0  0  0  0  0  0  0  0
    0.3260   -1.4620    2.0760 C   0  0  0  0  0  0  0  0  0  0  0  0
    1.6700   -0.9440    1.8490 C   0  0  0  0  0  0  0  0  0  0  0  0
    1.9310    0.3260    2.3100 C   0  0  0  0  0  0  0  0  0  0  0  0
    3.5310    0.9400    2.0360 S   0  0  1  0  0  0  0  0  0  0  0  0
    3.8740    2.0210    3.0470 O   0  0  0  0  0  0  0  0  0  0  0  0
    4.5240   -0.1940    2.2200 O   0  0  0  0  0  0  0  0  0  0  0  0
    3.7720    1.6370    0.4960 N   0  0  0  0  0  0  0  0  0  0  0  0
    3.6180    0.6960   -0.5410 C   0  0  1  0  0  0  0  0  0  0  0  0
    2.4000    0.8860   -1.4460 C   0  0  0  0  0  0  0  0  0  0  0  0
    2.7200   -0.1350   -2.5410 C   0  0  0  0  0  0  0  0  0  0  0  0
    4.2350   -0.0930   -2.7240 C   0  0  0  0  0  0  0  0  0  0  0  0
    4.7620    0.6950   -1.5520 C   0  0  2  0  0  0  0  0  0  0  0  0
    6.0240    0.1040   -0.9850 C   0  0  0  0  0  0  0  0  0  0  0  0
    5.0280    2.1180   -2.0330 C   0  0  0  0  0  0  0  0  0  0  0  0
    0.9010    1.1110    3.0070 C   0  0  0  0  0  0  0  0  0  0  0  0
   -0.2910    1.5010    2.7340 C   0  0  0  0  0  0  0  0  0  0  0  0
   -1.3190    1.4530    1.6900 C   0  0  0  0  0  0  0  0  0  0  0  0
   -1.4780    2.6640    1.0660 C   0  0  0  0  0  0  0  0  0  0  0  0
   -2.3910    2.9750    0.0070 C   0  0  0  0  0  0  0  0  0  0  0  0
   -3.7350    2.6980    0.1570 C   0  0  0  0  0  0  0  0  0  0  0  0
   -4.6210    2.9810   -0.8500 C   0  0  0  0  0  0  0  0  0  0  0  0
   -4.1930    3.5480   -2.0350 C   0  0  0  0  0  0  0  0  0  0  0  0
   -5.0550    3.8280   -3.0240 F   0  0  0  0  0  0  0  0  0  0  0  0
   -2.8540    3.8320   -2.2020 C   0  0  0  0  0  0  0  0  0  0  0  0
   -2.0880    4.3750   -3.2100 C   0  0  0  0  0  0  0  0  0  0  0  0
   -0.8160    4.4050   -2.8050 N   0  0  0  0  0  0  0  0  0  0  0  0
   -0.7180    3.8980   -1.5580 N   0  0  0  0  0  0  0  0  0  0  0  0
   -1.9730    3.5490   -1.1990 C   0  0  0  0  0  0  0  0  0  0  0  0
   -2.1200    0.4840    1.2340 O   0  0  0  0  0  0  0  0  0  0  0  0
   -3.0610   -0.4800    1.3700 C   0  0  0  0  0  0  0  0  0  0  0  0
   -2.9730   -1.5530    0.2920 C   0  0  0  0  0  0  0  0  0  0  0  0
   -2.8720   -0.9200   -0.9700 C   0  0  0  0  0  0  0  0  0  0  0  0
   -2.8350   -1.6260   -2.1340 C   0  0  0  0  0  0  0  0  0  0  0  0
   -2.8960   -2.9970   -2.0990 C   0  0  0  0  0  0  0  0  0  0  0  0
   -2.8620   -3.8210   -3.3440 C   0  0  0  0  0  0  0  0  0  0  0  0
   -2.9920   -3.5770   -0.8760 C   0  0  0  0  0  0  0  0  0  0  0  0
   -3.0320   -2.8870    0.3800 C   0  0  0  0  0  0  0  0  0  0  0  0
   -3.1230   -3.8150    1.5410 C   0  0  0  0  0  0  0  0  0  0  0  0
   -4.3010   -4.4460    1.4490 O   0  0  0  0  0  0  0  0  0  0  0  0
   -2.3670   -4.1440    2.5680 O   0  0  0  0  0  0  0  0  0  0  0  0
   -1.5940   -4.2830    3.6220 C   0  0  0  0  0  0  0  0  0  0  0  0
  1  2  2  0
  2  3  1  0
  2 44  1  0
  3  4  2  0
  4  5  1  0
  5  6  2  0
  6  7  1  0
  6 18  1  0
  7  8  2  0
  7  9  2  0
  7 10  1  6
 11 10  1  1
 11 12  1  0
 11 15  1  0
 12 13  1  0
 13 14  1  0
 14 15  1  0
 15 16  1  1
 15 17  1  0
 18 19  2  0
 19 20  1  0
 20 21  2  3
 20 32  1  0
 21 22  1  0
 22 23  2  0
 22 31  1  0
 23 24  1  0
 24 25  2  0
 25 26  1  0
 25 27  1  0
 27 28  2  0
 27 31  1  0
 28 29  1  0
 29 30  1  0
 30 31  2  0
 32 33  1  0
 33 34  1  0
 34 35  2  0
 34 40  1  0
 35 36  1  0
 36 37  2  0
 37 38  1  0
 37 39  1  0
 39 40  2  0
 40 41  1  0
 41 42  2  0
 41 43  1  0
 43 44  1  0
M  END
