
     RDKit          3D

 46 49  0  0  0  0  0  0  0  0999 V2000
   -6.5070   -3.7850   -2.7110 C   0  0  0  0  0  0  0  0  0  0  0  0
   -6.5890   -2.3920   -2.3180 N   0  0  0  0  0  0  0  0  0  0  0  0
   -5.6530   -1.5600   -3.0210 C   0  0  0  0  0  0  0  0  0  0  0  0
   -4.3660   -1.3870   -2.3110 C   0  0  0  0  0  0  0  0  0  0  0  0
   -3.3580   -2.2920   -2.5500 C   0  0  0  0  0  0  0  0  0  0  0  0
   -2.1520   -2.1510   -1.9020 C   0  0  0  0  0  0  0  0  0  0  0  0
   -1.9370   -1.0940   -0.9980 C   0  0  0  0  0  0  0  0  0  0  0  0
   -0.7190   -0.9640   -0.3500 O   0  0  0  0  0  0  0  0  0  0  0  0
    0.4560   -0.6930   -1.0880 C   0  0  0  0  0  0  0  0  0  0  0  0
    0.3050   -0.5870   -2.3250 O   0  0  0  0  0  0  0  0  0  0  0  0
    1.7220   -0.5540   -0.4300 N   0  0  0  0  0  0  0  0  0  0  0  0
    2.9050   -0.2990   -1.1690 C   0  0  2  0  0  0  0  0  0  0  0  0
    2.6210    0.8600   -2.1850 C   0  0  0  0  0  0  0  0  0  0  0  0
    3.3630   -1.5130   -1.9000 C   0  0  0  0  0  0  0  0  0  0  0  0
    2.9330   -2.8240   -1.4270 C   0  0  0  0  0  0  0  0  0  0  0  0
    1.6740   -3.0750   -1.5470 O   0  0  0  0  0  0  0  0  0  0  0  0
    3.6650   -3.8880   -0.8570 N   0  0  0  0  0  0  0  0  0  0  0  0
    4.3750   -3.9480    0.3610 C   0  0  0  0  0  0  0  0  0  0  0  0
    5.3220   -4.8360    0.4060 O   0  0  0  0  0  0  0  0  0  0  0  0
    4.1830   -3.1670    1.5290 N   0  0  0  0  0  0  0  0  0  0  0  0
    4.1090   -1.7720    1.5350 N   0  0  0  0  0  0  0  0  0  0  0  0
    3.4910   -1.2180    2.6200 N   0  0  0  0  0  0  0  0  0  0  0  0
    3.3580    0.1580    2.7980 C   0  0  0  0  0  0  0  0  0  0  0  0
    3.4140    0.5400    4.0360 O   0  0  0  0  0  0  0  0  0  0  0  0
    3.1660    1.2130    1.7990 C   0  0  0  0  0  0  0  0  0  0  0  0
    4.0540    1.1850    0.6590 N   0  0  0  0  0  0  0  0  0  0  0  0
    5.0720    2.2540    0.6310 C   0  0  0  0  0  0  0  0  0  0  0  0
    6.3240    1.9140    1.3110 C   0  0  0  0  0  0  0  0  0  0  0  0
    6.6570    0.7230    1.9770 N   0  0  0  0  0  0  0  0  0  0  0  0
    7.2370    2.8140    1.3020 O   0  0  0  0  0  0  0  0  0  0  0  0
    4.0420    0.2770   -0.4060 C   0  0  0  0  0  0  0  0  0  0  0  0
    5.1970   -0.1240   -0.7960 O   0  0  0  0  0  0  0  0  0  0  0  0
   -2.9190   -0.1890   -0.7450 C   0  0  0  0  0  0  0  0  0  0  0  0
   -2.7600    0.9020    0.1810 C   0  0  1  0  0  0  0  0  0  0  0  0
   -4.0640    1.7260    0.2370 C   0  0  0  0  0  0  0  0  0  0  0  0
   -2.6060    0.3380    1.5790 C   0  0  0  0  0  0  0  0  0  0  0  0
   -1.6410    1.1100    2.4460 C   0  0  0  0  0  0  0  0  0  0  0  0
   -1.8840    2.5410    2.2150 C   0  0  0  0  0  0  0  0  0  0  0  0
   -2.0790    3.4290    3.2460 C   0  0  0  0  0  0  0  0  0  0  0  0
   -2.3070    4.7860    2.9600 C   0  0  0  0  0  0  0  0  0  0  0  0
   -2.3260    5.1810    1.6310 C   0  0  0  0  0  0  0  0  0  0  0  0
   -2.5270    6.3890    1.3530 O   0  0  0  0  0  0  0  0  0  0  0  0
   -2.1300    4.2850    0.6120 N   0  0  0  0  0  0  0  0  0  0  0  0
   -1.9160    2.9990    0.9190 C   0  0  0  0  0  0  0  0  0  0  0  0
   -1.6870    1.9180   -0.1100 C   0  0  0  0  0  0  0  0  0  0  0  0
   -4.1180   -0.3660   -1.4180 C   0  0  0  0  0  0  0  0  0  0  0  0
  1  2  1  0
  2  3  1  0
  3  4  1  0
  4  5  2  0
  4 46  1  0
  5  6  1  0
  6  7  2  0
  7  8  1  0
  7 33  1  0
  8  9  1  0
  9 10  2  0
  9 11  1  0
 11 12  1  0
 12 13  1  6
 12 14  1  0
 12 31  1  0
 14 15  1  0
 15 16  2  0
 15 17  1  0
 17 18  1  0
 18 19  2  0
 18 20  1  0
 20 21  1  0
 21 22  1  0
 22 23  1  0
 23 24  2  0
 23 25  1  0
 25 26  1  0
 26 27  1  0
 26 31  1  0
 27 28  1  0
 28 29  1  0
 28 30  2  0
 31 32  2  0
 33 34  1  0
 33 46  2  0
 34 35  1  1
 34 36  1  0
 34 45  1  0
 36 37  1  0
 37 38  1  0
 38 39  1  0
 38 44  2  0
 39 40  2  0
 40 41  1  0
 41 42  2  0
 41 43  1  0
 43 44  1  0
 44 45  1  0
M  CHG  1   2   1
M  END
