
     RDKit          3D

 46 48  0  0  0  0  0  0  0  0999 V2000
   -3.7570    6.4990   -0.3430 C   0  0  0  0  0  0  0  0  0  0  0  0
   -3.3460    5.2230    0.1490 C   0  0  0  0  0  0  0  0  0  0  0  0
   -3.6020    4.7110    1.1770 O   0  0  0  0  0  0  0  0  0  0  0  0
   -2.3470    4.3560   -0.9420 N   0  0  0  0  0  0  0  0  0  0  0  0
   -2.2220    3.1790   -0.0220 C   0  0  0  0  0  0  0  0  0  0  0  0
   -2.4890    2.9190    1.0240 O   0  0  0  0  0  0  0  0  0  0  0  0
   -1.5220    2.1890   -0.8840 N   0  0  0  0  0  0  0  0  0  0  0  0
   -1.0760    0.9320   -0.3820 C   0  0  0  0  0  0  0  0  0  0  0  0
   -0.4590    0.1400   -1.3030 C   0  0  0  0  0  0  0  0  0  0  0  0
   -0.3530    0.7030   -2.6930 C   0  0  0  0  0  0  0  0  0  0  0  0
   -1.2990    0.0150   -3.5590 N   0  0  0  0  0  0  0  0  0  0  0  0
    0.2460   -1.1300   -1.0380 C   0  0  1  0  0  0  0  0  0  0  0  0
    1.3130   -1.3180   -2.1510 C   0  0  0  0  0  0  0  0  0  0  0  0
    2.4660   -0.5150   -2.2240 N   0  0  0  0  0  0  0  0  0  0  0  0
    1.1440   -2.2100   -3.0230 O   0  0  0  0  0  0  0  0  0  0  0  0
    0.9140   -1.2470    0.2250 N   0  0  0  0  0  0  0  0  0  0  0  0
    1.9420   -0.3210    0.7330 C   0  0  0  0  0  0  0  0  0  0  0  0
    3.3090   -0.8740    0.5610 C   0  0  0  0  0  0  0  0  0  0  0  0
    4.2590    0.0890    0.9930 O   0  0  0  0  0  0  0  0  0  0  0  0
    5.5500   -0.4000    0.7760 C   0  0  1  0  0  0  0  0  0  0  0  0
    6.3010    0.3900   -0.2570 C   0  0  0  0  0  0  0  0  0  0  0  0
    7.2290    1.4050    0.3570 C   0  0  0  0  0  0  0  0  0  0  0  0
    6.8050    1.8180    1.7650 C   0  0  1  0  0  0  0  0  0  0  0  0
    5.5940    2.5150    1.6530 O   0  0  0  0  0  0  0  0  0  0  0  0
    6.7380    0.6730    2.7090 C   0  0  0  0  0  0  0  0  0  0  0  0
    6.3170   -0.6170    2.0540 C   0  0  0  0  0  0  0  0  0  0  0  0
    0.6330   -2.3030    1.1190 C   0  0  0  0  0  0  0  0  0  0  0  0
    0.9300   -2.1860    2.3730 O   0  0  0  0  0  0  0  0  0  0  0  0
    0.0200   -3.6100    0.8130 C   0  0  0  0  0  0  0  0  0  0  0  0
   -0.8720   -4.0040    1.9640 C   0  0  0  0  0  0  0  0  0  0  0  0
   -2.1150   -4.6830    1.4360 C   0  0  0  0  0  0  0  0  0  0  0  0
   -2.7500   -4.0610    0.4240 O   0  0  0  0  0  0  0  0  0  0  0  0
   -2.7770   -3.5950   -0.8060 C   0  0  0  0  0  0  0  0  0  0  0  0
   -2.3460   -4.3770   -1.7960 O   0  0  0  0  0  0  0  0  0  0  0  0
   -3.2160   -2.3180   -1.3170 N   0  0  0  0  0  0  0  0  0  0  0  0
   -4.1870   -1.4030   -0.8610 C   0  0  0  0  0  0  0  0  0  0  0  0
   -5.2360   -1.1030   -1.7690 C   0  0  0  0  0  0  0  0  0  0  0  0
   -6.3010   -0.3140   -1.5160 C   0  0  0  0  0  0  0  0  0  0  0  0
   -6.4170    0.2670   -0.2850 C   0  0  0  0  0  0  0  0  0  0  0  0
   -7.5360    1.1110    0.0240 N   0  0  0  0  0  0  0  0  0  0  0  0
   -5.4400    0.0210    0.6370 C   0  0  0  0  0  0  0  0  0  0  0  0
   -4.3110   -0.8070    0.3770 C   0  0  0  0  0  0  0  0  0  0  0  0
   -3.3940   -0.8380    1.4660 N   0  0  0  0  0  0  0  0  0  0  0  0
   -2.1180   -0.2700    1.6730 C   0  0  0  0  0  0  0  0  0  0  0  0
   -1.5460   -0.6550    2.7930 O   0  0  0  0  0  0  0  0  0  0  0  0
   -1.3140    0.6340    0.9700 N   0  0  0  0  0  0  0  0  0  0  0  0
  1  2  1  0
  2  3  2  0
  2  4  1  0
  4  5  1  0
  5  6  2  0
  5  7  1  0
  7  8  1  0
  8  9  2  0
  8 46  1  0
  9 10  1  0
  9 12  1  0
 10 11  1  0
 12 13  1  6
 12 16  1  0
 13 14  1  0
 13 15  2  0
 16 17  1  0
 16 27  1  0
 17 18  1  0
 18 19  1  0
 20 19  1  1
 20 21  1  0
 20 26  1  0
 21 22  1  0
 22 23  1  0
 23 24  1  6
 23 25  1  0
 25 26  1  0
 27 28  2  0
 27 29  1  0
 29 30  1  0
 30 31  1  0
 31 32  1  0
 32 33  1  0
 33 34  2  0
 33 35  1  0
 35 36  1  0
 36 37  2  0
 36 42  1  0
 37 38  1  0
 38 39  2  0
 39 40  1  0
 39 41  1  0
 41 42  2  0
 42 43  1  0
 43 44  1  0
 44 45  2  0
 44 46  1  0
M  CHG  1  11   1
M  END
