
     RDKit          3D

 31 35  0  0  0  0  0  0  0  0999 V2000
    4.3780   -0.5910   -2.0250 C   0  0  0  0  0  0  0  0  0  0  0  0
    3.9930    0.4050   -0.9420 C   0  0  1  0  0  0  0  0  0  0  0  0
    2.6660    0.1180   -0.4630 N   0  0  0  0  0  0  0  0  0  0  0  0
    1.6080    1.0220   -0.6040 C   0  0  0  0  0  0  0  0  0  0  0  0
    1.8680    2.1310   -1.1840 O   0  0  0  0  0  0  0  0  0  0  0  0
    0.2500    0.7770   -0.1350 C   0  0  0  0  0  0  0  0  0  0  0  0
   -0.8260    1.6340   -0.2390 C   0  0  0  0  0  0  0  0  0  0  0  0
   -1.9390    1.0170    0.3330 C   0  0  0  0  0  0  0  0  0  0  0  0
   -3.2810    1.5600    0.4440 C   0  0  0  0  0  0  0  0  0  0  0  0
   -3.5670    2.6710    1.2230 C   0  0  0  0  0  0  0  0  0  0  0  0
   -4.8400    3.1800    1.3170 C   0  0  0  0  0  0  0  0  0  0  0  0
   -5.8980    2.5920    0.6290 C   0  0  0  0  0  0  0  0  0  0  0  0
   -5.6020    1.4890   -0.1420 C   0  0  0  0  0  0  0  0  0  0  0  0
   -4.3090    0.9650   -0.2430 C   0  0  0  0  0  0  0  0  0  0  0  0
   -4.0550   -0.1620   -1.0440 N   0  0  0  0  0  0  0  0  0  0  0  0
   -4.8020   -1.2930   -0.9570 C   0  0  0  0  0  0  0  0  0  0  0  0
   -4.3330   -2.2250   -1.8530 C   0  0  0  0  0  0  0  0  0  0  0  0
   -3.2940   -1.6390   -2.4820 N   0  0  0  0  0  0  0  0  0  0  0  0
   -3.1310   -0.3930   -1.9880 C   0  0  0  0  0  0  0  0  0  0  0  0
   -1.4690   -0.2030    0.7600 C   0  0  0  0  0  0  0  0  0  0  0  0
   -2.2530   -1.2180    1.4250 C   0  0  0  0  0  0  0  0  0  0  0  0
   -2.8950   -1.0830    2.6310 C   0  0  0  0  0  0  0  0  0  0  0  0
   -3.5360   -2.2910    2.9170 C   0  0  0  0  0  0  0  0  0  0  0  0
   -3.2300   -3.0920    1.8400 C   0  0  0  0  0  0  0  0  0  0  0  0
   -2.4760   -2.4250    0.9870 O   0  0  0  0  0  0  0  0  0  0  0  0
   -0.1760   -0.2880    0.4580 O   0  0  0  0  0  0  0  0  0  0  0  0
    5.0320    0.3610    0.1830 C   0  0  2  0  0  0  0  0  0  0  0  0
    6.3680    0.6170   -0.4060 C   0  0  0  0  0  0  0  0  0  0  0  0
    7.2050   -0.5670   -0.0080 C   0  0  0  0  0  0  0  0  0  0  0  0
    6.3240   -1.2650    0.9940 C   0  0  0  0  0  0  0  0  0  0  0  0
    5.0220   -0.9040    0.7330 O   0  0  0  0  0  0  0  0  0  0  0  0
  2  1  1  6
  2  3  1  0
  2 27  1  0
  3  4  1  0
  4  5  2  0
  4  6  1  0
  6  7  2  0
  6 26  1  0
  7  8  1  0
  8  9  1  0
  8 20  2  0
  9 10  2  0
  9 14  1  0
 10 11  1  0
 11 12  2  0
 12 13  1  0
 13 14  2  0
 14 15  1  0
 15 16  1  0
 15 19  1  0
 16 17  2  0
 17 18  1  0
 18 19  2  0
 20 21  1  0
 20 26  1  0
 21 22  2  0
 21 25  1  0
 22 23  1  0
 23 24  2  0
 24 25  1  0
 27 28  1  6
 27 31  1  0
 28 29  1  0
 29 30  1  0
 30 31  1  0
M  END
