
     RDKit          3D

 12 12  0  0  0  0  0  0  0  0999 V2000
    2.8000    2.0030   -0.4690 C   0  0  0  0  0  0  0  0  0  0  0  0
    2.5150    0.8550   -1.0100 N   0  0  0  0  0  0  0  0  0  0  0  0
    1.5100    0.0090   -0.4500 C   0  0  0  0  0  0  0  0  0  0  0  0
    1.8950   -0.9150    0.4100 C   0  0  0  0  0  0  0  0  0  0  0  0
    3.3400   -1.0460    0.7660 C   0  0  0  0  0  0  0  0  0  0  0  0
    0.1320    0.2550   -0.8940 C   0  0  0  0  0  0  0  0  0  0  0  0
   -0.8680   -0.5690   -0.3340 N   0  0  0  0  0  0  0  0  0  0  0  0
   -1.1860   -0.4270    1.0250 C   0  0  0  0  0  0  0  0  0  0  0  0
   -2.4410    0.3220    1.3400 C   0  0  0  0  0  0  0  0  0  0  0  0
   -3.4080    0.2900    0.3880 O   0  0  0  0  0  0  0  0  0  0  0  0
   -3.0290    0.2320   -0.9190 C   0  0  0  0  0  0  0  0  0  0  0  0
   -1.9960   -0.8750   -1.1360 C   0  0  0  0  0  0  0  0  0  0  0  0
  1  2  2  0
  2  3  1  0
  3  4  2  3
  3  6  1  0
  4  5  1  0
  6  7  1  0
  7  8  1  0
  7 12  1  0
  8  9  1  0
  9 10  1  0
 10 11  1  0
 11 12  1  0
M  END
