
     RDKit          3D

 22 22  0  0  0  0  0  0  0  0999 V2000
   -2.5450    1.2680   -1.5630 C   0  0  0  0  0  0  0  0  0  0  0  0
   -2.9490    0.0220   -0.8400 C   0  0  2  0  0  0  0  0  0  0  0  0
   -3.8290   -0.8120   -1.7770 C   0  0  0  0  0  0  0  0  0  0  0  0
   -3.7730    0.3910    0.3640 C   0  0  0  0  0  0  0  0  0  0  0  0
   -2.9270    1.2570    1.2680 C   0  0  2  0  0  0  0  0  0  0  0  0
   -1.7610    0.4450    1.6420 N   0  0  0  0  0  0  0  0  0  0  0  0
   -0.4500    0.9000    1.4540 C   0  0  0  0  0  0  0  0  0  0  0  0
   -0.2710    2.0400    0.9490 O   0  0  0  0  0  0  0  0  0  0  0  0
    0.7370    0.0560    1.8420 C   0  0  1  0  0  0  0  0  0  0  0  0
    0.3490   -1.1530    2.3560 O   0  0  0  0  0  0  0  0  0  0  0  0
    1.6130   -0.0550    0.6330 C   0  0  2  0  0  0  0  0  0  0  0  0
    0.9120   -0.7530   -0.4050 N   0  0  0  0  0  0  0  0  0  0  0  0
    2.9210   -0.7010    1.0230 C   0  0  0  0  0  0  0  0  0  0  0  0
    3.7960   -0.8170   -0.1650 C   0  0  0  0  0  0  0  0  0  0  0  0
    3.7720   -1.9330   -0.9730 C   0  0  0  0  0  0  0  0  0  0  0  0
    4.5880   -2.0300   -2.0720 C   0  0  0  0  0  0  0  0  0  0  0  0
    5.4600   -0.9930   -2.3900 C   0  0  0  0  0  0  0  0  0  0  0  0
    5.4970    0.1330   -1.5910 C   0  0  0  0  0  0  0  0  0  0  0  0
    4.6660    0.2090   -0.4890 C   0  0  0  0  0  0  0  0  0  0  0  0
   -3.6800    1.6580    2.4840 C   0  0  0  0  0  0  0  0  0  0  0  0
   -3.2700    1.2890    3.6020 O   0  0  0  0  0  0  0  0  0  0  0  0
   -4.8180    2.4270    2.4000 O   0  0  0  0  0  0  0  0  0  0  0  0
  2  1  1  6
  2  3  1  0
  2  4  1  0
  5  4  1  6
  5  6  1  0
  5 20  1  0
  6  7  1  0
  7  8  2  0
  7  9  1  0
  9 10  1  6
  9 11  1  0
 11 12  1  6
 11 13  1  0
 13 14  1  0
 14 15  2  0
 14 19  1  0
 15 16  1  0
 16 17  2  0
 17 18  1  0
 18 19  2  0
 20 21  2  0
 20 22  1  0
M  CHG  1  12   1
M  END
