
     RDKit          3D

 12 12  0  0  0  0  0  0  0  0999 V2000
    4.3220    0.9100   -0.6370 C   0  0  0  0  0  0  0  0  0  0  0  0
    2.9300    0.7630   -0.7000 O   0  0  0  0  0  0  0  0  0  0  0  0
    2.6460   -0.5880   -0.4800 C   0  0  0  0  0  0  0  0  0  0  0  0
    1.1590   -0.8350   -0.5460 C   0  0  0  0  0  0  0  0  0  0  0  0
    0.4210    0.0240    0.4920 C   0  0  0  0  0  0  0  0  0  0  0  0
   -0.9810   -0.2840    0.3580 N   0  0  0  0  0  0  0  0  0  0  0  0
   -1.4780   -1.2970   -0.4570 N   0  0  0  0  0  0  0  0  0  0  0  0
   -2.7260   -1.5720   -0.5530 C   0  0  0  0  0  0  0  0  0  0  0  0
   -3.7270   -0.8250    0.2030 C   0  0  0  0  0  0  0  0  0  0  0  0
   -3.1800    0.2330    1.0510 C   0  0  0  0  0  0  0  0  0  0  0  0
   -1.8950    0.4970    1.1320 C   0  0  0  0  0  0  0  0  0  0  0  0
   -1.4020    1.5830    1.9830 C   0  0  0  0  0  0  0  0  0  0  0  0
  1  2  1  0
  2  3  1  0
  3  4  1  0
  4  5  1  0
  5  6  1  0
  6  7  1  0
  6 11  1  0
  7  8  2  0
  8  9  1  0
  9 10  1  0
 10 11  2  0
 11 12  1  0
M  END
