
     RDKit          3D

 12 12  0  0  0  0  0  0  0  0999 V2000
    3.6880    1.5180   -0.4340 C   0  0  0  0  0  0  0  0  0  0  0  0
    2.6640    0.8860    0.0570 C   0  0  0  0  0  0  0  0  0  0  0  0
    2.2730   -0.4040   -0.3560 N   0  0  0  0  0  0  0  0  0  0  0  0
    3.2390   -1.2670   -0.9880 C   0  0  0  0  0  0  0  0  0  0  0  0
    0.9360   -0.9210   -0.1800 C   0  0  0  0  0  0  0  0  0  0  0  0
    0.0180    0.0690    0.4950 C   0  0  0  0  0  0  0  0  0  0  0  0
   -1.3040   -0.5310    0.6330 N   0  0  0  0  0  0  0  0  0  0  0  0
   -1.8980   -0.6880   -0.6800 C   0  0  0  0  0  0  0  0  0  0  0  0
   -3.4220   -0.6470   -0.5220 C   0  0  0  0  0  0  0  0  0  0  0  0
   -3.7480    0.6680   -0.2510 O   0  0  0  0  0  0  0  0  0  0  0  0
   -2.7580    1.3510    0.4430 C   0  0  0  0  0  0  0  0  0  0  0  0
   -2.1120    0.3890    1.4110 C   0  0  0  0  0  0  0  0  0  0  0  0
  1  2  2  0
  2  3  1  0
  3  4  1  0
  3  5  1  0
  5  6  1  0
  6  7  1  0
  7  8  1  0
  7 12  1  0
  8  9  1  0
  9 10  1  0
 10 11  1  0
 11 12  1  0
M  END
