
     RDKit          3D

 25 26  0  0  0  0  0  0  0  0999 V2000
    2.8810    0.3360   -1.0650 N   0  0  0  0  0  0  0  0  0  0  0  0
    1.8480    0.4040   -0.0720 C   0  0  2  0  0  0  0  0  0  0  0  0
    2.2230   -0.4430    1.0930 C   0  0  0  0  0  0  0  0  0  0  0  0
    3.4230   -0.1300    1.8900 C   0  0  0  0  0  0  0  0  0  0  0  0
    4.7310   -0.1490    1.2420 C   0  0  0  0  0  0  0  0  0  0  0  0
    5.3970   -1.3800    1.1140 C   0  0  0  0  0  0  0  0  0  0  0  0
    6.6520   -1.4260    0.5560 C   0  0  0  0  0  0  0  0  0  0  0  0
    7.3120   -0.3010    0.1020 C   0  0  0  0  0  0  0  0  0  0  0  0
    6.6590    0.8910    0.2300 C   0  0  0  0  0  0  0  0  0  0  0  0
    5.4070    0.9760    0.7820 C   0  0  0  0  0  0  0  0  0  0  0  0
    0.1930    0.2900   -0.6760 P   0  0  0  0  0  0  0  0  0  0  0  0
    0.2750    1.4650   -1.6420 O   0  0  0  0  0  0  0  0  0  0  0  0
   -0.0580   -0.6760   -2.0570 O   0  0  0  0  0  0  0  0  0  0  0  0
   -1.1200    0.8200    0.2970 C   0  0  0  0  0  0  0  0  0  0  0  0
   -2.4470    0.2360   -0.1400 C   0  0  1  0  0  0  0  0  0  0  0  0
   -3.5450    0.7240    0.8120 C   0  0  0  0  0  0  0  0  0  0  0  0
   -4.8510    0.1800    0.4240 C   0  0  0  0  0  0  0  0  0  0  0  0
   -5.7280    0.8200   -0.4250 C   0  0  0  0  0  0  0  0  0  0  0  0
   -6.9460    0.3040   -0.7820 C   0  0  0  0  0  0  0  0  0  0  0  0
   -7.3410   -0.9010   -0.2900 C   0  0  0  0  0  0  0  0  0  0  0  0
   -6.5090   -1.5840    0.5610 C   0  0  0  0  0  0  0  0  0  0  0  0
   -5.2840   -1.0570    0.9160 C   0  0  0  0  0  0  0  0  0  0  0  0
   -2.8240    0.6430   -1.5290 C   0  0  0  0  0  0  0  0  0  0  0  0
   -2.2590    1.5900   -2.0780 O   0  0  0  0  0  0  0  0  0  0  0  0
   -3.8240   -0.0930   -2.1400 O   0  0  0  0  0  0  0  0  0  0  0  0
  2  1  1  6
  2  3  1  0
  2 11  1  0
  3  4  1  0
  4  5  1  0
  5  6  2  0
  5 10  1  0
  6  7  1  0
  7  8  2  0
  8  9  1  0
  9 10  2  0
 11 12  1  0
 11 13  1  0
 11 14  1  0
 15 14  1  1
 15 16  1  0
 15 23  1  0
 16 17  1  0
 17 18  2  0
 17 22  1  0
 18 19  1  0
 19 20  2  0
 20 21  1  0
 21 22  2  0
 23 24  2  0
 23 25  1  0
M  CHG  1   1   1
M  END
