
     RDKit          3D

 13 14  0  0  0  0  0  0  0  0999 V2000
   -2.1990   -1.9440    0.6880 N   0  0  0  0  0  0  0  0  0  0  0  0
   -1.5330   -0.6600    0.4060 C   0  0  2  0  0  0  0  0  0  0  0  0
   -0.1430   -0.9470   -0.0050 C   0  0  0  0  0  0  0  0  0  0  0  0
    0.7240    0.1950   -0.3400 C   0  0  0  0  0  0  0  0  0  0  0  0
    2.0500   -0.3090   -0.7210 N   0  0  0  0  0  0  0  0  0  0  0  0
    2.9290    0.8080   -1.0600 C   0  0  0  0  0  0  0  0  0  0  0  0
    4.2730    0.2820   -0.6290 C   0  0  0  0  0  0  0  0  0  0  0  0
    4.0620   -0.9520   -0.0550 O   0  0  0  0  0  0  0  0  0  0  0  0
    2.7520   -0.8720    0.4160 C   0  0  0  0  0  0  0  0  0  0  0  0
   -1.7590    0.2240    1.5490 C   0  0  0  0  0  0  0  0  0  0  0  0
   -2.0210    1.6270    1.0320 C   0  0  0  0  0  0  0  0  0  0  0  0
   -2.7730    1.3190   -0.2460 C   0  0  0  0  0  0  0  0  0  0  0  0
   -2.3180   -0.0180   -0.7180 C   0  0  0  0  0  0  0  0  0  0  0  0
  2  1  1  1
  2  3  1  0
  2 10  1  0
  2 13  1  0
  3  4  1  0
  4  5  1  0
  5  6  1  0
  5  9  1  0
  6  7  1  0
  7  8  1  0
  8  9  1  0
 10 11  1  0
 11 12  1  0
 12 13  1  0
M  CHG  1   1   1
M  END
