
     RDKit          3D

 13 14  0  0  0  0  0  0  0  0999 V2000
    2.8230    1.3740    0.4190 N   0  0  0  0  0  0  0  0  0  0  0  0
    3.4240    0.0340    0.3900 C   0  0  0  0  0  0  0  0  0  0  0  0
    2.6700   -0.8140   -0.6300 C   0  0  0  0  0  0  0  0  0  0  0  0
    1.2390   -0.9140   -0.2420 C   0  0  0  0  0  0  0  0  0  0  0  0
    0.7070   -1.8940    0.5670 C   0  0  0  0  0  0  0  0  0  0  0  0
   -0.6370   -1.6300    0.6790 C   0  0  0  0  0  0  0  0  0  0  0  0
   -0.8690   -0.4950   -0.0690 C   0  0  0  0  0  0  0  0  0  0  0  0
   -2.1850    0.1510   -0.2320 C   0  0  0  0  0  0  0  0  0  0  0  0
   -3.3700   -0.2650    0.3240 C   0  0  0  0  0  0  0  0  0  0  0  0
   -4.3880    0.5880   -0.0510 C   0  0  0  0  0  0  0  0  0  0  0  0
   -3.7900    1.5340   -0.8510 C   0  0  0  0  0  0  0  0  0  0  0  0
   -2.4790    1.2510   -0.9420 N   0  0  0  0  0  0  0  0  0  0  0  0
    0.2630   -0.1380   -0.5720 O   0  0  0  0  0  0  0  0  0  0  0  0
  1  2  1  0
  2  3  1  0
  3  4  1  0
  4  5  2  0
  4 13  1  0
  5  6  1  0
  6  7  2  0
  7  8  1  0
  7 13  1  0
  8  9  2  0
  8 12  1  0
  9 10  1  0
 10 11  2  0
 11 12  1  0
M  CHG  1   1   1
M  END
