
     RDKit          3D

 13 14  0  0  0  0  0  0  0  0999 V2000
   -2.1980   -2.4080   -0.4780 O   0  0  0  0  0  0  0  0  0  0  0  0
   -2.1610   -1.0770   -0.0350 C   0  0  0  0  0  0  0  0  0  0  0  0
   -3.3050   -0.4050    0.3420 C   0  0  0  0  0  0  0  0  0  0  0  0
   -3.2460    0.8960    0.7720 C   0  0  0  0  0  0  0  0  0  0  0  0
   -2.0270    1.5270    0.8240 C   0  0  0  0  0  0  0  0  0  0  0  0
   -0.8820    0.8880    0.4580 C   0  0  0  0  0  0  0  0  0  0  0  0
   -0.9410   -0.4340    0.0210 C   0  0  0  0  0  0  0  0  0  0  0  0
    0.2140   -1.1130   -0.3590 N   0  0  0  0  0  0  0  0  0  0  0  0
    1.4820   -0.4550   -0.3050 C   0  0  0  0  0  0  0  0  0  0  0  0
    1.8450    0.4830   -1.1560 C   0  0  0  0  0  0  0  0  0  0  0  0
    3.1440    0.9130   -0.8180 N   0  0  0  0  0  0  0  0  0  0  0  0
    3.5250    0.1560    0.3030 C   0  0  0  0  0  0  0  0  0  0  0  0
    2.5640   -0.6720    0.6430 C   0  0  0  0  0  0  0  0  0  0  0  0
  1  2  1  0
  2  3  2  0
  2  7  1  0
  3  4  1  0
  4  5  2  0
  5  6  1  0
  6  7  2  0
  7  8  1  0
  8  9  1  0
  9 10  2  0
  9 13  1  0
 10 11  1  0
 11 12  1  0
 12 13  2  0
M  CHG  1  11   1
M  END
