
     RDKit          3D

 23 25  0  0  0  0  0  0  0  0999 V2000
    5.3020    2.2540    1.5970 C   0  0  0  0  0  0  0  0  0  0  0  0
    4.5690    1.1590    1.4460 C   0  0  0  0  0  0  0  0  0  0  0  0
    3.0890    1.2280    1.1580 C   0  0  0  0  0  0  0  0  0  0  0  0
    2.8080    0.5720   -0.1170 N   0  0  0  0  0  0  0  0  0  0  0  0
    3.3370    1.2820   -1.2900 C   0  0  0  0  0  0  0  0  0  0  0  0
    2.1010   -0.6310   -0.2150 C   0  0  0  0  0  0  0  0  0  0  0  0
    2.7090   -1.8060   -0.6790 C   0  0  0  0  0  0  0  0  0  0  0  0
    2.0360   -3.0000   -0.7680 C   0  0  0  0  0  0  0  0  0  0  0  0
    0.7210   -3.0470   -0.3890 C   0  0  0  0  0  0  0  0  0  0  0  0
    0.1150   -1.9010    0.0670 C   0  0  0  0  0  0  0  0  0  0  0  0
   -1.2230   -1.9610    0.4450 C   0  0  0  0  0  0  0  0  0  0  0  0
   -1.8540   -0.8240    0.9010 C   0  0  0  0  0  0  0  0  0  0  0  0
   -3.1770   -0.9270    1.2650 O   0  0  0  0  0  0  0  0  0  0  0  0
   -4.2320   -0.7290    0.3850 C   0  0  0  0  0  0  0  0  0  0  0  0
   -4.8690   -1.7020   -0.2790 N   0  0  0  0  0  0  0  0  0  0  0  0
   -5.8160   -1.1770   -1.0260 N   0  0  0  0  0  0  0  0  0  0  0  0
   -5.8010    0.1560   -0.8520 C   0  0  0  0  0  0  0  0  0  0  0  0
   -6.5780    0.9680   -1.4190 O   0  0  0  0  0  0  0  0  0  0  0  0
   -4.8160    0.4230    0.0250 N   0  0  0  0  0  0  0  0  0  0  0  0
   -4.4490    1.7520    0.5020 C   0  0  0  0  0  0  0  0  0  0  0  0
   -1.1840    0.3660    0.9890 C   0  0  0  0  0  0  0  0  0  0  0  0
    0.1240    0.4320    0.6210 C   0  0  0  0  0  0  0  0  0  0  0  0
    0.7780   -0.6900    0.1620 C   0  0  0  0  0  0  0  0  0  0  0  0
  1  2  2  0
  2  3  1  0
  3  4  1  0
  4  5  1  0
  4  6  1  0
  6  7  2  0
  6 23  1  0
  7  8  1  0
  8  9  2  0
  9 10  1  0
 10 11  2  0
 10 23  1  0
 11 12  1  0
 12 13  1  0
 12 21  2  0
 13 14  1  0
 14 15  2  0
 14 19  1  0
 15 16  1  0
 16 17  1  0
 17 18  2  0
 17 19  1  0
 19 20  1  0
 21 22  1  0
 22 23  2  0
M  END
