
     RDKit          3D

 19 21  0  0  0  0  0  0  0  0999 V2000
   -1.3330   -2.4350   -2.0470 O   0  0  0  0  0  0  0  0  0  0  0  0
   -0.9880   -1.5120   -1.2780 C   0  0  0  0  0  0  0  0  0  0  0  0
    0.3580   -1.2850   -1.0370 C   0  0  0  0  0  0  0  0  0  0  0  0
    0.7470   -0.2800   -0.1990 C   0  0  0  0  0  0  0  0  0  0  0  0
    2.1460    0.0300    0.1130 C   0  0  0  0  0  0  0  0  0  0  0  0
    3.1970   -0.6760   -0.4220 C   0  0  0  0  0  0  0  0  0  0  0  0
    4.5200   -0.3660   -0.1130 C   0  0  0  0  0  0  0  0  0  0  0  0
    4.8070    0.6670    0.7430 C   0  0  0  0  0  0  0  0  0  0  0  0
    3.7670    1.3880    1.2910 C   0  0  0  0  0  0  0  0  0  0  0  0
    2.4580    1.0620    0.9700 C   0  0  0  0  0  0  0  0  0  0  0  0
   -0.1990    0.4420    0.3530 O   0  0  0  0  0  0  0  0  0  0  0  0
   -1.4740    0.3150    0.1970 C   0  0  0  0  0  0  0  0  0  0  0  0
   -2.3980    1.1320    0.8270 C   0  0  0  0  0  0  0  0  0  0  0  0
   -3.7480    0.9720    0.6410 C   0  0  0  0  0  0  0  0  0  0  0  0
   -4.6350    1.8200    1.2980 O   0  0  0  0  0  0  0  0  0  0  0  0
   -4.1730   -0.0320   -0.1980 C   0  0  0  0  0  0  0  0  0  0  0  0
   -3.2640   -0.8810   -0.8550 C   0  0  0  0  0  0  0  0  0  0  0  0
   -3.8170   -1.8280   -1.6530 O   0  0  0  0  0  0  0  0  0  0  0  0
   -1.9130   -0.7060   -0.6570 C   0  0  0  0  0  0  0  0  0  0  0  0
  1  2  2  0
  2  3  1  0
  2 19  1  0
  3  4  2  0
  4  5  1  0
  4 11  1  0
  5  6  2  0
  5 10  1  0
  6  7  1  0
  7  8  2  0
  8  9  1  0
  9 10  2  0
 11 12  1  0
 12 13  2  0
 12 19  1  0
 13 14  1  0
 14 15  1  0
 14 16  2  0
 16 17  1  0
 17 18  1  0
 17 19  2  0
M  END
