
     RDKit          3D

 28 29  0  0  0  0  0  0  0  0999 V2000
   -3.7950   -1.4110   -3.6700 C   0  0  0  0  0  0  0  0  0  0  0  0
   -2.7460   -1.3500   -3.0870 C   0  0  0  0  0  0  0  0  0  0  0  0
   -2.3860   -0.8650   -1.7860 C   0  0  0  0  0  0  0  0  0  0  0  0
   -1.1040   -0.9220   -1.3750 C   0  0  0  0  0  0  0  0  0  0  0  0
   -0.0920   -1.4740   -2.2280 C   0  0  0  0  0  0  0  0  0  0  0  0
   -0.2720   -2.0010   -3.4640 O   0  0  0  0  0  0  0  0  0  0  0  0
   -0.5490   -0.5450    0.0120 C   0  0  0  0  0  0  0  0  0  0  0  0
    0.1300   -1.5320    0.5010 C   0  0  0  0  0  0  0  0  0  0  0  0
    0.9420   -2.0220    1.6600 C   0  0  0  0  0  0  0  0  0  0  0  0
    0.2190   -2.9890    2.5250 C   0  0  0  0  0  0  0  0  0  0  0  0
    0.7240   -3.5420    3.6230 O   0  0  0  0  0  0  0  0  0  0  0  0
    2.1760   -1.6750    1.9790 C   0  0  0  0  0  0  0  0  0  0  0  0
    3.0910   -2.0780    3.0590 C   0  0  0  0  0  0  0  0  0  0  0  0
    2.7900   -3.3780    4.1700 Cl  0  0  0  0  0  0  0  0  0  0  0  0
    2.8280   -0.7010    1.1180 O   0  0  0  0  0  0  0  0  0  0  0  0
    2.6600    0.6290    0.9010 C   0  0  0  0  0  0  0  0  0  0  0  0
    2.5670    0.9920   -0.5530 C   0  0  2  0  0  0  0  0  0  0  0  0
    3.9820    0.9670   -1.1620 C   0  0  0  0  0  0  0  0  0  0  0  0
    2.1440    2.3360   -0.7260 O   0  0  0  0  0  0  0  0  0  0  0  0
    1.6040    3.1890    0.1510 C   0  0  0  0  0  0  0  0  0  0  0  0
    2.1740    4.2280    0.5530 O   0  0  0  0  0  0  0  0  0  0  0  0
    0.2390    2.9200    0.7050 C   0  0  1  0  0  0  0  0  0  0  0  0
   -0.6150    4.2150    0.5800 C   0  0  0  0  0  0  0  0  0  0  0  0
   -0.4430    1.9120   -0.0480 N   0  0  0  0  0  0  0  0  0  0  0  0
   -0.9240    0.7640    0.6010 C   0  0  1  0  0  0  0  0  0  0  0  0
   -2.4260    0.7480    0.8100 C   0  0  0  0  0  0  0  0  0  0  0  0
   -3.1910    0.9870   -0.4410 C   0  0  0  0  0  0  0  0  0  0  0  0
   -3.5660   -0.3950   -1.0090 C   0  0  0  0  0  0  0  0  0  0  0  0
  1  2  2  0
  2  3  1  0
  3  4  2  0
  3 28  1  0
  4  5  1  0
  4  7  1  0
  5  6  1  0
  7  8  2  0
  7 25  1  0
  8  9  1  0
  9 10  1  0
  9 12  2  0
 10 11  1  0
 12 13  1  0
 12 15  1  0
 13 14  1  0
 15 16  1  0
 16 17  1  0
 17 18  1  1
 17 19  1  0
 19 20  1  0
 20 21  2  0
 20 22  1  0
 22 23  1  6
 22 24  1  0
 24 25  1  0
 25 26  1  6
 26 27  1  0
 27 28  1  0
M  CHG  1  24   1
M  END
