
     RDKit          3D

 28 30  0  0  0  0  0  0  0  0999 V2000
   -5.4840    2.9590    0.7910 C   0  0  0  0  0  0  0  0  0  0  0  0
   -5.1540    1.8020    1.5340 O   0  0  0  0  0  0  0  0  0  0  0  0
   -4.9510    0.6070    0.8950 C   0  0  0  0  0  0  0  0  0  0  0  0
   -3.6830    0.1870    0.9040 C   0  0  0  0  0  0  0  0  0  0  0  0
   -2.9930   -0.9830    0.3730 C   0  0  0  0  0  0  0  0  0  0  0  0
   -1.6060   -0.9020    0.3620 O   0  0  0  0  0  0  0  0  0  0  0  0
   -0.8860   -0.3920   -0.7160 C   0  0  0  0  0  0  0  0  0  0  0  0
   -1.5980   -0.0020   -1.7030 O   0  0  0  0  0  0  0  0  0  0  0  0
    0.5860   -0.3030   -0.7340 C   0  0  1  0  0  0  0  0  0  0  0  0
    1.0020    0.2990   -2.0630 C   0  0  0  0  0  0  0  0  0  0  0  0
    2.2280    1.0040   -1.9480 O   0  0  0  0  0  0  0  0  0  0  0  0
    3.1460    0.7610   -0.9320 C   0  0  0  0  0  0  0  0  0  0  0  0
    4.4920    0.7820   -1.1030 C   0  0  0  0  0  0  0  0  0  0  0  0
    5.4270    0.5360   -0.0720 C   0  0  0  0  0  0  0  0  0  0  0  0
    6.8190    0.5940   -0.4060 C   0  0  0  0  0  0  0  0  0  0  0  0
    7.8500    0.4100    0.3380 C   0  0  0  0  0  0  0  0  0  0  0  0
    7.9440    0.0990    1.6920 N   0  0  0  0  0  0  0  0  0  0  0  0
    4.8600    0.2690    1.1390 C   0  0  0  0  0  0  0  0  0  0  0  0
    3.4630    0.2410    1.3420 C   0  0  0  0  0  0  0  0  0  0  0  0
    2.6220    0.4860    0.3130 C   0  0  0  0  0  0  0  0  0  0  0  0
    1.1360    0.4800    0.4300 C   0  0  0  0  0  0  0  0  0  0  0  0
   -3.4490   -2.1300   -0.1090 C   0  0  0  0  0  0  0  0  0  0  0  0
   -4.7450   -2.7780   -0.3460 C   0  0  0  0  0  0  0  0  0  0  0  0
   -5.9830   -2.3390   -0.3520 C   0  0  0  0  0  0  0  0  0  0  0  0
   -6.8840   -3.3600   -0.6360 O   0  0  0  0  0  0  0  0  0  0  0  0
   -6.6420   -1.0570   -0.1360 C   0  0  0  0  0  0  0  0  0  0  0  0
   -8.3230   -1.0870   -0.6400 Cl  0  0  0  0  0  0  0  0  0  0  0  0
   -6.2290    0.1000    0.3560 C   0  0  0  0  0  0  0  0  0  0  0  0
  1  2  1  0
  2  3  1  0
  3  4  2  0
  3 28  1  0
  4  5  1  0
  5  6  1  0
  5 22  2  0
  6  7  1  0
  7  8  2  0
  9  7  1  1
  9 10  1  0
  9 21  1  0
 10 11  1  0
 11 12  1  0
 12 13  2  0
 12 20  1  0
 13 14  1  0
 14 15  1  0
 14 18  2  0
 15 16  2  3
 16 17  1  0
 18 19  1  0
 19 20  2  0
 20 21  1  0
 22 23  1  0
 23 24  2  0
 24 25  1  0
 24 26  1  0
 26 27  1  0
 26 28  2  0
M  CHG  1  17   1
M  END
