
     RDKit          3D

 28 30  0  0  0  0  0  0  0  0999 V2000
   -3.2350    3.6440   -0.1280 C   0  0  0  0  0  0  0  0  0  0  0  0
   -3.3810    2.1830    0.1280 C   0  0  0  0  0  0  0  0  0  0  0  0
   -2.5950    1.3400   -0.5130 C   0  0  0  0  0  0  0  0  0  0  0  0
   -1.6010    1.9420   -1.4650 C   0  0  0  0  0  0  0  0  0  0  0  0
   -1.0430    1.0330   -2.3280 O   0  0  0  0  0  0  0  0  0  0  0  0
    0.2010    0.7810   -2.7870 C   0  0  0  0  0  0  0  0  0  0  0  0
    0.6920    1.2340   -3.8840 O   0  0  0  0  0  0  0  0  0  0  0  0
    1.1350   -0.0840   -2.0140 C   0  0  0  0  0  0  0  0  0  0  0  0
    1.9390    0.7200   -1.0140 C   0  0  2  0  0  0  0  0  0  0  0  0
    3.0740   -0.1570   -0.5580 C   0  0  0  0  0  0  0  0  0  0  0  0
    3.1200   -1.0750    0.4590 C   0  0  0  0  0  0  0  0  0  0  0  0
    4.3860   -1.6160    0.4730 C   0  0  0  0  0  0  0  0  0  0  0  0
    5.0740   -1.0030   -0.5470 C   0  0  0  0  0  0  0  0  0  0  0  0
    6.4870   -1.2830   -0.8980 C   0  0  0  0  0  0  0  0  0  0  0  0
    4.2750   -0.1670   -1.1150 O   0  0  0  0  0  0  0  0  0  0  0  0
    1.2470    1.3680   -0.0710 O   0  0  0  0  0  0  0  0  0  0  0  0
    0.5200    1.2490    1.0300 C   0  0  0  0  0  0  0  0  0  0  0  0
    0.3180    2.3400    1.7110 O   0  0  0  0  0  0  0  0  0  0  0  0
   -0.1270    0.0790    1.6510 C   0  0  0  0  0  0  0  0  0  0  0  0
   -0.0750    0.0600    2.9960 C   0  0  0  0  0  0  0  0  0  0  0  0
   -0.6480   -1.0040    3.8480 C   0  0  0  0  0  0  0  0  0  0  0  0
   -1.8730   -0.4240    4.9650 Cl  0  0  0  0  0  0  0  0  0  0  0  0
   -0.7760   -1.0060    0.9290 C   0  0  0  0  0  0  0  0  0  0  0  0
   -1.8030   -1.0680    0.1460 C   0  0  0  0  0  0  0  0  0  0  0  0
   -2.3700   -2.3300   -0.5490 C   0  0  0  0  0  0  0  0  0  0  0  0
   -3.7870   -2.1340   -0.1460 N   0  0  0  0  0  0  0  0  0  0  0  0
   -3.9420   -0.7290   -0.4260 C   0  0  0  0  0  0  0  0  0  0  0  0
   -2.7550   -0.0870   -0.2850 C   0  0  0  0  0  0  0  0  0  0  0  0
  1  2  1  0
  2  3  2  3
  3  4  1  0
  3 28  1  0
  4  5  1  0
  5  6  1  0
  6  7  2  0
  6  8  1  0
  8  9  1  0
  9 10  1  1
  9 16  1  0
 10 11  2  0
 10 15  1  0
 11 12  1  0
 12 13  2  0
 13 14  1  0
 13 15  1  0
 16 17  1  0
 17 18  2  0
 17 19  1  0
 19 20  2  3
 19 23  1  0
 20 21  1  0
 21 22  1  0
 23 24  2  0
 24 25  1  0
 24 28  1  0
 25 26  1  0
 26 27  1  0
 27 28  2  0
M  CHG  1  26   1
M  END
