
     RDKit          3D

 28 30  0  0  0  0  0  0  0  0999 V2000
    5.9700    1.8110    1.2990 C   0  0  0  0  0  0  0  0  0  0  0  0
    4.6010    1.4750    0.7510 C   0  0  0  0  0  0  0  0  0  0  0  0
    3.5820    2.1220    1.2020 C   0  0  0  0  0  0  0  0  0  0  0  0
    3.9130    3.3670    2.4490 Cl  0  0  0  0  0  0  0  0  0  0  0  0
    4.5410    0.4320   -0.2580 C   0  0  0  0  0  0  0  0  0  0  0  0
    5.6820   -0.1410   -0.6180 C   0  0  0  0  0  0  0  0  0  0  0  0
    5.8950   -1.1810   -1.5790 C   0  0  0  0  0  0  0  0  0  0  0  0
    7.0970   -1.6030   -1.7840 O   0  0  0  0  0  0  0  0  0  0  0  0
    3.2750    0.0270   -0.8550 C   0  0  0  0  0  0  0  0  0  0  0  0
    3.1960   -0.8910   -1.7480 O   0  0  0  0  0  0  0  0  0  0  0  0
    2.0350    0.5520   -0.5580 O   0  0  0  0  0  0  0  0  0  0  0  0
    0.8490    0.1410   -1.1480 C   0  0  2  0  0  0  0  0  0  0  0  0
    0.1880    1.2380   -1.9550 C   0  0  0  0  0  0  0  0  0  0  0  0
   -1.0510    0.7470   -2.6120 C   0  0  0  0  0  0  0  0  0  0  0  0
   -1.5220   -0.5970   -2.0960 C   0  0  1  0  0  0  0  0  0  0  0  0
   -0.8640   -1.5690   -2.7680 O   0  0  0  0  0  0  0  0  0  0  0  0
   -1.4830   -0.6650   -0.5960 C   0  0  1  0  0  0  0  0  0  0  0  0
   -2.3650    0.4890   -0.1210 C   0  0  0  0  0  0  0  0  0  0  0  0
   -2.4850    0.5780    1.3090 N   0  0  0  0  0  0  0  0  0  0  0  0
   -3.7030   -0.1270    1.6440 C   0  0  0  0  0  0  0  0  0  0  0  0
   -4.4550    0.4860    2.6110 C   0  0  0  0  0  0  0  0  0  0  0  0
   -5.6410   -0.1420    2.9750 C   0  0  0  0  0  0  0  0  0  0  0  0
   -6.0660   -1.3260    2.4080 C   0  0  0  0  0  0  0  0  0  0  0  0
   -5.2960   -1.9270    1.4380 C   0  0  0  0  0  0  0  0  0  0  0  0
   -4.1060   -1.3230    1.0530 C   0  0  0  0  0  0  0  0  0  0  0  0
   -3.4140   -2.0250    0.0630 O   0  0  0  0  0  0  0  0  0  0  0  0
   -2.0060   -1.9720   -0.1190 C   0  0  0  0  0  0  0  0  0  0  0  0
   -0.0680   -0.4590   -0.1100 C   0  0  0  0  0  0  0  0  0  0  0  0
  1  2  1  0
  2  3  2  3
  2  5  1  0
  3  4  1  0
  5  6  2  3
  5  9  1  0
  6  7  1  0
  7  8  2  0
  9 10  2  0
  9 11  1  0
 12 11  1  1
 12 13  1  0
 12 28  1  0
 13 14  1  0
 14 15  1  0
 15 16  1  6
 15 17  1  0
 17 18  1  1
 17 27  1  0
 17 28  1  0
 18 19  1  0
 19 20  1  0
 20 21  2  0
 20 25  1  0
 21 22  1  0
 22 23  2  0
 23 24  1  0
 24 25  2  0
 25 26  1  0
 26 27  1  0
M  CHG  1  19   1
M  END
