
     RDKit          3D

 28 31  0  0  0  0  0  0  0  0999 V2000
   -4.4640    1.3550    0.7990 C   0  0  0  0  0  0  0  0  0  0  0  0
   -3.1920    2.0230    0.5200 N   0  0  1  0  0  0  0  0  0  0  0  0
   -2.1810    1.6660    1.4630 C   0  0  0  0  0  0  0  0  0  0  0  0
   -1.1260    0.7330    0.8950 C   0  0  0  0  0  0  0  0  0  0  0  0
   -1.7820   -0.1330   -0.1550 C   0  0  2  0  0  0  0  0  0  0  0  0
   -1.0510   -1.3360   -0.5450 C   0  0  0  0  0  0  0  0  0  0  0  0
   -1.8110   -2.4200   -1.0380 C   0  0  0  0  0  0  0  0  0  0  0  0
   -3.1890   -2.2840   -1.1400 O   0  0  0  0  0  0  0  0  0  0  0  0
   -1.2560   -3.5990   -1.4160 C   0  0  0  0  0  0  0  0  0  0  0  0
    0.1410   -3.7500   -1.3130 C   0  0  0  0  0  0  0  0  0  0  0  0
    0.6740   -4.9430   -1.6990 O   0  0  0  0  0  0  0  0  0  0  0  0
    0.8850   -2.6980   -0.8360 C   0  0  0  0  0  0  0  0  0  0  0  0
    2.2470   -2.8250   -0.7320 C   0  0  0  0  0  0  0  0  0  0  0  0
    2.8400   -3.8940   -1.0590 O   0  0  0  0  0  0  0  0  0  0  0  0
    2.9930   -1.7700   -0.2620 C   0  0  0  0  0  0  0  0  0  0  0  0
    2.3490   -0.5750    0.1040 C   0  0  0  0  0  0  0  0  0  0  0  0
    3.2800    0.4500    0.5620 C   0  0  0  0  0  0  0  0  0  0  0  0
    4.4360    0.0780    1.2640 C   0  0  0  0  0  0  0  0  0  0  0  0
    5.3980    0.9800    1.6570 C   0  0  0  0  0  0  0  0  0  0  0  0
    5.2570    2.3130    1.3690 C   0  0  0  0  0  0  0  0  0  0  0  0
    4.1400    2.7140    0.6840 C   0  0  0  0  0  0  0  0  0  0  0  0
    3.1610    1.7720    0.2860 C   0  0  0  0  0  0  0  0  0  0  0  0
    1.8470    2.3920   -0.6750 Cl  0  0  0  0  0  0  0  0  0  0  0  0
    1.0540   -0.4700    0.0010 O   0  0  0  0  0  0  0  0  0  0  0  0
    0.3080   -1.4730   -0.4460 C   0  0  0  0  0  0  0  0  0  0  0  0
   -2.1410    0.7520   -1.3380 C   0  0  2  0  0  0  0  0  0  0  0  0
   -0.9850    1.0690   -2.0810 O   0  0  0  0  0  0  0  0  0  0  0  0
   -2.8220    1.9850   -0.8590 C   0  0  0  0  0  0  0  0  0  0  0  0
  2  1  1  6
  2  3  1  0
  2 28  1  0
  3  4  1  0
  4  5  1  0
  5  6  1  6
  5 26  1  0
  6  7  2  0
  6 25  1  0
  7  8  1  0
  7  9  1  0
  9 10  2  0
 10 11  1  0
 10 12  1  0
 12 13  1  0
 12 25  2  0
 13 14  2  0
 13 15  1  0
 15 16  2  0
 16 17  1  0
 16 24  1  0
 17 18  2  0
 17 22  1  0
 18 19  1  0
 19 20  2  0
 20 21  1  0
 21 22  2  0
 22 23  1  0
 24 25  1  0
 26 27  1  1
 26 28  1  0
M  CHG  1   2   1
M  END
