
     RDKit          3D

 28 30  0  0  0  0  0  0  0  0999 V2000
   -3.6890   -2.4420   -1.9320 C   0  0  0  0  0  0  0  0  0  0  0  0
   -3.3490   -2.2820   -0.4940 C   0  0  0  0  0  0  0  0  0  0  0  0
   -2.5120   -1.1030   -0.1260 C   0  0  0  0  0  0  0  0  0  0  0  0
   -1.1530   -1.2600    0.0050 C   0  0  0  0  0  0  0  0  0  0  0  0
   -0.2660   -0.2540    0.3870 C   0  0  0  0  0  0  0  0  0  0  0  0
   -0.8570    1.0060    0.6360 C   0  0  0  0  0  0  0  0  0  0  0  0
   -2.2200    1.1610    0.5110 C   0  0  0  0  0  0  0  0  0  0  0  0
   -3.0790    0.1350    0.1320 C   0  0  0  0  0  0  0  0  0  0  0  0
   -4.5220    0.2970   -0.1290 C   0  0  2  0  0  0  0  0  0  0  0  0
   -4.6740    1.4540   -1.0910 N   0  0  0  0  0  0  0  0  0  0  0  0
   -5.3060    0.8060    1.0640 C   0  0  0  0  0  0  0  0  0  0  0  0
   -4.7890    1.9390    1.5990 O   0  0  0  0  0  0  0  0  0  0  0  0
   -0.0960    2.0490    0.9820 O   0  0  0  0  0  0  0  0  0  0  0  0
    1.2040    2.4490    0.9100 C   0  0  0  0  0  0  0  0  0  0  0  0
    1.9980    2.2460   -0.3180 C   0  0  0  0  0  0  0  0  0  0  0  0
    1.8840    2.5570   -1.6370 C   0  0  0  0  0  0  0  0  0  0  0  0
    3.0120    2.0630   -2.2810 C   0  0  0  0  0  0  0  0  0  0  0  0
    3.7770    1.4520   -1.2890 C   0  0  0  0  0  0  0  0  0  0  0  0
    3.1170    1.6070   -0.1890 O   0  0  0  0  0  0  0  0  0  0  0  0
    5.0630    0.7280   -1.1950 C   0  0  0  0  0  0  0  0  0  0  0  0
    4.8350   -0.5990   -0.7360 O   0  0  0  0  0  0  0  0  0  0  0  0
    5.2690   -0.6430    0.5610 C   0  0  0  0  0  0  0  0  0  0  0  0
    4.8590   -1.8320    1.3670 C   0  0  0  0  0  0  0  0  0  0  0  0
    3.7180   -2.6190    0.8930 C   0  0  0  0  0  0  0  0  0  0  0  0
    4.1000   -4.2390    0.2330 Cl  0  0  0  0  0  0  0  0  0  0  0  0
    2.4720   -2.2190    0.9190 C   0  0  0  0  0  0  0  0  0  0  0  0
    1.9690   -0.8930    1.4480 C   0  0  0  0  0  0  0  0  0  0  0  0
    1.0690   -0.4430    0.5220 O   0  0  0  0  0  0  0  0  0  0  0  0
  1  2  1  0
  2  3  1  0
  3  4  2  0
  3  8  1  0
  4  5  1  0
  5  6  2  0
  5 28  1  0
  6  7  1  0
  6 13  1  0
  7  8  2  0
  8  9  1  0
  9 10  1  6
  9 11  1  0
 11 12  1  0
 13 14  1  0
 14 15  1  0
 15 16  2  0
 15 19  1  0
 16 17  1  0
 17 18  2  0
 18 19  1  0
 18 20  1  0
 20 21  1  0
 21 22  1  0
 22 23  1  0
 23 24  1  0
 24 25  1  0
 24 26  2  0
 26 27  1  0
 27 28  1  0
M  CHG  1  10   1
M  END
