
     RDKit          3D

 22 24  0  0  0  0  0  0  0  0999 V2000
    6.5500    0.5190    0.3940 C   0  0  0  0  0  0  0  0  0  0  0  0
    5.4590    0.7770   -0.6480 C   0  0  0  0  0  0  0  0  0  0  0  0
    4.1600    0.2930    0.0050 C   0  0  0  0  0  0  0  0  0  0  0  0
    3.0640    0.4730   -0.8540 O   0  0  0  0  0  0  0  0  0  0  0  0
    1.8130    0.0980   -0.4420 C   0  0  0  0  0  0  0  0  0  0  0  0
    1.0730    1.0910    0.0390 C   0  0  0  0  0  0  0  0  0  0  0  0
   -0.2250    1.0550    0.5340 O   0  0  0  0  0  0  0  0  0  0  0  0
   -1.2490    0.1660    0.2500 C   0  0  0  0  0  0  0  0  0  0  0  0
   -2.4840    0.7070    0.4610 N   0  0  0  0  0  0  0  0  0  0  0  0
   -3.6110    0.0130    0.2460 C   0  0  0  0  0  0  0  0  0  0  0  0
   -4.9450    0.3290    0.3820 C   0  0  0  0  0  0  0  0  0  0  0  0
   -5.4470    1.6490    0.8450 C   0  0  0  0  0  0  0  0  0  0  0  0
   -6.8950    1.6130    0.8620 C   0  0  0  0  0  0  0  0  0  0  0  0
   -8.0680    1.5960    0.8930 N   0  0  0  0  0  0  0  0  0  0  0  0
   -5.6160   -0.7690    0.0180 N   0  0  0  0  0  0  0  0  0  0  0  0
   -4.7550   -1.7360   -0.3310 N   0  0  0  0  0  0  0  0  0  0  0  0
   -3.4960   -1.2980   -0.2060 C   0  0  0  0  0  0  0  0  0  0  0  0
   -2.2410   -1.8620   -0.4250 C   0  0  0  0  0  0  0  0  0  0  0  0
   -1.1070   -1.1300   -0.1970 C   0  0  0  0  0  0  0  0  0  0  0  0
    0.1060   -1.8230   -0.4600 N   0  0  0  0  0  0  0  0  0  0  0  0
    1.4270   -1.3060   -0.5680 C   0  0  0  0  0  0  0  0  0  0  0  0
    2.3730   -2.1040   -0.7910 O   0  0  0  0  0  0  0  0  0  0  0  0
  1  2  1  0
  2  3  1  0
  3  4  1  0
  4  5  1  0
  5  6  2  0
  5 21  1  0
  6  7  1  0
  7  8  1  0
  8  9  2  0
  8 19  1  0
  9 10  1  0
 10 11  1  0
 10 17  2  0
 11 12  1  0
 11 15  2  0
 12 13  1  0
 13 14  3  0
 15 16  1  0
 16 17  1  0
 17 18  1  0
 18 19  2  0
 19 20  1  0
 20 21  1  0
 21 22  2  0
M  END
