
     RDKit          3D

 22 24  0  0  0  0  0  0  0  0999 V2000
   -2.7850   -3.0050    0.0290 C   0  0  0  0  0  0  0  0  0  0  0  0
   -2.5290   -1.5880    0.2620 N   0  0  0  0  0  0  0  0  0  0  0  0
   -1.2020   -1.0630    0.2260 C   0  0  0  0  0  0  0  0  0  0  0  0
   -0.1770   -1.9200   -0.0320 N   0  0  0  0  0  0  0  0  0  0  0  0
    1.0990   -1.4830   -0.0800 C   0  0  0  0  0  0  0  0  0  0  0  0
    2.1260   -2.3290   -0.3360 N   0  0  0  0  0  0  0  0  0  0  0  0
    3.3980   -1.8950   -0.3840 C   0  0  0  0  0  0  0  0  0  0  0  0
    4.4600   -2.7790   -0.6510 O   0  0  0  0  0  0  0  0  0  0  0  0
    3.6940   -0.5700   -0.1710 C   0  0  0  0  0  0  0  0  0  0  0  0
    4.9600   -0.0500   -0.2020 O   0  0  0  0  0  0  0  0  0  0  0  0
    5.3100    1.2760    0.0050 C   0  0  0  0  0  0  0  0  0  0  0  0
    2.6490    0.2920    0.0910 C   0  0  0  0  0  0  0  0  0  0  0  0
    1.3390   -0.1460    0.1410 C   0  0  0  0  0  0  0  0  0  0  0  0
    0.2990    0.7500    0.4080 C   0  0  0  0  0  0  0  0  0  0  0  0
    0.5730    1.9580    0.6020 O   0  0  0  0  0  0  0  0  0  0  0  0
   -0.9880    0.2740    0.4490 C   0  0  0  0  0  0  0  0  0  0  0  0
   -2.0890    1.1900    0.7260 C   0  0  0  0  0  0  0  0  0  0  0  0
   -2.5920    1.5030    1.9390 N   0  0  0  0  0  0  0  0  0  0  0  0
   -3.5940    2.3750    1.7990 C   0  0  0  0  0  0  0  0  0  0  0  0
   -3.6960    2.5950    0.4430 C   0  0  0  0  0  0  0  0  0  0  0  0
   -2.7760    1.8700   -0.2080 N   0  0  0  0  0  0  0  0  0  0  0  0
   -2.5690    1.8330   -1.6430 C   0  0  0  0  0  0  0  0  0  0  0  0
  1  2  1  0
  2  3  1  0
  3  4  1  0
  3 16  2  0
  4  5  1  0
  5  6  2  0
  5 13  1  0
  6  7  1  0
  7  8  1  0
  7  9  2  0
  9 10  1  0
  9 12  1  0
 10 11  1  0
 12 13  2  0
 13 14  1  0
 14 15  2  0
 14 16  1  0
 16 17  1  0
 17 18  2  0
 17 21  1  0
 18 19  1  0
 19 20  2  0
 20 21  1  0
 21 22  1  0
M  END
