
     RDKit          3D

 22 24  0  0  0  0  0  0  0  0999 V2000
    2.6400   -2.5350   -1.3830 O   0  0  0  0  0  0  0  0  0  0  0  0
    1.6590   -1.9350   -0.8950 C   0  0  0  0  0  0  0  0  0  0  0  0
    0.2970   -2.5880   -0.8810 C   0  0  0  0  0  0  0  0  0  0  0  0
   -0.6840   -1.7380   -0.2810 N   0  0  0  0  0  0  0  0  0  0  0  0
   -0.9300   -1.7810    1.0150 N   0  0  0  0  0  0  0  0  0  0  0  0
   -1.8410   -1.0030    1.6240 C   0  0  0  0  0  0  0  0  0  0  0  0
   -2.5680   -0.1060    0.8690 C   0  0  0  0  0  0  0  0  0  0  0  0
   -3.5180    0.7240    1.4120 C   0  0  0  0  0  0  0  0  0  0  0  0
   -4.1930    1.5810    0.5970 C   0  0  0  0  0  0  0  0  0  0  0  0
   -3.9590    1.6500   -0.7650 C   0  0  0  0  0  0  0  0  0  0  0  0
   -3.0080    0.8220   -1.3240 C   0  0  0  0  0  0  0  0  0  0  0  0
   -2.3310   -0.0400   -0.5010 C   0  0  0  0  0  0  0  0  0  0  0  0
   -1.3820   -0.8720   -1.0300 C   0  0  0  0  0  0  0  0  0  0  0  0
   -1.1580   -0.8190   -2.2790 O   0  0  0  0  0  0  0  0  0  0  0  0
    1.7950   -0.6370   -0.3450 N   0  0  0  0  0  0  0  0  0  0  0  0
    2.9940    0.1070   -0.2820 C   0  0  0  0  0  0  0  0  0  0  0  0
    4.2150   -0.2970   -0.7360 C   0  0  0  0  0  0  0  0  0  0  0  0
    5.3190    0.4780   -0.6370 N   0  0  0  0  0  0  0  0  0  0  0  0
    5.2610    1.6750   -0.0890 N   0  0  0  0  0  0  0  0  0  0  0  0
    4.0920    2.1230    0.3730 C   0  0  0  0  0  0  0  0  0  0  0  0
    2.9200    1.3780    0.3030 C   0  0  0  0  0  0  0  0  0  0  0  0
    1.7820    1.9360    0.8070 O   0  0  0  0  0  0  0  0  0  0  0  0
  1  2  2  0
  2  3  1  0
  2 15  1  0
  3  4  1  0
  4  5  1  0
  4 13  1  0
  5  6  2  0
  6  7  1  0
  7  8  2  0
  7 12  1  0
  8  9  1  0
  9 10  2  0
 10 11  1  0
 11 12  2  0
 12 13  1  0
 13 14  2  0
 15 16  1  0
 16 17  2  0
 16 21  1  0
 17 18  1  0
 18 19  2  0
 19 20  1  0
 20 21  2  0
 21 22  1  0
M  END
