
     RDKit          3D

 22 24  0  0  0  0  0  0  0  0999 V2000
   -1.1170   -1.4110   -0.0700 O   0  0  0  0  0  0  0  0  0  0  0  0
   -0.6430   -0.3080    0.3130 C   0  0  0  0  0  0  0  0  0  0  0  0
   -1.5180    0.6910    0.7430 N   0  0  0  0  0  0  0  0  0  0  0  0
   -2.9490    0.5300    0.7720 C   0  0  0  0  0  0  0  0  0  0  0  0
   -3.5570    0.2490   -0.5670 C   0  0  0  0  0  0  0  0  0  0  0  0
   -5.0330    0.1120   -0.3650 C   0  0  0  0  0  0  0  0  0  0  0  0
   -5.9260    1.1590   -0.4370 C   0  0  0  0  0  0  0  0  0  0  0  0
   -7.1640    0.5930   -0.1910 C   0  0  0  0  0  0  0  0  0  0  0  0
   -6.9800   -0.7460    0.0170 C   0  0  0  0  0  0  0  0  0  0  0  0
   -5.6850   -0.9760   -0.1000 O   0  0  0  0  0  0  0  0  0  0  0  0
    0.8060   -0.1740    0.2720 C   0  0  0  0  0  0  0  0  0  0  0  0
    1.3040    0.9330    0.6550 O   0  0  0  0  0  0  0  0  0  0  0  0
    1.6640   -1.2130   -0.1720 N   0  0  0  0  0  0  0  0  0  0  0  0
    3.0770   -1.0150   -0.1870 C   0  0  0  0  0  0  0  0  0  0  0  0
    3.9330   -2.0110   -0.6140 C   0  0  0  0  0  0  0  0  0  0  0  0
    5.2610   -1.8050   -0.6220 N   0  0  0  0  0  0  0  0  0  0  0  0
    5.7790   -0.6410   -0.2180 N   0  0  0  0  0  0  0  0  0  0  0  0
    7.0500   -0.2000   -0.1340 C   0  0  0  0  0  0  0  0  0  0  0  0
    7.0460    1.0850    0.3480 C   0  0  0  0  0  0  0  0  0  0  0  0
    5.7590    1.4530    0.5670 C   0  0  0  0  0  0  0  0  0  0  0  0
    4.9810    0.3530    0.2040 C   0  0  0  0  0  0  0  0  0  0  0  0
    3.6490    0.1330    0.2060 N   0  0  0  0  0  0  0  0  0  0  0  0
  1  2  2  0
  2  3  1  0
  2 11  1  0
  3  4  1  0
  4  5  1  0
  5  6  1  0
  6  7  2  0
  6 10  1  0
  7  8  1  0
  8  9  2  0
  9 10  1  0
 11 12  2  0
 11 13  1  0
 13 14  1  0
 14 15  1  0
 14 22  2  0
 15 16  2  0
 16 17  1  0
 17 18  1  0
 17 21  1  0
 18 19  2  0
 19 20  1  0
 20 21  2  0
 21 22  1  0
M  END
