
     RDKit          3D

 20 22  0  0  0  0  0  0  0  0999 V2000
    4.7010   -0.4380   -1.0250 C   0  0  0  0  0  0  0  0  0  0  0  0
    3.3630   -0.1440   -0.4130 C   0  0  0  0  0  0  0  0  0  0  0  0
    3.3080    0.4930    0.7930 C   0  0  0  0  0  0  0  0  0  0  0  0
    2.0400    0.7590    1.3490 C   0  0  0  0  0  0  0  0  0  0  0  0
    2.0210    1.3880    2.5400 O   0  0  0  0  0  0  0  0  0  0  0  0
    0.9130    0.3720    0.6650 C   0  0  0  0  0  0  0  0  0  0  0  0
    0.9880   -0.2770   -0.5630 C   0  0  0  0  0  0  0  0  0  0  0  0
    2.2460   -0.5350   -1.1040 C   0  0  0  0  0  0  0  0  0  0  0  0
   -0.2070   -0.6800   -1.2750 C   0  0  0  0  0  0  0  0  0  0  0  0
   -0.0870   -1.2640   -2.3820 O   0  0  0  0  0  0  0  0  0  0  0  0
   -1.5080   -0.4010   -0.6930 C   0  0  0  0  0  0  0  0  0  0  0  0
   -2.6700   -0.7700   -1.3390 C   0  0  0  0  0  0  0  0  0  0  0  0
   -3.9050   -0.5100   -0.7970 C   0  0  0  0  0  0  0  0  0  0  0  0
   -5.0850   -0.8770   -1.4410 O   0  0  0  0  0  0  0  0  0  0  0  0
   -4.0240    0.1340    0.4250 C   0  0  0  0  0  0  0  0  0  0  0  0
   -2.8780    0.5040    1.0750 C   0  0  0  0  0  0  0  0  0  0  0  0
   -2.9510    1.1440    2.2880 O   0  0  0  0  0  0  0  0  0  0  0  0
   -1.6500    0.2330    0.5120 C   0  0  0  0  0  0  0  0  0  0  0  0
   -0.4080    0.6310    1.2110 C   0  0  0  0  0  0  0  0  0  0  0  0
   -0.5590    1.2200    2.3310 O   0  0  0  0  0  0  0  0  0  0  0  0
  1  2  1  0
  2  3  2  0
  2  8  1  0
  3  4  1  0
  4  5  1  0
  4  6  2  0
  6  7  1  0
  6 19  1  0
  7  8  2  0
  7  9  1  0
  9 10  2  0
  9 11  1  0
 11 12  2  0
 11 18  1  0
 12 13  1  0
 13 14  1  0
 13 15  2  0
 15 16  1  0
 16 17  1  0
 16 18  2  0
 18 19  1  0
 19 20  2  0
M  END
