
     RDKit          3D

 20 22  0  0  0  0  0  0  0  0999 V2000
    3.6550    2.4020    0.3500 C   0  0  0  0  0  0  0  0  0  0  0  0
    2.9170    1.1530   -0.0040 C   0  0  0  0  0  0  0  0  0  0  0  0
    1.5230    1.0750    0.1310 C   0  0  0  0  0  0  0  0  0  0  0  0
    0.9250   -0.1130   -0.2180 C   0  0  0  0  0  0  0  0  0  0  0  0
    1.6720   -1.1860   -0.6830 C   0  0  0  0  0  0  0  0  0  0  0  0
    2.9750   -1.0630   -0.7920 O   0  0  0  0  0  0  0  0  0  0  0  0
    3.5620    0.0550   -0.4660 C   0  0  0  0  0  0  0  0  0  0  0  0
    4.8120    0.1020   -0.5950 O   0  0  0  0  0  0  0  0  0  0  0  0
    1.0250   -2.3330   -1.0120 C   0  0  0  0  0  0  0  0  0  0  0  0
    1.7360   -3.4040   -1.4720 O   0  0  0  0  0  0  0  0  0  0  0  0
   -0.3640   -2.4670   -0.8970 C   0  0  0  0  0  0  0  0  0  0  0  0
   -0.9410   -3.6440   -1.2450 O   0  0  0  0  0  0  0  0  0  0  0  0
   -1.1200   -1.4100   -0.4370 C   0  0  0  0  0  0  0  0  0  0  0  0
   -2.4910   -1.4940   -0.3070 C   0  0  0  0  0  0  0  0  0  0  0  0
   -3.1890   -0.3990    0.1600 C   0  0  0  0  0  0  0  0  0  0  0  0
   -2.5560    0.7680    0.4980 C   0  0  0  0  0  0  0  0  0  0  0  0
   -3.3650    1.9260    1.0000 C   0  0  0  0  0  0  0  0  0  0  0  0
   -3.4210    1.7660    2.4030 O   0  0  0  0  0  0  0  0  0  0  0  0
   -1.1890    0.8670    0.3730 C   0  0  0  0  0  0  0  0  0  0  0  0
   -0.4740   -0.2120   -0.0900 C   0  0  0  0  0  0  0  0  0  0  0  0
  1  2  1  0
  2  3  2  0
  2  7  1  0
  3  4  1  0
  4  5  2  0
  4 20  1  0
  5  6  1  0
  5  9  1  0
  6  7  1  0
  7  8  2  0
  9 10  1  0
  9 11  2  0
 11 12  1  0
 11 13  1  0
 13 14  2  0
 13 20  1  0
 14 15  1  0
 15 16  2  0
 16 17  1  0
 16 19  1  0
 17 18  1  0
 19 20  2  0
M  END
