
     RDKit          3D

 20 22  0  0  0  0  0  0  0  0999 V2000
    4.4290   -0.1750    0.8660 C   0  0  0  0  0  0  0  0  0  0  0  0
    3.5930    0.2020   -0.2130 O   0  0  0  0  0  0  0  0  0  0  0  0
    2.2310    0.0200   -0.2230 C   0  0  0  0  0  0  0  0  0  0  0  0
    1.7110   -1.1470   -0.7190 C   0  0  0  0  0  0  0  0  0  0  0  0
    2.5980   -2.2010   -1.2370 C   0  0  0  0  0  0  0  0  0  0  0  0
    0.3360   -1.3280   -0.7280 C   0  0  0  0  0  0  0  0  0  0  0  0
   -0.5320   -0.3520   -0.2450 C   0  0  0  0  0  0  0  0  0  0  0  0
    0.0160    0.8140    0.2480 C   0  0  0  0  0  0  0  0  0  0  0  0
    1.4140    1.0110    0.2640 C   0  0  0  0  0  0  0  0  0  0  0  0
    1.9020    2.2040    0.7720 O   0  0  0  0  0  0  0  0  0  0  0  0
   -0.8400    1.8760    0.7690 C   0  0  1  0  0  0  0  0  0  0  0  0
   -0.4630    3.1080    0.1690 O   0  0  0  0  0  0  0  0  0  0  0  0
   -2.2910    1.6840    0.7590 C   0  0  0  0  0  0  0  0  0  0  0  0
   -2.8230    0.4370    0.2290 C   0  0  0  0  0  0  0  0  0  0  0  0
   -4.2140    0.2410    0.2140 C   0  0  0  0  0  0  0  0  0  0  0  0
   -4.6510   -0.9520   -0.2970 C   0  0  0  0  0  0  0  0  0  0  0  0
   -5.8830   -1.1810   -0.3350 O   0  0  0  0  0  0  0  0  0  0  0  0
   -3.8500   -1.8710   -0.7510 O   0  0  0  0  0  0  0  0  0  0  0  0
   -2.5340   -1.6950   -0.7410 C   0  0  0  0  0  0  0  0  0  0  0  0
   -1.9660   -0.5380   -0.2530 C   0  0  0  0  0  0  0  0  0  0  0  0
  1  2  1  0
  2  3  1  0
  3  4  2  0
  3  9  1  0
  4  5  1  0
  4  6  1  0
  6  7  2  0
  7  8  1  0
  7 20  1  0
  8  9  2  0
  8 11  1  0
  9 10  1  0
 11 12  1  6
 11 13  1  0
 13 14  1  0
 14 15  2  0
 14 20  1  0
 15 16  1  0
 16 17  2  0
 16 18  1  0
 18 19  1  0
 19 20  2  0
M  END
