
     RDKit          3D

 20 22  0  0  0  0  0  0  0  0999 V2000
   -2.7420    3.1860    0.5990 C   0  0  0  0  0  0  0  0  0  0  0  0
   -3.1920    1.7950    0.3830 C   0  0  0  0  0  0  0  0  0  0  0  0
   -2.3100    0.8300    0.1930 C   0  0  0  0  0  0  0  0  0  0  0  0
   -1.0270    0.9210    0.1670 O   0  0  0  0  0  0  0  0  0  0  0  0
   -0.4210   -0.2230   -0.0430 C   0  0  0  0  0  0  0  0  0  0  0  0
    1.0300   -0.3190   -0.1070 C   0  0  0  0  0  0  0  0  0  0  0  0
    1.8030    0.8480    0.0540 C   0  0  0  0  0  0  0  0  0  0  0  0
    1.1360    2.0410    0.2640 O   0  0  0  0  0  0  0  0  0  0  0  0
    3.1700    0.8370    0.0080 C   0  0  0  0  0  0  0  0  0  0  0  0
    3.9730    1.9470    0.1580 O   0  0  0  0  0  0  0  0  0  0  0  0
    3.7950   -0.3730   -0.2040 C   0  0  0  0  0  0  0  0  0  0  0  0
    5.2880   -0.4860   -0.2700 C   0  0  0  0  0  0  0  0  0  0  0  0
    3.0830   -1.4630   -0.3540 O   0  0  0  0  0  0  0  0  0  0  0  0
    1.7470   -1.4660   -0.3110 C   0  0  0  0  0  0  0  0  0  0  0  0
    1.1350   -2.5530   -0.4640 O   0  0  0  0  0  0  0  0  0  0  0  0
   -1.3790   -1.1850   -0.1720 C   0  0  0  0  0  0  0  0  0  0  0  0
   -2.5960   -0.5230   -0.0220 C   0  0  0  0  0  0  0  0  0  0  0  0
   -3.6170   -1.3280   -0.1220 C   0  0  0  0  0  0  0  0  0  0  0  0
   -3.1680   -2.7060   -0.3660 C   0  0  0  0  0  0  0  0  0  0  0  0
   -1.6690   -2.6130   -0.4020 C   0  0  0  0  0  0  0  0  0  0  0  0
  1  2  1  0
  2  3  2  3
  3  4  1  0
  3 17  1  0
  4  5  1  0
  5  6  1  0
  5 16  2  0
  6  7  2  0
  6 14  1  0
  7  8  1  0
  7  9  1  0
  9 10  1  0
  9 11  2  0
 11 12  1  0
 11 13  1  0
 13 14  1  0
 14 15  2  0
 16 17  1  0
 16 20  1  0
 17 18  2  0
 18 19  1  0
 19 20  1  0
M  END
