
     RDKit          3D

 20 22  0  0  0  0  0  0  0  0999 V2000
   -2.9180   -0.2870    1.8460 C   0  0  0  0  0  0  0  0  0  0  0  0
   -2.2450    0.5850    0.9600 O   0  0  0  0  0  0  0  0  0  0  0  0
   -2.4630    0.4060   -0.4080 C   0  0  0  0  0  0  0  0  0  0  0  0
   -1.5930   -0.1680   -1.2090 C   0  0  0  0  0  0  0  0  0  0  0  0
   -0.3050   -0.6970   -0.8620 C   0  0  0  0  0  0  0  0  0  0  0  0
    0.0240   -2.0380   -1.0880 C   0  0  0  0  0  0  0  0  0  0  0  0
    1.2730   -2.5640   -0.7690 C   0  0  0  0  0  0  0  0  0  0  0  0
    1.5750   -3.9110   -1.0060 O   0  0  0  0  0  0  0  0  0  0  0  0
    2.2210   -1.7320   -0.2100 C   0  0  0  0  0  0  0  0  0  0  0  0
    1.8780   -0.4200    0.0020 C   0  0  0  0  0  0  0  0  0  0  0  0
    2.9120    0.2990    0.5400 C   0  0  0  0  0  0  0  0  0  0  0  0
    2.7620    1.6600    0.8070 C   0  0  0  0  0  0  0  0  0  0  0  0
    3.7730    2.4220    1.3480 O   0  0  0  0  0  0  0  0  0  0  0  0
    1.5420    2.2140    0.5020 C   0  0  0  0  0  0  0  0  0  0  0  0
    0.4940    1.4620   -0.0490 C   0  0  0  0  0  0  0  0  0  0  0  0
    0.6590    0.1130   -0.3050 C   0  0  0  0  0  0  0  0  0  0  0  0
    4.0330   -0.6460    0.7160 C   0  0  0  0  0  0  0  0  0  0  0  0
    3.5260   -1.8930    0.2240 O   0  0  0  0  0  0  0  0  0  0  0  0
   -3.7520    0.8940   -0.9820 C   0  0  0  0  0  0  0  0  0  0  0  0
   -3.9090    2.2640   -0.8000 O   0  0  0  0  0  0  0  0  0  0  0  0
  1  2  1  0
  2  3  1  0
  3  4  2  3
  3 19  1  0
  4  5  1  0
  5  6  2  0
  5 16  1  0
  6  7  1  0
  7  8  1  0
  7  9  2  0
  9 10  1  0
  9 18  1  0
 10 11  2  0
 10 16  1  0
 11 12  1  0
 11 17  1  0
 12 13  1  0
 12 14  2  0
 14 15  1  0
 15 16  2  0
 17 18  1  0
 19 20  1  0
M  END
