
     RDKit          3D

 31 33  0  0  0  0  0  0  0  0999 V2000
   -5.6990    3.3490    0.5370 C   0  0  0  0  0  0  0  0  0  0  0  0
   -5.4210    2.0970   -0.2840 C   0  0  0  0  0  0  0  0  0  0  0  0
   -4.0870    2.1830   -0.9740 C   0  0  0  0  0  0  0  0  0  0  0  0
   -3.7780    0.6870   -1.9480 S   0  0  0  0  0  0  0  0  0  0  0  0
   -3.6130   -0.6800   -0.8250 C   0  0  0  0  0  0  0  0  0  0  0  0
   -4.7460   -1.4120   -0.4580 C   0  0  0  0  0  0  0  0  0  0  0  0
   -5.8390   -1.0770   -0.9380 O   0  0  0  0  0  0  0  0  0  0  0  0
   -4.6410   -2.4370    0.3840 N   0  0  0  0  0  0  0  0  0  0  0  0
   -3.4590   -2.8050    0.9070 C   0  0  0  0  0  0  0  0  0  0  0  0
   -3.3880   -3.9560    1.8440 C   0  0  0  0  0  0  0  0  0  0  0  0
   -2.2970   -2.1240    0.5860 C   0  0  0  0  0  0  0  0  0  0  0  0
   -1.0810   -2.4880    1.1110 C   0  0  0  0  0  0  0  0  0  0  0  0
   -1.0060   -3.4540    1.9000 O   0  0  0  0  0  0  0  0  0  0  0  0
   -0.0550   -1.7860    0.7460 O   0  0  0  0  0  0  0  0  0  0  0  0
   -0.0370   -0.7800   -0.0570 C   0  0  0  0  0  0  0  0  0  0  0  0
    1.2290   -0.0950   -0.3620 C   0  0  0  0  0  0  0  0  0  0  0  0
    1.5190    0.9160   -1.1140 C   0  0  0  0  0  0  0  0  0  0  0  0
    2.9130    1.1730   -1.0540 O   0  0  0  0  0  0  0  0  0  0  0  0
    3.4960   -0.0170   -0.6230 C   0  0  2  0  0  0  0  0  0  0  0  0
    4.6800    0.1970    0.2880 C   0  0  0  0  0  0  0  0  0  0  0  0
    5.7890    0.9720   -0.3450 C   0  0  1  0  0  0  0  0  0  0  0  0
    5.3470    2.3430   -0.7760 C   0  0  0  0  0  0  0  0  0  0  0  0
    6.8180    1.1550    0.6850 N   0  0  0  0  0  0  0  0  0  0  0  0
    6.3140    2.0160    1.6030 O   0  0  0  0  0  0  0  0  0  0  0  0
    3.7320   -1.0020   -1.6690 C   0  0  0  0  0  0  0  0  0  0  0  0
    4.3140   -2.2390   -1.3550 N   0  0  0  0  0  0  0  0  0  0  0  0
    3.4210   -0.7570   -2.8550 O   0  0  0  0  0  0  0  0  0  0  0  0
    2.4430   -0.5250    0.2110 O   0  0  0  0  0  0  0  0  0  0  0  0
   -1.2510   -0.3600   -0.6260 C   0  0  0  0  0  0  0  0  0  0  0  0
   -1.2950    0.6570   -1.4500 O   0  0  0  0  0  0  0  0  0  0  0  0
   -2.4110   -1.0510   -0.2960 C   0  0  0  0  0  0  0  0  0  0  0  0
  1  2  1  0
  2  3  1  0
  3  4  1  0
  4  5  1  0
  5  6  1  0
  5 31  2  0
  6  7  2  0
  6  8  1  0
  8  9  1  0
  9 10  1  0
  9 11  2  0
 11 12  1  0
 11 31  1  0
 12 13  2  0
 12 14  1  0
 14 15  1  0
 15 16  1  0
 15 29  2  0
 16 17  2  0
 16 28  1  0
 17 18  1  0
 18 19  1  0
 19 20  1  1
 19 25  1  0
 19 28  1  0
 20 21  1  0
 21 22  1  1
 21 23  1  0
 23 24  1  0
 25 26  1  0
 25 27  2  0
 29 30  1  0
 29 31  1  0
M  CHG  2  23   1  24  -1
M  END
