
     RDKit          3D

 30 32  0  0  0  0  0  0  0  0999 V2000
   -6.0400   -0.8050    2.8750 N   0  0  0  0  0  0  0  0  0  0  0  0
   -5.0730   -0.5610    1.8710 C   0  0  0  0  0  0  0  0  0  0  0  0
   -5.2920   -1.0510    0.7330 O   0  0  0  0  0  0  0  0  0  0  0  0
   -3.8990    0.1810    2.0570 N   0  0  0  0  0  0  0  0  0  0  0  0
   -2.9800    0.3710    0.9770 C   0  0  1  0  0  0  0  0  0  0  0  0
   -3.6320    1.0800   -0.1800 C   0  0  0  0  0  0  0  0  0  0  0  0
   -3.6780    0.4680   -1.3380 C   0  0  0  0  0  0  0  0  0  0  0  0
   -4.2950    1.0820   -2.5260 C   0  0  0  0  0  0  0  0  0  0  0  0
   -4.7980    2.3480   -2.2510 O   0  0  0  0  0  0  0  0  0  0  0  0
   -4.7690    3.0170   -1.0590 C   0  0  0  0  0  0  0  0  0  0  0  0
   -4.1980    2.4050   -0.0330 C   0  0  0  0  0  0  0  0  0  0  0  0
   -1.8610    1.2240    1.3690 N   0  0  0  0  0  0  0  0  0  0  0  0
   -0.7850    0.7890    0.5900 N   0  0  0  0  0  0  0  0  0  0  0  0
   -1.0190   -0.3970    0.1040 C   0  0  0  0  0  0  0  0  0  0  0  0
   -0.0780   -1.1390   -0.7640 C   0  0  2  0  0  0  0  0  0  0  0  0
    0.3310   -2.4650   -0.1290 C   0  0  0  0  0  0  0  0  0  0  0  0
    1.2350   -3.1820   -1.0680 C   0  0  0  0  0  0  0  0  0  0  0  0
    1.6760   -4.4120   -0.5450 O   0  0  0  0  0  0  0  0  0  0  0  0
    1.0470   -0.3230   -1.1470 N   0  0  0  0  0  0  0  0  0  0  0  0
    2.2630   -0.2770   -0.4180 C   0  0  0  0  0  0  0  0  0  0  0  0
    2.3730   -0.9610    0.6170 O   0  0  0  0  0  0  0  0  0  0  0  0
    3.3580    0.5330   -0.8410 N   0  0  0  0  0  0  0  0  0  0  0  0
    4.6010    0.6740   -0.2290 C   0  0  0  0  0  0  0  0  0  0  0  0
    4.9690    0.0300    0.9090 C   0  0  0  0  0  0  0  0  0  0  0  0
    6.2380    0.2110    1.4850 C   0  0  0  0  0  0  0  0  0  0  0  0
    7.1380    1.0490    0.9030 C   0  0  0  0  0  0  0  0  0  0  0  0
    8.4110    1.2460    1.4580 O   0  0  0  0  0  0  0  0  0  0  0  0
    6.7850    1.7110   -0.2500 C   0  0  0  0  0  0  0  0  0  0  0  0
    5.5380    1.5210   -0.7970 C   0  0  0  0  0  0  0  0  0  0  0  0
   -2.3030   -0.8170    0.5530 N   0  0  0  0  0  0  0  0  0  0  0  0
  1  2  1  0
  2  3  2  0
  2  4  1  0
  5  4  1  1
  5  6  1  0
  5 12  1  0
  5 30  1  0
  6  7  2  0
  6 11  1  0
  7  8  1  0
  8  9  1  0
  9 10  1  0
 10 11  2  0
 12 13  1  0
 13 14  2  0
 14 15  1  0
 14 30  1  0
 15 16  1  1
 15 19  1  0
 16 17  1  0
 17 18  1  0
 19 20  1  0
 20 21  2  0
 20 22  1  0
 22 23  1  0
 23 24  2  0
 23 29  1  0
 24 25  1  0
 25 26  2  0
 26 27  1  0
 26 28  1  0
 28 29  2  0
M  END
