
     RDKit          3D

 31 32  0  0  0  0  0  0  0  0999 V2000
    9.9160   -1.9980   -0.3370 C   0  0  0  0  0  0  0  0  0  0  0  0
    8.8200   -1.2680   -0.6290 C   0  0  0  0  0  0  0  0  0  0  0  0
    8.9440   -0.3220   -1.7540 C   0  0  0  0  0  0  0  0  0  0  0  0
    7.6540   -1.4710    0.1760 C   0  0  0  0  0  0  0  0  0  0  0  0
    6.5140   -0.8070   -0.0260 C   0  0  0  0  0  0  0  0  0  0  0  0
    6.4370    0.1110   -1.0440 O   0  0  0  0  0  0  0  0  0  0  0  0
    5.4130   -1.0950    0.8460 C   0  0  0  0  0  0  0  0  0  0  0  0
    4.2330   -0.5660    0.8350 C   0  0  0  0  0  0  0  0  0  0  0  0
    3.2500   -0.9720    1.7780 O   0  0  0  0  0  0  0  0  0  0  0  0
    2.1130   -0.2470    1.5260 C   0  0  0  0  0  0  0  0  0  0  0  0
    1.0500   -0.3780    2.2010 O   0  0  0  0  0  0  0  0  0  0  0  0
    2.3390    0.6480    0.4100 C   0  0  0  0  0  0  0  0  0  0  0  0
    1.4850    1.5800   -0.2150 N   0  0  0  0  0  0  0  0  0  0  0  0
    0.1470    1.8560    0.1370 C   0  0  0  0  0  0  0  0  0  0  0  0
   -0.4040    1.2590    1.0810 O   0  0  0  0  0  0  0  0  0  0  0  0
   -0.6020    2.8180   -0.5740 O   0  0  0  0  0  0  0  0  0  0  0  0
   -1.9370    3.0930   -0.2240 C   0  0  0  0  0  0  0  0  0  0  0  0
   -2.7700    1.8150   -0.3760 C   0  0  0  0  0  0  0  0  0  0  0  0
   -2.2110    0.8070   -0.7620 O   0  0  0  0  0  0  0  0  0  0  0  0
   -4.1340    1.8370   -0.0710 N   0  0  0  0  0  0  0  0  0  0  0  0
   -5.1560    0.9090   -0.0880 C   0  0  0  0  0  0  0  0  0  0  0  0
   -5.3600   -0.3230   -0.3590 C   0  0  0  0  0  0  0  0  0  0  0  0
   -4.3470   -1.3340   -0.8360 C   0  0  0  0  0  0  0  0  0  0  0  0
   -4.8170   -1.7670   -2.1040 O   0  0  0  0  0  0  0  0  0  0  0  0
   -6.7480   -0.8560   -0.1830 C   0  0  1  0  0  0  0  0  0  0  0  0
   -6.9300   -1.4510    1.1190 N   0  0  0  0  0  0  0  0  0  0  0  0
   -7.7330    0.2340   -0.4710 C   0  0  1  0  0  0  0  0  0  0  0  0
   -9.0190    0.0260    0.2680 C   0  0  0  0  0  0  0  0  0  0  0  0
   -6.8240    1.5590    0.4240 S   0  0  0  0  0  0  0  0  0  0  0  0
    3.6100    0.4380    0.0160 C   0  0  0  0  0  0  0  0  0  0  0  0
    4.1810    1.1430   -1.0560 O   0  0  0  0  0  0  0  0  0  0  0  0
  1  2  2  0
  2  3  1  0
  2  4  1  0
  4  5  2  3
  5  6  1  0
  5  7  1  0
  7  8  2  3
  8  9  1  0
  8 30  1  0
  9 10  1  0
 10 11  2  0
 10 12  1  0
 12 13  1  0
 12 30  2  0
 13 14  1  0
 14 15  2  0
 14 16  1  0
 16 17  1  0
 17 18  1  0
 18 19  2  0
 18 20  1  0
 20 21  1  0
 21 22  2  0
 21 29  1  0
 22 23  1  0
 22 25  1  0
 23 24  1  0
 25 26  1  1
 25 27  1  0
 27 28  1  1
 27 29  1  0
 30 31  1  0
M  CHG  2  24  -1  26   1
M  END
