
     RDKit          3D

 31 33  0  0  0  0  0  0  0  0999 V2000
   -3.5550    2.0880    0.6070 C   0  0  0  0  0  0  0  0  0  0  0  0
   -2.8040    1.3090   -0.4250 C   0  0  1  0  0  0  0  0  0  0  0  0
   -1.7060    0.6220    0.2250 N   0  0  0  0  0  0  0  0  0  0  0  0
   -0.3450    0.8400   -0.0870 C   0  0  0  0  0  0  0  0  0  0  0  0
   -0.0620    1.6800   -0.9820 O   0  0  0  0  0  0  0  0  0  0  0  0
    0.7050    0.1730    0.5440 O   0  0  0  0  0  0  0  0  0  0  0  0
    2.0330    0.4090    0.2140 C   0  0  0  0  0  0  0  0  0  0  0  0
    2.7350    1.3850    0.8890 C   0  0  0  0  0  0  0  0  0  0  0  0
    4.0660    1.6640    0.6000 C   0  0  0  0  0  0  0  0  0  0  0  0
    4.7000    0.9430   -0.3890 C   0  0  0  0  0  0  0  0  0  0  0  0
    6.0310    1.1790   -0.7200 O   0  0  0  0  0  0  0  0  0  0  0  0
    6.9630    0.3940    0.0220 C   0  0  0  0  0  0  0  0  0  0  0  0
    7.3920    0.7910    1.2530 C   0  0  0  0  0  0  0  0  0  0  0  0
    8.5320   -0.5870    1.6700 S   0  0  0  0  0  0  0  0  0  0  0  0
    8.2350   -1.4850    0.0880 C   0  0  0  0  0  0  0  0  0  0  0  0
    8.8570   -2.7110   -0.2400 N   0  0  0  0  0  0  0  0  0  0  0  0
    7.4290   -0.7200   -0.4530 N   0  0  0  0  0  0  0  0  0  0  0  0
    4.0150   -0.0410   -1.0780 C   0  0  0  0  0  0  0  0  0  0  0  0
    2.6970   -0.2890   -0.7650 C   0  0  0  0  0  0  0  0  0  0  0  0
   -3.6960    0.3800   -1.2180 C   0  0  1  0  0  0  0  0  0  0  0  0
   -4.2390   -0.5730   -0.3700 O   0  0  0  0  0  0  0  0  0  0  0  0
   -5.5830   -0.6490   -0.0870 C   0  0  0  0  0  0  0  0  0  0  0  0
   -5.9780   -1.5570    0.7880 C   0  0  0  0  0  0  0  0  0  0  0  0
   -4.9610   -2.4570    1.4290 C   0  0  0  0  0  0  0  0  0  0  0  0
   -3.6880   -2.1770    0.9730 O   0  0  0  0  0  0  0  0  0  0  0  0
   -6.5260    0.2450   -0.7350 C   0  0  0  0  0  0  0  0  0  0  0  0
   -7.8190    0.2080   -0.4930 C   0  0  0  0  0  0  0  0  0  0  0  0
   -8.6570    1.1130   -1.1680 O   0  0  0  0  0  0  0  0  0  0  0  0
   -6.0500    1.1700   -1.6380 O   0  0  0  0  0  0  0  0  0  0  0  0
   -4.6990    1.2230   -1.9030 C   0  0  0  0  0  0  0  0  0  0  0  0
   -4.2980    2.0330   -2.7740 O   0  0  0  0  0  0  0  0  0  0  0  0
  2  1  1  1
  2  3  1  0
  2 20  1  0
  3  4  1  0
  4  5  2  0
  4  6  1  0
  6  7  1  0
  7  8  2  0
  7 19  1  0
  8  9  1  0
  9 10  2  0
 10 11  1  0
 10 18  1  0
 11 12  1  0
 12 13  2  0
 12 17  1  0
 13 14  1  0
 14 15  1  0
 15 16  1  0
 15 17  2  0
 18 19  2  0
 20 21  1  1
 20 30  1  0
 21 22  1  0
 22 23  2  3
 22 26  1  0
 23 24  1  0
 24 25  1  0
 26 27  2  3
 26 29  1  0
 27 28  1  0
 29 30  1  0
 30 31  2  0
M  CHG  2  16   1  28  -1
M  END
