
     RDKit          3D

 30 31  0  0  0  0  0  0  0  0999 V2000
   -6.0200   -1.7580    2.9610 C   0  0  0  0  0  0  0  0  0  0  0  0
   -4.8620   -1.3250    2.2510 O   0  0  0  0  0  0  0  0  0  0  0  0
   -4.7140   -1.7360    0.9400 C   0  0  0  0  0  0  0  0  0  0  0  0
   -5.6260   -2.4780    0.4640 O   0  0  0  0  0  0  0  0  0  0  0  0
   -3.5850   -1.3750    0.0720 C   0  0  0  0  0  0  0  0  0  0  0  0
   -3.4810    0.0320   -0.3770 C   0  0  2  0  0  0  0  0  0  0  0  0
   -3.3640    0.8370    0.7830 O   0  0  0  0  0  0  0  0  0  0  0  0
   -4.5320    0.5720   -1.2600 C   0  0  0  0  0  0  0  0  0  0  0  0
   -5.9270    0.6320   -0.7970 C   0  0  0  0  0  0  0  0  0  0  0  0
   -6.1410    1.4430    0.3900 N   0  0  0  0  0  0  0  0  0  0  0  0
   -2.2180    0.1730   -1.0750 N   0  0  0  0  0  0  0  0  0  0  0  0
   -0.9410   -0.0040   -0.4980 C   0  0  0  0  0  0  0  0  0  0  0  0
   -0.8550   -0.2990    0.7050 O   0  0  0  0  0  0  0  0  0  0  0  0
    0.2720    0.1620   -1.3420 C   0  0  0  0  0  0  0  0  0  0  0  0
    1.4840    0.0120   -0.8580 C   0  0  0  0  0  0  0  0  0  0  0  0
    1.6270   -0.3070    0.4790 O   0  0  0  0  0  0  0  0  0  0  0  0
    1.8350    0.7130    1.4150 C   0  0  0  0  0  0  0  0  0  0  0  0
    2.6730    0.1810   -1.7200 C   0  0  0  0  0  0  0  0  0  0  0  0
    3.8700   -0.0020   -1.1900 C   0  0  0  0  0  0  0  0  0  0  0  0
    5.1020    0.1310   -1.9190 C   0  0  0  0  0  0  0  0  0  0  0  0
    6.3240   -0.0280   -1.4830 C   0  0  0  0  0  0  0  0  0  0  0  0
    6.7030   -0.3880   -0.0990 C   0  0  0  0  0  0  0  0  0  0  0  0
    7.9820   -0.5190    0.2120 C   0  0  0  0  0  0  0  0  0  0  0  0
    7.9930   -0.9510    1.9490 S   0  0  0  0  0  0  0  0  0  0  0  0
    6.1960   -1.2130    2.0560 C   0  0  1  0  0  0  0  0  0  0  0  0
    5.6340   -0.4800    3.1800 N   0  0  0  0  0  0  0  0  0  0  0  0
    5.8120   -0.5900    0.8700 O   0  0  0  0  0  0  0  0  0  0  0  0
    2.4580    0.5160   -3.1100 C   0  0  0  0  0  0  0  0  0  0  0  0
    1.2000    0.6540   -3.5310 C   0  0  0  0  0  0  0  0  0  0  0  0
    0.1220    0.4840   -2.6830 O   0  0  0  0  0  0  0  0  0  0  0  0
  1  2  1  0
  2  3  1  0
  3  4  2  0
  3  5  1  0
  5  6  1  0
  6  7  1  1
  6  8  1  0
  6 11  1  0
  8  9  1  0
  9 10  1  0
 11 12  1  0
 12 13  2  0
 12 14  1  0
 14 15  2  0
 14 30  1  0
 15 16  1  0
 15 18  1  0
 16 17  1  0
 18 19  2  3
 18 28  1  0
 19 20  1  0
 20 21  2  3
 21 22  1  0
 22 23  2  0
 22 27  1  0
 23 24  1  0
 24 25  1  0
 25 26  1  1
 25 27  1  0
 28 29  2  0
 29 30  1  0
M  CHG  2   7  -1  10   1
M  END
