
     RDKit          3D

 30 31  0  0  0  0  0  0  0  0999 V2000
    5.1530    0.8050    0.5880 N   0  0  0  0  0  0  0  0  0  0  0  0
    4.6950    1.1030   -0.5880 C   0  0  0  0  0  0  0  0  0  0  0  0
    3.3110    1.3870   -0.6990 N   0  0  0  0  0  0  0  0  0  0  0  0
    2.4900    1.2240    0.3880 O   0  0  0  0  0  0  0  0  0  0  0  0
    2.2100   -0.0650    0.8080 C   0  0  0  0  0  0  0  0  0  0  0  0
    2.7230   -1.0160    0.1710 O   0  0  0  0  0  0  0  0  0  0  0  0
    1.3450   -0.3320    1.9570 C   0  0  1  0  0  0  0  0  0  0  0  0
    1.8920    0.2920    3.2480 C   0  0  0  0  0  0  0  0  0  0  0  0
    0.8110    0.9120    3.8610 O   0  0  0  0  0  0  0  0  0  0  0  0
   -0.2600    0.0610    4.0380 C   0  0  0  0  0  0  0  0  0  0  0  0
   -0.8270   -0.3510    2.8170 O   0  0  0  0  0  0  0  0  0  0  0  0
   -0.0530    0.2210    1.7860 C   0  0  2  0  0  0  0  0  0  0  0  0
   -0.6310   -0.1570    0.4700 C   0  0  0  0  0  0  0  0  0  0  0  0
   -0.0020   -0.5880   -0.6240 N   0  0  0  0  0  0  0  0  0  0  0  0
   -0.8830   -0.8100   -1.5680 O   0  0  0  0  0  0  0  0  0  0  0  0
   -2.0610   -0.5340   -1.1120 C   0  0  0  0  0  0  0  0  0  0  0  0
   -3.3610   -0.6480   -1.8650 C   0  0  1  0  0  0  0  0  0  0  0  0
   -4.2140   -1.6140   -1.0700 C   0  0  0  0  0  0  0  0  0  0  0  0
   -3.5580   -2.8550   -0.9900 O   0  0  0  0  0  0  0  0  0  0  0  0
   -4.2550   -3.7230   -0.3130 O   0  0  0  0  0  0  0  0  0  0  0  0
   -4.2010    0.9890   -1.9860 P   0  0  0  0  0  0  0  0  0  0  0  0
   -4.6230    1.3580   -3.6370 O   0  0  0  0  0  0  0  0  0  0  0  0
   -6.0050    1.1120   -0.7680 P   0  0  0  0  0  0  0  0  0  0  0  0
   -7.3920    1.5870   -1.7120 O   0  0  0  0  0  0  0  0  0  0  0  0
   -6.3910   -0.3630    0.0240 O   0  0  0  0  0  0  0  0  0  0  0  0
   -1.9390   -0.1240    0.1560 N   0  0  0  0  0  0  0  0  0  0  0  0
    5.5750    1.1300   -1.6870 N   0  0  0  0  0  0  0  0  0  0  0  0
    7.2900    0.6250   -1.5880 P   0  0  0  0  0  0  0  0  0  0  0  0
    7.6920   -0.1970   -3.0450 O   0  0  0  0  0  0  0  0  0  0  0  0
    7.5840   -0.3470   -0.1850 O   0  0  0  0  0  0  0  0  0  0  0  0
  1  2  2  0
  2  3  1  0
  2 27  1  0
  3  4  1  0
  4  5  1  0
  5  6  2  0
  7  5  1  6
  7  8  1  0
  7 12  1  0
  8  9  1  0
  9 10  1  0
 10 11  1  0
 11 12  1  0
 12 13  1  6
 13 14  2  0
 13 26  1  0
 14 15  1  0
 15 16  1  0
 16 17  1  0
 16 26  2  0
 17 18  1  1
 17 21  1  0
 18 19  1  0
 19 20  1  0
 21 22  1  0
 21 23  1  0
 23 24  1  0
 23 25  1  0
 27 28  1  0
 28 29  1  0
 28 30  1  0
M  END
