
     RDKit          3D

 30 31  0  0  0  0  0  0  0  0999 V2000
   -7.1540    3.7710    0.1810 O   0  0  0  0  0  0  0  0  0  0  0  0
   -6.6510    2.6590   -0.7860 P   0  0  0  0  0  0  0  0  0  0  0  0
   -5.8790    1.1800   -0.0750 N   0  0  0  0  0  0  0  0  0  0  0  0
   -4.6260    1.2440    0.5800 C   0  0  0  0  0  0  0  0  0  0  0  0
   -4.0710    2.3660    0.6500 O   0  0  0  0  0  0  0  0  0  0  0  0
   -3.9980    0.0370    1.1600 C   0  0  1  0  0  0  0  0  0  0  0  0
   -2.7520    0.2960    1.7390 O   0  0  0  0  0  0  0  0  0  0  0  0
   -1.6120   -0.3800    1.5380 N   0  0  0  0  0  0  0  0  0  0  0  0
   -0.8740   -0.2770    0.4970 C   0  0  0  0  0  0  0  0  0  0  0  0
   -1.1280    0.5240   -0.5520 N   0  0  0  0  0  0  0  0  0  0  0  0
   -0.3380    0.6170   -1.6350 C   0  0  0  0  0  0  0  0  0  0  0  0
   -0.5890    1.3700   -2.6070 O   0  0  0  0  0  0  0  0  0  0  0  0
    0.7800   -0.1340   -1.6830 N   0  0  0  0  0  0  0  0  0  0  0  0
    1.0750   -0.9430   -0.6690 C   0  0  0  0  0  0  0  0  0  0  0  0
    0.2790   -1.0540    0.4520 C   0  0  0  0  0  0  0  0  0  0  0  0
    0.9090   -1.9770    1.2640 O   0  0  0  0  0  0  0  0  0  0  0  0
    1.6690   -2.7470    0.4390 O   0  0  0  0  0  0  0  0  0  0  0  0
    2.1860   -1.8400   -0.4630 N   0  0  0  0  0  0  0  0  0  0  0  0
    3.4610   -1.8300   -1.0000 C   0  0  0  0  0  0  0  0  0  0  0  0
    4.2180   -2.8070   -0.6270 O   0  0  0  0  0  0  0  0  0  0  0  0
    4.0970   -0.9030   -1.9160 C   0  0  1  0  0  0  0  0  0  0  0  0
    4.2530    0.5060   -1.4000 C   0  0  0  0  0  0  0  0  0  0  0  0
    5.2650    0.6060    0.1250 P   0  0  0  0  0  0  0  0  0  0  0  0
    4.4110   -0.0460    1.5010 O   0  0  0  0  0  0  0  0  0  0  0  0
    5.5560    2.2850    0.4790 O   0  0  0  0  0  0  0  0  0  0  0  0
    5.8430   -1.4470   -2.3770 P   0  0  0  0  0  0  0  0  0  0  0  0
    6.7270   -2.2510   -1.4190 O   0  0  0  0  0  0  0  0  0  0  0  0
   -4.8830   -0.5610    2.2070 C   0  0  0  0  0  0  0  0  0  0  0  0
   -6.0470   -0.8680    1.8970 O   0  0  0  0  0  0  0  0  0  0  0  0
   -4.4010   -0.7560    3.4690 O   0  0  0  0  0  0  0  0  0  0  0  0
  1  2  2  0
  2  3  1  0
  3  4  1  0
  4  5  2  0
  4  6  1  0
  6  7  1  1
  6 28  1  0
  7  8  1  0
  8  9  2  3
  9 10  1  0
  9 15  1  0
 10 11  1  0
 11 12  2  0
 11 13  1  0
 13 14  1  0
 14 15  2  0
 14 18  1  0
 15 16  1  0
 16 17  1  0
 17 18  1  0
 18 19  1  0
 19 20  2  0
 19 21  1  0
 21 22  1  1
 21 26  1  0
 22 23  1  0
 23 24  1  0
 23 25  1  0
 26 27  2  0
 28 29  2  0
 28 30  1  0
M  END
