
     RDKit          3D

 31 32  0  0  0  0  0  0  0  0999 V2000
    0.5910    1.1670   -1.6680 N   0  0  0  0  0  0  0  0  0  0  0  0
    1.3890    0.4730   -0.9350 C   0  0  0  0  0  0  0  0  0  0  0  0
    1.1040   -0.8960   -0.7020 N   0  0  0  0  0  0  0  0  0  0  0  0
    0.5580   -1.2440    0.5910 C   0  0  0  0  0  0  0  0  0  0  0  0
   -0.8400   -0.6560    0.6440 C   0  0  0  0  0  0  0  0  0  0  0  0
   -1.4270   -0.0120   -0.2890 N   0  0  0  0  0  0  0  0  0  0  0  0
   -2.7060    0.4140    0.0250 N   0  0  0  0  0  0  0  0  0  0  0  0
   -3.6060    1.1670   -0.8360 C   0  0  1  0  0  0  0  0  0  0  0  0
   -4.9800    0.5630   -0.9760 C   0  0  0  0  0  0  0  0  0  0  0  0
   -5.4740    1.8610   -0.6910 O   0  0  0  0  0  0  0  0  0  0  0  0
   -4.2550    2.2960   -0.1610 C   0  0  0  0  0  0  0  0  0  0  0  0
   -3.8900    3.2450    0.5730 O   0  0  0  0  0  0  0  0  0  0  0  0
   -2.9610   -0.0280    1.3490 C   0  0  0  0  0  0  0  0  0  0  0  0
   -4.0550    0.1980    1.9310 O   0  0  0  0  0  0  0  0  0  0  0  0
   -1.7590   -0.7280    1.7970 C   0  0  1  0  0  0  0  0  0  0  0  0
   -1.9990   -2.0350    2.2070 O   0  0  0  0  0  0  0  0  0  0  0  0
   -1.6200   -2.2270    3.4490 O   0  0  0  0  0  0  0  0  0  0  0  0
   -2.9010   -3.1190    4.2340 P   0  0  0  0  0  0  0  0  0  0  0  0
   -3.1000   -3.1350    5.7530 O   0  0  0  0  0  0  0  0  0  0  0  0
    1.3290   -1.9190   -1.6670 C   0  0  0  0  0  0  0  0  0  0  0  0
    3.0400   -2.1690   -2.2230 P   0  0  0  0  0  0  0  0  0  0  0  0
    3.6550   -3.7450   -1.9720 O   0  0  0  0  0  0  0  0  0  0  0  0
    3.4430   -1.4830   -3.7300 O   0  0  0  0  0  0  0  0  0  0  0  0
    2.5240    1.1300   -0.3870 N   0  0  0  0  0  0  0  0  0  0  0  0
    2.3830    2.2440    0.5070 C   0  0  0  0  0  0  0  0  0  0  0  0
    3.3810    2.8310    0.9950 O   0  0  0  0  0  0  0  0  0  0  0  0
    1.1170    2.7090    0.8600 O   0  0  0  0  0  0  0  0  0  0  0  0
    0.9540    3.7400    1.6870 O   0  0  0  0  0  0  0  0  0  0  0  0
    4.1600    0.5910   -0.7990 P   0  0  0  0  0  0  0  0  0  0  0  0
    5.1330    1.8120   -1.5120 O   0  0  0  0  0  0  0  0  0  0  0  0
    4.9010   -0.0910    0.6120 O   0  0  0  0  0  0  0  0  0  0  0  0
  1  2  2  0
  2  3  1  0
  2 24  1  0
  3  4  1  0
  3 20  1  0
  4  5  1  0
  5  6  2  0
  5 15  1  0
  6  7  1  0
  8  7  1  1
  7 13  1  0
  8  9  1  0
  8 11  1  0
  9 10  1  0
 10 11  1  0
 11 12  2  0
 13 14  2  0
 13 15  1  0
 15 16  1  6
 16 17  1  0
 17 18  1  0
 18 19  2  0
 20 21  1  0
 21 22  1  0
 21 23  1  0
 24 25  1  0
 24 29  1  0
 25 26  2  0
 25 27  1  0
 27 28  1  0
 29 30  1  0
 29 31  1  0
M  END
