
     RDKit          3D

 30 31  0  0  0  0  0  0  0  0999 V2000
   -4.0510   -2.5980    1.4150 O   0  0  0  0  0  0  0  0  0  0  0  0
   -3.7540   -1.7370    2.6710 P   0  0  0  0  0  0  0  0  0  0  0  0
   -3.0470   -0.1780    2.4550 O   0  0  0  0  0  0  0  0  0  0  0  0
   -2.5280   -0.0570    1.1570 C   0  0  1  0  0  0  0  0  0  0  0  0
   -3.6100   -0.2350    0.2170 N   0  0  0  0  0  0  0  0  0  0  0  0
   -4.7990    0.5320    0.2680 C   0  0  0  0  0  0  0  0  0  0  0  0
   -5.0030    1.4190    1.1330 O   0  0  0  0  0  0  0  0  0  0  0  0
   -5.8560    0.3280   -0.6880 N   0  0  0  0  0  0  0  0  0  0  0  0
   -7.3670    1.2690   -0.6590 P   0  0  0  0  0  0  0  0  0  0  0  0
   -8.7670    0.3090   -0.4190 O   0  0  0  0  0  0  0  0  0  0  0  0
   -7.2840    2.6410    0.3720 O   0  0  0  0  0  0  0  0  0  0  0  0
   -2.0150    1.3590    1.0150 C   0  0  0  0  0  0  0  0  0  0  0  0
   -1.8070    1.5240   -0.3740 O   0  0  0  0  0  0  0  0  0  0  0  0
   -0.8290    0.6400   -0.8150 C   0  0  0  0  0  0  0  0  0  0  0  0
   -0.9790   -0.7590   -0.3300 C   0  0  1  0  0  0  0  0  0  0  0  0
    0.3840   -1.4150   -0.4510 C   0  0  0  0  0  0  0  0  0  0  0  0
    1.3880   -0.7870   -0.8980 N   0  0  0  0  0  0  0  0  0  0  0  0
    2.6840   -1.3100   -1.0450 C   0  0  1  0  0  0  0  0  0  0  0  0
    3.6490   -0.5960   -0.3150 O   0  0  0  0  0  0  0  0  0  0  0  0
    4.5960   -0.1130   -1.2050 C   0  0  0  0  0  0  0  0  0  0  0  0
    5.6810    0.6730   -0.5140 C   0  0  0  0  0  0  0  0  0  0  0  0
    5.1680    1.7770    0.1670 O   0  0  0  0  0  0  0  0  0  0  0  0
    6.3850    2.6870    0.9600 P   0  0  0  0  0  0  0  0  0  0  0  0
    7.6860    1.7150    1.5110 O   0  0  0  0  0  0  0  0  0  0  0  0
    6.9460    4.0200    0.0180 O   0  0  0  0  0  0  0  0  0  0  0  0
    2.7840   -2.7140   -0.6070 C   0  0  0  0  0  0  0  0  0  0  0  0
    3.9320   -3.3200   -0.6810 O   0  0  0  0  0  0  0  0  0  0  0  0
    1.6640   -3.4060   -0.1130 N   0  0  0  0  0  0  0  0  0  0  0  0
    0.4260   -2.7750   -0.0200 N   0  0  0  0  0  0  0  0  0  0  0  0
   -1.4770   -0.9120    0.9420 O   0  0  0  0  0  0  0  0  0  0  0  0
  1  2  2  0
  2  3  1  0
  3  4  1  0
  4  5  1  6
  4 12  1  0
  4 30  1  0
  5  6  1  0
  6  7  2  0
  6  8  1  0
  8  9  1  0
  9 10  1  0
  9 11  1  0
 12 13  1  0
 13 14  1  0
 14 15  1  0
 15 16  1  1
 15 30  1  0
 16 17  2  0
 16 29  1  0
 17 18  1  0
 18 19  1  1
 18 26  1  0
 19 20  1  0
 20 21  1  0
 21 22  1  0
 22 23  1  0
 23 24  1  0
 23 25  1  0
 26 27  2  0
 26 28  1  0
 28 29  1  0
M  END
