
     RDKit          3D

 31 33  0  0  0  0  0  0  0  0999 V2000
    1.6360   -0.2930    0.8610 O   0  0  0  0  0  0  0  0  0  0  0  0
    1.4510    0.1710   -0.2840 C   0  0  0  0  0  0  0  0  0  0  0  0
    0.1380    0.1990   -0.9380 C   0  0  0  0  0  0  0  0  0  0  0  0
   -0.9480   -0.3350   -0.2000 N   0  0  0  0  0  0  0  0  0  0  0  0
   -1.0840   -1.7620    0.0580 C   0  0  0  0  0  0  0  0  0  0  0  0
   -2.5360   -2.0840   -0.2590 C   0  0  1  0  0  0  0  0  0  0  0  0
   -2.9050   -3.8870   -0.0690 P   0  0  0  0  0  0  0  0  0  0  0  0
   -4.1540   -4.1630    1.0910 O   0  0  0  0  0  0  0  0  0  0  0  0
   -1.5140   -4.7990    0.4000 O   0  0  0  0  0  0  0  0  0  0  0  0
   -3.4600   -1.3380    0.5550 N   0  0  0  0  0  0  0  0  0  0  0  0
   -3.4010    0.0750    0.3800 C   0  0  1  0  0  0  0  0  0  0  0  0
   -4.1460    0.6680   -1.2130 P   0  0  0  0  0  0  0  0  0  0  0  0
   -3.5430    2.3050   -1.4670 O   0  0  0  0  0  0  0  0  0  0  0  0
   -6.3290    0.7900   -1.1290 P   0  0  0  0  0  0  0  0  0  0  0  0
   -6.8840    2.4490   -0.9960 O   0  0  0  0  0  0  0  0  0  0  0  0
   -6.9980   -0.2030    0.0960 O   0  0  0  0  0  0  0  0  0  0  0  0
   -3.8870    0.8140    1.4300 O   0  0  0  0  0  0  0  0  0  0  0  0
   -3.2460    2.0010    1.2030 O   0  0  0  0  0  0  0  0  0  0  0  0
   -1.9310    1.6810    0.8440 N   0  0  0  0  0  0  0  0  0  0  0  0
   -1.9620    0.5050    0.3350 C   0  0  0  0  0  0  0  0  0  0  0  0
    2.5700    0.6970   -0.9810 N   0  0  0  0  0  0  0  0  0  0  0  0
    3.8650    0.7540   -0.3890 C   0  0  0  0  0  0  0  0  0  0  0  0
    5.0050    1.2100   -0.9280 N   0  0  0  0  0  0  0  0  0  0  0  0
    6.0270    1.1060   -0.0540 C   0  0  0  0  0  0  0  0  0  0  0  0
    7.4030    1.4940   -0.2550 C   0  0  0  0  0  0  0  0  0  0  0  0
    7.8340    1.9890   -1.3260 O   0  0  0  0  0  0  0  0  0  0  0  0
    8.3040    1.3160    0.7840 O   0  0  0  0  0  0  0  0  0  0  0  0
    9.5940    1.6710    0.6270 O   0  0  0  0  0  0  0  0  0  0  0  0
   10.1600    1.7240    1.8040 O   0  0  0  0  0  0  0  0  0  0  0  0
    5.4570    0.5530    1.0730 C   0  0  0  0  0  0  0  0  0  0  0  0
    4.1700    0.3600    0.8300 O   0  0  0  0  0  0  0  0  0  0  0  0
  1  2  2  0
  2  3  1  0
  2 21  1  0
  3  4  1  0
  4  5  1  0
  4 20  1  0
  5  6  1  0
  6  7  1  1
  6 10  1  0
  7  8  1  0
  7  9  1  0
 10 11  1  0
 11 12  1  6
 11 17  1  0
 11 20  1  0
 12 13  1  0
 12 14  1  0
 14 15  1  0
 14 16  1  0
 17 18  1  0
 18 19  1  0
 19 20  2  0
 21 22  1  0
 22 23  2  0
 22 31  1  0
 23 24  1  0
 24 25  1  0
 24 30  2  0
 25 26  2  0
 25 27  1  0
 27 28  1  0
 28 29  1  0
 30 31  1  0
M  END
