
     RDKit          3D

 30 32  0  0  0  0  0  0  0  0999 V2000
   -0.6110   -3.0010   -0.1740 C   0  0  0  0  0  0  0  0  0  0  0  0
   -0.8130   -1.5230   -0.4180 C   0  0  1  0  0  0  0  0  0  0  0  0
    0.2220   -0.7380    0.0860 O   0  0  0  0  0  0  0  0  0  0  0  0
    0.6110   -0.6700    1.4110 C   0  0  0  0  0  0  0  0  0  0  0  0
   -0.0270   -1.3800    2.2310 O   0  0  0  0  0  0  0  0  0  0  0  0
    1.7230    0.1860    1.8960 C   0  0  0  0  0  0  0  0  0  0  0  0
    2.3410    0.9270    0.8320 N   0  0  0  0  0  0  0  0  0  0  0  0
    2.0200    2.2030    0.3420 C   0  0  0  0  0  0  0  0  0  0  0  0
    1.0910    2.9250    0.7860 O   0  0  0  0  0  0  0  0  0  0  0  0
    2.9380    2.4630   -0.7090 N   0  0  0  0  0  0  0  0  0  0  0  0
    3.8090    1.4240   -0.8990 N   0  0  0  0  0  0  0  0  0  0  0  0
    3.4540    0.4360    0.0640 C   0  0  0  0  0  0  0  0  0  0  0  0
    4.0930   -0.6590    0.1340 N   0  0  0  0  0  0  0  0  0  0  0  0
    5.1630   -1.1460   -0.5940 C   0  0  0  0  0  0  0  0  0  0  0  0
    5.6180   -2.3110   -0.3030 O   0  0  0  0  0  0  0  0  0  0  0  0
    5.7770   -0.4700   -1.6120 O   0  0  0  0  0  0  0  0  0  0  0  0
    5.1820    1.1190   -2.0350 P   0  0  0  0  0  0  0  0  0  0  0  0
    6.4550    2.2970   -1.7780 O   0  0  0  0  0  0  0  0  0  0  0  0
   -0.7990   -1.3480   -1.9150 C   0  0  0  0  0  0  0  0  0  0  0  0
   -0.1080   -1.9780   -2.7570 O   0  0  0  0  0  0  0  0  0  0  0  0
   -1.7320   -0.3170   -2.2120 N   0  0  0  0  0  0  0  0  0  0  0  0
   -2.3880    0.1270   -0.9960 C   0  0  0  0  0  0  0  0  0  0  0  0
   -2.1860   -1.0530   -0.0750 C   0  0  1  0  0  0  0  0  0  0  0  0
   -3.0880   -2.0480   -0.5050 O   0  0  0  0  0  0  0  0  0  0  0  0
   -2.3870   -0.7490    1.2450 O   0  0  0  0  0  0  0  0  0  0  0  0
   -4.0170   -0.2240    1.4720 P   0  0  0  0  0  0  0  0  0  0  0  0
   -5.1550   -1.2470    0.6530 O   0  0  0  0  0  0  0  0  0  0  0  0
   -4.3400    1.8340    0.8200 P   0  0  0  0  0  0  0  0  0  0  0  0
   -6.0360    2.1710    0.8700 O   0  0  0  0  0  0  0  0  0  0  0  0
   -3.4530    2.9690    1.7900 O   0  0  0  0  0  0  0  0  0  0  0  0
  2  1  1  6
  2  3  1  0
  2 19  1  0
  2 23  1  0
  3  4  1  0
  4  5  2  0
  4  6  1  0
  6  7  1  0
  7  8  1  0
  7 12  1  0
  8  9  2  0
  8 10  1  0
 10 11  1  0
 11 12  1  0
 11 17  1  0
 12 13  2  0
 13 14  1  0
 14 15  2  0
 14 16  1  0
 16 17  1  0
 17 18  1  0
 19 20  2  0
 19 21  1  0
 21 22  1  0
 22 23  1  0
 23 24  1  6
 23 25  1  0
 25 26  1  0
 26 27  1  0
 26 28  1  0
 28 29  1  0
 28 30  1  0
M  END
