
     RDKit          3D

 30 31  0  0  0  0  0  0  0  0999 V2000
   -7.1320    2.9330   -1.6430 O   0  0  0  0  0  0  0  0  0  0  0  0
   -7.1360    3.0950   -0.3850 C   0  0  0  0  0  0  0  0  0  0  0  0
   -8.0980    3.9240    0.1820 O   0  0  0  0  0  0  0  0  0  0  0  0
   -6.1710    2.4420    0.4390 N   0  0  0  0  0  0  0  0  0  0  0  0
   -5.1900    1.5970   -0.1460 C   0  0  0  0  0  0  0  0  0  0  0  0
   -5.2050    1.4510   -1.3890 O   0  0  0  0  0  0  0  0  0  0  0  0
   -4.1770    0.9090    0.7020 C   0  0  0  0  0  0  0  0  0  0  0  0
   -3.3370    0.1420   -0.1370 O   0  0  0  0  0  0  0  0  0  0  0  0
   -2.2900   -0.6190    0.3480 C   0  0  0  0  0  0  0  0  0  0  0  0
   -2.0850   -0.6220    1.5880 O   0  0  0  0  0  0  0  0  0  0  0  0
   -1.4980   -1.3580   -0.5770 N   0  0  0  0  0  0  0  0  0  0  0  0
   -0.4040   -2.1420    0.0160 C   0  0  2  0  0  0  0  0  0  0  0  0
   -1.1850   -3.3490    1.1770 P   0  0  0  0  0  0  0  0  0  0  0  0
   -2.8700   -3.5850    0.7520 O   0  0  0  0  0  0  0  0  0  0  0  0
   -0.4400   -4.9320    1.0420 O   0  0  0  0  0  0  0  0  0  0  0  0
    0.4900   -1.1510    0.7200 C   0  0  0  0  0  0  0  0  0  0  0  0
    1.7570   -1.0020    0.0180 N   0  0  0  0  0  0  0  0  0  0  0  0
    2.3670    0.2930   -0.2310 C   0  0  0  0  0  0  0  0  0  0  0  0
    3.8500    0.2040   -0.0720 C   0  0  1  0  0  0  0  0  0  0  0  0
    4.1590    0.5020    1.2700 O   0  0  0  0  0  0  0  0  0  0  0  0
    5.1050    1.9400    1.3610 P   0  0  0  0  0  0  0  0  0  0  0  0
    6.6490    1.6110    2.1060 O   0  0  0  0  0  0  0  0  0  0  0  0
    5.3490    2.9240   -0.5700 P   0  0  0  0  0  0  0  0  0  0  0  0
    6.9650    2.8780   -1.1450 O   0  0  0  0  0  0  0  0  0  0  0  0
    4.7010    4.5270   -0.5930 O   0  0  0  0  0  0  0  0  0  0  0  0
    4.3970   -1.0460   -0.3630 O   0  0  0  0  0  0  0  0  0  0  0  0
    3.6790   -2.1870   -0.6170 N   0  0  0  0  0  0  0  0  0  0  0  0
    2.4170   -2.1770   -0.4390 C   0  0  0  0  0  0  0  0  0  0  0  0
    1.5430   -3.3770   -0.6890 C   0  0  0  0  0  0  0  0  0  0  0  0
    0.2390   -2.8500   -1.0450 N   0  0  0  0  0  0  0  0  0  0  0  0
  1  2  2  0
  2  3  1  0
  2  4  1  0
  4  5  1  0
  5  6  2  0
  5  7  1  0
  7  8  1  0
  8  9  1  0
  9 10  2  0
  9 11  1  0
 12 11  1  6
 12 13  1  0
 12 16  1  0
 12 30  1  0
 13 14  1  0
 13 15  1  0
 16 17  1  0
 17 18  1  0
 17 28  1  0
 18 19  1  0
 19 20  1  1
 19 26  1  0
 20 21  1  0
 21 22  1  0
 21 23  1  0
 23 24  1  0
 23 25  1  0
 26 27  1  0
 27 28  2  0
 28 29  1  0
 29 30  1  0
M  END
