
     RDKit          3D

 26 27  0  0  0  0  0  0  0  0999 V2000
   -3.6170   -3.4470    1.5720 C   0  0  0  0  0  0  0  0  0  0  0  0
   -2.6330   -2.7790    2.4600 C   0  0  0  0  0  0  0  0  0  0  0  0
   -2.1660   -1.4220    1.9560 C   0  0  0  0  0  0  0  0  0  0  0  0
   -2.5310   -0.3190    2.5080 C   0  0  0  0  0  0  0  0  0  0  0  0
   -3.4480   -0.2030    3.7010 C   0  0  0  0  0  0  0  0  0  0  0  0
   -1.9550    0.7850    1.8640 C   0  0  0  0  0  0  0  0  0  0  0  0
   -1.1690    0.3560    0.8320 C   0  0  0  0  0  0  0  0  0  0  0  0
   -0.4630    1.2620    0.0040 N   0  0  0  0  0  0  0  0  0  0  0  0
   -0.4170    1.6980   -1.3400 C   0  0  0  0  0  0  0  0  0  0  0  0
   -0.4550    3.3610   -1.7220 S   0  0  0  0  0  0  0  0  0  0  0  0
   -0.3200    0.8830   -2.9000 S   0  0  0  0  0  0  0  0  0  0  0  0
    0.7440    1.8540   -4.0000 C   0  0  0  0  0  0  0  0  0  0  0  0
    2.1170    1.8640   -3.4870 C   0  0  0  0  0  0  0  0  0  0  0  0
    2.8460    2.4200   -4.4230 O   0  0  0  0  0  0  0  0  0  0  0  0
    2.7880    1.4740   -2.3720 N   0  0  0  0  0  0  0  0  0  0  0  0
    2.8600    1.8800   -0.9910 C   0  0  2  0  0  0  0  0  0  0  0  0
    4.2570    2.5210   -0.8520 C   0  0  0  0  0  0  0  0  0  0  0  0
    2.7800    0.6510   -0.1050 C   0  0  0  0  0  0  0  0  0  0  0  0
    2.9220    0.9290    1.1390 O   0  0  0  0  0  0  0  0  0  0  0  0
    2.5720   -0.6880   -0.5280 N   0  0  0  0  0  0  0  0  0  0  0  0
    1.6100   -1.3260   -1.2940 N   0  0  0  0  0  0  0  0  0  0  0  0
    0.3040   -1.8550   -1.1120 C   0  0  0  0  0  0  0  0  0  0  0  0
   -0.1920   -2.3770   -2.2450 O   0  0  0  0  0  0  0  0  0  0  0  0
   -0.6070   -1.9580    0.0120 C   0  0  0  0  0  0  0  0  0  0  0  0
   -0.9290   -3.7190    0.3600 Cl  0  0  0  0  0  0  0  0  0  0  0  0
   -1.2410   -1.1280    0.8130 C   0  0  0  0  0  0  0  0  0  0  0  0
  1  2  1  0
  2  3  1  0
  3  4  2  0
  3 26  1  0
  4  5  1  0
  4  6  1  0
  6  7  2  0
  7  8  1  0
  7 26  1  0
  8  9  1  0
  9 10  2  0
  9 11  1  0
 11 12  1  0
 12 13  1  0
 13 14  2  0
 13 15  1  0
 15 16  1  0
 16 17  1  6
 16 18  1  0
 18 19  2  0
 18 20  1  0
 20 21  1  0
 21 22  1  0
 22 23  2  0
 22 24  1  0
 24 25  1  0
 24 26  2  0
M  END
