
     RDKit          3D

 26 27  0  0  0  0  0  0  0  0999 V2000
    2.9860    2.1060   -0.8900 N   0  0  0  0  0  0  0  0  0  0  0  0
    3.6020    1.1400    0.0630 C   0  0  2  0  0  0  0  0  0  0  0  0
    2.6980    1.0410    1.2110 C   0  0  0  0  0  0  0  0  0  0  0  0
    1.3430    0.6160    1.0620 N   0  0  0  0  0  0  0  0  0  0  0  0
    0.8120   -0.6270    0.7100 C   0  0  0  0  0  0  0  0  0  0  0  0
    1.7020   -1.5490    0.5110 O   0  0  0  0  0  0  0  0  0  0  0  0
   -0.5460   -1.0100    0.5440 N   0  0  0  0  0  0  0  0  0  0  0  0
   -0.8070   -2.4090    0.1010 C   0  0  0  0  0  0  0  0  0  0  0  0
   -0.9350   -2.4290   -1.3820 C   0  0  0  0  0  0  0  0  0  0  0  0
    0.2220   -1.9710   -2.0920 N   0  0  0  0  0  0  0  0  0  0  0  0
   -1.6830   -0.2350    0.7550 C   0  0  0  0  0  0  0  0  0  0  0  0
   -1.6460    1.2870    1.2480 S   0  0  0  0  0  0  0  0  0  0  0  0
   -3.2910   -0.9660    0.4730 S   0  0  0  0  0  0  0  0  0  0  0  0
   -4.5630    0.2480    0.7810 C   0  0  1  0  0  0  0  0  0  0  0  0
   -4.6040    1.3870   -0.1810 C   0  0  0  0  0  0  0  0  0  0  0  0
   -5.6280    2.2440    0.2110 O   0  0  0  0  0  0  0  0  0  0  0  0
   -6.8750    1.6660    0.1260 C   0  0  0  0  0  0  0  0  0  0  0  0
   -6.8280    0.1860   -0.1280 C   0  0  0  0  0  0  0  0  0  0  0  0
   -5.9070   -0.4510    0.8830 C   0  0  1  0  0  0  0  0  0  0  0  0
   -5.7530   -1.8220    0.6580 O   0  0  0  0  0  0  0  0  0  0  0  0
    4.8910    1.8150    0.6060 C   0  0  0  0  0  0  0  0  0  0  0  0
    6.1120    1.1340    0.0900 C   0  0  0  0  0  0  0  0  0  0  0  0
    6.1360   -0.3320    0.3770 C   0  0  1  0  0  0  0  0  0  0  0  0
    6.7290   -0.6860    2.0230 Cl  0  0  0  0  0  0  0  0  0  0  0  0
    4.7960   -1.0040    0.1870 C   0  0  0  0  0  0  0  0  0  0  0  0
    3.9590   -0.0690   -0.6810 C   0  0  0  0  0  0  0  0  0  0  0  0
  2  1  1  6
  2  3  1  0
  2 21  1  0
  2 26  1  0
  3  4  1  0
  4  5  1  0
  5  6  2  0
  5  7  1  0
  7  8  1  0
  7 11  1  0
  8  9  1  0
  9 10  1  0
 11 12  2  0
 11 13  1  0
 14 13  1  6
 14 15  1  0
 14 19  1  0
 15 16  1  0
 16 17  1  0
 17 18  1  0
 18 19  1  0
 19 20  1  6
 21 22  1  0
 22 23  1  0
 23 24  1  1
 23 25  1  0
 25 26  1  0
M  CHG  1  10   1
M  END
