
     RDKit          3D

 25 26  0  0  0  0  0  0  0  0999 V2000
   -6.6710   -1.1500    0.9110 N   0  0  0  0  0  0  0  0  0  0  0  0
   -5.6510   -1.6750    0.0630 C   0  0  0  0  0  0  0  0  0  0  0  0
   -4.2900   -1.5510    0.6480 C   0  0  0  0  0  0  0  0  0  0  0  0
   -3.9410   -0.1010    0.8470 C   0  0  0  0  0  0  0  0  0  0  0  0
   -3.0980    0.4890    0.0040 C   0  0  0  0  0  0  0  0  0  0  0  0
   -2.3940   -0.0570   -1.1660 C   0  0  0  0  0  0  0  0  0  0  0  0
   -0.9010    0.0310   -1.0010 C   0  0  0  0  0  0  0  0  0  0  0  0
   -0.4450    0.5240    0.0380 O   0  0  0  0  0  0  0  0  0  0  0  0
   -0.0930   -0.4500   -2.0340 N   0  0  0  0  0  0  0  0  0  0  0  0
    1.3200   -0.4310   -2.0160 C   0  0  0  0  0  0  0  0  0  0  0  0
    2.0540   -1.0570   -3.3550 S   0  0  0  0  0  0  0  0  0  0  0  0
    2.1060    0.0680   -0.9670 N   0  0  0  0  0  0  0  0  0  0  0  0
    3.5460    0.0220   -1.0850 C   0  0  0  0  0  0  0  0  0  0  0  0
    4.0080   -0.4640   -2.1240 O   0  0  0  0  0  0  0  0  0  0  0  0
    4.3950    0.5020   -0.0790 N   0  0  0  0  0  0  0  0  0  0  0  0
    5.7990    0.5050   -0.0940 C   0  0  0  0  0  0  0  0  0  0  0  0
    6.5900    0.0340   -1.1050 C   0  0  0  0  0  0  0  0  0  0  0  0
    7.9880    0.0940   -0.9960 C   0  0  0  0  0  0  0  0  0  0  0  0
    8.5830    0.6240    0.1180 C   0  0  0  0  0  0  0  0  0  0  0  0
    7.7970    1.1040    1.1480 C   0  0  0  0  0  0  0  0  0  0  0  0
    6.4440    1.0380    1.0280 C   0  0  0  0  0  0  0  0  0  0  0  0
    5.5060    1.6730    2.3880 Cl  0  0  0  0  0  0  0  0  0  0  0  0
   -2.9780    2.2020    0.5170 S   0  0  0  0  0  0  0  0  0  0  0  0
   -4.5460    2.1710    1.5110 C   0  0  0  0  0  0  0  0  0  0  0  0
   -4.3820    0.7100    1.9690 C   0  0  0  0  0  0  0  0  0  0  0  0
  1  2  1  0
  2  3  1  0
  3  4  1  0
  4  5  2  0
  4 25  1  0
  5  6  1  0
  5 23  1  0
  6  7  1  0
  7  8  2  0
  7  9  1  0
  9 10  1  0
 10 11  2  0
 10 12  1  0
 12 13  1  0
 13 14  2  0
 13 15  1  0
 15 16  1  0
 16 17  2  0
 16 21  1  0
 17 18  1  0
 18 19  2  0
 19 20  1  0
 20 21  2  0
 21 22  1  0
 23 24  1  0
 24 25  1  0
M  CHG  1   1   1
M  END
