
     RDKit          3D

 26 27  0  0  0  0  0  0  0  0999 V2000
   -6.8170    1.0200   -0.8300 C   0  0  0  0  0  0  0  0  0  0  0  0
   -5.7660   -0.0270   -0.7910 C   0  0  0  0  0  0  0  0  0  0  0  0
   -4.6770    0.0330   -0.0650 C   0  0  0  0  0  0  0  0  0  0  0  0
   -4.5340    1.2740    0.7650 C   0  0  0  0  0  0  0  0  0  0  0  0
   -5.5800    2.2350    0.6330 N   0  0  0  0  0  0  0  0  0  0  0  0
   -3.6030   -0.9300    0.0190 C   0  0  0  0  0  0  0  0  0  0  0  0
   -2.5390   -0.8100    0.7790 C   0  0  0  0  0  0  0  0  0  0  0  0
   -2.0250    0.1460    1.7160 C   0  0  0  0  0  0  0  0  0  0  0  0
   -0.7600    0.6750    1.2070 N   0  0  0  0  0  0  0  0  0  0  0  0
    0.3680   -0.1370    0.9990 C   0  0  0  0  0  0  0  0  0  0  0  0
    0.2820   -1.3610    1.2700 O   0  0  0  0  0  0  0  0  0  0  0  0
    1.6620    0.4320    0.4630 C   0  0  0  0  0  0  0  0  0  0  0  0
    2.6050   -0.6520    0.3690 N   0  0  0  0  0  0  0  0  0  0  0  0
    3.9380   -0.4420   -0.1080 C   0  0  0  0  0  0  0  0  0  0  0  0
    4.1680    0.6940   -0.6520 N   0  0  0  0  0  0  0  0  0  0  0  0
    5.6970    1.1170   -1.2760 S   0  0  1  0  0  0  0  0  0  0  0  0
    5.6070    1.5490   -2.7240 O   0  0  0  0  0  0  0  0  0  0  0  0
    6.1820    2.2890   -0.4310 O   0  0  0  0  0  0  0  0  0  0  0  0
    6.8180   -0.2060   -1.0570 C   0  0  1  0  0  0  0  0  0  0  0  0
    8.0310    0.2730   -0.2700 C   0  0  0  0  0  0  0  0  0  0  0  0
    6.1870   -1.3510   -0.3900 C   0  0  0  0  0  0  0  0  0  0  0  0
    4.9660   -1.4660    0.0180 C   0  0  0  0  0  0  0  0  0  0  0  0
    4.5130   -2.9990    0.7950 Cl  0  0  0  0  0  0  0  0  0  0  0  0
   -3.6580   -2.1790   -0.7850 C   0  0  0  0  0  0  0  0  0  0  0  0
   -4.6070   -2.5260   -1.5960 C   0  0  0  0  0  0  0  0  0  0  0  0
   -5.9880   -1.4910   -1.8250 S   0  0  0  0  0  0  0  0  0  0  0  0
  1  2  1  0
  2  3  2  0
  2 26  1  0
  3  4  1  0
  3  6  1  0
  4  5  1  0
  6  7  2  3
  6 24  1  0
  7  8  1  0
  8  9  1  0
  9 10  1  0
 10 11  2  0
 10 12  1  0
 12 13  1  0
 13 14  1  0
 14 15  2  0
 14 22  1  0
 16 15  1  1
 16 17  2  0
 16 18  2  0
 16 19  1  0
 19 20  1  1
 19 21  1  0
 21 22  2  0
 22 23  1  0
 24 25  2  0
 25 26  1  0
M  END
