
     RDKit          3D

 16 16  0  0  0  0  0  0  0  0999 V2000
    0.5390    0.8030   -1.6460 O   0  0  0  0  0  0  0  0  0  0  0  0
    0.1070    0.5530   -0.4030 C   0  0  0  0  0  0  0  0  0  0  0  0
   -1.2670    0.9230   -0.2060 C   0  0  0  0  0  0  0  0  0  0  0  0
   -2.2640   -0.2030   -0.1700 C   0  0  1  0  0  0  0  0  0  0  0  0
   -2.2950   -1.1010    0.8040 O   0  0  0  0  0  0  0  0  0  0  0  0
   -3.5690   -1.4420    1.0650 O   0  0  0  0  0  0  0  0  0  0  0  0
   -4.4060   -0.8710    0.0900 C   0  0  0  0  0  0  0  0  0  0  0  0
   -5.4540   -1.3320   -0.3780 O   0  0  0  0  0  0  0  0  0  0  0  0
   -3.7360    0.3930   -0.2000 C   0  0  1  0  0  0  0  0  0  0  0  0
   -3.8690    1.3620    0.6980 O   0  0  0  0  0  0  0  0  0  0  0  0
    1.1510   -0.0290    0.3150 O   0  0  0  0  0  0  0  0  0  0  0  0
    2.3190   -0.1810   -0.3010 C   0  0  0  0  0  0  0  0  0  0  0  0
    3.4160   -1.1310   -0.0080 C   0  0  0  0  0  0  0  0  0  0  0  0
    4.3080   -0.7430   -1.0560 O   0  0  0  0  0  0  0  0  0  0  0  0
    5.4110   -0.3190   -0.6360 O   0  0  0  0  0  0  0  0  0  0  0  0
    5.1860    0.3380    0.4680 O   0  0  0  0  0  0  0  0  0  0  0  0
  1  2  2  0
  2  3  1  0
  2 11  1  0
  4  3  1  1
  4  5  1  0
  4  9  1  0
  5  6  1  0
  6  7  1  0
  7  8  2  0
  7  9  1  0
  9 10  1  1
 11 12  1  0
 12 13  1  0
 13 14  1  0
 14 15  1  0
 15 16  1  0
M  END
