
     RDKit          3D

 16 16  0  0  0  0  0  0  0  0999 V2000
    2.4650   -0.3030    1.6970 O   0  0  0  0  0  0  0  0  0  0  0  0
    1.9250   -0.8930    0.6370 C   0  0  0  0  0  0  0  0  0  0  0  0
    2.9050   -1.9280    0.0900 C   0  0  0  0  0  0  0  0  0  0  0  0
    3.5970   -1.2240   -0.8540 O   0  0  0  0  0  0  0  0  0  0  0  0
    4.8240   -0.9060   -0.4000 O   0  0  0  0  0  0  0  0  0  0  0  0
    4.6690    0.4620   -0.4040 O   0  0  0  0  0  0  0  0  0  0  0  0
    5.6890    1.0820    0.0560 O   0  0  0  0  0  0  0  0  0  0  0  0
    0.7830   -0.5500    0.2060 O   0  0  0  0  0  0  0  0  0  0  0  0
   -0.0100    0.3970    0.7360 O   0  0  0  0  0  0  0  0  0  0  0  0
   -1.3130    0.1660    0.2990 C   0  0  2  0  0  0  0  0  0  0  0  0
   -1.8490    1.3910   -0.3600 C   0  0  0  0  0  0  0  0  0  0  0  0
   -3.2620    1.1700   -0.8730 C   0  0  0  0  0  0  0  0  0  0  0  0
   -4.0260    0.1960   -0.0120 C   0  0  0  0  0  0  0  0  0  0  0  0
   -3.4910    0.1240    1.3280 O   0  0  0  0  0  0  0  0  0  0  0  0
   -2.1620   -0.2390    1.4560 C   0  0  0  0  0  0  0  0  0  0  0  0
   -1.6370   -0.8460    2.3990 O   0  0  0  0  0  0  0  0  0  0  0  0
  1  2  2  0
  2  3  1  0
  2  8  1  0
  3  4  1  0
  4  5  1  0
  5  6  1  0
  6  7  1  0
  8  9  1  0
 10  9  1  1
 10 11  1  0
 10 15  1  0
 11 12  1  0
 12 13  1  0
 13 14  1  0
 14 15  1  0
 15 16  2  0
M  END
