
     RDKit          3D

 16 16  0  0  0  0  0  0  0  0999 V2000
    3.7400    0.6390   -0.4080 O   0  0  0  0  0  0  0  0  0  0  0  0
    3.8400    0.1470    0.7410 C   0  0  0  0  0  0  0  0  0  0  0  0
    4.7050    0.7940    1.6260 O   0  0  0  0  0  0  0  0  0  0  0  0
    3.1130   -0.9720    1.0610 O   0  0  0  0  0  0  0  0  0  0  0  0
    2.2340   -1.6320    0.1700 C   0  0  0  0  0  0  0  0  0  0  0  0
    1.1820   -0.6630   -0.2360 C   0  0  0  0  0  0  0  0  0  0  0  0
    1.1800    0.5280    0.2090 O   0  0  0  0  0  0  0  0  0  0  0  0
    0.1540   -0.9860   -1.1110 O   0  0  0  0  0  0  0  0  0  0  0  0
   -0.8430   -0.0780   -1.4990 C   0  0  0  0  0  0  0  0  0  0  0  0
   -1.6720    0.4620   -0.3800 C   0  0  2  0  0  0  0  0  0  0  0  0
   -2.4390   -0.5530    0.3840 C   0  0  0  0  0  0  0  0  0  0  0  0
   -3.0880    0.1020    1.4630 O   0  0  0  0  0  0  0  0  0  0  0  0
   -3.7360    1.3040    1.1390 C   0  0  0  0  0  0  0  0  0  0  0  0
   -4.7470    1.7140    1.7650 O   0  0  0  0  0  0  0  0  0  0  0  0
   -3.1740    2.0120    0.0690 O   0  0  0  0  0  0  0  0  0  0  0  0
   -2.6090    1.3450   -0.9650 O   0  0  0  0  0  0  0  0  0  0  0  0
  1  2  2  0
  2  3  1  0
  2  4  1  0
  4  5  1  0
  5  6  1  0
  6  7  2  0
  6  8  1  0
  8  9  1  0
 10  9  1  6
 10 11  1  0
 10 16  1  0
 11 12  1  0
 12 13  1  0
 13 14  2  0
 13 15  1  0
 15 16  1  0
M  END
