
     RDKit          3D

 18 18  0  0  0  0  0  0  0  0999 V2000
   -3.7300    1.1170    1.7270 C   0  0  0  0  0  0  0  0  0  0  0  0
   -2.9150   -0.0590    1.2040 C   0  0  2  0  0  0  0  0  0  0  0  0
   -3.6500   -0.7250    0.0810 C   0  0  0  0  0  0  0  0  0  0  0  0
   -2.7360   -1.0320    2.3540 C   0  0  0  0  0  0  0  0  0  0  0  0
   -1.6010    0.4450    0.8380 C   0  0  0  0  0  0  0  0  0  0  0  0
   -1.0590    1.4610    0.9140 O   0  0  0  0  0  0  0  0  0  0  0  0
   -0.6980   -0.8400    0.1230 N   0  0  0  0  0  0  0  0  0  0  0  0
    0.4830   -0.0790   -0.1150 C   0  0  0  0  0  0  0  0  0  0  0  0
    0.8310    1.0590    0.0420 O   0  0  0  0  0  0  0  0  0  0  0  0
    1.4650   -1.0510   -0.7170 N   0  0  0  0  0  0  0  0  0  0  0  0
    2.7230   -0.5100   -1.0490 C   0  0  0  0  0  0  0  0  0  0  0  0
    3.7650   -1.0420   -0.4420 C   0  0  0  0  0  0  0  0  0  0  0  0
    5.3980   -0.4560   -0.7630 S   0  0  0  0  0  0  0  0  0  0  0  0
    5.3370    0.8360   -2.0020 C   0  0  0  0  0  0  0  0  0  0  0  0
    3.9470    1.1100   -2.4030 C   0  0  0  0  0  0  0  0  0  0  0  0
    2.8410    0.5610   -2.0180 C   0  0  0  0  0  0  0  0  0  0  0  0
    1.5780    1.0380   -2.6160 C   0  0  0  0  0  0  0  0  0  0  0  0
    0.5840    1.4230   -3.1060 N   0  0  0  0  0  0  0  0  0  0  0  0
  2  1  1  1
  2  3  1  0
  2  4  1  0
  2  5  1  0
  5  6  2  0
  5  7  1  0
  7  8  1  0
  8  9  2  0
  8 10  1  0
 10 11  1  0
 11 12  2  0
 11 16  1  0
 12 13  1  0
 13 14  1  0
 14 15  1  0
 15 16  2  0
 16 17  1  0
 17 18  3  0
M  END
