
     RDKit          3D

 16 17  0  0  0  0  0  0  0  0999 V2000
   -4.6470   -1.2520   -0.3460 C   0  0  0  0  0  0  0  0  0  0  0  0
   -3.2420   -0.9630   -0.2710 N   0  0  0  0  0  0  0  0  0  0  0  0
   -2.7670    0.2280   -0.2680 C   0  0  0  0  0  0  0  0  0  0  0  0
   -1.3330    0.4650   -0.1910 C   0  0  0  0  0  0  0  0  0  0  0  0
   -0.8520    1.7630   -0.1900 C   0  0  0  0  0  0  0  0  0  0  0  0
   -1.8320    2.8720   -0.2690 C   0  0  0  0  0  0  0  0  0  0  0  0
    0.4770    1.9320   -0.1170 N   0  0  0  0  0  0  0  0  0  0  0  0
    1.3420    0.8890   -0.0460 C   0  0  0  0  0  0  0  0  0  0  0  0
    2.7050    1.0820    0.0280 C   0  0  0  0  0  0  0  0  0  0  0  0
    3.5740    0.0090    0.1000 C   0  0  0  0  0  0  0  0  0  0  0  0
    3.1290   -1.2960    0.1010 C   0  0  0  0  0  0  0  0  0  0  0  0
    4.1050   -2.4150    0.1790 C   0  0  0  0  0  0  0  0  0  0  0  0
    1.7650   -1.4910    0.0260 C   0  0  0  0  0  0  0  0  0  0  0  0
    0.8830   -0.4110   -0.0460 C   0  0  0  0  0  0  0  0  0  0  0  0
   -0.4790   -0.6120   -0.1200 C   0  0  0  0  0  0  0  0  0  0  0  0
   -0.9140   -1.8120   -0.1210 O   0  0  0  0  0  0  0  0  0  0  0  0
  1  2  1  0
  2  3  2  3
  3  4  1  0
  4  5  2  0
  4 15  1  0
  5  6  1  0
  5  7  1  0
  7  8  1  0
  8  9  2  0
  8 14  1  0
  9 10  1  0
 10 11  2  0
 11 12  1  0
 11 13  1  0
 13 14  2  0
 14 15  1  0
 15 16  2  0
M  END
