
     RDKit          3D

 18 19  0  0  0  0  0  0  0  0999 V2000
   -0.5660    1.4510    0.4020 N   0  0  0  0  0  0  0  0  0  0  0  0
   -1.1050    0.1760    0.1550 C   0  0  0  0  0  0  0  0  0  0  0  0
   -0.3480   -0.8570   -0.1180 N   0  0  0  0  0  0  0  0  0  0  0  0
    1.1120   -0.6100   -0.1550 C   0  0  0  0  0  0  0  0  0  0  0  0
    1.5530   -0.2400   -1.2650 O   0  0  0  0  0  0  0  0  0  0  0  0
    1.7960   -0.8270    1.0640 C   0  0  0  0  0  0  0  0  0  0  0  0
    3.0100   -0.7280    1.4250 C   0  0  0  0  0  0  0  0  0  0  0  0
    4.2080   -0.3600    0.7770 C   0  0  0  0  0  0  0  0  0  0  0  0
    4.6360    0.0370   -0.4410 C   0  0  0  0  0  0  0  0  0  0  0  0
    5.9200    0.3160   -0.7050 C   0  0  0  0  0  0  0  0  0  0  0  0
    6.8410    0.1910    0.3140 C   0  0  0  0  0  0  0  0  0  0  0  0
    5.8150   -0.3470    1.6980 S   0  0  0  0  0  0  0  0  0  0  0  0
   -2.5030   -0.0870    0.1850 N   0  0  0  0  0  0  0  0  0  0  0  0
   -3.4310    0.7050    0.9910 C   0  0  0  0  0  0  0  0  0  0  0  0
   -4.5100    1.1730    0.0720 C   0  0  0  0  0  0  0  0  0  0  0  0
   -5.0460    0.2760   -0.7580 O   0  0  0  0  0  0  0  0  0  0  0  0
   -4.5460   -0.9680   -0.8560 C   0  0  0  0  0  0  0  0  0  0  0  0
   -3.0910   -1.1490   -0.5780 C   0  0  0  0  0  0  0  0  0  0  0  0
  1  2  1  0
  2  3  2  3
  2 13  1  0
  3  4  1  0
  4  5  2  0
  4  6  1  0
  6  7  2  3
  7  8  1  0
  8  9  2  0
  8 12  1  0
  9 10  1  0
 10 11  2  0
 11 12  1  0
 13 14  1  0
 13 18  1  0
 14 15  1  0
 15 16  1  0
 16 17  1  0
 17 18  1  0
M  END
