
     RDKit          3D

 25 26  0  0  0  0  0  0  0  0999 V2000
   -5.5080   -1.6200    1.4140 N   0  0  0  0  0  0  0  0  0  0  0  0
   -5.2040   -0.4850    0.5680 C   0  0  2  0  0  0  0  0  0  0  0  0
   -6.3100    0.5560    0.5930 C   0  0  0  0  0  0  0  0  0  0  0  0
   -6.1090    1.4580   -0.5840 C   0  0  0  0  0  0  0  0  0  0  0  0
   -4.6610    1.5220   -1.0380 C   0  0  0  0  0  0  0  0  0  0  0  0
   -4.1560    0.2040   -1.5240 C   0  0  1  0  0  0  0  0  0  0  0  0
   -2.7810   -0.0640   -1.0840 N   0  0  0  0  0  0  0  0  0  0  0  0
   -1.7430   -0.3750   -2.0100 C   0  0  0  0  0  0  0  0  0  0  0  0
   -2.0760   -0.4060   -3.2340 O   0  0  0  0  0  0  0  0  0  0  0  0
   -0.3880   -0.6380   -1.5740 C   0  0  0  0  0  0  0  0  0  0  0  0
   -0.1000   -0.5950   -0.3330 N   0  0  0  0  0  0  0  0  0  0  0  0
    1.1640   -0.8310    0.1910 N   0  0  0  0  0  0  0  0  0  0  0  0
    2.2220    0.1210    0.1340 C   0  0  0  0  0  0  0  0  0  0  0  0
    1.9980    1.2220   -0.4160 O   0  0  0  0  0  0  0  0  0  0  0  0
    3.5060   -0.1210    0.6680 N   0  0  0  0  0  0  0  0  0  0  0  0
    4.6080    0.8220    0.6290 C   0  0  1  0  0  0  0  0  0  0  0  0
    4.9550    1.1800    2.0320 C   0  0  0  0  0  0  0  0  0  0  0  0
    6.3400    0.8420    2.4380 C   0  0  0  0  0  0  0  0  0  0  0  0
    7.0310    1.5930    3.2070 O   0  0  0  0  0  0  0  0  0  0  0  0
    6.8960   -0.3680    1.9390 N   0  0  0  0  0  0  0  0  0  0  0  0
    6.4370   -0.7850    0.6570 C   0  0  0  0  0  0  0  0  0  0  0  0
    6.6010   -1.9540    0.2790 O   0  0  0  0  0  0  0  0  0  0  0  0
    5.7680    0.2800   -0.1530 C   0  0  1  0  0  0  0  0  0  0  0  0
    5.3720   -0.1850   -1.4410 N   0  0  0  0  0  0  0  0  0  0  0  0
   -5.0060   -0.8930   -0.8760 C   0  0  0  0  0  0  0  0  0  0  0  0
  2  1  1  1
  2  3  1  0
  2 25  1  0
  3  4  1  0
  4  5  1  0
  5  6  1  0
  6  7  1  1
  6 25  1  0
  7  8  1  0
  8  9  2  0
  8 10  1  0
 10 11  2  3
 11 12  1  0
 12 13  1  0
 13 14  2  0
 13 15  1  0
 16 15  1  1
 16 17  1  0
 16 23  1  0
 17 18  1  0
 18 19  2  0
 18 20  1  0
 20 21  1  0
 21 22  2  0
 21 23  1  0
 23 24  1  6
M  CHG  1  24   1
M  END
