
     RDKit          3D

 17 17  0  0  0  0  0  0  0  0999 V2000
   -4.5480    1.9310   -1.2910 C   0  0  0  0  0  0  0  0  0  0  0  0
   -3.6300    1.3350   -0.3860 O   0  0  0  0  0  0  0  0  0  0  0  0
   -2.3740    0.9160   -0.7830 C   0  0  0  0  0  0  0  0  0  0  0  0
   -2.0690    1.0860   -1.9990 O   0  0  0  0  0  0  0  0  0  0  0  0
   -1.4410    0.2960    0.1900 C   0  0  1  0  0  0  0  0  0  0  0  0
   -2.0780   -0.9530    0.7480 C   0  0  0  0  0  0  0  0  0  0  0  0
   -1.2130   -1.6550    1.7430 C   0  0  0  0  0  0  0  0  0  0  0  0
   -1.9050   -2.7860    2.1840 O   0  0  0  0  0  0  0  0  0  0  0  0
   -0.1790   -0.0670   -0.4490 N   0  0  0  0  0  0  0  0  0  0  0  0
    1.0680    0.4400    0.0130 C   0  0  0  0  0  0  0  0  0  0  0  0
    1.0530    1.2090    0.9880 O   0  0  0  0  0  0  0  0  0  0  0  0
    2.3010    0.0370   -0.6720 C   0  0  0  0  0  0  0  0  0  0  0  0
    3.5390    0.3770   -0.4190 C   0  0  0  0  0  0  0  0  0  0  0  0
    3.8350    1.3180    0.7290 C   0  0  0  0  0  0  0  0  0  0  0  0
    4.5130   -0.1280   -1.1980 O   0  0  0  0  0  0  0  0  0  0  0  0
    4.2370   -1.2700   -1.9340 C   0  0  0  0  0  0  0  0  0  0  0  0
    2.4070   -1.0690   -2.0740 S   0  0  0  0  0  0  0  0  0  0  0  0
  1  2  1  0
  2  3  1  0
  3  4  2  0
  3  5  1  0
  5  6  1  6
  5  9  1  0
  6  7  1  0
  7  8  1  0
  9 10  1  0
 10 11  2  0
 10 12  1  0
 12 13  2  0
 12 17  1  0
 13 14  1  0
 13 15  1  0
 15 16  1  0
 16 17  1  0
M  END
