
     RDKit          3D

 17 17  0  0  0  0  0  0  0  0999 V2000
   -3.0430    1.7880    0.0630 C   0  0  0  0  0  0  0  0  0  0  0  0
   -3.1790    0.4910   -0.0300 C   0  0  0  0  0  0  0  0  0  0  0  0
   -4.4210   -0.1820    0.3260 C   0  0  0  0  0  0  0  0  0  0  0  0
   -5.6580    0.7300    0.8510 S   0  0  0  0  0  0  0  0  0  0  0  0
   -4.5290   -1.5420    0.2170 O   0  0  0  0  0  0  0  0  0  0  0  0
   -3.4870   -2.3510   -0.2290 C   0  0  0  0  0  0  0  0  0  0  0  0
   -2.2500   -1.6240   -0.5780 C   0  0  0  0  0  0  0  0  0  0  0  0
   -2.0710   -0.3250   -0.5000 C   0  0  0  0  0  0  0  0  0  0  0  0
   -0.8470    0.2780   -0.8570 O   0  0  0  0  0  0  0  0  0  0  0  0
    0.2850   -0.0960   -0.0970 C   0  0  0  0  0  0  0  0  0  0  0  0
    1.4880    0.6170   -0.5880 C   0  0  0  0  0  0  0  0  0  0  0  0
    1.3600    1.4100   -1.5520 O   0  0  0  0  0  0  0  0  0  0  0  0
    2.7510    0.3970    0.0280 N   0  0  0  0  0  0  0  0  0  0  0  0
    3.9310    1.0720   -0.4250 C   0  0  0  0  0  0  0  0  0  0  0  0
    3.8400    1.8700   -1.3840 O   0  0  0  0  0  0  0  0  0  0  0  0
    5.2610    0.8690    0.1910 C   0  0  0  0  0  0  0  0  0  0  0  0
    5.2320   -0.0330    1.2380 O   0  0  0  0  0  0  0  0  0  0  0  0
  1  2  2  0
  2  3  1  0
  2  8  1  0
  3  4  2  0
  3  5  1  0
  5  6  1  0
  6  7  1  0
  7  8  2  0
  8  9  1  0
  9 10  1  0
 10 11  1  0
 11 12  2  0
 11 13  1  0
 13 14  1  0
 14 15  2  0
 14 16  1  0
 16 17  1  0
M  END
