
     RDKit          3D

 17 17  0  0  0  0  0  0  0  0999 V2000
    3.4820    0.0650   -1.4770 C   0  0  0  0  0  0  0  0  0  0  0  0
    2.8490   -0.1630   -0.2250 O   0  0  0  0  0  0  0  0  0  0  0  0
    3.3240    0.3960    0.9270 C   0  0  0  0  0  0  0  0  0  0  0  0
    4.3510    1.1300    0.8540 O   0  0  0  0  0  0  0  0  0  0  0  0
    2.7190    0.2040    2.2750 C   0  0  0  0  0  0  0  0  0  0  0  0
    1.5080   -0.6520    2.1070 C   0  0  0  0  0  0  0  0  0  0  0  0
    0.5300    0.0340    1.2050 C   0  0  0  0  0  0  0  0  0  0  0  0
    0.8330    1.1540    0.8030 O   0  0  0  0  0  0  0  0  0  0  0  0
   -0.6830   -0.5600    0.8250 N   0  0  0  0  0  0  0  0  0  0  0  0
   -1.6970   -0.0560   -0.0030 C   0  0  0  0  0  0  0  0  0  0  0  0
   -1.6510    1.1380   -0.5430 C   0  0  0  0  0  0  0  0  0  0  0  0
   -2.6780    1.7570   -1.4320 C   0  0  0  0  0  0  0  0  0  0  0  0
   -2.7260    1.1960   -2.6910 O   0  0  0  0  0  0  0  0  0  0  0  0
   -3.7280   -0.1930   -2.7400 S   0  0  0  0  0  0  0  0  0  0  0  0
   -3.6220   -1.1280   -1.2230 C   0  0  0  0  0  0  0  0  0  0  0  0
   -4.5550   -2.1230   -1.1190 O   0  0  0  0  0  0  0  0  0  0  0  0
   -2.8030   -1.0210   -0.1950 C   0  0  0  0  0  0  0  0  0  0  0  0
  1  2  1  0
  2  3  1  0
  3  4  2  0
  3  5  1  0
  5  6  1  0
  6  7  1  0
  7  8  2  0
  7  9  1  0
  9 10  1  0
 10 11  2  0
 10 17  1  0
 11 12  1  0
 12 13  1  0
 13 14  1  0
 14 15  1  0
 15 16  1  0
 15 17  2  0
M  END
