
     RDKit          3D

 21 23  0  0  0  0  0  0  0  0999 V2000
    5.3110   -2.0050    0.7800 O   0  0  0  0  0  0  0  0  0  0  0  0
    5.0130   -1.4050   -0.4190 C   0  0  0  0  0  0  0  0  0  0  0  0
    4.5340    0.0130   -0.1960 C   0  0  2  0  0  0  0  0  0  0  0  0
    3.3700    0.0740    0.7550 C   0  0  0  0  0  0  0  0  0  0  0  0
    2.6430    1.3900    0.4640 C   0  0  0  0  0  0  0  0  0  0  0  0
    1.9380    1.2120   -0.8520 C   0  0  2  0  0  0  0  0  0  0  0  0
    0.6220    0.4930   -0.7540 C   0  0  0  0  0  0  0  0  0  0  0  0
   -0.3260    1.1850    0.0960 N   0  0  0  0  0  0  0  0  0  0  0  0
   -0.8460    0.2680    1.0390 C   0  0  1  0  0  0  0  0  0  0  0  0
   -1.1320    0.8410    2.4100 C   0  0  2  0  0  0  0  0  0  0  0  0
    0.0270    1.1730    3.1020 O   0  0  0  0  0  0  0  0  0  0  0  0
   -1.8540   -0.1490    3.0210 O   0  0  0  0  0  0  0  0  0  0  0  0
   -2.5270   -0.8950    2.0910 C   0  0  0  0  0  0  0  0  0  0  0  0
   -2.2180   -0.2770    0.7190 C   0  0  1  0  0  0  0  0  0  0  0  0
   -3.2510    0.7520    0.4590 C   0  0  0  0  0  0  0  0  0  0  0  0
   -3.9500    0.6330   -0.8670 C   0  0  0  0  0  0  0  0  0  0  0  0
   -4.4620   -0.7520   -1.1490 C   0  0  0  0  0  0  0  0  0  0  0  0
   -3.6420   -1.8270   -0.4820 C   0  0  0  0  0  0  0  0  0  0  0  0
   -2.2040   -1.3060   -0.3600 C   0  0  0  0  0  0  0  0  0  0  0  0
    2.8860    0.4510   -1.7560 C   0  0  0  0  0  0  0  0  0  0  0  0
    4.2220    0.6580   -1.3660 O   0  0  0  0  0  0  0  0  0  0  0  0
  1  2  1  0
  3  2  1  6
  3  4  1  0
  3 21  1  0
  4  5  1  0
  5  6  1  0
  6  7  1  1
  6 20  1  0
  7  8  1  0
  9  8  1  6
  9 10  1  0
  9 14  1  0
 10 11  1  1
 10 12  1  0
 12 13  1  0
 14 13  1  1
 14 15  1  0
 14 19  1  0
 15 16  1  0
 16 17  1  0
 17 18  1  0
 18 19  1  0
 20 21  1  0
M  CHG  1   8   1
M  END
