
     RDKit          3D

 21 22  0  0  0  0  0  0  0  0999 V2000
   -3.2820   -1.3320   -2.6960 C   0  0  0  0  0  0  0  0  0  0  0  0
   -2.8690   -0.3910   -1.8820 C   0  0  0  0  0  0  0  0  0  0  0  0
   -3.7130    0.3120   -0.8820 C   0  0  0  0  0  0  0  0  0  0  0  0
   -3.1770   -0.0210    0.4820 C   0  0  1  0  0  0  0  0  0  0  0  0
   -3.6790    1.0420    1.4370 C   0  0  0  0  0  0  0  0  0  0  0  0
   -3.8570   -1.3330    0.9000 C   0  0  0  0  0  0  0  0  0  0  0  0
   -5.2400   -1.1920    0.9470 O   0  0  0  0  0  0  0  0  0  0  0  0
   -1.7220   -0.2230    0.5570 C   0  0  0  0  0  0  0  0  0  0  0  0
   -0.9000    0.3230   -0.5540 C   0  0  1  0  0  0  0  0  0  0  0  0
   -0.7080    1.7580   -0.4520 N   0  0  0  0  0  0  0  0  0  0  0  0
    0.4690   -0.3700   -0.4860 C   0  0  0  0  0  0  0  0  0  0  0  0
    1.1500   -0.1060    0.8300 C   0  0  2  0  0  0  0  0  0  0  0  0
    1.3420    1.2600    0.9960 O   0  0  0  0  0  0  0  0  0  0  0  0
    2.5220   -0.7430    0.7560 C   0  0  2  0  0  0  0  0  0  0  0  0
    3.3270   -0.4210    1.9740 C   0  0  0  0  0  0  0  0  0  0  0  0
    4.1910    0.5750    1.5400 O   0  0  0  0  0  0  0  0  0  0  0  0
    4.4790    0.1680    0.2390 C   0  0  1  0  0  0  0  0  0  0  0  0
    5.0570    1.2930   -0.5570 C   0  0  0  0  0  0  0  0  0  0  0  0
    5.4700   -0.9630    0.2620 C   0  0  0  0  0  0  0  0  0  0  0  0
    3.2590   -0.2360   -0.3130 O   0  0  0  0  0  0  0  0  0  0  0  0
   -1.4490    0.0410   -1.9250 C   0  0  0  0  0  0  0  0  0  0  0  0
  1  2  2  0
  2  3  1  0
  2 21  1  0
  3  4  1  0
  4  5  1  1
  4  6  1  0
  4  8  1  0
  6  7  1  0
  8  9  1  0
  9 10  1  1
  9 11  1  0
  9 21  1  0
 11 12  1  0
 12 13  1  6
 12 14  1  0
 14 15  1  1
 14 20  1  0
 15 16  1  0
 16 17  1  0
 17 18  1  6
 17 19  1  0
 17 20  1  0
M  CHG  1  10   1
M  END
