
     RDKit          3D

 21 22  0  0  0  0  0  0  0  0999 V2000
   -5.1440   -0.6970   -0.1850 C   0  0  0  0  0  0  0  0  0  0  0  0
   -4.0090   -0.1510   -0.6060 C   0  0  0  0  0  0  0  0  0  0  0  0
   -3.7420   -0.3050   -1.9680 O   0  0  0  0  0  0  0  0  0  0  0  0
   -2.4860   -0.2630   -2.6150 C   0  0  0  0  0  0  0  0  0  0  0  0
   -1.4410   -0.7240   -1.6260 C   0  0  0  0  0  0  0  0  0  0  0  0
   -1.0190    0.3190   -0.6480 C   0  0  2  0  0  0  0  0  0  0  0  0
    0.4180    0.2420   -0.3630 N   0  0  0  0  0  0  0  0  0  0  0  0
    0.7780   -1.0240    0.2010 C   0  0  0  0  0  0  0  0  0  0  0  0
    2.1190   -1.5250   -0.2640 C   0  0  0  0  0  0  0  0  0  0  0  0
    3.2510   -0.6070    0.0770 C   0  0  2  0  0  0  0  0  0  0  0  0
    4.5270   -1.2210   -0.4410 C   0  0  0  0  0  0  0  0  0  0  0  0
    4.5300   -1.3060   -1.8400 O   0  0  0  0  0  0  0  0  0  0  0  0
    3.3980   -0.3610    1.5480 C   0  0  0  0  0  0  0  0  0  0  0  0
    4.2880    0.8740    1.5600 C   0  0  0  0  0  0  0  0  0  0  0  0
    4.0810    1.4190    0.1780 C   0  0  0  0  0  0  0  0  0  0  0  0
    3.1110    0.6670   -0.4360 O   0  0  0  0  0  0  0  0  0  0  0  0
   -1.7590    0.3350    0.6470 C   0  0  1  0  0  0  0  0  0  0  0  0
   -1.3400    1.5050    1.3230 O   0  0  0  0  0  0  0  0  0  0  0  0
   -3.2280    0.5210    0.4200 C   0  0  0  0  0  0  0  0  0  0  0  0
   -3.8490    1.3940    1.1820 C   0  0  0  0  0  0  0  0  0  0  0  0
   -5.2640    1.7600    1.0870 C   0  0  0  0  0  0  0  0  0  0  0  0
  1  2  2  0
  2  3  1  0
  2 19  1  0
  3  4  1  0
  4  5  1  0
  5  6  1  0
  6  7  1  1
  6 17  1  0
  7  8  1  0
  8  9  1  0
 10  9  1  1
 10 11  1  0
 10 13  1  0
 10 16  1  0
 11 12  1  0
 13 14  1  0
 14 15  1  0
 15 16  1  0
 17 18  1  1
 17 19  1  0
 19 20  2  3
 20 21  1  0
M  CHG  1   7   1
M  END
