
     RDKit          3D

 21 23  0  0  0  0  0  0  0  0999 V2000
    2.6530   -1.3930   -1.2500 O   0  0  0  0  0  0  0  0  0  0  0  0
    3.5360   -0.7810   -0.5770 C   0  0  0  0  0  0  0  0  0  0  0  0
    4.7570   -1.4370   -0.3930 O   0  0  0  0  0  0  0  0  0  0  0  0
    6.0510   -0.9340   -0.2560 C   0  0  0  0  0  0  0  0  0  0  0  0
    6.1870    0.2250    0.6210 C   0  0  0  0  0  0  0  0  0  0  0  0
    5.4010    1.2090    1.0270 C   0  0  0  0  0  0  0  0  0  0  0  0
    3.9960    1.3700    0.6150 C   0  0  0  0  0  0  0  0  0  0  0  0
    3.2180    0.5360   -0.0560 C   0  0  0  0  0  0  0  0  0  0  0  0
    1.8570    1.0230   -0.2960 C   0  0  0  0  0  0  0  0  0  0  0  0
    0.8330    0.1600    0.2890 N   0  0  0  0  0  0  0  0  0  0  0  0
   -0.3370    0.2700   -0.5530 C   0  0  2  0  0  0  0  0  0  0  0  0
   -0.9770    1.6160   -0.2700 C   0  0  0  0  0  0  0  0  0  0  0  0
   -2.1820    1.6820   -1.2020 C   0  0  0  0  0  0  0  0  0  0  0  0
   -3.2100    0.7310   -0.7090 C   0  0  0  0  0  0  0  0  0  0  0  0
   -2.6830   -0.5210   -0.0990 C   0  0  2  0  0  0  0  0  0  0  0  0
   -3.5650   -1.6700   -0.6100 C   0  0  0  0  0  0  0  0  0  0  0  0
   -4.6970   -1.6010    0.4230 C   0  0  2  0  0  0  0  0  0  0  0  0
   -5.6060   -0.6110    0.0440 O   0  0  0  0  0  0  0  0  0  0  0  0
   -3.9030   -1.2180    1.6450 C   0  0  0  0  0  0  0  0  0  0  0  0
   -2.8270   -0.4790    1.2560 O   0  0  0  0  0  0  0  0  0  0  0  0
   -1.2790   -0.8640   -0.4520 C   0  0  0  0  0  0  0  0  0  0  0  0
  1  2  2  0
  2  3  1  0
  2  8  1  0
  3  4  1  0
  4  5  1  0
  5  6  2  0
  6  7  1  0
  7  8  2  0
  8  9  1  0
  9 10  1  0
 11 10  1  1
 11 12  1  0
 11 21  1  0
 12 13  1  0
 13 14  1  0
 15 14  1  6
 15 16  1  0
 15 20  1  0
 15 21  1  0
 16 17  1  0
 17 18  1  6
 17 19  1  0
 19 20  1  0
M  CHG  1  10   1
M  END
