
     RDKit          3D

 20 19  0  0  0  0  0  0  0  0999 V2000
   -3.5550   -3.7850    1.5250 N   0  0  0  0  0  0  0  0  0  0  0  0
   -2.4960   -2.8510    1.5740 C   0  0  0  0  0  0  0  0  0  0  0  0
   -2.7350   -1.6750    1.9150 O   0  0  0  0  0  0  0  0  0  0  0  0
   -1.1280   -3.2990    1.2180 C   0  0  0  0  0  0  0  0  0  0  0  0
    0.0730   -1.9600    1.3360 S   0  0  0  0  0  0  0  0  0  0  0  0
   -0.2370   -0.7040    0.1110 C   0  0  0  0  0  0  0  0  0  0  0  0
   -1.2540   -0.8590   -0.7330 C   0  0  0  0  0  0  0  0  0  0  0  0
   -1.6310    0.3530   -1.9900 S   0  0  0  0  0  0  0  0  0  0  0  0
   -3.3160    0.9470   -1.8190 C   0  0  0  0  0  0  0  0  0  0  0  0
   -3.5370    1.7150   -0.5750 C   0  0  0  0  0  0  0  0  0  0  0  0
   -4.6870    2.1730   -0.3730 O   0  0  0  0  0  0  0  0  0  0  0  0
   -2.5710    1.9590    0.3710 O   0  0  0  0  0  0  0  0  0  0  0  0
    0.6340    0.4570    0.0670 C   0  0  0  0  0  0  0  0  0  0  0  0
    0.4480    1.3630   -0.7840 O   0  0  0  0  0  0  0  0  0  0  0  0
    1.7090    0.5900    0.9850 N   0  0  0  0  0  0  0  0  0  0  0  0
    2.5780    1.7400    0.9480 C   0  0  0  0  0  0  0  0  0  0  0  0
    3.3080    1.9080   -0.3480 C   0  0  1  0  0  0  0  0  0  0  0  0
    4.1030    3.0500   -0.2380 O   0  0  0  0  0  0  0  0  0  0  0  0
    4.2440    0.7310   -0.5630 C   0  0  0  0  0  0  0  0  0  0  0  0
    4.9590    0.9620   -1.7290 O   0  0  0  0  0  0  0  0  0  0  0  0
  1  2  1  0
  2  3  2  0
  2  4  1  0
  4  5  1  0
  5  6  1  0
  6  7  2  3
  6 13  1  0
  7  8  1  0
  8  9  1  0
  9 10  1  0
 10 11  2  0
 10 12  1  0
 13 14  2  0
 13 15  1  0
 15 16  1  0
 16 17  1  0
 17 18  1  1
 17 19  1  0
 19 20  1  0
M  END
