
     RDKit          3D

 22 24  0  0  0  0  0  0  0  0999 V2000
    6.7120   -1.3310    0.3200 C   0  0  0  0  0  0  0  0  0  0  0  0
    5.3030   -0.8330    0.4460 C   0  0  0  0  0  0  0  0  0  0  0  0
    4.5550   -0.5320   -0.6760 C   0  0  0  0  0  0  0  0  0  0  0  0
    3.2650   -0.0720   -0.5970 C   0  0  0  0  0  0  0  0  0  0  0  0
    2.6490    0.1130    0.6260 C   0  0  0  0  0  0  0  0  0  0  0  0
    1.2800    0.6080    0.7530 C   0  0  0  0  0  0  0  0  0  0  0  0
    0.8140    0.7350    1.9060 O   0  0  0  0  0  0  0  0  0  0  0  0
    0.4830    0.9410   -0.4310 C   0  0  0  0  0  0  0  0  0  0  0  0
   -0.9550    1.2490   -0.2140 C   0  0  1  0  0  0  0  0  0  0  0  0
   -1.4910    1.6270   -1.6030 C   0  0  0  0  0  0  0  0  0  0  0  0
   -2.9090    2.0750   -1.5900 C   0  0  0  0  0  0  0  0  0  0  0  0
   -3.7360    1.1990   -0.6180 C   0  0  1  0  0  0  0  0  0  0  0  0
   -5.0090    0.9900   -1.0920 O   0  0  0  0  0  0  0  0  0  0  0  0
   -2.9190   -0.0230   -0.4390 C   0  0  2  0  0  0  0  0  0  0  0  0
   -3.5850   -1.1910    0.2320 C   0  0  2  0  0  0  0  0  0  0  0  0
   -4.2930   -0.9080    1.3570 O   0  0  0  0  0  0  0  0  0  0  0  0
   -2.3490   -2.0020    0.6500 C   0  0  2  0  0  0  0  0  0  0  0  0
   -2.5950   -2.7480    1.7820 O   0  0  0  0  0  0  0  0  0  0  0  0
   -1.2900   -0.9080    0.9180 C   0  0  0  0  0  0  0  0  0  0  0  0
   -1.7780    0.3070    0.4130 N   0  0  1  0  0  0  0  0  0  0  0  0
    3.4060   -0.1910    1.7400 C   0  0  0  0  0  0  0  0  0  0  0  0
    4.7040   -0.6540    1.6720 C   0  0  0  0  0  0  0  0  0  0  0  0
  1  2  1  0
  2  3  2  0
  2 22  1  0
  3  4  1  0
  4  5  2  0
  5  6  1  0
  5 21  1  0
  6  7  2  0
  6  8  1  0
  9  8  1  6
  9 10  1  0
  9 20  1  0
 10 11  1  0
 11 12  1  0
 12 13  1  6
 14 12  1  1
 14 15  1  0
 14 20  1  0
 15 16  1  1
 15 17  1  0
 17 18  1  1
 17 19  1  0
 20 19  1  6
 21 22  2  0
M  CHG  1  20   1
M  END
