
     RDKit          3D

 19 18  0  0  0  0  0  0  0  0999 V2000
   -5.2790   -1.7440   -0.6020 C   0  0  0  0  0  0  0  0  0  0  0  0
   -3.8340   -1.7220   -1.6890 S   0  0  0  0  0  0  0  0  0  0  0  0
   -3.0730   -0.0800   -1.7670 C   0  0  1  0  0  0  0  0  0  0  0  0
   -4.0420    0.8800   -2.4410 C   0  0  0  0  0  0  0  0  0  0  0  0
   -5.1950    1.0300   -1.6790 O   0  0  0  0  0  0  0  0  0  0  0  0
   -2.7010    0.4190   -0.4710 N   0  0  0  0  0  0  0  0  0  0  0  0
   -1.3130    0.7060   -0.2000 C   0  0  0  0  0  0  0  0  0  0  0  0
   -0.5070    0.4990   -1.1320 O   0  0  0  0  0  0  0  0  0  0  0  0
   -0.9000    1.2190    1.1220 C   0  0  0  0  0  0  0  0  0  0  0  0
    0.5840    1.3300    1.2330 C   0  0  0  0  0  0  0  0  0  0  0  0
    1.2600    0.0060    1.1040 C   0  0  0  0  0  0  0  0  0  0  0  0
    2.6580    0.1280    1.2090 O   0  0  0  0  0  0  0  0  0  0  0  0
    3.3160    0.5970    2.3130 C   0  0  0  0  0  0  0  0  0  0  0  0
    2.6830    0.9500    3.3190 O   0  0  0  0  0  0  0  0  0  0  0  0
    5.1170    0.6840    2.2550 S   0  0  0  0  0  0  0  0  0  0  0  0
    5.7050    0.0970    0.6480 C   0  0  0  0  0  0  0  0  0  0  0  0
    5.4070   -1.3630    0.5050 C   0  0  0  0  0  0  0  0  0  0  0  0
    5.7680   -2.0780   -0.6740 N   0  0  0  0  0  0  0  0  0  0  0  0
    4.8270   -1.9650    1.4430 O   0  0  0  0  0  0  0  0  0  0  0  0
  1  2  1  0
  2  3  1  0
  3  4  1  1
  3  6  1  0
  4  5  1  0
  6  7  1  0
  7  8  2  0
  7  9  1  0
  9 10  1  0
 10 11  1  0
 11 12  1  0
 12 13  1  0
 13 14  2  0
 13 15  1  0
 15 16  1  0
 16 17  1  0
 17 18  1  0
 17 19  2  0
M  END
