
     RDKit          3D

 20 19  0  0  0  0  0  0  0  0999 V2000
   -2.7550   -1.3570    1.6030 N   0  0  0  0  0  0  0  0  0  0  0  0
   -1.7460   -0.9240    0.7280 C   0  0  0  0  0  0  0  0  0  0  0  0
   -1.7890    0.3920    0.4290 C   0  0  0  0  0  0  0  0  0  0  0  0
   -3.0610    1.4580    1.1280 S   0  0  0  0  0  0  0  0  0  0  0  0
   -4.2240    1.9620   -0.1700 C   0  0  0  0  0  0  0  0  0  0  0  0
   -5.4760    3.0290    0.5900 S   0  0  0  0  0  0  0  0  0  0  0  0
   -0.6990   -1.7420    0.1740 C   0  0  0  0  0  0  0  0  0  0  0  0
   -0.4480   -2.9960    0.2800 C   0  0  0  0  0  0  0  0  0  0  0  0
   -1.1120   -4.0240    0.9810 C   0  0  0  0  0  0  0  0  0  0  0  0
   -0.6880   -5.2500    0.9610 O   0  0  0  0  0  0  0  0  0  0  0  0
   -2.2380   -3.8590    1.7360 O   0  0  0  0  0  0  0  0  0  0  0  0
    0.2700   -1.0140   -0.6630 N   0  0  0  0  0  0  0  0  0  0  0  0
    1.0860   -0.0730    0.0040 C   0  0  0  0  0  0  0  0  0  0  0  0
    1.0220    0.1520    1.2400 O   0  0  0  0  0  0  0  0  0  0  0  0
    2.0550    0.6700   -0.8180 C   0  0  0  0  0  0  0  0  0  0  0  0
    2.1660    0.4910   -2.0550 O   0  0  0  0  0  0  0  0  0  0  0  0
    2.9000    1.6150   -0.2560 O   0  0  0  0  0  0  0  0  0  0  0  0
    3.8410    2.3610   -0.9500 C   0  0  0  0  0  0  0  0  0  0  0  0
    4.8940    1.5400   -1.6490 C   0  0  0  0  0  0  0  0  0  0  0  0
    5.5950    0.7810   -0.7440 O   0  0  0  0  0  0  0  0  0  0  0  0
  1  2  1  0
  2  3  2  3
  2  7  1  0
  3  4  1  0
  4  5  1  0
  5  6  1  0
  7  8  2  3
  7 12  1  0
  8  9  1  0
  9 10  2  0
  9 11  1  0
 12 13  1  0
 13 14  2  0
 13 15  1  0
 15 16  2  0
 15 17  1  0
 17 18  1  0
 18 19  1  0
 19 20  1  0
M  END
