
     RDKit          3D

  9  9  0  0  0  0  0  0  0  0999 V2000
   -1.4230    1.5600   -0.2070 N   0  0  0  0  0  0  0  0  0  0  0  0
   -0.9830    0.2050   -0.5400 C   0  0  2  0  0  0  0  0  0  0  0  0
   -2.0610   -0.7510   -0.1420 C   0  0  0  0  0  0  0  0  0  0  0  0
   -1.6900   -1.2070    1.1230 O   0  0  0  0  0  0  0  0  0  0  0  0
   -0.2940   -1.3660    1.0610 C   0  0  0  0  0  0  0  0  0  0  0  0
    0.2230   -0.1720    0.2980 C   0  0  1  0  0  0  0  0  0  0  0  0
    1.2570   -0.5360   -0.5360 O   0  0  0  0  0  0  0  0  0  0  0  0
    2.4000    0.2370   -0.3470 C   0  0  0  0  0  0  0  0  0  0  0  0
    3.3820   -0.2050   -1.2290 O   0  0  0  0  0  0  0  0  0  0  0  0
  2  1  1  1
  2  3  1  0
  2  6  1  0
  3  4  1  0
  4  5  1  0
  5  6  1  0
  6  7  1  6
  7  8  1  0
  8  9  1  0
M  CHG  1   1   1
M  END
