
     RDKit          3D

  9  9  0  0  0  0  0  0  0  0999 V2000
   -1.6630    1.0720    0.3160 N   0  0  0  0  0  0  0  0  0  0  0  0
   -1.0050    0.0750   -0.4350 C   0  0  2  0  0  0  0  0  0  0  0  0
   -1.2110   -1.3400    0.1230 C   0  0  0  0  0  0  0  0  0  0  0  0
   -0.3040   -2.0280   -0.7140 O   0  0  0  0  0  0  0  0  0  0  0  0
    0.8850   -1.3110   -0.5140 C   0  0  0  0  0  0  0  0  0  0  0  0
    0.4820    0.1510   -0.4790 C   0  0  1  0  0  0  0  0  0  0  0  0
    0.9350    0.7620   -1.6370 O   0  0  0  0  0  0  0  0  0  0  0  0
    1.1120    0.7780    0.7230 C   0  0  0  0  0  0  0  0  0  0  0  0
    2.4990    0.6140    0.6060 O   0  0  0  0  0  0  0  0  0  0  0  0
  2  1  1  1
  2  3  1  0
  2  6  1  0
  3  4  1  0
  4  5  1  0
  5  6  1  0
  6  7  1  6
  6  8  1  0
  8  9  1  0
M  CHG  1   1   1
M  END
