
     RDKit          3D

 20 21  0  0  0  0  0  0  0  0999 V2000
    5.3850    1.8570   -0.2210 C   0  0  0  0  0  0  0  0  0  0  0  0
    5.2420    0.7700    0.4970 C   0  0  0  0  0  0  0  0  0  0  0  0
    4.0600   -0.0870    0.4070 C   0  0  0  0  0  0  0  0  0  0  0  0
    3.9640   -1.1650    1.1470 C   0  0  0  0  0  0  0  0  0  0  0  0
    5.0420   -1.5420    2.0890 C   0  0  0  0  0  0  0  0  0  0  0  0
    3.0220    0.2420   -0.4750 N   0  0  0  0  0  0  0  0  0  0  0  0
    3.0110   -0.1620   -1.8830 C   0  0  0  0  0  0  0  0  0  0  0  0
    1.6940   -0.7000   -2.3190 C   0  0  0  0  0  0  0  0  0  0  0  0
    0.5930   -0.2490   -1.7100 O   0  0  0  0  0  0  0  0  0  0  0  0
    0.6390    0.2760   -0.4720 C   0  0  2  0  0  0  0  0  0  0  0  0
   -0.5550    1.1880   -0.2600 C   0  0  0  0  0  0  0  0  0  0  0  0
   -1.7070    0.4520   -0.4100 O   0  0  0  0  0  0  0  0  0  0  0  0
   -2.8620    1.1690   -0.2410 C   0  0  0  0  0  0  0  0  0  0  0  0
   -4.0320    0.1960   -0.4420 C   0  0  2  0  0  0  0  0  0  0  0  0
   -3.9940   -0.3540   -1.7130 O   0  0  0  0  0  0  0  0  0  0  0  0
   -5.3060    0.9250   -0.1610 C   0  0  0  0  0  0  0  0  0  0  0  0
   -5.7570    0.4170    1.1790 C   0  0  0  0  0  0  0  0  0  0  0  0
   -5.2780   -1.0050    1.2310 C   0  0  0  0  0  0  0  0  0  0  0  0
   -3.9380   -0.9450    0.5590 C   0  0  0  0  0  0  0  0  0  0  0  0
    1.8630    1.0130   -0.0750 C   0  0  0  0  0  0  0  0  0  0  0  0
  1  2  2  0
  2  3  1  0
  3  4  2  3
  3  6  1  0
  4  5  1  0
  6  7  1  0
  6 20  1  0
  7  8  1  0
  8  9  1  0
  9 10  1  0
 10 11  1  6
 10 20  1  0
 11 12  1  0
 12 13  1  0
 13 14  1  0
 14 15  1  6
 14 16  1  0
 14 19  1  0
 16 17  1  0
 17 18  1  0
 18 19  1  0
M  END
