
     RDKit          3D

 16 17  0  0  0  0  0  0  0  0999 V2000
   -2.9200   -0.6490   -1.9450 C   0  0  0  0  0  0  0  0  0  0  0  0
   -3.3870   -0.2620   -0.7800 C   0  0  0  0  0  0  0  0  0  0  0  0
   -4.7810   -0.1020   -0.4010 C   0  0  0  0  0  0  0  0  0  0  0  0
   -4.7960    0.3050    0.8650 C   0  0  0  0  0  0  0  0  0  0  0  0
   -3.4330    0.4180    1.3330 C   0  0  0  0  0  0  0  0  0  0  0  0
   -2.9800    0.9290    2.9620 Cl  0  0  0  0  0  0  0  0  0  0  0  0
   -2.5680    0.0880    0.3800 C   0  0  0  0  0  0  0  0  0  0  0  0
   -1.1440    0.0870    0.4970 N   0  0  0  0  0  0  0  0  0  0  0  0
   -0.2950    0.8270   -0.4170 C   0  0  0  0  0  0  0  0  0  0  0  0
    0.8650   -0.0790   -0.8460 C   0  0  0  0  0  0  0  0  0  0  0  0
    1.5540   -0.5780    0.2880 N   0  0  0  0  0  0  0  0  0  0  0  0
    2.9680   -0.5750    0.2190 C   0  0  0  0  0  0  0  0  0  0  0  0
    3.5760    0.7060    0.0360 N   0  0  0  0  0  0  0  0  0  0  0  0
    5.0250    0.4940   -0.0100 C   0  0  0  0  0  0  0  0  0  0  0  0
    0.9860   -0.2600    1.5540 C   0  0  0  0  0  0  0  0  0  0  0  0
   -0.4820   -0.6630    1.5460 C   0  0  0  0  0  0  0  0  0  0  0  0
  1  2  2  0
  2  3  1  0
  2  7  1  0
  3  4  2  0
  4  5  1  0
  5  6  1  0
  5  7  2  0
  7  8  1  0
  8  9  1  0
  8 16  1  0
  9 10  1  0
 10 11  1  0
 11 12  1  0
 11 15  1  0
 12 13  1  0
 13 14  1  0
 15 16  1  0
M  END
