
     RDKit          3D

 20 21  0  0  0  0  0  0  0  0999 V2000
    4.9570    2.7210   -0.4490 C   0  0  0  0  0  0  0  0  0  0  0  0
    5.5630    1.7700    0.2430 C   0  0  0  0  0  0  0  0  0  0  0  0
    4.9420    0.4600    0.3780 C   0  0  0  0  0  0  0  0  0  0  0  0
    5.5360   -0.4950    1.0650 C   0  0  0  0  0  0  0  0  0  0  0  0
    3.7170    0.1950   -0.2120 O   0  0  0  0  0  0  0  0  0  0  0  0
    3.4410   -1.0370   -0.8480 C   0  0  0  0  0  0  0  0  0  0  0  0
    2.0450   -1.0320   -1.3890 C   0  0  0  0  0  0  0  0  0  0  0  0
    1.0150   -0.8370   -0.3530 C   0  0  0  0  0  0  0  0  0  0  0  0
    1.2450   -0.6880    0.8630 O   0  0  0  0  0  0  0  0  0  0  0  0
   -0.3430   -0.8160   -0.7590 N   0  0  0  0  0  0  0  0  0  0  0  0
   -1.4480   -0.6370    0.1310 C   0  0  2  0  0  0  0  0  0  0  0  0
   -2.4280   -1.7690    0.1440 C   0  0  0  0  0  0  0  0  0  0  0  0
   -3.5030   -1.4090    1.1740 C   0  0  0  0  0  0  0  0  0  0  0  0
   -4.2880   -0.2330    0.7320 C   0  0  0  0  0  0  0  0  0  0  0  0
   -5.5410    0.1390    0.8590 C   0  0  0  0  0  0  0  0  0  0  0  0
   -5.7300    1.4350    0.1920 C   0  0  0  0  0  0  0  0  0  0  0  0
   -4.4040    1.7670   -0.3440 C   0  0  0  0  0  0  0  0  0  0  0  0
   -3.5880    0.7950   -0.0230 C   0  0  0  0  0  0  0  0  0  0  0  0
   -2.1740    0.5910   -0.2860 C   0  0  0  0  0  0  0  0  0  0  0  0
   -1.5360    1.5060   -0.8980 O   0  0  0  0  0  0  0  0  0  0  0  0
  1  2  2  0
  2  3  1  0
  3  4  2  0
  3  5  1  0
  5  6  1  0
  6  7  1  0
  7  8  1  0
  8  9  2  0
  8 10  1  0
 11 10  1  6
 11 12  1  0
 11 19  1  0
 12 13  1  0
 13 14  1  0
 14 15  2  0
 14 18  1  0
 15 16  1  0
 16 17  1  0
 17 18  2  0
 18 19  1  0
 19 20  2  0
M  END
