
     RDKit          3D

 20 21  0  0  0  0  0  0  0  0999 V2000
   -5.4580    0.3590   -1.5740 C   0  0  0  0  0  0  0  0  0  0  0  0
   -4.8130   -0.8590   -0.9690 C   0  0  0  0  0  0  0  0  0  0  0  0
   -3.7880   -0.5750   -0.0310 N   0  0  0  0  0  0  0  0  0  0  0  0
   -2.3860   -0.4210   -0.3850 C   0  0  0  0  0  0  0  0  0  0  0  0
   -1.9860   -0.5320   -1.5530 O   0  0  0  0  0  0  0  0  0  0  0  0
   -1.6250   -0.1380    0.8040 C   0  0  0  0  0  0  0  0  0  0  0  0
   -0.3790    0.0770    1.0210 C   0  0  0  0  0  0  0  0  0  0  0  0
    0.8090    0.1380    0.2100 C   0  0  0  0  0  0  0  0  0  0  0  0
    0.8050   -0.0520   -1.2410 C   0  0  0  0  0  0  0  0  0  0  0  0
    1.9740    0.3930    0.8260 C   0  0  0  0  0  0  0  0  0  0  0  0
    3.2930    0.5130    0.3110 C   0  0  0  0  0  0  0  0  0  0  0  0
    4.2930    0.7850    1.2140 C   0  0  0  0  0  0  0  0  0  0  0  0
    3.9750    0.9250    2.5400 O   0  0  0  0  0  0  0  0  0  0  0  0
    5.6420    0.8990    0.6270 C   0  0  0  0  0  0  0  0  0  0  0  0
    5.8850   -0.3750   -0.1920 C   0  0  0  0  0  0  0  0  0  0  0  0
    4.9050   -0.3180   -1.3450 C   0  0  0  0  0  0  0  0  0  0  0  0
    3.7310    0.3930   -0.9930 O   0  0  0  0  0  0  0  0  0  0  0  0
   -2.6810   -0.1370    1.8790 C   0  0  0  0  0  0  0  0  0  0  0  0
   -3.8490   -0.3830    1.3530 C   0  0  0  0  0  0  0  0  0  0  0  0
   -5.1390   -0.4640    2.1070 C   0  0  0  0  0  0  0  0  0  0  0  0
  1  2  1  0
  2  3  1  0
  3  4  1  0
  3 19  1  0
  4  5  2  0
  4  6  1  0
  6  7  2  3
  6 18  1  0
  7  8  1  0
  8  9  1  0
  8 10  2  3
 10 11  1  0
 11 12  2  0
 11 17  1  0
 12 13  1  0
 12 14  1  0
 14 15  1  0
 15 16  1  0
 16 17  1  0
 18 19  2  0
 19 20  1  0
M  END
