
     RDKit          3D

 20 21  0  0  0  0  0  0  0  0999 V2000
   -6.1350    1.0210   -2.1260 C   0  0  0  0  0  0  0  0  0  0  0  0
   -5.3690    0.0540   -1.3340 N   0  0  0  0  0  0  0  0  0  0  0  0
   -5.6450   -1.3000   -1.1570 C   0  0  0  0  0  0  0  0  0  0  0  0
   -4.7620   -1.8950   -0.3860 C   0  0  0  0  0  0  0  0  0  0  0  0
   -3.7300   -0.9030    0.0570 C   0  0  0  0  0  0  0  0  0  0  0  0
   -2.7140   -1.1890    0.8370 C   0  0  0  0  0  0  0  0  0  0  0  0
   -1.7210   -0.2610    1.2700 C   0  0  0  0  0  0  0  0  0  0  0  0
   -1.7260    1.0680    0.9050 O   0  0  0  0  0  0  0  0  0  0  0  0
   -0.7440   -0.7280    2.0710 C   0  0  0  0  0  0  0  0  0  0  0  0
    0.3310    0.1440    2.5770 C   0  0  0  0  0  0  0  0  0  0  0  0
    1.5520   -0.3650    2.1260 O   0  0  0  0  0  0  0  0  0  0  0  0
    1.5980   -0.3950    0.7320 C   0  0  0  0  0  0  0  0  0  0  0  0
    2.9050   -0.9380    0.3090 C   0  0  0  0  0  0  0  0  0  0  0  0
    3.7260   -0.2350   -0.4280 C   0  0  0  0  0  0  0  0  0  0  0  0
    3.5570    1.1430   -0.9630 C   0  0  0  0  0  0  0  0  0  0  0  0
    4.9560    1.7250   -0.7580 C   0  0  0  0  0  0  0  0  0  0  0  0
    5.8120    0.5880   -1.2680 C   0  0  0  0  0  0  0  0  0  0  0  0
    5.0720   -0.6650   -0.9280 C   0  0  0  0  0  0  0  0  0  0  0  0
   -4.1680    0.3280   -0.5800 C   0  0  0  0  0  0  0  0  0  0  0  0
   -3.6480    1.4550   -0.5270 O   0  0  0  0  0  0  0  0  0  0  0  0
  1  2  1  0
  2  3  1  0
  2 19  1  0
  3  4  2  0
  4  5  1  0
  5  6  2  3
  5 19  1  0
  6  7  1  0
  7  8  1  0
  7  9  2  3
  9 10  1  0
 10 11  1  0
 11 12  1  0
 12 13  1  0
 13 14  2  3
 14 15  1  0
 14 18  1  0
 15 16  1  0
 16 17  1  0
 17 18  1  0
 19 20  2  0
M  END
