
     RDKit          3D

 13 12  0  0  0  0  0  0  0  0999 V2000
    1.9190   -1.5410    0.3450 N   0  0  0  0  0  0  0  0  0  0  0  0
    2.2770   -0.3720   -0.3580 C   0  0  0  0  0  0  0  0  0  0  0  0
    1.2510    0.6200   -0.6400 C   0  0  0  0  0  0  0  0  0  0  0  0
   -0.0090    0.6550   -0.3600 C   0  0  0  0  0  0  0  0  0  0  0  0
   -0.7010   -0.3790    0.3500 C   0  0  0  0  0  0  0  0  0  0  0  0
   -2.0200   -0.2560    0.5980 C   0  0  0  0  0  0  0  0  0  0  0  0
   -2.6970    0.9100    0.1410 N   0  0  0  0  0  0  0  0  0  0  0  0
   -2.7300   -1.3160    1.3270 C   0  0  1  0  0  0  0  0  0  0  0  0
   -3.2810   -0.7950    2.4930 F   0  0  0  0  0  0  0  0  0  0  0  0
   -3.8150   -1.7860    0.5840 F   0  0  0  0  0  0  0  0  0  0  0  0
   -1.9050   -2.3710    1.6330 F   0  0  0  0  0  0  0  0  0  0  0  0
    1.7730    1.8410   -1.4100 C   0  0  0  0  0  0  0  0  0  0  0  0
    3.1470    2.6920   -0.3520 Br  0  0  0  0  0  0  0  0  0  0  0  0
  1  2  1  0
  2  3  1  0
  3  4  2  3
  3 12  1  0
  4  5  1  0
  5  6  2  3
  6  7  1  0
  6  8  1  0
  8  9  1  1
  8 10  1  0
  8 11  1  0
 12 13  1  0
M  END
