
     RDKit          3D

 13 12  0  0  0  0  0  0  0  0999 V2000
   -1.5560   -1.5660   -0.4090 C   0  0  0  0  0  0  0  0  0  0  0  0
   -1.1190   -0.1420   -0.2940 C   0  0  0  0  0  0  0  0  0  0  0  0
    0.1250    0.1900   -0.1010 C   0  0  0  0  0  0  0  0  0  0  0  0
    0.4850    1.6340    0.0010 C   0  0  0  0  0  0  0  0  0  0  0  0
    1.0610    1.9990    1.2650 N   0  0  0  0  0  0  0  0  0  0  0  0
    1.1660   -0.8230    0.0160 C   0  0  0  0  0  0  0  0  0  0  0  0
    0.9980   -2.2070   -0.0470 N   0  0  0  0  0  0  0  0  0  0  0  0
    2.4350   -0.3930    0.2090 C   0  0  0  0  0  0  0  0  0  0  0  0
    3.8040   -1.6990    0.3640 Br  0  0  0  0  0  0  0  0  0  0  0  0
   -2.1820    0.9050   -0.4070 C   0  0  2  0  0  0  0  0  0  0  0  0
   -3.4250    0.2560   -0.5560 F   0  0  0  0  0  0  0  0  0  0  0  0
   -1.9990    1.6600   -1.5380 F   0  0  0  0  0  0  0  0  0  0  0  0
   -2.2520    1.6940    0.7110 F   0  0  0  0  0  0  0  0  0  0  0  0
  1  2  1  0
  2  3  2  3
  2 10  1  0
  3  4  1  0
  3  6  1  0
  4  5  1  0
  6  7  1  0
  6  8  2  3
  8  9  1  0
 10 11  1  6
 10 12  1  0
 10 13  1  0
M  END
