
     RDKit          3D

 12 11  0  0  0  0  0  0  0  0999 V2000
   -2.9440   -0.0850    1.2550 C   0  0  0  0  0  0  0  0  0  0  0  0
   -1.7630    0.0490    0.3280 C   0  0  0  0  0  0  0  0  0  0  0  0
   -2.0480    0.3070   -1.0950 C   0  0  0  0  0  0  0  0  0  0  0  0
   -0.5610   -0.0750    0.8550 C   0  0  0  0  0  0  0  0  0  0  0  0
    0.6900    0.0210    0.1320 C   0  0  0  0  0  0  0  0  0  0  0  0
    0.6610    0.2640   -1.2510 N   0  0  0  0  0  0  0  0  0  0  0  0
    1.8310   -0.1200    0.7670 C   0  0  0  0  0  0  0  0  0  0  0  0
    1.8650   -0.3720    2.1930 N   0  0  0  0  0  0  0  0  0  0  0  0
    3.1710   -0.0450    0.1490 C   0  0  2  0  0  0  0  0  0  0  0  0
    3.7580   -1.3000    0.3770 F   0  0  0  0  0  0  0  0  0  0  0  0
    3.9110    0.8780    0.8710 F   0  0  0  0  0  0  0  0  0  0  0  0
    3.1020    0.3760   -1.7120 Br  0  0  0  0  0  0  0  0  0  0  0  0
  1  2  1  0
  2  3  1  0
  2  4  2  3
  4  5  1  0
  5  6  1  0
  5  7  2  3
  7  8  1  0
  7  9  1  0
  9 10  1  6
  9 11  1  0
  9 12  1  0
M  END
