
     RDKit          3D

 34 37  0  0  0  0  0  0  0  0999 V2000
   -2.0610    0.9950    1.4160 O   0  0  0  0  0  0  0  0  0  0  0  0
   -2.8220   -0.0010    1.1510 C   0  0  0  0  0  0  0  0  0  0  0  0
   -2.3140   -1.2030    1.5800 O   0  0  0  0  0  0  0  0  0  0  0  0
   -1.0600   -1.3240    2.2540 C   0  0  0  0  0  0  0  0  0  0  0  0
    0.0700   -0.8470    1.4530 C   0  0  0  0  0  0  0  0  0  0  0  0
    1.2540   -0.6880    1.5500 N   0  0  0  0  0  0  0  0  0  0  0  0
    2.0400   -0.2290    0.6420 N   0  0  0  0  0  0  0  0  0  0  0  0
    1.6720    0.1160   -0.4740 C   0  0  0  0  0  0  0  0  0  0  0  0
    2.1820    0.6380   -1.6800 N   0  0  0  0  0  0  0  0  0  0  0  0
    3.2810    0.1970   -2.1900 C   0  0  0  0  0  0  0  0  0  0  0  0
    4.0610   -0.8420   -1.5830 N   0  0  0  0  0  0  0  0  0  0  0  0
    3.7320   -2.1670   -1.6950 C   0  0  0  0  0  0  0  0  0  0  0  0
    4.6670   -2.8920   -1.0110 C   0  0  0  0  0  0  0  0  0  0  0  0
    5.5460   -1.9570   -0.5000 C   0  0  0  0  0  0  0  0  0  0  0  0
    5.1650   -0.6780   -0.8590 C   0  0  0  0  0  0  0  0  0  0  0  0
    5.8930    0.5260   -0.4720 C   0  0  0  0  0  0  0  0  0  0  0  0
    5.4920    1.7900   -0.8350 C   0  0  0  0  0  0  0  0  0  0  0  0
    6.2050    2.9250   -0.4540 C   0  0  0  0  0  0  0  0  0  0  0  0
    7.3380    2.8050    0.3020 C   0  0  0  0  0  0  0  0  0  0  0  0
    8.2660    4.2150    0.8030 Cl  0  0  0  0  0  0  0  0  0  0  0  0
    7.7480    1.5510    0.6700 C   0  0  0  0  0  0  0  0  0  0  0  0
    7.0570    0.4200    0.3040 C   0  0  0  0  0  0  0  0  0  0  0  0
   -0.1850   -0.2430   -0.3220 S   0  0  0  0  0  0  0  0  0  0  0  0
   -4.0570    0.2250    0.4710 C   0  0  0  0  0  0  0  0  0  0  0  0
   -4.4720    1.4200    0.0900 C   0  0  0  0  0  0  0  0  0  0  0  0
   -3.8160    2.6800    0.2600 C   0  0  0  0  0  0  0  0  0  0  0  0
   -4.3720    3.8120   -0.1870 C   0  0  0  0  0  0  0  0  0  0  0  0
   -3.7800    5.0470   -0.0470 O   0  0  0  0  0  0  0  0  0  0  0  0
   -4.9480   -0.9040    0.1400 C   0  0  0  0  0  0  0  0  0  0  0  0
   -4.7180   -2.1510    0.4440 C   0  0  0  0  0  0  0  0  0  0  0  0
   -5.6080   -3.2900    0.1160 C   0  0  0  0  0  0  0  0  0  0  0  0
   -6.8930   -2.8710   -0.1800 O   0  0  0  0  0  0  0  0  0  0  0  0
   -6.9130   -1.7910   -1.0300 C   0  0  0  0  0  0  0  0  0  0  0  0
   -6.1960   -0.5750   -0.6230 C   0  0  0  0  0  0  0  0  0  0  0  0
  1  2  2  0
  2  3  1  0
  2 24  1  0
  3  4  1  0
  4  5  1  0
  5  6  2  0
  5 23  1  0
  6  7  1  0
  7  8  2  0
  8  9  1  0
  8 23  1  0
  9 10  2  3
 10 11  1  0
 11 12  1  0
 11 15  1  0
 12 13  2  0
 13 14  1  0
 14 15  2  0
 15 16  1  0
 16 17  2  0
 16 22  1  0
 17 18  1  0
 18 19  2  0
 19 20  1  0
 19 21  1  0
 21 22  2  0
 24 25  2  3
 24 29  1  0
 25 26  1  0
 26 27  2  3
 27 28  1  0
 29 30  2  0
 29 34  1  0
 30 31  1  0
 31 32  1  0
 32 33  1  0
 33 34  1  0
M  END
