
     RDKit          3D

 34 37  0  0  0  0  0  0  0  0999 V2000
   -5.2440   -2.6300   -1.0370 C   0  0  0  0  0  0  0  0  0  0  0  0
   -5.2770   -1.4500   -0.4850 C   0  0  0  0  0  0  0  0  0  0  0  0
   -5.3270   -1.3760    1.0120 C   0  0  0  0  0  0  0  0  0  0  0  0
   -5.5900   -0.0820    1.4650 O   0  0  0  0  0  0  0  0  0  0  0  0
   -5.5840    1.0680    0.7000 C   0  0  0  0  0  0  0  0  0  0  0  0
   -5.7170    2.2200    1.1700 O   0  0  0  0  0  0  0  0  0  0  0  0
   -5.4110    0.9250   -0.7520 C   0  0  0  0  0  0  0  0  0  0  0  0
   -5.2670   -0.2580   -1.3060 C   0  0  0  0  0  0  0  0  0  0  0  0
   -5.0960   -0.3790   -2.7620 C   0  0  0  0  0  0  0  0  0  0  0  0
   -3.5100   -1.1710   -3.1760 S   0  0  0  0  0  0  0  0  0  0  0  0
   -2.1980   -0.0780   -2.6780 C   0  0  0  0  0  0  0  0  0  0  0  0
   -1.6610   -0.1540   -1.4100 C   0  0  0  0  0  0  0  0  0  0  0  0
   -0.6470    0.6740   -0.9950 C   0  0  0  0  0  0  0  0  0  0  0  0
   -0.0330    0.6620    0.3080 C   0  0  0  0  0  0  0  0  0  0  0  0
   -0.4370   -0.2170    1.2780 C   0  0  0  0  0  0  0  0  0  0  0  0
    0.1650   -0.2140    2.5320 C   0  0  0  0  0  0  0  0  0  0  0  0
    1.1650    0.6870    2.7660 C   0  0  0  0  0  0  0  0  0  0  0  0
    1.7050    0.6830    3.9050 O   0  0  0  0  0  0  0  0  0  0  0  0
    1.5440    1.5380    1.8010 N   0  0  0  0  0  0  0  0  0  0  0  0
    2.6070    2.4630    2.1280 C   0  0  0  0  0  0  0  0  0  0  0  0
    3.9210    1.7850    1.7680 C   0  0  0  0  0  0  0  0  0  0  0  0
    4.9620    2.4190    1.9700 O   0  0  0  0  0  0  0  0  0  0  0  0
    3.9400    0.4950    1.2290 N   0  0  0  0  0  0  0  0  0  0  0  0
    5.0980   -0.2270    0.8620 C   0  0  0  0  0  0  0  0  0  0  0  0
    6.3930    0.1920    1.0400 C   0  0  0  0  0  0  0  0  0  0  0  0
    7.5150   -0.5360    0.6650 C   0  0  0  0  0  0  0  0  0  0  0  0
    7.3290   -1.7670    0.0720 C   0  0  0  0  0  0  0  0  0  0  0  0
    8.7370   -2.6920   -0.4030 Cl  0  0  0  0  0  0  0  0  0  0  0  0
    6.0330   -2.2140   -0.1200 C   0  0  0  0  0  0  0  0  0  0  0  0
    4.9390   -1.4910    0.2520 C   0  0  0  0  0  0  0  0  0  0  0  0
    0.9630    1.5120    0.6390 N   0  0  0  0  0  0  0  0  0  0  0  0
   -0.1660    1.6170   -1.9200 C   0  0  0  0  0  0  0  0  0  0  0  0
   -0.7110    1.6750   -3.1700 C   0  0  0  0  0  0  0  0  0  0  0  0
   -1.6990    0.8400   -3.5150 N   0  0  0  0  0  0  0  0  0  0  0  0
  1  2  2  0
  2  3  1  0
  2  8  1  0
  3  4  1  0
  4  5  1  0
  5  6  2  0
  5  7  1  0
  7  8  2  0
  8  9  1  0
  9 10  1  0
 10 11  1  0
 11 12  2  0
 11 34  1  0
 12 13  1  0
 13 14  1  0
 13 32  2  0
 14 15  1  0
 14 31  2  0
 15 16  2  0
 16 17  1  0
 17 18  2  0
 17 19  1  0
 19 20  1  0
 19 31  1  0
 20 21  1  0
 21 22  2  0
 21 23  1  0
 23 24  1  0
 24 25  2  0
 24 30  1  0
 25 26  1  0
 26 27  2  0
 27 28  1  0
 27 29  1  0
 29 30  2  0
 32 33  1  0
 33 34  2  0
M  END
