
     RDKit          3D

 34 37  0  0  0  0  0  0  0  0999 V2000
    7.1860   -0.5280    2.5390 C   0  0  0  0  0  0  0  0  0  0  0  0
    6.7960    0.3280    1.3840 C   0  0  0  0  0  0  0  0  0  0  0  0
    6.8660    1.6910    1.2370 C   0  0  0  0  0  0  0  0  0  0  0  0
    6.3730    1.9650   -0.0330 C   0  0  0  0  0  0  0  0  0  0  0  0
    6.0290    0.7580   -0.5940 C   0  0  0  0  0  0  0  0  0  0  0  0
    5.4540    0.4960   -1.9420 C   0  0  2  0  0  0  0  0  0  0  0  0
    6.3770    0.8800   -3.0260 C   0  0  0  0  0  0  0  0  0  0  0  0
    6.0410    1.7180   -3.8350 O   0  0  0  0  0  0  0  0  0  0  0  0
    3.8350    1.3110   -2.1230 S   0  0  0  0  0  0  0  0  0  0  0  0
    2.6600    0.5550   -1.0140 C   0  0  0  0  0  0  0  0  0  0  0  0
    3.0480   -0.4560   -0.2270 N   0  0  0  0  0  0  0  0  0  0  0  0
    2.2120   -1.0730    0.6320 C   0  0  0  0  0  0  0  0  0  0  0  0
    2.6110   -2.0340    1.3700 O   0  0  0  0  0  0  0  0  0  0  0  0
    0.9090   -0.6490    0.7030 C   0  0  0  0  0  0  0  0  0  0  0  0
    0.5270    0.3880   -0.1100 C   0  0  0  0  0  0  0  0  0  0  0  0
   -0.7920    0.8680   -0.0840 N   0  0  0  0  0  0  0  0  0  0  0  0
   -1.8370    0.2260   -0.4930 C   0  0  0  0  0  0  0  0  0  0  0  0
   -3.1390    0.9340   -0.3710 C   0  0  0  0  0  0  0  0  0  0  0  0
   -4.0420    0.1770    0.4080 O   0  0  0  0  0  0  0  0  0  0  0  0
   -5.3290    0.6060    0.6780 C   0  0  0  0  0  0  0  0  0  0  0  0
   -5.7800    1.8140    0.1840 C   0  0  0  0  0  0  0  0  0  0  0  0
   -7.0550    2.2620    0.4390 C   0  0  0  0  0  0  0  0  0  0  0  0
   -7.8870    1.4650    1.2110 C   0  0  0  0  0  0  0  0  0  0  0  0
   -9.5250    1.9860    1.5680 Cl  0  0  0  0  0  0  0  0  0  0  0  0
   -7.4570    0.2570    1.7130 C   0  0  0  0  0  0  0  0  0  0  0  0
   -6.1590   -0.1800    1.4430 C   0  0  0  0  0  0  0  0  0  0  0  0
   -5.6740   -1.4780    1.9740 C   0  0  0  0  0  0  0  0  0  0  0  0
   -1.7800   -1.0810   -1.0340 N   0  0  0  0  0  0  0  0  0  0  0  0
   -0.8690   -1.5250   -1.8990 C   0  0  0  0  0  0  0  0  0  0  0  0
   -1.1140   -2.8540   -2.2170 C   0  0  0  0  0  0  0  0  0  0  0  0
   -2.2260   -3.2150   -1.5050 C   0  0  0  0  0  0  0  0  0  0  0  0
   -2.6150   -2.0980   -0.7830 C   0  0  0  0  0  0  0  0  0  0  0  0
    1.3920    0.9840   -0.9590 N   0  0  0  0  0  0  0  0  0  0  0  0
    6.2980   -0.1630    0.2780 O   0  0  0  0  0  0  0  0  0  0  0  0
  1  2  1  0
  2  3  2  0
  2 34  1  0
  3  4  1  0
  4  5  2  0
  5  6  1  0
  5 34  1  0
  6  7  1  0
  6  9  1  6
  7  8  2  0
  9 10  1  0
 10 11  2  0
 10 33  1  0
 11 12  1  0
 12 13  2  0
 12 14  1  0
 14 15  2  0
 15 16  1  0
 15 33  1  0
 16 17  2  3
 17 18  1  0
 17 28  1  0
 18 19  1  0
 19 20  1  0
 20 21  2  0
 20 26  1  0
 21 22  1  0
 22 23  2  0
 23 24  1  0
 23 25  1  0
 25 26  2  0
 26 27  1  0
 28 29  1  0
 28 32  1  0
 29 30  2  0
 30 31  1  0
 31 32  2  0
M  END
