
     RDKit          3D

 34 37  0  0  0  0  0  0  0  0999 V2000
    5.7880   -2.9510   -2.4910 C   0  0  0  0  0  0  0  0  0  0  0  0
    6.2240   -1.7190   -2.6960 C   0  0  0  0  0  0  0  0  0  0  0  0
    5.3170   -0.5870   -2.9640 C   0  0  0  0  0  0  0  0  0  0  0  0
    5.4630    0.4800   -1.9170 C   0  0  0  0  0  0  0  0  0  0  0  0
    6.3360    1.5100   -2.0120 C   0  0  0  0  0  0  0  0  0  0  0  0
    6.4650    2.4830   -1.0520 C   0  0  0  0  0  0  0  0  0  0  0  0
    5.6600    2.3960    0.0630 C   0  0  0  0  0  0  0  0  0  0  0  0
    5.7860    3.3730    1.0390 C   0  0  0  0  0  0  0  0  0  0  0  0
    6.9340    4.6620    0.8340 Cl  0  0  0  0  0  0  0  0  0  0  0  0
    4.9880    3.2780    2.1370 C   0  0  0  0  0  0  0  0  0  0  0  0
    4.0820    2.2650    2.3020 C   0  0  0  0  0  0  0  0  0  0  0  0
    3.9340    1.2600    1.3260 C   0  0  0  0  0  0  0  0  0  0  0  0
    2.9610    0.2220    1.5490 C   0  0  0  0  0  0  0  0  0  0  0  0
    2.7050   -0.6800    0.7620 O   0  0  0  0  0  0  0  0  0  0  0  0
    2.2210    0.1960    2.7430 O   0  0  0  0  0  0  0  0  0  0  0  0
    1.2580   -0.8010    3.0050 C   0  0  0  0  0  0  0  0  0  0  0  0
    0.1700   -0.8210    2.0130 C   0  0  0  0  0  0  0  0  0  0  0  0
    0.0960   -1.4850    0.8440 N   0  0  0  0  0  0  0  0  0  0  0  0
   -1.0680   -1.2130    0.2710 N   0  0  0  0  0  0  0  0  0  0  0  0
   -1.7680   -0.3780    1.0420 C   0  0  0  0  0  0  0  0  0  0  0  0
   -3.3870    0.2660    0.6870 S   0  0  0  0  0  0  0  0  0  0  0  0
   -4.6290   -0.8850    1.3810 C   0  0  1  0  0  0  0  0  0  0  0  0
   -4.4580   -0.8210    2.8940 C   0  0  0  0  0  0  0  0  0  0  0  0
   -5.9960   -0.4770    1.0020 C   0  0  0  0  0  0  0  0  0  0  0  0
   -6.8250   -0.2100    1.9240 O   0  0  0  0  0  0  0  0  0  0  0  0
   -6.3810   -0.3830   -0.3560 N   0  0  0  0  0  0  0  0  0  0  0  0
   -5.4130   -0.6930   -1.3780 C   0  0  0  0  0  0  0  0  0  0  0  0
   -6.0240   -1.0200   -2.7140 C   0  0  0  0  0  0  0  0  0  0  0  0
   -7.1890   -0.3340   -2.9560 O   0  0  0  0  0  0  0  0  0  0  0  0
   -8.1280   -0.6950   -1.9850 C   0  0  0  0  0  0  0  0  0  0  0  0
   -7.7100    0.0130   -0.7080 C   0  0  0  0  0  0  0  0  0  0  0  0
   -0.9890   -0.1460    2.1140 N   0  0  0  0  0  0  0  0  0  0  0  0
    4.7320    1.3480    0.2200 C   0  0  0  0  0  0  0  0  0  0  0  0
    4.6510    0.3990   -0.7860 C   0  0  0  0  0  0  0  0  0  0  0  0
  1  2  2  0
  2  3  1  0
  3  4  1  0
  4  5  2  0
  4 34  1  0
  5  6  1  0
  6  7  2  0
  7  8  1  0
  7 33  1  0
  8  9  1  0
  8 10  2  0
 10 11  1  0
 11 12  2  0
 12 13  1  0
 12 33  1  0
 13 14  2  0
 13 15  1  0
 15 16  1  0
 16 17  1  0
 17 18  2  0
 17 32  1  0
 18 19  1  0
 19 20  2  0
 20 21  1  0
 20 32  1  0
 21 22  1  0
 22 23  1  1
 22 24  1  0
 24 25  2  0
 24 26  1  0
 26 27  1  0
 26 31  1  0
 27 28  1  0
 28 29  1  0
 29 30  1  0
 30 31  1  0
 33 34  2  0
M  END
