
     RDKit          3D

 35 37  0  0  0  0  0  0  0  0999 V2000
    4.1080    1.3990    0.1560 C   0  0  0  0  0  0  0  0  0  0  0  0
    3.1380    1.9880   -0.8060 C   0  0  1  0  0  0  0  0  0  0  0  0
    3.9770    2.6140   -1.9330 C   0  0  0  0  0  0  0  0  0  0  0  0
    2.2450    0.9690   -1.4190 C   0  0  0  0  0  0  0  0  0  0  0  0
    1.4230    0.2020   -0.5890 N   0  0  0  0  0  0  0  0  0  0  0  0
    0.1020    0.6650   -0.3450 C   0  0  0  0  0  0  0  0  0  0  0  0
   -0.7400    0.5880   -1.5900 C   0  0  1  0  0  0  0  0  0  0  0  0
   -0.7100   -0.8120   -1.8980 O   0  0  0  0  0  0  0  0  0  0  0  0
   -2.1710    0.9170   -1.4370 C   0  0  2  0  0  0  0  0  0  0  0  0
   -2.6100    2.3260   -1.4850 C   0  0  0  0  0  0  0  0  0  0  0  0
   -2.0400    3.2400   -0.4790 C   0  0  0  0  0  0  0  0  0  0  0  0
   -2.5770    3.4020    0.7880 C   0  0  0  0  0  0  0  0  0  0  0  0
   -2.0450    4.2810    1.7050 C   0  0  0  0  0  0  0  0  0  0  0  0
   -0.9430    5.0470    1.4020 C   0  0  0  0  0  0  0  0  0  0  0  0
   -0.3910    4.9040    0.1490 C   0  0  0  0  0  0  0  0  0  0  0  0
   -0.9190    4.0340   -0.7550 C   0  0  0  0  0  0  0  0  0  0  0  0
   -2.7670    0.1830   -0.3340 N   0  0  0  0  0  0  0  0  0  0  0  0
   -3.7070   -0.8730   -0.4830 C   0  0  0  0  0  0  0  0  0  0  0  0
   -4.0400   -1.1880   -1.6540 O   0  0  0  0  0  0  0  0  0  0  0  0
   -4.2610   -1.5570    0.5890 O   0  0  0  0  0  0  0  0  0  0  0  0
   -5.1770   -2.5820    0.3620 C   0  0  1  0  0  0  0  0  0  0  0  0
   -4.7220   -3.9240    0.9210 C   0  0  0  0  0  0  0  0  0  0  0  0
   -6.0480   -4.5850    1.2110 C   0  0  0  0  0  0  0  0  0  0  0  0
   -7.0350   -3.6510    1.0530 O   0  0  0  0  0  0  0  0  0  0  0  0
   -6.4860   -2.3950    1.1000 C   0  0  0  0  0  0  0  0  0  0  0  0
    1.7210   -1.4280   -0.3550 S   0  0  2  0  0  0  0  0  0  0  0  0
    1.6810   -2.1700   -1.6960 O   0  0  0  0  0  0  0  0  0  0  0  0
    0.5920   -1.9880    0.5180 O   0  0  0  0  0  0  0  0  0  0  0  0
    3.2470   -1.8460    0.3670 C   0  0  0  0  0  0  0  0  0  0  0  0
    4.3700   -2.1970   -0.3820 C   0  0  0  0  0  0  0  0  0  0  0  0
    5.5720   -2.5310    0.2000 C   0  0  0  0  0  0  0  0  0  0  0  0
    5.7170   -2.5310    1.5810 C   0  0  0  0  0  0  0  0  0  0  0  0
    6.9500   -2.8740    2.1850 N   0  0  0  0  0  0  0  0  0  0  0  0
    4.6040   -2.1820    2.3420 C   0  0  0  0  0  0  0  0  0  0  0  0
    3.4180   -1.8540    1.7380 C   0  0  0  0  0  0  0  0  0  0  0  0
  2  1  1  1
  2  3  1  0
  2  4  1  0
  4  5  1  0
  5  6  1  0
 26  5  1  6
  6  7  1  0
  7  8  1  1
  7  9  1  0
  9 10  1  1
  9 17  1  0
 10 11  1  0
 11 12  2  0
 11 16  1  0
 12 13  1  0
 13 14  2  0
 14 15  1  0
 15 16  2  0
 17 18  1  0
 18 19  2  0
 18 20  1  0
 21 20  1  1
 21 22  1  0
 21 25  1  0
 22 23  1  0
 23 24  1  0
 24 25  1  0
 26 27  2  0
 26 28  2  0
 26 29  1  0
 29 30  2  0
 29 35  1  0
 30 31  1  0
 31 32  2  0
 32 33  1  0
 32 34  1  0
 34 35  2  0
M  END
