
     RDKit          3D

 34 37  0  0  0  0  0  0  0  0999 V2000
    6.3220    0.6250    2.5080 C   0  0  0  0  0  0  0  0  0  0  0  0
    5.3290    0.1450    1.5020 C   0  0  0  0  0  0  0  0  0  0  0  0
    5.6830    0.4470    0.0730 C   0  0  2  0  0  0  0  0  0  0  0  0
    4.6100   -0.0880   -0.8360 C   0  0  0  0  0  0  0  0  0  0  0  0
    4.9410   -0.7940   -1.8300 O   0  0  0  0  0  0  0  0  0  0  0  0
    3.2230    0.1710   -0.6280 N   0  0  0  0  0  0  0  0  0  0  0  0
    2.2340   -0.3640   -1.5420 C   0  0  0  0  0  0  0  0  0  0  0  0
    0.8290    0.0090   -1.0570 C   0  0  0  0  0  0  0  0  0  0  0  0
   -0.1650   -0.4630   -0.7410 N   0  0  0  0  0  0  0  0  0  0  0  0
   -1.3230    0.0910   -0.3370 C   0  0  0  0  0  0  0  0  0  0  0  0
   -2.4610   -0.7780   -0.0180 C   0  0  0  0  0  0  0  0  0  0  0  0
   -3.7130   -0.2540    0.4500 C   0  0  0  0  0  0  0  0  0  0  0  0
   -3.8530    0.1590    1.6600 O   0  0  0  0  0  0  0  0  0  0  0  0
   -4.8690   -0.1560   -0.3100 O   0  0  0  0  0  0  0  0  0  0  0  0
   -6.1240    0.2390    0.0220 C   0  0  0  0  0  0  0  0  0  0  0  0
   -6.5410    1.4190    0.5270 C   0  0  0  0  0  0  0  0  0  0  0  0
   -5.4780    2.7460    0.8930 Cl  0  0  0  0  0  0  0  0  0  0  0  0
   -7.9030    1.6750    0.8180 C   0  0  0  0  0  0  0  0  0  0  0  0
   -8.8460    0.7130    0.5960 C   0  0  0  0  0  0  0  0  0  0  0  0
   -8.4480   -0.5010    0.0850 C   0  0  0  0  0  0  0  0  0  0  0  0
   -7.1270   -0.7450   -0.1990 C   0  0  0  0  0  0  0  0  0  0  0  0
   -7.0520   -2.0870   -0.7260 C   0  0  0  0  0  0  0  0  0  0  0  0
   -8.2610   -2.6400   -0.7580 C   0  0  0  0  0  0  0  0  0  0  0  0
   -9.2830   -1.6990   -0.2450 C   0  0  0  0  0  0  0  0  0  0  0  0
   -1.2530    1.4660   -0.3170 C   0  0  0  0  0  0  0  0  0  0  0  0
   -2.2410    2.5110    0.0350 C   0  0  0  0  0  0  0  0  0  0  0  0
    0.4580    1.8390   -0.8750 S   0  0  0  0  0  0  0  0  0  0  0  0
    6.9770   -0.0230   -0.3340 N   0  0  0  0  0  0  0  0  0  0  0  0
    7.6000    0.6210   -1.3710 C   0  0  0  0  0  0  0  0  0  0  0  0
    8.7970    0.2550   -1.8310 N   0  0  0  0  0  0  0  0  0  0  0  0
    9.4740   -0.7820   -1.2930 C   0  0  0  0  0  0  0  0  0  0  0  0
    8.8770   -1.4450   -0.2550 C   0  0  0  0  0  0  0  0  0  0  0  0
    7.6300   -1.0540    0.2120 C   0  0  0  0  0  0  0  0  0  0  0  0
    7.1320   -1.7120    1.1730 O   0  0  0  0  0  0  0  0  0  0  0  0
  1  2  1  0
  3  2  1  1
  3  4  1  0
  3 28  1  0
  4  5  2  0
  4  6  1  0
  6  7  1  0
  7  8  1  0
  8  9  2  0
  8 27  1  0
  9 10  1  0
 10 11  1  0
 10 25  2  0
 11 12  1  0
 12 13  2  0
 12 14  1  0
 14 15  1  0
 15 16  2  0
 15 21  1  0
 16 17  1  0
 16 18  1  0
 18 19  2  0
 19 20  1  0
 20 21  2  0
 20 24  1  0
 21 22  1  0
 22 23  2  0
 23 24  1  0
 25 26  1  0
 25 27  1  0
 28 29  1  0
 28 33  1  0
 29 30  2  0
 30 31  1  0
 31 32  2  0
 32 33  1  0
 33 34  2  0
M  END
