
     RDKit          3D

 34 37  0  0  0  0  0  0  0  0999 V2000
    7.4440    0.5950   -1.0840 C   0  0  0  0  0  0  0  0  0  0  0  0
    7.6640   -0.7060   -1.5170 O   0  0  0  0  0  0  0  0  0  0  0  0
    6.5980   -1.5010   -1.0940 C   0  0  0  0  0  0  0  0  0  0  0  0
    5.3170   -1.0090   -1.6550 C   0  0  0  0  0  0  0  0  0  0  0  0
    4.2740   -0.4930   -1.3650 N   0  0  0  0  0  0  0  0  0  0  0  0
    3.2660   -0.1410   -2.0780 C   0  0  0  0  0  0  0  0  0  0  0  0
    2.0470    0.4850   -1.5200 C   0  0  0  0  0  0  0  0  0  0  0  0
    1.1460    0.7840   -2.3430 O   0  0  0  0  0  0  0  0  0  0  0  0
    1.8410    0.7520   -0.1920 N   0  0  0  0  0  0  0  0  0  0  0  0
    1.9270    0.1180    0.8760 C   0  0  0  0  0  0  0  0  0  0  0  0
    1.6080    0.8090    2.0990 N   0  0  0  0  0  0  0  0  0  0  0  0
    0.8300    2.0240    1.9910 C   0  0  0  0  0  0  0  0  0  0  0  0
   -0.5050    1.6380    1.3990 C   0  0  0  0  0  0  0  0  0  0  0  0
   -1.6990    1.5510    2.0850 C   0  0  0  0  0  0  0  0  0  0  0  0
   -2.6770    1.1640    1.1690 C   0  0  0  0  0  0  0  0  0  0  0  0
   -4.0240    0.9210    1.2520 C   0  0  0  0  0  0  0  0  0  0  0  0
   -4.7720    0.5390    0.1460 C   0  0  0  0  0  0  0  0  0  0  0  0
   -6.2210    0.3700    0.3730 C   0  0  0  0  0  0  0  0  0  0  0  0
   -6.9410    1.6470    0.0920 C   0  0  1  0  0  0  0  0  0  0  0  0
   -6.8350    2.1980   -1.2810 C   0  0  0  0  0  0  0  0  0  0  0  0
   -8.4230    1.5320    0.4790 C   0  0  0  0  0  0  0  0  0  0  0  0
   -4.1130    0.4100   -1.0410 C   0  0  0  0  0  0  0  0  0  0  0  0
   -4.9980   -0.1430   -2.4460 Cl  0  0  0  0  0  0  0  0  0  0  0  0
   -2.7340    0.6610   -1.1240 C   0  0  0  0  0  0  0  0  0  0  0  0
   -2.0010    1.0390   -0.0320 C   0  0  0  0  0  0  0  0  0  0  0  0
   -0.7480    1.3250    0.1620 O   0  0  0  0  0  0  0  0  0  0  0  0
    2.3090   -1.2390    0.9810 N   0  0  0  0  0  0  0  0  0  0  0  0
    3.5550   -1.6220    1.6170 C   0  0  0  0  0  0  0  0  0  0  0  0
    3.9500   -2.9680    1.0980 C   0  0  0  0  0  0  0  0  0  0  0  0
    3.0260   -3.9260    1.4810 O   0  0  0  0  0  0  0  0  0  0  0  0
    1.7300   -3.4800    1.4860 C   0  0  0  0  0  0  0  0  0  0  0  0
    1.5000   -2.3410    0.4790 C   0  0  0  0  0  0  0  0  0  0  0  0
    3.3640   -0.3900   -3.4710 C   0  0  0  0  0  0  0  0  0  0  0  0
    5.0460   -1.1610   -3.5120 S   0  0  0  0  0  0  0  0  0  0  0  0
  1  2  1  0
  2  3  1  0
  3  4  1  0
  4  5  2  0
  4 34  1  0
  5  6  1  0
  6  7  1  0
  6 33  2  0
  7  8  2  0
  7  9  1  0
  9 10  2  3
 10 11  1  0
 10 27  1  0
 11 12  1  0
 12 13  1  0
 13 14  2  0
 13 26  1  0
 14 15  1  0
 15 16  2  0
 15 25  1  0
 16 17  1  0
 17 18  1  0
 17 22  2  0
 18 19  1  0
 19 20  1  6
 19 21  1  0
 22 23  1  0
 22 24  1  0
 24 25  2  0
 25 26  1  0
 27 28  1  0
 27 32  1  0
 28 29  1  0
 29 30  1  0
 30 31  1  0
 31 32  1  0
 33 34  1  0
M  END
