
     RDKit          3D

 22 24  0  0  0  0  0  0  0  0999 V2000
   -1.0360    1.6200   -1.0530 C   0  0  0  0  0  0  0  0  0  0  0  0
   -2.3270    1.1970   -0.4020 C   0  0  0  0  0  0  0  0  0  0  0  0
   -3.4480    1.9980   -0.5320 C   0  0  0  0  0  0  0  0  0  0  0  0
   -4.6810    1.6720   -0.0390 C   0  0  0  0  0  0  0  0  0  0  0  0
   -4.8060    0.4920    0.6170 C   0  0  0  0  0  0  0  0  0  0  0  0
   -3.7140   -0.3240    0.7640 C   0  0  0  0  0  0  0  0  0  0  0  0
   -2.4370   -0.0010    0.2620 C   0  0  0  0  0  0  0  0  0  0  0  0
   -1.3870   -0.9010    0.6280 C   0  0  1  0  0  0  0  0  0  0  0  0
   -1.7680   -2.3680    0.6850 C   0  0  0  0  0  0  0  0  0  0  0  0
   -1.0560   -2.9240   -0.5550 C   0  0  0  0  0  0  0  0  0  0  0  0
    0.0330   -1.9020   -0.8920 C   0  0  0  0  0  0  0  0  0  0  0  0
   -0.0670   -0.8640    0.1210 N   0  0  0  0  0  0  0  0  0  0  0  0
    0.9450    0.0050    0.5560 C   0  0  0  0  0  0  0  0  0  0  0  0
    0.6540    0.8180    1.5390 O   0  0  0  0  0  0  0  0  0  0  0  0
    2.3060    0.1590    0.0790 C   0  0  0  0  0  0  0  0  0  0  0  0
    2.8160   -0.3700   -1.0790 C   0  0  0  0  0  0  0  0  0  0  0  0
    4.1320   -0.1450   -1.4990 C   0  0  0  0  0  0  0  0  0  0  0  0
    4.9900    0.6260   -0.7680 C   0  0  0  0  0  0  0  0  0  0  0  0
    6.3130    0.8580   -1.1830 O   0  0  0  0  0  0  0  0  0  0  0  0
    4.5050    1.1710    0.3980 C   0  0  0  0  0  0  0  0  0  0  0  0
    3.2170    0.9490    0.8080 C   0  0  0  0  0  0  0  0  0  0  0  0
    2.7990    1.5280    1.9900 O   0  0  0  0  0  0  0  0  0  0  0  0
  1  2  1  0
  2  3  2  0
  2  7  1  0
  3  4  1  0
  4  5  2  0
  5  6  1  0
  6  7  2  0
  8  7  1  6
  8  9  1  0
  8 12  1  0
  9 10  1  0
 10 11  1  0
 11 12  1  0
 12 13  1  0
 13 14  2  0
 13 15  1  0
 15 16  2  0
 15 21  1  0
 16 17  1  0
 17 18  2  0
 18 19  1  0
 18 20  1  0
 20 21  2  0
 21 22  1  0
M  END
