
     RDKit          3D

 12 12  0  0  0  0  0  0  0  0999 V2000
    1.2810    1.6510    1.2910 C   0  0  0  0  0  0  0  0  0  0  0  0
    1.3440    0.7200    0.0930 C   0  0  1  0  0  0  0  0  0  0  0  0
    2.7190    0.1060    0.1080 C   0  0  0  0  0  0  0  0  0  0  0  0
    2.8950   -1.0090   -0.6400 O   0  0  0  0  0  0  0  0  0  0  0  0
    1.7230   -1.6510   -1.0210 C   0  0  0  0  0  0  0  0  0  0  0  0
    0.7430   -1.5400    0.1150 C   0  0  0  0  0  0  0  0  0  0  0  0
    0.2780   -0.1910    0.1700 N   0  0  0  0  0  0  0  0  0  0  0  0
   -0.9540    0.0920   -0.4250 C   0  0  2  0  0  0  0  0  0  0  0  0
   -1.0120   -0.1410   -1.9410 C   0  0  0  0  0  0  0  0  0  0  0  0
   -1.2790    1.5580   -0.2250 C   0  0  0  0  0  0  0  0  0  0  0  0
   -2.1210   -0.7130    0.1190 C   0  0  0  0  0  0  0  0  0  0  0  0
   -2.3100   -0.4830    1.5380 N   0  0  0  0  0  0  0  0  0  0  0  0
  2  1  1  1
  2  3  1  0
  2  7  1  0
  3  4  1  0
  4  5  1  0
  5  6  1  0
  6  7  1  0
  7  8  1  0
  8  9  1  6
  8 10  1  0
  8 11  1  0
 11 12  1  0
M  CHG  1  12   1
M  END
