
     RDKit          3D

 38 43  0  0  0  0  0  0  0  0999 V2000
   -9.2650   -1.5170   -0.3700 C   0  0  0  0  0  0  0  0  0  0  0  0
   -8.2310   -2.2370   -1.1550 C   0  0  0  0  0  0  0  0  0  0  0  0
   -7.6730   -3.2540   -0.5200 O   0  0  0  0  0  0  0  0  0  0  0  0
   -6.9730   -3.0270    0.6130 C   0  0  0  0  0  0  0  0  0  0  0  0
   -6.0290   -1.8600    0.4680 C   0  0  0  0  0  0  0  0  0  0  0  0
   -6.2200   -0.6040    0.3640 O   0  0  0  0  0  0  0  0  0  0  0  0
   -5.0190    0.0530    0.2840 C   0  0  0  0  0  0  0  0  0  0  0  0
   -4.9600    1.4150    0.1830 O   0  0  0  0  0  0  0  0  0  0  0  0
   -4.9180    2.2950   -0.8510 C   0  0  0  0  0  0  0  0  0  0  0  0
   -4.0180   -0.8750    0.3420 C   0  0  0  0  0  0  0  0  0  0  0  0
   -2.5570   -0.7020    0.2300 C   0  0  0  0  0  0  0  0  0  0  0  0
   -1.8110    0.3840    0.0510 N   0  0  0  0  0  0  0  0  0  0  0  0
   -0.4900    0.0420    0.0570 C   0  0  0  0  0  0  0  0  0  0  0  0
    0.6820    0.7380   -0.0070 C   0  0  0  0  0  0  0  0  0  0  0  0
    1.8550    0.0400    0.1320 C   0  0  0  0  0  0  0  0  0  0  0  0
    1.8250   -1.2760    0.3020 N   0  0  0  0  0  0  0  0  0  0  0  0
    0.7320   -2.0040    0.3660 C   0  0  0  0  0  0  0  0  0  0  0  0
   -0.4720   -1.3290    0.2460 C   0  0  0  0  0  0  0  0  0  0  0  0
   -1.7410   -1.7590    0.3470 N   0  0  0  0  0  0  0  0  0  0  0  0
    2.9910    1.0210    0.3260 C   0  0  2  0  0  0  0  0  0  0  0  0
    3.7350    0.5800    1.5070 N   0  0  0  0  0  0  0  0  0  0  0  0
    4.3210   -0.7000    1.1410 C   0  0  0  0  0  0  0  0  0  0  0  0
    5.0740   -0.5560   -0.1520 C   0  0  1  0  0  0  0  0  0  0  0  0
    6.1210    0.3660    0.1340 O   0  0  0  0  0  0  0  0  0  0  0  0
    7.2760   -0.3750    0.2990 C   0  0  0  0  0  0  0  0  0  0  0  0
    8.5500   -0.0340    0.7790 C   0  0  0  0  0  0  0  0  0  0  0  0
    9.5560   -0.9500    0.8510 C   0  0  0  0  0  0  0  0  0  0  0  0
    9.3060   -2.2340    0.4370 C   0  0  0  0  0  0  0  0  0  0  0  0
    8.0320   -2.5760   -0.0390 C   0  0  0  0  0  0  0  0  0  0  0  0
    7.0180   -1.6500   -0.1070 C   0  0  0  0  0  0  0  0  0  0  0  0
    5.6780   -1.7510   -0.5380 O   0  0  0  0  0  0  0  0  0  0  0  0
    2.1720    2.2990    0.6940 C   0  0  0  0  0  0  0  0  0  0  0  0
    1.0880    2.1180   -0.3390 C   0  0  2  0  0  0  0  0  0  0  0  0
    0.0640    3.0440   -0.4760 N   0  0  2  0  0  0  0  0  0  0  0  0
   -0.2020    3.1960   -1.9260 C   0  0  0  0  0  0  0  0  0  0  0  0
    0.4310    4.3680   -0.0050 C   0  0  0  0  0  0  0  0  0  0  0  0
   -4.6660   -2.0840    0.4630 C   0  0  0  0  0  0  0  0  0  0  0  0
   -3.9440   -3.6830    0.5680 Cl  0  0  0  0  0  0  0  0  0  0  0  0
  1  2  1  0
  2  3  1  0
  3  4  1  0
  4  5  1  0
  5  6  1  0
  5 37  2  0
  6  7  1  0
  7  8  1  0
  7 10  2  0
  8  9  1  0
 10 11  1  0
 10 37  1  0
 11 12  2  0
 11 19  1  0
 12 13  1  0
 13 14  2  0
 13 18  1  0
 14 15  1  0
 14 33  1  0
 15 16  2  0
 15 20  1  0
 16 17  1  0
 17 18  2  0
 18 19  1  0
 20 21  1  1
 20 32  1  0
 21 22  1  0
 23 22  1  1
 23 24  1  0
 23 31  1  0
 24 25  1  0
 25 26  2  0
 25 30  1  0
 26 27  1  0
 27 28  2  0
 28 29  1  0
 29 30  2  0
 30 31  1  0
 33 32  1  1
 33 34  1  0
 34 35  1  6
 34 36  1  0
 37 38  1  0
M  CHG  2  21   1  34   1
M  END
