
     RDKit          3D

 38 42  0  0  0  0  0  0  0  0999 V2000
   -8.5120    1.1830   -2.2360 C   0  0  0  0  0  0  0  0  0  0  0  0
   -7.8460    0.8130   -1.0020 N   0  0  2  0  0  0  0  0  0  0  0  0
   -8.7820    0.5120    0.0490 C   0  0  0  0  0  0  0  0  0  0  0  0
   -8.1030    0.1650    1.3200 C   0  0  0  0  0  0  0  0  0  0  0  0
   -6.6110    0.2430    1.3300 C   0  0  0  0  0  0  0  0  0  0  0  0
   -5.9950    1.2380    0.4170 C   0  0  1  0  0  0  0  0  0  0  0  0
   -4.9570    0.6210   -0.4380 C   0  0  0  0  0  0  0  0  0  0  0  0
   -5.0960    0.5690   -1.7130 O   0  0  0  0  0  0  0  0  0  0  0  0
   -3.7470    0.0480    0.0610 N   0  0  0  0  0  0  0  0  0  0  0  0
   -3.2900   -0.0470    1.4230 C   0  0  0  0  0  0  0  0  0  0  0  0
   -2.5260   -1.3620    1.4410 C   0  0  0  0  0  0  0  0  0  0  0  0
   -2.3510   -1.7110    0.0660 N   0  0  2  0  0  0  0  0  0  0  0  0
   -1.2800   -2.5110   -0.3090 C   0  0  0  0  0  0  0  0  0  0  0  0
    0.1140   -2.3060    0.0660 C   0  0  0  0  0  0  0  0  0  0  0  0
    0.8220   -1.1870   -0.2840 O   0  0  0  0  0  0  0  0  0  0  0  0
    0.7970    0.1090    0.0090 C   0  0  0  0  0  0  0  0  0  0  0  0
   -0.0470    0.5430    0.8150 O   0  0  0  0  0  0  0  0  0  0  0  0
    1.7290    1.1470   -0.5650 C   0  0  0  0  0  0  0  0  0  0  0  0
    2.8530    1.2280    0.3470 N   0  0  0  0  0  0  0  0  0  0  0  0
    2.9330    2.0390    1.3850 N   0  0  0  0  0  0  0  0  0  0  0  0
    4.0900    1.8790    2.0300 C   0  0  0  0  0  0  0  0  0  0  0  0
    4.7980    0.9030    1.3610 C   0  0  0  0  0  0  0  0  0  0  0  0
    6.0140    0.2920    1.5020 C   0  0  0  0  0  0  0  0  0  0  0  0
    6.4880   -0.6880    0.6590 C   0  0  0  0  0  0  0  0  0  0  0  0
    7.7370   -1.2930    0.8290 O   0  0  0  0  0  0  0  0  0  0  0  0
    8.8540   -0.7510    0.2190 C   0  0  0  0  0  0  0  0  0  0  0  0
    9.5830    0.1860    0.9040 C   0  0  0  0  0  0  0  0  0  0  0  0
   10.7000    0.7550    0.3420 C   0  0  0  0  0  0  0  0  0  0  0  0
   11.1400    0.4150   -0.9270 C   0  0  0  0  0  0  0  0  0  0  0  0
   12.2700    0.9980   -1.4830 O   0  0  0  0  0  0  0  0  0  0  0  0
   10.3830   -0.5290   -1.5870 C   0  0  0  0  0  0  0  0  0  0  0  0
   10.9320   -0.9750   -3.2110 Cl  0  0  0  0  0  0  0  0  0  0  0  0
    9.2580   -1.1140   -1.0430 C   0  0  0  0  0  0  0  0  0  0  0  0
    5.6640   -1.0640   -0.3920 C   0  0  0  0  0  0  0  0  0  0  0  0
    4.4310   -0.4710   -0.5660 C   0  0  0  0  0  0  0  0  0  0  0  0
    3.9900    0.5140    0.3060 C   0  0  0  0  0  0  0  0  0  0  0  0
   -2.6910   -0.5810   -0.7550 C   0  0  0  0  0  0  0  0  0  0  0  0
   -7.0010    1.8990   -0.5060 C   0  0  0  0  0  0  0  0  0  0  0  0
  2  1  1  6
  2  3  1  0
  2 38  1  0
  3  4  1  0
  4  5  1  0
  5  6  1  0
  6  7  1  6
  6 38  1  0
  7  8  2  0
  7  9  1  0
  9 10  1  0
  9 37  1  0
 10 11  1  0
 11 12  1  0
 12 13  1  1
 12 37  1  0
 13 14  1  0
 14 15  1  0
 15 16  1  0
 16 17  2  0
 16 18  1  0
 18 19  1  0
 19 20  1  0
 19 36  1  0
 20 21  2  0
 21 22  1  0
 22 23  2  0
 22 36  1  0
 23 24  1  0
 24 25  1  0
 24 34  2  0
 25 26  1  0
 26 27  2  0
 26 33  1  0
 27 28  1  0
 28 29  2  0
 29 30  1  0
 29 31  1  0
 31 32  1  0
 31 33  2  0
 34 35  1  0
 35 36  2  0
M  CHG  2   2   1  12   1
M  END
