
     RDKit          3D

 37 42  0  0  0  0  0  0  0  0999 V2000
    9.3280    0.7440   -1.5720 C   0  0  0  0  0  0  0  0  0  0  0  0
    8.5600   -0.2900   -0.9020 N   0  0  0  0  0  0  0  0  0  0  0  0
    7.4670   -0.7250   -1.7360 C   0  0  0  0  0  0  0  0  0  0  0  0
    6.3910    0.3240   -1.7320 C   0  0  0  0  0  0  0  0  0  0  0  0
    5.8600    0.5720   -0.3760 C   0  0  0  0  0  0  0  0  0  0  0  0
    6.3450    1.5300    0.4800 C   0  0  0  0  0  0  0  0  0  0  0  0
    5.8050    1.7010    1.7240 C   0  0  0  0  0  0  0  0  0  0  0  0
    4.7590    0.9270    2.1710 C   0  0  0  0  0  0  0  0  0  0  0  0
    4.2570   -0.0480    1.3130 C   0  0  0  0  0  0  0  0  0  0  0  0
    3.1970   -0.8670    1.7040 O   0  0  0  0  0  0  0  0  0  0  0  0
    1.8860   -0.4200    1.4190 C   0  0  0  0  0  0  0  0  0  0  0  0
    1.6940    0.7750    0.7830 C   0  0  0  0  0  0  0  0  0  0  0  0
    0.4240    1.2140    0.5040 C   0  0  0  0  0  0  0  0  0  0  0  0
   -0.6480    0.4370    0.8730 C   0  0  0  0  0  0  0  0  0  0  0  0
   -0.4750   -0.7950    1.5270 C   0  0  0  0  0  0  0  0  0  0  0  0
    0.8000   -1.1820    1.7790 C   0  0  0  0  0  0  0  0  0  0  0  0
    1.0190   -2.3940    2.4250 O   0  0  0  0  0  0  0  0  0  0  0  0
    1.1810   -3.6110    1.7610 C   0  0  0  0  0  0  0  0  0  0  0  0
    0.0930   -3.9780    0.9860 O   0  0  0  0  0  0  0  0  0  0  0  0
   -1.5900   -1.5740    1.8940 O   0  0  0  0  0  0  0  0  0  0  0  0
   -2.9030   -1.1400    1.6190 C   0  0  0  0  0  0  0  0  0  0  0  0
   -4.1140   -1.5940    1.8000 N   0  0  0  0  0  0  0  0  0  0  0  0
   -5.0520   -0.6390    1.2490 N   0  0  0  0  0  0  0  0  0  0  0  0
   -6.4320   -1.0820    1.3420 C   0  0  0  0  0  0  0  0  0  0  0  0
   -7.3380   -0.0970    0.6760 C   0  0  0  0  0  0  0  0  0  0  0  0
   -7.3950   -0.2340   -0.7490 N   0  0  1  0  0  0  0  0  0  0  0  0
   -8.7880   -0.1790   -1.1650 C   0  0  0  0  0  0  0  0  0  0  0  0
   -6.7030    0.8250   -1.4570 C   0  0  0  0  0  0  0  0  0  0  0  0
   -5.2710    0.4680   -1.7780 C   0  0  0  0  0  0  0  0  0  0  0  0
   -4.4680    0.7970   -0.6390 N   0  0  0  0  0  0  0  0  0  0  0  0
   -3.4510    1.7300   -1.1060 C   0  0  0  0  0  0  0  0  0  0  0  0
   -3.5770    2.1530   -2.2720 O   0  0  0  0  0  0  0  0  0  0  0  0
   -2.3180    2.1370   -0.1890 C   0  0  0  0  0  0  0  0  0  0  0  0
   -1.9900    0.9000    0.5890 C   0  0  0  0  0  0  0  0  0  0  0  0
   -2.9670    0.1250    0.9660 C   0  0  0  0  0  0  0  0  0  0  0  0
   -4.3750    0.4960    0.7540 C   0  0  2  0  0  0  0  0  0  0  0  0
    4.8060   -0.2140    0.0630 C   0  0  0  0  0  0  0  0  0  0  0  0
  1  2  1  0
  2  3  1  0
  3  4  1  0
  4  5  1  0
  5  6  2  0
  5 37  1  0
  6  7  1  0
  7  8  2  0
  8  9  1  0
  9 10  1  0
  9 37  2  0
 10 11  1  0
 11 12  2  0
 11 16  1  0
 12 13  1  0
 13 14  2  0
 14 15  1  0
 14 34  1  0
 15 16  2  0
 15 20  1  0
 16 17  1  0
 17 18  1  0
 18 19  1  0
 20 21  1  0
 21 22  2  0
 21 35  1  0
 22 23  1  0
 23 24  1  0
 36 23  1  6
 24 25  1  0
 25 26  1  0
 26 27  1  6
 26 28  1  0
 28 29  1  0
 29 30  1  0
 30 31  1  0
 30 36  1  0
 31 32  2  0
 31 33  1  0
 33 34  1  0
 34 35  2  0
 35 36  1  0
M  CHG  2   2   1  26   1
M  END
