
     RDKit          3D

 38 42  0  0  0  0  0  0  0  0999 V2000
   -6.0010   -0.7150    0.8950 C   0  0  0  0  0  0  0  0  0  0  0  0
   -6.8930    0.2200    1.0300 C   0  0  0  0  0  0  0  0  0  0  0  0
   -6.7360    1.6580    0.9530 C   0  0  0  0  0  0  0  0  0  0  0  0
   -7.8110    2.4430    1.1800 C   0  0  0  0  0  0  0  0  0  0  0  0
   -9.1480    1.9900    1.5010 C   0  0  0  0  0  0  0  0  0  0  0  0
   -9.6390    2.6360    3.1020 Cl  0  0  0  0  0  0  0  0  0  0  0  0
   -5.4770    2.4000    0.7250 C   0  0  0  0  0  0  0  0  0  0  0  0
   -4.8660    2.4220   -0.6130 C   0  0  0  0  0  0  0  0  0  0  0  0
   -4.4750    1.2060   -1.2140 N   0  0  0  0  0  0  0  0  0  0  0  0
   -5.3060    0.5100   -2.0150 C   0  0  0  0  0  0  0  0  0  0  0  0
   -6.4710    0.9840   -2.1770 O   0  0  0  0  0  0  0  0  0  0  0  0
   -4.9430   -0.6290   -2.6200 N   0  0  0  0  0  0  0  0  0  0  0  0
   -3.7160   -1.1680   -2.4740 C   0  0  0  0  0  0  0  0  0  0  0  0
   -3.3600   -2.3080   -3.0850 N   0  0  0  0  0  0  0  0  0  0  0  0
   -2.1390   -2.8380   -2.9390 C   0  0  0  0  0  0  0  0  0  0  0  0
   -1.1800   -2.2230   -2.1380 C   0  0  0  0  0  0  0  0  0  0  0  0
   -1.5400   -1.0520   -1.5090 C   0  0  0  0  0  0  0  0  0  0  0  0
   -0.6180   -0.3230   -0.6350 C   0  0  0  0  0  0  0  0  0  0  0  0
    0.7020   -0.9120   -0.5060 N   0  0  2  0  0  0  0  0  0  0  0  0
    1.2230   -0.4490    0.7760 C   0  0  0  0  0  0  0  0  0  0  0  0
    2.3190   -1.2770    1.3380 C   0  0  0  0  0  0  0  0  0  0  0  0
    3.1010   -2.0860    0.3710 C   0  0  0  0  0  0  0  0  0  0  0  0
    3.7650   -1.2260   -0.6480 C   0  0  2  0  0  0  0  0  0  0  0  0
    5.0750   -0.7660   -0.1500 C   0  0  0  0  0  0  0  0  0  0  0  0
    5.3750    0.2370    0.6920 N   0  0  0  0  0  0  0  0  0  0  0  0
    6.7080    0.2740    0.8510 C   0  0  0  0  0  0  0  0  0  0  0  0
    7.2180   -0.7310    0.0870 C   0  0  0  0  0  0  0  0  0  0  0  0
    6.2230   -1.3190   -0.4860 O   0  0  0  0  0  0  0  0  0  0  0  0
    8.6700   -1.0720   -0.0480 C   0  0  0  0  0  0  0  0  0  0  0  0
    9.3070    0.1390   -0.3900 O   0  0  0  0  0  0  0  0  0  0  0  0
    9.4550    0.9580    0.7140 C   0  0  0  0  0  0  0  0  0  0  0  0
    8.4160    1.8320    0.9160 O   0  0  0  0  0  0  0  0  0  0  0  0
    7.4140    1.2560    1.7150 C   0  0  0  0  0  0  0  0  0  0  0  0
    2.9350   -0.0980   -1.1780 C   0  0  0  0  0  0  0  0  0  0  0  0
    1.5590   -0.5390   -1.6000 C   0  0  0  0  0  0  0  0  0  0  0  0
   -2.8190   -0.4950   -1.6610 C   0  0  0  0  0  0  0  0  0  0  0  0
   -3.2220    0.6690   -1.0560 C   0  0  0  0  0  0  0  0  0  0  0  0
   -2.4410    1.3080   -0.3140 O   0  0  0  0  0  0  0  0  0  0  0  0
  1  2  2  0
  2  3  1  0
  3  4  2  3
  3  7  1  0
  4  5  1  0
  5  6  1  0
  7  8  1  0
  8  9  1  0
  9 10  1  0
  9 37  1  0
 10 11  2  0
 10 12  1  0
 12 13  1  0
 13 14  2  0
 13 36  1  0
 14 15  1  0
 15 16  2  0
 16 17  1  0
 17 18  1  0
 17 36  2  0
 19 18  1  6
 19 20  1  0
 19 35  1  0
 20 21  1  0
 21 22  1  0
 22 23  1  0
 23 24  1  1
 23 34  1  0
 24 25  2  0
 24 28  1  0
 25 26  1  0
 26 27  2  0
 26 33  1  0
 27 28  1  0
 27 29  1  0
 29 30  1  0
 30 31  1  0
 31 32  1  0
 32 33  1  0
 34 35  1  0
 36 37  1  0
 37 38  2  0
M  CHG  2  19   1  25   1
M  END
