
     RDKit          3D

 34 37  0  0  0  0  0  0  0  0999 V2000
   -1.9840    0.3000   -2.2100 O   0  0  0  0  0  0  0  0  0  0  0  0
   -2.2760   -0.9230   -2.1430 C   0  0  0  0  0  0  0  0  0  0  0  0
   -1.4680   -1.7390   -2.8740 O   0  0  0  0  0  0  0  0  0  0  0  0
   -0.3910   -1.4900   -3.6790 C   0  0  0  0  0  0  0  0  0  0  0  0
    0.8040   -0.8680   -3.0700 C   0  0  0  0  0  0  0  0  0  0  0  0
    1.9950   -1.1410   -3.0130 N   0  0  0  0  0  0  0  0  0  0  0  0
    2.8750   -0.4150   -2.4130 N   0  0  0  0  0  0  0  0  0  0  0  0
    2.6910    0.6070   -1.8330 C   0  0  0  0  0  0  0  0  0  0  0  0
    3.2680    1.6800   -1.1010 N   0  0  0  0  0  0  0  0  0  0  0  0
    4.4520    1.7420   -0.6530 C   0  0  0  0  0  0  0  0  0  0  0  0
    4.8070    2.9240    0.0500 N   0  0  0  0  0  0  0  0  0  0  0  0
    5.2630    4.0290   -0.5870 C   0  0  0  0  0  0  0  0  0  0  0  0
    5.4800    4.9840    0.3730 C   0  0  0  0  0  0  0  0  0  0  0  0
    5.1410    4.4100    1.5810 C   0  0  0  0  0  0  0  0  0  0  0  0
    4.7120    3.0910    1.3640 C   0  0  0  0  0  0  0  0  0  0  0  0
    4.2580    2.2340    2.4450 C   0  0  0  0  0  0  0  0  0  0  0  0
    3.9270    0.9150    2.2650 C   0  0  0  0  0  0  0  0  0  0  0  0
    3.4580    0.1220    3.3250 C   0  0  0  0  0  0  0  0  0  0  0  0
    3.3090    0.6330    4.5870 C   0  0  0  0  0  0  0  0  0  0  0  0
    2.7070   -0.3500    5.9190 Cl  0  0  0  0  0  0  0  0  0  0  0  0
    3.6430    1.9590    4.7680 C   0  0  0  0  0  0  0  0  0  0  0  0
    4.1040    2.7480    3.7430 C   0  0  0  0  0  0  0  0  0  0  0  0
    0.7880    0.7290   -2.1110 S   0  0  0  0  0  0  0  0  0  0  0  0
   -3.4150   -1.3260   -1.3210 C   0  0  0  0  0  0  0  0  0  0  0  0
   -4.1310   -0.4730   -0.6740 C   0  0  0  0  0  0  0  0  0  0  0  0
   -3.9870    0.9530   -0.6240 C   0  0  0  0  0  0  0  0  0  0  0  0
   -4.8750    1.6510    0.1330 C   0  0  0  0  0  0  0  0  0  0  0  0
   -4.7800    3.0080    0.2120 O   0  0  0  0  0  0  0  0  0  0  0  0
   -3.8300   -2.7450   -1.2520 C   0  0  0  0  0  0  0  0  0  0  0  0
   -3.2230   -3.7540   -1.7980 C   0  0  0  0  0  0  0  0  0  0  0  0
   -3.6220   -5.1790   -1.7410 C   0  0  0  0  0  0  0  0  0  0  0  0
   -4.6690   -5.3600   -0.8650 O   0  0  0  0  0  0  0  0  0  0  0  0
   -5.6460   -4.3880   -1.0100 C   0  0  0  0  0  0  0  0  0  0  0  0
   -5.1200   -3.0490   -0.5280 C   0  0  0  0  0  0  0  0  0  0  0  0
  1  2  2  0
  2  3  1  0
  2 24  1  0
  3  4  1  0
  4  5  1  0
  5  6  2  0
  5 23  1  0
  6  7  1  0
  7  8  2  0
  8  9  1  0
  8 23  1  0
  9 10  2  3
 10 11  1  0
 11 12  1  0
 11 15  1  0
 12 13  2  0
 13 14  1  0
 14 15  2  0
 15 16  1  0
 16 17  2  0
 16 22  1  0
 17 18  1  0
 18 19  2  0
 19 20  1  0
 19 21  1  0
 21 22  2  0
 24 25  2  3
 24 29  1  0
 25 26  1  0
 26 27  2  3
 27 28  1  0
 29 30  2  0
 29 34  1  0
 30 31  1  0
 31 32  1  0
 32 33  1  0
 33 34  1  0
M  END
