
     RDKit          3D

 34 37  0  0  0  0  0  0  0  0999 V2000
   -7.1620   -2.2080    0.1420 C   0  0  0  0  0  0  0  0  0  0  0  0
   -6.7030   -2.6800   -0.9900 C   0  0  0  0  0  0  0  0  0  0  0  0
   -6.0270   -1.7900   -1.9600 C   0  0  0  0  0  0  0  0  0  0  0  0
   -6.0040   -0.4160   -1.4030 C   0  0  0  0  0  0  0  0  0  0  0  0
   -7.0200    0.4700   -1.6340 C   0  0  0  0  0  0  0  0  0  0  0  0
   -7.0150    1.7460   -1.1260 C   0  0  0  0  0  0  0  0  0  0  0  0
   -5.9530    2.1670   -0.3520 C   0  0  0  0  0  0  0  0  0  0  0  0
   -5.9020    3.4200    0.1790 C   0  0  0  0  0  0  0  0  0  0  0  0
   -7.2490    4.5050   -0.1630 Cl  0  0  0  0  0  0  0  0  0  0  0  0
   -4.8720    3.8820    0.9560 C   0  0  0  0  0  0  0  0  0  0  0  0
   -3.8430    3.0220    1.2040 C   0  0  0  0  0  0  0  0  0  0  0  0
   -3.8290    1.7080    0.6860 C   0  0  0  0  0  0  0  0  0  0  0  0
   -2.7080    0.8580    0.9680 C   0  0  0  0  0  0  0  0  0  0  0  0
   -1.8270    1.3180    1.7870 O   0  0  0  0  0  0  0  0  0  0  0  0
   -2.4480   -0.3800    0.4800 O   0  0  0  0  0  0  0  0  0  0  0  0
   -1.2870   -1.1070    0.8510 C   0  0  0  0  0  0  0  0  0  0  0  0
   -0.1060   -0.2910    0.4410 C   0  0  0  0  0  0  0  0  0  0  0  0
   -0.1110    0.8760   -0.2300 N   0  0  0  0  0  0  0  0  0  0  0  0
    1.1260    1.3030   -0.4110 N   0  0  0  0  0  0  0  0  0  0  0  0
    1.9850    0.4110    0.1460 C   0  0  0  0  0  0  0  0  0  0  0  0
    3.7790    0.5260    0.1750 S   0  0  0  0  0  0  0  0  0  0  0  0
    4.4050   -0.9550    1.0590 C   0  0  1  0  0  0  0  0  0  0  0  0
    4.0760   -2.1570    0.2040 C   0  0  0  0  0  0  0  0  0  0  0  0
    5.8140   -0.8470    1.4200 C   0  0  0  0  0  0  0  0  0  0  0  0
    6.0850   -0.8920    2.6760 O   0  0  0  0  0  0  0  0  0  0  0  0
    6.8260   -0.7030    0.4620 N   0  0  0  0  0  0  0  0  0  0  0  0
    6.5640   -0.6560   -0.9390 C   0  0  0  0  0  0  0  0  0  0  0  0
    7.2280    0.6110   -1.4740 C   0  0  0  0  0  0  0  0  0  0  0  0
    8.5580    0.5960   -1.1300 O   0  0  0  0  0  0  0  0  0  0  0  0
    8.7550    0.6720    0.2460 C   0  0  0  0  0  0  0  0  0  0  0  0
    8.2190   -0.5920    0.8950 C   0  0  0  0  0  0  0  0  0  0  0  0
    1.2050   -0.5550    0.6600 N   0  0  0  0  0  0  0  0  0  0  0  0
   -4.8940    1.2890   -0.0940 C   0  0  0  0  0  0  0  0  0  0  0  0
   -4.9240    0.0100   -0.6160 C   0  0  0  0  0  0  0  0  0  0  0  0
  1  2  2  0
  2  3  1  0
  3  4  1  0
  4  5  2  0
  4 34  1  0
  5  6  1  0
  6  7  2  0
  7  8  1  0
  7 33  1  0
  8  9  1  0
  8 10  2  0
 10 11  1  0
 11 12  2  0
 12 13  1  0
 12 33  1  0
 13 14  2  0
 13 15  1  0
 15 16  1  0
 16 17  1  0
 17 18  2  0
 17 32  1  0
 18 19  1  0
 19 20  2  0
 20 21  1  0
 20 32  1  0
 21 22  1  0
 22 23  1  6
 22 24  1  0
 24 25  2  0
 24 26  1  0
 26 27  1  0
 26 31  1  0
 27 28  1  0
 28 29  1  0
 29 30  1  0
 30 31  1  0
 33 34  2  0
M  END
