
     RDKit          3D

 34 36  0  0  0  0  0  0  0  0999 V2000
   -0.5140   -2.1820   -2.0780 C   0  0  0  0  0  0  0  0  0  0  0  0
   -0.3010   -1.9220   -0.7510 O   0  0  0  0  0  0  0  0  0  0  0  0
   -0.9250   -1.0420    0.0650 C   0  0  0  0  0  0  0  0  0  0  0  0
   -2.0620   -1.4240    0.7390 C   0  0  0  0  0  0  0  0  0  0  0  0
   -2.7630   -2.6970    0.5490 C   0  0  0  0  0  0  0  0  0  0  0  0
   -3.9670   -2.6980   -0.3140 C   0  0  2  0  0  0  0  0  0  0  0  0
   -5.0520   -1.7550    0.2900 C   0  0  0  0  0  0  0  0  0  0  0  0
   -4.5910   -4.0930   -0.2300 C   0  0  0  0  0  0  0  0  0  0  0  0
   -3.8250   -2.3810   -1.7540 C   0  0  0  0  0  0  0  0  0  0  0  0
   -2.6160   -0.4990    1.5510 N   0  0  0  0  0  0  0  0  0  0  0  0
   -2.1050    0.7220    1.7010 C   0  0  0  0  0  0  0  0  0  0  0  0
   -2.6560    1.5700    2.4770 O   0  0  0  0  0  0  0  0  0  0  0  0
   -0.9460    1.1580    1.0300 C   0  0  0  0  0  0  0  0  0  0  0  0
   -0.5000    2.5200    1.2450 C   0  0  0  0  0  0  0  0  0  0  0  0
    0.4740    3.1580    0.8110 N   0  0  0  0  0  0  0  0  0  0  0  0
    0.7550    4.5010    1.1380 C   0  0  0  0  0  0  0  0  0  0  0  0
    0.6940    5.0800    2.3400 C   0  0  0  0  0  0  0  0  0  0  0  0
    1.0680    6.5010    2.2420 C   0  0  0  0  0  0  0  0  0  0  0  0
    1.3600    6.6920    0.8150 C   0  0  0  0  0  0  0  0  0  0  0  0
    1.8640    8.2080    0.0950 Cl  0  0  0  0  0  0  0  0  0  0  0  0
    1.1720    5.5340    0.2050 C   0  0  0  0  0  0  0  0  0  0  0  0
    1.3600    5.2940   -1.2520 C   0  0  0  0  0  0  0  0  0  0  0  0
   -0.3670    0.2390    0.2050 C   0  0  0  0  0  0  0  0  0  0  0  0
    0.8360    0.5690   -0.5360 C   0  0  0  0  0  0  0  0  0  0  0  0
    1.3900    1.6660   -0.4690 O   0  0  0  0  0  0  0  0  0  0  0  0
    1.4460   -0.3950   -1.4030 N   0  0  0  0  0  0  0  0  0  0  0  0
    2.5480   -0.9290   -1.0240 C   0  0  0  0  0  0  0  0  0  0  0  0
    3.3450   -0.8500    0.0040 N   0  0  0  0  0  0  0  0  0  0  0  0
    4.4420   -1.5600    0.0750 C   0  0  0  0  0  0  0  0  0  0  0  0
    4.7600   -2.3920   -0.9340 C   0  0  0  0  0  0  0  0  0  0  0  0
    5.8930   -3.2880   -1.1290 C   0  0  0  0  0  0  0  0  0  0  0  0
    6.9100   -3.3310   -0.0510 C   0  0  0  0  0  0  0  0  0  0  0  0
    6.0190   -3.9900   -2.1420 O   0  0  0  0  0  0  0  0  0  0  0  0
    3.4160   -2.1580   -2.0640 S   0  0  0  0  0  0  0  0  0  0  0  0
  1  2  1  0
  2  3  1  0
  3  4  2  0
  3 23  1  0
  4  5  1  0
  4 10  1  0
  5  6  1  0
  6  7  1  1
  6  8  1  0
  6  9  1  0
 10 11  1  0
 11 12  2  0
 11 13  1  0
 13 14  1  0
 13 23  2  0
 14 15  2  3
 15 16  1  0
 16 17  2  0
 16 21  1  0
 17 18  1  0
 18 19  1  0
 19 20  1  0
 19 21  2  0
 21 22  1  0
 23 24  1  0
 24 25  2  0
 24 26  1  0
 26 27  2  3
 27 28  1  0
 27 34  1  0
 28 29  1  0
 29 30  2  0
 30 31  1  0
 30 34  1  0
 31 32  1  0
 31 33  2  0
M  END
