
     RDKit          3D

 34 37  0  0  0  0  0  0  0  0999 V2000
   -5.3320    5.4750   -0.1070 C   0  0  0  0  0  0  0  0  0  0  0  0
   -6.6790    5.1720   -0.3070 O   0  0  0  0  0  0  0  0  0  0  0  0
   -7.1170    4.1950    0.5900 C   0  0  0  0  0  0  0  0  0  0  0  0
   -6.2860    2.9620    0.4480 C   0  0  0  0  0  0  0  0  0  0  0  0
   -5.3580    2.4360    0.6690 N   0  0  0  0  0  0  0  0  0  0  0  0
   -4.4680    1.6320    0.7450 C   0  0  0  0  0  0  0  0  0  0  0  0
   -3.4250    0.6790    0.8290 C   0  0  0  0  0  0  0  0  0  0  0  0
   -2.3890    1.4360    1.5800 O   0  0  0  0  0  0  0  0  0  0  0  0
   -2.8250   -0.4350    0.6640 N   0  0  0  0  0  0  0  0  0  0  0  0
   -2.4770   -1.5880    0.4700 C   0  0  0  0  0  0  0  0  0  0  0  0
   -0.9760   -1.8000    0.5200 N   0  0  0  0  0  0  0  0  0  0  0  0
   -0.2410   -0.9750   -0.3690 C   0  0  0  0  0  0  0  0  0  0  0  0
    1.1800   -0.8610   -0.1080 C   0  0  0  0  0  0  0  0  0  0  0  0
    2.1350   -0.5810   -1.1590 C   0  0  0  0  0  0  0  0  0  0  0  0
    3.3590   -0.5230   -0.5620 C   0  0  0  0  0  0  0  0  0  0  0  0
    4.6270   -0.2590   -1.0620 C   0  0  0  0  0  0  0  0  0  0  0  0
    5.7650   -0.2210   -0.2320 C   0  0  0  0  0  0  0  0  0  0  0  0
    7.0430    0.2060   -0.8290 C   0  0  0  0  0  0  0  0  0  0  0  0
    7.2600    1.6840   -0.7680 C   0  0  2  0  0  0  0  0  0  0  0  0
    8.6000    2.1040   -1.3720 C   0  0  0  0  0  0  0  0  0  0  0  0
    7.1320    2.2830    0.6050 C   0  0  0  0  0  0  0  0  0  0  0  0
    5.5670   -0.4650    1.1030 C   0  0  0  0  0  0  0  0  0  0  0  0
    6.9180   -0.5080    2.2170 Cl  0  0  0  0  0  0  0  0  0  0  0  0
    4.2940   -0.7200    1.5780 C   0  0  0  0  0  0  0  0  0  0  0  0
    3.1700   -0.7510    0.7750 C   0  0  0  0  0  0  0  0  0  0  0  0
    1.8830   -0.9430    0.9680 O   0  0  0  0  0  0  0  0  0  0  0  0
   -3.2190   -2.7740    0.2520 N   0  0  0  0  0  0  0  0  0  0  0  0
   -3.9920   -3.0490   -0.9110 C   0  0  0  0  0  0  0  0  0  0  0  0
   -4.7790   -4.3470   -0.6880 C   0  0  0  0  0  0  0  0  0  0  0  0
   -3.9740   -5.4110   -0.4120 O   0  0  0  0  0  0  0  0  0  0  0  0
   -2.9700   -5.1390    0.4850 C   0  0  0  0  0  0  0  0  0  0  0  0
   -3.1620   -3.8500    1.2600 C   0  0  0  0  0  0  0  0  0  0  0  0
   -5.4230    0.5790   -0.2060 C   0  0  0  0  0  0  0  0  0  0  0  0
   -6.9070    1.4590   -0.5420 S   0  0  0  0  0  0  0  0  0  0  0  0
  1  2  1  0
  2  3  1  0
  3  4  1  0
  4  5  2  0
  4 34  1  0
  5  6  1  0
  6  7  1  0
  6 33  2  0
  7  8  2  0
  7  9  1  0
  9 10  2  3
 10 11  1  0
 10 27  1  0
 11 12  1  0
 12 13  1  0
 13 14  2  0
 13 26  1  0
 14 15  1  0
 15 16  2  0
 15 25  1  0
 16 17  1  0
 17 18  1  0
 17 22  2  0
 18 19  1  0
 19 20  1  1
 19 21  1  0
 22 23  1  0
 22 24  1  0
 24 25  2  0
 25 26  1  0
 27 28  1  0
 27 32  1  0
 28 29  1  0
 29 30  1  0
 30 31  1  0
 31 32  1  0
 33 34  1  0
M  END
