
     RDKit          3D

 40 41  0  0  0  0  0  0  0  0999 V2000
    9.9570    0.4500    2.8250 C   0  0  0  0  0  0  0  0  0  0  0  0
   10.5750   -0.1300    1.6210 C   0  0  0  0  0  0  0  0  0  0  0  0
   10.0870   -0.1110    0.3980 C   0  0  0  0  0  0  0  0  0  0  0  0
    8.7990    0.5210    0.0580 C   0  0  0  0  0  0  0  0  0  0  0  0
    7.8200   -0.4900   -0.5310 C   0  0  2  0  0  0  0  0  0  0  0  0
    7.6220   -1.5470    0.5410 C   0  0  0  0  0  0  0  0  0  0  0  0
    8.3250   -1.0450   -1.8250 C   0  0  0  0  0  0  0  0  0  0  0  0
    6.5460    0.1620   -0.8000 N   0  0  0  0  0  0  0  0  0  0  0  0
    5.4570   -0.5320   -1.3620 C   0  0  0  0  0  0  0  0  0  0  0  0
    5.5820   -1.7440   -1.6410 O   0  0  0  0  0  0  0  0  0  0  0  0
    4.1600    0.1360   -1.6340 C   0  0  1  0  0  0  0  0  0  0  0  0
    4.4440    1.3310   -2.5410 C   0  0  0  0  0  0  0  0  0  0  0  0
    3.0760   -1.0500   -2.4460 S   0  0  0  0  0  0  0  0  0  0  0  0
    1.4570   -0.4570   -2.7900 C   0  0  0  0  0  0  0  0  0  0  0  0
    0.7130   -1.1840   -3.4360 O   0  0  0  0  0  0  0  0  0  0  0  0
    0.8870    0.8480   -2.3800 C   0  0  0  0  0  0  0  0  0  0  0  0
   -0.4470    0.4780   -1.1950 S   0  0  0  0  0  0  0  0  0  0  0  0
    0.1970   -0.2400    0.3010 C   0  0  0  0  0  0  0  0  0  0  0  0
    1.4510   -0.4500    0.5450 N   0  0  0  0  0  0  0  0  0  0  0  0
    1.6240   -1.0230    1.7960 N   0  0  0  0  0  0  0  0  0  0  0  0
    2.8740   -1.4160    2.4550 C   0  0  0  0  0  0  0  0  0  0  0  0
    0.3510   -1.1930    2.4080 C   0  0  0  0  0  0  0  0  0  0  0  0
    0.0820   -1.6730    3.5300 O   0  0  0  0  0  0  0  0  0  0  0  0
   -0.6240   -0.6720    1.4180 C   0  0  0  0  0  0  0  0  0  0  0  0
   -1.9110   -0.6600    1.6410 C   0  0  0  0  0  0  0  0  0  0  0  0
   -2.9220   -0.1550    0.7270 C   0  0  0  0  0  0  0  0  0  0  0  0
   -4.1520   -0.7600    0.4380 C   0  0  0  0  0  0  0  0  0  0  0  0
   -4.7930    0.0430   -0.4630 C   0  0  0  0  0  0  0  0  0  0  0  0
   -6.0610   -0.1580   -1.0830 N   0  0  0  0  0  0  0  0  0  0  0  0
   -6.9750   -1.2000   -0.7500 C   0  0  0  0  0  0  0  0  0  0  0  0
   -7.7290   -1.0680    0.5260 C   0  0  1  0  0  0  0  0  0  0  0  0
   -6.8950   -0.9810    1.6590 O   0  0  0  0  0  0  0  0  0  0  0  0
   -8.7740    0.0020    0.5750 C   0  0  2  0  0  0  0  0  0  0  0  0
   -9.8060   -0.2320   -0.4890 C   0  0  0  0  0  0  0  0  0  0  0  0
  -10.8820    0.8540   -0.4310 C   0  0  0  0  0  0  0  0  0  0  0  0
   -8.2290    1.3990    0.6010 C   0  0  0  0  0  0  0  0  0  0  0  0
   -7.3600    1.6020    1.8220 C   0  0  0  0  0  0  0  0  0  0  0  0
   -3.9350    1.1130   -0.6970 C   0  0  0  0  0  0  0  0  0  0  0  0
   -4.2160    2.2610   -1.6270 C   0  0  0  0  0  0  0  0  0  0  0  0
   -2.8700    0.9330    0.0250 O   0  0  0  0  0  0  0  0  0  0  0  0
  1  2  1  0
  2  3  2  3
  3  4  1  0
  4  5  1  0
  5  6  1  1
  5  7  1  0
  5  8  1  0
  8  9  1  0
  9 10  2  0
  9 11  1  0
 11 12  1  6
 11 13  1  0
 13 14  1  0
 14 15  2  0
 14 16  1  0
 16 17  1  0
 17 18  1  0
 18 19  2  0
 18 24  1  0
 19 20  1  0
 20 21  1  0
 20 22  1  0
 22 23  2  0
 22 24  1  0
 24 25  2  3
 25 26  1  0
 26 27  2  0
 26 40  1  0
 27 28  1  0
 28 29  1  0
 28 38  2  0
 29 30  1  0
 30 31  1  0
 31 32  1  1
 31 33  1  0
 33 34  1  6
 33 36  1  0
 34 35  1  0
 36 37  1  0
 38 39  1  0
 38 40  1  0
M  END
