
     RDKit          3D

 40 42  0  0  0  0  0  0  0  0999 V2000
   -7.5980   -4.4070   -1.0350 C   0  0  0  0  0  0  0  0  0  0  0  0
   -7.1990   -2.9560   -0.7310 C   0  0  0  0  0  0  0  0  0  0  0  0
   -5.7210   -2.8810   -0.9530 C   0  0  0  0  0  0  0  0  0  0  0  0
   -5.1660   -1.4800   -0.6820 C   0  0  0  0  0  0  0  0  0  0  0  0
   -3.7070   -1.5450   -0.9350 C   0  0  2  0  0  0  0  0  0  0  0  0
   -2.9540   -2.5130   -0.0950 C   0  0  2  0  0  0  0  0  0  0  0  0
   -3.3580   -2.5850    1.3510 C   0  0  0  0  0  0  0  0  0  0  0  0
   -1.5290   -2.0400   -0.1940 C   0  0  0  0  0  0  0  0  0  0  0  0
   -1.6020   -0.6890   -0.6840 N   0  0  0  0  0  0  0  0  0  0  0  0
   -0.4370    0.0850   -1.0610 C   0  0  0  0  0  0  0  0  0  0  0  0
   -0.5610    1.2400   -1.5220 O   0  0  0  0  0  0  0  0  0  0  0  0
    0.8870   -0.4610   -0.9060 C   0  0  0  0  0  0  0  0  0  0  0  0
    1.2470   -2.0680   -0.1830 S   0  0  0  0  0  0  0  0  0  0  0  0
    3.0070   -1.9150   -0.3210 C   0  0  0  0  0  0  0  0  0  0  0  0
    3.8580   -2.7780    0.0430 O   0  0  0  0  0  0  0  0  0  0  0  0
    3.1650   -0.7280   -0.8740 N   0  0  0  0  0  0  0  0  0  0  0  0
    4.5420   -0.2780   -1.1180 C   0  0  0  0  0  0  0  0  0  0  0  0
    5.2120    0.3900   -0.1190 C   0  0  0  0  0  0  0  0  0  0  0  0
    6.4950    0.8360   -0.2750 C   0  0  0  0  0  0  0  0  0  0  0  0
    7.1550    1.5390    0.8320 C   0  0  0  0  0  0  0  0  0  0  0  0
    6.5300    1.7070    1.9140 O   0  0  0  0  0  0  0  0  0  0  0  0
    8.4410    2.0330    0.7580 O   0  0  0  0  0  0  0  0  0  0  0  0
    9.0590    2.7020    1.8420 C   0  0  0  0  0  0  0  0  0  0  0  0
    9.1350    1.7600    2.9790 C   0  0  0  0  0  0  0  0  0  0  0  0
    9.6940    2.1370    4.2280 N   0  0  0  0  0  0  0  0  0  0  0  0
    8.7010    0.5910    2.8620 O   0  0  0  0  0  0  0  0  0  0  0  0
    7.1000    0.5870   -1.4870 C   0  0  0  0  0  0  0  0  0  0  0  0
    6.4040   -0.0880   -2.4750 C   0  0  0  0  0  0  0  0  0  0  0  0
    5.1390   -0.5170   -2.2950 N   0  0  0  0  0  0  0  0  0  0  0  0
    2.1420    0.0260   -1.1820 C   0  0  0  0  0  0  0  0  0  0  0  0
    2.2690    1.3740   -1.8940 C   0  0  0  0  0  0  0  0  0  0  0  0
    2.2360    1.2950   -3.3580 C   0  0  0  0  0  0  0  0  0  0  0  0
    1.0850    0.7160   -4.0640 C   0  0  0  0  0  0  0  0  0  0  0  0
   -2.9680   -0.2430   -0.7360 C   0  0  2  0  0  0  0  0  0  0  0  0
   -3.4780    0.5420    0.4170 C   0  0  0  0  0  0  0  0  0  0  0  0
   -2.7010    1.8160    0.5770 C   0  0  0  0  0  0  0  0  0  0  0  0
   -3.1580    2.7280    1.6700 C   0  0  1  0  0  0  0  0  0  0  0  0
   -4.6030    3.1510    1.4950 C   0  0  0  0  0  0  0  0  0  0  0  0
   -2.7810    2.3220    3.0420 C   0  0  0  0  0  0  0  0  0  0  0  0
   -3.3990    0.7550    3.6220 S   0  0  0  0  0  0  0  0  0  0  0  0
  1  2  1  0
  2  3  1  0
  3  4  1  0
  5  4  1  1
  5  6  1  0
  5 34  1  0
  6  7  1  1
  6  8  1  0
  8  9  1  0
  9 10  1  0
  9 34  1  0
 10 11  2  0
 10 12  1  0
 12 13  1  0
 12 30  2  0
 13 14  1  0
 14 15  2  0
 14 16  1  0
 16 17  1  0
 16 30  1  0
 17 18  2  0
 17 29  1  0
 18 19  1  0
 19 20  1  0
 19 27  2  0
 20 21  2  0
 20 22  1  0
 22 23  1  0
 23 24  1  0
 24 25  1  0
 24 26  2  0
 27 28  1  0
 28 29  2  0
 30 31  1  0
 31 32  1  0
 32 33  1  0
 34 35  1  1
 35 36  1  0
 36 37  1  0
 37 38  1  1
 37 39  1  0
 39 40  1  0
M  END
