
     RDKit          3D

 48 52  0  0  0  0  0  0  0  0999 V2000
    5.4030    5.6450    1.5390 C   0  0  0  0  0  0  0  0  0  0  0  0
    5.2090    4.1790    1.3300 C   0  0  0  0  0  0  0  0  0  0  0  0
    5.9460    3.3170    2.1460 C   0  0  0  0  0  0  0  0  0  0  0  0
    5.7950    1.9600    1.9790 C   0  0  0  0  0  0  0  0  0  0  0  0
    4.9480    1.3940    1.0420 C   0  0  0  0  0  0  0  0  0  0  0  0
    4.7980    0.0020    0.8830 N   0  0  0  0  0  0  0  0  0  0  0  0
    5.6220   -0.9400    0.1420 C   0  0  0  0  0  0  0  0  0  0  0  0
    6.6100   -0.4790   -0.4640 O   0  0  0  0  0  0  0  0  0  0  0  0
    5.1430   -2.2850    0.2440 C   0  0  0  0  0  0  0  0  0  0  0  0
    5.3350   -3.3830   -0.4050 C   0  0  0  0  0  0  0  0  0  0  0  0
    6.0050   -3.9690   -1.4780 C   0  0  0  0  0  0  0  0  0  0  0  0
    5.7630   -5.3210   -1.5820 O   0  0  0  0  0  0  0  0  0  0  0  0
    6.8630   -3.5850   -2.4980 N   0  0  0  0  0  0  0  0  0  0  0  0
    7.3290   -2.2730   -2.7800 C   0  0  0  0  0  0  0  0  0  0  0  0
    7.3940   -4.6200   -3.4430 C   0  0  0  0  0  0  0  0  0  0  0  0
    4.1250   -2.1900    1.3950 C   0  0  2  0  0  0  0  0  0  0  0  0
    3.0430   -3.1740    1.2990 C   0  0  0  0  0  0  0  0  0  0  0  0
    2.1860   -3.2440    0.1160 C   0  0  0  0  0  0  0  0  0  0  0  0
    1.3250   -2.1000   -0.2670 C   0  0  0  0  0  0  0  0  0  0  0  0
    0.2620   -1.7100    0.6690 C   0  0  0  0  0  0  0  0  0  0  0  0
    0.2200   -2.2060    1.8310 O   0  0  0  0  0  0  0  0  0  0  0  0
   -0.7360   -0.7840    0.3090 N   0  0  0  0  0  0  0  0  0  0  0  0
   -0.7150   -0.1960   -1.0110 C   0  0  0  0  0  0  0  0  0  0  0  0
   -2.0440   -0.5460   -1.6970 C   0  0  0  0  0  0  0  0  0  0  0  0
   -3.0610    0.1380   -0.7220 C   0  0  0  0  0  0  0  0  0  0  0  0
   -3.5750    1.1980   -1.2160 C   0  0  0  0  0  0  0  0  0  0  0  0
   -4.5250    2.1670   -0.7450 C   0  0  0  0  0  0  0  0  0  0  0  0
   -5.5190    2.6230   -1.5840 C   0  0  0  0  0  0  0  0  0  0  0  0
   -6.3970    3.5870   -1.1840 C   0  0  0  0  0  0  0  0  0  0  0  0
   -6.3320    4.1590    0.0910 C   0  0  0  0  0  0  0  0  0  0  0  0
   -5.3510    3.7190    0.9380 C   0  0  0  0  0  0  0  0  0  0  0  0
   -5.2570    4.3020    2.2470 N   0  0  0  0  0  0  0  0  0  0  0  0
   -4.4710    2.7480    0.5290 C   0  0  0  0  0  0  0  0  0  0  0  0
   -3.1350   -0.5720    0.5260 C   0  0  2  0  0  0  0  0  0  0  0  0
   -3.0340   -2.0030    0.1010 O   0  0  0  0  0  0  0  0  0  0  0  0
   -4.2530   -0.6230    1.4440 C   0  0  0  0  0  0  0  0  0  0  0  0
   -5.5410   -1.2190    1.0280 C   0  0  0  0  0  0  0  0  0  0  0  0
   -6.3290   -0.6710   -0.0540 C   0  0  0  0  0  0  0  0  0  0  0  0
   -7.3550    0.2220    0.1600 C   0  0  0  0  0  0  0  0  0  0  0  0
   -8.1060    0.6870   -0.8670 C   0  0  0  0  0  0  0  0  0  0  0  0
   -7.8600    0.2750   -2.1750 C   0  0  0  0  0  0  0  0  0  0  0  0
   -6.8380   -0.6140   -2.4000 C   0  0  0  0  0  0  0  0  0  0  0  0
   -6.0740   -1.0850   -1.3350 C   0  0  0  0  0  0  0  0  0  0  0  0
   -1.7850   -0.4630    1.2710 C   0  0  0  0  0  0  0  0  0  0  0  0
    3.7590   -0.7920    1.4770 C   0  0  0  0  0  0  0  0  0  0  0  0
    2.7210   -0.2760    1.9760 O   0  0  0  0  0  0  0  0  0  0  0  0
    4.2360    2.2650    0.2550 C   0  0  0  0  0  0  0  0  0  0  0  0
    4.3620    3.6470    0.3940 C   0  0  0  0  0  0  0  0  0  0  0  0
  1  2  1  0
  2  3  2  0
  2 48  1  0
  3  4  1  0
  4  5  2  0
  5  6  1  0
  5 47  1  0
  6  7  1  0
  6 45  1  0
  7  8  2  0
  7  9  1  0
  9 10  2  3
  9 16  1  0
 10 11  1  0
 11 12  2  0
 11 13  1  0
 13 14  1  0
 13 15  1  0
 16 17  1  6
 16 45  1  0
 17 18  1  0
 18 19  1  0
 19 20  1  0
 20 21  2  0
 20 22  1  0
 22 23  1  0
 22 44  1  0
 23 24  1  0
 24 25  1  0
 25 26  2  3
 25 34  1  0
 26 27  1  0
 27 28  2  0
 27 33  1  0
 28 29  1  0
 29 30  2  0
 30 31  1  0
 31 32  1  0
 31 33  2  0
 34 35  1  6
 34 36  1  0
 34 44  1  0
 36 37  1  0
 37 38  1  0
 38 39  2  0
 38 43  1  0
 39 40  1  0
 40 41  2  0
 41 42  1  0
 42 43  2  0
 45 46  2  0
 47 48  2  0
M  CHG  1  32   1
M  END
