
     RDKit          3D

 49 53  0  0  0  0  0  0  0  0999 V2000
   -5.5830   -3.5250    1.7000 C   0  0  0  0  0  0  0  0  0  0  0  0
   -6.2360   -2.1750    1.9690 C   0  0  2  0  0  0  0  0  0  0  0  0
   -7.1920   -2.2800    3.1410 C   0  0  0  0  0  0  0  0  0  0  0  0
   -7.0810   -1.8390    0.7560 C   0  0  0  0  0  0  0  0  0  0  0  0
   -5.2540   -1.1690    2.2750 N   0  0  0  0  0  0  0  0  0  0  0  0
   -4.2740   -0.8590    1.2970 C   0  0  0  0  0  0  0  0  0  0  0  0
   -4.3200   -1.4790    0.2120 O   0  0  0  0  0  0  0  0  0  0  0  0
   -3.2130    0.1520    1.5050 C   0  0  2  0  0  0  0  0  0  0  0  0
   -3.6870    1.4560    2.0360 C   0  0  0  0  0  0  0  0  0  0  0  0
   -4.2400    2.4120    1.0280 C   0  0  2  0  0  0  0  0  0  0  0  0
   -5.6850    2.1770    0.6930 C   0  0  0  0  0  0  0  0  0  0  0  0
   -6.2760    3.4260    0.0520 C   0  0  0  0  0  0  0  0  0  0  0  0
   -5.1730    4.1000   -0.7340 C   0  0  0  0  0  0  0  0  0  0  0  0
   -4.1840    3.1060   -1.3040 C   0  0  0  0  0  0  0  0  0  0  0  0
   -3.3550    2.4650   -0.1830 C   0  0  2  0  0  0  0  0  0  0  0  0
   -3.0660    1.0600   -0.6540 C   0  0  0  0  0  0  0  0  0  0  0  0
   -2.4110    0.2210    0.3010 N   0  0  1  0  0  0  0  0  0  0  0  0
   -1.0450    0.5010    0.5260 C   0  0  0  0  0  0  0  0  0  0  0  0
   -0.0410   -0.5580    0.2630 C   0  0  1  0  0  0  0  0  0  0  0  0
   -0.1680   -1.7360    0.9340 O   0  0  0  0  0  0  0  0  0  0  0  0
    0.4500   -0.6710   -1.1730 C   0  0  2  0  0  0  0  0  0  0  0  0
   -0.4460   -1.3860   -2.0780 C   0  0  0  0  0  0  0  0  0  0  0  0
    0.0080   -1.5220   -3.4760 C   0  0  0  0  0  0  0  0  0  0  0  0
    0.6960   -2.6630   -3.8360 C   0  0  0  0  0  0  0  0  0  0  0  0
    1.1540   -2.8760   -5.1290 C   0  0  0  0  0  0  0  0  0  0  0  0
    0.9140   -1.9180   -6.0790 C   0  0  0  0  0  0  0  0  0  0  0  0
    0.2190   -0.7630   -5.7170 C   0  0  0  0  0  0  0  0  0  0  0  0
   -0.2270   -0.5660   -4.4420 C   0  0  0  0  0  0  0  0  0  0  0  0
    1.7950   -1.2870   -1.1520 N   0  0  0  0  0  0  0  0  0  0  0  0
    2.9400   -0.4990   -0.9540 C   0  0  0  0  0  0  0  0  0  0  0  0
    2.7780    0.7420   -0.7930 O   0  0  0  0  0  0  0  0  0  0  0  0
    4.2830   -1.0190   -0.9140 C   0  0  2  0  0  0  0  0  0  0  0  0
    4.4250   -2.5000   -1.0360 C   0  0  0  0  0  0  0  0  0  0  0  0
    3.9110   -2.9930   -2.3660 C   0  0  0  0  0  0  0  0  0  0  0  0
    3.8370   -2.0590   -3.4280 N   0  0  0  0  0  0  0  0  0  0  0  0
    3.5880   -4.2010   -2.4340 O   0  0  0  0  0  0  0  0  0  0  0  0
    5.1090   -0.5220    0.1580 N   0  0  0  0  0  0  0  0  0  0  0  0
    6.1890    0.3800    0.0250 C   0  0  0  0  0  0  0  0  0  0  0  0
    6.4330    0.7800   -1.1510 O   0  0  0  0  0  0  0  0  0  0  0  0
    7.0060    0.8510    1.1610 C   0  0  0  0  0  0  0  0  0  0  0  0
    6.8030    0.4370    2.4540 C   0  0  0  0  0  0  0  0  0  0  0  0
    7.5690    0.8710    3.5130 C   0  0  0  0  0  0  0  0  0  0  0  0
    8.6000    1.7710    3.2790 C   0  0  0  0  0  0  0  0  0  0  0  0
    9.3890    2.2240    4.3180 C   0  0  0  0  0  0  0  0  0  0  0  0
   10.4160    3.1200    4.0740 C   0  0  0  0  0  0  0  0  0  0  0  0
   10.6020    3.5240    2.7650 C   0  0  0  0  0  0  0  0  0  0  0  0
    9.8150    3.0720    1.7220 C   0  0  0  0  0  0  0  0  0  0  0  0
    8.7860    2.1730    1.9740 C   0  0  0  0  0  0  0  0  0  0  0  0
    8.0110    1.7260    0.9430 N   0  0  0  0  0  0  0  0  0  0  0  0
  2  1  1  6
  2  3  1  0
  2  4  1  0
  2  5  1  0
  5  6  1  0
  6  7  2  0
  8  6  1  6
  8  9  1  0
  8 17  1  0
 10  9  1  1
 10 11  1  0
 10 15  1  0
 11 12  1  0
 12 13  1  0
 13 14  1  0
 15 14  1  6
 15 16  1  0
 16 17  1  0
 17 18  1  1
 18 19  1  0
 19 20  1  6
 19 21  1  0
 21 22  1  6
 21 29  1  0
 22 23  1  0
 23 24  2  0
 23 28  1  0
 24 25  1  0
 25 26  2  0
 26 27  1  0
 27 28  2  0
 29 30  1  0
 30 31  2  0
 30 32  1  0
 32 33  1  1
 32 37  1  0
 33 34  1  0
 34 35  1  0
 34 36  2  0
 37 38  1  0
 38 39  2  0
 38 40  1  0
 40 41  2  0
 40 49  1  0
 41 42  1  0
 42 43  2  0
 43 44  1  0
 43 48  1  0
 44 45  2  0
 45 46  1  0
 46 47  2  0
 47 48  1  0
 48 49  2  0
M  CHG  1  17   1
M  END
