
     RDKit          3D

 47 52  0  0  0  0  0  0  0  0999 V2000
   -5.9670   -2.6180    1.7360 C   0  0  0  0  0  0  0  0  0  0  0  0
   -4.5710   -2.0180    1.7180 C   0  0  2  0  0  0  0  0  0  0  0  0
   -4.3260   -0.8830    2.5130 N   0  0  0  0  0  0  0  0  0  0  0  0
   -4.7420    0.4320    2.6930 C   0  0  0  0  0  0  0  0  0  0  0  0
   -5.7140    0.5950    3.5720 O   0  0  0  0  0  0  0  0  0  0  0  0
   -4.3890    1.7530    2.1710 C   0  0  1  0  0  0  0  0  0  0  0  0
   -3.9650    2.1190    0.8260 C   0  0  0  0  0  0  0  0  0  0  0  0
   -5.2760    2.5230    1.3320 C   0  0  1  0  0  0  0  0  0  0  0  0
   -6.5850    1.9670    0.8690 C   0  0  0  0  0  0  0  0  0  0  0  0
   -6.4590    0.5200    0.4640 C   0  0  0  0  0  0  0  0  0  0  0  0
   -6.9580    0.1260   -0.7660 O   0  0  0  0  0  0  0  0  0  0  0  0
   -6.1410   -0.2260   -1.8690 C   0  0  0  0  0  0  0  0  0  0  0  0
   -6.6440    0.0920   -3.1090 C   0  0  0  0  0  0  0  0  0  0  0  0
   -5.9930   -0.1660   -4.2880 C   0  0  0  0  0  0  0  0  0  0  0  0
   -4.7650   -0.7760   -4.2470 C   0  0  0  0  0  0  0  0  0  0  0  0
   -4.2470   -1.1000   -3.0150 C   0  0  0  0  0  0  0  0  0  0  0  0
   -4.8990   -0.8470   -1.7850 C   0  0  0  0  0  0  0  0  0  0  0  0
   -4.2980   -1.2120   -0.6310 O   0  0  0  0  0  0  0  0  0  0  0  0
   -4.0770   -2.1220    0.3140 C   0  0  1  0  0  0  0  0  0  0  0  0
   -2.5560   -2.3590    0.3620 C   0  0  0  0  0  0  0  0  0  0  0  0
   -2.1180   -3.2360    1.1440 O   0  0  0  0  0  0  0  0  0  0  0  0
   -1.6710   -1.6220   -0.4410 N   0  0  0  0  0  0  0  0  0  0  0  0
   -0.2580   -1.6860   -0.5230 C   0  0  0  0  0  0  0  0  0  0  0  0
    0.5930   -1.2590    0.6080 C   0  0  2  0  0  0  0  0  0  0  0  0
    0.3840   -1.9750    1.9000 C   0  0  0  0  0  0  0  0  0  0  0  0
    1.4160   -1.4490    2.9200 C   0  0  0  0  0  0  0  0  0  0  0  0
    1.0210   -0.0350    3.1890 C   0  0  0  0  0  0  0  0  0  0  0  0
    0.2350    0.6100    2.0690 C   0  0  0  0  0  0  0  0  0  0  0  0
    0.7640    0.1710    0.7530 N   0  0  1  0  0  0  0  0  0  0  0  0
    2.0980    0.6570    0.7260 C   0  0  0  0  0  0  0  0  0  0  0  0
    2.9360    0.3720   -0.4200 C   0  0  0  0  0  0  0  0  0  0  0  0
    2.5630   -0.2730   -1.4000 O   0  0  0  0  0  0  0  0  0  0  0  0
    4.2910    0.8570   -0.4450 N   0  0  0  0  0  0  0  0  0  0  0  0
    5.1560    0.5920   -1.5800 C   0  0  1  0  0  0  0  0  0  0  0  0
    5.7460    1.8290   -2.1430 C   0  0  0  0  0  0  0  0  0  0  0  0
    7.0770    1.8330   -2.5110 C   0  0  0  0  0  0  0  0  0  0  0  0
    7.6850    2.9620   -3.0350 C   0  0  0  0  0  0  0  0  0  0  0  0
    6.9970    4.1360   -3.2160 C   0  0  0  0  0  0  0  0  0  0  0  0
    5.6510    4.1220   -2.8400 C   0  0  0  0  0  0  0  0  0  0  0  0
    5.0420    3.0040   -2.3190 C   0  0  0  0  0  0  0  0  0  0  0  0
    6.2870   -0.2900   -1.1260 C   0  0  0  0  0  0  0  0  0  0  0  0
    6.5530   -1.4750   -1.7680 C   0  0  0  0  0  0  0  0  0  0  0  0
    7.5910   -2.3200   -1.3790 C   0  0  0  0  0  0  0  0  0  0  0  0
    8.3850   -1.9630   -0.3140 C   0  0  0  0  0  0  0  0  0  0  0  0
    8.1360   -0.7860    0.3390 C   0  0  0  0  0  0  0  0  0  0  0  0
    7.0990    0.0350   -0.0660 C   0  0  0  0  0  0  0  0  0  0  0  0
    6.8980    1.2120    0.6340 O   0  0  0  0  0  0  0  0  0  0  0  0
  2  1  1  6
  2  3  1  0
  2 19  1  0
  3  4  1  0
  4  5  2  0
  4  6  1  0
  6  7  1  6
  6  8  1  0
  8  7  1  6
  8  9  1  0
  9 10  1  0
 10 11  1  0
 11 12  1  0
 12 13  2  0
 12 17  1  0
 13 14  1  0
 14 15  2  0
 15 16  1  0
 16 17  2  0
 17 18  1  0
 18 19  1  0
 19 20  1  1
 20 21  2  0
 20 22  1  0
 22 23  1  0
 24 23  1  6
 24 25  1  0
 24 29  1  0
 25 26  1  0
 26 27  1  0
 27 28  1  0
 28 29  1  0
 29 30  1  1
 30 31  1  0
 31 32  2  0
 31 33  1  0
 34 33  1  1
 34 35  1  0
 34 41  1  0
 35 36  2  0
 35 40  1  0
 36 37  1  0
 37 38  2  0
 38 39  1  0
 39 40  2  0
 41 42  2  0
 41 46  1  0
 42 43  1  0
 43 44  2  0
 44 45  1  0
 45 46  2  0
 46 47  1  0
M  CHG  1  29   1
M  END
