
     RDKit          3D

 48 53  0  0  0  0  0  0  0  0999 V2000
    6.1650    0.8490   -2.0760 C   0  0  0  0  0  0  0  0  0  0  0  0
    6.5750   -0.1350   -1.1580 O   0  0  0  0  0  0  0  0  0  0  0  0
    5.6920   -0.6770   -0.2000 C   0  0  0  0  0  0  0  0  0  0  0  0
    4.4180   -0.3020   -0.0680 C   0  0  0  0  0  0  0  0  0  0  0  0
    3.5480   -0.8950    0.9240 C   0  0  0  0  0  0  0  0  0  0  0  0
    2.3900   -0.3930    0.9180 O   0  0  0  0  0  0  0  0  0  0  0  0
    1.2300    0.1060    0.9100 C   0  0  0  0  0  0  0  0  0  0  0  0
    0.9990    1.0410   -0.1500 C   0  0  0  0  0  0  0  0  0  0  0  0
   -0.1710    1.6900   -0.3280 C   0  0  0  0  0  0  0  0  0  0  0  0
   -1.2180    1.4760    0.5200 C   0  0  0  0  0  0  0  0  0  0  0  0
   -2.5750    1.9920    0.3700 C   0  0  0  0  0  0  0  0  0  0  0  0
   -3.1100    2.1180   -0.8950 C   0  0  0  0  0  0  0  0  0  0  0  0
   -4.4770    2.2850   -1.0630 C   0  0  0  0  0  0  0  0  0  0  0  0
   -5.2850    2.3230    0.0830 C   0  0  0  0  0  0  0  0  0  0  0  0
   -6.7720    2.0340   -0.1380 C   0  0  0  0  0  0  0  0  0  0  0  0
   -7.3030    1.2960    0.8940 C   0  0  0  0  0  0  0  0  0  0  0  0
   -8.5260    0.6210    0.6600 C   0  0  0  0  0  0  0  0  0  0  0  0
   -9.1800    0.6980   -0.5360 C   0  0  0  0  0  0  0  0  0  0  0  0
  -10.1070   -0.3490   -0.9000 N   0  0  1  0  0  0  0  0  0  0  0  0
   -9.5080   -1.6020   -0.4360 C   0  0  0  0  0  0  0  0  0  0  0  0
  -10.1130   -2.0350    0.8430 C   0  0  0  0  0  0  0  0  0  0  0  0
  -11.3130   -1.1630    1.0350 C   0  0  0  0  0  0  0  0  0  0  0  0
  -11.3690   -0.3260   -0.2340 C   0  0  1  0  0  0  0  0  0  0  0  0
  -11.9390    1.0250    0.0350 C   0  0  0  0  0  0  0  0  0  0  0  0
  -12.3500   -1.0490   -1.1730 C   0  0  0  0  0  0  0  0  0  0  0  0
   -8.6340    1.4720   -1.5520 C   0  0  0  0  0  0  0  0  0  0  0  0
   -7.3840    2.1550   -1.3220 C   0  0  0  0  0  0  0  0  0  0  0  0
   -4.7540    2.2260    1.2940 C   0  0  0  0  0  0  0  0  0  0  0  0
   -3.3720    2.0480    1.5030 C   0  0  0  0  0  0  0  0  0  0  0  0
   -1.0390    0.5640    1.5660 C   0  0  0  0  0  0  0  0  0  0  0  0
    0.1500   -0.1030    1.7640 C   0  0  0  0  0  0  0  0  0  0  0  0
    4.1290   -1.8680    1.6920 C   0  0  0  0  0  0  0  0  0  0  0  0
    5.4630   -2.2620    1.5540 C   0  0  0  0  0  0  0  0  0  0  0  0
    6.2650   -1.6620    0.6120 C   0  0  0  0  0  0  0  0  0  0  0  0
    7.6700   -1.7450    0.5860 N   0  0  0  0  0  0  0  0  0  0  0  0
    8.5730   -2.7280    0.8030 C   0  0  0  0  0  0  0  0  0  0  0  0
    8.1830   -3.9090    1.0900 O   0  0  0  0  0  0  0  0  0  0  0  0
    9.9800   -2.4610    0.7370 N   0  0  0  0  0  0  0  0  0  0  0  0
   11.0050   -3.4490    0.7260 C   0  0  0  0  0  0  0  0  0  0  0  0
   12.1700   -2.9800   -0.1200 C   0  0  0  0  0  0  0  0  0  0  0  0
   12.9590   -3.8430   -0.5620 O   0  0  0  0  0  0  0  0  0  0  0  0
   12.3650   -1.6350   -0.3890 O   0  0  0  0  0  0  0  0  0  0  0  0
   11.2450   -0.7910   -0.4830 C   0  0  2  0  0  0  0  0  0  0  0  0
   11.6760    0.6400   -0.4950 C   0  0  0  0  0  0  0  0  0  0  0  0
   10.4980    1.5370   -0.6720 C   0  0  0  0  0  0  0  0  0  0  0  0
   10.6350    2.9970   -0.5860 C   0  0  0  0  0  0  0  0  0  0  0  0
    9.3780    1.0810   -0.9090 O   0  0  0  0  0  0  0  0  0  0  0  0
   10.4450   -1.0730    0.7630 C   0  0  0  0  0  0  0  0  0  0  0  0
  1  2  1  0
  2  3  1  0
  3  4  2  0
  3 34  1  0
  4  5  1  0
  5  6  1  0
  5 32  2  0
  6  7  1  0
  7  8  2  0
  7 31  1  0
  8  9  1  0
  9 10  2  0
 10 11  1  0
 10 30  1  0
 11 12  2  0
 11 29  1  0
 12 13  1  0
 13 14  2  0
 14 15  1  0
 14 28  1  0
 15 16  2  0
 15 27  1  0
 16 17  1  0
 17 18  2  0
 19 18  1  1
 18 26  1  0
 19 20  1  0
 19 23  1  0
 20 21  1  0
 21 22  1  0
 22 23  1  0
 23 24  1  1
 23 25  1  0
 26 27  2  0
 28 29  2  0
 30 31  2  0
 32 33  1  0
 33 34  2  0
 34 35  1  0
 35 36  1  0
 36 37  2  0
 36 38  1  0
 38 39  1  0
 38 48  1  0
 39 40  1  0
 40 41  2  0
 40 42  1  0
 42 43  1  0
 43 44  1  1
 43 48  1  0
 44 45  1  0
 45 46  1  0
 45 47  2  0
M  CHG  1  19   1
M  END
