
     RDKit          3D

 48 53  0  0  0  0  0  0  0  0999 V2000
   12.0910    0.9840   -0.2040 C   0  0  0  0  0  0  0  0  0  0  0  0
   10.8610    0.8370   -0.8690 O   0  0  0  0  0  0  0  0  0  0  0  0
   10.2030    2.0710   -0.9170 C   0  0  0  0  0  0  0  0  0  0  0  0
    8.8890    1.8680   -1.6390 C   0  0  0  0  0  0  0  0  0  0  0  0
    8.0830    0.8930   -0.9160 N   0  0  0  0  0  0  0  0  0  0  0  0
    7.2210    1.5190    0.0460 C   0  0  2  0  0  0  0  0  0  0  0  0
    7.7900    1.2700    1.4290 C   0  0  0  0  0  0  0  0  0  0  0  0
    6.7680    0.8220    2.4310 C   0  0  0  0  0  0  0  0  0  0  0  0
    6.0460   -0.4440    1.9970 C   0  0  0  0  0  0  0  0  0  0  0  0
    5.9390   -0.4820    0.4720 C   0  0  0  0  0  0  0  0  0  0  0  0
    5.8070    0.9730    0.0450 C   0  0  2  0  0  0  0  0  0  0  0  0
    5.1400    1.1210   -1.2430 C   0  0  0  0  0  0  0  0  0  0  0  0
    5.8100    1.6010   -2.2150 O   0  0  0  0  0  0  0  0  0  0  0  0
    3.7610    0.7570   -1.5140 C   0  0  0  0  0  0  0  0  0  0  0  0
    3.1970    0.8480   -2.7650 C   0  0  0  0  0  0  0  0  0  0  0  0
    1.8600    0.5110   -3.0090 C   0  0  0  0  0  0  0  0  0  0  0  0
    1.0730    0.0710   -1.9700 C   0  0  0  0  0  0  0  0  0  0  0  0
   -0.3420   -0.2920   -2.1850 C   0  0  0  0  0  0  0  0  0  0  0  0
   -0.8540   -0.2140   -3.3150 O   0  0  0  0  0  0  0  0  0  0  0  0
   -1.1410   -0.7280   -1.1440 O   0  0  0  0  0  0  0  0  0  0  0  0
   -2.4930   -1.0950   -1.2490 C   0  0  2  0  0  0  0  0  0  0  0  0
   -3.3860   -0.1350   -0.5390 C   0  0  0  0  0  0  0  0  0  0  0  0
   -2.8720    0.8130    0.0260 O   0  0  0  0  0  0  0  0  0  0  0  0
   -4.7680   -0.3740   -0.5600 N   0  0  0  0  0  0  0  0  0  0  0  0
   -5.7170    0.4710    0.0690 C   0  0  0  0  0  0  0  0  0  0  0  0
   -5.4070    1.6730    0.6250 C   0  0  0  0  0  0  0  0  0  0  0  0
   -6.3540    2.4880    1.1980 C   0  0  0  0  0  0  0  0  0  0  0  0
   -7.6850    2.0950    1.2260 C   0  0  0  0  0  0  0  0  0  0  0  0
   -8.0580    0.8920    0.6810 C   0  0  0  0  0  0  0  0  0  0  0  0
   -9.3930    0.4940    0.7100 C   0  0  0  0  0  0  0  0  0  0  0  0
   -9.7930   -0.7020    0.1760 C   0  0  0  0  0  0  0  0  0  0  0  0
   -8.8470   -1.4980   -0.3860 C   0  0  0  0  0  0  0  0  0  0  0  0
   -7.4990   -1.1100   -0.4220 C   0  0  0  0  0  0  0  0  0  0  0  0
   -7.0730    0.0840    0.1050 C   0  0  0  0  0  0  0  0  0  0  0  0
  -10.4270    1.3260    1.3090 C   0  0  0  0  0  0  0  0  0  0  0  0
  -11.6370    1.0080    1.3570 O   0  0  0  0  0  0  0  0  0  0  0  0
  -10.0150    2.5600    1.8610 N   0  0  0  0  0  0  0  0  0  0  0  0
  -11.0040    3.4330    2.4800 C   0  0  0  0  0  0  0  0  0  0  0  0
   -8.6580    3.0100    1.8470 C   0  0  0  0  0  0  0  0  0  0  0  0
   -2.7360   -2.5040   -0.8870 C   0  0  0  0  0  0  0  0  0  0  0  0
   -2.1530   -3.0710    0.2260 C   0  0  0  0  0  0  0  0  0  0  0  0
   -2.3820   -4.3980    0.5700 C   0  0  0  0  0  0  0  0  0  0  0  0
   -3.2060   -5.1970   -0.1940 C   0  0  0  0  0  0  0  0  0  0  0  0
   -3.4410   -6.6260    0.1990 C   0  0  0  0  0  0  0  0  0  0  0  0
   -3.7910   -4.6420   -1.3020 C   0  0  0  0  0  0  0  0  0  0  0  0
   -3.5540   -3.3300   -1.6290 C   0  0  0  0  0  0  0  0  0  0  0  0
    1.6190   -0.0240   -0.7250 C   0  0  0  0  0  0  0  0  0  0  0  0
    2.9600    0.3160   -0.4860 C   0  0  0  0  0  0  0  0  0  0  0  0
  1  2  1  0
  2  3  1  0
  3  4  1  0
  4  5  1  0
  6  5  1  6
  6  7  1  0
  6 11  1  0
  7  8  1  0
  8  9  1  0
  9 10  1  0
 10 11  1  0
 11 12  1  6
 12 13  2  0
 12 14  1  0
 14 15  2  0
 14 48  1  0
 15 16  1  0
 16 17  2  0
 17 18  1  0
 17 47  1  0
 18 19  2  0
 18 20  1  0
 21 20  1  1
 21 22  1  0
 21 40  1  0
 22 23  2  0
 22 24  1  0
 24 25  1  0
 25 26  2  0
 25 34  1  0
 26 27  1  0
 27 28  2  0
 28 29  1  0
 28 39  1  0
 29 30  2  0
 29 34  1  0
 30 31  1  0
 30 35  1  0
 31 32  2  0
 32 33  1  0
 33 34  2  0
 35 36  2  0
 35 37  1  0
 37 38  1  0
 37 39  1  0
 40 41  2  0
 40 46  1  0
 41 42  1  0
 42 43  2  0
 43 44  1  0
 43 45  1  0
 45 46  2  0
 47 48  2  0
M  CHG  1   5   1
M  END
