
     RDKit          3D

 47 51  0  0  0  0  0  0  0  0999 V2000
   -1.5910    3.4230    5.3210 C   0  0  0  0  0  0  0  0  0  0  0  0
   -1.7510    2.0750    5.0020 O   0  0  0  0  0  0  0  0  0  0  0  0
   -2.9380    1.6510    4.4150 C   0  0  0  0  0  0  0  0  0  0  0  0
   -3.8170    2.5170    4.2010 O   0  0  0  0  0  0  0  0  0  0  0  0
   -3.1330    0.2500    4.0710 C   0  0  0  0  0  0  0  0  0  0  0  0
   -2.5670   -0.1780    2.7270 C   0  0  0  0  0  0  0  0  0  0  0  0
   -3.1510    0.5240    1.5790 C   0  0  0  0  0  0  0  0  0  0  0  0
   -3.8970    1.4920    1.8700 O   0  0  0  0  0  0  0  0  0  0  0  0
   -2.9100    0.1460    0.1950 C   0  0  0  0  0  0  0  0  0  0  0  0
   -3.4510    0.8030   -0.8070 C   0  0  0  0  0  0  0  0  0  0  0  0
   -4.3090    1.9840   -0.5990 C   0  0  0  0  0  0  0  0  0  0  0  0
   -5.7510    1.7870   -0.9760 C   0  0  2  0  0  0  0  0  0  0  0  0
   -5.8790    1.4260   -2.4620 C   0  0  0  0  0  0  0  0  0  0  0  0
   -6.4640    3.1100   -0.8070 C   0  0  0  0  0  0  0  0  0  0  0  0
   -6.4790    0.7400   -0.2130 C   0  0  0  0  0  0  0  0  0  0  0  0
   -3.2240    0.3400   -2.0840 O   0  0  0  0  0  0  0  0  0  0  0  0
   -2.4810   -0.7860   -2.3620 C   0  0  0  0  0  0  0  0  0  0  0  0
   -2.3620   -1.1160   -3.8270 C   0  0  0  0  0  0  0  0  0  0  0  0
   -1.9340   -1.5070   -1.4240 C   0  0  0  0  0  0  0  0  0  0  0  0
   -1.1450   -2.7270   -1.6840 C   0  0  0  0  0  0  0  0  0  0  0  0
   -0.6450   -3.1850   -2.7540 N   0  0  0  0  0  0  0  0  0  0  0  0
    0.0680   -4.4410   -2.6010 C   0  0  0  0  0  0  0  0  0  0  0  0
   -0.2910   -4.8690   -1.2600 C   0  0  0  0  0  0  0  0  0  0  0  0
   -0.1690   -5.9070   -0.4220 N   0  0  0  0  0  0  0  0  0  0  0  0
   -0.7300   -5.5380    0.6890 N   0  0  0  0  0  0  0  0  0  0  0  0
   -1.2230   -4.2680    0.5970 C   0  0  0  0  0  0  0  0  0  0  0  0
   -0.9500   -3.8070   -0.6690 C   0  0  0  0  0  0  0  0  0  0  0  0
   -1.8490   -0.8990   -0.0360 C   0  0  1  0  0  0  0  0  0  0  0  0
   -0.5140   -0.2800    0.0970 C   0  0  0  0  0  0  0  0  0  0  0  0
    0.4340   -0.6610    0.8980 C   0  0  0  0  0  0  0  0  0  0  0  0
    0.4180   -1.7460    1.8270 C   0  0  0  0  0  0  0  0  0  0  0  0
    1.7570    0.1390    0.8320 C   0  0  0  0  0  0  0  0  0  0  0  0
    2.1170    0.1630   -0.6360 C   0  0  2  0  0  0  0  0  0  0  0  0
    3.5060    0.6950   -0.8230 C   0  0  0  0  0  0  0  0  0  0  0  0
    3.6950    1.7210   -1.4960 O   0  0  0  0  0  0  0  0  0  0  0  0
    4.5780    0.0100   -0.2220 N   0  0  0  0  0  0  0  0  0  0  0  0
    5.9160    0.3960   -0.3200 C   0  0  0  0  0  0  0  0  0  0  0  0
    6.4400    1.4050   -1.0740 C   0  0  0  0  0  0  0  0  0  0  0  0
    7.8100    1.7040   -1.0820 C   0  0  0  0  0  0  0  0  0  0  0  0
    8.3210    2.8120   -1.9210 C   0  0  0  0  0  0  0  0  0  0  0  0
    8.6780    0.9790   -0.3210 C   0  0  0  0  0  0  0  0  0  0  0  0
    8.1860   -0.0400    0.4460 C   0  0  0  0  0  0  0  0  0  0  0  0
    9.1070   -0.8450    1.2840 C   0  0  0  0  0  0  0  0  0  0  0  0
    6.8420   -0.3260    0.4500 C   0  0  0  0  0  0  0  0  0  0  0  0
    1.1710    1.0690   -1.3570 C   0  0  0  0  0  0  0  0  0  0  0  0
   -0.1880    0.9140   -0.7160 C   0  0  0  0  0  0  0  0  0  0  0  0
   -0.9800    1.8300   -0.9110 O   0  0  0  0  0  0  0  0  0  0  0  0
  1  2  1  0
  2  3  1  0
  3  4  2  0
  3  5  1  0
  5  6  1  0
  6  7  1  0
  7  8  2  0
  7  9  1  0
  9 10  2  0
  9 28  1  0
 10 11  1  0
 10 16  1  0
 11 12  1  0
 12 13  1  6
 12 14  1  0
 12 15  1  0
 16 17  1  0
 17 18  1  0
 17 19  2  0
 19 20  1  0
 19 28  1  0
 20 21  2  0
 20 27  1  0
 21 22  1  0
 22 23  1  0
 23 24  1  0
 23 27  2  0
 24 25  1  0
 25 26  2  0
 26 27  1  0
 28 29  1  6
 29 30  2  0
 29 46  1  0
 30 31  1  0
 30 32  1  0
 32 33  1  0
 33 34  1  1
 33 45  1  0
 34 35  2  0
 34 36  1  0
 36 37  1  0
 37 38  2  0
 37 44  1  0
 38 39  1  0
 39 40  1  0
 39 41  2  0
 41 42  1  0
 42 43  1  0
 42 44  2  0
 45 46  1  0
 46 47  2  0
M  CHG  1  21   1
M  END
