
     RDKit          3D

 47 51  0  0  0  0  0  0  0  0999 V2000
    9.2900   -3.6070   -1.0900 C   0  0  0  0  0  0  0  0  0  0  0  0
    9.1120   -2.2080   -1.0300 O   0  0  0  0  0  0  0  0  0  0  0  0
   10.1380   -1.3200   -0.7740 C   0  0  0  0  0  0  0  0  0  0  0  0
   11.4390   -1.7160   -0.5520 C   0  0  0  0  0  0  0  0  0  0  0  0
   12.4340   -0.7920   -0.3010 C   0  0  0  0  0  0  0  0  0  0  0  0
   12.1450    0.5650   -0.2640 C   0  0  0  0  0  0  0  0  0  0  0  0
   10.8420    0.9410   -0.4870 C   0  0  0  0  0  0  0  0  0  0  0  0
    9.8400    0.0250   -0.7400 C   0  0  0  0  0  0  0  0  0  0  0  0
    8.4870    0.5350   -0.9540 C   0  0  0  0  0  0  0  0  0  0  0  0
    7.6650    0.0730   -1.9510 C   0  0  0  0  0  0  0  0  0  0  0  0
    6.3860    0.5670   -2.1450 C   0  0  0  0  0  0  0  0  0  0  0  0
    5.8990    1.5570   -1.3230 C   0  0  0  0  0  0  0  0  0  0  0  0
    6.6850    2.0420   -0.3230 C   0  0  0  0  0  0  0  0  0  0  0  0
    6.2310    3.0930    0.5960 C   0  0  0  0  0  0  0  0  0  0  0  0
    5.6520    2.6430    1.8860 C   0  0  2  0  0  0  0  0  0  0  0  0
    6.6560    1.8110    2.6950 C   0  0  0  0  0  0  0  0  0  0  0  0
    4.3880    2.0190    1.8970 N   0  0  1  0  0  0  0  0  0  0  0  0
    3.3590    2.5820    1.0960 C   0  0  0  0  0  0  0  0  0  0  0  0
    2.4170    1.4840    0.6730 C   0  0  0  0  0  0  0  0  0  0  0  0
    2.9800    0.2230    1.2890 C   0  0  1  0  0  0  0  0  0  0  0  0
    2.9240   -0.9190    0.2990 C   0  0  0  0  0  0  0  0  0  0  0  0
    1.5560   -1.1820   -0.1180 N   0  0  0  0  0  0  0  0  0  0  0  0
    0.5180   -1.5570    0.7740 C   0  0  0  0  0  0  0  0  0  0  0  0
    0.7410   -1.6850    1.9900 O   0  0  0  0  0  0  0  0  0  0  0  0
   -0.8360   -1.7930    0.2510 C   0  0  0  0  0  0  0  0  0  0  0  0
   -1.9350   -2.1380    0.9990 C   0  0  0  0  0  0  0  0  0  0  0  0
   -3.0110   -2.2660    0.1370 C   0  0  0  0  0  0  0  0  0  0  0  0
   -2.5090   -1.9890   -1.1130 C   0  0  0  0  0  0  0  0  0  0  0  0
   -3.2120   -1.9740   -2.4220 C   0  0  0  0  0  0  0  0  0  0  0  0
   -3.4870   -0.6890   -2.7930 O   0  0  0  0  0  0  0  0  0  0  0  0
   -4.2890    0.0450   -1.9690 C   0  0  0  0  0  0  0  0  0  0  0  0
   -5.6620   -0.5100   -1.8110 C   0  0  0  0  0  0  0  0  0  0  0  0
   -6.0740   -1.5540   -2.3740 O   0  0  0  0  0  0  0  0  0  0  0  0
   -6.5800    0.2000   -0.9570 N   0  0  0  0  0  0  0  0  0  0  0  0
   -7.9320   -0.2790   -0.7620 C   0  0  1  0  0  0  0  0  0  0  0  0
   -8.0400   -0.7380    0.6710 C   0  0  0  0  0  0  0  0  0  0  0  0
   -9.5030   -1.0940    0.8920 C   0  0  2  0  0  0  0  0  0  0  0  0
   -9.7140   -1.7700    2.2310 C   0  0  0  0  0  0  0  0  0  0  0  0
  -10.0410   -1.9960   -0.1800 C   0  0  0  0  0  0  0  0  0  0  0  0
  -10.2420    0.2090    0.9210 C   0  0  0  0  0  0  0  0  0  0  0  0
  -10.0210    1.0820   -0.2470 C   0  0  1  0  0  0  0  0  0  0  0  0
  -11.3540    1.2220   -0.9980 C   0  0  0  0  0  0  0  0  0  0  0  0
   -9.7230    2.4900    0.2940 C   0  0  0  0  0  0  0  0  0  0  0  0
   -8.9350    0.7260   -1.1810 C   0  0  0  0  0  0  0  0  0  0  0  0
   -1.2180   -1.7160   -0.9880 O   0  0  0  0  0  0  0  0  0  0  0  0
    4.3670    0.5850    1.7230 C   0  0  0  0  0  0  0  0  0  0  0  0
    7.9780    1.5260   -0.1440 C   0  0  0  0  0  0  0  0  0  0  0  0
  1  2  1  0
  2  3  1  0
  3  4  2  0
  3  8  1  0
  4  5  1  0
  5  6  2  0
  6  7  1  0
  7  8  2  0
  8  9  1  0
  9 10  2  0
  9 47  1  0
 10 11  1  0
 11 12  2  0
 12 13  1  0
 13 14  1  0
 13 47  2  0
 14 15  1  0
 15 16  1  6
 15 17  1  0
 17 18  1  6
 17 46  1  0
 18 19  1  0
 19 20  1  0
 20 21  1  6
 20 46  1  0
 21 22  1  0
 22 23  1  0
 23 24  2  0
 23 25  1  0
 25 26  2  0
 25 45  1  0
 26 27  1  0
 27 28  2  0
 28 29  1  0
 28 45  1  0
 29 30  1  0
 30 31  1  0
 31 32  1  0
 32 33  2  0
 32 34  1  0
 35 34  1  1
 35 36  1  0
 35 44  1  0
 36 37  1  0
 37 38  1  1
 37 39  1  0
 37 40  1  0
 40 41  1  0
 41 42  1  6
 41 43  1  0
 41 44  1  0
M  CHG  1  17   1
M  END
