
     RDKit          3D

 47 52  0  0  0  0  0  0  0  0999 V2000
   -6.0440    5.7250    1.5710 C   0  0  0  0  0  0  0  0  0  0  0  0
   -5.0510    5.1740    0.6130 C   0  0  0  0  0  0  0  0  0  0  0  0
   -4.8380    5.8570   -0.5600 C   0  0  0  0  0  0  0  0  0  0  0  0
   -3.9200    5.3510   -1.4520 C   0  0  0  0  0  0  0  0  0  0  0  0
   -3.2280    4.1910   -1.1850 C   0  0  0  0  0  0  0  0  0  0  0  0
   -3.4220    3.4950   -0.0280 C   0  0  0  0  0  0  0  0  0  0  0  0
   -2.6830    2.2140    0.3050 C   0  0  1  0  0  0  0  0  0  0  0  0
   -1.9520    2.4160    1.5850 C   0  0  0  0  0  0  0  0  0  0  0  0
   -0.5280    2.7830    1.3840 C   0  0  0  0  0  0  0  0  0  0  0  0
   -0.3460    3.9140    0.8070 O   0  0  0  0  0  0  0  0  0  0  0  0
    0.4770    2.0080    1.7700 O   0  0  0  0  0  0  0  0  0  0  0  0
    1.0790    0.8440    1.2960 C   0  0  0  0  0  0  0  0  0  0  0  0
    0.7420    0.4660   -0.0830 C   0  0  0  0  0  0  0  0  0  0  0  0
    0.6140    1.4880   -0.8740 O   0  0  0  0  0  0  0  0  0  0  0  0
    0.5430   -0.7780   -0.6620 N   0  0  0  0  0  0  0  0  0  0  0  0
    1.1240   -0.8890   -2.0370 C   0  0  0  0  0  0  0  0  0  0  0  0
    2.5270   -1.3410   -1.9280 C   0  0  0  0  0  0  0  0  0  0  0  0
    2.8830   -2.6620   -2.0030 C   0  0  0  0  0  0  0  0  0  0  0  0
    4.2110   -3.0630   -1.8910 C   0  0  0  0  0  0  0  0  0  0  0  0
    5.1910   -2.1390   -1.7050 C   0  0  0  0  0  0  0  0  0  0  0  0
    4.8830   -0.7790   -1.6230 C   0  0  0  0  0  0  0  0  0  0  0  0
    5.9620    0.1060   -1.4140 N   0  0  0  0  0  0  0  0  0  0  0  0
    5.9220    1.5140   -1.4500 C   0  0  0  0  0  0  0  0  0  0  0  0
    4.8540    2.1030   -1.6930 O   0  0  0  0  0  0  0  0  0  0  0  0
    7.1290    2.2920   -1.2020 N   0  0  0  0  0  0  0  0  0  0  0  0
    7.0370    3.7550   -1.2500 C   0  0  2  0  0  0  0  0  0  0  0  0
    8.2700    4.4570   -1.6670 C   0  0  0  0  0  0  0  0  0  0  0  0
    7.7830    4.5300   -0.2070 C   0  0  0  0  0  0  0  0  0  0  0  0
    3.5640   -0.4150   -1.7360 C   0  0  0  0  0  0  0  0  0  0  0  0
   -0.1030   -1.9570   -0.1580 C   0  0  0  0  0  0  0  0  0  0  0  0
   -1.5120   -1.8440    0.2860 C   0  0  2  0  0  0  0  0  0  0  0  0
   -1.4520   -1.5590    1.8040 C   0  0  0  0  0  0  0  0  0  0  0  0
   -2.3490   -3.0890    0.1680 C   0  0  0  0  0  0  0  0  0  0  0  0
   -1.9720   -4.2600    0.9410 C   0  0  0  0  0  0  0  0  0  0  0  0
   -2.6920   -4.5310    2.0860 C   0  0  0  0  0  0  0  0  0  0  0  0
   -2.4190   -5.5960    2.8860 C   0  0  0  0  0  0  0  0  0  0  0  0
   -1.3880   -6.4330    2.5400 C   0  0  0  0  0  0  0  0  0  0  0  0
   -0.6250   -6.2310    1.4130 C   0  0  0  0  0  0  0  0  0  0  0  0
   -0.9450   -5.1200    0.6190 C   0  0  0  0  0  0  0  0  0  0  0  0
   -0.0370   -5.1420   -0.4520 O   0  0  0  0  0  0  0  0  0  0  0  0
    0.5940   -6.3740   -0.5800 C   0  0  0  0  0  0  0  0  0  0  0  0
    0.5270   -6.9650    0.8130 C   0  0  0  0  0  0  0  0  0  0  0  0
   -2.2950   -0.7310   -0.3490 C   0  0  0  0  0  0  0  0  0  0  0  0
   -3.2890   -0.1950    0.5110 N   0  0  0  0  0  0  0  0  0  0  0  0
   -3.7030    1.1450    0.2670 C   0  0  2  0  0  0  0  0  0  0  0  0
   -4.4380    1.2500   -1.0610 C   0  0  0  0  0  0  0  0  0  0  0  0
   -4.3490    4.0130    0.8630 C   0  0  0  0  0  0  0  0  0  0  0  0
  1  2  1  0
  2  3  2  0
  2 47  1  0
  3  4  1  0
  4  5  2  0
  5  6  1  0
  7  6  1  1
  6 47  2  0
  7  8  1  0
  7 45  1  0
  8  9  1  0
  9 10  2  0
  9 11  1  0
 11 12  1  0
 12 13  1  0
 13 14  2  0
 13 15  1  0
 15 16  1  0
 15 30  1  0
 16 17  1  0
 17 18  2  0
 17 29  1  0
 18 19  1  0
 19 20  2  0
 20 21  1  0
 21 22  1  0
 21 29  2  0
 22 23  1  0
 23 24  2  0
 23 25  1  0
 26 25  1  1
 26 27  1  0
 26 28  1  0
 27 28  1  0
 30 31  1  0
 31 32  1  1
 31 33  1  0
 31 43  1  0
 33 34  1  0
 34 35  2  0
 34 39  1  0
 35 36  1  0
 36 37  2  0
 37 38  1  0
 38 39  2  0
 38 42  1  0
 39 40  1  0
 40 41  1  0
 41 42  1  0
 43 44  1  0
 44 45  1  0
 45 46  1  6
M  CHG  1  44   1
M  END
