
     RDKit          3D

 40 44  0  0  0  0  0  0  0  0999 V2000
   -3.1250    1.3560   -3.4620 C   0  0  0  0  0  0  0  0  0  0  0  0
   -3.5590    2.4080   -2.5240 C   0  0  0  0  0  0  0  0  0  0  0  0
   -3.5190    3.7170   -2.9490 C   0  0  0  0  0  0  0  0  0  0  0  0
   -3.9080    4.7760   -2.1400 C   0  0  0  0  0  0  0  0  0  0  0  0
   -4.3470    4.4800   -0.8660 C   0  0  0  0  0  0  0  0  0  0  0  0
   -4.8450    5.7870    0.1860 Cl  0  0  0  0  0  0  0  0  0  0  0  0
   -4.4000    3.1600   -0.4020 C   0  0  0  0  0  0  0  0  0  0  0  0
   -4.9660    2.8360    1.2310 Cl  0  0  0  0  0  0  0  0  0  0  0  0
   -4.0030    2.1400   -1.2430 C   0  0  0  0  0  0  0  0  0  0  0  0
   -4.0340    0.7880   -0.8150 N   0  0  0  0  0  0  0  0  0  0  0  0
   -2.9750    0.1380   -0.1180 C   0  0  0  0  0  0  0  0  0  0  0  0
   -1.9680    0.8360    0.1230 O   0  0  0  0  0  0  0  0  0  0  0  0
   -3.0410   -1.2100    0.2860 N   0  0  0  0  0  0  0  0  0  0  0  0
   -2.0220   -1.8840    0.9860 C   0  0  0  0  0  0  0  0  0  0  0  0
   -0.6590   -1.9320    0.2690 C   0  0  0  0  0  0  0  0  0  0  0  0
    0.2050   -2.7120    1.1950 C   0  0  0  0  0  0  0  0  0  0  0  0
    0.7500   -2.1490    2.3270 C   0  0  0  0  0  0  0  0  0  0  0  0
    0.5610   -0.8090    2.5820 O   0  0  0  0  0  0  0  0  0  0  0  0
    1.1100    0.2220    1.8340 C   0  0  0  0  0  0  0  0  0  0  0  0
    2.2070   -0.0530    1.0050 C   0  0  0  0  0  0  0  0  0  0  0  0
    2.7700    0.9630    0.2490 C   0  0  0  0  0  0  0  0  0  0  0  0
    2.2890    2.2490    0.2790 C   0  0  0  0  0  0  0  0  0  0  0  0
    2.8830    3.3290   -0.5000 C   0  0  0  0  0  0  0  0  0  0  0  0
    2.1300    4.3140   -0.7520 O   0  0  0  0  0  0  0  0  0  0  0  0
    4.2570    3.2800   -0.9590 C   0  0  0  0  0  0  0  0  0  0  0  0
    4.9250    3.8640   -1.9920 C   0  0  0  0  0  0  0  0  0  0  0  0
    6.2200    3.6520   -2.1650 C   0  0  0  0  0  0  0  0  0  0  0  0
    6.9340    2.8400   -1.3150 C   0  0  0  0  0  0  0  0  0  0  0  0
    5.5670    2.3410   -0.1490 S   0  0  0  0  0  0  0  0  0  0  0  0
    1.2140    2.4870    1.1000 C   0  0  0  0  0  0  0  0  0  0  0  0
    0.6250    1.5070    1.8680 C   0  0  0  0  0  0  0  0  0  0  0  0
    1.5030   -2.8790    3.2610 C   0  0  0  0  0  0  0  0  0  0  0  0
    1.6960   -4.2140    3.0140 C   0  0  0  0  0  0  0  0  0  0  0  0
    1.1730   -4.8150    1.8960 C   0  0  0  0  0  0  0  0  0  0  0  0
    0.4260   -4.0730    0.9800 C   0  0  0  0  0  0  0  0  0  0  0  0
   -0.1070   -4.6960   -0.1750 N   0  0  0  0  0  0  0  0  0  0  0  0
    0.1400   -6.0990   -0.3780 C   0  0  0  0  0  0  0  0  0  0  0  0
    0.0460   -6.5730   -1.5200 O   0  0  0  0  0  0  0  0  0  0  0  0
    0.4970   -6.9020    0.8180 C   0  0  0  0  0  0  0  0  0  0  0  0
    1.3750   -6.1580    1.6590 O   0  0  0  0  0  0  0  0  0  0  0  0
  1  2  1  0
  2  3  2  0
  2  9  1  0
  3  4  1  0
  4  5  2  0
  5  6  1  0
  5  7  1  0
  7  8  1  0
  7  9  2  0
  9 10  1  0
 10 11  1  0
 11 12  2  0
 11 13  1  0
 13 14  1  0
 14 15  1  0
 15 16  1  0
 16 17  1  0
 16 35  2  0
 17 18  1  0
 17 32  2  0
 18 19  1  0
 19 20  2  0
 19 31  1  0
 20 21  1  0
 21 22  2  0
 22 23  1  0
 22 30  1  0
 23 24  2  0
 23 25  1  0
 25 26  2  0
 25 29  1  0
 26 27  1  0
 27 28  2  0
 28 29  1  0
 30 31  2  0
 32 33  1  0
 33 34  2  0
 34 35  1  0
 34 40  1  0
 35 36  1  0
 36 37  1  0
 37 38  2  0
 37 39  1  0
 39 40  1  0
M  END
