
     RDKit          3D

 10 10  0  0  0  0  0  0  0  0999 V2000
    3.5380    0.1540    0.2810 C   0  0  0  0  0  0  0  0  0  0  0  0
    2.2540    0.6520   -0.3220 C   0  0  0  0  0  0  0  0  0  0  0  0
    1.1070    0.0860    0.0210 C   0  0  0  0  0  0  0  0  0  0  0  0
   -0.2240    0.4290   -0.4530 C   0  0  0  0  0  0  0  0  0  0  0  0
   -1.1120   -0.3610    0.1200 C   0  0  0  0  0  0  0  0  0  0  0  0
   -2.5950   -0.3750   -0.0630 C   0  0  0  0  0  0  0  0  0  0  0  0
   -3.0080    0.6410   -1.0050 N   0  0  0  0  0  0  0  0  0  0  0  0
   -0.4250   -1.2860    1.0170 C   0  0  0  0  0  0  0  0  0  0  0  0
   -0.8920   -2.1890    1.7440 O   0  0  0  0  0  0  0  0  0  0  0  0
    0.9190   -0.9690    0.9180 O   0  0  0  0  0  0  0  0  0  0  0  0
  1  2  1  0
  2  3  2  3
  3  4  1  0
  3 10  1  0
  4  5  2  0
  5  6  1  0
  5  8  1  0
  6  7  1  0
  8  9  2  0
  8 10  1  0
M  END
