
     RDKit          3D

  9  9  0  0  0  0  0  0  0  0999 V2000
    0.9000    2.0180   -0.2700 C   0  0  0  0  0  0  0  0  0  0  0  0
   -0.0560    0.9150   -0.0150 C   0  0  0  0  0  0  0  0  0  0  0  0
    0.2580   -0.3420   -0.2040 C   0  0  0  0  0  0  0  0  0  0  0  0
    1.6280   -0.6810   -0.6960 C   0  0  0  0  0  0  0  0  0  0  0  0
    2.2570   -1.5150    0.2820 N   0  0  0  0  0  0  0  0  0  0  0  0
   -0.6490   -1.3500    0.0400 O   0  0  0  0  0  0  0  0  0  0  0  0
   -1.9630   -1.1430    0.4650 C   0  0  0  0  0  0  0  0  0  0  0  0
   -2.4170    0.2920    0.3050 C   0  0  0  0  0  0  0  0  0  0  0  0
   -1.3340    1.2000    0.4420 O   0  0  0  0  0  0  0  0  0  0  0  0
  1  2  1  0
  2  3  2  0
  2  9  1  0
  3  4  1  0
  3  6  1  0
  4  5  1  0
  6  7  1  0
  7  8  1  0
  8  9  1  0
M  END
