
     RDKit          3D

 37 41  0  0  0  0  0  0  0  0999 V2000
   -6.1910    0.9540   -3.2700 C   0  0  0  0  0  0  0  0  0  0  0  0
   -6.0810    0.2450   -2.1330 C   0  0  0  0  0  0  0  0  0  0  0  0
   -7.1240   -0.7450   -1.8330 C   0  0  0  0  0  0  0  0  0  0  0  0
   -6.8750   -1.4070   -0.5480 C   0  0  0  0  0  0  0  0  0  0  0  0
   -5.8560   -1.1200    0.1600 N   0  0  0  0  0  0  0  0  0  0  0  0
   -4.8500   -0.1760   -0.1430 C   0  0  0  0  0  0  0  0  0  0  0  0
   -4.9370    0.5090   -1.2690 C   0  0  0  0  0  0  0  0  0  0  0  0
   -3.9520    1.5170   -1.7080 C   0  0  0  0  0  0  0  0  0  0  0  0
   -2.6790    1.5610   -0.9180 C   0  0  0  0  0  0  0  0  0  0  0  0
   -2.5480    0.5270    0.0810 N   0  0  0  0  0  0  0  0  0  0  0  0
   -1.2720   -0.0190    0.3220 C   0  0  0  0  0  0  0  0  0  0  0  0
   -0.2910    0.4070   -0.3760 O   0  0  0  0  0  0  0  0  0  0  0  0
   -0.9700   -1.0630    1.3320 C   0  0  0  0  0  0  0  0  0  0  0  0
   -0.5270   -2.2770    0.5990 C   0  0  0  0  0  0  0  0  0  0  0  0
   -1.4050   -3.3290    0.4240 C   0  0  0  0  0  0  0  0  0  0  0  0
   -1.0220   -4.4530   -0.2540 C   0  0  0  0  0  0  0  0  0  0  0  0
    0.2510   -4.5510   -0.7740 C   0  0  0  0  0  0  0  0  0  0  0  0
    1.1380   -3.4800   -0.5940 C   0  0  0  0  0  0  0  0  0  0  0  0
    0.7330   -2.3540    0.0940 C   0  0  0  0  0  0  0  0  0  0  0  0
    1.6510   -1.3260    0.2480 O   0  0  0  0  0  0  0  0  0  0  0  0
    2.9260   -1.4580   -0.2820 C   0  0  0  0  0  0  0  0  0  0  0  0
    3.9960   -0.8630    0.2150 C   0  0  0  0  0  0  0  0  0  0  0  0
    3.9430    0.0200    1.4040 C   0  0  0  0  0  0  0  0  0  0  0  0
    4.4000    1.3450    1.1030 N   0  0  0  0  0  0  0  0  0  0  0  0
    5.7300    1.5210    0.5750 C   0  0  0  0  0  0  0  0  0  0  0  0
    6.0350    1.3000   -0.7490 C   0  0  0  0  0  0  0  0  0  0  0  0
    7.3270    1.4580   -1.2330 C   0  0  0  0  0  0  0  0  0  0  0  0
    8.3490    1.8440   -0.3970 C   0  0  0  0  0  0  0  0  0  0  0  0
    9.6930    2.0170   -0.8600 N   0  0  0  0  0  0  0  0  0  0  0  0
    8.0430    2.0660    0.9260 C   0  0  0  0  0  0  0  0  0  0  0  0
    6.7670    1.9130    1.4190 C   0  0  0  0  0  0  0  0  0  0  0  0
    3.0430   -2.3320   -1.4760 C   0  0  0  0  0  0  0  0  0  0  0  0
    2.4240   -3.5780   -1.1190 O   0  0  0  0  0  0  0  0  0  0  0  0
   -3.6870    0.0530    0.8020 C   0  0  1  0  0  0  0  0  0  0  0  0
   -4.1460    0.9560    1.9090 C   0  0  1  0  0  0  0  0  0  0  0  0
   -3.0610    1.2510    2.9070 C   0  0  0  0  0  0  0  0  0  0  0  0
   -4.7920    2.2180    1.4760 C   0  0  0  0  0  0  0  0  0  0  0  0
  1  2  2  0
  2  3  1  0
  2  7  1  0
  3  4  1  0
  4  5  2  0
  5  6  1  0
  6  7  2  0
  6 34  1  0
  7  8  1  0
  8  9  1  0
  9 10  1  0
 10 11  1  0
 34 10  1  6
 11 12  2  0
 11 13  1  0
 13 14  1  0
 14 15  2  0
 14 19  1  0
 15 16  1  0
 16 17  2  0
 17 18  1  0
 18 19  2  0
 18 33  1  0
 19 20  1  0
 20 21  1  0
 21 22  2  3
 21 32  1  0
 22 23  1  0
 23 24  1  0
 24 25  1  0
 25 26  2  0
 25 31  1  0
 26 27  1  0
 27 28  2  0
 28 29  1  0
 28 30  1  0
 30 31  2  0
 32 33  1  0
 34 35  1  0
 35 36  1  6
 35 37  1  0
M  CHG  1  29   1
M  END
