
     RDKit          3D

 37 41  0  0  0  0  0  0  0  0999 V2000
    1.7580   -2.2920    2.6460 C   0  0  0  0  0  0  0  0  0  0  0  0
    1.3480   -1.6670    1.4740 O   0  0  0  0  0  0  0  0  0  0  0  0
    2.1200   -0.9120    0.6160 C   0  0  0  0  0  0  0  0  0  0  0  0
    3.4420   -0.6530    0.7880 C   0  0  0  0  0  0  0  0  0  0  0  0
    4.2190    0.1160   -0.0900 C   0  0  0  0  0  0  0  0  0  0  0  0
    5.5800    0.3120    0.2450 N   0  0  0  0  0  0  0  0  0  0  0  0
    6.6100    0.7530   -0.5990 C   0  0  0  0  0  0  0  0  0  0  0  0
    6.2590    0.9930   -1.8130 O   0  0  0  0  0  0  0  0  0  0  0  0
    8.0010    0.9560   -0.2230 C   0  0  0  0  0  0  0  0  0  0  0  0
    8.8560    1.3800   -1.1670 C   0  0  0  0  0  0  0  0  0  0  0  0
   10.2380    1.6110   -0.9100 N   0  0  0  0  0  0  0  0  0  0  0  0
   10.9020    1.1250    0.2680 C   0  0  0  0  0  0  0  0  0  0  0  0
    9.9740    0.9830    1.3670 N   0  0  0  0  0  0  0  0  0  0  0  0
    8.5770    0.7520    1.0800 C   0  0  0  0  0  0  0  0  0  0  0  0
    7.8980    0.3650    2.0320 O   0  0  0  0  0  0  0  0  0  0  0  0
    3.5780    0.6210   -1.1770 C   0  0  0  0  0  0  0  0  0  0  0  0
    2.2120    0.3720   -1.3860 C   0  0  0  0  0  0  0  0  0  0  0  0
    1.4730   -0.3860   -0.5080 C   0  0  0  0  0  0  0  0  0  0  0  0
    0.1440   -0.6410   -0.6880 O   0  0  0  0  0  0  0  0  0  0  0  0
   -0.6820   -0.2070   -1.7320 C   0  0  1  0  0  0  0  0  0  0  0  0
   -1.3130   -1.3910   -2.4310 C   0  0  0  0  0  0  0  0  0  0  0  0
   -1.8900   -2.2920   -1.3780 C   0  0  0  0  0  0  0  0  0  0  0  0
   -2.9930   -1.5240   -0.7190 C   0  0  0  0  0  0  0  0  0  0  0  0
   -4.0260   -2.2460   -0.2780 N   0  0  0  0  0  0  0  0  0  0  0  0
   -5.0630   -1.6040    0.3280 C   0  0  0  0  0  0  0  0  0  0  0  0
   -6.0240   -2.2880    0.7390 O   0  0  0  0  0  0  0  0  0  0  0  0
   -5.0660   -0.2390    0.4920 C   0  0  0  0  0  0  0  0  0  0  0  0
   -6.2310    0.4440    1.1390 C   0  0  0  0  0  0  0  0  0  0  0  0
   -7.3350    0.6810    0.1600 C   0  0  2  0  0  0  0  0  0  0  0  0
   -8.5470    1.4070    0.7420 C   0  0  0  0  0  0  0  0  0  0  0  0
   -9.4720    0.5340   -0.1120 C   0  0  0  0  0  0  0  0  0  0  0  0
   -8.3060   -0.4900   -0.0610 C   0  0  0  0  0  0  0  0  0  0  0  0
   -4.0010    0.5260    0.0380 C   0  0  0  0  0  0  0  0  0  0  0  0
   -3.9360    2.0020    0.1610 C   0  0  0  0  0  0  0  0  0  0  0  0
   -2.9480   -0.1570   -0.5800 C   0  0  0  0  0  0  0  0  0  0  0  0
   -1.7920    0.5690   -1.0800 C   0  0  0  0  0  0  0  0  0  0  0  0
   -1.6850    1.8370   -0.9870 O   0  0  0  0  0  0  0  0  0  0  0  0
  1  2  1  0
  2  3  1  0
  3  4  2  0
  3 18  1  0
  4  5  1  0
  5  6  1  0
  5 16  2  0
  6  7  1  0
  7  8  2  0
  7  9  1  0
  9 10  2  0
  9 14  1  0
 10 11  1  0
 11 12  1  0
 12 13  1  0
 13 14  1  0
 14 15  2  0
 16 17  1  0
 17 18  2  0
 18 19  1  0
 20 19  1  1
 20 21  1  0
 20 36  1  0
 21 22  1  0
 22 23  1  0
 23 24  1  0
 23 35  2  0
 24 25  1  0
 25 26  2  0
 25 27  1  0
 27 28  1  0
 27 33  2  0
 29 28  1  1
 29 30  1  0
 29 32  1  0
 30 31  1  0
 31 32  1  0
 33 34  1  0
 33 35  1  0
 35 36  1  0
 36 37  2  0
M  END
