
     RDKit          3D

 36 40  0  0  0  0  0  0  0  0999 V2000
    4.2620   -0.7930    1.9850 O   0  0  0  0  0  0  0  0  0  0  0  0
    4.5880   -0.2960    0.8560 C   0  0  0  0  0  0  0  0  0  0  0  0
    4.2990    1.1520    0.6720 C   0  0  2  0  0  0  0  0  0  0  0  0
    5.5620    1.9700    0.6360 C   0  0  0  0  0  0  0  0  0  0  0  0
    5.3410    3.0420    1.6640 C   0  0  0  0  0  0  0  0  0  0  0  0
    4.4590    2.3690    2.6890 C   0  0  0  0  0  0  0  0  0  0  0  0
    3.5500    1.6510    1.8080 N   0  0  0  0  0  0  0  0  0  0  0  0
    2.1760    1.4690    2.0190 C   0  0  0  0  0  0  0  0  0  0  0  0
    1.6480    1.9620    3.0770 O   0  0  0  0  0  0  0  0  0  0  0  0
    1.3770    0.7250    1.0330 C   0  0  0  0  0  0  0  0  0  0  0  0
   -0.0920    0.6180    1.4640 C   0  0  0  0  0  0  0  0  0  0  0  0
   -0.7840   -0.1580    0.3800 C   0  0  0  0  0  0  0  0  0  0  0  0
   -2.1900   -0.3620    0.6160 N   0  0  0  0  0  0  0  0  0  0  0  0
   -2.8470   -1.4320    1.2930 C   0  0  0  0  0  0  0  0  0  0  0  0
   -2.2320   -2.4060    1.8050 O   0  0  0  0  0  0  0  0  0  0  0  0
   -4.2490   -1.2000    1.2790 N   0  0  0  0  0  0  0  0  0  0  0  0
   -4.4920   -0.2970    0.2050 C   0  0  2  0  0  0  0  0  0  0  0  0
   -5.6720    0.5540    0.3520 C   0  0  0  0  0  0  0  0  0  0  0  0
   -6.4860    0.5720    1.4480 C   0  0  0  0  0  0  0  0  0  0  0  0
   -7.5800    1.4140    1.4770 C   0  0  0  0  0  0  0  0  0  0  0  0
   -7.8750    2.2440    0.4170 C   0  0  0  0  0  0  0  0  0  0  0  0
   -7.0710    2.2440   -0.6950 C   0  0  0  0  0  0  0  0  0  0  0  0
   -5.9820    1.3990   -0.7110 C   0  0  0  0  0  0  0  0  0  0  0  0
   -4.4900   -1.0520   -1.1000 C   0  0  0  0  0  0  0  0  0  0  0  0
   -3.8260   -0.5450   -2.1900 C   0  0  0  0  0  0  0  0  0  0  0  0
   -3.8220   -1.2210   -3.3810 C   0  0  0  0  0  0  0  0  0  0  0  0
   -4.4810   -2.4250   -3.5180 C   0  0  0  0  0  0  0  0  0  0  0  0
   -5.1420   -2.9170   -2.4140 C   0  0  0  0  0  0  0  0  0  0  0  0
   -5.1550   -2.2500   -1.2090 C   0  0  0  0  0  0  0  0  0  0  0  0
   -3.2220    0.5150    0.1950 C   0  0  0  0  0  0  0  0  0  0  0  0
   -3.1430    1.7390   -0.1340 O   0  0  0  0  0  0  0  0  0  0  0  0
    5.1810   -1.0680   -0.1480 N   0  0  0  0  0  0  0  0  0  0  0  0
    5.4730   -2.4970    0.0200 C   0  0  0  0  0  0  0  0  0  0  0  0
    6.7150   -2.7140   -0.8120 C   0  0  0  0  0  0  0  0  0  0  0  0
    6.7230   -1.6160   -1.8380 C   0  0  0  0  0  0  0  0  0  0  0  0
    5.5940   -0.6630   -1.4540 C   0  0  0  0  0  0  0  0  0  0  0  0
  1  2  2  0
  3  2  1  1
  2 32  1  0
  3  4  1  0
  3  7  1  0
  4  5  1  0
  5  6  1  0
  6  7  1  0
  7  8  1  0
  8  9  2  0
  8 10  1  0
 10 11  1  0
 11 12  1  0
 12 13  1  0
 13 14  1  0
 13 30  1  0
 14 15  2  0
 14 16  1  0
 16 17  1  0
 17 18  1  1
 17 24  1  0
 17 30  1  0
 18 19  2  0
 18 23  1  0
 19 20  1  0
 20 21  2  0
 21 22  1  0
 22 23  2  0
 24 25  2  0
 24 29  1  0
 25 26  1  0
 26 27  2  0
 27 28  1  0
 28 29  2  0
 30 31  2  0
 32 33  1  0
 32 36  1  0
 33 34  1  0
 34 35  1  0
 35 36  1  0
M  END
