
     RDKit          3D

 37 41  0  0  0  0  0  0  0  0999 V2000
    6.4820   -2.4250   -1.5540 C   0  0  0  0  0  0  0  0  0  0  0  0
    6.1820   -2.0320   -0.1280 C   0  0  2  0  0  0  0  0  0  0  0  0
    4.7740   -1.8100    0.0110 N   0  0  0  0  0  0  0  0  0  0  0  0
    3.9970   -1.8340   -1.0060 C   0  0  0  0  0  0  0  0  0  0  0  0
    2.5690   -1.5940   -0.7500 C   0  0  0  0  0  0  0  0  0  0  0  0
    2.0760   -1.3490    0.5210 C   0  0  0  0  0  0  0  0  0  0  0  0
    2.9730   -1.3300    1.5680 O   0  0  0  0  0  0  0  0  0  0  0  0
    0.7230   -1.1380    0.6870 C   0  0  0  0  0  0  0  0  0  0  0  0
   -0.1310   -1.1680   -0.3940 C   0  0  0  0  0  0  0  0  0  0  0  0
   -1.6060   -0.9390   -0.2140 C   0  0  1  0  0  0  0  0  0  0  0  0
   -2.0120   -1.6850    0.8960 O   0  0  0  0  0  0  0  0  0  0  0  0
   -1.8400    0.5100    0.0490 C   0  0  0  0  0  0  0  0  0  0  0  0
   -3.2360    0.8190    0.3020 N   0  0  0  0  0  0  0  0  0  0  0  0
   -4.2660    0.5810   -0.6250 C   0  0  0  0  0  0  0  0  0  0  0  0
   -3.8760    0.0740   -1.7440 O   0  0  0  0  0  0  0  0  0  0  0  0
   -5.6700    0.8240   -0.5040 C   0  0  0  0  0  0  0  0  0  0  0  0
   -6.4610    1.1260   -1.6240 C   0  0  0  0  0  0  0  0  0  0  0  0
   -7.8320    1.4250   -1.5300 C   0  0  0  0  0  0  0  0  0  0  0  0
   -8.4680    1.4320   -0.2860 C   0  0  0  0  0  0  0  0  0  0  0  0
   -7.6510    1.1320    0.7460 C   0  0  0  0  0  0  0  0  0  0  0  0
   -8.2100    1.1010    1.9710 C   0  0  0  0  0  0  0  0  0  0  0  0
   -7.1630    0.7590    2.7730 N   0  0  0  0  0  0  0  0  0  0  0  0
   -6.0460    0.6020    2.0180 N   0  0  0  0  0  0  0  0  0  0  0  0
   -6.3320    0.8370    0.7150 C   0  0  0  0  0  0  0  0  0  0  0  0
   -9.6590    1.4570    1.7810 C   0  0  0  0  0  0  0  0  0  0  0  0
   -9.8300    1.6770    0.2660 C   0  0  0  0  0  0  0  0  0  0  0  0
    0.3720   -1.4030   -1.5840 O   0  0  0  0  0  0  0  0  0  0  0  0
    1.6580   -1.6090   -1.7780 C   0  0  0  0  0  0  0  0  0  0  0  0
    2.1190   -1.8340   -2.9420 O   0  0  0  0  0  0  0  0  0  0  0  0
    6.9530   -0.7970    0.2560 C   0  0  0  0  0  0  0  0  0  0  0  0
    7.9890   -0.3260   -0.5150 C   0  0  0  0  0  0  0  0  0  0  0  0
    8.6780    0.8190   -0.1220 C   0  0  0  0  0  0  0  0  0  0  0  0
    8.3650    1.5090    1.0170 C   0  0  0  0  0  0  0  0  0  0  0  0
    9.0890    2.7030    1.4200 C   0  0  0  0  0  0  0  0  0  0  0  0
   10.0370    3.1400    0.7210 O   0  0  0  0  0  0  0  0  0  0  0  0
    7.3200    1.0300    1.7890 C   0  0  0  0  0  0  0  0  0  0  0  0
    6.6400   -0.1030    1.3980 C   0  0  0  0  0  0  0  0  0  0  0  0
  2  1  1  6
  2  3  1  0
  2 30  1  0
  3  4  2  3
  4  5  1  0
  5  6  2  0
  5 28  1  0
  6  7  1  0
  6  8  1  0
  8  9  2  0
  9 10  1  0
  9 27  1  0
 10 11  1  1
 10 12  1  0
 12 13  1  0
 13 14  1  0
 14 15  2  0
 14 16  1  0
 16 17  2  0
 16 24  1  0
 17 18  1  0
 18 19  2  0
 19 20  1  0
 19 26  1  0
 20 21  1  0
 20 24  2  0
 21 22  2  0
 21 25  1  0
 22 23  1  0
 23 24  1  0
 25 26  1  0
 27 28  1  0
 28 29  2  0
 30 31  2  0
 30 37  1  0
 31 32  1  0
 32 33  2  0
 33 34  1  0
 33 36  1  0
 34 35  2  0
 36 37  2  0
M  END
