
     RDKit          3D

 37 41  0  0  0  0  0  0  0  0999 V2000
   -5.7150    1.4740    0.2930 O   0  0  0  0  0  0  0  0  0  0  0  0
   -5.7250    0.4900   -0.4650 C   0  0  0  0  0  0  0  0  0  0  0  0
   -6.7760    0.4690   -1.5420 C   0  0  0  0  0  0  0  0  0  0  0  0
   -7.6360    1.6950   -1.4490 C   0  0  1  0  0  0  0  0  0  0  0  0
   -8.6570    1.6820   -2.4950 C   0  0  0  0  0  0  0  0  0  0  0  0
   -9.8350    1.3710   -1.9860 C   0  0  0  0  0  0  0  0  0  0  0  0
   -9.7470    1.1350   -0.5220 C   0  0  0  0  0  0  0  0  0  0  0  0
   -8.3940    1.7640   -0.1650 C   0  0  0  0  0  0  0  0  0  0  0  0
   -4.8090   -0.5710   -0.3490 N   0  0  0  0  0  0  0  0  0  0  0  0
   -3.7900   -0.6430    0.6290 C   0  0  0  0  0  0  0  0  0  0  0  0
   -3.6040    0.2490    1.6390 C   0  0  0  0  0  0  0  0  0  0  0  0
   -2.5570    0.1160    2.5760 C   0  0  0  0  0  0  0  0  0  0  0  0
   -1.6790   -0.9380    2.4970 C   0  0  0  0  0  0  0  0  0  0  0  0
   -1.8470   -1.8540    1.4840 C   0  0  0  0  0  0  0  0  0  0  0  0
   -2.8730   -1.7070    0.5790 C   0  0  0  0  0  0  0  0  0  0  0  0
   -1.0470   -3.0210    1.2260 N   0  0  0  0  0  0  0  0  0  0  0  0
   -0.1820   -3.6340    2.1800 C   0  0  0  0  0  0  0  0  0  0  0  0
    0.4710   -4.6010    1.7300 O   0  0  0  0  0  0  0  0  0  0  0  0
    0.0460   -3.2810    3.6240 C   0  0  0  0  0  0  0  0  0  0  0  0
    0.3730   -1.8020    3.7720 C   0  0  1  0  0  0  0  0  0  0  0  0
    1.5840   -1.5460    2.9650 C   0  0  0  0  0  0  0  0  0  0  0  0
    2.5910   -2.2820    3.1900 O   0  0  0  0  0  0  0  0  0  0  0  0
    1.7160   -0.5810    1.9910 O   0  0  0  0  0  0  0  0  0  0  0  0
    2.8750   -0.3840    1.2630 C   0  0  0  0  0  0  0  0  0  0  0  0
    3.1060   -1.0280    0.0710 C   0  0  0  0  0  0  0  0  0  0  0  0
    4.2790   -0.8090   -0.6350 C   0  0  0  0  0  0  0  0  0  0  0  0
    5.2650    0.0700   -0.1650 C   0  0  0  0  0  0  0  0  0  0  0  0
    6.4130    0.2050   -0.9640 N   0  0  0  0  0  0  0  0  0  0  0  0
    7.4970    1.0920   -0.7670 C   0  0  0  0  0  0  0  0  0  0  0  0
    7.4930    1.8630    0.1940 O   0  0  0  0  0  0  0  0  0  0  0  0
    8.6200    1.1380   -1.6460 N   0  0  0  0  0  0  0  0  0  0  0  0
    9.7270    2.0530   -1.4340 C   0  0  1  0  0  0  0  0  0  0  0  0
   11.0990    1.5750   -1.7340 C   0  0  0  0  0  0  0  0  0  0  0  0
   10.4220    2.5470   -2.6510 C   0  0  0  0  0  0  0  0  0  0  0  0
    5.0330    0.7020    1.0090 C   0  0  0  0  0  0  0  0  0  0  0  0
    3.8370    0.4780    1.7280 C   0  0  0  0  0  0  0  0  0  0  0  0
   -0.6970   -0.9580    3.4740 O   0  0  0  0  0  0  0  0  0  0  0  0
  1  2  2  0
  2  3  1  0
  2  9  1  0
  4  3  1  1
  4  5  1  0
  4  8  1  0
  5  6  2  0
  6  7  1  0
  7  8  1  0
  9 10  1  0
 10 11  2  0
 10 15  1  0
 11 12  1  0
 12 13  2  0
 13 14  1  0
 13 37  1  0
 14 15  2  0
 14 16  1  0
 16 17  1  0
 17 18  2  0
 17 19  1  0
 19 20  1  0
 20 21  1  6
 20 37  1  0
 21 22  2  0
 21 23  1  0
 23 24  1  0
 24 25  2  0
 24 36  1  0
 25 26  1  0
 26 27  2  0
 27 28  1  0
 27 35  1  0
 28 29  1  0
 29 30  2  0
 29 31  1  0
 32 31  1  6
 32 33  1  0
 32 34  1  0
 33 34  1  0
 35 36  2  0
M  END
