
     RDKit          3D

 32 34  0  0  0  0  0  0  0  0999 V2000
   -4.2230    2.7600   -1.1590 C   0  0  0  0  0  0  0  0  0  0  0  0
   -4.5090    1.8260   -0.0100 C   0  0  2  0  0  0  0  0  0  0  0  0
   -5.8330    1.3850   -0.1540 O   0  0  0  0  0  0  0  0  0  0  0  0
   -4.4360    2.5690    1.1630 O   0  0  0  0  0  0  0  0  0  0  0  0
   -3.7070    0.7070    0.0040 O   0  0  0  0  0  0  0  0  0  0  0  0
   -2.4340    0.9550    0.0950 O   0  0  0  0  0  0  0  0  0  0  0  0
   -1.7700   -0.1690    0.6080 C   0  0  1  0  0  0  0  0  0  0  0  0
   -1.9310   -1.3700   -0.2390 C   0  0  0  0  0  0  0  0  0  0  0  0
   -2.0490   -2.4930    0.6790 N   0  0  0  0  0  0  0  0  0  0  0  0
   -1.5940   -3.8120    0.4440 C   0  0  0  0  0  0  0  0  0  0  0  0
   -0.3440   -4.2410    0.4350 C   0  0  0  0  0  0  0  0  0  0  0  0
    0.8630   -3.4270    0.6730 C   0  0  0  0  0  0  0  0  0  0  0  0
    1.6450   -3.7940    1.6550 O   0  0  0  0  0  0  0  0  0  0  0  0
    1.2500   -2.3350   -0.0180 O   0  0  0  0  0  0  0  0  0  0  0  0
    1.9220   -2.0340   -1.5640 P   0  0  0  0  0  0  0  0  0  0  0  0
    0.8420   -1.0780   -2.6250 O   0  0  0  0  0  0  0  0  0  0  0  0
    0.7420    0.2620   -2.1590 C   0  0  0  0  0  0  0  0  0  0  0  0
    1.2130    0.4620   -0.9670 C   0  0  0  0  0  0  0  0  0  0  0  0
    0.5260    0.8340    0.1830 O   0  0  0  0  0  0  0  0  0  0  0  0
   -0.3890    0.2270    0.9470 C   0  0  0  0  0  0  0  0  0  0  0  0
   -0.0320   -0.0600    2.1530 O   0  0  0  0  0  0  0  0  0  0  0  0
    2.7040    0.2880   -0.7120 C   0  0  1  0  0  0  0  0  0  0  0  0
    3.3500    1.4510   -1.1260 O   0  0  0  0  0  0  0  0  0  0  0  0
    3.0720    0.1150    1.0980 P   0  0  0  0  0  0  0  0  0  0  0  0
    4.7590   -0.0680    1.2880 O   0  0  0  0  0  0  0  0  0  0  0  0
    5.5220    0.6940    0.4260 C   0  0  0  0  0  0  0  0  0  0  0  0
    5.2420    2.0560    0.6200 O   0  0  0  0  0  0  0  0  0  0  0  0
    5.5340    2.3890    1.8990 N   0  0  0  0  0  0  0  0  0  0  0  0
    3.2170   -0.8490   -1.3070 O   0  0  0  0  0  0  0  0  0  0  0  0
   -2.7100   -1.9490    1.7870 O   0  0  0  0  0  0  0  0  0  0  0  0
   -2.5520   -0.5750    1.8080 C   0  0  0  0  0  0  0  0  0  0  0  0
   -2.9980    0.1780    2.6950 O   0  0  0  0  0  0  0  0  0  0  0  0
  2  1  1  6
  2  3  1  0
  2  4  1  0
  2  5  1  0
  5  6  1  0
  7  6  1  6
  7  8  1  0
  7 20  1  0
  7 31  1  0
  8  9  1  0
  9 10  1  0
  9 30  1  0
 10 11  2  0
 11 12  1  0
 12 13  2  0
 12 14  1  0
 14 15  1  0
 15 16  1  0
 15 29  1  0
 16 17  1  0
 17 18  2  0
 18 19  1  0
 18 22  1  0
 19 20  1  0
 20 21  2  0
 22 23  1  6
 22 24  1  0
 22 29  1  0
 24 25  1  0
 25 26  1  0
 26 27  1  0
 27 28  1  0
 30 31  1  0
 31 32  2  0
M  END
