
     RDKit          3D

 31 32  0  0  0  0  0  0  0  0999 V2000
   -3.6320   -1.3990    0.8860 C   0  0  0  0  0  0  0  0  0  0  0  0
   -3.3920    0.0600    0.3420 C   0  0  2  0  0  0  0  0  0  0  0  0
   -4.4570    0.8100    0.9700 N   0  0  0  0  0  0  0  0  0  0  0  0
   -3.7550   -0.0580   -1.0910 C   0  0  0  0  0  0  0  0  0  0  0  0
   -4.9890   -0.8040   -1.0800 O   0  0  0  0  0  0  0  0  0  0  0  0
   -2.2360    0.5430    0.7710 O   0  0  0  0  0  0  0  0  0  0  0  0
   -1.0180    0.1600    0.4810 C   0  0  1  0  0  0  0  0  0  0  0  0
   -0.6320   -1.2420    0.6940 C   0  0  0  0  0  0  0  0  0  0  0  0
    0.8180   -1.5550    0.4150 C   0  0  1  0  0  0  0  0  0  0  0  0
    0.9420   -2.4490   -0.6770 O   0  0  0  0  0  0  0  0  0  0  0  0
    1.7750   -3.8880   -0.2940 P   0  0  0  0  0  0  0  0  0  0  0  0
    1.4780   -0.2620   -0.0880 C   0  0  1  0  0  0  0  0  0  0  0  0
    2.7320   -0.4550   -0.5750 O   0  0  0  0  0  0  0  0  0  0  0  0
    3.8390   -1.0040    0.0100 C   0  0  0  0  0  0  0  0  0  0  0  0
    3.7570   -1.4270    1.1690 O   0  0  0  0  0  0  0  0  0  0  0  0
    5.1310   -1.1000   -0.7160 C   0  0  0  0  0  0  0  0  0  0  0  0
    6.1560   -1.7080    0.0860 N   0  0  0  0  0  0  0  0  0  0  0  0
    0.5870   -0.0040   -1.3430 C   0  0  0  0  0  0  0  0  0  0  0  0
    0.8950   -0.3740   -2.4540 O   0  0  0  0  0  0  0  0  0  0  0  0
   -0.5900    0.7220   -0.8780 C   0  0  0  0  0  0  0  0  0  0  0  0
   -1.2380    2.0420   -1.5810 P   0  0  0  0  0  0  0  0  0  0  0  0
   -2.5520    3.0100   -0.7970 C   0  0  0  0  0  0  0  0  0  0  0  0
   -2.4720    3.1820    0.4580 O   0  0  0  0  0  0  0  0  0  0  0  0
   -3.6270    3.5630   -1.4970 O   0  0  0  0  0  0  0  0  0  0  0  0
    1.1700    0.8740    0.7920 C   0  0  1  0  0  0  0  0  0  0  0  0
    2.0360    1.1520    1.8270 O   0  0  0  0  0  0  0  0  0  0  0  0
    3.2510    1.4810    1.4540 O   0  0  0  0  0  0  0  0  0  0  0  0
    1.2690    2.0480   -0.0330 O   0  0  0  0  0  0  0  0  0  0  0  0
    1.0290    3.1040    0.7340 O   0  0  0  0  0  0  0  0  0  0  0  0
    1.2710    4.1660   -0.0040 O   0  0  0  0  0  0  0  0  0  0  0  0
   -0.1180    0.9340    1.2880 O   0  0  0  0  0  0  0  0  0  0  0  0
  2  1  1  1
  2  3  1  0
  2  4  1  0
  2  6  1  0
  4  5  1  0
  7  6  1  1
  7  8  1  0
  7 20  1  0
  7 31  1  0
  8  9  1  0
  9 10  1  6
  9 12  1  0
 10 11  1  0
 12 13  1  6
 12 18  1  0
 12 25  1  0
 13 14  1  0
 14 15  2  0
 14 16  1  0
 16 17  1  0
 18 19  2  0
 18 20  1  0
 20 21  2  3
 21 22  1  0
 22 23  2  0
 22 24  1  0
 25 26  1  1
 25 28  1  0
 25 31  1  0
 26 27  1  0
 28 29  1  0
 29 30  1  0
M  END
