
     RDKit          3D

 32 34  0  0  0  0  0  0  0  0999 V2000
   -7.4560   -0.6170    1.5640 N   0  0  0  0  0  0  0  0  0  0  0  0
   -6.5610    0.3020    0.9520 C   0  0  0  0  0  0  0  0  0  0  0  0
   -5.2280    0.1360    1.0100 N   0  0  0  0  0  0  0  0  0  0  0  0
   -4.3610    1.0040    0.4320 C   0  0  0  0  0  0  0  0  0  0  0  0
   -4.9020    2.0840   -0.2320 C   0  0  0  0  0  0  0  0  0  0  0  0
   -3.8750    2.7930   -0.7150 N   0  0  0  0  0  0  0  0  0  0  0  0
   -2.7430    2.1750   -0.3650 C   0  0  0  0  0  0  0  0  0  0  0  0
   -3.0210    1.0690    0.3440 N   0  0  0  0  0  0  0  0  0  0  0  0
   -2.1370    0.0830    0.9360 C   0  0  2  0  0  0  0  0  0  0  0  0
   -0.8210    0.4020    0.8410 O   0  0  0  0  0  0  0  0  0  0  0  0
   -0.1280   -0.6680    0.2870 C   0  0  2  0  0  0  0  0  0  0  0  0
    0.9880   -0.1210   -0.5280 C   0  0  0  0  0  0  0  0  0  0  0  0
    1.7550   -1.1030   -1.1330 O   0  0  0  0  0  0  0  0  0  0  0  0
    2.9590   -0.7460   -2.0280 P   0  0  0  0  0  0  0  0  0  0  0  0
    3.9950   -0.5130   -3.1330 O   0  0  0  0  0  0  0  0  0  0  0  0
    1.8980    0.2220   -2.9140 O   0  0  0  0  0  0  0  0  0  0  0  0
    3.8240   -0.0180   -0.8540 O   0  0  0  0  0  0  0  0  0  0  0  0
    4.2320   -0.8080    0.4970 P   0  0  0  0  0  0  0  0  0  0  0  0
    3.8580   -0.2010    1.9830 O   0  0  0  0  0  0  0  0  0  0  0  0
    4.9140   -2.3460    0.4480 O   0  0  0  0  0  0  0  0  0  0  0  0
    5.6350   -0.2100    0.4840 O   0  0  0  0  0  0  0  0  0  0  0  0
    6.0060    1.2640    0.3500 P   0  0  0  0  0  0  0  0  0  0  0  0
    7.5230    1.0200    0.9330 O   0  0  0  0  0  0  0  0  0  0  0  0
    5.6930    1.2610   -1.2640 O   0  0  0  0  0  0  0  0  0  0  0  0
    4.7850    1.6550    1.3970 O   0  0  0  0  0  0  0  0  0  0  0  0
   -1.1210   -1.4630   -0.5120 C   0  0  1  0  0  0  0  0  0  0  0  0
   -0.8880   -2.8220   -0.5080 O   0  0  0  0  0  0  0  0  0  0  0  0
   -2.4000   -1.2370    0.2970 C   0  0  1  0  0  0  0  0  0  0  0  0
   -2.4400   -2.2140    1.2910 O   0  0  0  0  0  0  0  0  0  0  0  0
   -6.2800    2.2400   -0.2820 C   0  0  0  0  0  0  0  0  0  0  0  0
   -6.7940    3.2200   -0.8840 O   0  0  0  0  0  0  0  0  0  0  0  0
   -7.1120    1.3590    0.3030 N   0  0  0  0  0  0  0  0  0  0  0  0
  1  2  1  0
  2  3  1  0
  2 32  2  0
  3  4  1  0
  4  5  2  0
  4  8  1  0
  5  6  1  0
  5 30  1  0
  6  7  2  0
  7  8  1  0
  9  8  1  6
  9 10  1  0
  9 28  1  0
 10 11  1  0
 11 12  1  6
 11 26  1  0
 12 13  1  0
 13 14  1  0
 14 15  1  0
 14 16  1  0
 14 17  1  0
 17 18  1  0
 18 19  1  0
 18 20  1  0
 18 21  1  0
 21 22  1  0
 22 23  1  0
 22 24  1  0
 22 25  1  0
 26 27  1  1
 26 28  1  0
 28 29  1  1
 30 31  2  0
 30 32  1  0
M  CHG  1  32   1
M  END
