
     RDKit          3D

 32 32  0  0  0  0  0  0  0  0999 V2000
    6.6280    2.6970   -1.6110 C   0  0  0  0  0  0  0  0  0  0  0  0
    6.9300    1.1180   -1.2630 P   0  0  0  0  0  0  0  0  0  0  0  0
    5.6640    0.0650   -0.3610 C   0  0  2  0  0  0  0  0  0  0  0  0
    6.2190   -1.2720   -0.1530 N   0  0  0  0  0  0  0  0  0  0  0  0
    4.4700    0.0060   -1.1090 O   0  0  0  0  0  0  0  0  0  0  0  0
    3.2560   -0.3090   -0.5520 C   0  0  0  0  0  0  0  0  0  0  0  0
    2.0480   -0.5130   -1.3280 C   0  0  0  0  0  0  0  0  0  0  0  0
    2.0670   -0.4050   -2.5760 O   0  0  0  0  0  0  0  0  0  0  0  0
    0.8040   -0.8450   -0.6470 C   0  0  0  0  0  0  0  0  0  0  0  0
    0.7560   -0.9600    0.6060 O   0  0  0  0  0  0  0  0  0  0  0  0
   -0.3770   -1.0460   -1.3730 N   0  0  0  0  0  0  0  0  0  0  0  0
   -1.6730   -1.3850   -0.7580 C   0  0  2  0  0  0  0  0  0  0  0  0
   -1.7340   -2.7840   -0.9560 O   0  0  0  0  0  0  0  0  0  0  0  0
   -1.3180   -3.4020    0.1270 O   0  0  0  0  0  0  0  0  0  0  0  0
   -2.7120   -0.7210   -1.2890 O   0  0  0  0  0  0  0  0  0  0  0  0
   -3.4340    0.0270   -0.3620 C   0  0  2  0  0  0  0  0  0  0  0  0
   -4.5620    0.7250   -1.1470 C   0  0  0  0  0  0  0  0  0  0  0  0
   -5.4810    1.4480   -0.4750 O   0  0  0  0  0  0  0  0  0  0  0  0
   -6.5360    1.0550    0.3050 C   0  0  0  0  0  0  0  0  0  0  0  0
   -6.7800   -0.1450    0.4600 O   0  0  0  0  0  0  0  0  0  0  0  0
   -7.3520    1.9830    0.9370 O   0  0  0  0  0  0  0  0  0  0  0  0
   -2.5920    1.1600    0.1150 C   0  0  0  0  0  0  0  0  0  0  0  0
   -1.4680    1.3220   -0.3850 O   0  0  0  0  0  0  0  0  0  0  0  0
   -3.0170    2.0400    1.0950 O   0  0  0  0  0  0  0  0  0  0  0  0
   -3.9270   -0.8090    0.7020 C   0  0  0  0  0  0  0  0  0  0  0  0
   -4.3070   -0.3940    1.8400 O   0  0  0  0  0  0  0  0  0  0  0  0
   -4.0220   -2.1830    0.5320 O   0  0  0  0  0  0  0  0  0  0  0  0
   -4.4710   -3.0120    1.4690 O   0  0  0  0  0  0  0  0  0  0  0  0
    3.2470   -0.4490    1.1000 P   0  0  0  0  0  0  0  0  0  0  0  0
    4.8080   -0.1650    1.8470 O   0  0  0  0  0  0  0  0  0  0  0  0
    5.4160    0.7490    0.9670 C   0  0  2  0  0  0  0  0  0  0  0  0
    4.5570    1.8350    0.7250 O   0  0  0  0  0  0  0  0  0  0  0  0
  1  2  2  0
  2  3  1  0
  3  4  1  1
  3  5  1  0
  3 31  1  0
  5  6  1  0
  6  7  1  0
  6 29  2  0
  7  8  2  0
  7  9  1  0
  9 10  2  0
  9 11  1  0
 12 11  1  6
 12 13  1  0
 12 15  1  0
 13 14  1  0
 15 16  1  0
 16 17  1  6
 16 22  1  0
 16 25  1  0
 17 18  1  0
 18 19  1  0
 19 20  2  0
 19 21  1  0
 22 23  2  0
 22 24  1  0
 25 26  2  0
 25 27  1  0
 27 28  1  0
 29 30  1  0
 30 31  1  0
 31 32  1  6
M  END
