
     RDKit          3D

 10 10  0  0  0  0  0  0  0  0999 V2000
   -1.5620   -0.5890   -1.0280 C   0  0  0  0  0  0  0  0  0  0  0  0
   -0.7310   -0.1830    0.1720 C   0  0  2  0  0  0  0  0  0  0  0  0
   -1.4060    0.9100    0.9820 C   0  0  0  0  0  0  0  0  0  0  0  0
    0.6330    0.2300   -0.1850 C   0  0  0  0  0  0  0  0  0  0  0  0
    1.7650   -0.4020    0.1530 C   0  0  0  0  0  0  0  0  0  0  0  0
    1.8100   -1.5840    0.9200 N   0  0  0  0  0  0  0  0  0  0  0  0
    2.8370    0.3420   -0.4010 N   0  0  0  0  0  0  0  0  0  0  0  0
    2.4280    1.3560   -1.0350 N   0  0  0  0  0  0  0  0  0  0  0  0
    1.0090    1.4140   -0.9810 C   0  0  0  0  0  0  0  0  0  0  0  0
    0.2060    2.2460   -1.4700 O   0  0  0  0  0  0  0  0  0  0  0  0
  2  1  1  6
  2  3  1  0
  2  4  1  0
  4  5  2  0
  4  9  1  0
  5  6  1  0
  5  7  1  0
  7  8  2  0
  8  9  1  0
  9 10  2  0
M  END
