
     RDKit          3D

 11 12  0  0  0  0  0  0  0  0999 V2000
   -3.2140   -1.5550    0.2050 O   0  0  0  0  0  0  0  0  0  0  0  0
   -2.1750   -0.8240    0.1140 C   0  0  0  0  0  0  0  0  0  0  0  0
   -0.9830   -1.3750    0.3800 N   0  0  0  0  0  0  0  0  0  0  0  0
    0.1090   -0.5740    0.2760 C   0  0  0  0  0  0  0  0  0  0  0  0
   -0.0070    0.7500   -0.0890 C   0  0  0  0  0  0  0  0  0  0  0  0
   -1.2640    1.2520   -0.3480 C   0  0  0  0  0  0  0  0  0  0  0  0
   -1.3850    2.4570   -0.6820 O   0  0  0  0  0  0  0  0  0  0  0  0
   -2.3490    0.4650   -0.2470 N   0  0  0  0  0  0  0  0  0  0  0  0
    1.2920    1.3480   -0.1260 N   0  0  0  0  0  0  0  0  0  0  0  0
    2.2020    0.2190   -0.3740 C   0  0  0  0  0  0  0  0  0  0  0  0
    1.5520   -0.8300    0.4960 C   0  0  0  0  0  0  0  0  0  0  0  0
  1  2  2  0
  2  3  1  0
  2  8  1  0
  3  4  1  0
  4  5  2  0
  4 11  1  0
  5  6  1  0
  5  9  1  0
  6  7  2  0
  6  8  1  0
  9 10  1  0
 10 11  1  0
M  END
