
     RDKit          3D

 11 11  0  0  0  0  0  0  0  0999 V2000
   -1.3740   -1.3250   -0.2500 C   0  0  0  0  0  0  0  0  0  0  0  0
   -1.4500    0.0840    0.1720 C   0  0  0  0  0  0  0  0  0  0  0  0
   -0.3980    0.8370    0.2730 C   0  0  0  0  0  0  0  0  0  0  0  0
    0.9840    0.4840    0.0140 C   0  0  0  0  0  0  0  0  0  0  0  0
    1.8350    1.3240   -0.6980 C   0  0  0  0  0  0  0  0  0  0  0  0
    3.0500    0.7520   -0.7640 N   0  0  0  0  0  0  0  0  0  0  0  0
    2.9880   -0.4030   -0.1260 N   0  0  0  0  0  0  0  0  0  0  0  0
    1.7420   -0.5940    0.3600 C   0  0  0  0  0  0  0  0  0  0  0  0
   -2.7300    0.6380    0.4800 N   0  0  0  0  0  0  0  0  0  0  0  0
   -3.5330    0.7650   -0.4620 O   0  0  0  0  0  0  0  0  0  0  0  0
   -3.0570    1.0130    1.7620 O   0  0  0  0  0  0  0  0  0  0  0  0
  1  2  1  0
  2  3  2  3
  2  9  1  0
  3  4  1  0
  4  5  1  0
  4  8  2  0
  5  6  2  0
  6  7  1  0
  7  8  1  0
  9 10  2  0
  9 11  1  0
M  CHG  2   9   1  11  -1
M  END
