
     RDKit          3D

 11 11  0  0  0  0  0  0  0  0999 V2000
   -3.3600    0.6650   -0.3020 C   0  0  0  0  0  0  0  0  0  0  0  0
   -2.7660   -0.7050   -0.5800 C   0  0  0  0  0  0  0  0  0  0  0  0
   -1.3750   -0.6700   -0.5980 O   0  0  0  0  0  0  0  0  0  0  0  0
   -0.8590   -0.2400    0.6140 C   0  0  0  0  0  0  0  0  0  0  0  0
    0.6390   -0.2450    0.4720 C   0  0  0  0  0  0  0  0  0  0  0  0
    1.4700   -1.3040    0.7580 C   0  0  0  0  0  0  0  0  0  0  0  0
    2.7190   -0.8870    0.4940 N   0  0  0  0  0  0  0  0  0  0  0  0
    3.8520   -1.6800    0.6590 O   0  0  0  0  0  0  0  0  0  0  0  0
    2.7090    0.3870    0.0560 C   0  0  0  0  0  0  0  0  0  0  0  0
    3.8340    1.1690   -0.3220 N   0  0  0  0  0  0  0  0  0  0  0  0
    1.4160    0.7570    0.0520 N   0  0  0  0  0  0  0  0  0  0  0  0
  1  2  1  0
  2  3  1  0
  3  4  1  0
  4  5  1  0
  5  6  2  0
  5 11  1  0
  6  7  1  0
  7  8  1  0
  7  9  2  0
  9 10  1  0
  9 11  1  0
M  CHG  2   7   1   8  -1
M  END
