
     RDKit          3D

 21 23  0  0  0  0  0  0  0  0999 V2000
   -5.2730   -1.8860    0.6580 C   0  0  0  0  0  0  0  0  0  0  0  0
   -3.8560   -1.9680   -0.4710 S   0  0  0  0  0  0  0  0  0  0  0  0
   -3.3360   -0.3130   -0.9850 C   0  0  0  0  0  0  0  0  0  0  0  0
   -2.7770    0.4780    0.2060 C   0  0  1  0  0  0  0  0  0  0  0  0
   -1.6950   -0.1440    0.7570 O   0  0  0  0  0  0  0  0  0  0  0  0
   -0.5550    0.5320    0.4340 C   0  0  1  0  0  0  0  0  0  0  0  0
    0.5190   -0.3670    0.0030 N   0  0  0  0  0  0  0  0  0  0  0  0
    0.4410   -1.6330   -0.4330 C   0  0  0  0  0  0  0  0  0  0  0  0
    1.6950   -2.0710   -0.7240 N   0  0  0  0  0  0  0  0  0  0  0  0
    2.5380   -1.0770   -0.4670 C   0  0  0  0  0  0  0  0  0  0  0  0
    1.8120    0.0100   -0.0060 C   0  0  0  0  0  0  0  0  0  0  0  0
    2.2980    1.3070    0.4000 N   0  0  0  0  0  0  0  0  0  0  0  0
    3.5000    1.4920    0.8880 C   0  0  0  0  0  0  0  0  0  0  0  0
    4.5490    0.5650    1.1290 N   0  0  0  0  0  0  0  0  0  0  0  0
    4.6150   -0.8360    0.7380 C   0  0  0  0  0  0  0  0  0  0  0  0
    4.0230   -1.0720   -0.6330 C   0  0  1  0  0  0  0  0  0  0  0  0
    4.5020   -2.2000   -1.2420 O   0  0  0  0  0  0  0  0  0  0  0  0
   -0.8880    1.5300   -0.6410 C   0  0  2  0  0  0  0  0  0  0  0  0
   -0.1080    2.6790   -0.5550 O   0  0  0  0  0  0  0  0  0  0  0  0
   -2.3430    1.8160   -0.3410 C   0  0  2  0  0  0  0  0  0  0  0  0
   -2.4230    2.8250    0.6080 O   0  0  0  0  0  0  0  0  0  0  0  0
  1  2  1  0
  2  3  1  0
  4  3  1  6
  4  5  1  0
  4 20  1  0
  5  6  1  0
  6  7  1  6
  6 18  1  0
  7  8  1  0
  7 11  1  0
  8  9  2  0
  9 10  1  0
 10 11  2  0
 10 16  1  0
 11 12  1  0
 12 13  2  0
 13 14  1  0
 14 15  1  0
 15 16  1  0
 16 17  1  1
 18 19  1  1
 18 20  1  0
 20 21  1  1
M  END
