
     RDKit          3D

 35 36  0  0  0  0  0  0  0  0999 V2000
    0.3610   -1.1990    2.2940 C   0  0  0  0  0  0  0  0  0  0  0  0
    0.7590    0.0890    1.6460 C   0  0  0  0  0  0  0  0  0  0  0  0
    1.9550    0.2260    0.9790 C   0  0  0  0  0  0  0  0  0  0  0  0
    2.3720    1.3690    0.3690 C   0  0  0  0  0  0  0  0  0  0  0  0
    3.6490    1.4980   -0.3390 C   0  0  0  0  0  0  0  0  0  0  0  0
    4.0380    2.6290   -0.6850 O   0  0  0  0  0  0  0  0  0  0  0  0
    4.4730    0.3970   -0.6540 N   0  0  0  0  0  0  0  0  0  0  0  0
    5.7480    0.4890   -1.3520 C   0  0  2  0  0  0  0  0  0  0  0  0
    5.7090   -0.0400   -2.7470 C   0  0  0  0  0  0  0  0  0  0  0  0
    6.8920    0.0270   -0.5180 C   0  0  0  0  0  0  0  0  0  0  0  0
    6.8380   -1.3810   -0.0410 C   0  0  2  0  0  0  0  0  0  0  0  0
    6.7940   -2.4210   -1.1080 C   0  0  0  0  0  0  0  0  0  0  0  0
    5.8280   -1.5660    0.9220 O   0  0  0  0  0  0  0  0  0  0  0  0
    1.5130    2.4580    0.4380 C   0  0  0  0  0  0  0  0  0  0  0  0
    0.2960    2.3420    1.1080 C   0  0  0  0  0  0  0  0  0  0  0  0
   -0.0930    1.1700    1.7140 C   0  0  0  0  0  0  0  0  0  0  0  0
   -1.3200    1.0950    2.3760 O   0  0  0  0  0  0  0  0  0  0  0  0
   -2.3160    0.1800    2.0270 C   0  0  0  0  0  0  0  0  0  0  0  0
   -2.7900   -0.7490    2.9120 C   0  0  0  0  0  0  0  0  0  0  0  0
   -3.7710   -1.6200    2.5020 C   0  0  0  0  0  0  0  0  0  0  0  0
   -4.2930   -1.5880    1.2290 C   0  0  0  0  0  0  0  0  0  0  0  0
   -5.3050   -2.5500    0.8160 C   0  0  0  0  0  0  0  0  0  0  0  0
   -6.5900   -2.3300    1.1210 O   0  0  0  0  0  0  0  0  0  0  0  0
   -7.3110   -1.2910    0.7020 C   0  0  0  0  0  0  0  0  0  0  0  0
   -7.0510    0.0640    1.1530 C   0  0  0  0  0  0  0  0  0  0  0  0
   -6.1670    0.4770    2.1500 N   0  0  0  0  0  0  0  0  0  0  0  0
   -7.7130    1.0040    0.5720 O   0  0  0  0  0  0  0  0  0  0  0  0
   -3.7840   -0.6270    0.3580 C   0  0  0  0  0  0  0  0  0  0  0  0
   -2.8010    0.2750    0.7080 C   0  0  0  0  0  0  0  0  0  0  0  0
   -2.2640    1.2410   -0.1080 O   0  0  0  0  0  0  0  0  0  0  0  0
   -2.6410    1.4360   -1.4310 C   0  0  1  0  0  0  0  0  0  0  0  0
   -3.2790    2.8120   -1.6380 C   0  0  0  0  0  0  0  0  0  0  0  0
   -1.4640    1.3450   -2.3640 C   0  0  0  0  0  0  0  0  0  0  0  0
   -1.6380    1.5010   -3.7580 N   0  0  0  0  0  0  0  0  0  0  0  0
   -0.3550    1.1310   -1.8630 O   0  0  0  0  0  0  0  0  0  0  0  0
  1  2  1  0
  2  3  2  0
  2 16  1  0
  3  4  1  0
  4  5  1  0
  4 14  2  0
  5  6  2  0
  5  7  1  0
  7  8  1  0
  8  9  1  6
  8 10  1  0
 10 11  1  0
 11 12  1  6
 11 13  1  0
 14 15  1  0
 15 16  2  0
 16 17  1  0
 17 18  1  0
 18 19  2  0
 18 29  1  0
 19 20  1  0
 20 21  2  0
 21 22  1  0
 21 28  1  0
 22 23  1  0
 23 24  1  0
 24 25  1  0
 25 26  1  0
 25 27  2  0
 28 29  2  0
 29 30  1  0
 30 31  1  0
 31 32  1  1
 31 33  1  0
 33 34  1  0
 33 35  2  0
M  END
