
     RDKit          3D

 35 36  0  0  0  0  0  0  0  0999 V2000
    5.7430   -1.3800   -2.3120 C   0  0  0  0  0  0  0  0  0  0  0  0
    6.2870   -1.8420   -1.0090 C   0  0  0  0  0  0  0  0  0  0  0  0
    7.1130   -2.7960   -0.9940 O   0  0  0  0  0  0  0  0  0  0  0  0
    5.9080   -1.2410    0.2610 C   0  0  0  0  0  0  0  0  0  0  0  0
    6.4390   -1.7200    1.3720 C   0  0  0  0  0  0  0  0  0  0  0  0
    7.3540   -2.7970    1.3000 N   0  0  0  0  0  0  0  0  0  0  0  0
    4.9890   -0.1240    0.4160 C   0  0  0  0  0  0  0  0  0  0  0  0
    4.7450    0.3270    1.5960 O   0  0  0  0  0  0  0  0  0  0  0  0
    4.3240    0.5330   -0.6210 O   0  0  0  0  0  0  0  0  0  0  0  0
    3.4750    1.6230   -0.2220 C   0  0  0  0  0  0  0  0  0  0  0  0
    2.3930    1.1890    0.6700 C   0  0  0  0  0  0  0  0  0  0  0  0
    2.0210    0.0120    0.6690 O   0  0  0  0  0  0  0  0  0  0  0  0
    1.7440    2.1150    1.5780 N   0  0  0  0  0  0  0  0  0  0  0  0
    0.7040    1.6290    2.4090 C   0  0  0  0  0  0  0  0  0  0  0  0
   -0.5540    1.1440    1.7140 C   0  0  0  0  0  0  0  0  0  0  0  0
   -0.7340   -0.1320    1.7450 C   0  0  0  0  0  0  0  0  0  0  0  0
   -1.7210   -1.0130    1.2390 C   0  0  0  0  0  0  0  0  0  0  0  0
   -2.8340   -0.7380    0.4740 O   0  0  0  0  0  0  0  0  0  0  0  0
   -1.5370   -2.3350    1.5550 C   0  0  0  0  0  0  0  0  0  0  0  0
   -2.5020   -3.3120    1.0730 C   0  0  1  0  0  0  0  0  0  0  0  0
   -3.8290   -3.0010    1.4070 O   0  0  0  0  0  0  0  0  0  0  0  0
   -2.4330   -3.4010   -0.4330 C   0  0  2  0  0  0  0  0  0  0  0  0
   -3.3900   -4.3700   -1.0690 C   0  0  0  0  0  0  0  0  0  0  0  0
   -1.9320   -4.6590   -1.0400 C   0  0  0  0  0  0  0  0  0  0  0  0
   -1.5130    2.1240    1.3260 C   0  0  0  0  0  0  0  0  0  0  0  0
   -1.2550    3.4260    1.3240 C   0  0  0  0  0  0  0  0  0  0  0  0
   -0.0920    3.9810    1.6590 O   0  0  0  0  0  0  0  0  0  0  0  0
   -2.8850    1.8470    0.9280 N   0  0  0  0  0  0  0  0  0  0  0  0
   -3.2740    2.2050   -0.3850 C   0  0  0  0  0  0  0  0  0  0  0  0
   -2.4630    2.8180   -1.3100 C   0  0  0  0  0  0  0  0  0  0  0  0
   -2.8750    3.1670   -2.5680 C   0  0  0  0  0  0  0  0  0  0  0  0
   -4.1760    2.8970   -2.9550 C   0  0  0  0  0  0  0  0  0  0  0  0
   -4.6850    3.2530   -4.2990 C   0  0  0  0  0  0  0  0  0  0  0  0
   -5.0190    2.2800   -2.0510 C   0  0  0  0  0  0  0  0  0  0  0  0
   -4.5810    1.9360   -0.7820 C   0  0  0  0  0  0  0  0  0  0  0  0
  1  2  1  0
  2  3  2  0
  2  4  1  0
  4  5  2  3
  4  7  1  0
  5  6  1  0
  7  8  2  0
  7  9  1  0
  9 10  1  0
 10 11  1  0
 11 12  2  0
 11 13  1  0
 13 14  1  0
 14 15  1  0
 15 16  2  3
 15 25  1  0
 16 17  1  0
 17 18  1  0
 17 19  2  3
 19 20  1  0
 20 21  1  6
 20 22  1  0
 22 23  1  6
 22 24  1  0
 23 24  1  0
 25 26  2  3
 25 28  1  0
 26 27  1  0
 28 29  1  0
 29 30  2  0
 29 35  1  0
 30 31  1  0
 31 32  2  0
 32 33  1  0
 32 34  1  0
 34 35  2  0
M  END
