
     RDKit          3D

 34 38  0  0  0  0  0  0  0  0999 V2000
   -0.7520   -0.0350   -2.8440 C   0  0  0  0  0  0  0  0  0  0  0  0
   -0.9050    1.1990   -2.0230 C   0  0  0  0  0  0  0  0  0  0  0  0
   -0.1290    1.0190   -0.6590 C   0  0  2  0  0  0  0  0  0  0  0  0
   -0.7150   -0.0970   -0.0530 N   0  0  0  0  0  0  0  0  0  0  0  0
   -2.0490   -0.4290    0.2470 C   0  0  0  0  0  0  0  0  0  0  0  0
   -3.0580    0.4710    0.2000 C   0  0  0  0  0  0  0  0  0  0  0  0
   -4.3790    0.1580    0.5350 C   0  0  0  0  0  0  0  0  0  0  0  0
   -4.6980   -1.1050    0.9340 C   0  0  0  0  0  0  0  0  0  0  0  0
   -3.6930   -2.0530    0.9950 C   0  0  0  0  0  0  0  0  0  0  0  0
   -4.0930   -3.3140    1.3970 C   0  0  0  0  0  0  0  0  0  0  0  0
   -3.1310   -4.2990    1.4620 C   0  0  0  0  0  0  0  0  0  0  0  0
   -1.8370   -3.9920    1.1300 C   0  0  0  0  0  0  0  0  0  0  0  0
   -1.4470   -2.6970    0.7220 C   0  0  0  0  0  0  0  0  0  0  0  0
   -2.3930   -1.7280    0.6590 C   0  0  0  0  0  0  0  0  0  0  0  0
   -0.2290    2.3320    0.0040 C   0  0  0  0  0  0  0  0  0  0  0  0
   -0.8730    2.8530    1.0320 C   0  0  0  0  0  0  0  0  0  0  0  0
   -0.6060    4.2660    1.2260 C   0  0  0  0  0  0  0  0  0  0  0  0
   -1.1310    5.1100    2.2230 O   0  0  0  0  0  0  0  0  0  0  0  0
   -2.1770    6.0380    1.8880 C   0  0  0  0  0  0  0  0  0  0  0  0
    0.2330    4.6340    0.2870 C   0  0  0  0  0  0  0  0  0  0  0  0
    0.5340    3.4280   -0.5450 C   0  0  0  0  0  0  0  0  0  0  0  0
    1.5570    3.2910   -1.3970 C   0  0  0  0  0  0  0  0  0  0  0  0
    1.9140    1.9240   -1.7160 C   0  0  0  0  0  0  0  0  0  0  0  0
    2.8470    1.6450   -2.5280 O   0  0  0  0  0  0  0  0  0  0  0  0
    1.2250    0.8030   -1.1240 N   0  0  0  0  0  0  0  0  0  0  0  0
    1.9780   -0.4270   -1.0710 C   0  0  0  0  0  0  0  0  0  0  0  0
    2.8330   -0.5470    0.1570 C   0  0  0  0  0  0  0  0  0  0  0  0
    3.6080   -1.7630    0.2030 N   0  0  0  0  0  0  0  0  0  0  0  0
    4.8280   -1.7450   -0.3950 C   0  0  0  0  0  0  0  0  0  0  0  0
    5.6450   -2.8510   -0.4190 C   0  0  0  0  0  0  0  0  0  0  0  0
    5.2350   -4.0250    0.1750 C   0  0  0  0  0  0  0  0  0  0  0  0
    4.0090   -4.0450    0.7770 C   0  0  0  0  0  0  0  0  0  0  0  0
    3.2340   -2.9120    0.7710 C   0  0  0  0  0  0  0  0  0  0  0  0
    2.0950   -2.9210    1.3290 O   0  0  0  0  0  0  0  0  0  0  0  0
  1  2  1  0
  3  2  1  6
  3  4  1  0
  3 15  1  0
  3 25  1  0
  4  5  1  0
  5  6  2  0
  5 14  1  0
  6  7  1  0
  7  8  2  0
  8  9  1  0
  9 10  2  0
  9 14  1  0
 10 11  1  0
 11 12  2  0
 12 13  1  0
 13 14  2  0
 15 16  2  0
 15 21  1  0
 16 17  1  0
 17 18  1  0
 17 20  2  0
 18 19  1  0
 20 21  1  0
 21 22  2  0
 22 23  1  0
 23 24  2  0
 23 25  1  0
 25 26  1  0
 26 27  1  0
 27 28  1  0
 28 29  1  0
 28 33  1  0
 29 30  2  0
 30 31  1  0
 31 32  2  0
 32 33  1  0
 33 34  2  0
M  END
