
     RDKit          3D

 35 36  0  0  0  0  0  0  0  0999 V2000
   -3.9520    3.6510   -1.9970 C   0  0  0  0  0  0  0  0  0  0  0  0
   -4.6860    3.2770   -0.7250 C   0  0  0  0  0  0  0  0  0  0  0  0
   -3.8500    2.5760    0.2830 C   0  0  1  0  0  0  0  0  0  0  0  0
   -4.7380    2.3130    1.3660 O   0  0  0  0  0  0  0  0  0  0  0  0
   -2.9610    1.5050   -0.0300 C   0  0  0  0  0  0  0  0  0  0  0  0
   -3.2100    0.1580   -0.5630 C   0  0  1  0  0  0  0  0  0  0  0  0
   -1.8350   -0.4480   -0.6380 N   0  0  0  0  0  0  0  0  0  0  0  0
   -1.7250   -1.7590   -1.0880 C   0  0  0  0  0  0  0  0  0  0  0  0
   -2.7920   -2.4100   -1.4200 O   0  0  0  0  0  0  0  0  0  0  0  0
   -0.4440   -2.4770   -1.2160 C   0  0  0  0  0  0  0  0  0  0  0  0
    0.6780   -1.6840   -0.8270 N   0  0  0  0  0  0  0  0  0  0  0  0
    2.0200   -2.2620   -0.9000 C   0  0  0  0  0  0  0  0  0  0  0  0
    2.0970   -3.4310   -1.3050 O   0  0  0  0  0  0  0  0  0  0  0  0
    3.1530   -1.5130   -0.5260 N   0  0  0  0  0  0  0  0  0  0  0  0
    4.4900   -1.9860   -0.5630 C   0  0  0  0  0  0  0  0  0  0  0  0
    4.8860   -3.2210   -0.9620 C   0  0  0  0  0  0  0  0  0  0  0  0
    6.2370   -3.5920   -0.9610 C   0  0  0  0  0  0  0  0  0  0  0  0
    7.2040   -2.7090   -0.5540 C   0  0  0  0  0  0  0  0  0  0  0  0
    6.8270   -1.4510   -0.1460 C   0  0  0  0  0  0  0  0  0  0  0  0
    5.4980   -1.0830   -0.1440 C   0  0  0  0  0  0  0  0  0  0  0  0
    5.0780    0.1550    0.2500 O   0  0  0  0  0  0  0  0  0  0  0  0
    5.8650    1.1940    0.7300 C   0  0  0  0  0  0  0  0  0  0  0  0
    6.5290    0.9400    2.0420 C   0  0  0  0  0  0  0  0  0  0  0  0
    7.3880    2.0360    2.5690 C   0  0  0  0  0  0  0  0  0  0  0  0
    8.5490    2.4460    1.7460 C   0  0  0  0  0  0  0  0  0  0  0  0
    8.2500    2.9330    0.4900 O   0  0  0  0  0  0  0  0  0  0  0  0
   -3.8980   -0.7020    0.4480 C   0  0  0  0  0  0  0  0  0  0  0  0
   -3.2510   -1.6090    0.9850 O   0  0  0  0  0  0  0  0  0  0  0  0
   -5.2110   -0.5650    0.8360 O   0  0  0  0  0  0  0  0  0  0  0  0
   -5.8090   -1.3970    1.7880 C   0  0  1  0  0  0  0  0  0  0  0  0
   -6.2600   -0.6400    3.0210 C   0  0  0  0  0  0  0  0  0  0  0  0
   -6.9600   -2.2130    1.2170 C   0  0  0  0  0  0  0  0  0  0  0  0
   -3.7450    0.0720   -1.9100 C   0  0  2  0  0  0  0  0  0  0  0  0
   -5.0840    0.5920   -2.3550 C   0  0  0  0  0  0  0  0  0  0  0  0
   -4.6340   -0.8880   -2.5380 C   0  0  0  0  0  0  0  0  0  0  0  0
  1  2  1  0
  2  3  1  0
  3  4  1  1
  3  5  1  0
  6  5  1  1
  6  7  1  0
  6 27  1  0
  6 33  1  0
  7  8  1  0
  8  9  2  0
  8 10  1  0
 10 11  1  0
 11 12  1  0
 12 13  2  0
 12 14  1  0
 14 15  1  0
 15 16  2  0
 15 20  1  0
 16 17  1  0
 17 18  2  0
 18 19  1  0
 19 20  2  0
 20 21  1  0
 21 22  1  0
 22 23  1  0
 23 24  1  0
 24 25  1  0
 25 26  1  0
 27 28  2  0
 27 29  1  0
 29 30  1  0
 30 31  1  1
 30 32  1  0
 33 34  1  1
 33 35  1  0
 34 35  1  0
M  END
