
     RDKit          3D

 35 36  0  0  0  0  0  0  0  0999 V2000
    1.5240    0.5940   -2.9210 C   0  0  0  0  0  0  0  0  0  0  0  0
    2.5520    0.6380   -1.8210 C   0  0  0  0  0  0  0  0  0  0  0  0
    3.8600    0.8890   -1.9960 N   0  0  0  0  0  0  0  0  0  0  0  0
    4.5270    0.8630   -0.8310 C   0  0  0  0  0  0  0  0  0  0  0  0
    5.9650    1.0850   -0.6060 C   0  0  0  0  0  0  0  0  0  0  0  0
    6.7070    1.3370   -1.5860 O   0  0  0  0  0  0  0  0  0  0  0  0
    6.5160    1.0230    0.6450 O   0  0  0  0  0  0  0  0  0  0  0  0
    7.8710    1.2220    0.9460 C   0  0  0  0  0  0  0  0  0  0  0  0
    8.2930    2.6200    0.5460 C   0  0  0  0  0  0  0  0  0  0  0  0
    9.6390    2.8460    0.8350 O   0  0  0  0  0  0  0  0  0  0  0  0
    3.5970    0.5800    0.1440 C   0  0  0  0  0  0  0  0  0  0  0  0
    3.7920    0.4330    1.6190 C   0  0  0  0  0  0  0  0  0  0  0  0
    2.3650    0.4410   -0.4820 C   0  0  0  0  0  0  0  0  0  0  0  0
    1.0940    0.1320    0.1770 C   0  0  0  0  0  0  0  0  0  0  0  0
    0.3580    1.0610    0.5850 O   0  0  0  0  0  0  0  0  0  0  0  0
    0.6550   -1.2470    0.3750 C   0  0  0  0  0  0  0  0  0  0  0  0
    1.4200   -2.2130   -0.0510 C   0  0  0  0  0  0  0  0  0  0  0  0
    1.2120   -3.6600    0.0230 C   0  0  0  0  0  0  0  0  0  0  0  0
    2.2990   -4.3610    0.8130 C   0  0  0  0  0  0  0  0  0  0  0  0
    2.0740   -5.7180    0.8610 O   0  0  0  0  0  0  0  0  0  0  0  0
   -0.6190   -1.4960    1.0570 C   0  0  0  0  0  0  0  0  0  0  0  0
   -1.7130   -0.8930    0.2740 N   0  0  0  0  0  0  0  0  0  0  0  0
   -3.0730   -0.9990    0.7430 C   0  0  0  0  0  0  0  0  0  0  0  0
   -3.2210   -1.6150    1.8220 O   0  0  0  0  0  0  0  0  0  0  0  0
   -4.1490   -0.4380    0.0180 N   0  0  0  0  0  0  0  0  0  0  0  0
   -5.5140   -0.4980    0.3950 C   0  0  0  0  0  0  0  0  0  0  0  0
   -5.9560   -1.3440    1.4040 C   0  0  0  0  0  0  0  0  0  0  0  0
   -7.3220   -1.4520    1.6830 C   0  0  0  0  0  0  0  0  0  0  0  0
   -8.2120   -0.7240    0.9580 C   0  0  0  0  0  0  0  0  0  0  0  0
   -7.7600    0.1110   -0.0390 C   0  0  0  0  0  0  0  0  0  0  0  0
   -6.4000    0.2470   -0.3450 C   0  0  0  0  0  0  0  0  0  0  0  0
   -6.0330    1.2290   -1.3600 C   0  0  0  0  0  0  0  0  0  0  0  0
   -5.7700    2.6180   -0.8670 C   0  0  0  0  0  0  0  0  0  0  0  0
   -4.6790    2.8480    0.0930 C   0  0  0  0  0  0  0  0  0  0  0  0
   -3.4130    2.5490   -0.3870 O   0  0  0  0  0  0  0  0  0  0  0  0
  1  2  1  0
  2  3  1  0
  2 13  2  0
  3  4  1  0
  4  5  1  0
  4 11  2  0
  5  6  2  0
  5  7  1  0
  7  8  1  0
  8  9  1  0
  9 10  1  0
 11 12  1  0
 11 13  1  0
 13 14  1  0
 14 15  2  0
 14 16  1  0
 16 17  2  3
 16 21  1  0
 17 18  1  0
 18 19  1  0
 19 20  1  0
 21 22  1  0
 22 23  1  0
 23 24  2  0
 23 25  1  0
 25 26  1  0
 26 27  2  0
 26 31  1  0
 27 28  1  0
 28 29  2  0
 29 30  1  0
 30 31  2  0
 31 32  1  0
 32 33  1  0
 33 34  1  0
 34 35  1  0
M  END
