
     RDKit          3D

 28 29  0  0  0  0  0  0  0  0999 V2000
    4.9460    2.5830    0.8400 C   0  0  0  0  0  0  0  0  0  0  0  0
    5.6870    2.1980   -0.1760 C   0  0  0  0  0  0  0  0  0  0  0  0
    6.8100    1.3620    0.0140 N   0  0  0  0  0  0  0  0  0  0  0  0
    6.7720    0.0920    0.6590 C   0  0  2  0  0  0  0  0  0  0  0  0
    8.4480   -0.5170    0.8400 Cl  0  0  0  0  0  0  0  0  0  0  0  0
    6.0180   -0.9330   -0.1000 C   0  0  0  0  0  0  0  0  0  0  0  0
    4.5750   -0.5940   -0.3380 C   0  0  0  0  0  0  0  0  0  0  0  0
    3.9580   -1.7580   -1.0860 C   0  0  0  0  0  0  0  0  0  0  0  0
    2.5250   -1.4770   -1.3960 C   0  0  0  0  0  0  0  0  0  0  0  0
    1.7320   -1.2720   -0.1570 C   0  0  0  0  0  0  0  0  0  0  0  0
    0.4050   -1.0190   -0.2780 O   0  0  0  0  0  0  0  0  0  0  0  0
   -0.4200   -1.9080   -0.8790 C   0  0  1  0  0  0  0  0  0  0  0  0
   -0.4170   -3.5180   -0.1740 Cl  0  0  0  0  0  0  0  0  0  0  0  0
   -1.7150   -1.3080   -0.7940 O   0  0  0  0  0  0  0  0  0  0  0  0
   -1.3430    0.1560   -1.7030 P   0  0  0  0  0  0  0  0  0  0  0  0
   -2.6810    1.1980   -1.8140 O   0  0  0  0  0  0  0  0  0  0  0  0
   -3.9110    0.5700   -1.7850 C   0  0  2  0  0  0  0  0  0  0  0  0
   -4.1500   -0.6830   -3.2230 Br  0  0  0  0  0  0  0  0  0  0  0  0
   -4.8920    1.5280   -1.8740 O   0  0  0  0  0  0  0  0  0  0  0  0
   -5.2600    1.7900   -0.5540 C   0  0  0  0  0  0  0  0  0  0  0  0
   -5.1830    0.4000    0.0390 C   0  0  2  0  0  0  0  0  0  0  0  0
   -6.3590   -0.4250   -0.3650 C   0  0  0  0  0  0  0  0  0  0  0  0
   -4.9430    0.4090    1.4030 O   0  0  0  0  0  0  0  0  0  0  0  0
   -6.0170    0.8910    2.1340 C   0  0  0  0  0  0  0  0  0  0  0  0
   -5.6840    0.8710    3.5940 C   0  0  0  0  0  0  0  0  0  0  0  0
   -4.0470   -0.1000   -0.5950 O   0  0  0  0  0  0  0  0  0  0  0  0
   -0.9530   -0.6360   -3.2750 N   0  0  0  0  0  0  0  0  0  0  0  0
   -0.3300   -2.0310   -2.7450 P   0  0  0  0  0  0  0  0  0  0  0  0
  1  2  2  0
  2  3  1  0
  3  4  1  0
  4  5  1  6
  4  6  1  0
  6  7  1  0
  7  8  1  0
  8  9  1  0
  9 10  1  0
 10 11  1  0
 11 12  1  0
 12 13  1  1
 12 14  1  0
 12 28  1  0
 14 15  1  0
 15 16  1  0
 15 27  1  0
 16 17  1  0
 17 18  1  6
 17 19  1  0
 17 26  1  0
 19 20  1  0
 20 21  1  0
 21 22  1  1
 21 23  1  0
 21 26  1  0
 23 24  1  0
 24 25  1  0
 27 28  2  0
M  END
