
     RDKit          3D

 28 29  0  0  0  0  0  0  0  0999 V2000
   -3.6440    3.1590    0.0590 C   0  0  0  0  0  0  0  0  0  0  0  0
   -4.5210    2.1850    0.0670 C   0  0  0  0  0  0  0  0  0  0  0  0
   -5.7480    2.5260    0.7120 O   0  0  0  0  0  0  0  0  0  0  0  0
   -4.3780    0.8960   -0.4690 N   0  0  0  0  0  0  0  0  0  0  0  0
   -3.2250    0.2330   -0.3930 C   0  0  0  0  0  0  0  0  0  0  0  0
   -1.7470    0.8710    0.4980 P   0  0  0  0  0  0  0  0  0  0  0  0
   -2.2180    1.7220    1.9350 O   0  0  0  0  0  0  0  0  0  0  0  0
   -0.7160   -0.4770    0.8730 O   0  0  0  0  0  0  0  0  0  0  0  0
    0.6580   -0.2830    0.9360 C   0  0  0  0  0  0  0  0  0  0  0  0
    1.2180    0.9550    0.7080 C   0  0  0  0  0  0  0  0  0  0  0  0
    2.5740    1.1780    0.7630 C   0  0  0  0  0  0  0  0  0  0  0  0
    3.4530    0.1440    1.0580 C   0  0  0  0  0  0  0  0  0  0  0  0
    4.8880    0.3440    1.1250 C   0  0  0  0  0  0  0  0  0  0  0  0
    5.5120    0.7820    2.3860 C   0  0  0  0  0  0  0  0  0  0  0  0
    4.8260    2.3510    2.8490 Cl  0  0  0  0  0  0  0  0  0  0  0  0
    5.8060    0.0780   -0.2120 P   0  0  0  0  0  0  0  0  0  0  0  0
    5.0530   -0.4370   -1.6850 O   0  0  0  0  0  0  0  0  0  0  0  0
    5.2530   -1.7300   -1.8040 O   0  0  0  0  0  0  0  0  0  0  0  0
    6.4660   -1.9150   -2.4630 C   0  0  0  0  0  0  0  0  0  0  0  0
    7.7390   -1.1680   -1.4950 Cl  0  0  0  0  0  0  0  0  0  0  0  0
    2.8690   -1.0980    1.2860 C   0  0  0  0  0  0  0  0  0  0  0  0
    1.5110   -1.3250    1.2310 C   0  0  0  0  0  0  0  0  0  0  0  0
   -3.0980   -1.0340   -0.9760 C   0  0  0  0  0  0  0  0  0  0  0  0
   -4.1520   -1.6170   -1.6310 C   0  0  0  0  0  0  0  0  0  0  0  0
   -4.0390   -2.9760   -2.2640 C   0  0  0  0  0  0  0  0  0  0  0  0
   -5.3020   -0.9260   -1.6900 N   0  0  0  0  0  0  0  0  0  0  0  0
   -5.4100    0.2870   -1.1290 C   0  0  0  0  0  0  0  0  0  0  0  0
   -6.5030    0.9310   -1.1910 N   0  0  0  0  0  0  0  0  0  0  0  0
  1  2  2  0
  2  3  1  0
  2  4  1  0
  4  5  1  0
  4 27  1  0
  5  6  1  0
  5 23  2  0
  6  7  1  0
  6  8  1  0
  8  9  1  0
  9 10  2  0
  9 22  1  0
 10 11  1  0
 11 12  2  0
 12 13  1  0
 12 21  1  0
 13 14  1  0
 13 16  2  3
 14 15  1  0
 16 17  1  0
 17 18  1  0
 18 19  1  0
 19 20  1  0
 21 22  2  0
 23 24  1  0
 24 25  1  0
 24 26  2  0
 26 27  1  0
 27 28  2  0
M  END
