
     RDKit          3D

 28 28  0  0  0  0  0  0  0  0999 V2000
    8.0250    0.6680    0.1850 C   0  0  0  0  0  0  0  0  0  0  0  0
    6.9810   -0.3040    0.7560 C   0  0  1  0  0  0  0  0  0  0  0  0
    6.5710    0.2880    2.3640 Cl  0  0  0  0  0  0  0  0  0  0  0  0
    5.9050   -0.3340   -0.1300 O   0  0  0  0  0  0  0  0  0  0  0  0
    5.7250   -1.5550   -0.7160 C   0  0  0  0  0  0  0  0  0  0  0  0
    4.5940   -1.5220   -1.6600 C   0  0  0  0  0  0  0  0  0  0  0  0
    4.3930   -2.4680   -2.4480 O   0  0  0  0  0  0  0  0  0  0  0  0
    3.6650   -0.3860   -1.7220 C   0  0  0  0  0  0  0  0  0  0  0  0
    3.6460    0.3770   -0.5430 O   0  0  0  0  0  0  0  0  0  0  0  0
    3.1880   -0.2270    0.6250 C   0  0  0  0  0  0  0  0  0  0  0  0
    1.8900   -0.5370    0.7030 C   0  0  0  0  0  0  0  0  0  0  0  0
    1.0570   -0.2550   -0.3550 O   0  0  0  0  0  0  0  0  0  0  0  0
   -0.2240    0.2210   -0.1340 C   0  0  0  0  0  0  0  0  0  0  0  0
   -0.6760    1.3210   -0.9060 N   0  0  0  0  0  0  0  0  0  0  0  0
   -1.0130   -0.3270    0.7680 C   0  0  0  0  0  0  0  0  0  0  0  0
   -2.3500    0.1190    1.0440 C   0  0  0  0  0  0  0  0  0  0  0  0
   -2.8180    1.0890    0.4000 O   0  0  0  0  0  0  0  0  0  0  0  0
   -3.1910   -0.5130    2.0490 C   0  0  0  0  0  0  0  0  0  0  0  0
   -4.3810   -0.1180    2.2980 N   0  0  0  0  0  0  0  0  0  0  0  0
   -5.0110    0.9620    1.6360 C   0  0  0  0  0  0  0  0  0  0  0  0
   -4.7050    2.1660    1.9640 N   0  0  0  0  0  0  0  0  0  0  0  0
   -6.0100    0.7500    0.5790 C   0  0  0  0  0  0  0  0  0  0  0  0
   -6.6160    1.8110   -0.0570 C   0  0  0  0  0  0  0  0  0  0  0  0
   -7.5600    1.6410   -1.0550 C   0  0  0  0  0  0  0  0  0  0  0  0
   -7.8680    0.4040   -1.3840 O   0  0  0  0  0  0  0  0  0  0  0  0
   -7.3210   -0.6390   -0.8110 C   0  0  0  0  0  0  0  0  0  0  0  0
   -7.7770   -2.1670   -1.2970 P   0  0  0  0  0  0  0  0  0  0  0  0
   -6.3810   -0.5170    0.1830 C   0  0  0  0  0  0  0  0  0  0  0  0
  2  1  1  6
  2  3  1  0
  2  4  1  0
  4  5  1  0
  5  6  1  0
  6  7  2  0
  6  8  1  0
  8  9  1  0
  9 10  1  0
 10 11  2  3
 11 12  1  0
 12 13  1  0
 13 14  1  0
 13 15  2  3
 15 16  1  0
 16 17  2  0
 16 18  1  0
 18 19  2  3
 19 20  1  0
 20 21  2  0
 20 22  1  0
 22 23  1  0
 22 28  2  0
 23 24  2  0
 24 25  1  0
 25 26  1  0
 26 27  2  0
 26 28  1  0
M  END
