
     RDKit          3D

 13 14  0  0  0  0  0  0  0  0999 V2000
    3.2680   -0.6970    0.1070 C   0  0  0  0  0  0  0  0  0  0  0  0
    1.8790   -0.2190    0.0840 C   0  0  0  0  0  0  0  0  0  0  0  0
    1.4810    1.1030    0.2000 C   0  0  0  0  0  0  0  0  0  0  0  0
    0.1030    1.0720    0.1230 C   0  0  0  0  0  0  0  0  0  0  0  0
   -0.8710    2.0570    0.1720 C   0  0  0  0  0  0  0  0  0  0  0  0
   -2.2250    1.7680    0.0670 C   0  0  0  0  0  0  0  0  0  0  0  0
   -2.5870    0.4340   -0.0920 C   0  0  0  0  0  0  0  0  0  0  0  0
   -1.6490   -0.5770   -0.1460 C   0  0  0  0  0  0  0  0  0  0  0  0
   -2.0970   -1.9100   -0.3090 N   0  0  0  0  0  0  0  0  0  0  0  0
   -3.1630   -2.1670   -0.8870 O   0  0  0  0  0  0  0  0  0  0  0  0
   -1.3490   -2.9490    0.1730 O   0  0  0  0  0  0  0  0  0  0  0  0
   -0.3320   -0.2320   -0.0370 C   0  0  0  0  0  0  0  0  0  0  0  0
    0.7850   -1.0000   -0.0570 N   0  0  0  0  0  0  0  0  0  0  0  0
  1  2  1  0
  2  3  2  0
  2 13  1  0
  3  4  1  0
  4  5  2  0
  4 12  1  0
  5  6  1  0
  6  7  2  0
  7  8  1  0
  8  9  1  0
  8 12  2  0
  9 10  2  0
  9 11  1  0
 12 13  1  0
M  CHG  2   9   1  11  -1
M  END
