
     RDKit          3D

 13 14  0  0  0  0  0  0  0  0999 V2000
    4.0710   -0.8040    0.4700 O   0  0  0  0  0  0  0  0  0  0  0  0
    3.5340    0.2450    0.0470 N   0  0  0  0  0  0  0  0  0  0  0  0
    4.3200    1.3030   -0.3270 O   0  0  0  0  0  0  0  0  0  0  0  0
    2.1290    0.3750   -0.0590 C   0  0  0  0  0  0  0  0  0  0  0  0
    1.2750   -0.6570    0.3020 C   0  0  0  0  0  0  0  0  0  0  0  0
   -0.0890   -0.4960    0.1870 C   0  0  0  0  0  0  0  0  0  0  0  0
   -0.9580   -1.5070    0.5390 C   0  0  0  0  0  0  0  0  0  0  0  0
   -2.3190   -1.3250    0.4150 C   0  0  0  0  0  0  0  0  0  0  0  0
   -2.8680   -0.1520   -0.0560 C   0  0  0  0  0  0  0  0  0  0  0  0
   -2.0030    0.8620   -0.4100 C   0  0  0  0  0  0  0  0  0  0  0  0
   -0.6280    0.6820   -0.2860 C   0  0  0  0  0  0  0  0  0  0  0  0
    0.2510    1.6820   -0.6340 C   0  0  0  0  0  0  0  0  0  0  0  0
    1.6000    1.5170   -0.5170 N   0  0  0  0  0  0  0  0  0  0  0  0
  1  2  2  0
  2  3  1  0
  2  4  1  0
  4  5  2  0
  4 13  1  0
  5  6  1  0
  6  7  2  0
  6 11  1  0
  7  8  1  0
  8  9  2  0
  9 10  1  0
 10 11  2  0
 11 12  1  0
 12 13  2  0
M  CHG  2   2   1   3  -1
M  END
