
     RDKit          3D

 22 22  0  0  0  0  0  0  0  0999 V2000
    5.7170    0.1320   -1.5020 C   0  0  0  0  0  0  0  0  0  0  0  0
    4.8150    1.1960   -1.3050 O   0  0  0  0  0  0  0  0  0  0  0  0
    3.6290    1.0230   -0.5680 C   0  0  0  0  0  0  0  0  0  0  0  0
    2.7690    2.0860   -0.3950 C   0  0  0  0  0  0  0  0  0  0  0  0
    1.5820    1.9480    0.3330 C   0  0  0  0  0  0  0  0  0  0  0  0
    1.2920    0.7210    0.8740 C   0  0  0  0  0  0  0  0  0  0  0  0
   -0.1840    0.5170    1.7890 S   0  0  1  0  0  0  0  0  0  0  0  0
    0.1270   -0.4160    2.9200 O   0  0  0  0  0  0  0  0  0  0  0  0
   -0.4790    1.8580    2.4170 O   0  0  0  0  0  0  0  0  0  0  0  0
   -1.4990    0.0570    0.8570 N   0  0  0  0  0  0  0  0  0  0  0  0
   -1.9150    0.9420   -0.1600 C   0  0  0  0  0  0  0  0  0  0  0  0
   -1.2540    0.6950   -1.4480 C   0  0  0  0  0  0  0  0  0  0  0  0
   -0.4150   -0.2220   -1.5740 O   0  0  0  0  0  0  0  0  0  0  0  0
   -1.5830    1.5160   -2.5540 N   0  0  0  0  0  0  0  0  0  0  0  0
   -1.0070    1.3310   -3.7550 O   0  0  0  0  0  0  0  0  0  0  0  0
   -1.7050   -1.3100    0.6010 C   0  0  0  0  0  0  0  0  0  0  0  0
   -2.5430   -2.0630    1.5650 C   0  0  2  0  0  0  0  0  0  0  0  0
   -2.6080   -3.3990    1.1060 O   0  0  0  0  0  0  0  0  0  0  0  0
   -3.9990   -1.5790    1.5620 C   0  0  0  0  0  0  0  0  0  0  0  0
   -4.5350   -1.6480    0.2790 O   0  0  0  0  0  0  0  0  0  0  0  0
    2.1440   -0.3510    0.7090 C   0  0  0  0  0  0  0  0  0  0  0  0
    3.3290   -0.2050   -0.0200 C   0  0  0  0  0  0  0  0  0  0  0  0
  1  2  1  0
  2  3  1  0
  3  4  2  0
  3 22  1  0
  4  5  1  0
  5  6  2  0
  6  7  1  0
  6 21  1  0
  7  8  2  0
  7  9  2  0
  7 10  1  6
 10 11  1  0
 10 16  1  0
 11 12  1  0
 12 13  2  0
 12 14  1  0
 14 15  1  0
 16 17  1  0
 17 18  1  6
 17 19  1  0
 19 20  1  0
 21 22  2  0
M  END
