
     RDKit          3D

 19 19  0  0  0  0  0  0  0  0999 V2000
   -5.8070   -1.1360   -1.1010 C   0  0  0  0  0  0  0  0  0  0  0  0
   -5.1280   -0.1000   -0.2300 C   0  0  2  0  0  0  0  0  0  0  0  0
   -6.0230    1.0880    0.0300 C   0  0  0  0  0  0  0  0  0  0  0  0
   -3.8940    0.2630   -0.8610 N   0  0  0  0  0  0  0  0  0  0  0  0
   -2.6570    0.0010   -0.2170 C   0  0  0  0  0  0  0  0  0  0  0  0
   -2.6840   -0.5610    0.9250 O   0  0  0  0  0  0  0  0  0  0  0  0
   -1.4240    0.3090   -0.7370 O   0  0  0  0  0  0  0  0  0  0  0  0
   -0.2240    0.0120   -0.0250 C   0  0  2  0  0  0  0  0  0  0  0  0
   -0.2170   -1.4920    0.1730 C   0  0  0  0  0  0  0  0  0  0  0  0
   -0.1510    0.6850    1.3050 C   0  0  0  0  0  0  0  0  0  0  0  0
    0.9170    0.4760   -0.8810 C   0  0  0  0  0  0  0  0  0  0  0  0
    2.2340    0.2290   -0.2620 C   0  0  0  0  0  0  0  0  0  0  0  0
    2.3590   -0.3140    0.8650 O   0  0  0  0  0  0  0  0  0  0  0  0
    3.4160    0.6120   -0.9490 N   0  0  0  0  0  0  0  0  0  0  0  0
    4.6740    0.3680   -0.3420 C   0  0  0  0  0  0  0  0  0  0  0  0
    5.6020   -0.4070   -0.9140 C   0  0  0  0  0  0  0  0  0  0  0  0
    6.7970   -0.4630   -0.0380 C   0  0  0  0  0  0  0  0  0  0  0  0
    6.3930    0.3940    1.1010 C   0  0  0  0  0  0  0  0  0  0  0  0
    5.1810    0.8680    0.9250 C   0  0  0  0  0  0  0  0  0  0  0  0
  2  1  1  6
  2  3  1  0
  2  4  1  0
  4  5  1  0
  5  6  2  0
  5  7  1  0
  7  8  1  0
  8  9  1  1
  8 10  1  0
  8 11  1  0
 11 12  1  0
 12 13  2  0
 12 14  1  0
 14 15  1  0
 15 16  2  0
 15 19  1  0
 16 17  1  0
 17 18  1  0
 18 19  2  0
M  END
