
     RDKit          3D

 19 18  0  0  0  0  0  0  0  0999 V2000
    3.8600    1.1620    1.4490 C   0  0  0  0  0  0  0  0  0  0  0  0
    3.8260   -0.1330    1.2820 C   0  0  0  0  0  0  0  0  0  0  0  0
    4.2340   -0.9520    2.3320 O   0  0  0  0  0  0  0  0  0  0  0  0
    3.3830   -0.7520    0.0570 C   0  0  0  0  0  0  0  0  0  0  0  0
    3.3900   -2.0910   -0.0340 C   0  0  0  0  0  0  0  0  0  0  0  0
    2.9730   -2.8590   -1.2050 C   0  0  0  0  0  0  0  0  0  0  0  0
    2.9240    0.0730   -1.0740 C   0  0  0  0  0  0  0  0  0  0  0  0
    1.7890    0.8580   -0.6720 N   0  0  0  0  0  0  0  0  0  0  0  0
    0.6200    0.2380   -0.1890 C   0  0  0  0  0  0  0  0  0  0  0  0
    0.5500   -1.0360   -0.1020 O   0  0  0  0  0  0  0  0  0  0  0  0
   -0.4810    1.0540    0.1990 N   0  0  0  0  0  0  0  0  0  0  0  0
   -0.4260    2.4800    0.1370 C   0  0  0  0  0  0  0  0  0  0  0  0
   -0.8300    3.0880   -1.1720 C   0  0  0  0  0  0  0  0  0  0  0  0
   -0.7310    4.5010   -1.1100 O   0  0  0  0  0  0  0  0  0  0  0  0
   -1.6600    0.3350    0.6910 C   0  0  0  0  0  0  0  0  0  0  0  0
   -2.6240   -0.0430   -0.3790 C   0  0  0  0  0  0  0  0  0  0  0  0
   -3.8260   -0.7930    0.1730 C   0  0  2  0  0  0  0  0  0  0  0  0
   -3.4020   -2.0760    0.8700 C   0  0  0  0  0  0  0  0  0  0  0  0
   -4.6990   -1.1590   -0.9990 C   0  0  0  0  0  0  0  0  0  0  0  0
  1  2  2  0
  2  3  1  0
  2  4  1  0
  4  5  2  3
  4  7  1  0
  5  6  1  0
  7  8  1  0
  8  9  1  0
  9 10  2  0
  9 11  1  0
 11 12  1  0
 11 15  1  0
 12 13  1  0
 13 14  1  0
 15 16  1  0
 16 17  1  0
 17 18  1  6
 17 19  1  0
M  END
