
     RDKit          3D

 19 19  0  0  0  0  0  0  0  0999 V2000
    2.9430   -3.2730   -0.6550 C   0  0  0  0  0  0  0  0  0  0  0  0
    2.2620   -2.0180   -0.4940 N   0  0  0  0  0  0  0  0  0  0  0  0
    2.9140   -0.8720    0.0270 C   0  0  0  0  0  0  0  0  0  0  0  0
    4.2550   -0.9290    0.4030 C   0  0  0  0  0  0  0  0  0  0  0  0
    4.8840    0.1890    0.9090 C   0  0  0  0  0  0  0  0  0  0  0  0
    4.1960    1.3760    1.0490 C   0  0  0  0  0  0  0  0  0  0  0  0
    4.8440    2.4910    1.5600 O   0  0  0  0  0  0  0  0  0  0  0  0
    2.8690    1.4550    0.6840 C   0  0  0  0  0  0  0  0  0  0  0  0
    2.2610    0.3250    0.1800 C   0  0  0  0  0  0  0  0  0  0  0  0
    0.9470    0.4050   -0.1810 O   0  0  0  0  0  0  0  0  0  0  0  0
    0.1890    1.5960   -0.0610 C   0  0  0  0  0  0  0  0  0  0  0  0
   -1.2430    1.3370   -0.5540 C   0  0  0  0  0  0  0  0  0  0  0  0
   -1.7950    0.2580    0.3130 C   0  0  0  0  0  0  0  0  0  0  0  0
   -3.2060   -0.1560   -0.0060 C   0  0  2  0  0  0  0  0  0  0  0  0
   -3.5700   -1.2490    0.9770 C   0  0  0  0  0  0  0  0  0  0  0  0
   -3.3220   -0.7680   -1.3860 C   0  0  0  0  0  0  0  0  0  0  0  0
   -4.1910    0.9210    0.0900 C   0  0  0  0  0  0  0  0  0  0  0  0
   -4.1780    2.1030   -0.6770 N   0  0  0  0  0  0  0  0  0  0  0  0
   -5.1480    0.8170    0.9180 O   0  0  0  0  0  0  0  0  0  0  0  0
  1  2  1  0
  2  3  1  0
  3  4  2  0
  3  9  1  0
  4  5  1  0
  5  6  2  0
  6  7  1  0
  6  8  1  0
  8  9  2  0
  9 10  1  0
 10 11  1  0
 11 12  1  0
 12 13  1  0
 13 14  1  0
 14 15  1  1
 14 16  1  0
 14 17  1  0
 17 18  1  0
 17 19  2  0
M  END
