
     RDKit          3D

 21 22  0  0  0  0  0  0  0  0999 V2000
   -6.1240    0.2050   -0.5910 C   0  0  0  0  0  0  0  0  0  0  0  0
   -4.8550    0.4220    0.1340 C   0  0  0  0  0  0  0  0  0  0  0  0
   -4.8600    1.1350    1.1640 O   0  0  0  0  0  0  0  0  0  0  0  0
   -3.5920   -0.1590   -0.2960 C   0  0  0  0  0  0  0  0  0  0  0  0
   -2.4180    0.0740    0.4220 C   0  0  0  0  0  0  0  0  0  0  0  0
   -1.2180   -0.4470    0.0570 C   0  0  0  0  0  0  0  0  0  0  0  0
   -0.0060   -0.2610    0.7380 N   0  0  0  0  0  0  0  0  0  0  0  0
    0.1400    0.3700    1.9820 C   0  0  0  0  0  0  0  0  0  0  0  0
   -0.8520    0.8270    2.6110 O   0  0  0  0  0  0  0  0  0  0  0  0
    1.4830    0.5390    2.6420 C   0  0  0  0  0  0  0  0  0  0  0  0
    2.5550    0.1420    1.8400 O   0  0  0  0  0  0  0  0  0  0  0  0
    2.9040    0.7280    0.6510 C   0  0  0  0  0  0  0  0  0  0  0  0
    2.2570    1.6860    0.2160 O   0  0  0  0  0  0  0  0  0  0  0  0
    4.0390    0.2560   -0.1450 C   0  0  0  0  0  0  0  0  0  0  0  0
    4.4920    0.7850   -1.3910 C   0  0  0  0  0  0  0  0  0  0  0  0
    5.5560    0.1720   -1.9170 C   0  0  0  0  0  0  0  0  0  0  0  0
    6.1380   -0.8580   -1.3080 C   0  0  0  0  0  0  0  0  0  0  0  0
    5.1400   -1.0350    0.1570 S   0  0  0  0  0  0  0  0  0  0  0  0
   -1.2410   -1.2440   -1.1020 C   0  0  0  0  0  0  0  0  0  0  0  0
   -2.3760   -1.4850   -1.8200 C   0  0  0  0  0  0  0  0  0  0  0  0
   -3.5110   -0.9260   -1.3800 N   0  0  0  0  0  0  0  0  0  0  0  0
  1  2  1  0
  2  3  2  0
  2  4  1  0
  4  5  2  0
  4 21  1  0
  5  6  1  0
  6  7  1  0
  6 19  2  0
  7  8  1  0
  8  9  2  0
  8 10  1  0
 10 11  1  0
 11 12  1  0
 12 13  2  0
 12 14  1  0
 14 15  2  0
 14 18  1  0
 15 16  1  0
 16 17  2  0
 17 18  1  0
 19 20  1  0
 20 21  2  0
M  END
