
     RDKit          3D

 21 22  0  0  0  0  0  0  0  0999 V2000
    7.4190   -0.5540   -0.3970 C   0  0  0  0  0  0  0  0  0  0  0  0
    5.6650   -0.1310   -0.6630 S   0  0  0  0  0  0  0  0  0  0  0  0
    4.6800   -1.1970    0.3900 C   0  0  0  0  0  0  0  0  0  0  0  0
    3.1970   -0.9360    0.2540 C   0  0  1  0  0  0  0  0  0  0  0  0
    2.8510    0.4890    0.6260 C   0  0  0  0  0  0  0  0  0  0  0  0
    1.3820    0.5370    0.6910 N   0  0  0  0  0  0  0  0  0  0  0  0
    0.7620    1.0930    1.8160 C   0  0  0  0  0  0  0  0  0  0  0  0
    1.4990    1.5460    2.7570 O   0  0  0  0  0  0  0  0  0  0  0  0
   -0.7040    1.2080    2.0240 C   0  0  0  0  0  0  0  0  0  0  0  0
   -1.3240    0.6510    0.8810 O   0  0  0  0  0  0  0  0  0  0  0  0
   -2.7100    0.5960    0.7440 C   0  0  0  0  0  0  0  0  0  0  0  0
   -3.3740    1.0780    1.7110 O   0  0  0  0  0  0  0  0  0  0  0  0
   -3.3400    0.0350   -0.4070 N   0  0  0  0  0  0  0  0  0  0  0  0
   -4.7530    0.0030   -0.4990 C   0  0  0  0  0  0  0  0  0  0  0  0
   -5.4510    0.5920   -1.4520 C   0  0  0  0  0  0  0  0  0  0  0  0
   -6.8940    0.3370   -1.2140 C   0  0  0  0  0  0  0  0  0  0  0  0
   -6.8970   -0.4840    0.0150 C   0  0  0  0  0  0  0  0  0  0  0  0
   -5.6600   -0.6760    0.4270 C   0  0  0  0  0  0  0  0  0  0  0  0
    0.7020   -0.0120   -0.4510 C   0  0  0  0  0  0  0  0  0  0  0  0
    1.7710   -0.3980   -1.4640 C   0  0  0  0  0  0  0  0  0  0  0  0
    2.7120   -1.2680   -0.9800 O   0  0  0  0  0  0  0  0  0  0  0  0
  1  2  1  0
  2  3  1  0
  4  3  1  6
  4  5  1  0
  4 21  1  0
  5  6  1  0
  6  7  1  0
  6 19  1  0
  7  8  2  0
  7  9  1  0
  9 10  1  0
 10 11  1  0
 11 12  2  0
 11 13  1  0
 13 14  1  0
 14 15  2  0
 14 18  1  0
 15 16  1  0
 16 17  1  0
 17 18  2  0
 19 20  1  0
 20 21  1  0
M  END
