
     RDKit          3D

 19 19  0  0  0  0  0  0  0  0999 V2000
   -3.2670    0.9640    1.0100 C   0  0  0  0  0  0  0  0  0  0  0  0
   -3.4330   -0.2940    0.2470 C   0  0  0  0  0  0  0  0  0  0  0  0
   -2.7500   -0.6100   -0.8100 C   0  0  0  0  0  0  0  0  0  0  0  0
   -1.4820    0.1680   -1.7300 S   0  0  0  0  0  0  0  0  0  0  0  0
   -0.7630    1.6340   -1.2120 C   0  0  0  0  0  0  0  0  0  0  0  0
    0.1200    1.6150    0.0030 C   0  0  0  0  0  0  0  0  0  0  0  0
    1.2610    0.8240   -0.0860 O   0  0  0  0  0  0  0  0  0  0  0  0
    1.4000   -0.5230   -0.2290 C   0  0  0  0  0  0  0  0  0  0  0  0
    0.3700   -1.2240   -0.2890 O   0  0  0  0  0  0  0  0  0  0  0  0
    2.7690   -1.1650   -0.3130 C   0  0  0  0  0  0  0  0  0  0  0  0
    3.7710   -0.1730   -0.2160 O   0  0  0  0  0  0  0  0  0  0  0  0
    5.1100   -0.4490   -0.2590 C   0  0  0  0  0  0  0  0  0  0  0  0
    6.0620    0.5970   -0.1550 N   0  0  0  0  0  0  0  0  0  0  0  0
    5.4800   -1.6430   -0.3930 O   0  0  0  0  0  0  0  0  0  0  0  0
   -3.2370   -1.8990   -1.2390 N   0  0  0  0  0  0  0  0  0  0  0  0
   -4.1580   -2.3460   -0.4940 C   0  0  0  0  0  0  0  0  0  0  0  0
   -4.8230   -3.5150   -0.6170 F   0  0  0  0  0  0  0  0  0  0  0  0
   -4.3960   -1.3720    0.5490 C   0  0  0  0  0  0  0  0  0  0  0  0
   -5.2010   -1.3810    1.4990 O   0  0  0  0  0  0  0  0  0  0  0  0
  1  2  1  0
  2  3  2  0
  2 18  1  0
  3  4  1  0
  3 15  1  0
  4  5  1  0
  5  6  1  0
  6  7  1  0
  7  8  1  0
  8  9  2  0
  8 10  1  0
 10 11  1  0
 11 12  1  0
 12 13  1  0
 12 14  2  0
 15 16  2  0
 16 17  1  0
 16 18  1  0
 18 19  2  0
M  END
