
     RDKit          3D

 19 19  0  0  0  0  0  0  0  0999 V2000
   -2.8210   -2.2760    0.1710 O   0  0  0  0  0  0  0  0  0  0  0  0
   -2.7250   -1.0940   -0.2460 C   0  0  0  0  0  0  0  0  0  0  0  0
   -1.6730   -0.1380    0.2270 C   0  0  0  0  0  0  0  0  0  0  0  0
   -0.8090   -0.7480    1.2020 N   0  0  0  0  0  0  0  0  0  0  0  0
   -0.3520    0.1590    2.1790 C   0  0  0  0  0  0  0  0  0  0  0  0
   -0.0840    1.5640    1.7440 C   0  0  0  0  0  0  0  0  0  0  0  0
    0.3730    2.3370    2.8460 O   0  0  0  0  0  0  0  0  0  0  0  0
    0.4610   -1.6060    0.4770 S   0  0  2  0  0  0  0  0  0  0  0  0
   -0.1850   -2.6910   -0.3830 O   0  0  0  0  0  0  0  0  0  0  0  0
    1.2440   -2.2830    1.5940 O   0  0  0  0  0  0  0  0  0  0  0  0
    1.5410   -0.6420   -0.4980 C   0  0  0  0  0  0  0  0  0  0  0  0
    2.7330   -0.1240   -0.0220 C   0  0  0  0  0  0  0  0  0  0  0  0
    3.5780    0.6330   -0.7950 C   0  0  0  0  0  0  0  0  0  0  0  0
    3.2670    0.9150   -2.1080 C   0  0  0  0  0  0  0  0  0  0  0  0
    4.1020    1.6700   -2.8910 F   0  0  0  0  0  0  0  0  0  0  0  0
    2.0840    0.4100   -2.6060 C   0  0  0  0  0  0  0  0  0  0  0  0
    1.2400   -0.3500   -1.8240 C   0  0  0  0  0  0  0  0  0  0  0  0
   -3.6730   -0.6660   -1.2140 N   0  0  0  0  0  0  0  0  0  0  0  0
   -4.6290   -1.5330   -1.6450 O   0  0  0  0  0  0  0  0  0  0  0  0
  1  2  2  0
  2  3  1  0
  2 18  1  0
  3  4  1  0
  4  5  1  0
  8  4  1  1
  5  6  1  0
  6  7  1  0
  8  9  2  0
  8 10  2  0
  8 11  1  0
 11 12  2  0
 11 17  1  0
 12 13  1  0
 13 14  2  0
 14 15  1  0
 14 16  1  0
 16 17  2  0
 18 19  1  0
M  END
