
     RDKit          3D

 19 19  0  0  0  0  0  0  0  0999 V2000
    5.2310   -0.4860   -0.5860 N   0  0  0  0  0  0  0  0  0  0  0  0
    4.5840   -0.9980    0.5560 C   0  0  0  0  0  0  0  0  0  0  0  0
    5.3400   -1.1800    1.5730 O   0  0  0  0  0  0  0  0  0  0  0  0
    3.1640   -1.3310    0.6760 C   0  0  0  0  0  0  0  0  0  0  0  0
    2.3750   -1.1120   -0.4080 O   0  0  0  0  0  0  0  0  0  0  0  0
    2.2650    0.1740   -0.8700 C   0  0  0  0  0  0  0  0  0  0  0  0
    1.7200    1.1450    0.1120 C   0  0  0  0  0  0  0  0  0  0  0  0
    0.3760    0.8040    0.5790 N   0  0  0  0  0  0  0  0  0  0  0  0
   -0.6800    0.7580   -0.3420 C   0  0  0  0  0  0  0  0  0  0  0  0
   -0.4290    1.0250   -1.5670 O   0  0  0  0  0  0  0  0  0  0  0  0
   -2.0860    0.4210   -0.0170 C   0  0  0  0  0  0  0  0  0  0  0  0
   -2.9550    0.4220   -0.9920 C   0  0  0  0  0  0  0  0  0  0  0  0
   -4.3800    0.1430   -1.0160 C   0  0  0  0  0  0  0  0  0  0  0  0
   -4.9980   -0.2620    0.5700 S   0  0  2  0  0  0  0  0  0  0  0  0
   -5.6850   -1.6020    0.5970 O   0  0  0  0  0  0  0  0  0  0  0  0
   -6.0580    0.7370    1.0250 O   0  0  0  0  0  0  0  0  0  0  0  0
   -3.6830   -0.2020    1.6970 C   0  0  0  0  0  0  0  0  0  0  0  0
   -2.4650    0.1030    1.3410 C   0  0  0  0  0  0  0  0  0  0  0  0
   -1.5690    0.0940    2.3940 F   0  0  0  0  0  0  0  0  0  0  0  0
  1  2  1  0
  2  3  2  0
  2  4  1  0
  4  5  1  0
  5  6  1  0
  6  7  1  0
  7  8  1  0
  8  9  1  0
  9 10  2  0
  9 11  1  0
 11 12  2  0
 11 18  1  0
 12 13  1  0
 14 13  1  6
 14 15  2  0
 14 16  2  0
 14 17  1  0
 17 18  2  0
 18 19  1  0
M  END
