
     RDKit          3D

 18 18  0  0  0  0  0  0  0  0999 V2000
    3.5790   -1.9420    0.0940 C   0  0  0  0  0  0  0  0  0  0  0  0
    3.2360   -0.6230    0.6830 C   0  0  0  0  0  0  0  0  0  0  0  0
    2.5550   -0.6000    1.7320 O   0  0  0  0  0  0  0  0  0  0  0  0
    3.6580    0.5490    0.0870 O   0  0  0  0  0  0  0  0  0  0  0  0
    3.3590    1.8240    0.5950 C   0  0  0  0  0  0  0  0  0  0  0  0
    1.9360    2.1630    0.6330 C   0  0  0  0  0  0  0  0  0  0  0  0
    1.5090    3.2520    1.1460 O   0  0  0  0  0  0  0  0  0  0  0  0
    0.9220    1.3180    0.1080 N   0  0  0  0  0  0  0  0  0  0  0  0
   -0.4870    1.6990    0.1730 C   0  0  0  0  0  0  0  0  0  0  0  0
   -1.3250    0.6200   -0.4560 C   0  0  0  0  0  0  0  0  0  0  0  0
   -1.0720    0.2910   -1.8360 C   0  0  0  0  0  0  0  0  0  0  0  0
   -1.7460   -0.7050   -2.5730 N   0  0  0  0  0  0  0  0  0  0  0  0
   -0.1800    0.9260   -2.4600 O   0  0  0  0  0  0  0  0  0  0  0  0
   -2.2360   -0.0040    0.2260 C   0  0  0  0  0  0  0  0  0  0  0  0
   -3.1420   -1.0670   -0.2070 C   0  0  0  0  0  0  0  0  0  0  0  0
   -4.2210   -1.1660    0.6430 O   0  0  0  0  0  0  0  0  0  0  0  0
   -3.8230   -1.2440    1.9520 C   0  0  0  0  0  0  0  0  0  0  0  0
   -2.6840    0.2180    1.9590 S   0  0  0  0  0  0  0  0  0  0  0  0
  1  2  1  0
  2  3  2  0
  2  4  1  0
  4  5  1  0
  5  6  1  0
  6  7  2  0
  6  8  1  0
  8  9  1  0
  9 10  1  0
 10 11  1  0
 10 14  2  3
 11 12  1  0
 11 13  2  0
 14 15  1  0
 14 18  1  0
 15 16  1  0
 16 17  1  0
 17 18  1  0
M  END
