
     RDKit          3D

 18 18  0  0  0  0  0  0  0  0999 V2000
    4.0930   -1.9650    1.1480 C   0  0  0  0  0  0  0  0  0  0  0  0
    2.8700   -1.8190    0.2730 C   0  0  0  0  0  0  0  0  0  0  0  0
    2.3480   -0.6610    0.0260 C   0  0  0  0  0  0  0  0  0  0  0  0
    1.1790   -0.3140   -0.7860 C   0  0  0  0  0  0  0  0  0  0  0  0
    0.4390    0.8240   -0.2090 C   0  0  0  0  0  0  0  0  0  0  0  0
   -1.0150    1.0440   -0.4790 C   0  0  0  0  0  0  0  0  0  0  0  0
   -1.5780    2.0710    0.0420 O   0  0  0  0  0  0  0  0  0  0  0  0
   -1.8470    0.1750   -1.2910 C   0  0  2  0  0  0  0  0  0  0  0  0
   -1.3330   -0.0670   -2.6800 C   0  0  0  0  0  0  0  0  0  0  0  0
   -3.2450    0.8190   -1.4480 C   0  0  0  0  0  0  0  0  0  0  0  0
   -2.1130   -1.0970   -0.5800 C   0  0  0  0  0  0  0  0  0  0  0  0
   -1.9430   -2.2350   -1.0510 O   0  0  0  0  0  0  0  0  0  0  0  0
   -2.6010   -1.0050    0.7390 O   0  0  0  0  0  0  0  0  0  0  0  0
   -2.8680   -2.1860    1.4450 C   0  0  0  0  0  0  0  0  0  0  0  0
    1.1700    1.6270    0.5440 C   0  0  0  0  0  0  0  0  0  0  0  0
    0.5910    3.0880    1.3850 S   0  0  0  0  0  0  0  0  0  0  0  0
    1.9340    3.8580    2.3230 C   0  0  0  0  0  0  0  0  0  0  0  0
    2.8560    0.9560    0.5840 S   0  0  0  0  0  0  0  0  0  0  0  0
  1  2  1  0
  2  3  2  3
  3  4  1  0
  3 18  1  0
  4  5  1  0
  5  6  1  0
  5 15  2  0
  6  7  2  0
  6  8  1  0
  8  9  1  6
  8 10  1  0
  8 11  1  0
 11 12  2  0
 11 13  1  0
 13 14  1  0
 15 16  1  0
 15 18  1  0
 16 17  1  0
M  END
