
     RDKit          3D

 25 25  0  0  0  0  0  0  0  0999 V2000
   -8.2430   -0.5090    1.6650 C   0  0  0  0  0  0  0  0  0  0  0  0
   -7.3200   -0.1420    0.7440 C   0  0  0  0  0  0  0  0  0  0  0  0
   -6.1260   -0.9460    0.6110 C   0  0  0  0  0  0  0  0  0  0  0  0
   -5.4050   -0.8720   -0.5070 C   0  0  0  0  0  0  0  0  0  0  0  0
   -4.2160   -1.7040   -0.6290 C   0  0  0  0  0  0  0  0  0  0  0  0
   -3.0380   -0.8780   -0.8980 C   0  0  0  0  0  0  0  0  0  0  0  0
   -2.9250   -0.2980   -2.0470 O   0  0  0  0  0  0  0  0  0  0  0  0
   -1.9700   -0.6320    0.0360 N   0  0  0  0  0  0  0  0  0  0  0  0
   -0.9160    0.1490   -0.3480 N   0  0  0  0  0  0  0  0  0  0  0  0
    0.4350   -0.5050   -0.3570 C   0  0  0  0  0  0  0  0  0  0  0  0
    0.4310   -1.6470   -0.0370 O   0  0  0  0  0  0  0  0  0  0  0  0
    1.4010    0.4290   -0.7370 N   0  0  0  0  0  0  0  0  0  0  0  0
    2.7640   -0.6510   -0.7630 C   0  0  0  0  0  0  0  0  0  0  0  0
    2.5540   -1.6110   -0.1560 O   0  0  0  0  0  0  0  0  0  0  0  0
    3.8700   -0.1570   -1.5370 C   0  0  0  0  0  0  0  0  0  0  0  0
    5.2570   -0.3190   -1.0680 C   0  0  0  0  0  0  0  0  0  0  0  0
    5.6360    0.5580    0.0820 C   0  0  1  0  0  0  0  0  0  0  0  0
    4.9440    0.4210    1.3580 C   0  0  0  0  0  0  0  0  0  0  0  0
    5.0380   -0.8650    2.0910 C   0  0  0  0  0  0  0  0  0  0  0  0
    7.1270    0.3700    0.2600 C   0  0  0  0  0  0  0  0  0  0  0  0
    7.9320    1.3300    0.9040 N   0  0  0  0  0  0  0  0  0  0  0  0
    7.6450   -0.6610   -0.1830 O   0  0  0  0  0  0  0  0  0  0  0  0
   -5.7400    0.1590   -1.4610 C   0  0  0  0  0  0  0  0  0  0  0  0
   -6.6980    1.0430   -1.2920 C   0  0  0  0  0  0  0  0  0  0  0  0
   -7.5270    1.0590   -0.0710 C   0  0  0  0  0  0  0  0  0  0  0  0
  1  2  2  0
  2  3  1  0
  2 25  1  0
  3  4  2  0
  4  5  1  0
  4 23  1  0
  5  6  1  0
  6  7  2  0
  6  8  1  0
  8  9  1  0
  9 10  1  0
 10 11  2  0
 10 12  1  0
 12 13  1  0
 13 14  2  0
 13 15  1  0
 15 16  1  0
 17 16  1  6
 17 18  1  0
 17 20  1  0
 18 19  1  0
 20 21  1  0
 20 22  2  0
 23 24  2  0
 24 25  1  0
M  END
