
     RDKit          3D

 18 18  0  0  0  0  0  0  0  0999 V2000
    0.3780   -3.9490    1.0040 C   0  0  0  0  0  0  0  0  0  0  0  0
    0.1660   -2.6230    0.5340 O   0  0  0  0  0  0  0  0  0  0  0  0
    1.1440   -1.9280   -0.1670 C   0  0  0  0  0  0  0  0  0  0  0  0
    2.2270   -2.5490   -0.3580 O   0  0  0  0  0  0  0  0  0  0  0  0
    0.9200   -0.5740   -0.6430 C   0  0  0  0  0  0  0  0  0  0  0  0
    1.8410    0.0940   -1.3090 C   0  0  0  0  0  0  0  0  0  0  0  0
    3.4430   -0.5710   -1.6990 S   0  0  0  0  0  0  0  0  0  0  0  0
    4.5650   -0.4100   -0.3000 C   0  0  0  0  0  0  0  0  0  0  0  0
    4.8770    1.0080    0.0080 C   0  0  0  0  0  0  0  0  0  0  0  0
    4.2870    2.1030   -0.7890 C   0  0  0  0  0  0  0  0  0  0  0  0
    5.6370    1.2150    0.9440 O   0  0  0  0  0  0  0  0  0  0  0  0
   -0.3870    0.0630   -0.3660 C   0  0  0  0  0  0  0  0  0  0  0  0
   -1.7220   -0.9080   -1.1140 S   0  0  0  0  0  0  0  0  0  0  0  0
   -3.2850   -0.0690   -0.7320 C   0  0  1  0  0  0  0  0  0  0  0  0
   -3.5170   -0.1390    0.7530 C   0  0  0  0  0  0  0  0  0  0  0  0
   -4.1650    1.2030    1.0720 C   0  0  0  0  0  0  0  0  0  0  0  0
   -3.6240    2.1920    0.0960 C   0  0  0  0  0  0  0  0  0  0  0  0
   -3.2460    1.3900   -1.1000 C   0  0  0  0  0  0  0  0  0  0  0  0
  1  2  1  0
  2  3  1  0
  3  4  2  0
  3  5  1  0
  5  6  2  3
  5 12  1  0
  6  7  1  0
  7  8  1  0
  8  9  1  0
  9 10  1  0
  9 11  2  0
 12 13  1  0
 14 13  1  1
 14 15  1  0
 14 18  1  0
 15 16  1  0
 16 17  1  0
 17 18  1  0
M  END
