
     RDKit          3D

 19 21  0  0  0  0  0  0  0  0999 V2000
    3.4860   -0.1040    1.7910 C   0  0  0  0  0  0  0  0  0  0  0  0
    3.2790   -0.4960    0.4720 O   0  0  0  0  0  0  0  0  0  0  0  0
    2.1750   -0.3170   -0.3040 C   0  0  0  0  0  0  0  0  0  0  0  0
    1.0710    0.3220    0.1910 C   0  0  0  0  0  0  0  0  0  0  0  0
   -0.0710    0.5190   -0.5810 C   0  0  0  0  0  0  0  0  0  0  0  0
   -1.2340    1.2010    0.0080 C   0  0  2  0  0  0  0  0  0  0  0  0
   -0.8330    1.9880    1.1500 N   0  0  0  0  0  0  0  0  0  0  0  0
   -1.4520    1.5830    2.1850 C   0  0  0  0  0  0  0  0  0  0  0  0
   -2.3250    0.4810    1.8090 C   0  0  0  0  0  0  0  0  0  0  0  0
   -3.2150   -0.3870    2.3040 N   0  0  0  0  0  0  0  0  0  0  0  0
   -3.6310   -1.1430    1.3270 N   0  0  0  0  0  0  0  0  0  0  0  0
   -3.0160   -0.7700    0.1980 C   0  0  0  0  0  0  0  0  0  0  0  0
   -3.2270   -1.3330   -0.9190 O   0  0  0  0  0  0  0  0  0  0  0  0
   -2.1990    0.2400    0.4800 N   0  0  0  0  0  0  0  0  0  0  0  0
   -0.0920    0.0570   -1.8790 C   0  0  0  0  0  0  0  0  0  0  0  0
   -1.2440    0.2510   -2.7100 N   0  0  0  0  0  0  0  0  0  0  0  0
    1.0350   -0.5920   -2.3700 C   0  0  0  0  0  0  0  0  0  0  0  0
    2.1580   -0.7800   -1.5980 C   0  0  0  0  0  0  0  0  0  0  0  0
    3.2640   -1.4450   -2.1600 O   0  0  0  0  0  0  0  0  0  0  0  0
  1  2  1  0
  2  3  1  0
  3  4  2  0
  3 18  1  0
  4  5  1  0
  6  5  1  1
  5 15  2  0
  6  7  1  0
  6 14  1  0
  7  8  2  0
  8  9  1  0
  9 10  2  0
  9 14  1  0
 10 11  1  0
 11 12  1  0
 12 13  2  0
 12 14  1  0
 15 16  1  0
 15 17  1  0
 17 18  2  0
 18 19  1  0
M  END
