
     RDKit          3D

 19 22  0  0  0  0  0  0  0  0999 V2000
    5.0400   -0.4990    1.3220 N   0  0  0  0  0  0  0  0  0  0  0  0
    4.5550    0.0180    0.2990 C   0  0  0  0  0  0  0  0  0  0  0  0
    4.6790    1.4210    0.1630 O   0  0  0  0  0  0  0  0  0  0  0  0
    3.8890   -0.7970   -0.7460 C   0  0  0  0  0  0  0  0  0  0  0  0
    2.6230   -1.3170   -0.1390 N   0  0  0  0  0  0  0  0  0  0  0  0
    1.7880   -0.1360    0.0450 C   0  0  2  0  0  0  0  0  0  0  0  0
    0.6260   -0.3540    1.0020 C   0  0  0  0  0  0  0  0  0  0  0  0
   -0.5480    0.1600    0.3050 N   0  0  0  0  0  0  0  0  0  0  0  0
   -1.8650   -0.0860    0.6090 C   0  0  0  0  0  0  0  0  0  0  0  0
   -2.2540   -0.6660    1.6760 O   0  0  0  0  0  0  0  0  0  0  0  0
   -2.9530    0.2770   -0.2700 N   0  0  0  0  0  0  0  0  0  0  0  0
   -4.2350   -0.1220    0.2960 C   0  0  0  0  0  0  0  0  0  0  0  0
   -5.0930   -0.3660    0.6320 N   0  0  0  0  0  0  0  0  0  0  0  0
   -6.1480   -0.7040    1.1200 C   0  0  0  0  0  0  0  0  0  0  0  0
   -6.5370    0.6010    0.2750 C   0  0  0  0  0  0  0  0  0  0  0  0
   -5.4490    0.9640   -0.4400 C   0  0  0  0  0  0  0  0  0  0  0  0
   -0.0930    1.0220   -0.7750 C   0  0  0  0  0  0  0  0  0  0  0  0
    1.1240    0.2900   -1.2230 C   0  0  2  0  0  0  0  0  0  0  0  0
    0.6870   -0.9260   -1.8200 O   0  0  0  0  0  0  0  0  0  0  0  0
  1  2  2  0
  2  3  1  0
  2  4  1  0
  4  5  1  0
  6  5  1  6
  6  7  1  0
  6 18  1  0
  7  8  1  0
  8  9  1  0
  8 17  1  0
  9 10  2  0
  9 11  1  0
 11 12  1  0
 12 13  2  0
 12 16  1  0
 13 14  1  0
 14 15  2  0
 15 16  2  0
 17 18  1  0
 18 19  1  6
 15 13  1  0
 16 13  1  0
M  END
