
     RDKit          3D

 19 20  0  0  0  0  0  0  0  0999 V2000
    2.2310   -0.7580   -0.1180 O   0  0  0  0  0  0  0  0  0  0  0  0
    1.5900   -0.3570   -1.1230 C   0  0  0  0  0  0  0  0  0  0  0  0
    2.3290   -0.1230   -2.3060 N   0  0  0  0  0  0  0  0  0  0  0  0
    3.7080   -0.3260   -2.3590 N   0  0  0  0  0  0  0  0  0  0  0  0
    4.4650    0.2830   -1.5300 C   0  0  0  0  0  0  0  0  0  0  0  0
    4.0800    1.1810   -0.5120 N   0  0  0  0  0  0  0  0  0  0  0  0
    5.1150    1.6090    0.1400 C   0  0  0  0  0  0  0  0  0  0  0  0
    6.3460    0.9970   -0.4210 C   0  0  0  0  0  0  0  0  0  0  0  0
    5.8830    0.1570   -1.4860 N   0  0  0  0  0  0  0  0  0  0  0  0
    0.1490   -0.1410   -1.0800 C   0  0  0  0  0  0  0  0  0  0  0  0
   -0.4510    0.2600   -2.1080 O   0  0  0  0  0  0  0  0  0  0  0  0
   -0.5890   -0.3790    0.1110 N   0  0  0  0  0  0  0  0  0  0  0  0
   -2.0180   -0.1510    0.1050 C   0  0  2  0  0  0  0  0  0  0  0  0
   -2.3160    0.9420    1.0790 C   0  0  0  0  0  0  0  0  0  0  0  0
   -3.7360    0.9900    1.5470 C   0  0  0  0  0  0  0  0  0  0  0  0
   -4.1790   -0.3830    2.0050 C   0  0  0  0  0  0  0  0  0  0  0  0
   -4.1700   -1.2570    0.7660 C   0  0  1  0  0  0  0  0  0  0  0  0
   -4.9390   -0.6480   -0.2320 O   0  0  0  0  0  0  0  0  0  0  0  0
   -2.7420   -1.4360    0.3690 C   0  0  0  0  0  0  0  0  0  0  0  0
  1  2  2  0
  2  3  1  0
  2 10  1  0
  3  4  1  0
  4  5  2  3
  5  6  1  0
  5  9  1  0
  6  7  2  0
  7  8  1  0
  8  9  1  0
 10 11  2  0
 10 12  1  0
 13 12  1  1
 13 14  1  0
 13 19  1  0
 14 15  1  0
 15 16  1  0
 16 17  1  0
 17 18  1  6
 17 19  1  0
M  END
