
     RDKit          3D

 15 15  0  0  0  0  0  0  0  0999 V2000
    2.8270    1.1260   -2.3160 O   0  0  0  0  0  0  0  0  0  0  0  0
    2.6240    0.5100   -1.2150 C   0  0  0  0  0  0  0  0  0  0  0  0
    1.4400    0.8430   -0.3960 C   0  0  0  0  0  0  0  0  0  0  0  0
    1.4560   -0.0030    0.7790 N   0  0  0  0  0  0  0  0  0  0  0  0
    0.1030    0.3180    1.8060 S   0  0  1  0  0  0  0  0  0  0  0  0
    0.1590   -0.6380    2.9660 O   0  0  0  0  0  0  0  0  0  0  0  0
    0.0920    1.7170    2.2970 O   0  0  0  0  0  0  0  0  0  0  0  0
   -1.3440   -0.0380    0.8900 C   0  0  0  0  0  0  0  0  0  0  0  0
   -1.9240   -1.2950    0.8880 C   0  0  0  0  0  0  0  0  0  0  0  0
   -3.0600   -1.5260    0.1530 C   0  0  0  0  0  0  0  0  0  0  0  0
   -3.6250   -0.5110   -0.5850 C   0  0  0  0  0  0  0  0  0  0  0  0
   -3.0420    0.7360   -0.5780 C   0  0  0  0  0  0  0  0  0  0  0  0
   -1.9030    0.9910    0.1510 C   0  0  0  0  0  0  0  0  0  0  0  0
    3.5870   -0.4710   -0.8700 N   0  0  0  0  0  0  0  0  0  0  0  0
    4.6600   -0.7460   -1.6520 O   0  0  0  0  0  0  0  0  0  0  0  0
  1  2  2  0
  2  3  1  0
  2 14  1  0
  3  4  1  0
  5  4  1  6
  5  6  2  0
  5  7  2  0
  5  8  1  0
  8  9  2  0
  8 13  1  0
  9 10  1  0
 10 11  2  0
 11 12  1  0
 12 13  2  0
 14 15  1  0
M  END
