
     RDKit          3D

 27 30  0  0  0  0  0  0  0  0999 V2000
   -4.1120   -2.3000   -2.4320 C   0  0  0  0  0  0  0  0  0  0  0  0
   -4.0270   -0.9250   -1.9450 C   0  0  0  0  0  0  0  0  0  0  0  0
   -3.4960   -0.6020   -0.6650 C   0  0  0  0  0  0  0  0  0  0  0  0
   -4.3700   -0.2920    0.3580 C   0  0  0  0  0  0  0  0  0  0  0  0
   -3.9510    0.0190    1.5980 N   0  0  0  0  0  0  0  0  0  0  0  0
   -2.6530    0.0380    1.8920 C   0  0  0  0  0  0  0  0  0  0  0  0
   -1.7440   -0.2700    0.8860 C   0  0  0  0  0  0  0  0  0  0  0  0
   -2.1230   -0.5910   -0.3910 C   0  0  0  0  0  0  0  0  0  0  0  0
   -1.2690   -0.9380   -1.5220 C   0  0  0  0  0  0  0  0  0  0  0  0
    0.1160   -0.8420   -1.1020 N   0  0  0  0  0  0  0  0  0  0  0  0
    0.7370    0.3920   -0.7620 C   0  0  0  0  0  0  0  0  0  0  0  0
    0.0740    1.5900   -0.8910 C   0  0  0  0  0  0  0  0  0  0  0  0
    0.6860    2.7920   -0.5670 C   0  0  0  0  0  0  0  0  0  0  0  0
    1.9730    2.7800   -0.1110 C   0  0  0  0  0  0  0  0  0  0  0  0
    2.6690    1.5750    0.0300 C   0  0  0  0  0  0  0  0  0  0  0  0
    2.0400    0.3980   -0.2980 C   0  0  0  0  0  0  0  0  0  0  0  0
    2.7360   -0.8690   -0.1660 C   0  0  0  0  0  0  0  0  0  0  0  0
    3.3370   -1.1410    0.9660 C   0  0  0  0  0  0  0  0  0  0  0  0
    3.3720   -0.2910    2.1010 N   0  0  0  0  0  0  0  0  0  0  0  0
    3.9250   -0.6280    3.1860 C   0  0  0  0  0  0  0  0  0  0  0  0
    4.5660   -1.9250    3.3340 C   0  0  0  0  0  0  0  0  0  0  0  0
    4.5710   -2.7350    2.3490 N   0  0  0  0  0  0  0  0  0  0  0  0
    3.9870   -2.4590    1.1030 C   0  0  0  0  0  0  0  0  0  0  0  0
    3.9700   -3.2250    0.1150 O   0  0  0  0  0  0  0  0  0  0  0  0
    2.3450    4.0920    0.1370 O   0  0  0  0  0  0  0  0  0  0  0  0
    1.1850    4.8740    0.0720 C   0  0  0  0  0  0  0  0  0  0  0  0
    0.2320    4.1170   -0.6110 O   0  0  0  0  0  0  0  0  0  0  0  0
  1  2  1  0
  2  3  1  0
  3  4  2  0
  3  8  1  0
  4  5  1  0
  5  6  2  0
  6  7  1  0
  7  8  2  0
  8  9  1  0
  9 10  1  0
 10 11  1  0
 11 12  2  0
 11 16  1  0
 12 13  1  0
 13 14  2  0
 13 27  1  0
 14 15  1  0
 14 25  1  0
 15 16  2  0
 16 17  1  0
 17 18  2  3
 18 19  1  0
 18 23  1  0
 19 20  2  0
 20 21  1  0
 21 22  2  0
 22 23  1  0
 23 24  2  0
 25 26  1  0
 26 27  1  0
M  END
