
     RDKit          3D

 13 13  0  0  0  0  0  0  0  0999 V2000
   -3.4690   -0.7560    0.6360 C   0  0  0  0  0  0  0  0  0  0  0  0
   -2.5930   -0.1910   -0.4440 C   0  0  1  0  0  0  0  0  0  0  0  0
   -2.9430    1.2010   -0.8350 C   0  0  0  0  0  0  0  0  0  0  0  0
   -1.2150   -0.5010   -0.1300 C   0  0  0  0  0  0  0  0  0  0  0  0
   -0.9560   -1.6850    0.4900 C   0  0  0  0  0  0  0  0  0  0  0  0
    0.3270   -2.1210    0.8540 C   0  0  0  0  0  0  0  0  0  0  0  0
    1.3680   -1.2390    0.5280 C   0  0  0  0  0  0  0  0  0  0  0  0
    1.1320   -0.0590   -0.0840 C   0  0  0  0  0  0  0  0  0  0  0  0
    2.2190    0.8640   -0.4610 C   0  0  1  0  0  0  0  0  0  0  0  0
    2.9770    1.1270    0.9190 C   0  0  0  0  0  0  0  0  0  0  0  0
    3.3610    0.0740   -1.1890 C   0  0  0  0  0  0  0  0  0  0  0  0
   -0.1490    0.3200   -0.4230 C   0  0  0  0  0  0  0  0  0  0  0  0
   -0.4010    1.4940   -1.0400 O   0  0  0  0  0  0  0  0  0  0  0  0
  2  1  1  1
  2  3  1  0
  2  4  1  0
  4  5  2  0
  4 12  1  0
  5  6  1  0
  6  7  2  0
  7  8  1  0
  8  9  1  0
  8 12  2  0
  9 10  1  1
  9 11  1  0
 12 13  1  0
M  END
