
     RDKit          3D

 16 16  0  0  0  0  0  0  0  0999 V2000
    0.9390    1.6980   -0.0910 O   0  0  0  0  0  0  0  0  0  0  0  0
    0.5760    0.7350   -0.7990 C   0  0  0  0  0  0  0  0  0  0  0  0
    1.4910   -0.3660   -1.0680 C   0  0  0  0  0  0  0  0  0  0  0  0
    2.6980   -0.3140   -0.5490 C   0  0  0  0  0  0  0  0  0  0  0  0
    3.7060   -1.3930   -0.7680 C   0  0  0  0  0  0  0  0  0  0  0  0
    4.0580   -1.9360    0.6200 C   0  0  0  0  0  0  0  0  0  0  0  0
    4.5800   -0.8710    1.3650 O   0  0  0  0  0  0  0  0  0  0  0  0
   -0.7160    0.6970   -1.3450 N   0  0  0  0  0  0  0  0  0  0  0  0
   -1.6420    1.7630   -1.0930 C   0  0  0  0  0  0  0  0  0  0  0  0
   -1.9040    1.8460    0.3850 C   0  0  1  0  0  0  0  0  0  0  0  0
   -2.8190    2.8900    0.6010 O   0  0  0  0  0  0  0  0  0  0  0  0
   -2.4970    0.5690    0.8650 C   0  0  0  0  0  0  0  0  0  0  0  0
   -1.8490   -0.3870    1.6270 C   0  0  0  0  0  0  0  0  0  0  0  0
   -2.7680   -1.3950    1.8390 C   0  0  0  0  0  0  0  0  0  0  0  0
   -3.9530   -1.0270    1.2020 C   0  0  0  0  0  0  0  0  0  0  0  0
   -3.7620    0.1610    0.6230 N   0  0  0  0  0  0  0  0  0  0  0  0
  1  2  2  0
  2  3  1  0
  2  8  1  0
  3  4  2  3
  4  5  1  0
  5  6  1  0
  6  7  1  0
  8  9  1  0
  9 10  1  0
 10 11  1  6
 10 12  1  0
 12 13  2  0
 12 16  1  0
 13 14  1  0
 14 15  2  0
 15 16  1  0
M  END
