
     RDKit          3D

 16 16  0  0  0  0  0  0  0  0999 V2000
    3.9820    1.5450    1.1170 C   0  0  0  0  0  0  0  0  0  0  0  0
    3.1700    0.3270    0.8460 C   0  0  0  0  0  0  0  0  0  0  0  0
    2.9550   -0.5370    1.7300 O   0  0  0  0  0  0  0  0  0  0  0  0
    2.6030    0.0930   -0.4320 N   0  0  0  0  0  0  0  0  0  0  0  0
    1.8200   -1.0160   -0.8080 C   0  0  0  0  0  0  0  0  0  0  0  0
    0.5490   -1.2170   -0.0360 C   0  0  2  0  0  0  0  0  0  0  0  0
   -0.0510   -2.4840   -0.6790 C   0  0  0  0  0  0  0  0  0  0  0  0
   -0.2570   -2.2030   -2.0130 O   0  0  0  0  0  0  0  0  0  0  0  0
   -0.4130   -0.1220   -0.3270 C   0  0  0  0  0  0  0  0  0  0  0  0
   -0.2790    0.8470   -1.2960 C   0  0  0  0  0  0  0  0  0  0  0  0
   -1.3350    1.6760   -1.2890 N   0  0  0  0  0  0  0  0  0  0  0  0
   -2.1570    1.2500   -0.3180 C   0  0  0  0  0  0  0  0  0  0  0  0
   -3.4640    1.8850    0.0420 C   0  0  0  0  0  0  0  0  0  0  0  0
   -1.6170    0.1320    0.3040 C   0  0  0  0  0  0  0  0  0  0  0  0
   -2.2250   -0.6120    1.4110 C   0  0  0  0  0  0  0  0  0  0  0  0
   -3.4550    0.0000    1.7460 O   0  0  0  0  0  0  0  0  0  0  0  0
  1  2  1  0
  2  3  2  0
  2  4  1  0
  4  5  1  0
  6  5  1  6
  6  7  1  0
  6  9  1  0
  7  8  1  0
  9 10  2  0
  9 14  1  0
 10 11  1  0
 11 12  1  0
 12 13  1  0
 12 14  2  0
 14 15  1  0
 15 16  1  0
M  END
