
     RDKit          3D

 27 30  0  0  0  0  0  0  0  0999 V2000
   -6.0970    1.6540    1.3960 C   0  0  0  0  0  0  0  0  0  0  0  0
   -6.2700    1.3640    0.0710 O   0  0  0  0  0  0  0  0  0  0  0  0
   -5.9300    0.1320   -0.3680 C   0  0  0  0  0  0  0  0  0  0  0  0
   -4.5070   -0.1940   -0.4040 C   0  0  0  0  0  0  0  0  0  0  0  0
   -3.4920    0.6940   -0.1510 C   0  0  0  0  0  0  0  0  0  0  0  0
   -2.1500    0.2980   -0.2570 C   0  0  0  0  0  0  0  0  0  0  0  0
   -1.2170    1.2300    0.0090 N   0  0  0  0  0  0  0  0  0  0  0  0
    0.0770    0.8940   -0.0810 C   0  0  0  0  0  0  0  0  0  0  0  0
    0.4820   -0.3760   -0.4380 C   0  0  0  0  0  0  0  0  0  0  0  0
    1.9250   -0.6940   -0.5230 C   0  0  0  0  0  0  0  0  0  0  0  0
    2.6830    0.4550   -0.1960 O   0  0  0  0  0  0  0  0  0  0  0  0
    4.0820    0.4350   -0.1980 C   0  0  0  0  0  0  0  0  0  0  0  0
    4.7940   -0.7020   -0.5190 C   0  0  0  0  0  0  0  0  0  0  0  0
    6.1810   -0.7250   -0.5220 C   0  0  0  0  0  0  0  0  0  0  0  0
    6.8980    0.3950   -0.2020 C   0  0  0  0  0  0  0  0  0  0  0  0
    8.2810    0.4390   -0.1860 C   0  0  0  0  0  0  0  0  0  0  0  0
    8.9470    1.5620    0.1340 N   0  0  0  0  0  0  0  0  0  0  0  0
    8.2470    2.6640    0.4440 N   0  0  0  0  0  0  0  0  0  0  0  0
    6.9250    2.6370    0.4330 N   0  0  0  0  0  0  0  0  0  0  0  0
    6.1980    1.5500    0.1230 C   0  0  0  0  0  0  0  0  0  0  0  0
    4.7990    1.5660    0.1240 C   0  0  0  0  0  0  0  0  0  0  0  0
   -0.4670   -1.3340   -0.7110 C   0  0  0  0  0  0  0  0  0  0  0  0
   -0.1580   -2.4900   -1.0370 O   0  0  0  0  0  0  0  0  0  0  0  0
   -1.7950   -0.9780   -0.6160 C   0  0  0  0  0  0  0  0  0  0  0  0
   -2.8180   -1.8740   -0.8730 C   0  0  0  0  0  0  0  0  0  0  0  0
   -4.1320   -1.4930   -0.7690 C   0  0  0  0  0  0  0  0  0  0  0  0
   -5.2540   -2.4480   -1.0420 C   0  0  0  0  0  0  0  0  0  0  0  0
  1  2  1  0
  2  3  1  0
  3  4  1  0
  4  5  2  0
  4 26  1  0
  5  6  1  0
  6  7  1  0
  6 24  2  0
  7  8  1  0
  8  9  2  0
  9 10  1  0
  9 22  1  0
 10 11  1  0
 11 12  1  0
 12 13  2  0
 12 21  1  0
 13 14  1  0
 14 15  2  0
 15 16  1  0
 15 20  1  0
 16 17  2  0
 17 18  1  0
 18 19  2  0
 19 20  1  0
 20 21  2  0
 22 23  2  0
 22 24  1  0
 24 25  1  0
 25 26  2  0
 26 27  1  0
M  END
