
     RDKit          3D

 14 16  0  0  0  0  0  0  0  0999 V2000
    2.8730   -2.4100   -0.5400 C   0  0  0  0  0  0  0  0  0  0  0  0
    2.2900   -1.2400   -0.3730 C   0  0  0  0  0  0  0  0  0  0  0  0
    2.9820    0.0020   -0.4140 N   0  0  0  0  0  0  0  0  0  0  0  0
    2.3310    1.2500   -0.2320 N   0  0  0  0  0  0  0  0  0  0  0  0
    1.0650    1.3010   -0.0190 C   0  0  0  0  0  0  0  0  0  0  0  0
    0.2870    2.5630    0.1850 C   0  0  0  0  0  0  0  0  0  0  0  0
   -1.1160    2.2910   -0.3590 C   0  0  0  0  0  0  0  0  0  0  0  0
   -1.7840    1.2000    0.4500 C   0  0  0  0  0  0  0  0  0  0  0  0
   -1.0140   -0.0520    0.2460 C   0  0  0  0  0  0  0  0  0  0  0  0
   -1.2840   -1.4100    0.2100 C   0  0  0  0  0  0  0  0  0  0  0  0
   -2.6340   -1.9980    0.3990 C   0  0  0  0  0  0  0  0  0  0  0  0
   -0.1340   -2.0300   -0.0180 O   0  0  0  0  0  0  0  0  0  0  0  0
    0.8380   -1.1790   -0.1280 C   0  0  0  0  0  0  0  0  0  0  0  0
    0.3260    0.0650    0.0310 C   0  0  0  0  0  0  0  0  0  0  0  0
  1  2  2  0
  2  3  1  0
  2 13  1  0
  3  4  1  0
  4  5  2  0
  5  6  1  0
  5 14  1  0
  6  7  1  0
  7  8  1  0
  8  9  1  0
  9 10  2  0
  9 14  1  0
 10 11  1  0
 10 12  1  0
 12 13  1  0
 13 14  2  0
M  END
