
     RDKit          3D

 10 10  0  0  0  0  0  0  0  0999 V2000
   -2.1590   -1.9650    1.5700 C   0  0  0  0  0  0  0  0  0  0  0  0
   -1.4050   -1.3140    0.7100 C   0  0  0  0  0  0  0  0  0  0  0  0
    0.0220   -1.1220    0.8650 C   0  0  0  0  0  0  0  0  0  0  0  0
    0.6650   -0.1310    0.2290 C   0  0  0  0  0  0  0  0  0  0  0  0
    2.0870   -0.0390    0.4610 C   0  0  0  0  0  0  0  0  0  0  0  0
    2.9160    0.8190   -0.0350 C   0  0  0  0  0  0  0  0  0  0  0  0
    2.5390    1.8420   -0.9180 N   0  0  0  0  0  0  0  0  0  0  0  0
   -0.0180    0.8170   -0.6530 C   0  0  0  0  0  0  0  0  0  0  0  0
   -1.5320    0.6860   -0.6490 C   0  0  0  0  0  0  0  0  0  0  0  0
   -2.0150   -0.7180   -0.5230 C   0  0  0  0  0  0  0  0  0  0  0  0
  1  2  2  0
  2  3  1  0
  2 10  1  0
  3  4  2  0
  4  5  1  0
  4  8  1  0
  5  6  2  3
  6  7  1  0
  8  9  1  0
  9 10  1  0
M  END
