
     RDKit          3D

 10 10  0  0  0  0  0  0  0  0999 V2000
    3.4570   -0.5530   -0.3130 C   0  0  0  0  0  0  0  0  0  0  0  0
    2.0320   -0.8690    0.1070 C   0  0  0  0  0  0  0  0  0  0  0  0
    1.1450    0.1940   -0.3920 C   0  0  0  0  0  0  0  0  0  0  0  0
   -0.2990    0.0840   -0.0930 C   0  0  2  0  0  0  0  0  0  0  0  0
   -1.0370    1.2660   -0.6880 C   0  0  0  0  0  0  0  0  0  0  0  0
   -0.5440    2.5230   -0.1360 N   0  0  0  0  0  0  0  0  0  0  0  0
   -0.7050   -0.0860    1.3070 C   0  0  0  0  0  0  0  0  0  0  0  0
   -2.0320   -0.8270    1.2520 C   0  0  0  0  0  0  0  0  0  0  0  0
   -2.2320   -1.2510   -0.1750 C   0  0  0  0  0  0  0  0  0  0  0  0
   -0.8690   -1.1610   -0.7720 C   0  0  0  0  0  0  0  0  0  0  0  0
  1  2  1  0
  2  3  1  0
  4  3  1  1
  4  5  1  0
  4  7  1  0
  4 10  1  0
  5  6  1  0
  7  8  1  0
  8  9  1  0
  9 10  1  0
M  CHG  1   6   1
M  END
