
     RDKit          3D

 14 16  0  0  0  0  0  0  0  0999 V2000
   -2.8310   -2.1880    0.3710 C   0  0  0  0  0  0  0  0  0  0  0  0
   -2.0060   -0.9770    0.2250 C   0  0  0  0  0  0  0  0  0  0  0  0
   -2.4010    0.2940    0.0480 N   0  0  0  0  0  0  0  0  0  0  0  0
   -1.3560    1.1140   -0.0410 C   0  0  0  0  0  0  0  0  0  0  0  0
   -1.3130    2.5900   -0.2360 C   0  0  0  0  0  0  0  0  0  0  0  0
   -0.2290    0.3480    0.0830 C   0  0  0  0  0  0  0  0  0  0  0  0
   -0.6080   -0.9640    0.2500 C   0  0  0  0  0  0  0  0  0  0  0  0
    0.4600   -1.7320    0.3730 O   0  0  0  0  0  0  0  0  0  0  0  0
    1.5120   -0.9560    0.2900 C   0  0  0  0  0  0  0  0  0  0  0  0
    2.8780   -1.2270    0.3530 C   0  0  0  0  0  0  0  0  0  0  0  0
    3.7940   -0.2010    0.2340 C   0  0  0  0  0  0  0  0  0  0  0  0
    3.3580    1.0960    0.0530 C   0  0  0  0  0  0  0  0  0  0  0  0
    2.0390    1.3660   -0.0090 N   0  0  0  0  0  0  0  0  0  0  0  0
    1.1590    0.3590    0.1080 C   0  0  0  0  0  0  0  0  0  0  0  0
  1  2  1  0
  2  3  1  0
  2  7  2  0
  3  4  1  0
  4  5  1  0
  4  6  2  0
  6  7  1  0
  6 14  1  0
  7  8  1  0
  8  9  1  0
  9 10  2  0
  9 14  1  0
 10 11  1  0
 11 12  2  0
 12 13  1  0
 13 14  2  0
M  END
