
     RDKit          3D

 14 15  0  0  0  0  0  0  0  0999 V2000
    3.3700    1.9500   -0.3650 C   0  0  0  0  0  0  0  0  0  0  0  0
    3.6100    0.5910   -0.4520 O   0  0  0  0  0  0  0  0  0  0  0  0
    2.8220   -0.4660   -0.0790 C   0  0  0  0  0  0  0  0  0  0  0  0
    3.2680   -1.7320    0.0350 C   0  0  0  0  0  0  0  0  0  0  0  0
    2.1290   -2.5690    0.4530 C   0  0  0  0  0  0  0  0  0  0  0  0
    1.0070   -1.6630    0.5620 N   0  0  0  0  0  0  0  0  0  0  0  0
    1.4170   -0.4790    0.2580 C   0  0  0  0  0  0  0  0  0  0  0  0
    0.5550    0.6420    0.2700 N   0  0  0  0  0  0  0  0  0  0  0  0
   -0.8140    0.5540   -0.0580 C   0  0  0  0  0  0  0  0  0  0  0  0
   -1.2110   -0.1040   -1.1250 C   0  0  0  0  0  0  0  0  0  0  0  0
   -2.6390   -0.1870   -1.4550 C   0  0  0  0  0  0  0  0  0  0  0  0
   -3.5320   -0.2810   -0.2570 C   0  0  0  0  0  0  0  0  0  0  0  0
   -3.0320    0.3880    0.9720 C   0  0  0  0  0  0  0  0  0  0  0  0
   -1.8050    1.2140    0.8130 C   0  0  0  0  0  0  0  0  0  0  0  0
  1  2  1  0
  2  3  1  0
  3  4  2  0
  3  7  1  0
  4  5  1  0
  5  6  1  0
  6  7  2  0
  7  8  1  0
  8  9  1  0
  9 10  2  0
  9 14  1  0
 10 11  1  0
 11 12  1  0
 12 13  1  0
 13 14  1  0
M  END
