
     RDKit          3D

 14 16  0  0  0  0  0  0  0  0999 V2000
    3.4200   -0.5630    0.6050 C   0  0  0  0  0  0  0  0  0  0  0  0
    2.8520   -0.1010   -0.7170 C   0  0  0  0  0  0  0  0  0  0  0  0
    1.6260    0.6760   -0.5920 C   0  0  0  0  0  0  0  0  0  0  0  0
    1.4640    1.9670   -0.6980 O   0  0  0  0  0  0  0  0  0  0  0  0
    0.2150    2.3010   -0.5240 C   0  0  0  0  0  0  0  0  0  0  0  0
   -0.5310    1.1490   -0.2800 C   0  0  0  0  0  0  0  0  0  0  0  0
    0.3640    0.1110   -0.3210 C   0  0  0  0  0  0  0  0  0  0  0  0
   -0.0300   -1.2730   -0.0950 C   0  0  0  0  0  0  0  0  0  0  0  0
   -1.4710   -1.5550    0.0940 C   0  0  0  0  0  0  0  0  0  0  0  0
   -2.3340   -0.3840    0.1470 C   0  0  0  0  0  0  0  0  0  0  0  0
   -3.7170   -0.2830    0.3700 C   0  0  0  0  0  0  0  0  0  0  0  0
   -4.0610    0.9950    0.3120 N   0  0  0  0  0  0  0  0  0  0  0  0
   -2.9880    1.7490    0.0640 N   0  0  0  0  0  0  0  0  0  0  0  0
   -1.9340    0.9040   -0.0370 C   0  0  0  0  0  0  0  0  0  0  0  0
  1  2  1  0
  2  3  1  0
  3  4  1  0
  3  7  2  0
  4  5  1  0
  5  6  2  0
  6  7  1  0
  6 14  1  0
  7  8  1  0
  8  9  1  0
  9 10  1  0
 10 11  1  0
 10 14  2  0
 11 12  2  0
 12 13  1  0
 13 14  1  0
M  END
