
     RDKit          3D

 23 24  0  0  0  0  0  0  0  0999 V2000
   -4.1690   -0.5220    0.6260 C   0  0  0  0  0  0  0  0  0  0  0  0
   -3.9680    0.0710   -0.5560 C   0  0  0  0  0  0  0  0  0  0  0  0
   -4.8800   -0.2500   -1.6120 C   0  0  0  0  0  0  0  0  0  0  0  0
   -4.8720    0.1860   -2.8100 C   0  0  0  0  0  0  0  0  0  0  0  0
   -3.9450    1.1240   -3.4460 C   0  0  0  0  0  0  0  0  0  0  0  0
   -2.8190    1.0010   -0.6510 C   0  0  0  0  0  0  0  0  0  0  0  0
   -2.0350    0.9750    0.6120 C   0  0  0  0  0  0  0  0  0  0  0  0
   -2.1760    1.9920    1.5200 C   0  0  0  0  0  0  0  0  0  0  0  0
   -1.4740    2.0140    2.7070 C   0  0  0  0  0  0  0  0  0  0  0  0
   -0.6180    0.9560    2.9420 C   0  0  0  0  0  0  0  0  0  0  0  0
   -0.4620   -0.0740    2.0460 C   0  0  0  0  0  0  0  0  0  0  0  0
   -1.1650   -0.0860    0.8660 C   0  0  0  0  0  0  0  0  0  0  0  0
   -1.0810   -1.0610   -0.0850 O   0  0  0  0  0  0  0  0  0  0  0  0
   -0.2890   -2.2070   -0.0650 C   0  0  0  0  0  0  0  0  0  0  0  0
    1.1660   -1.9210    0.0050 C   0  0  0  0  0  0  0  0  0  0  0  0
    2.0040   -2.9640    0.2850 C   0  0  0  0  0  0  0  0  0  0  0  0
    3.3590   -2.7460    0.3550 C   0  0  0  0  0  0  0  0  0  0  0  0
    3.9130   -1.4840    0.1500 C   0  0  0  0  0  0  0  0  0  0  0  0
    3.0690   -0.4340   -0.1310 C   0  0  0  0  0  0  0  0  0  0  0  0
    3.6050    0.9380   -0.3610 C   0  0  0  0  0  0  0  0  0  0  0  0
    5.0460    0.9830   -0.3250 N   0  0  0  0  0  0  0  0  0  0  0  0
    5.5920    0.8900    1.0060 C   0  0  0  0  0  0  0  0  0  0  0  0
    1.7020   -0.6770   -0.1980 C   0  0  0  0  0  0  0  0  0  0  0  0
  1  2  2  0
  2  3  1  0
  2  6  1  0
  3  4  2  3
  4  5  1  0
  6  7  1  0
  7  8  2  0
  7 12  1  0
  8  9  1  0
  9 10  2  0
 10 11  1  0
 11 12  2  0
 12 13  1  0
 13 14  1  0
 14 15  1  0
 15 16  2  0
 15 23  1  0
 16 17  1  0
 17 18  2  0
 18 19  1  0
 19 20  1  0
 19 23  2  0
 20 21  1  0
 21 22  1  0
M  CHG  1  21   1
M  END
