
     RDKit          3D

 23 24  0  0  0  0  0  0  0  0999 V2000
   -4.8170   -4.0810    0.4060 C   0  0  0  0  0  0  0  0  0  0  0  0
   -3.7380   -3.9810   -0.6550 C   0  0  0  0  0  0  0  0  0  0  0  0
   -3.1460   -2.6240   -0.7100 C   0  0  0  0  0  0  0  0  0  0  0  0
   -1.8700   -2.4920   -0.4880 C   0  0  0  0  0  0  0  0  0  0  0  0
   -1.1600   -1.1890   -0.5140 C   0  0  0  0  0  0  0  0  0  0  0  0
    0.1370   -1.2650   -0.2690 C   0  0  0  0  0  0  0  0  0  0  0  0
    1.1570   -0.2300   -0.2070 C   0  0  0  0  0  0  0  0  0  0  0  0
    2.5620   -0.6760   -0.2000 C   0  0  0  0  0  0  0  0  0  0  0  0
    2.7680   -1.9190   -0.2470 O   0  0  0  0  0  0  0  0  0  0  0  0
    3.6870    0.2600   -0.1420 C   0  0  0  0  0  0  0  0  0  0  0  0
    4.9270   -0.4610   -0.1410 N   0  0  0  0  0  0  0  0  0  0  0  0
    5.3640   -0.8110    1.2180 C   0  0  0  0  0  0  0  0  0  0  0  0
    6.6770   -1.5440    1.1020 C   0  0  0  0  0  0  0  0  0  0  0  0
    1.0270    1.0840   -0.1560 C   0  0  0  0  0  0  0  0  0  0  0  0
   -0.2320    1.8160   -0.1480 C   0  0  0  0  0  0  0  0  0  0  0  0
   -0.0390    3.1450    0.1840 C   0  0  0  0  0  0  0  0  0  0  0  0
   -1.1030    4.0100    0.2490 C   0  0  0  0  0  0  0  0  0  0  0  0
   -0.8780    5.4310    0.6060 C   0  0  0  0  0  0  0  0  0  0  0  0
   -2.3360    3.4930   -0.0290 C   0  0  0  0  0  0  0  0  0  0  0  0
   -2.5620    2.1790   -0.3620 C   0  0  0  0  0  0  0  0  0  0  0  0
   -3.9450    1.7220   -0.6430 C   0  0  0  0  0  0  0  0  0  0  0  0
   -1.4810    1.2880   -0.4300 C   0  0  0  0  0  0  0  0  0  0  0  0
   -1.9970   -0.0250   -0.8010 C   0  0  0  0  0  0  0  0  0  0  0  0
  1  2  1  0
  2  3  1  0
  3  4  2  3
  4  5  1  0
  5  6  2  0
  5 23  1  0
  6  7  1  0
  7  8  1  0
  7 14  2  0
  8  9  2  0
  8 10  1  0
 10 11  1  0
 11 12  1  0
 12 13  1  0
 14 15  1  0
 15 16  2  0
 15 22  1  0
 16 17  1  0
 17 18  1  0
 17 19  2  0
 19 20  1  0
 20 21  1  0
 20 22  2  0
 22 23  1  0
M  CHG  1  11   1
M  END
