
     RDKit          3D

 23 24  0  0  0  0  0  0  0  0999 V2000
   -7.2770    2.0580   -1.6910 C   0  0  0  0  0  0  0  0  0  0  0  0
   -6.1660    1.8000   -0.7720 C   0  0  0  0  0  0  0  0  0  0  0  0
   -6.1130    0.7350   -0.0050 C   0  0  0  0  0  0  0  0  0  0  0  0
   -4.9800    0.5110    0.9050 C   0  0  2  0  0  0  0  0  0  0  0  0
   -3.6920    0.5940    0.1830 C   0  0  0  0  0  0  0  0  0  0  0  0
   -2.8480   -0.2740    0.6820 C   0  0  0  0  0  0  0  0  0  0  0  0
   -1.4820   -0.4580    0.2060 C   0  0  0  0  0  0  0  0  0  0  0  0
   -1.0060    0.2840   -0.8530 C   0  0  0  0  0  0  0  0  0  0  0  0
    0.2990    0.1230   -1.3180 C   0  0  0  0  0  0  0  0  0  0  0  0
    0.8070    0.9330   -2.4640 C   0  0  0  0  0  0  0  0  0  0  0  0
    1.1610   -0.7770   -0.7430 C   0  0  0  0  0  0  0  0  0  0  0  0
    2.5010   -0.9440   -1.2320 C   0  0  0  0  0  0  0  0  0  0  0  0
    2.6990   -1.8160   -2.1350 O   0  0  0  0  0  0  0  0  0  0  0  0
    3.6780   -0.1620   -0.7470 C   0  0  0  0  0  0  0  0  0  0  0  0
    4.7720   -1.0570   -0.2600 C   0  0  0  0  0  0  0  0  0  0  0  0
    5.9470   -0.2530    0.2130 C   0  0  0  0  0  0  0  0  0  0  0  0
    5.5490    0.6650    1.3320 C   0  0  0  0  0  0  0  0  0  0  0  0
    6.8430    1.3970    1.7410 C   0  0  0  0  0  0  0  0  0  0  0  0
    0.6560   -1.5070    0.3170 C   0  0  0  0  0  0  0  0  0  0  0  0
    1.6230   -2.4880    0.9320 C   0  0  0  0  0  0  0  0  0  0  0  0
   -0.6220   -1.3650    0.7890 C   0  0  0  0  0  0  0  0  0  0  0  0
   -3.5420   -1.0160    1.7730 C   0  0  0  0  0  0  0  0  0  0  0  0
   -4.9710   -0.8080    1.4760 N   0  0  0  0  0  0  0  0  0  0  0  0
  1  2  1  0
  2  3  2  3
  4  3  1  6
  4  5  1  0
  4 23  1  0
  5  6  2  0
  6  7  1  0
  6 22  1  0
  7  8  2  0
  7 21  1  0
  8  9  1  0
  9 10  1  0
  9 11  2  0
 11 12  1  0
 11 19  1  0
 12 13  2  0
 12 14  1  0
 14 15  1  0
 15 16  1  0
 16 17  1  0
 17 18  1  0
 19 20  1  0
 19 21  2  0
 22 23  1  0
M  CHG  1  23   1
M  END
