
     RDKit          3D

 23 24  0  0  0  0  0  0  0  0999 V2000
   -2.9630   -3.8640   -0.7880 C   0  0  0  0  0  0  0  0  0  0  0  0
   -2.9740   -2.3600   -0.6940 C   0  0  0  0  0  0  0  0  0  0  0  0
   -1.8030   -1.6460   -0.8360 C   0  0  0  0  0  0  0  0  0  0  0  0
   -1.7680   -0.2270   -0.7290 C   0  0  0  0  0  0  0  0  0  0  0  0
   -0.4550    0.4090   -0.6740 C   0  0  0  0  0  0  0  0  0  0  0  0
    0.5050   -0.2630    0.3240 C   0  0  0  0  0  0  0  0  0  0  0  0
    1.8090    0.4830    0.3660 C   0  0  0  0  0  0  0  0  0  0  0  0
    2.8490   -0.1380    1.2660 C   0  0  1  0  0  0  0  0  0  0  0  0
    3.2120   -1.5500    0.8300 C   0  0  0  0  0  0  0  0  0  0  0  0
    4.0400    0.6860    1.3510 N   0  0  0  0  0  0  0  0  0  0  0  0
    4.8090    0.6770    0.1400 C   0  0  0  0  0  0  0  0  0  0  0  0
    6.1460   -0.0530    0.3550 C   0  0  0  0  0  0  0  0  0  0  0  0
    6.9370   -0.0770   -0.8910 C   0  0  0  0  0  0  0  0  0  0  0  0
    6.5290   -0.6280   -1.8910 O   0  0  0  0  0  0  0  0  0  0  0  0
   -2.9240    0.4460   -0.4850 C   0  0  0  0  0  0  0  0  0  0  0  0
   -3.0150    1.9170   -0.5700 C   0  0  0  0  0  0  0  0  0  0  0  0
   -4.0480    2.5740   -0.0270 C   0  0  0  0  0  0  0  0  0  0  0  0
   -3.8940    4.0190   -0.2650 C   0  0  0  0  0  0  0  0  0  0  0  0
   -2.6530    4.1050   -1.0570 C   0  0  0  0  0  0  0  0  0  0  0  0
   -2.1710    2.8900   -1.2130 C   0  0  0  0  0  0  0  0  0  0  0  0
   -4.1040   -0.2960   -0.3430 C   0  0  0  0  0  0  0  0  0  0  0  0
   -4.1360   -1.6710   -0.4440 C   0  0  0  0  0  0  0  0  0  0  0  0
   -5.4150   -2.4130   -0.2990 C   0  0  0  0  0  0  0  0  0  0  0  0
  1  2  1  0
  2  3  2  0
  2 22  1  0
  3  4  1  0
  4  5  1  0
  4 15  2  0
  5  6  1  0
  6  7  1  0
  7  8  1  0
  8  9  1  6
  8 10  1  0
 10 11  1  0
 11 12  1  0
 12 13  1  0
 13 14  2  0
 15 16  1  0
 15 21  1  0
 16 17  2  0
 16 20  1  0
 17 18  1  0
 18 19  1  0
 19 20  2  0
 21 22  2  0
 22 23  1  0
M  CHG  1  10   1
M  END
