
     RDKit          3D

 23 24  0  0  0  0  0  0  0  0999 V2000
    1.5860   -0.4970    5.0260 C   0  0  0  0  0  0  0  0  0  0  0  0
    2.6270   -1.0080    4.1090 C   0  0  0  0  0  0  0  0  0  0  0  0
    2.4490   -0.9500    2.7830 C   0  0  0  0  0  0  0  0  0  0  0  0
    1.2320   -0.3840    2.2830 C   0  0  0  0  0  0  0  0  0  0  0  0
    0.9290   -0.2670    0.9700 C   0  0  0  0  0  0  0  0  0  0  0  0
    1.8640   -0.7310    0.0060 C   0  0  0  0  0  0  0  0  0  0  0  0
    1.8540   -0.6830   -1.3080 C   0  0  0  0  0  0  0  0  0  0  0  0
    3.0200   -1.2880   -2.0590 C   0  0  0  0  0  0  0  0  0  0  0  0
    3.7130   -0.2640   -2.8970 C   0  0  0  0  0  0  0  0  0  0  0  0
    4.2700    0.8830   -2.1180 C   0  0  0  0  0  0  0  0  0  0  0  0
   -0.3470    0.3990    0.7320 C   0  0  0  0  0  0  0  0  0  0  0  0
   -0.7370    1.4360    1.6110 C   0  0  0  0  0  0  0  0  0  0  0  0
   -1.9580    2.0090    1.4970 C   0  0  0  0  0  0  0  0  0  0  0  0
   -2.8600    1.6180    0.5410 C   0  0  0  0  0  0  0  0  0  0  0  0
   -2.5000    0.6150   -0.3160 C   0  0  0  0  0  0  0  0  0  0  0  0
   -1.2410   -0.0030   -0.2250 C   0  0  0  0  0  0  0  0  0  0  0  0
   -0.9450   -1.0230   -1.1110 O   0  0  0  0  0  0  0  0  0  0  0  0
   -1.8750   -1.4160   -2.0800 C   0  0  0  0  0  0  0  0  0  0  0  0
   -1.3560   -2.5450   -2.9470 C   0  0  0  0  0  0  0  0  0  0  0  0
   -2.3710   -2.9570   -3.9860 C   0  0  0  0  0  0  0  0  0  0  0  0
   -4.0740    2.4280    0.6810 C   0  0  0  0  0  0  0  0  0  0  0  0
   -3.6740    3.5940    1.4400 N   0  0  0  0  0  0  0  0  0  0  0  0
   -2.6000    3.0960    2.2790 C   0  0  0  0  0  0  0  0  0  0  0  0
  1  2  1  0
  2  3  2  3
  3  4  1  0
  4  5  2  3
  5  6  1  0
  5 11  1  0
  6  7  2  3
  7  8  1  0
  8  9  1  0
  9 10  1  0
 11 12  2  0
 11 16  1  0
 12 13  1  0
 13 14  2  0
 13 23  1  0
 14 15  1  0
 14 21  1  0
 15 16  2  0
 16 17  1  0
 17 18  1  0
 18 19  1  0
 19 20  1  0
 21 22  1  0
 22 23  1  0
M  CHG  1  22   1
M  END
