
     RDKit          3D

 11 11  0  0  0  0  0  0  0  0999 V2000
    3.1280    0.4430    0.8370 O   0  0  0  0  0  0  0  0  0  0  0  0
    2.7800    0.2260   -0.4750 C   0  0  0  0  0  0  0  0  0  0  0  0
    1.3300   -0.1120   -0.6750 C   0  0  1  0  0  0  0  0  0  0  0  0
    0.9940   -1.2870    0.0280 O   0  0  0  0  0  0  0  0  0  0  0  0
   -0.4110   -1.2560   -0.1290 C   0  0  0  0  0  0  0  0  0  0  0  0
   -0.6930    0.2020    0.1580 C   0  0  2  0  0  0  0  0  0  0  0  0
   -1.0020    0.4160    1.6330 C   0  0  0  0  0  0  0  0  0  0  0  0
   -2.1710   -0.2810    1.9010 O   0  0  0  0  0  0  0  0  0  0  0  0
   -1.9020    0.6100   -0.6270 C   0  0  0  0  0  0  0  0  0  0  0  0
   -1.7760    0.3540   -1.9860 O   0  0  0  0  0  0  0  0  0  0  0  0
    0.4630    0.8540   -0.2380 O   0  0  0  0  0  0  0  0  0  0  0  0
  1  2  1  0
  3  2  1  1
  3  4  1  0
  3 11  1  0
  4  5  1  0
  5  6  1  0
  6  7  1  1
  6  9  1  0
  6 11  1  0
  7  8  1  0
  9 10  1  0
M  END
