
     RDKit          3D

 25 27  0  0  0  0  0  0  0  0999 V2000
   -5.5700    0.6190    0.0680 C   0  0  0  0  0  0  0  0  0  0  0  0
   -5.0620   -0.7270   -0.3690 C   0  0  2  0  0  0  0  0  0  0  0  0
   -5.9630   -1.7900    0.2250 C   0  0  0  0  0  0  0  0  0  0  0  0
   -3.7130   -0.9790    0.0990 N   0  0  0  0  0  0  0  0  0  0  0  0
   -2.7890    0.0650   -0.2760 C   0  0  0  0  0  0  0  0  0  0  0  0
   -2.0180    0.5220    0.9550 C   0  0  0  0  0  0  0  0  0  0  0  0
   -1.0800    1.5610    0.6490 N   0  0  0  0  0  0  0  0  0  0  0  0
   -1.2480    2.8930    0.6570 C   0  0  0  0  0  0  0  0  0  0  0  0
   -2.3350    3.4660    0.9570 O   0  0  0  0  0  0  0  0  0  0  0  0
   -0.1120    3.4750    0.3080 O   0  0  0  0  0  0  0  0  0  0  0  0
    0.8120    2.5790    0.0660 C   0  0  0  0  0  0  0  0  0  0  0  0
    2.1300    2.6820   -0.3230 C   0  0  0  0  0  0  0  0  0  0  0  0
    2.8940    1.5340   -0.5100 C   0  0  0  0  0  0  0  0  0  0  0  0
    2.2970    0.3130   -0.2970 C   0  0  0  0  0  0  0  0  0  0  0  0
    3.0720   -0.8720   -0.4510 N   0  0  0  0  0  0  0  0  0  0  0  0
    4.4070   -1.0230   -0.0270 C   0  0  0  0  0  0  0  0  0  0  0  0
    5.0390   -0.1200    0.7970 C   0  0  0  0  0  0  0  0  0  0  0  0
    6.3480   -0.2850    1.2490 C   0  0  0  0  0  0  0  0  0  0  0  0
    7.0930    0.9090    2.2980 Cl  0  0  0  0  0  0  0  0  0  0  0  0
    7.0530   -1.4030    0.8590 C   0  0  0  0  0  0  0  0  0  0  0  0
    6.4510   -2.3340    0.0310 C   0  0  0  0  0  0  0  0  0  0  0  0
    5.1590   -2.1450   -0.3990 C   0  0  0  0  0  0  0  0  0  0  0  0
    4.3670   -3.3200   -1.4580 Cl  0  0  0  0  0  0  0  0  0  0  0  0
    0.9530    0.2130    0.0980 C   0  0  0  0  0  0  0  0  0  0  0  0
    0.2080    1.3540    0.2790 C   0  0  0  0  0  0  0  0  0  0  0  0
  2  1  1  1
  2  3  1  0
  2  4  1  0
  4  5  1  0
  5  6  1  0
  6  7  1  0
  7  8  1  0
  7 25  1  0
  8  9  2  0
  8 10  1  0
 10 11  1  0
 11 12  2  0
 11 25  1  0
 12 13  1  0
 13 14  2  0
 14 15  1  0
 14 24  1  0
 15 16  1  0
 16 17  2  0
 16 22  1  0
 17 18  1  0
 18 19  1  0
 18 20  2  0
 20 21  1  0
 21 22  2  0
 22 23  1  0
 24 25  2  0
M  CHG  1   4   1
M  END
