
     RDKit          3D

 11 11  0  0  0  0  0  0  0  0999 V2000
    0.6030    1.5200    1.8440 O   0  0  0  0  0  0  0  0  0  0  0  0
    0.4890    1.5700    0.4370 C   0  0  0  0  0  0  0  0  0  0  0  0
    0.2930    0.1570   -0.0260 C   0  0  1  0  0  0  0  0  0  0  0  0
    1.4960   -0.6510    0.4040 C   0  0  0  0  0  0  0  0  0  0  0  0
    1.3360   -1.9880   -0.0210 O   0  0  0  0  0  0  0  0  0  0  0  0
   -0.9580   -0.4470    0.5640 C   0  0  2  0  0  0  0  0  0  0  0  0
   -0.6570   -1.6740    1.1220 O   0  0  0  0  0  0  0  0  0  0  0  0
   -1.8750   -0.6230   -0.6140 C   0  0  0  0  0  0  0  0  0  0  0  0
   -1.0030   -0.8350   -1.6580 O   0  0  0  0  0  0  0  0  0  0  0  0
    0.0750    0.0190   -1.4960 C   0  0  1  0  0  0  0  0  0  0  0  0
   -0.1070    1.2390   -2.1400 O   0  0  0  0  0  0  0  0  0  0  0  0
  1  2  1  0
  3  2  1  6
  3  4  1  0
  3  6  1  0
  3 10  1  0
  4  5  1  0
  6  7  1  6
  6  8  1  0
  8  9  1  0
  9 10  1  0
 10 11  1  1
M  END
