
     RDKit          3D

 13 13  0  0  0  0  0  0  0  0999 V2000
    1.5250   -1.4540    0.1290 N   0  0  0  0  0  0  0  0  0  0  0  0
    1.6170   -0.0580   -0.2390 C   0  0  1  0  0  0  0  0  0  0  0  0
    0.6330    0.7920    0.5280 C   0  0  0  0  0  0  0  0  0  0  0  0
   -0.7660    0.4120    0.3180 C   0  0  0  0  0  0  0  0  0  0  0  0
   -1.5200    0.9680   -0.6950 C   0  0  0  0  0  0  0  0  0  0  0  0
   -2.8500    0.5840   -0.8680 C   0  0  0  0  0  0  0  0  0  0  0  0
   -3.4470   -0.3510   -0.0440 C   0  0  0  0  0  0  0  0  0  0  0  0
   -4.7350   -0.7410   -0.1890 F   0  0  0  0  0  0  0  0  0  0  0  0
   -2.6940   -0.9000    0.9610 C   0  0  0  0  0  0  0  0  0  0  0  0
   -1.3580   -0.5200    1.1410 C   0  0  0  0  0  0  0  0  0  0  0  0
    2.9760    0.4250    0.1000 C   0  0  0  0  0  0  0  0  0  0  0  0
    3.8150   -0.3530    0.6160 O   0  0  0  0  0  0  0  0  0  0  0  0
    3.3890    1.7330   -0.1300 O   0  0  0  0  0  0  0  0  0  0  0  0
  2  1  1  1
  2  3  1  0
  2 11  1  0
  3  4  1  0
  4  5  2  0
  4 10  1  0
  5  6  1  0
  6  7  2  0
  7  8  1  0
  7  9  1  0
  9 10  2  0
 11 12  2  0
 11 13  1  0
M  CHG  1   1   1
M  END
