
     RDKit          3D

 12 11  0  0  0  0  0  0  0  0999 V2000
   -1.5150   -2.0550    0.6290 C   0  0  0  0  0  0  0  0  0  0  0  0
   -0.8200   -0.9490    1.0240 O   0  0  0  0  0  0  0  0  0  0  0  0
   -0.9620    0.1750    0.2230 C   0  0  1  0  0  0  0  0  0  0  0  0
   -0.5810    0.0540   -1.0700 O   0  0  0  0  0  0  0  0  0  0  0  0
   -2.4480    0.6060    0.1840 C   0  0  0  0  0  0  0  0  0  0  0  0
   -2.4500    1.7470   -0.6510 O   0  0  0  0  0  0  0  0  0  0  0  0
   -0.1750    1.2670    0.9020 C   0  0  0  0  0  0  0  0  0  0  0  0
    1.1280    0.9140    1.0360 O   0  0  0  0  0  0  0  0  0  0  0  0
    1.9180    0.7330   -0.0400 C   0  0  1  0  0  0  0  0  0  0  0  0
    3.0240    1.6220   -0.0130 O   0  0  0  0  0  0  0  0  0  0  0  0
    2.4420   -0.7030    0.0120 C   0  0  0  0  0  0  0  0  0  0  0  0
    3.2610   -0.8510   -1.1200 O   0  0  0  0  0  0  0  0  0  0  0  0
  1  2  1  0
  2  3  1  0
  3  4  1  6
  3  5  1  0
  3  7  1  0
  5  6  1  0
  7  8  1  0
  8  9  1  0
  9 10  1  1
  9 11  1  0
 11 12  1  0
M  END
