
     RDKit          3D

 11 11  0  0  0  0  0  0  0  0999 V2000
    2.4620   -0.1210    0.5910 O   0  0  0  0  0  0  0  0  0  0  0  0
    1.5100   -0.8050   -0.1410 C   0  0  0  0  0  0  0  0  0  0  0  0
    0.2120    0.0070   -0.2430 C   0  0  1  0  0  0  0  0  0  0  0  0
    0.5020    1.3310   -0.9290 C   0  0  0  0  0  0  0  0  0  0  0  0
    1.4310    2.0850   -0.2340 O   0  0  0  0  0  0  0  0  0  0  0  0
   -0.7020   -0.7720   -1.1520 C   0  0  0  0  0  0  0  0  0  0  0  0
   -1.6460   -1.4190   -0.3920 O   0  0  0  0  0  0  0  0  0  0  0  0
   -2.3660   -0.4380    0.2890 C   0  0  0  0  0  0  0  0  0  0  0  0
   -1.6310    0.0320    1.3280 O   0  0  0  0  0  0  0  0  0  0  0  0
   -0.3040    0.2200    1.1220 C   0  0  1  0  0  0  0  0  0  0  0  0
    0.3920   -0.5690    2.0680 O   0  0  0  0  0  0  0  0  0  0  0  0
  1  2  1  0
  3  2  1  1
  3  4  1  0
  3  6  1  0
  3 10  1  0
  4  5  1  0
  6  7  1  0
  7  8  1  0
  8  9  1  0
  9 10  1  0
 10 11  1  1
M  END
