
     RDKit          3D

 11 11  0  0  0  0  0  0  0  0999 V2000
    2.1930   -1.7150    0.4490 O   0  0  0  0  0  0  0  0  0  0  0  0
    2.4120   -0.6030   -0.3360 C   0  0  0  0  0  0  0  0  0  0  0  0
    1.9860    0.6200    0.4430 C   0  0  0  0  0  0  0  0  0  0  0  0
    0.7090    0.6730    0.8160 O   0  0  0  0  0  0  0  0  0  0  0  0
   -0.3170    0.6780   -0.0420 C   0  0  2  0  0  0  0  0  0  0  0  0
   -1.2840    1.8070    0.0280 C   0  0  0  0  0  0  0  0  0  0  0  0
   -2.5690    1.3170   -0.1920 O   0  0  0  0  0  0  0  0  0  0  0  0
   -2.4680   -0.0000   -0.5450 C   0  0  0  0  0  0  0  0  0  0  0  0
   -1.2260   -0.5000    0.2020 C   0  0  2  0  0  0  0  0  0  0  0  0
   -1.5490   -0.5970    1.5360 O   0  0  0  0  0  0  0  0  0  0  0  0
   -0.7710   -1.6920   -0.3310 O   0  0  0  0  0  0  0  0  0  0  0  0
  1  2  1  0
  2  3  1  0
  3  4  1  0
  5  4  1  1
  5  6  1  0
  5  9  1  0
  6  7  1  0
  7  8  1  0
  8  9  1  0
  9 10  1  1
  9 11  1  0
M  END
