
     RDKit          3D

 27 29  0  0  0  0  0  0  0  0999 V2000
    3.8550   -3.3230    0.6240 C   0  0  0  0  0  0  0  0  0  0  0  0
    3.3150   -2.1580    0.4130 O   0  0  0  0  0  0  0  0  0  0  0  0
    3.1610   -0.9010    0.1770 C   0  0  0  0  0  0  0  0  0  0  0  0
    4.2260   -0.0020   -0.0340 C   0  0  0  0  0  0  0  0  0  0  0  0
    3.9910    1.3490   -0.3000 C   0  0  0  0  0  0  0  0  0  0  0  0
    4.8390    2.4060   -0.5320 C   0  0  0  0  0  0  0  0  0  0  0  0
    6.3300    2.3160   -0.5790 C   0  0  0  0  0  0  0  0  0  0  0  0
    4.1030    3.4940   -0.7090 O   0  0  0  0  0  0  0  0  0  0  0  0
    2.8230    3.1930   -0.6130 C   0  0  0  0  0  0  0  0  0  0  0  0
    1.5010    4.3240   -0.7780 Cl  0  0  0  0  0  0  0  0  0  0  0  0
    2.7080    1.8620   -0.3640 C   0  0  0  0  0  0  0  0  0  0  0  0
    1.6480    0.9820   -0.1570 C   0  0  0  0  0  0  0  0  0  0  0  0
    1.9280   -0.3230    0.0950 C   0  0  0  0  0  0  0  0  0  0  0  0
    0.6870   -1.1640    0.4900 C   0  0  1  0  0  0  0  0  0  0  0  0
    0.1440   -0.2190    1.4840 O   0  0  0  0  0  0  0  0  0  0  0  0
   -0.2480   -0.9560   -0.6930 C   0  0  0  0  0  0  0  0  0  0  0  0
   -1.5880   -0.7510   -0.3650 N   0  0  0  0  0  0  0  0  0  0  0  0
   -2.4660   -1.5860    0.3700 C   0  0  0  0  0  0  0  0  0  0  0  0
   -2.0740   -2.6710    0.8190 O   0  0  0  0  0  0  0  0  0  0  0  0
   -3.8300   -1.0620    0.5570 C   0  0  0  0  0  0  0  0  0  0  0  0
   -4.2650    0.0370   -0.1390 C   0  0  0  0  0  0  0  0  0  0  0  0
   -5.4920    0.6270    0.1130 C   0  0  0  0  0  0  0  0  0  0  0  0
   -5.8870    1.8460   -0.6430 C   0  0  0  0  0  0  0  0  0  0  0  0
   -6.2900    0.1000    1.0710 C   0  0  0  0  0  0  0  0  0  0  0  0
   -5.8360   -1.0210    1.7640 C   0  0  0  0  0  0  0  0  0  0  0  0
   -6.5810   -1.4980    2.6290 O   0  0  0  0  0  0  0  0  0  0  0  0
   -4.6190   -1.5800    1.4950 N   0  0  0  0  0  0  0  0  0  0  0  0
  1  2  1  0
  2  3  1  0
  3  4  2  0
  3 13  1  0
  4  5  1  0
  5  6  2  0
  5 11  1  0
  6  7  1  0
  6  8  1  0
  8  9  1  0
  9 10  1  0
  9 11  2  0
 11 12  1  0
 12 13  2  0
 13 14  1  0
 14 15  1  1
 14 16  1  0
 16 17  1  0
 17 18  1  0
 18 19  2  0
 18 20  1  0
 20 21  2  0
 20 27  1  0
 21 22  1  0
 22 23  1  0
 22 24  2  0
 24 25  1  0
 25 26  2  0
 25 27  1  0
M  END
