
     RDKit          3D

 23 24  0  0  0  0  0  0  0  0999 V2000
   -4.2190    2.1200    0.0770 O   0  0  0  0  0  0  0  0  0  0  0  0
   -2.9050    1.7300   -0.1830 C   0  0  0  0  0  0  0  0  0  0  0  0
   -2.8660    0.5800   -1.1820 C   0  0  1  0  0  0  0  0  0  0  0  0
   -1.6010    0.1660   -1.4650 O   0  0  0  0  0  0  0  0  0  0  0  0
   -0.9260   -0.5790   -0.5560 C   0  0  1  0  0  0  0  0  0  0  0  0
   -0.1650    0.2930    0.2210 O   0  0  0  0  0  0  0  0  0  0  0  0
    1.1670    0.0490    0.2410 C   0  0  2  0  0  0  0  0  0  0  0  0
    1.7740   -0.2400    1.5790 C   0  0  1  0  0  0  0  0  0  0  0  0
    1.0520   -1.0890    2.3760 O   0  0  0  0  0  0  0  0  0  0  0  0
    3.1920   -0.7600    1.3020 C   0  0  2  0  0  0  0  0  0  0  0  0
    3.7950   -1.2440    2.4370 O   0  0  0  0  0  0  0  0  0  0  0  0
    3.9160    0.2590    0.6870 O   0  0  0  0  0  0  0  0  0  0  0  0
    3.3990    0.5030   -0.5670 C   0  0  2  0  0  0  0  0  0  0  0  0
    4.2740    1.3710   -1.4190 C   0  0  0  0  0  0  0  0  0  0  0  0
    5.4930    0.7600   -1.5880 O   0  0  0  0  0  0  0  0  0  0  0  0
    2.0110    1.1390   -0.3950 C   0  0  1  0  0  0  0  0  0  0  0  0
    1.5210    1.5690   -1.6030 O   0  0  0  0  0  0  0  0  0  0  0  0
   -1.8040   -1.3560    0.3910 C   0  0  2  0  0  0  0  0  0  0  0  0
   -1.1620   -2.5430    0.7800 O   0  0  0  0  0  0  0  0  0  0  0  0
   -3.0430   -1.7620   -0.3310 C   0  0  1  0  0  0  0  0  0  0  0  0
   -3.8450   -2.6150    0.4210 O   0  0  0  0  0  0  0  0  0  0  0  0
   -3.7920   -0.5080   -0.7250 C   0  0  2  0  0  0  0  0  0  0  0  0
   -4.7430   -0.7480   -1.7010 O   0  0  0  0  0  0  0  0  0  0  0  0
  1  2  1  0
  3  2  1  1
  3  4  1  0
  3 22  1  0
  4  5  1  0
  5  6  1  1
  5 18  1  0
  7  6  1  1
  7  8  1  0
  7 16  1  0
  8  9  1  6
  8 10  1  0
 10 11  1  1
 10 12  1  0
 12 13  1  0
 13 14  1  1
 13 16  1  0
 14 15  1  0
 16 17  1  6
 18 19  1  6
 18 20  1  0
 20 21  1  1
 20 22  1  0
 22 23  1  6
M  END
