
     RDKit          3D

 31 32  0  0  0  0  0  0  0  0999 V2000
   -2.9520    4.2020    2.5770 C   0  0  0  0  0  0  0  0  0  0  0  0
   -2.2480    3.1560    2.1290 C   0  0  0  0  0  0  0  0  0  0  0  0
   -2.7890    1.8260    2.3320 C   0  0  0  0  0  0  0  0  0  0  0  0
   -3.0400    0.8920    1.4300 C   0  0  0  0  0  0  0  0  0  0  0  0
   -2.7540    1.1800    0.0090 C   0  0  0  0  0  0  0  0  0  0  0  0
   -2.5340   -0.0650   -0.8050 C   0  0  0  0  0  0  0  0  0  0  0  0
   -1.8390   -1.0840   -0.0630 N   0  0  0  0  0  0  0  0  0  0  0  0
   -2.6330   -2.3400    0.0560 C   0  0  0  0  0  0  0  0  0  0  0  0
   -2.3390   -3.2500   -1.0970 C   0  0  0  0  0  0  0  0  0  0  0  0
   -3.1750   -4.4950   -0.9110 C   0  0  0  0  0  0  0  0  0  0  0  0
   -0.5640   -1.0210    0.5350 C   0  0  0  0  0  0  0  0  0  0  0  0
   -0.5320   -1.3600    1.7630 O   0  0  0  0  0  0  0  0  0  0  0  0
    0.7410   -0.6270   -0.0530 C   0  0  2  0  0  0  0  0  0  0  0  0
    0.7540   -0.9790   -1.5390 C   0  0  0  0  0  0  0  0  0  0  0  0
    1.5580   -2.1880   -1.7720 C   0  0  0  0  0  0  0  0  0  0  0  0
    2.0710   -2.6680   -0.4680 C   0  0  0  0  0  0  0  0  0  0  0  0
    1.7430   -1.6130    0.5050 C   0  0  0  0  0  0  0  0  0  0  0  0
    1.1630    0.7910    0.1650 C   0  0  2  0  0  0  0  0  0  0  0  0
    0.7510    1.4990   -0.9620 O   0  0  0  0  0  0  0  0  0  0  0  0
    2.6770    0.9830    0.2420 C   0  0  0  0  0  0  0  0  0  0  0  0
    3.4720    0.5390   -0.8230 N   0  0  0  0  0  0  0  0  0  0  0  0
    4.9040    0.7730   -0.6550 C   0  0  0  0  0  0  0  0  0  0  0  0
    5.8500    0.3530   -1.7040 C   0  0  0  0  0  0  0  0  0  0  0  0
    5.3430    1.3270    0.3700 O   0  0  0  0  0  0  0  0  0  0  0  0
    0.7260    1.4280    1.4520 C   0  0  0  0  0  0  0  0  0  0  0  0
    0.7870    0.6260    2.4580 O   0  0  0  0  0  0  0  0  0  0  0  0
    0.2820    2.7390    1.7060 N   0  0  0  0  0  0  0  0  0  0  0  0
   -0.9330    3.4410    1.4800 C   0  0  0  0  0  0  0  0  0  0  0  0
   -0.8790    4.4530    0.6240 C   0  0  0  0  0  0  0  0  0  0  0  0
   -2.0110    5.1880    0.3650 F   0  0  0  0  0  0  0  0  0  0  0  0
    0.2100    4.8820   -0.0460 F   0  0  0  0  0  0  0  0  0  0  0  0
  1  2  2  0
  2  3  1  0
  2 28  1  0
  3  4  2  0
  4  5  1  0
  5  6  1  0
  6  7  1  0
  7  8  1  0
  7 11  1  0
  8  9  1  0
  9 10  1  0
 11 12  2  0
 11 13  1  0
 13 14  1  6
 13 17  1  0
 13 18  1  0
 14 15  1  0
 15 16  1  0
 16 17  1  0
 18 19  1  6
 18 20  1  0
 18 25  1  0
 20 21  1  0
 21 22  1  0
 22 23  1  0
 22 24  2  0
 25 26  2  0
 25 27  1  0
 27 28  1  0
 28 29  2  3
 29 30  1  0
 29 31  1  0
M  END
