
     RDKit          3D

 31 33  0  0  0  0  0  0  0  0999 V2000
   -0.0020    1.9470    2.4260 C   0  0  0  0  0  0  0  0  0  0  0  0
    0.6010    1.5340    1.0580 C   0  0  2  0  0  0  0  0  0  0  0  0
    0.8840    0.0800    1.1450 C   0  0  0  0  0  0  0  0  0  0  0  0
    0.5060   -0.5950    2.1150 O   0  0  0  0  0  0  0  0  0  0  0  0
    1.5990   -0.5490    0.0960 N   0  0  0  0  0  0  0  0  0  0  0  0
    1.9360   -1.9600    0.0410 C   0  0  0  0  0  0  0  0  0  0  0  0
    2.8460   -2.3160    1.2000 C   0  0  1  0  0  0  0  0  0  0  0  0
    3.1950   -3.6580    1.1770 O   0  0  0  0  0  0  0  0  0  0  0  0
    4.0890   -1.4680    1.1520 C   0  0  0  0  0  0  0  0  0  0  0  0
    4.5650   -0.6710    2.0970 C   0  0  0  0  0  0  0  0  0  0  0  0
    5.8140   -0.0190    1.6350 C   0  0  0  0  0  0  0  0  0  0  0  0
    5.9930   -0.5630    0.2750 C   0  0  0  0  0  0  0  0  0  0  0  0
    5.0060   -1.3860    0.0050 C   0  0  0  0  0  0  0  0  0  0  0  0
    4.8780   -2.0620   -1.1730 F   0  0  0  0  0  0  0  0  0  0  0  0
    1.8700    2.3140    0.9090 C   0  0  0  0  0  0  0  0  0  0  0  0
    1.7850    3.3930   -0.1360 C   0  0  0  0  0  0  0  0  0  0  0  0
    1.4120    2.8350   -1.4850 C   0  0  0  0  0  0  0  0  0  0  0  0
    0.1810    2.0150   -1.3890 C   0  0  0  0  0  0  0  0  0  0  0  0
   -0.3850    1.8980    0.0330 C   0  0  1  0  0  0  0  0  0  0  0  0
   -1.4800    0.9510   -0.0700 N   0  0  0  0  0  0  0  0  0  0  0  0
   -2.6120    0.9860   -0.8780 C   0  0  0  0  0  0  0  0  0  0  0  0
   -2.7660    1.9310   -1.6910 O   0  0  0  0  0  0  0  0  0  0  0  0
   -3.6470   -0.0820   -0.8050 C   0  0  0  0  0  0  0  0  0  0  0  0
   -3.6260   -0.8200    0.2050 O   0  0  0  0  0  0  0  0  0  0  0  0
   -4.6150   -0.2980   -1.7920 N   0  0  0  0  0  0  0  0  0  0  0  0
   -5.6250   -1.3150   -1.6890 C   0  0  0  0  0  0  0  0  0  0  0  0
   -6.9260   -1.1380   -1.9370 C   0  0  0  0  0  0  0  0  0  0  0  0
   -7.6930   -2.3950   -1.7340 C   0  0  0  0  0  0  0  0  0  0  0  0
   -6.6270   -3.3420   -1.2880 C   0  0  0  0  0  0  0  0  0  0  0  0
   -5.4670   -2.6970   -1.2810 C   0  0  0  0  0  0  0  0  0  0  0  0
   -4.2530   -3.2550   -0.9170 F   0  0  0  0  0  0  0  0  0  0  0  0
  2  1  1  1
  2  3  1  0
  2 15  1  0
  2 19  1  0
  3  4  2  0
  3  5  1  0
  5  6  1  0
  6  7  1  0
  7  8  1  6
  7  9  1  0
  9 10  2  0
  9 13  1  0
 10 11  1  0
 11 12  1  0
 12 13  2  0
 13 14  1  0
 15 16  1  0
 16 17  1  0
 17 18  1  0
 18 19  1  0
 19 20  1  6
 20 21  1  0
 21 22  2  0
 21 23  1  0
 23 24  2  0
 23 25  1  0
 25 26  1  0
 26 27  2  0
 26 30  1  0
 27 28  1  0
 28 29  1  0
 29 30  2  0
 30 31  1  0
M  END
