
     RDKit          3D

 31 33  0  0  0  0  0  0  0  0999 V2000
    6.5270   -0.0780   -2.4810 C   0  0  0  0  0  0  0  0  0  0  0  0
    6.4530    0.2190   -1.0730 N   0  0  0  0  0  0  0  0  0  0  0  0
    6.8540   -0.8080   -0.1080 C   0  0  0  0  0  0  0  0  0  0  0  0
    7.7060   -0.2160    0.9060 N   0  0  0  0  0  0  0  0  0  0  0  0
    7.3430    1.0320    1.4330 C   0  0  0  0  0  0  0  0  0  0  0  0
    7.7540    1.2950    2.6180 O   0  0  0  0  0  0  0  0  0  0  0  0
    6.5310    2.0310    0.7050 C   0  0  2  0  0  0  0  0  0  0  0  0
    5.2220    2.6170    1.8080 S   0  0  0  0  0  0  0  0  0  0  0  0
    4.0360    1.3330    2.2150 C   0  0  0  0  0  0  0  0  0  0  0  0
    3.2490    0.9310    1.0340 C   0  0  0  0  0  0  0  0  0  0  0  0
    2.4490    1.8880    0.3760 N   0  0  0  0  0  0  0  0  0  0  0  0
    3.2910   -0.2720    0.6160 N   0  0  0  0  0  0  0  0  0  0  0  0
    2.3630   -0.7170   -0.7640 S   0  0  2  0  0  0  0  0  0  0  0  0
    2.3790   -2.2120   -0.9670 O   0  0  0  0  0  0  0  0  0  0  0  0
    2.9990   -0.1250   -2.0030 O   0  0  0  0  0  0  0  0  0  0  0  0
    0.7560   -0.1150   -0.6440 N   0  0  0  0  0  0  0  0  0  0  0  0
   -0.0620   -1.1660   -0.0300 C   0  0  0  0  0  0  0  0  0  0  0  0
   -1.4540   -0.6040    0.0590 C   0  0  0  0  0  0  0  0  0  0  0  0
   -2.3980   -1.6080    0.6720 C   0  0  0  0  0  0  0  0  0  0  0  0
   -3.7840   -1.0750    0.7710 C   0  0  0  0  0  0  0  0  0  0  0  0
   -4.2420   -0.3920    1.8780 C   0  0  0  0  0  0  0  0  0  0  0  0
   -5.5520    0.0900    1.9150 C   0  0  0  0  0  0  0  0  0  0  0  0
   -6.4270   -0.0940    0.8660 C   0  0  0  0  0  0  0  0  0  0  0  0
   -5.9710   -0.7750   -0.2390 C   0  0  0  0  0  0  0  0  0  0  0  0
   -4.6670   -1.2530   -0.2720 C   0  0  0  0  0  0  0  0  0  0  0  0
   -7.0750   -0.8430   -1.2260 C   0  0  2  0  0  0  0  0  0  0  0  0
   -7.0950    0.3090   -2.1050 N   0  0  0  0  0  0  0  0  0  0  0  0
   -8.3070   -0.7680   -0.3550 C   0  0  0  0  0  0  0  0  0  0  0  0
   -7.8590    0.3070    0.6460 C   0  0  0  0  0  0  0  0  0  0  0  0
    6.0110    1.4640   -0.5530 C   0  0  0  0  0  0  0  0  0  0  0  0
    5.1310    2.0700   -1.2430 O   0  0  0  0  0  0  0  0  0  0  0  0
  1  2  1  0
  2  3  1  0
  2 30  1  0
  3  4  1  0
  4  5  1  0
  5  6  2  0
  5  7  1  0
  7  8  1  1
  7 30  1  0
  8  9  1  0
  9 10  1  0
 10 11  1  0
 10 12  2  3
 12 13  1  0
 13 14  2  0
 13 15  2  0
 13 16  1  1
 16 17  1  0
 17 18  1  0
 18 19  1  0
 19 20  1  0
 20 21  2  0
 20 25  1  0
 21 22  1  0
 22 23  2  0
 23 24  1  0
 23 29  1  0
 24 25  2  0
 24 26  1  0
 26 27  1  6
 26 28  1  0
 28 29  1  0
 30 31  2  0
M  CHG  1  27   1
M  END
