
     RDKit          3D

 31 32  0  0  0  0  0  0  0  0999 V2000
    4.9630   -3.2400    0.1830 C   0  0  0  0  0  0  0  0  0  0  0  0
    3.8270   -2.6120    0.3650 C   0  0  0  0  0  0  0  0  0  0  0  0
    3.0310   -3.0560    1.4110 F   0  0  0  0  0  0  0  0  0  0  0  0
    3.4470   -1.5110   -0.4320 C   0  0  0  0  0  0  0  0  0  0  0  0
    2.3590   -0.7850   -0.4000 C   0  0  0  0  0  0  0  0  0  0  0  0
    1.3040   -1.1130    0.5830 C   0  0  0  0  0  0  0  0  0  0  0  0
    0.4260   -2.2960    0.2460 C   0  0  0  0  0  0  0  0  0  0  0  0
   -0.8990   -1.9430    0.9170 C   0  0  0  0  0  0  0  0  0  0  0  0
   -1.8390   -1.1370    0.2020 C   0  0  1  0  0  0  0  0  0  0  0  0
   -1.7690   -1.4680   -1.2370 C   0  0  0  0  0  0  0  0  0  0  0  0
   -1.4820   -2.8420   -1.6100 N   0  0  0  0  0  0  0  0  0  0  0  0
   -1.9620   -0.7170   -2.2030 O   0  0  0  0  0  0  0  0  0  0  0  0
   -3.2630   -1.5990    0.5070 N   0  0  0  0  0  0  0  0  0  0  0  0
   -4.4030   -1.4140   -0.3120 C   0  0  0  0  0  0  0  0  0  0  0  0
   -5.4100   -2.1670   -0.1670 O   0  0  0  0  0  0  0  0  0  0  0  0
   -4.4700   -0.3790   -1.3280 N   0  0  0  0  0  0  0  0  0  0  0  0
   -3.6950    0.8340   -1.3360 C   0  0  0  0  0  0  0  0  0  0  0  0
   -3.8510    1.6380   -2.2600 O   0  0  0  0  0  0  0  0  0  0  0  0
   -2.7130    1.1210   -0.2490 C   0  0  0  0  0  0  0  0  0  0  0  0
   -2.7150    2.5730    0.1480 C   0  0  0  0  0  0  0  0  0  0  0  0
   -1.8870    0.3300    0.4570 C   0  0  0  0  0  0  0  0  0  0  0  0
   -1.3110    1.1050    1.5370 C   0  0  0  0  0  0  0  0  0  0  0  0
   -0.2790    1.7020    2.0180 C   0  0  0  0  0  0  0  0  0  0  0  0
    1.1090    1.9170    1.5660 C   0  0  0  0  0  0  0  0  0  0  0  0
    2.0200    1.7110    2.4740 O   0  0  0  0  0  0  0  0  0  0  0  0
    1.6580    2.3220    0.2830 C   0  0  0  0  0  0  0  0  0  0  0  0
    2.1290    3.6210    0.2630 C   0  0  0  0  0  0  0  0  0  0  0  0
    2.7110    4.2170   -0.9590 C   0  0  0  0  0  0  0  0  0  0  0  0
    1.8510    1.6030   -0.9610 C   0  0  0  0  0  0  0  0  0  0  0  0
    2.1370    0.3590   -1.2860 C   0  0  0  0  0  0  0  0  0  0  0  0
    2.3410    0.0080   -2.6430 F   0  0  0  0  0  0  0  0  0  0  0  0
  1  2  2  0
  2  3  1  0
  2  4  1  0
  4  5  2  3
  5  6  1  0
  5 30  1  0
  6  7  1  0
  7  8  1  0
  8  9  1  0
  9 10  1  6
  9 13  1  0
  9 21  1  0
 10 11  1  0
 10 12  2  0
 13 14  1  0
 14 15  2  0
 14 16  1  0
 16 17  1  0
 17 18  2  0
 17 19  1  0
 19 20  1  0
 19 21  2  0
 21 22  1  0
 22 23  2  0
 23 24  1  0
 24 25  2  0
 24 26  1  0
 26 27  2  3
 26 29  1  0
 27 28  1  0
 29 30  2  0
 30 31  1  0
M  END
