
     RDKit          3D

 11 10  0  0  0  0  0  0  0  0999 V2000
    3.7910    0.5940    0.0200 C   0  0  0  0  0  0  0  0  0  0  0  0
    3.2540   -0.7540    0.2000 N   0  0  0  0  0  0  0  0  0  0  0  0
    1.8760   -0.7280    0.6170 C   0  0  0  0  0  0  0  0  0  0  0  0
    1.2220    0.5400    0.1800 C   0  0  0  0  0  0  0  0  0  0  0  0
   -0.2360    0.6230    0.5950 C   0  0  0  0  0  0  0  0  0  0  0  0
   -1.0620   -0.4710    0.0340 C   0  0  0  0  0  0  0  0  0  0  0  0
   -2.4890   -0.3450    0.5110 C   0  0  2  0  0  0  0  0  0  0  0  0
   -3.3010   -1.4360   -0.0450 N   0  0  0  0  0  0  0  0  0  0  0  0
   -3.1310    0.9220    0.1450 C   0  0  0  0  0  0  0  0  0  0  0  0
   -4.0970    0.9560   -0.6740 O   0  0  0  0  0  0  0  0  0  0  0  0
   -2.7360    2.1300    0.6600 O   0  0  0  0  0  0  0  0  0  0  0  0
  1  2  1  0
  2  3  1  0
  3  4  1  0
  4  5  1  0
  5  6  1  0
  6  7  1  0
  7  8  1  6
  7  9  1  0
  9 10  2  0
  9 11  1  0
M  CHG  2   2   1   8   1
M  END
