
     RDKit          3D

 22 25  0  0  0  0  0  0  0  0999 V2000
   -2.9710   -2.3770   -0.9530 O   0  0  0  0  0  0  0  0  0  0  0  0
   -2.6140   -1.1890   -0.9580 C   0  0  0  0  0  0  0  0  0  0  0  0
   -1.3650   -0.7050   -1.6550 C   0  0  0  0  0  0  0  0  0  0  0  0
   -0.6350    0.0710   -0.6010 C   0  0  0  0  0  0  0  0  0  0  0  0
    0.6300   -0.1880   -0.3610 C   0  0  0  0  0  0  0  0  0  0  0  0
    1.2870   -1.2550   -1.1650 C   0  0  0  0  0  0  0  0  0  0  0  0
    2.6970   -1.3670   -0.9600 N   0  0  0  0  0  0  0  0  0  0  0  0
    3.4520   -0.7110    0.0240 C   0  0  0  0  0  0  0  0  0  0  0  0
    4.7980   -0.9800    0.1850 C   0  0  0  0  0  0  0  0  0  0  0  0
    5.5540   -0.3450    1.1480 C   0  0  0  0  0  0  0  0  0  0  0  0
    4.9460    0.5950    1.9840 C   0  0  0  0  0  0  0  0  0  0  0  0
    3.6100    0.8600    1.8230 C   0  0  0  0  0  0  0  0  0  0  0  0
    2.8730    0.2160    0.8560 C   0  0  0  0  0  0  0  0  0  0  0  0
    1.4310    0.4740    0.6500 C   0  0  0  0  0  0  0  0  0  0  0  0
    0.9110    1.3230    1.4190 O   0  0  0  0  0  0  0  0  0  0  0  0
   -1.3700    1.0630    0.0640 N   0  0  0  0  0  0  0  0  0  0  0  0
   -2.7970    0.9330    0.2380 C   0  0  0  0  0  0  0  0  0  0  0  0
   -3.5520    1.8750    0.8860 C   0  0  0  0  0  0  0  0  0  0  0  0
   -4.9120    1.7130    1.0330 C   0  0  0  0  0  0  0  0  0  0  0  0
   -5.5240    0.5890    0.5230 C   0  0  0  0  0  0  0  0  0  0  0  0
   -4.7900   -0.3680   -0.1300 C   0  0  0  0  0  0  0  0  0  0  0  0
   -3.4180   -0.1860   -0.2680 C   0  0  0  0  0  0  0  0  0  0  0  0
  1  2  2  0
  2  3  1  0
  2 22  1  0
  3  4  1  0
  4  5  2  3
  4 16  1  0
  5  6  1  0
  5 14  1  0
  6  7  1  0
  7  8  1  0
  8  9  2  0
  8 13  1  0
  9 10  1  0
 10 11  2  0
 11 12  1  0
 12 13  2  0
 13 14  1  0
 14 15  2  0
 16 17  1  0
 17 18  2  0
 17 22  1  0
 18 19  1  0
 19 20  2  0
 20 21  1  0
 21 22  2  0
M  END
