
     RDKit          3D

 22 24  0  0  0  0  0  0  0  0999 V2000
    5.5940   -1.5420   -0.1310 N   0  0  0  0  0  0  0  0  0  0  0  0
    4.6180   -0.6100    0.3030 C   0  0  0  0  0  0  0  0  0  0  0  0
    4.6350   -0.2880    1.5230 O   0  0  0  0  0  0  0  0  0  0  0  0
    3.6340   -0.0570   -0.6640 C   0  0  0  0  0  0  0  0  0  0  0  0
    2.5940    1.1210    0.2400 S   0  0  0  0  0  0  0  0  0  0  0  0
    1.3330    1.8500   -0.8580 C   0  0  0  0  0  0  0  0  0  0  0  0
    0.3820    0.8520   -1.2760 C   0  0  0  0  0  0  0  0  0  0  0  0
    0.7690    0.2920   -2.4170 O   0  0  0  0  0  0  0  0  0  0  0  0
   -0.8220    0.3210   -0.8170 N   0  0  0  0  0  0  0  0  0  0  0  0
   -1.4720   -0.6170   -1.6030 C   0  0  0  0  0  0  0  0  0  0  0  0
   -0.9660   -0.9530   -2.6880 O   0  0  0  0  0  0  0  0  0  0  0  0
   -2.6430   -1.1840   -1.2330 C   0  0  0  0  0  0  0  0  0  0  0  0
   -3.7370   -2.4090   -1.9890 S   0  0  0  0  0  0  0  0  0  0  0  0
   -4.9420   -2.3200   -0.5370 C   0  0  0  0  0  0  0  0  0  0  0  0
   -4.4240   -1.5500    0.1240 N   0  0  0  0  0  0  0  0  0  0  0  0
   -3.3000   -0.9050   -0.0740 C   0  0  0  0  0  0  0  0  0  0  0  0
   -2.6590    0.0420    0.7390 C   0  0  0  0  0  0  0  0  0  0  0  0
   -3.2040    0.4110    1.9440 C   0  0  0  0  0  0  0  0  0  0  0  0
   -2.6220    1.3020    2.7580 N   0  0  0  0  0  0  0  0  0  0  0  0
   -1.4660    1.8780    2.4230 C   0  0  0  0  0  0  0  0  0  0  0  0
   -0.8930    1.5190    1.2020 C   0  0  0  0  0  0  0  0  0  0  0  0
   -1.4730    0.6000    0.3370 C   0  0  0  0  0  0  0  0  0  0  0  0
  1  2  1  0
  2  3  2  0
  2  4  1  0
  4  5  1  0
  5  6  1  0
  6  7  1  0
  7  8  2  0
  7  9  1  0
  9 10  1  0
  9 22  1  0
 10 11  2  0
 10 12  1  0
 12 13  1  0
 12 16  2  0
 13 14  1  0
 14 15  2  0
 15 16  1  0
 16 17  1  0
 17 18  2  0
 17 22  1  0
 18 19  1  0
 19 20  2  0
 20 21  1  0
 21 22  2  0
M  END
