
     RDKit          3D

 21 23  0  0  0  0  0  0  0  0999 V2000
   -4.3020    1.2650   -1.2770 C   0  0  0  0  0  0  0  0  0  0  0  0
   -4.3410   -0.1400   -0.7240 C   0  0  1  0  0  0  0  0  0  0  0  0
   -3.1350   -0.9080   -1.0750 C   0  0  0  0  0  0  0  0  0  0  0  0
   -3.2100   -1.9980   -1.6830 O   0  0  0  0  0  0  0  0  0  0  0  0
   -1.8560   -0.4060   -0.7160 N   0  0  0  0  0  0  0  0  0  0  0  0
   -0.6740   -1.1390   -1.0390 N   0  0  0  0  0  0  0  0  0  0  0  0
    0.5930   -0.5590   -0.8340 C   0  0  0  0  0  0  0  0  0  0  0  0
    0.8880    0.6650   -0.9500 N   0  0  0  0  0  0  0  0  0  0  0  0
    2.1560    1.0710   -0.7190 N   0  0  0  0  0  0  0  0  0  0  0  0
    2.9480    0.1870    0.1500 C   0  0  2  0  0  0  0  0  0  0  0  0
    4.3640    0.1910   -0.2310 C   0  0  0  0  0  0  0  0  0  0  0  0
    4.8430    0.8020   -1.1760 O   0  0  0  0  0  0  0  0  0  0  0  0
    5.3110   -0.6220    0.6060 C   0  0  1  0  0  0  0  0  0  0  0  0
    6.7550   -0.5250    0.1390 C   0  0  0  0  0  0  0  0  0  0  0  0
    6.8610    0.7350    1.0290 C   0  0  0  0  0  0  0  0  0  0  0  0
    5.7480    0.1170    1.8640 C   0  0  0  0  0  0  0  0  0  0  0  0
    2.1020   -1.3830   -0.3430 S   0  0  0  0  0  0  0  0  0  0  0  0
   -4.6680   -0.1990    0.7410 C   0  0  0  0  0  0  0  0  0  0  0  0
   -6.1280    0.1320    0.9100 C   0  0  0  0  0  0  0  0  0  0  0  0
   -6.9140   -0.8160    0.0570 C   0  0  0  0  0  0  0  0  0  0  0  0
   -5.8420   -0.9250   -1.4280 S   0  0  0  0  0  0  0  0  0  0  0  0
  2  1  1  6
  2  3  1  0
  2 18  1  0
  2 21  1  0
  3  4  2  0
  3  5  1  0
  5  6  1  0
  6  7  1  0
  7  8  2  0
  7 17  1  0
  8  9  1  0
  9 10  1  0
 10 11  1  6
 10 17  1  0
 11 12  2  0
 13 11  1  6
 13 14  1  0
 13 16  1  0
 14 15  1  0
 15 16  1  0
 18 19  1  0
 19 20  1  0
 20 21  1  0
M  END
