
     RDKit          3D

 22 23  0  0  0  0  0  0  0  0999 V2000
   -3.2100   -1.4540    2.9740 C   0  0  0  0  0  0  0  0  0  0  0  0
   -2.0150   -1.1470    2.1710 C   0  0  0  0  0  0  0  0  0  0  0  0
   -2.1250   -0.5550    0.9980 C   0  0  0  0  0  0  0  0  0  0  0  0
   -3.3930   -0.1480    0.3750 C   0  0  0  0  0  0  0  0  0  0  0  0
   -4.7040   -0.1030    0.4740 C   0  0  0  0  0  0  0  0  0  0  0  0
   -5.3230    0.5380   -0.7020 C   0  0  0  0  0  0  0  0  0  0  0  0
   -4.2070    0.8800   -1.5410 N   0  0  0  0  0  0  0  0  0  0  0  0
   -3.0230    0.4630   -0.8870 C   0  0  0  0  0  0  0  0  0  0  0  0
   -1.6930    0.4440   -1.0410 C   0  0  0  0  0  0  0  0  0  0  0  0
   -1.0470   -0.1810    0.1010 C   0  0  0  0  0  0  0  0  0  0  0  0
    0.2360   -0.3670    0.2870 N   0  0  0  0  0  0  0  0  0  0  0  0
    1.1750    0.0450   -0.6640 N   0  0  0  0  0  0  0  0  0  0  0  0
    1.6550   -0.7890   -1.6900 C   0  0  0  0  0  0  0  0  0  0  0  0
    1.2170   -1.9860   -1.7790 O   0  0  0  0  0  0  0  0  0  0  0  0
    2.6360   -0.3510   -2.6700 C   0  0  0  0  0  0  0  0  0  0  0  0
    4.2820   -0.9970   -2.4990 S   0  0  0  0  0  0  0  0  0  0  0  0
    5.2110   -0.4780   -1.1210 C   0  0  0  0  0  0  0  0  0  0  0  0
    6.6670   -1.1570   -0.8340 S   0  0  0  0  0  0  0  0  0  0  0  0
    4.7430    0.5100   -0.2300 N   0  0  0  0  0  0  0  0  0  0  0  0
    5.5060    0.9280    0.9150 C   0  0  0  0  0  0  0  0  0  0  0  0
    5.0320    1.9200    1.8020 N   0  0  0  0  0  0  0  0  0  0  0  0
    6.6220    0.3570    1.0790 O   0  0  0  0  0  0  0  0  0  0  0  0
  1  2  1  0
  2  3  2  3
  3  4  1  0
  3 10  1  0
  4  5  2  0
  4  8  1  0
  5  6  1  0
  6  7  1  0
  7  8  1  0
  8  9  2  0
  9 10  1  0
 10 11  2  3
 11 12  1  0
 12 13  1  0
 13 14  2  0
 13 15  1  0
 15 16  1  0
 16 17  1  0
 17 18  2  0
 17 19  1  0
 19 20  1  0
 20 21  1  0
 20 22  2  0
M  END
