
     RDKit          3D

 34 37  0  0  0  0  0  0  0  0999 V2000
   -3.8780    1.2960    1.4430 O   0  0  0  0  0  0  0  0  0  0  0  0
   -4.6100    1.1740    0.4550 C   0  0  0  0  0  0  0  0  0  0  0  0
   -4.2890    0.2940   -0.5980 N   0  0  0  0  0  0  0  0  0  0  0  0
   -3.1510   -0.5330   -0.6870 C   0  0  0  0  0  0  0  0  0  0  0  0
   -3.0900   -1.4000   -1.7790 C   0  0  0  0  0  0  0  0  0  0  0  0
   -2.0090   -2.2360   -1.9390 C   0  0  0  0  0  0  0  0  0  0  0  0
   -0.9500   -2.2440   -1.0250 C   0  0  0  0  0  0  0  0  0  0  0  0
    0.0500   -3.1140   -1.2670 F   0  0  0  0  0  0  0  0  0  0  0  0
   -0.9810   -1.4060    0.0530 C   0  0  0  0  0  0  0  0  0  0  0  0
    0.0910   -1.3230    1.0720 C   0  0  0  0  0  0  0  0  0  0  0  0
    1.2510   -0.5750    0.7040 N   0  0  0  0  0  0  0  0  0  0  0  0
    1.2870    0.7890    0.8270 C   0  0  0  0  0  0  0  0  0  0  0  0
    0.2700    1.3820    1.2370 O   0  0  0  0  0  0  0  0  0  0  0  0
    2.3750    1.5440    0.5260 C   0  0  0  0  0  0  0  0  0  0  0  0
    3.5200    0.9570    0.0710 C   0  0  0  0  0  0  0  0  0  0  0  0
    3.4720   -0.4070   -0.0460 N   0  0  0  0  0  0  0  0  0  0  0  0
    4.6530   -1.1420   -0.5150 C   0  0  0  0  0  0  0  0  0  0  0  0
    5.5250   -1.5650    0.6250 C   0  0  0  0  0  0  0  0  0  0  0  0
    6.6650   -2.2830    0.0920 N   0  0  0  0  0  0  0  0  0  0  0  0
    7.5730   -1.4710   -0.6530 C   0  0  2  0  0  0  0  0  0  0  0  0
    8.6370   -2.2580   -1.0960 F   0  0  0  0  0  0  0  0  0  0  0  0
    8.0930   -0.4700    0.1390 F   0  0  0  0  0  0  0  0  0  0  0  0
    2.3860   -1.1320    0.2590 C   0  0  0  0  0  0  0  0  0  0  0  0
    2.4610   -2.4090    0.1140 O   0  0  0  0  0  0  0  0  0  0  0  0
    4.6310    1.8450   -0.2490 C   0  0  0  0  0  0  0  0  0  0  0  0
    4.5780    3.0840    0.6140 C   0  0  2  0  0  0  0  0  0  0  0  0
    5.1780    2.8330    2.2440 Cl  0  0  0  0  0  0  0  0  0  0  0  0
    2.7420    3.3160    0.6000 S   0  0  0  0  0  0  0  0  0  0  0  0
   -2.1090   -0.5660    0.1780 C   0  0  0  0  0  0  0  0  0  0  0  0
   -5.8620    1.9870    0.3940 C   0  0  2  0  0  0  0  0  0  0  0  0
   -6.7690    1.6630    1.5480 C   0  0  0  0  0  0  0  0  0  0  0  0
   -8.0820    1.3720    0.8130 C   0  0  0  0  0  0  0  0  0  0  0  0
   -7.5310    0.8140   -0.4940 C   0  0  0  0  0  0  0  0  0  0  0  0
   -6.5130    1.7110   -0.7750 O   0  0  0  0  0  0  0  0  0  0  0  0
  1  2  2  0
  2  3  1  0
 30  2  1  1
  3  4  1  0
  4  5  2  0
  4 29  1  0
  5  6  1  0
  6  7  2  0
  7  8  1  0
  7  9  1  0
  9 10  1  0
  9 29  2  0
 10 11  1  0
 11 12  1  0
 11 23  1  0
 12 13  2  0
 12 14  1  0
 14 15  2  0
 14 28  1  0
 15 16  1  0
 15 25  1  0
 16 17  1  0
 16 23  1  0
 17 18  1  0
 18 19  1  0
 19 20  1  0
 20 21  1  1
 20 22  1  0
 23 24  2  0
 25 26  1  0
 26 27  1  1
 26 28  1  0
 30 31  1  0
 30 34  1  0
 31 32  1  0
 32 33  1  0
 33 34  1  0
M  END
