
     RDKit          3D

 34 36  0  0  0  0  0  0  0  0999 V2000
    3.9610   -1.3420    2.7220 C   0  0  0  0  0  0  0  0  0  0  0  0
    3.8800   -1.9990    1.3700 C   0  0  2  0  0  0  0  0  0  0  0  0
    5.0620   -2.9580    1.2570 C   0  0  0  0  0  0  0  0  0  0  0  0
    3.6950   -1.1100    0.2110 C   0  0  2  0  0  0  0  0  0  0  0  0
    4.6150   -0.0810   -0.1180 N   0  0  0  0  0  0  0  0  0  0  0  0
    4.9970    0.3500   -1.4090 C   0  0  0  0  0  0  0  0  0  0  0  0
    4.5320   -0.2030   -2.4300 O   0  0  0  0  0  0  0  0  0  0  0  0
    5.9470    1.4760   -1.5610 C   0  0  2  0  0  0  0  0  0  0  0  0
    7.1080    1.2400   -2.4510 C   0  0  0  0  0  0  0  0  0  0  0  0
    6.3850    2.0130   -0.2720 N   0  0  0  0  0  0  0  0  0  0  0  0
    2.2470   -0.7780   -0.0990 C   0  0  0  0  0  0  0  0  0  0  0  0
    1.5950   -1.5280   -0.9190 O   0  0  0  0  0  0  0  0  0  0  0  0
    1.5340    0.2750    0.4310 N   0  0  0  0  0  0  0  0  0  0  0  0
    2.1010    1.4690    1.1080 C   0  0  0  0  0  0  0  0  0  0  0  0
    1.4450    2.5010    0.1090 C   0  0  0  0  0  0  0  0  0  0  0  0
    0.1170    1.8610   -0.2970 C   0  0  0  0  0  0  0  0  0  0  0  0
    0.1280    0.5880    0.5420 C   0  0  1  0  0  0  0  0  0  0  0  0
   -0.8430   -0.4080    0.2570 C   0  0  0  0  0  0  0  0  0  0  0  0
   -0.5840   -1.6370    0.2570 O   0  0  0  0  0  0  0  0  0  0  0  0
   -2.1920   -0.0660   -0.0500 N   0  0  0  0  0  0  0  0  0  0  0  0
   -3.1750   -1.1090   -0.3430 C   0  0  0  0  0  0  0  0  0  0  0  0
   -4.4810   -0.4260   -0.6620 C   0  0  1  0  0  0  0  0  0  0  0  0
   -5.5530   -1.3780   -0.9750 C   0  0  0  0  0  0  0  0  0  0  0  0
   -6.4580   -1.8630   -0.0820 C   0  0  0  0  0  0  0  0  0  0  0  0
   -7.4250   -2.7870   -0.4370 C   0  0  0  0  0  0  0  0  0  0  0  0
   -7.5210   -3.2680   -1.7230 C   0  0  0  0  0  0  0  0  0  0  0  0
   -6.6090   -2.7870   -2.6420 C   0  0  0  0  0  0  0  0  0  0  0  0
   -5.6590   -1.8740   -2.2890 C   0  0  0  0  0  0  0  0  0  0  0  0
   -4.8080    0.6850    0.2320 C   0  0  0  0  0  0  0  0  0  0  0  0
   -4.8240    0.5870    1.6070 C   0  0  0  0  0  0  0  0  0  0  0  0
   -5.1010    1.6740    2.4450 C   0  0  0  0  0  0  0  0  0  0  0  0
   -5.3720    2.9090    1.8910 C   0  0  0  0  0  0  0  0  0  0  0  0
   -5.3650    3.0410    0.5220 C   0  0  0  0  0  0  0  0  0  0  0  0
   -5.0940    1.9670   -0.2580 C   0  0  0  0  0  0  0  0  0  0  0  0
  2  1  1  1
  2  3  1  0
  2  4  1  0
  4  5  1  1
  4 11  1  0
  5  6  1  0
  6  7  2  0
  6  8  1  0
  8  9  1  1
  8 10  1  0
 11 12  2  0
 11 13  1  0
 13 14  1  0
 13 17  1  0
 14 15  1  0
 15 16  1  0
 16 17  1  0
 17 18  1  6
 18 19  2  0
 18 20  1  0
 20 21  1  0
 22 21  1  1
 22 23  1  0
 22 29  1  0
 23 24  2  0
 23 28  1  0
 24 25  1  0
 25 26  2  0
 26 27  1  0
 27 28  2  0
 29 30  2  0
 29 34  1  0
 30 31  1  0
 31 32  2  0
 32 33  1  0
 33 34  2  0
M  CHG  1  10   1
M  END
