
     RDKit          3D

 34 38  0  0  0  0  0  0  0  0999 V2000
   -7.9160    2.1710   -0.3150 C   0  0  0  0  0  0  0  0  0  0  0  0
   -6.6690    1.3520   -0.2350 C   0  0  0  0  0  0  0  0  0  0  0  0
   -6.4430    0.5300    0.8590 C   0  0  0  0  0  0  0  0  0  0  0  0
   -5.3150   -0.2400    0.9780 C   0  0  0  0  0  0  0  0  0  0  0  0
   -4.3640   -0.2100   -0.0070 C   0  0  0  0  0  0  0  0  0  0  0  0
   -3.1660   -0.9740    0.0680 N   0  0  0  0  0  0  0  0  0  0  0  0
   -2.0440   -0.5340    0.6490 N   0  0  0  0  0  0  0  0  0  0  0  0
   -1.0890   -1.4890    0.5670 C   0  0  0  0  0  0  0  0  0  0  0  0
    0.2750   -1.4200    1.0740 C   0  0  0  0  0  0  0  0  0  0  0  0
    1.0300   -2.3970    0.8940 O   0  0  0  0  0  0  0  0  0  0  0  0
    0.7610   -0.2870    1.7560 N   0  0  0  0  0  0  0  0  0  0  0  0
    2.1260   -0.2860    2.2300 C   0  0  2  0  0  0  0  0  0  0  0  0
    2.1710   -0.2690    3.7550 C   0  0  0  0  0  0  0  0  0  0  0  0
    2.8460    0.8880    1.6780 C   0  0  0  0  0  0  0  0  0  0  0  0
    3.9160    0.8310    0.8750 C   0  0  0  0  0  0  0  0  0  0  0  0
    4.3680    2.1560    0.5220 C   0  0  0  0  0  0  0  0  0  0  0  0
    5.3680    2.5730   -0.2270 C   0  0  0  0  0  0  0  0  0  0  0  0
    5.5910    3.9040   -0.4120 F   0  0  0  0  0  0  0  0  0  0  0  0
    6.2580    1.6000   -0.8500 C   0  0  0  0  0  0  0  0  0  0  0  0
    6.8020    0.4550   -0.3200 C   0  0  0  0  0  0  0  0  0  0  0  0
    7.5820   -0.1660   -1.2930 C   0  0  0  0  0  0  0  0  0  0  0  0
    8.3430   -1.4350   -1.1190 C   0  0  0  0  0  0  0  0  0  0  0  0
    7.4890    0.6150   -2.3830 N   0  0  0  0  0  0  0  0  0  0  0  0
    6.7130    1.6560   -2.1330 N   0  0  0  0  0  0  0  0  0  0  0  0
    3.4440    3.0740    1.2060 C   0  0  0  0  0  0  0  0  0  0  0  0
    3.4820    4.3220    1.1640 O   0  0  0  0  0  0  0  0  0  0  0  0
    2.5220    2.2510    1.9070 N   0  0  0  0  0  0  0  0  0  0  0  0
   -1.6650   -2.5120   -0.0770 N   0  0  0  0  0  0  0  0  0  0  0  0
   -2.9670   -2.2010   -0.3960 C   0  0  0  0  0  0  0  0  0  0  0  0
   -3.8560   -3.1340   -1.1250 C   0  0  2  0  0  0  0  0  0  0  0  0
   -4.1880   -2.6350   -2.5620 C   0  0  0  0  0  0  0  0  0  0  0  0
   -5.2220   -2.8270   -1.5060 C   0  0  0  0  0  0  0  0  0  0  0  0
   -4.5640    0.5990   -1.1040 C   0  0  0  0  0  0  0  0  0  0  0  0
   -5.6960    1.3590   -1.2030 C   0  0  0  0  0  0  0  0  0  0  0  0
  1  2  1  0
  2  3  2  0
  2 34  1  0
  3  4  1  0
  4  5  2  0
  5  6  1  0
  5 33  1  0
  6  7  1  0
  6 29  1  0
  7  8  2  0
  8  9  1  0
  8 28  1  0
  9 10  2  0
  9 11  1  0
 11 12  1  0
 12 13  1  1
 12 14  1  0
 14 15  2  0
 14 27  1  0
 15 16  1  0
 16 17  2  3
 16 25  1  0
 17 18  1  0
 17 19  1  0
 19 20  2  0
 19 24  1  0
 20 21  1  0
 21 22  1  0
 21 23  2  0
 23 24  1  0
 25 26  2  0
 25 27  1  0
 28 29  2  0
 30 29  1  1
 30 31  1  0
 30 32  1  0
 31 32  1  0
 33 34  2  0
M  END
