
     RDKit          3D

 33 37  0  0  0  0  0  0  0  0999 V2000
    7.6590    2.0000    2.0450 C   0  0  0  0  0  0  0  0  0  0  0  0
    6.3420    1.6980    1.6310 O   0  0  0  0  0  0  0  0  0  0  0  0
    6.0230    0.5370    0.9430 C   0  0  0  0  0  0  0  0  0  0  0  0
    6.9800   -0.4090    0.6180 C   0  0  0  0  0  0  0  0  0  0  0  0
    6.6180   -1.5460   -0.0640 C   0  0  0  0  0  0  0  0  0  0  0  0
    5.2910   -1.7170   -0.4140 C   0  0  0  0  0  0  0  0  0  0  0  0
    4.3270   -0.7900   -0.1010 C   0  0  0  0  0  0  0  0  0  0  0  0
    3.0200   -0.9220   -0.4280 N   0  0  0  0  0  0  0  0  0  0  0  0
    2.1030   -0.0120   -0.1180 C   0  0  0  0  0  0  0  0  0  0  0  0
    0.7150   -0.1730   -0.4770 N   0  0  0  0  0  0  0  0  0  0  0  0
   -0.2450    0.8490   -0.1180 C   0  0  0  0  0  0  0  0  0  0  0  0
   -1.5870    0.4550   -0.6400 C   0  0  1  0  0  0  0  0  0  0  0  0
   -1.5420    0.3340   -2.1480 C   0  0  0  0  0  0  0  0  0  0  0  0
   -1.1500    1.6490   -2.7050 C   0  0  0  0  0  0  0  0  0  0  0  0
    0.1050    2.1010   -2.9730 N   0  0  0  0  0  0  0  0  0  0  0  0
    0.0550    3.3270   -3.4670 N   0  0  0  0  0  0  0  0  0  0  0  0
   -1.2300    3.7050   -3.5340 C   0  0  0  0  0  0  0  0  0  0  0  0
   -1.6820    5.0220   -4.0390 C   0  0  0  0  0  0  0  0  0  0  0  0
   -1.9570    2.6790   -3.0690 N   0  0  0  0  0  0  0  0  0  0  0  0
   -2.0020   -0.8300   -0.0500 N   0  0  0  0  0  0  0  0  0  0  0  0
   -2.1180   -0.6470    1.3570 C   0  0  0  0  0  0  0  0  0  0  0  0
   -2.5560   -1.8880    2.1110 C   0  0  0  0  0  0  0  0  0  0  0  0
   -3.8410   -2.3350    1.5700 C   0  0  0  0  0  0  0  0  0  0  0  0
   -4.8460   -3.0070    2.1290 C   0  0  0  0  0  0  0  0  0  0  0  0
   -4.9110   -3.4990    3.5360 C   0  0  0  0  0  0  0  0  0  0  0  0
   -5.8730   -3.1700    1.0950 C   0  0  0  0  0  0  0  0  0  0  0  0
   -5.3170   -2.5100   -0.0970 C   0  0  0  0  0  0  0  0  0  0  0  0
   -4.1310   -2.0220    0.1790 C   0  0  0  0  0  0  0  0  0  0  0  0
   -3.2120   -1.2860   -0.7000 C   0  0  0  0  0  0  0  0  0  0  0  0
    2.4770    1.0920    0.5490 N   0  0  0  0  0  0  0  0  0  0  0  0
    3.7670    1.3180    0.9240 C   0  0  0  0  0  0  0  0  0  0  0  0
    4.0940    2.3590    1.5480 O   0  0  0  0  0  0  0  0  0  0  0  0
    4.6890    0.3520    0.5840 C   0  0  0  0  0  0  0  0  0  0  0  0
  1  2  1  0
  2  3  1  0
  3  4  2  0
  3 33  1  0
  4  5  1  0
  5  6  2  0
  6  7  1  0
  7  8  1  0
  7 33  2  0
  8  9  2  0
  9 10  1  0
  9 30  1  0
 10 11  1  0
 12 11  1  1
 12 13  1  0
 12 20  1  0
 13 14  1  0
 14 15  2  0
 14 19  1  0
 15 16  1  0
 16 17  2  0
 17 18  1  0
 17 19  1  0
 20 21  1  0
 20 29  1  0
 21 22  1  0
 22 23  1  0
 23 24  2  0
 23 28  1  0
 24 25  1  0
 24 26  1  0
 26 27  1  0
 27 28  2  0
 28 29  1  0
 30 31  1  0
 31 32  2  0
 31 33  1  0
M  END
