
     RDKit          3D

 34 38  0  0  0  0  0  0  0  0999 V2000
   -2.5530   -3.6220   -0.2410 C   0  0  0  0  0  0  0  0  0  0  0  0
   -2.1690   -2.4280    0.6800 C   0  0  2  0  0  0  0  0  0  0  0  0
   -3.3860   -2.0470    1.3980 C   0  0  0  0  0  0  0  0  0  0  0  0
   -3.3420   -0.9290    2.3680 C   0  0  0  0  0  0  0  0  0  0  0  0
   -2.9960    0.3790    1.8030 C   0  0  0  0  0  0  0  0  0  0  0  0
   -1.8060    1.0440    1.9020 C   0  0  0  0  0  0  0  0  0  0  0  0
   -1.9180    2.2350    1.2420 N   0  0  0  0  0  0  0  0  0  0  0  0
   -3.1550    2.3520    0.7210 C   0  0  0  0  0  0  0  0  0  0  0  0
   -3.7990    3.3200   -0.0200 C   0  0  0  0  0  0  0  0  0  0  0  0
   -5.0930    3.1760   -0.4250 C   0  0  0  0  0  0  0  0  0  0  0  0
   -5.6590    4.1730   -1.1510 F   0  0  0  0  0  0  0  0  0  0  0  0
   -5.7430    2.0590   -0.0890 N   0  0  0  0  0  0  0  0  0  0  0  0
   -5.1480    1.0900    0.6350 C   0  0  0  0  0  0  0  0  0  0  0  0
   -3.8410    1.1850    1.0710 C   0  0  0  0  0  0  0  0  0  0  0  0
   -1.5060   -1.4720   -0.1480 N   0  0  0  0  0  0  0  0  0  0  0  0
   -0.0650   -1.2410   -0.0560 C   0  0  0  0  0  0  0  0  0  0  0  0
    0.4800   -1.3220   -1.4710 C   0  0  2  0  0  0  0  0  0  0  0  0
    1.9410   -1.1230   -1.5170 C   0  0  0  0  0  0  0  0  0  0  0  0
    2.4160   -0.1380   -2.1310 O   0  0  0  0  0  0  0  0  0  0  0  0
    2.8600   -2.0200   -0.8780 N   0  0  0  0  0  0  0  0  0  0  0  0
    4.2900   -1.8740   -0.8870 C   0  0  0  0  0  0  0  0  0  0  0  0
    4.7440   -0.6080   -0.2600 C   0  0  0  0  0  0  0  0  0  0  0  0
    4.9200   -0.3360    1.0420 N   0  0  0  0  0  0  0  0  0  0  0  0
    5.3550    0.9510    1.1930 C   0  0  0  0  0  0  0  0  0  0  0  0
    5.6750    1.7030    2.3040 C   0  0  0  0  0  0  0  0  0  0  0  0
    6.0940    3.0050    2.1580 C   0  0  0  0  0  0  0  0  0  0  0  0
    6.1740    3.5070    0.8710 C   0  0  0  0  0  0  0  0  0  0  0  0
    5.8550    2.7500   -0.1890 N   0  0  0  0  0  0  0  0  0  0  0  0
    5.4400    1.4650   -0.0800 C   0  0  0  0  0  0  0  0  0  0  0  0
    5.0640    0.4980   -0.9490 N   0  0  0  0  0  0  0  0  0  0  0  0
   -0.1640   -0.3930   -2.4400 C   0  0  0  0  0  0  0  0  0  0  0  0
   -1.3520    0.3190   -1.8370 C   0  0  0  0  0  0  0  0  0  0  0  0
   -2.1580   -0.7000   -1.1400 C   0  0  0  0  0  0  0  0  0  0  0  0
   -3.3560   -0.8410   -1.4420 O   0  0  0  0  0  0  0  0  0  0  0  0
  2  1  1  6
  2  3  1  0
  2 15  1  0
  3  4  1  0
  4  5  1  0
  5  6  2  0
  5 14  1  0
  6  7  1  0
  7  8  1  0
  8  9  2  0
  8 14  1  0
  9 10  1  0
 10 11  1  0
 10 12  2  0
 12 13  1  0
 13 14  2  0
 15 16  1  0
 15 33  1  0
 16 17  1  0
 17 18  1  1
 17 31  1  0
 18 19  2  0
 18 20  1  0
 20 21  1  0
 21 22  1  0
 22 23  2  0
 22 30  1  0
 23 24  1  0
 24 25  2  0
 24 29  1  0
 25 26  1  0
 26 27  2  0
 27 28  1  0
 28 29  2  0
 29 30  1  0
 31 32  1  0
 32 33  1  0
 33 34  2  0
M  END
