
     RDKit          3D

 40 43  0  0  0  0  0  0  0  0999 V2000
    2.7330    4.4330    0.3270 C   0  0  0  0  0  0  0  0  0  0  0  0
    3.2810    3.1010   -0.2520 C   0  0  1  0  0  0  0  0  0  0  0  0
    4.7480    3.1020    0.1270 C   0  0  0  0  0  0  0  0  0  0  0  0
    5.4690    4.2570   -0.4500 C   0  0  0  0  0  0  0  0  0  0  0  0
    4.8540    5.2060   -1.2790 N   0  0  0  0  0  0  0  0  0  0  0  0
    6.6900    4.3890   -0.1830 O   0  0  0  0  0  0  0  0  0  0  0  0
    2.4960    2.0010    0.3440 C   0  0  0  0  0  0  0  0  0  0  0  0
    2.7440    0.6590    0.0240 N   0  0  2  0  0  0  0  0  0  0  0  0
    3.2870    0.4840   -1.2940 C   0  0  0  0  0  0  0  0  0  0  0  0
    4.4740   -0.5120   -1.2860 C   0  0  0  0  0  0  0  0  0  0  0  0
    4.0540   -1.7650   -0.8180 O   0  0  0  0  0  0  0  0  0  0  0  0
    4.8460   -2.8670   -0.6830 C   0  0  0  0  0  0  0  0  0  0  0  0
    4.3770   -4.0740   -0.2170 C   0  0  0  0  0  0  0  0  0  0  0  0
    5.1580   -5.1950   -0.0740 C   0  0  0  0  0  0  0  0  0  0  0  0
    6.4900   -5.0930   -0.4220 C   0  0  0  0  0  0  0  0  0  0  0  0
    6.9810   -3.8860   -0.8940 C   0  0  0  0  0  0  0  0  0  0  0  0
    6.1910   -2.7670   -1.0340 C   0  0  0  0  0  0  0  0  0  0  0  0
    1.7070   -0.2840    0.3360 C   0  0  2  0  0  0  0  0  0  0  0  0
    0.7450   -0.6300   -0.7400 C   0  0  0  0  0  0  0  0  0  0  0  0
    0.1440    0.4210   -1.5660 C   0  0  0  0  0  0  0  0  0  0  0  0
   -1.3150    0.7210   -1.1890 C   0  0  0  0  0  0  0  0  0  0  0  0
   -1.8660    1.5840   -0.3080 C   0  0  0  0  0  0  0  0  0  0  0  0
   -3.2050    1.6240   -0.2030 C   0  0  0  0  0  0  0  0  0  0  0  0
   -3.9490    0.8010   -0.9810 C   0  0  0  0  0  0  0  0  0  0  0  0
   -2.6140   -0.0830   -1.9210 S   0  0  0  0  0  0  0  0  0  0  0  0
   -5.3130    0.4450   -1.2720 C   0  0  1  0  0  0  0  0  0  0  0  0
   -5.4880    0.3970   -2.7850 C   0  0  0  0  0  0  0  0  0  0  0  0
   -6.1860   -0.8760   -3.1080 C   0  0  0  0  0  0  0  0  0  0  0  0
   -6.7230   -1.4180   -1.8150 C   0  0  0  0  0  0  0  0  0  0  0  0
   -5.8140   -0.8450   -0.7180 C   0  0  2  0  0  0  0  0  0  0  0  0
   -6.7230   -0.6490    0.4840 C   0  0  0  0  0  0  0  0  0  0  0  0
   -5.9730   -0.3500    1.7450 C   0  0  0  0  0  0  0  0  0  0  0  0
   -5.1740   -1.5240    2.2470 C   0  0  0  0  0  0  0  0  0  0  0  0
   -4.1580   -1.0480    3.2790 C   0  0  0  0  0  0  0  0  0  0  0  0
   -2.9500   -1.6850    3.1540 O   0  0  0  0  0  0  0  0  0  0  0  0
   -1.9080   -0.7800    2.8410 C   0  0  0  0  0  0  0  0  0  0  0  0
   -0.5860   -1.4230    3.0540 C   0  0  0  0  0  0  0  0  0  0  0  0
   -0.4850   -2.1440    4.0800 O   0  0  0  0  0  0  0  0  0  0  0  0
    0.5340   -1.2750    2.1950 N   0  0  0  0  0  0  0  0  0  0  0  0
    0.9730   -0.0160    1.6150 C   0  0  0  0  0  0  0  0  0  0  0  0
  2  1  1  1
  2  3  1  0
  2  7  1  0
  3  4  1  0
  4  5  1  0
  4  6  2  0
  8  7  1  6
  8  9  1  0
  8 18  1  0
  9 10  1  0
 10 11  1  0
 11 12  1  0
 12 13  2  0
 12 17  1  0
 13 14  1  0
 14 15  2  0
 15 16  1  0
 16 17  2  0
 18 19  1  6
 18 40  1  0
 19 20  1  0
 20 21  1  0
 21 22  2  0
 21 25  1  0
 22 23  1  0
 23 24  2  0
 24 25  1  0
 24 26  1  0
 26 27  1  6
 26 30  1  0
 27 28  1  0
 28 29  1  0
 30 29  1  6
 30 31  1  0
 31 32  1  0
 32 33  1  0
 33 34  1  0
 34 35  1  0
 35 36  1  0
 36 37  1  0
 37 38  2  0
 37 39  1  0
 39 40  1  0
M  CHG  1   8   1
M  END
