
     RDKit          3D

 40 43  0  0  0  0  0  0  0  0999 V2000
    7.3110   -0.6630   -1.3760 C   0  0  0  0  0  0  0  0  0  0  0  0
    7.2760   -0.3190    0.1160 C   0  0  0  0  0  0  0  0  0  0  0  0
    6.3360   -1.2510    0.8160 C   0  0  0  0  0  0  0  0  0  0  0  0
    4.9180   -1.2470    0.4560 C   0  0  0  0  0  0  0  0  0  0  0  0
    4.0670   -0.0670    0.6710 C   0  0  2  0  0  0  0  0  0  0  0  0
    4.5130    1.1520   -0.0780 C   0  0  0  0  0  0  0  0  0  0  0  0
    3.9360    0.3370    2.1190 C   0  0  0  0  0  0  0  0  0  0  0  0
    2.9280   -0.4420    2.8750 C   0  0  0  0  0  0  0  0  0  0  0  0
    1.5990   -0.5760    2.2280 C   0  0  0  0  0  0  0  0  0  0  0  0
    1.6290    0.2610    0.9240 C   0  0  2  0  0  0  0  0  0  0  0  0
    0.3970    0.2610    0.3330 O   0  0  0  0  0  0  0  0  0  0  0  0
   -0.4150    1.2960    0.0350 C   0  0  0  0  0  0  0  0  0  0  0  0
   -0.0270    2.5740    0.3340 C   0  0  0  0  0  0  0  0  0  0  0  0
   -0.8470    3.6640    0.0340 C   0  0  0  0  0  0  0  0  0  0  0  0
   -2.0710    3.4940   -0.5720 C   0  0  0  0  0  0  0  0  0  0  0  0
   -2.9640    4.6330   -0.8920 C   0  0  0  0  0  0  0  0  0  0  0  0
   -4.1140    4.4180   -1.4650 C   0  0  0  0  0  0  0  0  0  0  0  0
   -5.1040    5.4470   -1.8410 C   0  0  0  0  0  0  0  0  0  0  0  0
   -6.3070    5.1380   -2.4490 O   0  0  0  0  0  0  0  0  0  0  0  0
   -4.6980    6.9910   -1.4960 S   0  0  0  0  0  0  0  0  0  0  0  0
   -3.0840    7.1080   -0.7090 C   0  0  0  0  0  0  0  0  0  0  0  0
   -2.4570    5.9580   -0.5190 C   0  0  0  0  0  0  0  0  0  0  0  0
   -2.4160    2.1870   -0.8540 C   0  0  0  0  0  0  0  0  0  0  0  0
   -1.6590    1.0800   -0.5840 C   0  0  0  0  0  0  0  0  0  0  0  0
   -2.0720   -0.2820   -0.9280 C   0  0  2  0  0  0  0  0  0  0  0  0
   -3.5310   -0.3390   -1.2260 C   0  0  0  0  0  0  0  0  0  0  0  0
   -4.4590    0.0300   -0.1290 C   0  0  0  0  0  0  0  0  0  0  0  0
   -5.8740   -0.0480   -0.5820 C   0  0  0  0  0  0  0  0  0  0  0  0
   -6.9750   -0.0910   -0.9450 N   0  0  0  0  0  0  0  0  0  0  0  0
   -1.6070   -1.2290    0.0260 N   0  0  0  0  0  0  0  0  0  0  0  0
   -2.2940   -2.5030    0.0870 C   0  0  2  0  0  0  0  0  0  0  0  0
   -2.4690   -2.9810    1.5000 C   0  0  0  0  0  0  0  0  0  0  0  0
   -1.7130   -4.1910    1.8980 C   0  0  0  0  0  0  0  0  0  0  0  0
   -2.1490   -5.4310    1.2460 C   0  0  0  0  0  0  0  0  0  0  0  0
   -2.0800   -6.5170    1.8760 O   0  0  0  0  0  0  0  0  0  0  0  0
   -2.6660   -5.5840   -0.0660 N   0  0  0  0  0  0  0  0  0  0  0  0
   -2.5850   -4.6230   -1.1380 C   0  0  0  0  0  0  0  0  0  0  0  0
   -1.6200   -3.5160   -0.8130 C   0  0  2  0  0  0  0  0  0  0  0  0
   -0.3840   -3.9260   -0.3950 O   0  0  0  0  0  0  0  0  0  0  0  0
    2.6920   -0.4280    0.0860 C   0  0  0  0  0  0  0  0  0  0  0  0
  1  2  1  0
  2  3  1  0
  3  4  1  0
  4  5  1  0
  5  6  1  6
  5  7  1  0
  5 40  1  0
  7  8  1  0
  8  9  1  0
  9 10  1  0
 10 11  1  6
 10 40  1  0
 11 12  1  0
 12 13  2  0
 12 24  1  0
 13 14  1  0
 14 15  2  0
 15 16  1  0
 15 23  1  0
 16 17  2  0
 16 22  1  0
 17 18  1  0
 18 19  1  0
 18 20  2  0
 20 21  1  0
 21 22  2  0
 23 24  2  0
 24 25  1  0
 25 26  1  1
 25 30  1  0
 26 27  1  0
 27 28  1  0
 28 29  3  0
 31 30  1  1
 31 32  1  0
 31 38  1  0
 32 33  1  0
 33 34  1  0
 34 35  2  0
 34 36  1  0
 36 37  1  0
 37 38  1  0
 38 39  1  1
M  CHG  1  30   1
M  END
