
     RDKit          3D

 40 43  0  0  0  0  0  0  0  0999 V2000
    4.3320   -1.5760   -1.9720 C   0  0  0  0  0  0  0  0  0  0  0  0
    2.8360   -1.5250   -2.0380 C   0  0  0  0  0  0  0  0  0  0  0  0
    2.1230   -1.9690   -0.8050 C   0  0  1  0  0  0  0  0  0  0  0  0
    2.5500   -3.3740   -0.4890 C   0  0  0  0  0  0  0  0  0  0  0  0
    1.8990   -1.0290    0.2910 C   0  0  1  0  0  0  0  0  0  0  0  0
    1.1650   -1.6630    1.4500 C   0  0  0  0  0  0  0  0  0  0  0  0
    1.3350   -2.9340    1.6100 O   0  0  0  0  0  0  0  0  0  0  0  0
    0.3010   -0.9980    2.3900 C   0  0  0  0  0  0  0  0  0  0  0  0
   -0.7420   -0.2810    2.3210 C   0  0  0  0  0  0  0  0  0  0  0  0
   -1.5970    0.2260    1.2020 C   0  0  2  0  0  0  0  0  0  0  0  0
   -1.5080   -0.3430    0.0090 O   0  0  0  0  0  0  0  0  0  0  0  0
   -1.9690   -1.3070   -0.8180 C   0  0  0  0  0  0  0  0  0  0  0  0
   -1.5030   -1.3290   -2.1550 C   0  0  0  0  0  0  0  0  0  0  0  0
   -1.9590   -2.2910   -2.9920 C   0  0  0  0  0  0  0  0  0  0  0  0
   -2.8570   -3.2470   -2.5990 C   0  0  0  0  0  0  0  0  0  0  0  0
   -3.3310   -4.2350   -3.4480 O   0  0  0  0  0  0  0  0  0  0  0  0
   -3.3150   -3.2340   -1.3020 C   0  0  0  0  0  0  0  0  0  0  0  0
   -2.8650   -2.2530   -0.4030 C   0  0  0  0  0  0  0  0  0  0  0  0
   -3.3970   -2.3660    0.9600 C   0  0  0  0  0  0  0  0  0  0  0  0
   -1.6310    1.7340    1.2860 C   0  0  2  0  0  0  0  0  0  0  0  0
   -2.3830    2.4710    0.2460 C   0  0  1  0  0  0  0  0  0  0  0  0
   -2.0070    2.4200   -1.1620 C   0  0  0  0  0  0  0  0  0  0  0  0
   -3.2210    3.1430   -1.8020 C   0  0  0  0  0  0  0  0  0  0  0  0
   -4.3000    2.4570   -1.0430 C   0  0  0  0  0  0  0  0  0  0  0  0
   -5.6390    2.1670   -1.3310 C   0  0  0  0  0  0  0  0  0  0  0  0
   -6.4240    1.4930   -0.4070 C   0  0  0  0  0  0  0  0  0  0  0  0
   -5.9030    1.1030    0.7960 C   0  0  0  0  0  0  0  0  0  0  0  0
   -4.6110    1.3910    1.0560 N   0  0  0  0  0  0  0  0  0  0  0  0
   -3.8310    2.0420    0.1780 C   0  0  0  0  0  0  0  0  0  0  0  0
   -0.4810    2.4220    1.6880 N   0  0  0  0  0  0  0  0  0  0  0  0
    0.8170    2.2440    1.2890 C   0  0  0  0  0  0  0  0  0  0  0  0
    1.2630    2.3400   -0.1160 C   0  0  0  0  0  0  0  0  0  0  0  0
    2.7200    2.0910   -0.2180 C   0  0  0  0  0  0  0  0  0  0  0  0
    3.6150    3.5000   -0.9810 S   0  0  0  0  0  0  0  0  0  0  0  0
    3.4120    1.0360    0.1490 C   0  0  0  0  0  0  0  0  0  0  0  0
    4.8910    1.1870   -0.1310 C   0  0  0  0  0  0  0  0  0  0  0  0
    2.9840   -0.1700    0.7450 N   0  0  0  0  0  0  0  0  0  0  0  0
    3.6400   -0.6540    1.9530 C   0  0  0  0  0  0  0  0  0  0  0  0
    4.6570    0.2060    2.5890 C   0  0  0  0  0  0  0  0  0  0  0  0
    5.0720   -0.5280    3.7570 O   0  0  0  0  0  0  0  0  0  0  0  0
  1  2  1  0
  2  3  1  0
  3  4  1  1
  3  5  1  0
  5  6  1  0
  5 37  1  1
  6  7  2  0
  6  8  1  0
  8  9  2  0
  9 10  1  0
 10 11  1  6
 10 20  1  0
 11 12  1  0
 12 13  2  0
 12 18  1  0
 13 14  1  0
 14 15  2  0
 15 16  1  0
 15 17  1  0
 17 18  2  0
 18 19  1  0
 20 21  1  0
 20 30  1  6
 21 22  1  6
 21 29  1  0
 22 23  1  0
 23 24  1  0
 24 25  2  0
 24 29  1  0
 25 26  1  0
 26 27  2  0
 27 28  1  0
 28 29  2  0
 30 31  1  0
 31 32  1  0
 32 33  1  0
 33 34  1  0
 33 35  2  0
 35 36  1  0
 35 37  1  0
 37 38  1  0
 38 39  1  0
 39 40  1  0
M  CHG  1  30   1
M  END
