
     RDKit          3D

 40 43  0  0  0  0  0  0  0  0999 V2000
   -2.3730   -1.6380   -2.4290 C   0  0  0  0  0  0  0  0  0  0  0  0
   -1.4590   -1.7800   -1.2850 C   0  0  0  0  0  0  0  0  0  0  0  0
   -1.6520   -0.9370   -0.0760 C   0  0  1  0  0  0  0  0  0  0  0  0
   -1.5720    0.5290   -0.2200 C   0  0  0  0  0  0  0  0  0  0  0  0
   -2.4870    1.2500   -1.0980 C   0  0  1  0  0  0  0  0  0  0  0  0
   -3.9440    1.1920   -0.8340 C   0  0  0  0  0  0  0  0  0  0  0  0
   -4.2730    2.1030    0.3310 C   0  0  0  0  0  0  0  0  0  0  0  0
   -3.8110    3.4760   -0.1500 C   0  0  2  0  0  0  0  0  0  0  0  0
   -3.6590    4.4480    0.9720 C   0  0  0  0  0  0  0  0  0  0  0  0
   -4.6580    4.0040   -1.2720 C   0  0  0  0  0  0  0  0  0  0  0  0
   -2.1940    3.0360   -0.8650 S   0  0  0  0  0  0  0  0  0  0  0  0
   -1.1540    3.2920    0.1870 O   0  0  0  0  0  0  0  0  0  0  0  0
   -2.7370   -1.3600    0.8800 C   0  0  1  0  0  0  0  0  0  0  0  0
   -3.4520   -2.5450    0.5650 N   0  0  0  0  0  0  0  0  0  0  0  0
   -4.7300   -2.7010    1.2260 C   0  0  1  0  0  0  0  0  0  0  0  0
   -5.1150   -1.4860    2.0430 C   0  0  0  0  0  0  0  0  0  0  0  0
   -5.7830   -2.8970    0.1210 C   0  0  0  0  0  0  0  0  0  0  0  0
   -5.4550   -4.0320   -0.6240 O   0  0  0  0  0  0  0  0  0  0  0  0
   -1.7350   -1.6240    1.9950 C   0  0  0  0  0  0  0  0  0  0  0  0
   -0.6640   -1.3910    0.9940 C   0  0  1  0  0  0  0  0  0  0  0  0
    0.0830   -2.5810    0.6930 N   0  0  0  0  0  0  0  0  0  0  0  0
    1.1910   -2.6220   -0.1880 C   0  0  0  0  0  0  0  0  0  0  0  0
    1.5200   -3.7630   -0.8870 C   0  0  0  0  0  0  0  0  0  0  0  0
    2.6220   -3.8000   -1.7140 C   0  0  0  0  0  0  0  0  0  0  0  0
    3.4550   -2.7020   -1.8870 C   0  0  0  0  0  0  0  0  0  0  0  0
    4.6330   -2.7280   -2.7890 C   0  0  0  0  0  0  0  0  0  0  0  0
    3.1140   -1.5690   -1.1800 C   0  0  0  0  0  0  0  0  0  0  0  0
    3.9670   -0.3600   -1.2710 C   0  0  0  0  0  0  0  0  0  0  0  0
    4.1260    0.2090   -2.3640 O   0  0  0  0  0  0  0  0  0  0  0  0
    4.5590    0.0740   -0.0670 N   0  0  0  0  0  0  0  0  0  0  0  0
    5.4120    1.1920    0.0510 C   0  0  0  0  0  0  0  0  0  0  0  0
    5.8520    1.9360   -1.0150 C   0  0  0  0  0  0  0  0  0  0  0  0
    6.7120    3.0080   -0.7390 C   0  0  0  0  0  0  0  0  0  0  0  0
    7.2190    3.8540   -1.8610 C   0  0  0  0  0  0  0  0  0  0  0  0
    7.1240    3.3350    0.5180 C   0  0  0  0  0  0  0  0  0  0  0  0
    6.6790    2.5860    1.5820 C   0  0  0  0  0  0  0  0  0  0  0  0
    5.8330    1.5260    1.3520 C   0  0  0  0  0  0  0  0  0  0  0  0
    5.3640    0.7490    2.4000 O   0  0  0  0  0  0  0  0  0  0  0  0
    5.7640    1.0560    3.7180 C   0  0  0  0  0  0  0  0  0  0  0  0
    2.0170   -1.5180   -0.3540 C   0  0  0  0  0  0  0  0  0  0  0  0
  1  2  1  0
  3  2  1  6
  3  4  1  0
  3 13  1  0
  3 20  1  0
  5  4  1  1
  5  6  1  0
 11  5  1  1
  6  7  1  0
  7  8  1  0
  8  9  1  1
  8 10  1  0
  8 11  1  0
 11 12  2  0
 13 14  1  6
 13 19  1  0
 14 15  1  0
 15 16  1  6
 15 17  1  0
 17 18  1  0
 19 20  1  0
 20 21  1  6
 21 22  1  0
 22 23  2  0
 22 40  1  0
 23 24  1  0
 24 25  2  0
 25 26  1  0
 25 27  1  0
 27 28  1  0
 27 40  2  0
 28 29  2  0
 28 30  1  0
 30 31  1  0
 31 32  2  0
 31 37  1  0
 32 33  1  0
 33 34  1  0
 33 35  2  0
 35 36  1  0
 36 37  2  0
 37 38  1  0
 38 39  1  0
M  CHG  1  14   1
M  END
