
     RDKit          3D

 18 19  0  0  0  0  0  0  0  0999 V2000
   -3.0640   -1.0550   -1.6960 C   0  0  0  0  0  0  0  0  0  0  0  0
   -2.4540   -1.2910   -0.3050 C   0  0  2  0  0  0  0  0  0  0  0  0
   -3.3390   -0.6330    0.6760 C   0  0  0  0  0  0  0  0  0  0  0  0
   -3.4800    0.7510    0.3010 O   0  0  0  0  0  0  0  0  0  0  0  0
   -2.3520    1.5550    0.0750 C   0  0  0  0  0  0  0  0  0  0  0  0
   -2.5640    2.7270   -0.3590 O   0  0  0  0  0  0  0  0  0  0  0  0
   -0.9580    1.2620    0.2580 N   0  0  0  0  0  0  0  0  0  0  0  0
   -0.0150    2.3300    0.1370 C   0  0  0  0  0  0  0  0  0  0  0  0
   -0.5060   -0.0940    0.5650 C   0  0  2  0  0  0  0  0  0  0  0  0
    0.9530   -0.2410    0.5830 C   0  0  0  0  0  0  0  0  0  0  0  0
    1.9050    0.2050   -0.3030 C   0  0  0  0  0  0  0  0  0  0  0  0
    3.1640   -0.1940    0.1640 C   0  0  0  0  0  0  0  0  0  0  0  0
    4.4490    0.0700   -0.4720 C   0  0  0  0  0  0  0  0  0  0  0  0
    5.6270   -0.4010    0.1290 N   0  0  0  0  0  0  0  0  0  0  0  0
    4.4890    0.7070   -1.5340 O   0  0  0  0  0  0  0  0  0  0  0  0
    2.9260   -0.8580    1.3020 N   0  0  0  0  0  0  0  0  0  0  0  0
    1.6430   -0.8810    1.5380 N   0  0  0  0  0  0  0  0  0  0  0  0
   -1.1000   -0.9890   -0.3640 N   0  0  0  0  0  0  0  0  0  0  0  0
  2  1  1  6
  2  3  1  0
  2 18  1  0
  3  4  1  0
  4  5  1  0
  5  6  2  0
  5  7  1  0
  7  8  1  0
  7  9  1  0
  9 10  1  6
  9 18  1  0
 10 11  2  0
 10 17  1  0
 11 12  1  0
 12 13  1  0
 12 16  2  0
 13 14  1  0
 13 15  2  0
 16 17  1  0
M  END
