
     RDKit          3D

 28 29  0  0  0  0  0  0  0  0999 V2000
    4.9510   -2.2680    1.0810 C   0  0  0  0  0  0  0  0  0  0  0  0
    3.8070   -1.2870    1.1860 C   0  0  0  0  0  0  0  0  0  0  0  0
    3.4160   -0.7710   -0.0950 N   0  0  0  0  0  0  0  0  0  0  0  0
    2.3560    0.1740   -0.2620 C   0  0  0  0  0  0  0  0  0  0  0  0
    2.7160    1.4200   -0.5180 C   0  0  0  0  0  0  0  0  0  0  0  0
    4.1250    1.7760   -0.6170 C   0  0  0  0  0  0  0  0  0  0  0  0
    4.4530    2.3490   -2.0010 C   0  0  0  0  0  0  0  0  0  0  0  0
    1.4960    2.7020   -0.7490 S   0  0  0  0  0  0  0  0  0  0  0  0
   -0.0470    1.9230   -0.5620 O   0  0  0  0  0  0  0  0  0  0  0  0
   -0.0190    0.5590   -0.2910 C   0  0  0  0  0  0  0  0  0  0  0  0
   -1.3170   -0.0410   -0.1470 N   0  0  0  0  0  0  0  0  0  0  0  0
   -2.2150   -0.3320   -1.2790 C   0  0  0  0  0  0  0  0  0  0  0  0
   -3.5370   -0.1560   -0.6220 C   0  0  1  0  0  0  0  0  0  0  0  0
   -3.8240    1.2130   -0.6070 O   0  0  0  0  0  0  0  0  0  0  0  0
   -3.8580    1.6560   -1.8450 O   0  0  0  0  0  0  0  0  0  0  0  0
   -3.5800    2.9310   -1.8800 O   0  0  0  0  0  0  0  0  0  0  0  0
   -4.6630   -0.8900   -1.2850 C   0  0  1  0  0  0  0  0  0  0  0  0
   -4.4140   -2.3460   -1.4680 C   0  0  0  0  0  0  0  0  0  0  0  0
   -5.8340   -0.6680   -0.5830 O   0  0  0  0  0  0  0  0  0  0  0  0
   -3.3010   -0.5540    0.7300 N   0  0  0  0  0  0  0  0  0  0  0  0
   -2.0160   -0.4820    0.9900 C   0  0  0  0  0  0  0  0  0  0  0  0
   -1.4220   -0.8080    2.3020 C   0  0  0  0  0  0  0  0  0  0  0  0
   -1.0060    0.4140    3.0400 C   0  0  1  0  0  0  0  0  0  0  0  0
   -0.0660    1.1950    2.4140 O   0  0  0  0  0  0  0  0  0  0  0  0
   -2.0950    1.2180    3.3680 F   0  0  0  0  0  0  0  0  0  0  0  0
   -0.4750    0.0140    4.2900 O   0  0  0  0  0  0  0  0  0  0  0  0
   -0.1130    1.1000    4.9300 F   0  0  0  0  0  0  0  0  0  0  0  0
    1.0010   -0.1730   -0.1660 N   0  0  0  0  0  0  0  0  0  0  0  0
  1  2  1  0
  2  3  1  0
  3  4  1  0
  4  5  2  0
  4 28  1  0
  5  6  1  0
  5  8  1  0
  6  7  1  0
  8  9  1  0
  9 10  1  0
 10 11  1  0
 10 28  2  0
 11 12  1  0
 11 21  1  0
 12 13  1  0
 13 14  1  1
 13 17  1  0
 13 20  1  0
 14 15  1  0
 15 16  1  0
 17 18  1  1
 17 19  1  0
 20 21  2  0
 21 22  1  0
 22 23  1  0
 23 24  1  6
 23 25  1  0
 23 26  1  0
 26 27  1  0
M  CHG  1  24  -1
M  END
