
     RDKit          3D

 32 33  0  0  0  0  0  0  0  0999 V2000
   -4.6590    2.9740   -2.7520 C   0  0  0  0  0  0  0  0  0  0  0  0
   -4.4270    1.8530   -1.7820 C   0  0  2  0  0  0  0  0  0  0  0  0
   -4.9530    0.6390   -2.2210 O   0  0  0  0  0  0  0  0  0  0  0  0
   -5.0600    2.1150   -0.5350 O   0  0  0  0  0  0  0  0  0  0  0  0
   -4.1910    2.7690    0.3340 C   0  0  0  0  0  0  0  0  0  0  0  0
   -3.1930    1.9150    0.8590 O   0  0  0  0  0  0  0  0  0  0  0  0
   -3.0630    0.8970   -0.0650 C   0  0  1  0  0  0  0  0  0  0  0  0
   -3.0040    1.6600   -1.4120 C   0  0  1  0  0  0  0  0  0  0  0  0
   -2.2310    0.8390   -2.1660 O   0  0  0  0  0  0  0  0  0  0  0  0
   -1.1020    0.7640   -1.2780 C   0  0  2  0  0  0  0  0  0  0  0  0
    0.0040   -0.0010   -1.8690 C   0  0  0  0  0  0  0  0  0  0  0  0
    1.0850    0.0200   -0.9570 O   0  0  0  0  0  0  0  0  0  0  0  0
    2.1690   -0.6770   -1.4870 C   0  0  1  0  0  0  0  0  0  0  0  0
    3.2010    0.2710   -1.5790 O   0  0  0  0  0  0  0  0  0  0  0  0
    3.6460    0.3360   -2.9030 C   0  0  0  0  0  0  0  0  0  0  0  0
    4.7640    1.3860   -2.9180 C   0  0  0  0  0  0  0  0  0  0  0  0
    5.7650    0.9380   -2.0420 O   0  0  0  0  0  0  0  0  0  0  0  0
    2.5240   -1.7760   -0.5210 C   0  0  2  0  0  0  0  0  0  0  0  0
    1.3840   -2.5620   -0.3610 O   0  0  0  0  0  0  0  0  0  0  0  0
    2.9180   -1.2300    0.8330 C   0  0  0  0  0  0  0  0  0  0  0  0
    3.1820   -2.2500    1.7420 O   0  0  0  0  0  0  0  0  0  0  0  0
    3.5440   -1.7550    2.9850 C   0  0  0  0  0  0  0  0  0  0  0  0
    3.8140   -2.8730    3.9120 C   0  0  0  0  0  0  0  0  0  0  0  0
    3.6920   -4.0500    3.4930 O   0  0  0  0  0  0  0  0  0  0  0  0
    4.1960   -2.6940    5.2250 O   0  0  0  0  0  0  0  0  0  0  0  0
   -1.8000    0.1340   -0.0910 C   0  0  2  0  0  0  0  0  0  0  0  0
   -2.1660   -1.1710   -0.5560 O   0  0  0  0  0  0  0  0  0  0  0  0
   -1.0030    0.0260    1.1430 C   0  0  0  0  0  0  0  0  0  0  0  0
   -1.7500   -0.6580    2.2500 C   0  0  2  0  0  0  0  0  0  0  0  0
   -2.8940    0.0540    2.5510 O   0  0  0  0  0  0  0  0  0  0  0  0
   -0.8830   -0.8360    3.4890 C   0  0  0  0  0  0  0  0  0  0  0  0
   -1.5720   -1.5250    4.4790 O   0  0  0  0  0  0  0  0  0  0  0  0
  2  1  1  6
  2  3  1  0
  2  4  1  0
  2  8  1  0
  4  5  1  0
  5  6  1  0
  7  6  1  1
  7  8  1  0
  7 26  1  0
  8  9  1  6
  9 10  1  0
 10 11  1  6
 10 26  1  0
 11 12  1  0
 13 12  1  1
 13 14  1  0
 13 18  1  0
 14 15  1  0
 15 16  1  0
 16 17  1  0
 18 19  1  1
 18 20  1  0
 20 21  1  0
 21 22  1  0
 22 23  1  0
 23 24  2  0
 23 25  1  0
 26 27  1  6
 26 28  1  0
 28 29  1  0
 29 30  1  1
 29 31  1  0
 31 32  1  0
M  END
