
     RDKit          3D

 35 38  0  0  0  0  0  0  0  0999 V2000
    9.7600    0.2290   -1.7610 C   0  0  0  0  0  0  0  0  0  0  0  0
    8.8820   -1.0410   -0.8510 S   0  0  0  0  0  0  0  0  0  0  0  0
    7.3760   -0.3800   -0.1570 C   0  0  0  0  0  0  0  0  0  0  0  0
    7.0240    0.9440   -0.3020 C   0  0  0  0  0  0  0  0  0  0  0  0
    5.8590    1.4680    0.2140 C   0  0  0  0  0  0  0  0  0  0  0  0
    4.9710    0.6520    0.9210 C   0  0  0  0  0  0  0  0  0  0  0  0
    3.7900    1.1440    1.4400 C   0  0  0  0  0  0  0  0  0  0  0  0
    3.5040    2.3510    1.2910 O   0  0  0  0  0  0  0  0  0  0  0  0
    2.9230    0.3430    2.1180 N   0  0  0  0  0  0  0  0  0  0  0  0
    1.6630    0.7850    2.6500 C   0  0  0  0  0  0  0  0  0  0  0  0
    0.5490    0.5340    1.6570 C   0  0  0  0  0  0  0  0  0  0  0  0
   -0.5080    0.0530    2.1570 O   0  0  0  0  0  0  0  0  0  0  0  0
    0.6150    0.7830    0.3110 N   0  0  0  0  0  0  0  0  0  0  0  0
   -0.3520    0.5720   -0.7070 C   0  0  0  0  0  0  0  0  0  0  0  0
   -1.7080    0.5100   -0.4030 C   0  0  0  0  0  0  0  0  0  0  0  0
   -2.6760    0.4120   -1.3850 C   0  0  0  0  0  0  0  0  0  0  0  0
   -4.1440    0.3990   -1.0830 C   0  0  0  0  0  0  0  0  0  0  0  0
   -4.3970    0.4710    0.3200 N   0  0  0  0  0  0  0  0  0  0  0  0
   -5.7250    0.6400    0.7510 C   0  0  0  0  0  0  0  0  0  0  0  0
   -6.6730   -0.5010    0.5440 C   0  0  0  0  0  0  0  0  0  0  0  0
   -7.3010   -1.1670    1.5130 C   0  0  0  0  0  0  0  0  0  0  0  0
   -7.1130   -0.8070    3.2490 Cl  0  0  0  0  0  0  0  0  0  0  0  0
   -8.1560   -2.2020    0.9350 C   0  0  0  0  0  0  0  0  0  0  0  0
   -7.9570   -2.0570   -0.5210 C   0  0  0  0  0  0  0  0  0  0  0  0
   -7.1030   -1.0760   -0.7140 C   0  0  0  0  0  0  0  0  0  0  0  0
   -2.3570    0.3670   -2.7210 C   0  0  0  0  0  0  0  0  0  0  0  0
   -3.3860    0.2630   -3.7810 C   0  0  0  0  0  0  0  0  0  0  0  0
   -1.0160    0.4250   -3.0490 C   0  0  0  0  0  0  0  0  0  0  0  0
   -0.0480    0.5260   -2.0420 C   0  0  0  0  0  0  0  0  0  0  0  0
    1.2880    0.5790   -2.4240 O   0  0  0  0  0  0  0  0  0  0  0  0
    3.3080   -0.9550    2.2420 C   0  0  0  0  0  0  0  0  0  0  0  0
    2.5150   -1.7330    2.8760 O   0  0  0  0  0  0  0  0  0  0  0  0
    4.4450   -1.4400    1.7460 N   0  0  0  0  0  0  0  0  0  0  0  0
    5.3180   -0.6730    1.0700 C   0  0  0  0  0  0  0  0  0  0  0  0
    6.4890   -1.1810    0.5470 C   0  0  0  0  0  0  0  0  0  0  0  0
  1  2  1  0
  2  3  1  0
  3  4  2  0
  3 35  1  0
  4  5  1  0
  5  6  2  0
  6  7  1  0
  6 34  1  0
  7  8  2  0
  7  9  1  0
  9 10  1  0
  9 31  1  0
 10 11  1  0
 11 12  2  0
 11 13  1  0
 13 14  1  0
 14 15  2  0
 14 29  1  0
 15 16  1  0
 16 17  1  0
 16 26  2  0
 17 18  1  0
 18 19  1  0
 19 20  1  0
 20 21  2  0
 20 25  1  0
 21 22  1  0
 21 23  1  0
 23 24  1  0
 24 25  2  0
 26 27  1  0
 26 28  1  0
 28 29  2  0
 29 30  1  0
 31 32  2  0
 31 33  1  0
 33 34  1  0
 34 35  2  0
M  END
