
     RDKit          3D

 20 20  0  0  0  0  0  0  0  0999 V2000
   -3.4750   -0.8380   -2.4850 C   0  0  0  0  0  0  0  0  0  0  0  0
   -3.9610   -0.9180   -1.2730 C   0  0  0  0  0  0  0  0  0  0  0  0
   -4.6510   -2.0600   -0.8760 O   0  0  0  0  0  0  0  0  0  0  0  0
   -3.7660    0.2060   -0.3540 C   0  0  0  0  0  0  0  0  0  0  0  0
   -4.2640    0.1140    0.8590 C   0  0  0  0  0  0  0  0  0  0  0  0
   -4.1260    1.1910    1.8690 C   0  0  0  0  0  0  0  0  0  0  0  0
   -3.0770    1.3310   -0.7530 O   0  0  0  0  0  0  0  0  0  0  0  0
   -1.7830    1.6940   -0.3090 C   0  0  0  0  0  0  0  0  0  0  0  0
   -0.8400    0.5780   -0.6930 C   0  0  2  0  0  0  0  0  0  0  0  0
   -1.3180   -0.5790   -0.0520 O   0  0  0  0  0  0  0  0  0  0  0  0
    0.5460    0.8040   -0.1430 C   0  0  0  0  0  0  0  0  0  0  0  0
    1.4110   -0.2680   -0.3900 O   0  0  0  0  0  0  0  0  0  0  0  0
    2.7090   -0.1950    0.0570 C   0  0  0  0  0  0  0  0  0  0  0  0
    3.1640    0.8970    0.7330 C   0  0  0  0  0  0  0  0  0  0  0  0
    4.4840    0.9690    1.1880 C   0  0  0  0  0  0  0  0  0  0  0  0
    4.9320    2.0910    1.8760 O   0  0  0  0  0  0  0  0  0  0  0  0
    5.3210   -0.1090    0.9280 C   0  0  0  0  0  0  0  0  0  0  0  0
    4.8880   -1.2260    0.2470 C   0  0  0  0  0  0  0  0  0  0  0  0
    3.5730   -1.2400   -0.1770 C   0  0  0  0  0  0  0  0  0  0  0  0
    3.0540   -2.4150   -0.9150 C   0  0  0  0  0  0  0  0  0  0  0  0
  1  2  2  0
  2  3  1  0
  2  4  1  0
  4  5  2  3
  4  7  1  0
  5  6  1  0
  7  8  1  0
  8  9  1  0
  9 10  1  1
  9 11  1  0
 11 12  1  0
 12 13  1  0
 13 14  2  0
 13 19  1  0
 14 15  1  0
 15 16  1  0
 15 17  2  0
 17 18  1  0
 18 19  2  0
 19 20  1  0
M  END
