
     RDKit          3D

 20 20  0  0  0  0  0  0  0  0999 V2000
    3.5420    2.7130    0.3770 C   0  0  0  0  0  0  0  0  0  0  0  0
    4.0490    1.6740    1.3220 C   0  0  0  0  0  0  0  0  0  0  0  0
    4.4100    0.3830    0.6270 C   0  0  0  0  0  0  0  0  0  0  0  0
    3.3050   -0.1940   -0.0440 O   0  0  0  0  0  0  0  0  0  0  0  0
    2.1350   -0.5860    0.5790 C   0  0  0  0  0  0  0  0  0  0  0  0
    2.0540   -0.4170    1.8150 O   0  0  0  0  0  0  0  0  0  0  0  0
    0.9960   -1.1980   -0.2080 C   0  0  2  0  0  0  0  0  0  0  0  0
    1.5740   -2.4290   -0.8270 C   0  0  0  0  0  0  0  0  0  0  0  0
    0.6670   -3.2460   -1.6670 C   0  0  0  0  0  0  0  0  0  0  0  0
    0.1190   -2.6390   -2.7630 O   0  0  0  0  0  0  0  0  0  0  0  0
    0.5890   -0.1280   -1.1760 C   0  0  0  0  0  0  0  0  0  0  0  0
   -0.3020    0.8480   -0.3900 C   0  0  0  0  0  0  0  0  0  0  0  0
   -1.6680    0.1450   -0.3710 C   0  0  2  0  0  0  0  0  0  0  0  0
   -2.6770    0.9910    0.3700 C   0  0  1  0  0  0  0  0  0  0  0  0
   -2.8080    2.2320   -0.2600 O   0  0  0  0  0  0  0  0  0  0  0  0
   -4.0260    0.3190    0.2770 C   0  0  0  0  0  0  0  0  0  0  0  0
   -5.0840    1.1430    1.0150 C   0  0  0  0  0  0  0  0  0  0  0  0
   -5.1510    2.3970    0.4310 O   0  0  0  0  0  0  0  0  0  0  0  0
   -1.4920   -1.2190    0.2300 C   0  0  0  0  0  0  0  0  0  0  0  0
   -0.1050   -1.4640    0.7620 C   0  0  0  0  0  0  0  0  0  0  0  0
  1  2  1  0
  2  3  1  0
  3  4  1  0
  4  5  1  0
  5  6  2  0
  5  7  1  0
  7  8  1  6
  7 11  1  0
  7 20  1  0
  8  9  1  0
  9 10  1  0
 11 12  1  0
 13 12  1  1
 13 14  1  0
 13 19  1  0
 14 15  1  6
 14 16  1  0
 16 17  1  0
 17 18  1  0
 19 20  1  0
M  END
