
     RDKit          3D

 20 20  0  0  0  0  0  0  0  0999 V2000
    4.2890   -2.0940   -0.7240 C   0  0  0  0  0  0  0  0  0  0  0  0
    4.4330   -0.9670    0.2320 C   0  0  0  0  0  0  0  0  0  0  0  0
    3.4360    0.1460    0.0500 C   0  0  1  0  0  0  0  0  0  0  0  0
    3.7470    1.1810    1.1120 C   0  0  0  0  0  0  0  0  0  0  0  0
    3.6880    0.7300   -1.2010 O   0  0  0  0  0  0  0  0  0  0  0  0
    2.0010   -0.3490    0.0910 C   0  0  0  0  0  0  0  0  0  0  0  0
    1.0800    0.7730   -0.1000 C   0  0  2  0  0  0  0  0  0  0  0  0
    1.2950    1.7270    0.9160 O   0  0  0  0  0  0  0  0  0  0  0  0
   -0.3810    0.5650   -0.1360 C   0  0  0  0  0  0  0  0  0  0  0  0
   -1.0410   -0.6140   -0.1890 C   0  0  0  0  0  0  0  0  0  0  0  0
   -2.4030   -0.6610   -0.3170 C   0  0  0  0  0  0  0  0  0  0  0  0
   -3.2280   -1.8560   -0.5220 C   0  0  0  0  0  0  0  0  0  0  0  0
   -3.3910   -2.5740    0.6430 O   0  0  0  0  0  0  0  0  0  0  0  0
   -4.3330   -3.6000    0.4260 C   0  0  0  0  0  0  0  0  0  0  0  0
   -3.1300    0.5340   -0.3860 C   0  0  0  0  0  0  0  0  0  0  0  0
   -4.4960    0.5760   -0.4980 O   0  0  0  0  0  0  0  0  0  0  0  0
   -2.4530    1.7790   -0.3260 C   0  0  0  0  0  0  0  0  0  0  0  0
   -3.2620    2.8630   -0.4090 O   0  0  0  0  0  0  0  0  0  0  0  0
   -3.2540    4.1900   -0.4120 C   0  0  0  0  0  0  0  0  0  0  0  0
   -1.0820    1.7830   -0.2000 C   0  0  0  0  0  0  0  0  0  0  0  0
  1  2  1  0
  2  3  1  0
  3  4  1  1
  3  5  1  0
  3  6  1  0
  6  7  1  0
  7  8  1  1
  7  9  1  0
  9 10  2  0
  9 20  1  0
 10 11  1  0
 11 12  1  0
 11 15  2  0
 12 13  1  0
 13 14  1  0
 15 16  1  0
 15 17  1  0
 17 18  1  0
 17 20  2  0
 18 19  1  0
M  END
