
     RDKit          3D

 20 20  0  0  0  0  0  0  0  0999 V2000
    6.4750   -0.2100    0.6650 C   0  0  0  0  0  0  0  0  0  0  0  0
    5.9510   -0.6310   -0.6920 C   0  0  0  0  0  0  0  0  0  0  0  0
    4.5090   -0.3040   -0.8350 C   0  0  0  0  0  0  0  0  0  0  0  0
    4.1060    0.7710   -1.5920 C   0  0  0  0  0  0  0  0  0  0  0  0
    2.7620    1.0510   -1.7060 C   0  0  0  0  0  0  0  0  0  0  0  0
    2.3390    2.1360   -2.4690 O   0  0  0  0  0  0  0  0  0  0  0  0
    1.7860    0.2730   -1.0730 C   0  0  0  0  0  0  0  0  0  0  0  0
    0.4870    0.5970   -1.2180 O   0  0  0  0  0  0  0  0  0  0  0  0
   -0.6710    0.0570   -0.7090 C   0  0  0  0  0  0  0  0  0  0  0  0
   -0.8390    0.1060    0.7860 C   0  0  1  0  0  0  0  0  0  0  0  0
   -0.8070    1.4790    1.1260 O   0  0  0  0  0  0  0  0  0  0  0  0
   -2.2830   -0.3220    1.1120 C   0  0  0  0  0  0  0  0  0  0  0  0
   -3.1030    0.4510    0.3340 O   0  0  0  0  0  0  0  0  0  0  0  0
   -4.4440    0.2320    0.4690 C   0  0  1  0  0  0  0  0  0  0  0  0
   -4.8420   -1.1990    0.1240 C   0  0  0  0  0  0  0  0  0  0  0  0
   -4.9920    0.5140    1.8450 C   0  0  0  0  0  0  0  0  0  0  0  0
   -5.1730    1.1330   -0.5080 C   0  0  0  0  0  0  0  0  0  0  0  0
    2.2170   -0.7880   -0.3290 C   0  0  0  0  0  0  0  0  0  0  0  0
    3.5650   -1.0840   -0.2030 C   0  0  0  0  0  0  0  0  0  0  0  0
    3.9550   -2.1710    0.5640 O   0  0  0  0  0  0  0  0  0  0  0  0
  1  2  1  0
  2  3  1  0
  3  4  2  0
  3 19  1  0
  4  5  1  0
  5  6  1  0
  5  7  2  0
  7  8  1  0
  7 18  1  0
  8  9  1  0
  9 10  1  0
 10 11  1  6
 10 12  1  0
 12 13  1  0
 13 14  1  0
 14 15  1  6
 14 16  1  0
 14 17  1  0
 18 19  2  0
 19 20  1  0
M  END
