
     RDKit          3D

 20 20  0  0  0  0  0  0  0  0999 V2000
    0.2030    4.2150   -0.0100 C   0  0  0  0  0  0  0  0  0  0  0  0
   -0.2520    2.9450    0.3420 O   0  0  0  0  0  0  0  0  0  0  0  0
    0.3110    2.0490   -0.6170 C   0  0  0  0  0  0  0  0  0  0  0  0
   -0.0930    0.6950   -0.3530 C   0  0  0  0  0  0  0  0  0  0  0  0
    0.5610   -0.3730   -0.0870 C   0  0  0  0  0  0  0  0  0  0  0  0
    1.9660   -0.6500    0.0550 C   0  0  0  0  0  0  0  0  0  0  0  0
    2.2910   -1.9330    0.3580 C   0  0  0  0  0  0  0  0  0  0  0  0
    3.6550   -2.3650    0.5410 C   0  0  0  0  0  0  0  0  0  0  0  0
    4.6470   -1.5180    0.4270 C   0  0  0  0  0  0  0  0  0  0  0  0
    5.9350   -1.9970    0.6090 O   0  0  0  0  0  0  0  0  0  0  0  0
    4.4540   -0.1000    0.1230 C   0  0  0  0  0  0  0  0  0  0  0  0
    3.0530    0.3030   -0.1650 C   0  0  1  0  0  0  0  0  0  0  0  0
    2.9900    0.6080   -1.5690 O   0  0  0  0  0  0  0  0  0  0  0  0
   -1.6260    0.5340   -0.4110 C   0  0  0  0  0  0  0  0  0  0  0  0
   -2.3580    1.4950   -0.6590 O   0  0  0  0  0  0  0  0  0  0  0  0
   -2.1520   -0.7070   -0.1790 O   0  0  0  0  0  0  0  0  0  0  0  0
   -3.5480   -0.9240   -0.2160 C   0  0  1  0  0  0  0  0  0  0  0  0
   -4.1720   -0.6020   -1.5310 C   0  0  0  0  0  0  0  0  0  0  0  0
   -3.7820   -2.3860    0.1020 C   0  0  0  0  0  0  0  0  0  0  0  0
   -4.2300   -0.0910    0.8480 C   0  0  0  0  0  0  0  0  0  0  0  0
  1  2  1  0
  2  3  1  0
  3  4  1  0
  4  5  2  3
  4 14  1  0
  5  6  1  0
  6  7  2  0
  6 12  1  0
  7  8  1  0
  8  9  2  0
  9 10  1  0
  9 11  1  0
 11 12  1  0
 12 13  1  6
 14 15  2  0
 14 16  1  0
 16 17  1  0
 17 18  1  6
 17 19  1  0
 17 20  1  0
M  END
