
     RDKit          3D

 19 19  0  0  0  0  0  0  0  0999 V2000
   -3.0630    2.6360   -1.0720 C   0  0  0  0  0  0  0  0  0  0  0  0
   -2.4980    1.4520   -1.0600 C   0  0  0  0  0  0  0  0  0  0  0  0
   -2.8930    0.3770   -0.1660 C   0  0  0  0  0  0  0  0  0  0  0  0
   -2.2890   -0.8060   -0.1920 C   0  0  0  0  0  0  0  0  0  0  0  0
   -1.2750   -1.0320   -1.0710 O   0  0  0  0  0  0  0  0  0  0  0  0
   -0.0870   -1.7170   -0.8330 C   0  0  0  0  0  0  0  0  0  0  0  0
    0.7210   -1.0850    0.2510 C   0  0  2  0  0  0  0  0  0  0  0  0
    0.0490   -1.0340    1.4710 O   0  0  0  0  0  0  0  0  0  0  0  0
    1.1480    0.3270   -0.0870 C   0  0  0  0  0  0  0  0  0  0  0  0
    1.8310    0.4290   -1.2730 O   0  0  0  0  0  0  0  0  0  0  0  0
    3.0000   -0.3100   -1.3180 C   0  0  0  0  0  0  0  0  0  0  0  0
    3.9980    0.1000   -0.2510 C   0  0  1  0  0  0  0  0  0  0  0  0
    5.1520   -0.6950   -0.3700 O   0  0  0  0  0  0  0  0  0  0  0  0
    4.3390    1.5510   -0.4480 C   0  0  0  0  0  0  0  0  0  0  0  0
    5.3430    1.9190    0.6440 C   0  0  0  0  0  0  0  0  0  0  0  0
   -2.8020   -1.8200    0.7880 C   0  0  0  0  0  0  0  0  0  0  0  0
   -4.3200   -1.9260    0.6550 C   0  0  0  0  0  0  0  0  0  0  0  0
   -4.9860   -0.5990    0.5180 C   0  0  0  0  0  0  0  0  0  0  0  0
   -3.9860    0.5220    0.8260 C   0  0  0  0  0  0  0  0  0  0  0  0
  1  2  2  0
  2  3  1  0
  3  4  2  0
  3 19  1  0
  4  5  1  0
  4 16  1  0
  5  6  1  0
  6  7  1  0
  7  8  1  1
  7  9  1  0
  9 10  1  0
 10 11  1  0
 11 12  1  0
 12 13  1  6
 12 14  1  0
 14 15  1  0
 16 17  1  0
 17 18  1  0
 18 19  1  0
M  END
