
     RDKit          3D

 38 41  0  0  0  0  0  0  0  0999 V2000
   -9.2390   -0.2630   -1.2510 C   0  0  0  0  0  0  0  0  0  0  0  0
   -7.7610   -0.3810   -1.0730 C   0  0  0  0  0  0  0  0  0  0  0  0
   -7.2730    0.4030    0.1490 C   0  0  0  0  0  0  0  0  0  0  0  0
   -5.7820    0.2080    0.2180 C   0  0  0  0  0  0  0  0  0  0  0  0
   -4.8490    1.0380   -0.1110 O   0  0  0  0  0  0  0  0  0  0  0  0
   -3.6440    0.6160    0.0480 C   0  0  0  0  0  0  0  0  0  0  0  0
   -2.3460    1.3150   -0.2310 C   0  0  0  0  0  0  0  0  0  0  0  0
   -2.4060    2.5110   -0.7130 C   0  0  0  0  0  0  0  0  0  0  0  0
   -3.6930    3.2000   -0.9920 C   0  0  2  0  0  0  0  0  0  0  0  0
   -4.4530    3.4530    0.1080 F   0  0  0  0  0  0  0  0  0  0  0  0
   -4.4410    2.6030   -1.9620 F   0  0  0  0  0  0  0  0  0  0  0  0
   -3.3970    4.4970   -1.5090 F   0  0  0  0  0  0  0  0  0  0  0  0
   -1.1520    0.5690    0.0720 N   0  0  0  0  0  0  0  0  0  0  0  0
    0.1370    1.0190   -0.1160 C   0  0  0  0  0  0  0  0  0  0  0  0
    0.2440    2.2130   -0.6180 O   0  0  0  0  0  0  0  0  0  0  0  0
    1.3770    0.3140    0.1780 C   0  0  0  0  0  0  0  0  0  0  0  0
    2.5340    0.8180   -0.2660 O   0  0  0  0  0  0  0  0  0  0  0  0
    3.5340    0.0630    0.0900 C   0  0  0  0  0  0  0  0  0  0  0  0
    4.9590    0.2780   -0.2050 C   0  0  0  0  0  0  0  0  0  0  0  0
    5.4110    1.3610   -0.9300 C   0  0  0  0  0  0  0  0  0  0  0  0
    6.7520    1.5260   -1.1850 C   0  0  0  0  0  0  0  0  0  0  0  0
    7.7070    0.6260   -0.7340 C   0  0  0  0  0  0  0  0  0  0  0  0
    7.2610   -0.4560   -0.0120 C   0  0  0  0  0  0  0  0  0  0  0  0
    5.8940   -0.6110    0.2410 C   0  0  0  0  0  0  0  0  0  0  0  0
    8.2210   -1.4590    0.4950 C   0  0  0  0  0  0  0  0  0  0  0  0
    9.5590   -0.8270    0.7190 C   0  0  0  0  0  0  0  0  0  0  0  0
    9.9550   -0.1160   -0.5280 C   0  0  0  0  0  0  0  0  0  0  0  0
   11.0420   -0.3680   -1.0990 O   0  0  0  0  0  0  0  0  0  0  0  0
    9.0620    0.8310   -1.0150 O   0  0  0  0  0  0  0  0  0  0  0  0
    3.0630   -1.0120    0.8100 C   0  0  0  0  0  0  0  0  0  0  0  0
    1.6590   -0.8190    0.8500 C   0  0  0  0  0  0  0  0  0  0  0  0
    0.7230   -1.7360    1.5370 C   0  0  1  0  0  0  0  0  0  0  0  0
   -0.0210   -1.1380    2.5290 F   0  0  0  0  0  0  0  0  0  0  0  0
    0.0350   -2.5360    0.6790 F   0  0  0  0  0  0  0  0  0  0  0  0
    1.5380   -2.6560    2.2720 F   0  0  0  0  0  0  0  0  0  0  0  0
   -3.7810   -0.6790    0.5550 C   0  0  0  0  0  0  0  0  0  0  0  0
   -5.1360   -0.9250    0.6570 C   0  0  0  0  0  0  0  0  0  0  0  0
   -5.7880   -2.1670    1.1450 C   0  0  0  0  0  0  0  0  0  0  0  0
  1  2  1  0
  2  3  1  0
  3  4  1  0
  4  5  1  0
  4 37  2  0
  5  6  1  0
  6  7  1  0
  6 36  2  0
  7  8  2  3
  7 13  1  0
  8  9  1  0
  9 10  1  1
  9 11  1  0
  9 12  1  0
 13 14  1  0
 14 15  2  0
 14 16  1  0
 16 17  1  0
 16 31  2  0
 17 18  1  0
 18 19  1  0
 18 30  2  0
 19 20  2  0
 19 24  1  0
 20 21  1  0
 21 22  2  0
 22 23  1  0
 22 29  1  0
 23 24  2  0
 23 25  1  0
 25 26  1  0
 26 27  1  0
 27 28  2  0
 27 29  1  0
 30 31  1  0
 31 32  1  0
 32 33  1  1
 32 34  1  0
 32 35  1  0
 36 37  1  0
 37 38  1  0
M  END
