
     RDKit          3D

 38 42  0  0  0  0  0  0  0  0999 V2000
    4.8160   -5.0190    0.3270 C   0  0  0  0  0  0  0  0  0  0  0  0
    4.1460   -3.7900    0.1150 O   0  0  0  0  0  0  0  0  0  0  0  0
    4.8540   -2.7730   -0.5120 C   0  0  0  0  0  0  0  0  0  0  0  0
    6.1570   -2.9260   -0.9230 C   0  0  0  0  0  0  0  0  0  0  0  0
    6.8440   -1.9060   -1.5440 C   0  0  0  0  0  0  0  0  0  0  0  0
    6.2190   -0.7000   -1.7630 C   0  0  0  0  0  0  0  0  0  0  0  0
    4.9040   -0.5380   -1.3510 C   0  0  0  0  0  0  0  0  0  0  0  0
    4.2290   -1.5670   -0.7310 C   0  0  0  0  0  0  0  0  0  0  0  0
    2.8260   -1.4320   -0.2770 C   0  0  0  0  0  0  0  0  0  0  0  0
    2.2770   -2.4040    0.2770 O   0  0  0  0  0  0  0  0  0  0  0  0
    2.1300   -0.1830   -0.4870 C   0  0  0  0  0  0  0  0  0  0  0  0
    0.8040   -0.0600   -0.0560 C   0  0  0  0  0  0  0  0  0  0  0  0
    0.0830   -1.0180    0.5550 O   0  0  0  0  0  0  0  0  0  0  0  0
    0.2020    1.1840   -0.2980 C   0  0  0  0  0  0  0  0  0  0  0  0
    0.8720    2.2220   -0.9190 C   0  0  0  0  0  0  0  0  0  0  0  0
    2.1560    2.0600   -1.3200 C   0  0  0  0  0  0  0  0  0  0  0  0
    2.8340    3.0800   -1.9380 O   0  0  0  0  0  0  0  0  0  0  0  0
    2.8070    0.8420   -1.1060 C   0  0  0  0  0  0  0  0  0  0  0  0
    4.1960    0.7200   -1.5590 C   0  0  0  0  0  0  0  0  0  0  0  0
    4.8020    1.6630   -2.1230 O   0  0  0  0  0  0  0  0  0  0  0  0
    0.1030    3.4770   -1.0920 C   0  0  0  0  0  0  0  0  0  0  0  0
   -0.4210    3.8250    0.3110 C   0  0  1  0  0  0  0  0  0  0  0  0
    0.7590    3.9560    1.0800 O   0  0  0  0  0  0  0  0  0  0  0  0
   -1.1190    5.1210    0.2320 C   0  0  0  0  0  0  0  0  0  0  0  0
   -2.3890    5.3160   -0.5040 C   0  0  0  0  0  0  0  0  0  0  0  0
   -0.6300    6.0800    0.7990 O   0  0  0  0  0  0  0  0  0  0  0  0
   -1.2350    2.7390    0.9260 C   0  0  0  0  0  0  0  0  0  0  0  0
   -1.1940    1.4800    0.0870 C   0  0  2  0  0  0  0  0  0  0  0  0
   -1.8210    0.4140    0.6980 O   0  0  0  0  0  0  0  0  0  0  0  0
   -2.9360   -0.0120    0.0220 C   0  0  1  0  0  0  0  0  0  0  0  0
   -2.9600   -1.4220   -0.4260 C   0  0  0  0  0  0  0  0  0  0  0  0
   -2.9870   -2.3160    0.7740 C   0  0  2  0  0  0  0  0  0  0  0  0
   -2.8360   -3.7170    0.4430 N   0  0  0  0  0  0  0  0  0  0  0  0
   -4.3520   -2.0570    1.4300 C   0  0  2  0  0  0  0  0  0  0  0  0
   -5.3790   -2.3180    0.5280 O   0  0  0  0  0  0  0  0  0  0  0  0
   -4.3360   -0.5910    1.7960 C   0  0  2  0  0  0  0  0  0  0  0  0
   -5.7060   -0.2590    2.3500 C   0  0  0  0  0  0  0  0  0  0  0  0
   -4.0830    0.2470    0.7570 O   0  0  0  0  0  0  0  0  0  0  0  0
  1  2  1  0
  2  3  1  0
  3  4  2  0
  3  8  1  0
  4  5  1  0
  5  6  2  0
  6  7  1  0
  7  8  2  0
  7 19  1  0
  8  9  1  0
  9 10  2  0
  9 11  1  0
 11 12  2  0
 11 18  1  0
 12 13  1  0
 12 14  1  0
 14 15  2  0
 14 28  1  0
 15 16  1  0
 15 21  1  0
 16 17  1  0
 16 18  2  0
 18 19  1  0
 19 20  2  0
 21 22  1  0
 22 23  1  1
 22 24  1  0
 22 27  1  0
 24 25  1  0
 24 26  2  0
 27 28  1  0
 28 29  1  1
 30 29  1  1
 30 31  1  0
 30 38  1  0
 31 32  1  0
 32 33  1  6
 32 34  1  0
 34 35  1  6
 34 36  1  0
 36 37  1  6
 36 38  1  0
M  CHG  1  33   1
M  END
