
     RDKit          3D

 38 41  0  0  0  0  0  0  0  0999 V2000
   -7.6010   -0.1220   -0.1390 C   0  0  0  0  0  0  0  0  0  0  0  0
   -6.1360   -0.2970   -0.1950 C   0  0  0  0  0  0  0  0  0  0  0  0
   -5.5540   -1.4420    0.1180 C   0  0  0  0  0  0  0  0  0  0  0  0
   -6.3250   -2.5210    0.4940 F   0  0  0  0  0  0  0  0  0  0  0  0
   -4.1050   -1.5160    0.1860 C   0  0  0  0  0  0  0  0  0  0  0  0
   -3.5080   -2.3360    1.0600 C   0  0  0  0  0  0  0  0  0  0  0  0
   -4.0690   -3.2410    2.0390 C   0  0  0  0  0  0  0  0  0  0  0  0
   -3.6520   -2.9400    3.3410 F   0  0  0  0  0  0  0  0  0  0  0  0
   -3.3260   -0.6580   -0.6920 C   0  0  2  0  0  0  0  0  0  0  0  0
   -1.9980   -0.3550   -0.2050 N   0  0  0  0  0  0  0  0  0  0  0  0
   -0.7900   -0.7400   -0.8250 C   0  0  0  0  0  0  0  0  0  0  0  0
   -0.8360   -1.4120   -1.9040 O   0  0  0  0  0  0  0  0  0  0  0  0
    0.5150   -0.3880   -0.2620 C   0  0  0  0  0  0  0  0  0  0  0  0
    1.6980   -0.7470   -0.8350 C   0  0  0  0  0  0  0  0  0  0  0  0
    2.9140   -0.4020   -0.2820 C   0  0  0  0  0  0  0  0  0  0  0  0
    2.9270    0.3330    0.8930 C   0  0  0  0  0  0  0  0  0  0  0  0
    3.9090    0.8290    1.6870 C   0  0  0  0  0  0  0  0  0  0  0  0
    5.3600    0.6840    1.4550 C   0  0  0  0  0  0  0  0  0  0  0  0
    6.1520    1.1860    2.2610 O   0  0  0  0  0  0  0  0  0  0  0  0
    5.8210    0.0020    0.3630 O   0  0  0  0  0  0  0  0  0  0  0  0
    7.1910   -0.1860    0.0610 C   0  0  2  0  0  0  0  0  0  0  0  0
    7.5870    0.4070   -1.2480 C   0  0  0  0  0  0  0  0  0  0  0  0
    7.5680   -1.6580    0.1110 C   0  0  1  0  0  0  0  0  0  0  0  0
    7.3010   -2.0940    1.4000 F   0  0  0  0  0  0  0  0  0  0  0  0
    6.9100   -2.4040   -0.8300 F   0  0  0  0  0  0  0  0  0  0  0  0
    8.9230   -1.7540   -0.1300 F   0  0  0  0  0  0  0  0  0  0  0  0
    3.2980    1.4870    2.7380 C   0  0  0  0  0  0  0  0  0  0  0  0
    1.9270    1.4090    2.6140 C   0  0  0  0  0  0  0  0  0  0  0  0
    1.6440    0.6890    1.4620 C   0  0  0  0  0  0  0  0  0  0  0  0
    0.5570    0.3070    0.8510 O   0  0  0  0  0  0  0  0  0  0  0  0
   -4.0020    0.6070   -0.9910 C   0  0  0  0  0  0  0  0  0  0  0  0
   -3.2190    1.7470   -1.5620 C   0  0  0  0  0  0  0  0  0  0  0  0
   -1.9320    1.6810   -1.8200 O   0  0  0  0  0  0  0  0  0  0  0  0
   -1.4420    2.7650   -2.3070 C   0  0  0  0  0  0  0  0  0  0  0  0
   -2.4860    3.6550   -2.3900 C   0  0  0  0  0  0  0  0  0  0  0  0
   -3.6130    3.0000   -1.9140 C   0  0  0  0  0  0  0  0  0  0  0  0
   -4.8420    3.5300   -1.8300 F   0  0  0  0  0  0  0  0  0  0  0  0
   -5.2770    0.7420   -0.7620 C   0  0  0  0  0  0  0  0  0  0  0  0
  1  2  1  0
  2  3  2  0
  2 38  1  0
  3  4  1  0
  3  5  1  0
  5  6  2  3
  5  9  1  0
  6  7  1  0
  7  8  1  0
  9 10  1  1
  9 31  1  0
 10 11  1  0
 11 12  2  0
 11 13  1  0
 13 14  2  0
 13 30  1  0
 14 15  1  0
 15 16  2  0
 16 17  1  0
 16 29  1  0
 17 18  1  0
 17 27  2  0
 18 19  2  0
 18 20  1  0
 20 21  1  0
 21 22  1  6
 21 23  1  0
 23 24  1  1
 23 25  1  0
 23 26  1  0
 27 28  1  0
 28 29  2  0
 29 30  1  0
 31 32  1  0
 31 38  2  0
 32 33  1  0
 32 36  2  0
 33 34  1  0
 34 35  2  0
 35 36  1  0
 36 37  1  0
M  END
