
     RDKit          3D

 38 41  0  0  0  0  0  0  0  0999 V2000
   -1.1060   -1.5410   -0.2670 C   0  0  0  0  0  0  0  0  0  0  0  0
   -1.3060   -0.1980    0.1100 O   0  0  0  0  0  0  0  0  0  0  0  0
   -1.3470    0.8760   -0.7610 C   0  0  0  0  0  0  0  0  0  0  0  0
   -2.5570    1.2700   -1.2700 C   0  0  0  0  0  0  0  0  0  0  0  0
   -3.8360    0.6340   -0.9630 C   0  0  0  0  0  0  0  0  0  0  0  0
   -4.8790    1.1010   -1.4800 O   0  0  0  0  0  0  0  0  0  0  0  0
   -3.9980   -0.4520   -0.1320 O   0  0  0  0  0  0  0  0  0  0  0  0
   -5.1910   -1.0540    0.1870 C   0  0  0  0  0  0  0  0  0  0  0  0
   -5.9050   -0.5840    1.3050 C   0  0  0  0  0  0  0  0  0  0  0  0
   -7.0970   -1.1410    1.6790 C   0  0  0  0  0  0  0  0  0  0  0  0
   -7.6170   -2.1940    0.9460 C   0  0  0  0  0  0  0  0  0  0  0  0
   -8.8090   -2.7290    1.3410 O   0  0  0  0  0  0  0  0  0  0  0  0
   -6.9050   -2.6490   -0.1550 C   0  0  0  0  0  0  0  0  0  0  0  0
   -5.6950   -2.0820   -0.5340 C   0  0  0  0  0  0  0  0  0  0  0  0
   -4.9920   -2.6340   -1.7040 C   0  0  1  0  0  0  0  0  0  0  0  0
   -5.7320   -3.6490   -2.3180 F   0  0  0  0  0  0  0  0  0  0  0  0
   -4.4950   -1.7380   -2.5890 F   0  0  0  0  0  0  0  0  0  0  0  0
   -3.8910   -3.3420   -1.1780 F   0  0  0  0  0  0  0  0  0  0  0  0
   -2.5030    2.3640   -2.1400 C   0  0  0  0  0  0  0  0  0  0  0  0
   -1.3580    3.0190   -2.4800 C   0  0  0  0  0  0  0  0  0  0  0  0
   -0.1310    2.6120   -1.9560 C   0  0  0  0  0  0  0  0  0  0  0  0
   -0.1700    1.5470   -1.1100 C   0  0  0  0  0  0  0  0  0  0  0  0
    1.2200    1.2300   -0.6500 C   0  0  0  0  0  0  0  0  0  0  0  0
    2.0940    2.2040   -1.2720 C   0  0  0  0  0  0  0  0  0  0  0  0
    3.3500    2.4340   -1.2660 C   0  0  0  0  0  0  0  0  0  0  0  0
    4.5650    1.9970   -0.7620 C   0  0  0  0  0  0  0  0  0  0  0  0
    5.6300    2.7210   -1.1440 O   0  0  0  0  0  0  0  0  0  0  0  0
    4.9890    0.9330    0.0900 C   0  0  0  0  0  0  0  0  0  0  0  0
    4.2300    0.0480    0.6650 C   0  0  0  0  0  0  0  0  0  0  0  0
    4.8560   -1.0040    1.5310 C   0  0  0  0  0  0  0  0  0  0  0  0
    5.8530   -0.3320    2.4260 C   0  0  1  0  0  0  0  0  0  0  0  0
    6.6750   -1.3970    3.1160 C   0  0  1  0  0  0  0  0  0  0  0  0
    7.3140   -2.1280    2.1520 F   0  0  0  0  0  0  0  0  0  0  0  0
    7.5760   -0.7520    3.9430 F   0  0  0  0  0  0  0  0  0  0  0  0
    5.7810   -2.1840    3.8450 F   0  0  0  0  0  0  0  0  0  0  0  0
    6.7160    0.5750    1.7480 N   0  0  0  0  0  0  0  0  0  0  0  0
    6.4760    0.7620    0.3600 C   0  0  0  0  0  0  0  0  0  0  0  0
    1.2140    3.0970   -2.1220 C   0  0  0  0  0  0  0  0  0  0  0  0
  1  2  1  0
  2  3  1  0
  3  4  2  0
  3 22  1  0
  4  5  1  0
  4 19  1  0
  5  6  2  0
  5  7  1  0
  7  8  1  0
  8  9  2  0
  8 14  1  0
  9 10  1  0
 10 11  2  0
 11 12  1  0
 11 13  1  0
 13 14  2  0
 14 15  1  0
 15 16  1  6
 15 17  1  0
 15 18  1  0
 19 20  2  0
 20 21  1  0
 21 22  2  0
 21 38  1  0
 22 23  1  0
 23 24  1  0
 24 25  2  3
 24 38  1  0
 25 26  1  0
 26 27  2  0
 26 28  1  0
 28 29  2  0
 28 37  1  0
 29 30  1  0
 31 30  1  6
 31 32  1  0
 31 36  1  0
 32 33  1  6
 32 34  1  0
 32 35  1  0
 36 37  1  0
M  END
