
     RDKit          3D

 33 36  0  0  0  0  0  0  0  0999 V2000
   -3.1360   -2.8250    0.1200 C   0  0  0  0  0  0  0  0  0  0  0  0
   -4.5000   -2.2900    0.0200 C   0  0  0  0  0  0  0  0  0  0  0  0
   -5.6060   -2.9780   -0.2900 N   0  0  0  0  0  0  0  0  0  0  0  0
   -6.6180   -2.1690   -0.2780 O   0  0  0  0  0  0  0  0  0  0  0  0
   -6.2350   -0.9540    0.0300 C   0  0  0  0  0  0  0  0  0  0  0  0
   -7.1480    0.2000    0.1310 C   0  0  0  0  0  0  0  0  0  0  0  0
   -4.8930   -0.9640    0.2330 C   0  0  0  0  0  0  0  0  0  0  0  0
   -4.0180    0.1440    0.6180 C   0  0  0  0  0  0  0  0  0  0  0  0
   -3.1410    0.5620   -0.5040 C   0  0  0  0  0  0  0  0  0  0  0  0
   -1.8000    0.1670   -0.5170 C   0  0  0  0  0  0  0  0  0  0  0  0
   -0.9450    0.5180   -1.5290 C   0  0  0  0  0  0  0  0  0  0  0  0
    0.5070    0.0900   -1.5500 C   0  0  2  0  0  0  0  0  0  0  0  0
    0.5020   -1.3000   -1.2340 N   0  0  0  0  0  0  0  0  0  0  0  0
    1.5600   -2.2310   -1.4690 C   0  0  0  0  0  0  0  0  0  0  0  0
    2.4290   -1.9280   -2.3680 N   0  0  0  0  0  0  0  0  0  0  0  0
    1.6620   -3.4620   -0.7970 N   0  0  0  0  0  0  0  0  0  0  0  0
    2.8250   -4.2600   -0.5700 C   0  0  0  0  0  0  0  0  0  0  0  0
    3.8410   -3.7850    0.3900 C   0  0  2  0  0  0  0  0  0  0  0  0
    4.5660   -2.5410    0.2100 C   0  0  0  0  0  0  0  0  0  0  0  0
    5.3030   -3.8680    0.1870 C   0  0  0  0  0  0  0  0  0  0  0  0
    1.2700    0.9570   -0.6180 C   0  0  0  0  0  0  0  0  0  0  0  0
    0.6930    2.1700   -0.2730 C   0  0  0  0  0  0  0  0  0  0  0  0
    1.2850    3.0780    0.5860 C   0  0  0  0  0  0  0  0  0  0  0  0
    2.5110    2.7950    1.1480 C   0  0  0  0  0  0  0  0  0  0  0  0
    3.1930    3.7410    2.0790 C   0  0  1  0  0  0  0  0  0  0  0  0
    3.5590    5.0400    1.3900 C   0  0  0  0  0  0  0  0  0  0  0  0
    2.2870    4.0810    3.2340 C   0  0  0  0  0  0  0  0  0  0  0  0
    3.0920    1.5940    0.8120 C   0  0  0  0  0  0  0  0  0  0  0  0
    2.4830    0.6800   -0.0600 C   0  0  0  0  0  0  0  0  0  0  0  0
   -1.4530    1.2880   -2.5550 C   0  0  0  0  0  0  0  0  0  0  0  0
   -2.7600    1.7040   -2.5920 C   0  0  0  0  0  0  0  0  0  0  0  0
   -3.5950    1.3280   -1.5500 C   0  0  0  0  0  0  0  0  0  0  0  0
   -4.9390    1.7290   -1.5410 O   0  0  0  0  0  0  0  0  0  0  0  0
  1  2  1  0
  2  3  2  0
  2  7  1  0
  3  4  1  0
  4  5  1  0
  5  6  1  0
  5  7  2  0
  7  8  1  0
  8  9  1  0
  9 10  2  0
  9 32  1  0
 10 11  1  0
 11 12  1  0
 11 30  2  0
 12 13  1  1
 12 21  1  0
 13 14  1  0
 14 15  2  0
 14 16  1  0
 16 17  1  0
 18 17  1  6
 18 19  1  0
 18 20  1  0
 19 20  1  0
 21 22  2  0
 21 29  1  0
 22 23  1  0
 23 24  2  0
 24 25  1  0
 24 28  1  0
 25 26  1  6
 25 27  1  0
 28 29  2  0
 30 31  1  0
 31 32  2  0
 32 33  1  0
M  CHG  1  15   1
M  END
