
     RDKit          3D

 33 36  0  0  0  0  0  0  0  0999 V2000
   -2.5180   -5.0680    0.8880 C   0  0  0  0  0  0  0  0  0  0  0  0
   -1.8920   -4.4540   -0.3400 C   0  0  0  0  0  0  0  0  0  0  0  0
   -2.5730   -3.1610   -0.6240 C   0  0  0  0  0  0  0  0  0  0  0  0
   -3.6690   -2.9960   -1.4100 C   0  0  0  0  0  0  0  0  0  0  0  0
   -3.9780   -1.6710   -1.4130 C   0  0  0  0  0  0  0  0  0  0  0  0
   -3.0700   -1.0040   -0.6240 C   0  0  0  0  0  0  0  0  0  0  0  0
   -3.0830    0.4660   -0.4660 C   0  0  0  0  0  0  0  0  0  0  0  0
   -4.3300    1.0620   -0.7370 C   0  0  0  0  0  0  0  0  0  0  0  0
   -4.5000    2.4180   -0.6680 C   0  0  0  0  0  0  0  0  0  0  0  0
   -3.4020    3.1650   -0.3210 C   0  0  0  0  0  0  0  0  0  0  0  0
   -2.1500    2.6310   -0.0440 C   0  0  0  0  0  0  0  0  0  0  0  0
   -1.0960    3.4690    0.3810 N   0  0  0  0  0  0  0  0  0  0  0  0
   -1.0770    4.8600    0.1820 C   0  0  0  0  0  0  0  0  0  0  0  0
    0.1250    5.6200    0.7130 C   0  0  0  0  0  0  0  0  0  0  0  0
   -1.9740    5.4880   -0.3950 O   0  0  0  0  0  0  0  0  0  0  0  0
   -2.0080    1.2350   -0.1270 C   0  0  0  0  0  0  0  0  0  0  0  0
   -0.7220    0.6940    0.0740 N   0  0  0  0  0  0  0  0  0  0  0  0
   -0.0760    0.1850   -1.0960 C   0  0  1  0  0  0  0  0  0  0  0  0
   -0.8490    0.3450   -2.3750 C   0  0  0  0  0  0  0  0  0  0  0  0
    1.3030    0.7880   -1.3620 C   0  0  0  0  0  0  0  0  0  0  0  0
    2.2860    0.5670   -0.3120 C   0  0  0  0  0  0  0  0  0  0  0  0
    2.5120    1.5140    0.6590 C   0  0  0  0  0  0  0  0  0  0  0  0
    3.4160    1.3430    1.6930 C   0  0  0  0  0  0  0  0  0  0  0  0
    3.6150    2.2180    2.5790 O   0  0  0  0  0  0  0  0  0  0  0  0
    4.1180    0.1730    1.7490 C   0  0  0  0  0  0  0  0  0  0  0  0
    5.0270   -0.0170    2.7760 C   0  0  0  0  0  0  0  0  0  0  0  0
    5.7360   -1.1950    2.8350 C   0  0  0  0  0  0  0  0  0  0  0  0
    5.4960   -2.1330    1.8530 C   0  0  0  0  0  0  0  0  0  0  0  0
    4.5920   -1.9470    0.8290 C   0  0  0  0  0  0  0  0  0  0  0  0
    3.8800   -0.7640    0.7690 C   0  0  0  0  0  0  0  0  0  0  0  0
    2.9890   -0.5870   -0.2440 N   0  0  0  0  0  0  0  0  0  0  0  0
    2.8350   -1.6610   -1.2140 C   0  0  0  0  0  0  0  0  0  0  0  0
   -2.2410   -1.9210   -0.1640 N   0  0  0  0  0  0  0  0  0  0  0  0
  1  2  1  0
  2  3  1  0
  3  4  2  0
  3 33  1  0
  4  5  1  0
  5  6  2  0
  6  7  1  0
  6 33  1  0
  7  8  2  0
  7 16  1  0
  8  9  1  0
  9 10  2  0
 10 11  1  0
 11 12  1  0
 11 16  2  0
 12 13  1  0
 13 14  1  0
 13 15  2  0
 16 17  1  0
 17 18  1  0
 18 19  1  6
 18 20  1  0
 20 21  1  0
 21 22  2  0
 21 31  1  0
 22 23  1  0
 23 24  2  0
 23 25  1  0
 25 26  2  0
 25 30  1  0
 26 27  1  0
 27 28  2  0
 28 29  1  0
 29 30  2  0
 30 31  1  0
 31 32  1  0
M  CHG  1  17   1
M  END
