
     RDKit          3D

 33 36  0  0  0  0  0  0  0  0999 V2000
   -2.3150    5.0860   -1.4240 C   0  0  0  0  0  0  0  0  0  0  0  0
   -2.1510    3.6530   -1.2150 N   0  0  0  0  0  0  0  0  0  0  0  0
   -1.5770    3.3360    0.0490 C   0  0  0  0  0  0  0  0  0  0  0  0
   -0.9260    1.9510    0.1010 C   0  0  1  0  0  0  0  0  0  0  0  0
   -1.9010    0.9450   -0.2130 N   0  0  0  0  0  0  0  0  0  0  0  0
   -2.6930    0.2960    0.7740 C   0  0  0  0  0  0  0  0  0  0  0  0
   -2.4460    0.6810    1.9650 O   0  0  0  0  0  0  0  0  0  0  0  0
   -3.6920   -0.7030    0.6080 C   0  0  0  0  0  0  0  0  0  0  0  0
   -3.8120   -1.6420    1.6510 C   0  0  0  0  0  0  0  0  0  0  0  0
   -4.6910   -2.7040    1.5850 C   0  0  0  0  0  0  0  0  0  0  0  0
   -5.4690   -2.8480    0.4740 C   0  0  0  0  0  0  0  0  0  0  0  0
   -5.3860   -1.9590   -0.5610 C   0  0  0  0  0  0  0  0  0  0  0  0
   -6.0200   -1.8370   -1.7360 N   0  0  0  0  0  0  0  0  0  0  0  0
   -5.5630   -0.7580   -2.3650 C   0  0  0  0  0  0  0  0  0  0  0  0
   -5.9540   -0.3640   -3.4920 O   0  0  0  0  0  0  0  0  0  0  0  0
   -4.6090   -0.1430   -1.6080 N   0  0  0  0  0  0  0  0  0  0  0  0
   -4.4880   -0.8810   -0.4840 C   0  0  0  0  0  0  0  0  0  0  0  0
    0.3770    1.9000   -0.5790 C   0  0  0  0  0  0  0  0  0  0  0  0
    0.8600    3.0180   -1.2330 C   0  0  0  0  0  0  0  0  0  0  0  0
    2.0700    3.0260   -1.8470 C   0  0  0  0  0  0  0  0  0  0  0  0
    2.9010    1.9250   -1.8620 C   0  0  0  0  0  0  0  0  0  0  0  0
    2.4140    0.8210   -1.2120 C   0  0  0  0  0  0  0  0  0  0  0  0
    1.1900    0.7580   -0.5700 C   0  0  0  0  0  0  0  0  0  0  0  0
    0.6910   -0.5030   -0.0510 C   0  0  0  0  0  0  0  0  0  0  0  0
    1.3410   -1.3990    0.5890 C   0  0  0  0  0  0  0  0  0  0  0  0
    2.6990   -1.5250    1.0450 C   0  0  0  0  0  0  0  0  0  0  0  0
    3.5150   -0.4800    1.3150 C   0  0  0  0  0  0  0  0  0  0  0  0
    4.8500   -0.6680    1.6830 C   0  0  0  0  0  0  0  0  0  0  0  0
    5.3750   -1.9320    1.7830 C   0  0  0  0  0  0  0  0  0  0  0  0
    6.8000   -2.1230    2.1770 C   0  0  0  0  0  0  0  0  0  0  0  0
    4.5810   -3.0250    1.5200 C   0  0  0  0  0  0  0  0  0  0  0  0
    5.1620   -4.3910    1.6320 C   0  0  0  0  0  0  0  0  0  0  0  0
    3.2850   -2.7950    1.1630 C   0  0  0  0  0  0  0  0  0  0  0  0
  1  2  1  0
  2  3  1  0
  4  3  1  6
  4  5  1  0
  4 18  1  0
  5  6  1  0
  6  7  2  0
  6  8  1  0
  8  9  2  0
  8 17  1  0
  9 10  1  0
 10 11  2  0
 11 12  1  0
 12 13  1  0
 12 17  2  0
 13 14  1  0
 14 15  2  0
 14 16  1  0
 16 17  1  0
 18 19  2  0
 18 23  1  0
 19 20  1  0
 20 21  2  0
 21 22  1  0
 22 23  2  0
 23 24  1  0
 24 25  2  3
 25 26  1  0
 26 27  2  0
 26 33  1  0
 27 28  1  0
 28 29  2  0
 29 30  1  0
 29 31  1  0
 31 32  1  0
 31 33  2  0
M  CHG  1   2   1
M  END
