
     RDKit          3D

 33 36  0  0  0  0  0  0  0  0999 V2000
   -7.6040    2.2020    2.7750 C   0  0  0  0  0  0  0  0  0  0  0  0
   -6.4560    1.8040    2.2550 C   0  0  0  0  0  0  0  0  0  0  0  0
   -5.9530    0.5390    2.4580 C   0  0  0  0  0  0  0  0  0  0  0  0
   -4.7400    0.1330    1.9030 C   0  0  0  0  0  0  0  0  0  0  0  0
   -4.3120   -1.1680    2.1640 O   0  0  0  0  0  0  0  0  0  0  0  0
   -3.9970    0.9960    1.1230 C   0  0  0  0  0  0  0  0  0  0  0  0
   -2.7590    0.5890    0.5530 N   0  0  0  0  0  0  0  0  0  0  0  0
   -2.6960   -0.0200   -0.7540 C   0  0  0  0  0  0  0  0  0  0  0  0
   -3.7990   -0.1480   -1.3110 O   0  0  0  0  0  0  0  0  0  0  0  0
   -1.4620   -0.4230   -1.3170 N   0  0  0  0  0  0  0  0  0  0  0  0
   -1.3200   -1.0160   -2.5690 C   0  0  0  0  0  0  0  0  0  0  0  0
   -2.3560   -1.2830   -3.4120 C   0  0  0  0  0  0  0  0  0  0  0  0
   -2.1330   -1.8820   -4.6560 C   0  0  0  0  0  0  0  0  0  0  0  0
   -0.8650   -2.2050   -5.0360 C   0  0  0  0  0  0  0  0  0  0  0  0
    0.1690   -1.9280   -4.1700 C   0  0  0  0  0  0  0  0  0  0  0  0
   -0.0010   -1.3410   -2.9390 C   0  0  0  0  0  0  0  0  0  0  0  0
    1.0730   -1.0640   -2.0640 N   0  0  0  0  0  0  0  0  0  0  0  0
    1.4820   -1.7940   -1.0020 C   0  0  0  0  0  0  0  0  0  0  0  0
    2.5670   -1.1880   -0.4040 C   0  0  0  0  0  0  0  0  0  0  0  0
    3.3080   -1.6870    0.8010 C   0  0  0  0  0  0  0  0  0  0  0  0
    4.4020   -0.8370    1.1450 N   0  0  0  0  0  0  0  0  0  0  0  0
    5.3500   -1.5480    1.9370 C   0  0  1  0  0  0  0  0  0  0  0  0
    6.6650   -1.7800    1.2220 C   0  0  0  0  0  0  0  0  0  0  0  0
    5.6420   -0.8880    3.2630 C   0  0  0  0  0  0  0  0  0  0  0  0
    6.2030    0.5040    3.1060 C   0  0  0  0  0  0  0  0  0  0  0  0
    2.8030   -0.0520   -1.1510 C   0  0  0  0  0  0  0  0  0  0  0  0
    1.8750    0.0130   -2.1720 C   0  0  0  0  0  0  0  0  0  0  0  0
    1.7670    1.0880   -3.2220 C   0  0  0  0  0  0  0  0  0  0  0  0
   -4.5160    2.2610    0.9290 C   0  0  0  0  0  0  0  0  0  0  0  0
   -5.7080    2.6710    1.4700 C   0  0  0  0  0  0  0  0  0  0  0  0
   -5.9800    3.9230    1.1360 C   0  0  0  0  0  0  0  0  0  0  0  0
   -4.8770    4.3860    0.3020 C   0  0  0  0  0  0  0  0  0  0  0  0
   -3.9910    3.3960    0.1700 C   0  0  0  0  0  0  0  0  0  0  0  0
  1  2  2  0
  2  3  1  0
  2 30  1  0
  3  4  2  0
  4  5  1  0
  4  6  1  0
  6  7  1  0
  6 29  2  0
  7  8  1  0
  8  9  2  0
  8 10  1  0
 10 11  1  0
 11 12  2  0
 11 16  1  0
 12 13  1  0
 13 14  2  0
 14 15  1  0
 15 16  2  0
 16 17  1  0
 17 18  1  0
 17 27  1  0
 18 19  2  0
 19 20  1  0
 19 26  1  0
 20 21  1  0
 21 22  1  0
 22 23  1  6
 22 24  1  0
 24 25  1  0
 26 27  2  0
 27 28  1  0
 29 30  1  0
 29 33  1  0
 30 31  2  0
 31 32  1  0
 32 33  2  0
M  CHG  1  21   1
M  END
