
     RDKit          3D

 33 36  0  0  0  0  0  0  0  0999 V2000
   -3.9930    4.9070   -0.5660 C   0  0  0  0  0  0  0  0  0  0  0  0
   -3.3200    3.6460   -1.0220 C   0  0  0  0  0  0  0  0  0  0  0  0
   -2.0480    3.4690   -0.2090 C   0  0  0  0  0  0  0  0  0  0  0  0
   -1.3170    2.1960   -0.6320 C   0  0  1  0  0  0  0  0  0  0  0  0
   -0.1220    2.0900    0.1780 N   0  0  0  0  0  0  0  0  0  0  0  0
    1.2010    2.1610   -0.4260 C   0  0  0  0  0  0  0  0  0  0  0  0
    1.1980    2.3150   -1.6460 O   0  0  0  0  0  0  0  0  0  0  0  0
    2.3120    2.0390    0.5090 C   0  0  0  0  0  0  0  0  0  0  0  0
    3.6980    2.0630   -0.0380 C   0  0  0  0  0  0  0  0  0  0  0  0
    3.9870    0.9850   -0.9300 N   0  0  0  0  0  0  0  0  0  0  0  0
    3.8300    1.1100   -2.3040 C   0  0  0  0  0  0  0  0  0  0  0  0
    4.2090   -0.0820   -2.8440 C   0  0  0  0  0  0  0  0  0  0  0  0
    4.5740   -0.8720   -1.8270 N   0  0  0  0  0  0  0  0  0  0  0  0
    4.4410   -0.2200   -0.6290 C   0  0  0  0  0  0  0  0  0  0  0  0
    4.8080   -0.8560    0.6280 C   0  0  0  0  0  0  0  0  0  0  0  0
    4.6590   -0.3320    1.8710 C   0  0  0  0  0  0  0  0  0  0  0  0
    5.0660   -1.0190    3.0260 C   0  0  0  0  0  0  0  0  0  0  0  0
    5.6360   -2.2580    2.9390 C   0  0  0  0  0  0  0  0  0  0  0  0
    5.8060   -2.8290    1.6980 C   0  0  0  0  0  0  0  0  0  0  0  0
    6.3930   -4.1120    1.5460 N   0  0  0  0  0  0  0  0  0  0  0  0
    5.4000   -2.1350    0.5930 C   0  0  0  0  0  0  0  0  0  0  0  0
   -2.1850    1.0120   -0.4570 C   0  0  0  0  0  0  0  0  0  0  0  0
   -2.7660    0.3750   -1.5240 C   0  0  0  0  0  0  0  0  0  0  0  0
   -3.5840   -0.7440   -1.3520 C   0  0  0  0  0  0  0  0  0  0  0  0
   -3.8340   -1.2450   -0.1000 C   0  0  0  0  0  0  0  0  0  0  0  0
   -4.6870   -2.4130    0.1030 C   0  0  0  0  0  0  0  0  0  0  0  0
   -4.9550   -2.9330    1.2990 C   0  0  0  0  0  0  0  0  0  0  0  0
   -5.8490   -4.1120    1.1650 C   0  0  0  0  0  0  0  0  0  0  0  0
   -6.0670   -4.2100   -0.2820 C   0  0  0  0  0  0  0  0  0  0  0  0
   -5.3870   -3.2220   -0.8660 C   0  0  0  0  0  0  0  0  0  0  0  0
   -5.3650   -3.0070   -2.2540 O   0  0  0  0  0  0  0  0  0  0  0  0
   -3.2450   -0.5960    0.9620 C   0  0  0  0  0  0  0  0  0  0  0  0
   -2.4300    0.5160    0.7980 C   0  0  0  0  0  0  0  0  0  0  0  0
  1  2  1  0
  2  3  1  0
  4  3  1  1
  4  5  1  0
  4 22  1  0
  5  6  1  0
  6  7  2  0
  6  8  1  0
  8  9  1  0
  9 10  1  0
 10 11  1  0
 10 14  1  0
 11 12  2  0
 12 13  1  0
 13 14  2  0
 14 15  1  0
 15 16  2  0
 15 21  1  0
 16 17  1  0
 17 18  2  0
 18 19  1  0
 19 20  1  0
 19 21  2  0
 22 23  2  0
 22 33  1  0
 23 24  1  0
 24 25  2  0
 25 26  1  0
 25 32  1  0
 26 27  2  0
 26 30  1  0
 27 28  1  0
 28 29  1  0
 29 30  2  0
 30 31  1  0
 32 33  2  0
M  CHG  1  13   1
M  END
