
     RDKit          3D

 33 36  0  0  0  0  0  0  0  0999 V2000
   10.4860    0.9750    0.0060 C   0  0  0  0  0  0  0  0  0  0  0  0
    9.1350    0.3220   -0.0510 C   0  0  0  0  0  0  0  0  0  0  0  0
    8.5720   -0.2080    1.0950 C   0  0  0  0  0  0  0  0  0  0  0  0
    7.3240   -0.8210    1.0820 C   0  0  0  0  0  0  0  0  0  0  0  0
    6.6270   -0.9050   -0.1030 C   0  0  0  0  0  0  0  0  0  0  0  0
    5.3950   -1.5030   -0.1510 O   0  0  0  0  0  0  0  0  0  0  0  0
    4.1760   -0.8690    0.0300 C   0  0  0  0  0  0  0  0  0  0  0  0
    3.5750   -0.7370    1.2520 C   0  0  0  0  0  0  0  0  0  0  0  0
    2.3470   -0.0880    1.3620 C   0  0  0  0  0  0  0  0  0  0  0  0
    1.7100    0.4340    0.2560 C   0  0  0  0  0  0  0  0  0  0  0  0
    0.4130    1.1120    0.3920 C   0  0  1  0  0  0  0  0  0  0  0  0
    0.5370    2.6230    0.4370 C   0  0  0  0  0  0  0  0  0  0  0  0
    1.1450    3.1580   -0.7610 N   0  0  0  0  0  0  0  0  0  0  0  0
   -0.5280    0.7250   -0.6400 N   0  0  0  0  0  0  0  0  0  0  0  0
   -1.7850    0.1100   -0.3880 C   0  0  0  0  0  0  0  0  0  0  0  0
   -2.0860   -0.1060    0.8160 O   0  0  0  0  0  0  0  0  0  0  0  0
   -2.7150   -0.2700   -1.4820 C   0  0  0  0  0  0  0  0  0  0  0  0
   -3.9570   -0.8880   -0.9620 C   0  0  0  0  0  0  0  0  0  0  0  0
   -4.2790   -2.2070   -0.9630 C   0  0  0  0  0  0  0  0  0  0  0  0
   -5.5240   -2.3040   -0.3810 C   0  0  0  0  0  0  0  0  0  0  0  0
   -6.2890   -3.5820   -0.1660 C   0  0  0  0  0  0  0  0  0  0  0  0
   -5.9590   -1.0730   -0.0290 N   0  0  0  0  0  0  0  0  0  0  0  0
   -7.1950   -0.7380    0.5950 C   0  0  0  0  0  0  0  0  0  0  0  0
   -7.4320   -0.3250    1.8880 C   0  0  0  0  0  0  0  0  0  0  0  0
   -8.7890   -0.1080    2.0680 C   0  0  0  0  0  0  0  0  0  0  0  0
   -9.3810   -0.3860    0.8980 N   0  0  0  0  0  0  0  0  0  0  0  0
   -8.4570   -0.7660   -0.0080 C   0  0  0  0  0  0  0  0  0  0  0  0
   -4.9920   -0.1840   -0.3860 C   0  0  0  0  0  0  0  0  0  0  0  0
   -5.0740    1.2980   -0.1740 C   0  0  0  0  0  0  0  0  0  0  0  0
    2.3340    0.2900   -0.9620 C   0  0  0  0  0  0  0  0  0  0  0  0
    3.5530   -0.3500   -1.1040 C   0  0  0  0  0  0  0  0  0  0  0  0
    7.2080   -0.3650   -1.2500 C   0  0  0  0  0  0  0  0  0  0  0  0
    8.4390    0.2390   -1.2350 C   0  0  0  0  0  0  0  0  0  0  0  0
  1  2  1  0
  2  3  2  0
  2 33  1  0
  3  4  1  0
  4  5  2  0
  5  6  1  0
  5 32  1  0
  6  7  1  0
  7  8  2  0
  7 31  1  0
  8  9  1  0
  9 10  2  0
 10 11  1  0
 10 30  1  0
 11 12  1  6
 11 14  1  0
 12 13  1  0
 14 15  1  0
 15 16  2  0
 15 17  1  0
 17 18  1  0
 18 19  1  0
 18 28  2  0
 19 20  2  0
 20 21  1  0
 20 22  1  0
 22 23  1  0
 22 28  1  0
 23 24  1  0
 23 27  2  0
 24 25  2  0
 25 26  1  0
 26 27  1  0
 28 29  1  0
 30 31  2  0
 32 33  2  0
M  CHG  1  13   1
M  END
