
     RDKit          3D

 23 25  0  0  0  0  0  0  0  0999 V2000
   -6.3570    0.2330   -2.8160 N   0  0  0  0  0  0  0  0  0  0  0  0
   -5.4340    0.3470   -1.6830 C   0  0  0  0  0  0  0  0  0  0  0  0
   -4.2590    0.1410   -1.9940 O   0  0  0  0  0  0  0  0  0  0  0  0
   -6.0230    0.6700   -0.4360 C   0  0  0  0  0  0  0  0  0  0  0  0
   -5.4590    0.8300    0.7050 C   0  0  0  0  0  0  0  0  0  0  0  0
   -4.0800    0.7290    1.0440 C   0  0  0  0  0  0  0  0  0  0  0  0
   -3.4680    0.9010    2.2720 C   0  0  0  0  0  0  0  0  0  0  0  0
   -2.1700    0.7440    2.2830 N   0  0  0  0  0  0  0  0  0  0  0  0
   -1.4610    0.4900    1.4490 C   0  0  0  0  0  0  0  0  0  0  0  0
   -0.0260    0.2640    1.2000 N   0  0  0  0  0  0  0  0  0  0  0  0
    0.4490   -0.0550   -0.0950 C   0  0  0  0  0  0  0  0  0  0  0  0
   -0.4000   -0.1320   -0.9950 O   0  0  0  0  0  0  0  0  0  0  0  0
    1.8710   -0.2750   -0.3240 C   0  0  0  0  0  0  0  0  0  0  0  0
    2.7800   -0.1740    0.7320 C   0  0  0  0  0  0  0  0  0  0  0  0
    4.1450   -0.3770    0.5520 C   0  0  0  0  0  0  0  0  0  0  0  0
    4.6370   -0.6860   -0.6840 C   0  0  0  0  0  0  0  0  0  0  0  0
    3.7880   -0.7960   -1.7490 C   0  0  0  0  0  0  0  0  0  0  0  0
    2.4040   -0.5890   -1.5610 C   0  0  0  0  0  0  0  0  0  0  0  0
    1.6350   -0.7170   -2.6690 O   0  0  0  0  0  0  0  0  0  0  0  0
    5.9630   -0.8270   -0.5780 C   0  0  0  0  0  0  0  0  0  0  0  0
    6.3380   -0.6040    0.7630 N   0  0  0  0  0  0  0  0  0  0  0  0
    5.1290   -0.3240    1.4170 C   0  0  0  0  0  0  0  0  0  0  0  0
   -2.6560    0.3460    0.0060 S   0  0  0  0  0  0  0  0  0  0  0  0
  1  2  1  0
  2  3  2  0
  2  4  1  0
  4  5  2  3
  5  6  1  0
  6  7  2  0
  6 23  1  0
  7  8  1  0
  8  9  2  0
  9 10  1  0
  9 23  1  0
 10 11  1  0
 11 12  2  0
 11 13  1  0
 13 14  2  0
 13 18  1  0
 14 15  1  0
 15 16  1  0
 15 22  2  0
 16 17  1  0
 16 20  2  0
 17 18  2  0
 18 19  1  0
 20 21  1  0
 21 22  1  0
M  CHG  1  21   1
M  END
