
     RDKit          3D

 23 24  0  0  0  0  0  0  0  0999 V2000
    5.8670    2.6650   -0.1470 C   0  0  0  0  0  0  0  0  0  0  0  0
    5.5800    1.2500   -0.5630 C   0  0  0  0  0  0  0  0  0  0  0  0
    5.8120    0.8420   -1.7370 O   0  0  0  0  0  0  0  0  0  0  0  0
    5.0360    0.3130    0.3530 N   0  0  0  0  0  0  0  0  0  0  0  0
    4.7610   -1.0670   -0.0670 C   0  0  0  0  0  0  0  0  0  0  0  0
    4.1950   -1.8680    1.0530 C   0  0  0  0  0  0  0  0  0  0  0  0
    2.9670   -1.3200    1.5550 N   0  0  0  0  0  0  0  0  0  0  0  0
    1.8330   -1.2250    0.6810 C   0  0  0  0  0  0  0  0  0  0  0  0
    1.9930   -1.6420   -0.4890 O   0  0  0  0  0  0  0  0  0  0  0  0
    0.6310   -0.6840    1.1640 N   0  0  0  0  0  0  0  0  0  0  0  0
   -0.5280   -0.5460    0.3480 C   0  0  0  0  0  0  0  0  0  0  0  0
   -0.5530   -0.6160   -1.0140 C   0  0  0  0  0  0  0  0  0  0  0  0
   -1.7510   -0.4850   -1.6720 C   0  0  0  0  0  0  0  0  0  0  0  0
   -2.9760   -0.2780   -1.0150 C   0  0  0  0  0  0  0  0  0  0  0  0
   -2.9270   -0.2110    0.3500 C   0  0  0  0  0  0  0  0  0  0  0  0
   -1.7320   -0.3410    1.0170 C   0  0  0  0  0  0  0  0  0  0  0  0
   -3.9220   -0.0250    1.2000 C   0  0  0  0  0  0  0  0  0  0  0  0
   -5.3300    0.1630    1.0360 C   0  0  0  0  0  0  0  0  0  0  0  0
   -6.0980    0.3350    2.2100 O   0  0  0  0  0  0  0  0  0  0  0  0
   -6.1010    0.2120   -0.0360 C   0  0  0  0  0  0  0  0  0  0  0  0
   -5.6740    0.0600   -1.7210 S   0  0  0  0  0  0  0  0  0  0  0  0
   -6.2010    1.3080   -2.5100 N   0  0  0  0  0  0  0  0  0  0  0  0
   -3.9480   -0.1910   -1.9090 C   0  0  0  0  0  0  0  0  0  0  0  0
  1  2  1  0
  2  3  2  0
  2  4  1  0
  4  5  1  0
  5  6  1  0
  6  7  1  0
  7  8  1  0
  8  9  2  0
  8 10  1  0
 10 11  1  0
 11 12  1  0
 11 16  2  0
 12 13  2  0
 13 14  1  0
 14 15  1  0
 14 23  2  0
 15 16  1  0
 15 17  2  0
 17 18  1  0
 18 19  1  0
 18 20  2  0
 21 20  1  1
 21 22  2  0
 21 23  1  0
M  CHG  1  22   1
M  END
