
     RDKit          3D

 23 24  0  0  0  0  0  0  0  0999 V2000
   -4.8910   -1.5240   -2.3850 C   0  0  0  0  0  0  0  0  0  0  0  0
   -5.3030   -0.4720   -1.7170 C   0  0  0  0  0  0  0  0  0  0  0  0
   -4.6720    0.1300   -0.5930 C   0  0  0  0  0  0  0  0  0  0  0  0
   -5.3760    1.0260    0.2370 C   0  0  0  0  0  0  0  0  0  0  0  0
   -6.7840    1.3210   -0.0570 C   0  0  0  0  0  0  0  0  0  0  0  0
   -4.6920    1.5520    1.2540 N   0  0  0  0  0  0  0  0  0  0  0  0
   -3.4180    1.3020    1.5430 C   0  0  0  0  0  0  0  0  0  0  0  0
   -2.9420    1.8910    2.5430 O   0  0  0  0  0  0  0  0  0  0  0  0
   -2.6530    0.4130    0.7510 C   0  0  0  0  0  0  0  0  0  0  0  0
   -1.3600    0.0640    0.9070 C   0  0  0  0  0  0  0  0  0  0  0  0
   -0.8000   -0.7960    0.0410 C   0  0  0  0  0  0  0  0  0  0  0  0
    0.5400   -1.3500   -0.0480 C   0  0  0  0  0  0  0  0  0  0  0  0
    0.8270   -2.1500   -0.9630 O   0  0  0  0  0  0  0  0  0  0  0  0
    1.5180   -0.9930    0.8860 N   0  0  0  0  0  0  0  0  0  0  0  0
    2.8300   -1.4800    0.8720 N   0  0  0  0  0  0  0  0  0  0  0  0
    3.9700   -0.6320    0.7180 C   0  0  0  0  0  0  0  0  0  0  0  0
    3.7210    0.5820    0.5960 O   0  0  0  0  0  0  0  0  0  0  0  0
    5.2820   -1.2270    0.7140 C   0  0  0  0  0  0  0  0  0  0  0  0
    6.4490   -0.6690    0.5920 C   0  0  0  0  0  0  0  0  0  0  0  0
    6.6430    0.7810    0.4240 C   0  0  0  0  0  0  0  0  0  0  0  0
    7.3200    1.0710   -0.8510 N   0  0  0  0  0  0  0  0  0  0  0  0
   -2.1070   -1.1630   -1.0640 S   0  0  0  0  0  0  0  0  0  0  0  0
   -3.3430   -0.1280   -0.2880 C   0  0  0  0  0  0  0  0  0  0  0  0
  1  2  2  0
  2  3  1  0
  3  4  2  0
  3 23  1  0
  4  5  1  0
  4  6  1  0
  6  7  1  0
  7  8  2  0
  7  9  1  0
  9 10  1  0
  9 23  2  0
 10 11  2  0
 11 12  1  0
 11 22  1  0
 12 13  2  0
 12 14  1  0
 14 15  1  0
 15 16  1  0
 16 17  2  0
 16 18  1  0
 18 19  2  3
 19 20  1  0
 20 21  1  0
 22 23  1  0
M  CHG  1  21   1
M  END
