
     RDKit          3D

 14 14  0  0  0  0  0  0  0  0999 V2000
    6.0550   -0.2530   -0.1330 C   0  0  0  0  0  0  0  0  0  0  0  0
    4.7610   -0.7960   -0.1000 O   0  0  0  0  0  0  0  0  0  0  0  0
    3.7960    0.1860    0.0070 C   0  0  0  0  0  0  0  0  0  0  0  0
    2.4270   -0.4140    0.0410 C   0  0  0  0  0  0  0  0  0  0  0  0
    1.4060    0.5460    0.1500 O   0  0  0  0  0  0  0  0  0  0  0  0
    0.0760    0.1530    0.1940 C   0  0  0  0  0  0  0  0  0  0  0  0
   -0.1480   -1.0820    0.1330 O   0  0  0  0  0  0  0  0  0  0  0  0
   -0.9940    1.1210    0.3050 C   0  0  0  0  0  0  0  0  0  0  0  0
   -2.2720    0.7970    0.3510 C   0  0  0  0  0  0  0  0  0  0  0  0
   -2.8960   -0.5260    0.3060 C   0  0  0  0  0  0  0  0  0  0  0  0
   -4.1930   -0.3860   -0.0180 C   0  0  0  0  0  0  0  0  0  0  0  0
   -5.2090   -1.4580   -0.1790 C   0  0  0  0  0  0  0  0  0  0  0  0
   -4.4700    0.9710   -0.1930 O   0  0  0  0  0  0  0  0  0  0  0  0
   -3.4470    1.7340    0.4650 C   0  0  0  0  0  0  0  0  0  0  0  0
  1  2  1  0
  2  3  1  0
  3  4  1  0
  4  5  1  0
  5  6  1  0
  6  7  2  0
  6  8  1  0
  8  9  2  3
  9 10  1  0
  9 14  1  0
 10 11  2  0
 11 12  1  0
 11 13  1  0
 13 14  1  0
M  END
