
     RDKit          3D

 14 14  0  0  0  0  0  0  0  0999 V2000
    0.8090   -0.3000   -1.5740 O   0  0  0  0  0  0  0  0  0  0  0  0
    1.5230   -0.3780   -0.5510 C   0  0  0  0  0  0  0  0  0  0  0  0
    2.9550   -0.2090   -0.7070 C   0  0  0  0  0  0  0  0  0  0  0  0
    3.7250   -0.2870    0.3560 C   0  0  0  0  0  0  0  0  0  0  0  0
    5.2080   -0.1260    0.2890 C   0  0  0  0  0  0  0  0  0  0  0  0
    5.5710    0.1040   -1.0180 O   0  0  0  0  0  0  0  0  0  0  0  0
    0.9320   -0.6160    0.6490 O   0  0  0  0  0  0  0  0  0  0  0  0
   -0.3990   -0.7950    0.9680 C   0  0  0  0  0  0  0  0  0  0  0  0
   -1.3340    0.3250    0.7020 C   0  0  2  0  0  0  0  0  0  0  0  0
   -2.7370   -0.0360    1.1710 C   0  0  0  0  0  0  0  0  0  0  0  0
   -3.7120    0.9520    0.5230 C   0  0  0  0  0  0  0  0  0  0  0  0
   -3.7520    0.5880   -0.9500 C   0  0  0  0  0  0  0  0  0  0  0  0
   -2.4160    0.0110   -1.3110 C   0  0  0  0  0  0  0  0  0  0  0  0
   -1.3800    0.6610   -0.6210 O   0  0  0  0  0  0  0  0  0  0  0  0
  1  2  2  0
  2  3  1  0
  2  7  1  0
  3  4  2  3
  4  5  1  0
  5  6  1  0
  7  8  1  0
  9  8  1  6
  9 10  1  0
  9 14  1  0
 10 11  1  0
 11 12  1  0
 12 13  1  0
 13 14  1  0
M  END
