
     RDKit          3D

 14 13  0  0  0  0  0  0  0  0999 V2000
   -1.5750    3.1210   -0.1290 C   0  0  0  0  0  0  0  0  0  0  0  0
   -0.3320    2.4220    0.1250 C   0  0  0  0  0  0  0  0  0  0  0  0
   -0.2300    1.0750    0.1350 C   0  0  0  0  0  0  0  0  0  0  0  0
    1.0390    0.4570    0.3960 C   0  0  0  0  0  0  0  0  0  0  0  0
    1.3060   -0.8170    0.4410 C   0  0  0  0  0  0  0  0  0  0  0  0
    2.6690   -1.3010    0.7230 C   0  0  0  0  0  0  0  0  0  0  0  0
    2.9040   -2.5260    0.7620 O   0  0  0  0  0  0  0  0  0  0  0  0
    3.7160   -0.4260    0.9490 O   0  0  0  0  0  0  0  0  0  0  0  0
    5.0280   -0.8870    1.2200 C   0  0  0  0  0  0  0  0  0  0  0  0
   -1.4480    0.3320   -0.1250 C   0  0  0  0  0  0  0  0  0  0  0  0
   -2.5670    0.9120   -0.3540 O   0  0  0  0  0  0  0  0  0  0  0  0
   -1.5110   -1.0430   -0.1500 O   0  0  0  0  0  0  0  0  0  0  0  0
   -2.7290   -1.6870   -0.4090 C   0  0  0  0  0  0  0  0  0  0  0  0
   -3.2940   -1.3210   -1.7600 C   0  0  0  0  0  0  0  0  0  0  0  0
  1  2  1  0
  2  3  2  3
  3  4  1  0
  3 10  1  0
  4  5  2  3
  5  6  1  0
  6  7  2  0
  6  8  1  0
  8  9  1  0
 10 11  2  0
 10 12  1  0
 12 13  1  0
 13 14  1  0
M  END
