
     RDKit          3D

 14 14  0  0  0  0  0  0  0  0999 V2000
    2.6480    2.6380   -0.6020 C   0  0  0  0  0  0  0  0  0  0  0  0
    2.2790    2.1170    0.7310 C   0  0  0  0  0  0  0  0  0  0  0  0
    2.8370    2.5860    1.8210 C   0  0  0  0  0  0  0  0  0  0  0  0
    2.4840    2.0920    3.0670 O   0  0  0  0  0  0  0  0  0  0  0  0
    1.2790    1.0670    0.8180 C   0  0  0  0  0  0  0  0  0  0  0  0
    0.9170    0.5770    1.9280 O   0  0  0  0  0  0  0  0  0  0  0  0
    0.6670    0.5450   -0.3130 O   0  0  0  0  0  0  0  0  0  0  0  0
   -0.3110   -0.4800   -0.2440 C   0  0  1  0  0  0  0  0  0  0  0  0
   -1.5750    0.0120   -0.8080 C   0  0  0  0  0  0  0  0  0  0  0  0
   -2.8300   -0.6360   -0.3480 C   0  0  0  0  0  0  0  0  0  0  0  0
   -2.8140   -2.1180   -0.2820 C   0  0  0  0  0  0  0  0  0  0  0  0
   -1.5930   -2.6170    0.1630 O   0  0  0  0  0  0  0  0  0  0  0  0
   -0.7780   -2.7610   -0.9470 C   0  0  0  0  0  0  0  0  0  0  0  0
    0.2710   -1.6970   -0.9020 C   0  0  0  0  0  0  0  0  0  0  0  0
  1  2  1  0
  2  3  2  3
  2  5  1  0
  3  4  1  0
  5  6  2  0
  5  7  1  0
  8  7  1  6
  8  9  1  0
  8 14  1  0
  9 10  1  0
 10 11  1  0
 11 12  1  0
 12 13  1  0
 13 14  1  0
M  END
