
     RDKit          3D

 20 19  0  0  0  0  0  0  0  0999 V2000
   -4.5210   -0.7060    1.0020 N   0  0  0  0  0  0  0  0  0  0  0  0
   -4.1350    0.5670    0.4200 C   0  0  1  0  0  0  0  0  0  0  0  0
   -2.9260    0.3300   -0.4470 C   0  0  0  0  0  0  0  0  0  0  0  0
   -1.8400   -0.2170    0.4620 C   0  0  0  0  0  0  0  0  0  0  0  0
   -0.2750   -0.6170   -0.2470 P   0  0  0  0  0  0  0  0  0  0  0  0
    0.0560   -2.2470   -0.5910 O   0  0  0  0  0  0  0  0  0  0  0  0
   -0.7360   -0.5240   -1.7010 O   0  0  0  0  0  0  0  0  0  0  0  0
    0.9710    0.5610   -0.2950 C   0  0  0  0  0  0  0  0  0  0  0  0
    2.4120    0.1720    0.1260 C   0  0  1  0  0  0  0  0  0  0  0  0
    2.9880   -0.8850   -0.7050 C   0  0  0  0  0  0  0  0  0  0  0  0
    4.3500   -1.3310   -0.3210 C   0  0  0  0  0  0  0  0  0  0  0  0
    5.3520   -0.2730   -0.3990 C   0  0  0  0  0  0  0  0  0  0  0  0
    5.7680    0.2780    0.6520 O   0  0  0  0  0  0  0  0  0  0  0  0
    5.8950    0.1740   -1.6100 O   0  0  0  0  0  0  0  0  0  0  0  0
    3.1850    1.3960    0.3660 C   0  0  0  0  0  0  0  0  0  0  0  0
    3.7050    2.0240   -0.5870 O   0  0  0  0  0  0  0  0  0  0  0  0
    3.3890    1.9470    1.6460 O   0  0  0  0  0  0  0  0  0  0  0  0
   -5.2210    1.1470   -0.3920 C   0  0  0  0  0  0  0  0  0  0  0  0
   -5.0130    2.2180   -1.0070 O   0  0  0  0  0  0  0  0  0  0  0  0
   -6.4400    0.4960   -0.4520 O   0  0  0  0  0  0  0  0  0  0  0  0
  2  1  1  6
  2  3  1  0
  2 18  1  0
  3  4  1  0
  4  5  1  0
  5  6  1  0
  5  7  1  0
  5  8  1  0
  9  8  1  6
  9 10  1  0
  9 15  1  0
 10 11  1  0
 11 12  1  0
 12 13  2  0
 12 14  1  0
 15 16  2  0
 15 17  1  0
 18 19  2  0
 18 20  1  0
M  CHG  1   1   1
M  END
