
     RDKit          3D

 23 24  0  0  0  0  0  0  0  0999 V2000
    0.9460   -3.7230   -0.6640 N   0  0  0  0  0  0  0  0  0  0  0  0
    0.4290   -2.5900   -0.2900 C   0  0  0  0  0  0  0  0  0  0  0  0
    1.5000   -1.7300    0.1990 N   0  0  0  0  0  0  0  0  0  0  0  0
    1.4050   -0.0790    0.7840 P   0  0  0  0  0  0  0  0  0  0  0  0
    2.4340    0.2060    2.1560 O   0  0  0  0  0  0  0  0  0  0  0  0
    3.6200    0.5680    1.6960 O   0  0  0  0  0  0  0  0  0  0  0  0
    4.2710   -0.5160    1.3430 O   0  0  0  0  0  0  0  0  0  0  0  0
    5.0260   -0.3470    0.2990 O   0  0  0  0  0  0  0  0  0  0  0  0
    1.7660    1.2350   -0.4450 C   0  0  0  0  0  0  0  0  0  0  0  0
    1.0660    2.5010   -0.0060 C   0  0  0  0  0  0  0  0  0  0  0  0
    0.0640    2.9640   -0.9700 N   0  0  0  0  0  0  0  0  0  0  0  0
   -1.3370    2.8800   -0.7560 C   0  0  0  0  0  0  0  0  0  0  0  0
   -2.0610    3.2130   -1.7660 O   0  0  0  0  0  0  0  0  0  0  0  0
   -2.0190    2.4840    0.4150 N   0  0  0  0  0  0  0  0  0  0  0  0
   -1.9270    1.2160    1.1210 C   0  0  0  0  0  0  0  0  0  0  0  0
   -1.4790    1.4660    2.3370 O   0  0  0  0  0  0  0  0  0  0  0  0
   -2.2760    0.0070    0.5200 N   0  0  0  0  0  0  0  0  0  0  0  0
   -1.8560   -0.0200   -0.9350 C   0  0  0  0  0  0  0  0  0  0  0  0
   -1.6420   -1.4680   -1.3690 C   0  0  0  0  0  0  0  0  0  0  0  0
   -0.9190   -2.1440   -0.3000 N   0  0  0  0  0  0  0  0  0  0  0  0
   -1.8380   -2.3060    0.8750 C   0  0  0  0  0  0  0  0  0  0  0  0
   -2.8900   -1.1990    0.8470 C   0  0  0  0  0  0  0  0  0  0  0  0
   -4.0590   -1.5970    1.1140 O   0  0  0  0  0  0  0  0  0  0  0  0
  1  2  2  0
  2  3  1  0
  2 20  1  0
  3  4  1  0
  4  5  1  0
  4  9  1  0
  5  6  1  0
  6  7  1  0
  7  8  1  0
  9 10  1  0
 10 11  1  0
 11 12  1  0
 12 13  2  0
 12 14  1  0
 14 15  1  0
 15 16  2  0
 15 17  1  0
 17 18  1  0
 17 22  1  0
 18 19  1  0
 19 20  1  0
 20 21  1  0
 21 22  1  0
 22 23  2  0
M  END
