
     RDKit          3D

 15 15  0  0  0  0  0  0  0  0999 V2000
    4.3140   -0.1090   -0.1180 C   0  0  0  0  0  0  0  0  0  0  0  0
    3.2650    0.9900    0.0830 C   0  0  2  0  0  0  0  0  0  0  0  0
    3.7510    1.8370    1.0740 O   0  0  0  0  0  0  0  0  0  0  0  0
    2.0990    0.3900    0.4870 O   0  0  0  0  0  0  0  0  0  0  0  0
    1.0480    0.5510   -0.4170 C   0  0  0  0  0  0  0  0  0  0  0  0
   -0.4260   -0.3020    0.2620 P   0  0  0  0  0  0  0  0  0  0  0  0
   -0.3910   -2.1020    0.1510 C   0  0  0  0  0  0  0  0  0  0  0  0
   -1.6580   -2.7640   -0.2660 C   0  0  0  0  0  0  0  0  0  0  0  0
   -2.8890   -2.1600    0.3230 C   0  0  0  0  0  0  0  0  0  0  0  0
   -2.5780   -1.1660    1.2620 O   0  0  0  0  0  0  0  0  0  0  0  0
   -2.9900   -0.0310    0.7730 O   0  0  0  0  0  0  0  0  0  0  0  0
   -2.0080    0.5100   -0.0560 C   0  0  1  0  0  0  0  0  0  0  0  0
   -1.8780    2.3210    0.4120 P   0  0  0  0  0  0  0  0  0  0  0  0
   -3.5280    2.9180    0.4650 O   0  0  0  0  0  0  0  0  0  0  0  0
   -1.0300    3.2200   -0.7930 O   0  0  0  0  0  0  0  0  0  0  0  0
  2  1  1  1
  2  3  1  0
  2  4  1  0
  4  5  1  0
  5  6  1  0
  6  7  1  0
  6 12  1  0
  7  8  1  0
  8  9  1  0
  9 10  1  0
 10 11  1  0
 11 12  1  0
 12 13  1  1
 13 14  1  0
 13 15  1  0
M  END
