
     RDKit          3D

 13 13  0  0  0  0  0  0  0  0999 V2000
    0.9850    0.3270    1.4610 N   0  0  0  0  0  0  0  0  0  0  0  0
    1.2400   -0.2940    0.1670 C   0  0  1  0  0  0  0  0  0  0  0  0
    0.2480    0.1080   -0.8680 C   0  0  0  0  0  0  0  0  0  0  0  0
   -1.1110   -0.2310   -0.5530 N   0  0  0  0  0  0  0  0  0  0  0  0
   -1.7760   -1.3110   -0.8250 O   0  0  0  0  0  0  0  0  0  0  0  0
   -3.0050   -1.2150   -0.3510 C   0  0  0  0  0  0  0  0  0  0  0  0
   -3.9280   -2.0810   -0.4340 O   0  0  0  0  0  0  0  0  0  0  0  0
   -3.1070   -0.0280    0.2380 N   0  0  0  0  0  0  0  0  0  0  0  0
   -1.9320    0.5950    0.1200 C   0  0  0  0  0  0  0  0  0  0  0  0
   -1.6920    1.7570    0.5790 O   0  0  0  0  0  0  0  0  0  0  0  0
    2.5790    0.1800   -0.2770 C   0  0  0  0  0  0  0  0  0  0  0  0
    3.2830    0.9680    0.4070 O   0  0  0  0  0  0  0  0  0  0  0  0
    3.1320   -0.2350   -1.4970 O   0  0  0  0  0  0  0  0  0  0  0  0
  2  1  1  1
  2  3  1  0
  2 11  1  0
  3  4  1  0
  4  5  1  0
  4  9  1  0
  5  6  1  0
  6  7  2  0
  6  8  1  0
  8  9  1  0
  9 10  2  0
 11 12  2  0
 11 13  1  0
M  CHG  1   1   1
M  END
