
     RDKit          3D

 13 13  0  0  0  0  0  0  0  0999 V2000
    2.7150   -1.6870   -0.4350 N   0  0  0  0  0  0  0  0  0  0  0  0
    1.5000   -1.0560   -0.7460 C   0  0  0  0  0  0  0  0  0  0  0  0
    0.9800   -1.0860   -1.8910 O   0  0  0  0  0  0  0  0  0  0  0  0
    0.8140   -0.3640    0.2130 O   0  0  0  0  0  0  0  0  0  0  0  0
   -0.3820    0.2990    0.0500 C   0  0  1  0  0  0  0  0  0  0  0  0
   -1.5130   -0.5320   -0.3800 C   0  0  0  0  0  0  0  0  0  0  0  0
   -1.3840   -1.9270   -0.6110 N   0  0  0  0  0  0  0  0  0  0  0  0
   -2.6280    0.0270   -0.5430 O   0  0  0  0  0  0  0  0  0  0  0  0
   -0.7600    0.8710    1.4270 C   0  0  0  0  0  0  0  0  0  0  0  0
    0.0520    2.0260    1.4600 O   0  0  0  0  0  0  0  0  0  0  0  0
    0.1210    2.5040    0.1610 C   0  0  0  0  0  0  0  0  0  0  0  0
    0.5160    3.6480   -0.2200 O   0  0  0  0  0  0  0  0  0  0  0  0
   -0.3270    1.5060   -0.7300 N   0  0  0  0  0  0  0  0  0  0  0  0
  1  2  1  0
  2  3  2  0
  2  4  1  0
  5  4  1  1
  5  6  1  0
  5  9  1  0
  5 13  1  0
  6  7  1  0
  6  8  2  0
  9 10  1  0
 10 11  1  0
 11 12  2  0
 11 13  1  0
M  CHG  1  13   1
M  END
