
     RDKit          3D

 12 12  0  0  0  0  0  0  0  0999 V2000
    2.5780   -1.0850   -0.2860 N   0  0  0  0  0  0  0  0  0  0  0  0
    3.0070    0.1960    0.1100 C   0  0  0  0  0  0  0  0  0  0  0  0
    4.2010    0.5200   -0.0170 O   0  0  0  0  0  0  0  0  0  0  0  0
    2.0370    1.1490    0.6750 C   0  0  0  0  0  0  0  0  0  0  0  0
    0.7290    0.6110    0.7390 O   0  0  0  0  0  0  0  0  0  0  0  0
    0.0640    0.1970   -0.3760 C   0  0  0  0  0  0  0  0  0  0  0  0
    0.6410    0.3020   -1.4970 O   0  0  0  0  0  0  0  0  0  0  0  0
   -1.3020   -0.3750   -0.3900 C   0  0  2  0  0  0  0  0  0  0  0  0
   -2.2540    0.5000   -1.1300 C   0  0  0  0  0  0  0  0  0  0  0  0
   -3.3690    0.3970   -0.5060 N   0  0  0  0  0  0  0  0  0  0  0  0
   -3.2000   -0.4740    0.5710 N   0  0  0  0  0  0  0  0  0  0  0  0
   -1.8750   -0.4630    0.8530 O   0  0  0  0  0  0  0  0  0  0  0  0
  1  2  1  0
  2  3  2  0
  2  4  1  0
  4  5  1  0
  5  6  1  0
  6  7  2  0
  8  6  1  1
  8  9  1  0
  8 12  1  0
  9 10  2  0
 10 11  1  0
 11 12  1  0
M  CHG  1  11   1
M  END
