
     RDKit          3D

 13 12  0  0  0  0  0  0  0  0999 V2000
   -4.9220   -0.6060    0.1520 C   0  0  0  0  0  0  0  0  0  0  0  0
   -3.9110    0.1780    0.7980 N   0  0  0  0  0  0  0  0  0  0  0  0
   -2.6090   -0.1320    0.4080 N   0  0  0  0  0  0  0  0  0  0  0  0
   -1.5830    0.8220    0.1850 C   0  0  0  0  0  0  0  0  0  0  0  0
   -1.8710    2.0400    0.3530 O   0  0  0  0  0  0  0  0  0  0  0  0
   -0.2340    0.4850   -0.2210 C   0  0  0  0  0  0  0  0  0  0  0  0
    0.0350   -0.7520   -0.3890 O   0  0  0  0  0  0  0  0  0  0  0  0
    0.7710    1.3820   -0.4380 O   0  0  0  0  0  0  0  0  0  0  0  0
    2.0860    1.0770   -0.8340 C   0  0  0  0  0  0  0  0  0  0  0  0
    2.7940    0.1920    0.1270 C   0  0  0  0  0  0  0  0  0  0  0  0
    2.3030   -0.2700    1.1610 O   0  0  0  0  0  0  0  0  0  0  0  0
    4.1180   -0.1130   -0.2100 O   0  0  0  0  0  0  0  0  0  0  0  0
    4.9150   -0.9080    0.5580 N   0  0  0  0  0  0  0  0  0  0  0  0
  1  2  1  0
  2  3  1  0
  3  4  1  0
  4  5  2  0
  4  6  1  0
  6  7  2  0
  6  8  1  0
  8  9  1  0
  9 10  1  0
 10 11  2  0
 10 12  1  0
 12 13  1  0
M  CHG  1  13   1
M  END
