
     RDKit          3D

 13 13  0  0  0  0  0  0  0  0999 V2000
   -0.8890    2.3710   -0.5360 N   0  0  0  0  0  0  0  0  0  0  0  0
   -1.3090    1.2310    0.1810 C   0  0  0  0  0  0  0  0  0  0  0  0
   -2.3390    1.2910    0.8730 O   0  0  0  0  0  0  0  0  0  0  0  0
   -0.5390   -0.0210    0.1140 C   0  0  1  0  0  0  0  0  0  0  0  0
    0.8740    0.2760    0.5440 C   0  0  0  0  0  0  0  0  0  0  0  0
    1.6410   -0.9010    0.4700 O   0  0  0  0  0  0  0  0  0  0  0  0
    2.9100   -0.6490    0.8530 N   0  0  0  0  0  0  0  0  0  0  0  0
   -1.1650   -0.9890    0.9100 O   0  0  0  0  0  0  0  0  0  0  0  0
   -2.1380   -1.6130    0.1570 C   0  0  0  0  0  0  0  0  0  0  0  0
   -3.1660   -2.2510    0.5370 O   0  0  0  0  0  0  0  0  0  0  0  0
   -1.7800   -1.4140   -1.2150 N   0  0  0  0  0  0  0  0  0  0  0  0
   -0.5780   -0.6590   -1.2110 C   0  0  0  0  0  0  0  0  0  0  0  0
    0.2510   -0.5670   -2.1360 O   0  0  0  0  0  0  0  0  0  0  0  0
  1  2  1  0
  2  3  2  0
  2  4  1  0
  4  5  1  1
  4  8  1  0
  4 12  1  0
  5  6  1  0
  6  7  1  0
  8  9  1  0
  9 10  2  0
  9 11  1  0
 11 12  1  0
 12 13  2  0
M  CHG  1   7   1
M  END
