
     RDKit          3D

 22 23  0  0  0  0  0  0  0  0999 V2000
    6.2550   -0.5120   -1.9670 C   0  0  0  0  0  0  0  0  0  0  0  0
    5.3170   -0.1090   -1.1480 C   0  0  0  0  0  0  0  0  0  0  0  0
    5.5740    1.1460   -0.4220 C   0  0  0  0  0  0  0  0  0  0  0  0
    4.6350    1.5430    0.3930 C   0  0  0  0  0  0  0  0  0  0  0  0
    3.3750    0.8200    0.6140 C   0  0  0  0  0  0  0  0  0  0  0  0
    3.0560   -0.3010    0.0170 C   0  0  0  0  0  0  0  0  0  0  0  0
    1.8620   -1.0480    0.1830 N   0  0  0  0  0  0  0  0  0  0  0  0
    0.7860   -0.7170    1.0320 C   0  0  0  0  0  0  0  0  0  0  0  0
    0.8340    0.3120    1.7210 O   0  0  0  0  0  0  0  0  0  0  0  0
   -0.3820   -1.5210    1.1440 N   0  0  0  0  0  0  0  0  0  0  0  0
   -1.5170   -1.2320    1.9700 C   0  0  0  0  0  0  0  0  0  0  0  0
   -2.2910   -0.0110    1.7010 C   0  0  1  0  0  0  0  0  0  0  0  0
   -1.5160    1.1230    1.8370 O   0  0  0  0  0  0  0  0  0  0  0  0
   -3.1080   -0.0180    0.4450 C   0  0  2  0  0  0  0  0  0  0  0  0
   -2.3670   -0.1930   -0.8280 C   0  0  0  0  0  0  0  0  0  0  0  0
   -3.4070   -0.5580   -1.9000 C   0  0  0  0  0  0  0  0  0  0  0  0
   -4.6840   -0.1450   -1.5250 O   0  0  0  0  0  0  0  0  0  0  0  0
   -4.6940    1.1380   -1.0070 C   0  0  0  0  0  0  0  0  0  0  0  0
   -3.9620    1.2290    0.3150 C   0  0  1  0  0  0  0  0  0  0  0  0
   -4.8930    1.3060    1.3680 O   0  0  0  0  0  0  0  0  0  0  0  0
    4.0860   -0.8180   -0.9350 C   0  0  0  0  0  0  0  0  0  0  0  0
    3.8100   -1.9070   -1.5330 N   0  0  0  0  0  0  0  0  0  0  0  0
  1  2  2  0
  2  3  1  0
  2 21  1  0
  3  4  2  0
  4  5  1  0
  5  6  2  0
  6  7  1  0
  6 21  1  0
  7  8  1  0
  8  9  2  0
  8 10  1  0
 10 11  1  0
 11 12  1  0
 12 13  1  6
 12 14  1  0
 14 15  1  6
 14 19  1  0
 15 16  1  0
 16 17  1  0
 17 18  1  0
 18 19  1  0
 19 20  1  1
 21 22  2  0
M  END
