
     RDKit          3D

 35 39  0  0  0  0  0  0  0  0999 V2000
   -6.0410   -4.1370    1.6270 C   0  0  0  0  0  0  0  0  0  0  0  0
   -4.8470   -3.4510    1.3910 N   0  0  0  0  0  0  0  0  0  0  0  0
   -4.2080   -2.6000    2.0340 C   0  0  0  0  0  0  0  0  0  0  0  0
   -2.9250   -2.0550    1.4800 C   0  0  1  0  0  0  0  0  0  0  0  0
   -2.8570   -2.5190    0.0440 C   0  0  0  0  0  0  0  0  0  0  0  0
   -3.6810   -3.3340   -0.4460 O   0  0  0  0  0  0  0  0  0  0  0  0
   -1.8270   -1.9940   -0.7270 N   0  0  0  0  0  0  0  0  0  0  0  0
   -0.9810   -0.9400   -0.0730 C   0  0  1  0  0  0  0  0  0  0  0  0
   -0.0520   -0.4630   -1.1230 C   0  0  0  0  0  0  0  0  0  0  0  0
   -0.3790   -0.1440   -2.3980 C   0  0  0  0  0  0  0  0  0  0  0  0
    0.5700    0.2130   -3.3640 C   0  0  0  0  0  0  0  0  0  0  0  0
    1.8860    0.2330   -2.9860 C   0  0  0  0  0  0  0  0  0  0  0  0
    2.2410   -0.1010   -1.6640 C   0  0  0  0  0  0  0  0  0  0  0  0
    1.3010   -0.4470   -0.7300 C   0  0  0  0  0  0  0  0  0  0  0  0
    1.6450   -0.7610    0.5680 O   0  0  0  0  0  0  0  0  0  0  0  0
    2.9090   -0.5180    1.0480 C   0  0  0  0  0  0  0  0  0  0  0  0
    4.0410   -1.2310    0.7440 C   0  0  0  0  0  0  0  0  0  0  0  0
    5.2860   -0.9140    1.2830 C   0  0  0  0  0  0  0  0  0  0  0  0
    5.4190    0.1490    2.1570 C   0  0  0  0  0  0  0  0  0  0  0  0
    6.6410    0.4760    2.6950 O   0  0  0  0  0  0  0  0  0  0  0  0
    7.8410   -0.2080    2.4170 C   0  0  0  0  0  0  0  0  0  0  0  0
    4.2820    0.8980    2.4870 C   0  0  0  0  0  0  0  0  0  0  0  0
    3.0760    0.5690    1.9470 C   0  0  0  0  0  0  0  0  0  0  0  0
    2.7130    0.6290   -4.1360 C   0  0  0  0  0  0  0  0  0  0  0  0
    1.8220    0.4400   -5.3260 C   0  0  0  0  0  0  0  0  0  0  0  0
    0.4080    0.5930   -4.7900 C   0  0  0  0  0  0  0  0  0  0  0  0
   -1.9390    0.0500    0.4660 C   0  0  1  0  0  0  0  0  0  0  0  0
   -1.1330    1.1540    1.2290 C   0  0  0  0  0  0  0  0  0  0  0  0
   -0.8200    2.3120    0.3170 C   0  0  0  0  0  0  0  0  0  0  0  0
   -2.1140    3.0840    0.1250 C   0  0  2  0  0  0  0  0  0  0  0  0
   -2.3040    4.1130    1.2120 C   0  0  0  0  0  0  0  0  0  0  0  0
   -3.2650    2.0820    0.1070 C   0  0  0  0  0  0  0  0  0  0  0  0
   -2.7200    0.7870   -0.5480 C   0  0  0  0  0  0  0  0  0  0  0  0
   -2.8350   -0.5630    1.5340 C   0  0  2  0  0  0  0  0  0  0  0  0
   -2.3300   -0.2410    2.8330 O   0  0  0  0  0  0  0  0  0  0  0  0
  1  2  1  0
  2  3  2  3
  4  3  1  6
  4  5  1  0
  4 34  1  0
  5  6  2  0
  5  7  1  0
  7  8  1  0
  8  9  1  6
  8 27  1  0
  9 10  2  0
  9 14  1  0
 10 11  1  0
 11 12  2  0
 11 26  1  0
 12 13  1  0
 12 24  1  0
 13 14  2  0
 14 15  1  0
 15 16  1  0
 16 17  2  0
 16 23  1  0
 17 18  1  0
 18 19  2  0
 19 20  1  0
 19 22  1  0
 20 21  1  0
 22 23  2  0
 24 25  1  0
 25 26  1  0
 27 28  1  1
 27 33  1  0
 27 34  1  0
 28 29  1  0
 29 30  1  0
 30 31  1  1
 30 32  1  0
 32 33  1  0
 34 35  1  1
M  END
