
     RDKit          3D

 35 39  0  0  0  0  0  0  0  0999 V2000
   -4.4190   -3.7480    2.5950 C   0  0  0  0  0  0  0  0  0  0  0  0
   -3.7090   -3.4490    1.3370 C   0  0  0  0  0  0  0  0  0  0  0  0
   -3.4360   -4.3370    0.5500 O   0  0  0  0  0  0  0  0  0  0  0  0
   -3.3260   -2.0610    1.0290 C   0  0  1  0  0  0  0  0  0  0  0  0
   -2.4000   -1.5220    2.0980 C   0  0  0  0  0  0  0  0  0  0  0  0
   -2.3370   -0.0030    1.8900 C   0  0  0  0  0  0  0  0  0  0  0  0
   -1.8800    0.2230    0.4660 C   0  0  2  0  0  0  0  0  0  0  0  0
   -2.9130    1.0010   -0.3070 C   0  0  0  0  0  0  0  0  0  0  0  0
   -2.8900    2.3670   -0.5670 C   0  0  0  0  0  0  0  0  0  0  0  0
   -4.0200    2.6840   -1.3060 C   0  0  0  0  0  0  0  0  0  0  0  0
   -4.5610    3.8200   -1.8560 C   0  0  0  0  0  0  0  0  0  0  0  0
   -5.7460    3.7860   -2.5580 C   0  0  0  0  0  0  0  0  0  0  0  0
   -6.4240    2.5980   -2.7270 C   0  0  0  0  0  0  0  0  0  0  0  0
   -5.8640    1.4770   -2.1680 C   0  0  0  0  0  0  0  0  0  0  0  0
   -4.6810    1.4910   -1.4630 C   0  0  0  0  0  0  0  0  0  0  0  0
   -3.9950    0.5260   -0.8600 O   0  0  0  0  0  0  0  0  0  0  0  0
   -1.5330   -0.9990   -0.1840 N   0  0  0  0  0  0  0  0  0  0  0  0
   -0.7260   -0.8280   -1.3360 C   0  0  0  0  0  0  0  0  0  0  0  0
    0.5810   -0.2090   -1.1140 C   0  0  0  0  0  0  0  0  0  0  0  0
    1.2630    0.4580   -2.1130 C   0  0  0  0  0  0  0  0  0  0  0  0
    2.5140    1.0230   -1.8320 C   0  0  0  0  0  0  0  0  0  0  0  0
    3.0730    0.9230   -0.5780 C   0  0  0  0  0  0  0  0  0  0  0  0
    2.3850    0.2490    0.4280 C   0  0  0  0  0  0  0  0  0  0  0  0
    1.1630   -0.2960    0.1320 C   0  0  0  0  0  0  0  0  0  0  0  0
    2.9870    0.1440    1.7530 C   0  0  0  0  0  0  0  0  0  0  0  0
    2.2170    0.0800    2.7290 O   0  0  0  0  0  0  0  0  0  0  0  0
    4.4760    0.1180    1.9020 C   0  0  0  0  0  0  0  0  0  0  0  0
    5.1060    0.5340    0.6420 C   0  0  0  0  0  0  0  0  0  0  0  0
    6.2860    0.0470    0.3130 C   0  0  0  0  0  0  0  0  0  0  0  0
    7.0210   -0.8890    1.1280 C   0  0  0  0  0  0  0  0  0  0  0  0
    8.2000   -1.3320    0.7300 C   0  0  0  0  0  0  0  0  0  0  0  0
    8.7350   -0.8850   -0.4960 N   0  0  0  0  0  0  0  0  0  0  0  0
    4.3880    1.5060   -0.2300 C   0  0  1  0  0  0  0  0  0  0  0  0
    5.1020    1.7080   -1.4030 O   0  0  0  0  0  0  0  0  0  0  0  0
   -2.5840   -1.9560   -0.2960 C   0  0  0  0  0  0  0  0  0  0  0  0
  1  2  1  0
  2  3  2  0
  4  2  1  1
  4  5  1  0
  4 35  1  0
  5  6  1  0
  6  7  1  0
  7  8  1  6
  7 17  1  0
  8  9  2  0
  8 16  1  0
  9 10  1  0
 10 11  2  0
 10 15  1  0
 11 12  1  0
 12 13  2  0
 13 14  1  0
 14 15  2  0
 15 16  1  0
 17 18  1  0
 17 35  1  0
 18 19  1  0
 19 20  2  0
 19 24  1  0
 20 21  1  0
 21 22  2  0
 22 23  1  0
 22 33  1  0
 23 24  2  0
 23 25  1  0
 25 26  2  0
 25 27  1  0
 27 28  1  0
 28 29  2  3
 28 33  1  0
 29 30  1  0
 30 31  2  3
 31 32  1  0
 33 34  1  6
M  END
