
     RDKit          3D

 35 39  0  0  0  0  0  0  0  0999 V2000
   -1.4550   -3.3450    2.7020 C   0  0  0  0  0  0  0  0  0  0  0  0
   -2.3380   -2.5870    1.7790 C   0  0  0  0  0  0  0  0  0  0  0  0
   -3.7090   -2.6930    1.7600 C   0  0  0  0  0  0  0  0  0  0  0  0
   -4.1240   -1.8300    0.7680 C   0  0  0  0  0  0  0  0  0  0  0  0
   -5.3850   -1.5320    0.3150 C   0  0  0  0  0  0  0  0  0  0  0  0
   -6.5180   -2.1300    0.8620 O   0  0  0  0  0  0  0  0  0  0  0  0
   -5.5000   -0.6090   -0.7130 C   0  0  0  0  0  0  0  0  0  0  0  0
   -4.3770   -0.0240   -1.2460 C   0  0  0  0  0  0  0  0  0  0  0  0
   -3.1010   -0.3070   -0.8080 C   0  0  0  0  0  0  0  0  0  0  0  0
   -1.8780    0.3110   -1.3760 C   0  0  1  0  0  0  0  0  0  0  0  0
   -2.1590    1.3700   -2.3850 C   0  0  0  0  0  0  0  0  0  0  0  0
   -0.9460    0.7150   -0.3240 N   0  0  0  0  0  0  0  0  0  0  0  0
   -1.3120    1.7490    0.5750 C   0  0  0  0  0  0  0  0  0  0  0  0
   -1.0800    3.1740    0.1130 C   0  0  1  0  0  0  0  0  0  0  0  0
   -1.5070    4.0310    1.2200 C   0  0  0  0  0  0  0  0  0  0  0  0
   -0.8410    4.9930    1.7130 N   0  0  0  0  0  0  0  0  0  0  0  0
    0.4430    5.2830    1.1460 C   0  0  0  0  0  0  0  0  0  0  0  0
    0.9310    4.5990    0.1550 C   0  0  0  0  0  0  0  0  0  0  0  0
    0.2160    3.4860   -0.4660 C   0  0  0  0  0  0  0  0  0  0  0  0
    0.3380    0.0960   -0.2030 C   0  0  0  0  0  0  0  0  0  0  0  0
    1.1090    0.4010    0.7150 O   0  0  0  0  0  0  0  0  0  0  0  0
    0.7230   -0.9110   -1.1930 C   0  0  0  0  0  0  0  0  0  0  0  0
    2.0860   -1.4980   -1.0010 C   0  0  2  0  0  0  0  0  0  0  0  0
    2.2680   -2.4310   -2.0400 O   0  0  0  0  0  0  0  0  0  0  0  0
    2.2990   -2.2300    0.2810 C   0  0  0  0  0  0  0  0  0  0  0  0
    3.8260   -2.3500    0.3010 C   0  0  2  0  0  0  0  0  0  0  0  0
    4.3390   -2.5620    1.6960 C   0  0  0  0  0  0  0  0  0  0  0  0
    4.2160   -1.0320   -0.2580 C   0  0  0  0  0  0  0  0  0  0  0  0
    5.3760   -0.3030   -0.1220 C   0  0  0  0  0  0  0  0  0  0  0  0
    5.4850    0.9240   -0.7640 C   0  0  0  0  0  0  0  0  0  0  0  0
    4.4720    1.4330   -1.5290 C   0  0  0  0  0  0  0  0  0  0  0  0
    3.3100    0.6870   -1.6560 C   0  0  0  0  0  0  0  0  0  0  0  0
    3.1800   -0.5260   -1.0330 C   0  0  0  0  0  0  0  0  0  0  0  0
   -3.0100   -1.2320    0.2200 C   0  0  0  0  0  0  0  0  0  0  0  0
   -1.9790   -1.7270    0.8670 O   0  0  0  0  0  0  0  0  0  0  0  0
  1  2  1  0
  2  3  2  0
  2 35  1  0
  3  4  1  0
  4  5  2  0
  4 34  1  0
  5  6  1  0
  5  7  1  0
  7  8  2  0
  8  9  1  0
  9 10  1  0
  9 34  2  0
 10 11  1  1
 10 12  1  0
 12 13  1  0
 12 20  1  0
 14 13  1  1
 14 15  1  0
 14 19  1  0
 15 16  2  0
 16 17  1  0
 17 18  2  0
 18 19  1  0
 20 21  2  0
 20 22  1  0
 22 23  1  0
 23 24  1  6
 23 25  1  0
 23 33  1  0
 25 26  1  0
 26 27  1  1
 26 28  1  0
 28 29  2  0
 28 33  1  0
 29 30  1  0
 30 31  2  0
 31 32  1  0
 32 33  2  0
 34 35  1  0
M  END
