
     RDKit          3D

 35 40  0  0  0  0  0  0  0  0999 V2000
   -5.7380    3.7290    1.4150 C   0  0  0  0  0  0  0  0  0  0  0  0
   -4.9080    2.5700    0.9750 C   0  0  0  0  0  0  0  0  0  0  0  0
   -5.2220    1.2990    1.7130 C   0  0  1  0  0  0  0  0  0  0  0  0
   -6.6130    0.8090    1.5850 C   0  0  0  0  0  0  0  0  0  0  0  0
   -6.8040   -0.3520    0.6500 C   0  0  0  0  0  0  0  0  0  0  0  0
   -5.8520   -0.3730   -0.5060 C   0  0  0  0  0  0  0  0  0  0  0  0
   -4.4170   -0.1500   -0.1090 C   0  0  2  0  0  0  0  0  0  0  0  0
   -3.5510   -1.2580   -0.4600 N   0  0  0  0  0  0  0  0  0  0  0  0
   -3.7460   -2.5880    0.1310 C   0  0  0  0  0  0  0  0  0  0  0  0
   -2.4050   -3.2020    0.4260 C   0  0  0  0  0  0  0  0  0  0  0  0
   -1.6900   -3.4040   -0.8890 C   0  0  0  0  0  0  0  0  0  0  0  0
   -1.3720   -2.0770   -1.5340 C   0  0  2  0  0  0  0  0  0  0  0  0
   -0.1640   -1.5990   -1.0090 O   0  0  0  0  0  0  0  0  0  0  0  0
    0.9370   -1.3990   -1.7950 C   0  0  0  0  0  0  0  0  0  0  0  0
    0.8490   -1.6540   -3.0170 O   0  0  0  0  0  0  0  0  0  0  0  0
    2.1910   -0.9010   -1.2440 C   0  0  0  0  0  0  0  0  0  0  0  0
    2.3340   -0.6110    0.0850 C   0  0  0  0  0  0  0  0  0  0  0  0
    3.5300   -0.1390    0.5940 C   0  0  0  0  0  0  0  0  0  0  0  0
    4.6070    0.0430   -0.2690 C   0  0  0  0  0  0  0  0  0  0  0  0
    5.9020    0.4900   -0.0620 C   0  0  0  0  0  0  0  0  0  0  0  0
    6.5540    0.4750   -1.2630 C   0  0  0  0  0  0  0  0  0  0  0  0
    5.6920    0.0320   -2.1920 N   0  0  0  0  0  0  0  0  0  0  0  0
    4.4920   -0.2420   -1.6150 C   0  0  0  0  0  0  0  0  0  0  0  0
    3.2840   -0.7070   -2.0650 C   0  0  0  0  0  0  0  0  0  0  0  0
    7.9080    0.9480   -1.0200 C   0  0  0  0  0  0  0  0  0  0  0  0
    8.9600    1.1160   -1.9180 C   0  0  0  0  0  0  0  0  0  0  0  0
   10.1720    1.5890   -1.4320 C   0  0  0  0  0  0  0  0  0  0  0  0
   10.3380    1.8890   -0.0910 C   0  0  0  0  0  0  0  0  0  0  0  0
    9.2990    1.7240    0.8010 C   0  0  0  0  0  0  0  0  0  0  0  0
    8.0870    1.2510    0.3140 C   0  0  0  0  0  0  0  0  0  0  0  0
    6.8110    0.9660    0.9610 C   0  0  0  0  0  0  0  0  0  0  0  0
    6.5380    1.1040    2.1790 O   0  0  0  0  0  0  0  0  0  0  0  0
   -2.4830   -1.1050   -1.3850 C   0  0  0  0  0  0  0  0  0  0  0  0
   -2.4660   -0.0900   -2.1270 O   0  0  0  0  0  0  0  0  0  0  0  0
   -4.2690    0.1920    1.3530 C   0  0  0  0  0  0  0  0  0  0  0  0
  1  2  1  0
  3  2  1  6
  3  4  1  0
  3 35  1  0
  4  5  1  0
  5  6  1  0
  6  7  1  0
  7  8  1  1
  7 35  1  0
  8  9  1  0
  8 33  1  0
  9 10  1  0
 10 11  1  0
 11 12  1  0
 12 13  1  1
 12 33  1  0
 13 14  1  0
 14 15  2  0
 14 16  1  0
 16 17  2  0
 16 24  1  0
 17 18  1  0
 18 19  2  0
 19 20  1  0
 19 23  1  0
 20 21  2  0
 20 31  1  0
 21 22  1  0
 21 25  1  0
 22 23  1  0
 23 24  2  0
 25 26  2  0
 25 30  1  0
 26 27  1  0
 27 28  2  0
 28 29  1  0
 29 30  2  0
 30 31  1  0
 31 32  2  0
 33 34  2  0
M  END
