
     RDKit          3D

 34 38  0  0  0  0  0  0  0  0999 V2000
    7.2670    2.9010    0.7930 C   0  0  0  0  0  0  0  0  0  0  0  0
    5.8670    2.4200    0.7060 C   0  0  0  0  0  0  0  0  0  0  0  0
    5.6320    1.2330    0.1700 C   0  0  0  0  0  0  0  0  0  0  0  0
    6.7710    0.4610   -0.3090 C   0  0  0  0  0  0  0  0  0  0  0  0
    6.8050   -0.8170   -0.6890 C   0  0  0  0  0  0  0  0  0  0  0  0
    5.7610   -1.8350   -0.7520 C   0  0  0  0  0  0  0  0  0  0  0  0
    6.2130   -3.2260   -1.0970 C   0  0  0  0  0  0  0  0  0  0  0  0
    4.4720   -1.6540   -0.5380 C   0  0  0  0  0  0  0  0  0  0  0  0
    3.7420   -0.4440   -0.1910 C   0  0  0  0  0  0  0  0  0  0  0  0
    4.2250    0.8330    0.1230 C   0  0  0  0  0  0  0  0  0  0  0  0
    3.4180    1.8550    0.4240 N   0  0  0  0  0  0  0  0  0  0  0  0
    2.0880    1.6320    0.4200 C   0  0  0  0  0  0  0  0  0  0  0  0
    1.1800    2.6490    0.7240 C   0  0  0  0  0  0  0  0  0  0  0  0
   -0.1820    2.3980    0.7150 C   0  0  0  0  0  0  0  0  0  0  0  0
   -0.6820    1.1500    0.4090 C   0  0  0  0  0  0  0  0  0  0  0  0
   -2.1020    0.8490    0.3890 C   0  0  0  0  0  0  0  0  0  0  0  0
   -2.5250   -0.3230    0.0990 N   0  0  0  0  0  0  0  0  0  0  0  0
   -3.8660   -0.7460    0.0440 C   0  0  0  0  0  0  0  0  0  0  0  0
   -4.9500   -0.1560   -0.5680 C   0  0  0  0  0  0  0  0  0  0  0  0
   -6.0520   -0.9620   -0.3410 C   0  0  0  0  0  0  0  0  0  0  0  0
   -5.5800   -1.9820    0.3870 N   0  0  0  0  0  0  0  0  0  0  0  0
   -4.2970   -1.8730    0.6230 N   0  0  0  0  0  0  0  0  0  0  0  0
   -3.4990   -2.8420    1.3960 C   0  0  0  0  0  0  0  0  0  0  0  0
   -2.9440   -3.9010    0.4450 C   0  0  0  0  0  0  0  0  0  0  0  0
   -7.2720   -0.4080   -0.9630 C   0  0  0  0  0  0  0  0  0  0  0  0
   -6.7840    0.7470   -1.7800 C   0  0  0  0  0  0  0  0  0  0  0  0
   -5.3610    1.0190   -1.3790 C   0  0  1  0  0  0  0  0  0  0  0  0
   -5.3400    2.2930   -0.6230 C   0  0  0  0  0  0  0  0  0  0  0  0
   -5.5780    2.4360    0.6640 C   0  0  0  0  0  0  0  0  0  0  0  0
   -5.9730    1.1200    1.7440 Cl  0  0  0  0  0  0  0  0  0  0  0  0
    0.2660    0.1730    0.1140 C   0  0  0  0  0  0  0  0  0  0  0  0
    1.5860    0.4170    0.1230 N   0  0  0  0  0  0  0  0  0  0  0  0
    2.3890   -0.6320   -0.1850 C   0  0  0  0  0  0  0  0  0  0  0  0
    1.8920   -1.7660   -0.4620 O   0  0  0  0  0  0  0  0  0  0  0  0
  1  2  1  0
  2  3  2  3
  3  4  1  0
  3 10  1  0
  4  5  2  0
  5  6  1  0
  6  7  1  0
  6  8  2  0
  8  9  1  0
  9 10  2  0
  9 33  1  0
 10 11  1  0
 11 12  2  0
 12 13  1  0
 12 32  1  0
 13 14  2  0
 14 15  1  0
 15 16  1  0
 15 31  2  0
 16 17  2  3
 17 18  1  0
 18 19  2  0
 18 22  1  0
 19 20  1  0
 19 27  1  0
 20 21  2  0
 20 25  1  0
 21 22  1  0
 22 23  1  0
 23 24  1  0
 25 26  1  0
 26 27  1  0
 27 28  1  1
 28 29  2  3
 29 30  1  0
 31 32  1  0
 32 33  1  0
 33 34  2  0
M  END
