
     RDKit          3D

 34 38  0  0  0  0  0  0  0  0999 V2000
   -1.7170    0.2310   -2.7390 C   0  0  0  0  0  0  0  0  0  0  0  0
   -1.1800    0.5080   -1.3240 C   0  0  1  0  0  0  0  0  0  0  0  0
   -1.8340   -0.4480   -0.4430 C   0  0  0  0  0  0  0  0  0  0  0  0
   -1.1070   -1.4630   -0.1260 O   0  0  0  0  0  0  0  0  0  0  0  0
   -3.1260   -0.4250    0.1060 N   0  0  0  0  0  0  0  0  0  0  0  0
   -4.1110    0.4750   -0.0500 C   0  0  0  0  0  0  0  0  0  0  0  0
   -4.2330    1.6350   -0.7730 C   0  0  0  0  0  0  0  0  0  0  0  0
   -5.3690    2.4360   -0.7980 C   0  0  0  0  0  0  0  0  0  0  0  0
   -6.4330    2.0230   -0.0410 C   0  0  0  0  0  0  0  0  0  0  0  0
   -6.3910    0.8880    0.7010 C   0  0  0  0  0  0  0  0  0  0  0  0
   -5.2360    0.1220    0.6940 C   0  0  0  0  0  0  0  0  0  0  0  0
   -4.8990   -1.0520    1.3250 C   0  0  0  0  0  0  0  0  0  0  0  0
   -5.6500   -1.8240    2.1800 C   0  0  0  0  0  0  0  0  0  0  0  0
   -5.1130   -2.9840    2.7140 C   0  0  0  0  0  0  0  0  0  0  0  0
   -3.8290   -3.3370    2.3700 C   0  0  0  0  0  0  0  0  0  0  0  0
   -3.0880   -2.5460    1.5060 C   0  0  0  0  0  0  0  0  0  0  0  0
   -3.6120   -1.3750    0.9590 C   0  0  0  0  0  0  0  0  0  0  0  0
    0.2570    0.2850   -1.4670 N   0  0  0  0  0  0  0  0  0  0  0  0
    0.7910    1.2100   -2.4700 C   0  0  0  0  0  0  0  0  0  0  0  0
    0.9590    0.4660   -0.2140 C   0  0  0  0  0  0  0  0  0  0  0  0
    2.3920    0.1820   -0.4780 C   0  0  0  0  0  0  0  0  0  0  0  0
    2.8550   -0.1750   -1.6820 N   0  0  0  0  0  0  0  0  0  0  0  0
    4.1080   -0.4310   -1.9250 N   0  0  0  0  0  0  0  0  0  0  0  0
    5.0520   -0.3450   -0.9280 C   0  0  0  0  0  0  0  0  0  0  0  0
    6.2340   -0.5970   -1.2110 N   0  0  0  0  0  0  0  0  0  0  0  0
    7.4830   -0.6740   -0.7090 C   0  0  0  0  0  0  0  0  0  0  0  0
    8.4350    0.2480   -0.8690 C   0  0  0  0  0  0  0  0  0  0  0  0
    8.1670    1.7110   -1.7760 Cl  0  0  0  0  0  0  0  0  0  0  0  0
    4.6610    0.0160    0.3430 C   0  0  0  0  0  0  0  0  0  0  0  0
    5.5150    0.1290    1.4030 C   0  0  0  0  0  0  0  0  0  0  0  0
    5.0030    0.5010    2.6440 C   0  0  0  0  0  0  0  0  0  0  0  0
    3.6810    0.7590    2.8520 C   0  0  0  0  0  0  0  0  0  0  0  0
    2.8070    0.6500    1.7950 C   0  0  0  0  0  0  0  0  0  0  0  0
    3.3050    0.2830    0.5640 C   0  0  0  0  0  0  0  0  0  0  0  0
  2  1  1  6
  2  3  1  0
  2 18  1  0
  3  4  2  0
  3  5  1  0
  5  6  1  0
  5 17  1  0
  6  7  2  0
  6 11  1  0
  7  8  1  0
  8  9  2  0
  9 10  1  0
 10 11  2  0
 11 12  1  0
 12 13  2  0
 12 17  1  0
 13 14  1  0
 14 15  2  0
 15 16  1  0
 16 17  2  0
 18 19  1  0
 18 20  1  0
 20 21  1  0
 21 22  2  0
 21 34  1  0
 22 23  1  0
 23 24  1  0
 24 25  2  3
 24 29  1  0
 25 26  1  0
 26 27  2  3
 27 28  1  0
 29 30  2  0
 29 34  1  0
 30 31  1  0
 31 32  2  0
 32 33  1  0
 33 34  2  0
M  END
