
     RDKit          3D

 45 51  0  0  0  0  0  0  0  0999 V2000
   -2.0950    0.6500    0.1980 O   0  0  0  0  0  0  0  0  0  0  0  0
   -2.2020   -0.1930    1.0980 C   0  0  0  0  0  0  0  0  0  0  0  0
   -3.2130   -1.2250    1.0490 C   0  0  0  0  0  0  0  0  0  0  0  0
   -3.2550   -2.1200    2.0960 C   0  0  0  0  0  0  0  0  0  0  0  0
   -4.3080   -2.9760    1.7840 C   0  0  0  0  0  0  0  0  0  0  0  0
   -4.7700   -4.1150    2.5850 C   0  0  1  0  0  0  0  0  0  0  0  0
   -5.1830   -3.7090    3.8530 F   0  0  0  0  0  0  0  0  0  0  0  0
   -5.8120   -4.7570    1.9440 F   0  0  0  0  0  0  0  0  0  0  0  0
   -3.7220   -5.0320    2.6970 F   0  0  0  0  0  0  0  0  0  0  0  0
   -4.8150   -2.5710    0.6270 N   0  0  0  0  0  0  0  0  0  0  0  0
   -4.1680   -1.5000    0.1480 N   0  0  0  0  0  0  0  0  0  0  0  0
   -4.4630   -0.8210   -1.0680 C   0  0  0  0  0  0  0  0  0  0  0  0
   -3.5530   -0.7230   -2.0980 C   0  0  0  0  0  0  0  0  0  0  0  0
   -3.9110   -0.0540   -3.2500 C   0  0  0  0  0  0  0  0  0  0  0  0
   -5.1580    0.5150   -3.3830 C   0  0  0  0  0  0  0  0  0  0  0  0
   -6.1020    0.4400   -2.3730 C   0  0  0  0  0  0  0  0  0  0  0  0
   -7.4110    1.0290   -2.5040 C   0  0  0  0  0  0  0  0  0  0  0  0
   -8.3900    1.0210   -1.5930 N   0  0  0  0  0  0  0  0  0  0  0  0
   -9.4520    1.6570   -2.0550 N   0  0  0  0  0  0  0  0  0  0  0  0
   -9.1700    2.0940   -3.2900 C   0  0  0  0  0  0  0  0  0  0  0  0
   -9.9480    2.7520   -4.0590 O   0  0  0  0  0  0  0  0  0  0  0  0
   -7.8910    1.6950   -3.5600 N   0  0  0  0  0  0  0  0  0  0  0  0
   -5.7030   -0.2440   -1.2250 C   0  0  0  0  0  0  0  0  0  0  0  0
   -2.3200   -2.0710    3.2390 C   0  0  0  0  0  0  0  0  0  0  0  0
   -1.8710   -0.6580    3.4840 C   0  0  0  0  0  0  0  0  0  0  0  0
   -1.3220   -0.1620    2.2120 N   0  0  0  0  0  0  0  0  0  0  0  0
    0.0120    0.3190    2.1050 C   0  0  0  0  0  0  0  0  0  0  0  0
    0.3460    1.6480    1.9620 C   0  0  0  0  0  0  0  0  0  0  0  0
    1.6660    2.0450    1.8640 C   0  0  0  0  0  0  0  0  0  0  0  0
    2.7270    1.1310    1.9030 C   0  0  0  0  0  0  0  0  0  0  0  0
    4.0870    1.6410    1.8250 C   0  0  0  0  0  0  0  0  0  0  0  0
    4.6020    2.4440    2.8210 C   0  0  0  0  0  0  0  0  0  0  0  0
    5.9010    2.9070    2.7740 C   0  0  0  0  0  0  0  0  0  0  0  0
    6.7450    2.5900    1.7320 C   0  0  0  0  0  0  0  0  0  0  0  0
    6.2340    1.7830    0.7260 C   0  0  0  0  0  0  0  0  0  0  0  0
    4.9320    1.3170    0.7690 C   0  0  0  0  0  0  0  0  0  0  0  0
    4.3640    0.4950   -0.3010 C   0  0  0  0  0  0  0  0  0  0  0  0
    5.3230    0.2440   -1.3290 N   0  0  2  0  0  0  0  0  0  0  0  0
    4.6360   -0.2410   -2.5600 C   0  0  0  0  0  0  0  0  0  0  0  0
    5.8660   -0.4630   -3.4420 C   0  0  0  0  0  0  0  0  0  0  0  0
    6.8380   -1.0700   -2.4400 C   0  0  1  0  0  0  0  0  0  0  0  0
    8.0500   -0.3810   -2.4180 O   0  0  0  0  0  0  0  0  0  0  0  0
    6.1670   -0.8860   -1.0760 C   0  0  0  0  0  0  0  0  0  0  0  0
    2.3810   -0.1900    2.0470 C   0  0  0  0  0  0  0  0  0  0  0  0
    1.0430   -0.5940    2.1460 C   0  0  0  0  0  0  0  0  0  0  0  0
  1  2  2  0
  2  3  1  0
  2 26  1  0
  3  4  2  0
  3 11  1  0
  4  5  1  0
  4 24  1  0
  5  6  1  0
  5 10  2  0
  6  7  1  1
  6  8  1  0
  6  9  1  0
 10 11  1  0
 11 12  1  0
 12 13  2  0
 12 23  1  0
 13 14  1  0
 14 15  2  0
 15 16  1  0
 16 17  1  0
 16 23  2  0
 17 18  2  0
 17 22  1  0
 18 19  1  0
 19 20  1  0
 20 21  2  0
 20 22  1  0
 24 25  1  0
 25 26  1  0
 26 27  1  0
 27 28  2  0
 27 45  1  0
 28 29  1  0
 29 30  2  0
 30 31  1  0
 30 44  1  0
 31 32  2  0
 31 36  1  0
 32 33  1  0
 33 34  2  0
 34 35  1  0
 35 36  2  0
 36 37  1  0
 38 37  1  1
 38 39  1  0
 38 43  1  0
 39 40  1  0
 40 41  1  0
 41 42  1  1
 41 43  1  0
 44 45  2  0
M  CHG  1  38   1
M  END
