
     RDKit          3D

 45 49  0  0  0  0  0  0  0  0999 V2000
   10.6640   -1.3890   -1.8360 C   0  0  0  0  0  0  0  0  0  0  0  0
    9.8150   -0.5790   -0.8900 C   0  0  1  0  0  0  0  0  0  0  0  0
    8.3280   -1.0480   -0.9730 C   0  0  0  0  0  0  0  0  0  0  0  0
    7.6010   -0.0920   -0.2040 N   0  0  0  0  0  0  0  0  0  0  0  0
    6.2240    0.0960   -0.2490 C   0  0  0  0  0  0  0  0  0  0  0  0
    5.7800    1.0520    0.5220 O   0  0  0  0  0  0  0  0  0  0  0  0
    5.2020   -0.5810   -1.0020 C   0  0  0  0  0  0  0  0  0  0  0  0
    5.3920   -1.7150   -1.7700 C   0  0  0  0  0  0  0  0  0  0  0  0
    4.3250   -2.2340   -2.4770 C   0  0  0  0  0  0  0  0  0  0  0  0
    3.0650   -1.6740   -2.4560 C   0  0  0  0  0  0  0  0  0  0  0  0
    2.8430   -0.5470   -1.7020 C   0  0  0  0  0  0  0  0  0  0  0  0
    1.5340    0.0810   -1.6570 C   0  0  0  0  0  0  0  0  0  0  0  0
    0.7050    0.0430   -2.7560 C   0  0  0  0  0  0  0  0  0  0  0  0
   -0.5600    0.6480   -2.7290 C   0  0  0  0  0  0  0  0  0  0  0  0
   -1.0300    1.3000   -1.6160 C   0  0  0  0  0  0  0  0  0  0  0  0
   -2.3460    1.9370   -1.4940 C   0  0  1  0  0  0  0  0  0  0  0  0
   -2.2250    3.3130   -1.3870 O   0  0  0  0  0  0  0  0  0  0  0  0
   -3.3760    1.5530   -2.4940 C   0  0  0  0  0  0  0  0  0  0  0  0
   -3.7650    0.1000   -2.4820 C   0  0  0  0  0  0  0  0  0  0  0  0
   -4.3160   -0.3570   -1.2340 N   0  0  0  0  0  0  0  0  0  0  0  0
   -3.5300   -0.8590   -0.1340 C   0  0  0  0  0  0  0  0  0  0  0  0
   -2.4150   -1.4500   -0.2110 O   0  0  0  0  0  0  0  0  0  0  0  0
   -4.2590   -0.5560    1.0420 N   0  0  0  0  0  0  0  0  0  0  0  0
   -3.8690   -0.7710    2.4230 C   0  0  0  0  0  0  0  0  0  0  0  0
   -5.5550    0.0410    0.6420 C   0  0  0  0  0  0  0  0  0  0  0  0
   -5.6980   -0.4800   -0.7620 C   0  0  1  0  0  0  0  0  0  0  0  0
   -6.6600    0.2120   -1.6410 C   0  0  0  0  0  0  0  0  0  0  0  0
   -8.1040    0.1390   -1.2730 C   0  0  0  0  0  0  0  0  0  0  0  0
   -8.4890    0.7160   -0.0270 N   0  0  0  0  0  0  0  0  0  0  0  0
   -9.1640   -0.2590    0.8320 C   0  0  2  0  0  0  0  0  0  0  0  0
  -10.5020   -0.6420    0.2290 C   0  0  0  0  0  0  0  0  0  0  0  0
  -11.3140    0.6070    0.3500 C   0  0  0  0  0  0  0  0  0  0  0  0
  -10.7580    1.3220    1.5610 C   0  0  0  0  0  0  0  0  0  0  0  0
   -9.6090    0.4810    2.0760 C   0  0  1  0  0  0  0  0  0  0  0  0
  -10.0950   -0.5080    3.1070 C   0  0  0  0  0  0  0  0  0  0  0  0
   -0.1780    1.3340   -0.5020 C   0  0  0  0  0  0  0  0  0  0  0  0
    1.0610    0.7360   -0.5430 C   0  0  0  0  0  0  0  0  0  0  0  0
    3.9050   -0.0370   -1.0030 C   0  0  0  0  0  0  0  0  0  0  0  0
    8.3980    0.7460    0.7140 C   0  0  0  0  0  0  0  0  0  0  0  0
    9.3000   -0.1810    1.5180 C   0  0  2  0  0  0  0  0  0  0  0  0
    8.3830   -1.2280    2.1160 C   0  0  0  0  0  0  0  0  0  0  0  0
    9.9790    0.5260    2.6400 C   0  0  0  0  0  0  0  0  0  0  0  0
   10.8200    1.6180    2.2510 N   0  0  0  0  0  0  0  0  0  0  0  0
   10.2410   -0.8230    0.5370 C   0  0  2  0  0  0  0  0  0  0  0  0
   11.5680   -0.4500    0.7490 O   0  0  0  0  0  0  0  0  0  0  0  0
  2  1  1  6
  2  3  1  0
  2 44  1  0
  3  4  1  0
  4  5  1  0
  4 39  1  0
  5  6  2  0
  5  7  1  0
  7  8  2  0
  7 38  1  0
  8  9  1  0
  9 10  2  0
 10 11  1  0
 11 12  1  0
 11 38  2  0
 12 13  2  0
 12 37  1  0
 13 14  1  0
 14 15  2  0
 15 16  1  0
 15 36  1  0
 16 17  1  6
 16 18  1  0
 18 19  1  0
 19 20  1  0
 20 21  1  0
 20 26  1  0
 21 22  2  0
 21 23  1  0
 23 24  1  0
 23 25  1  0
 25 26  1  0
 26 27  1  6
 27 28  1  0
 28 29  1  0
 30 29  1  6
 30 31  1  0
 30 34  1  0
 31 32  1  0
 32 33  1  0
 33 34  1  0
 34 35  1  1
 36 37  2  0
 39 40  1  0
 40 41  1  1
 40 42  1  0
 40 44  1  0
 42 43  1  0
 44 45  1  6
M  CHG  2  29   1  43   1
M  END
