
     RDKit          3D

 45 49  0  0  0  0  0  0  0  0999 V2000
    2.2700   -0.5500    2.3030 C   0  0  0  0  0  0  0  0  0  0  0  0
    2.5090    0.8530    1.7630 C   0  0  0  0  0  0  0  0  0  0  0  0
    3.0570    0.7880    0.3700 C   0  0  1  0  0  0  0  0  0  0  0  0
    4.3210    0.0620    0.4250 C   0  0  0  0  0  0  0  0  0  0  0  0
    5.4990    0.7470    0.6350 C   0  0  0  0  0  0  0  0  0  0  0  0
    6.7390    0.1160    0.6900 C   0  0  0  0  0  0  0  0  0  0  0  0
    6.7940   -1.2550    0.5290 C   0  0  0  0  0  0  0  0  0  0  0  0
    7.7780   -2.1720    0.5190 N   0  0  0  0  0  0  0  0  0  0  0  0
    7.2940   -3.4090    0.3140 C   0  0  0  0  0  0  0  0  0  0  0  0
    5.9260   -3.3140    0.1820 C   0  0  0  0  0  0  0  0  0  0  0  0
    4.9220   -4.3820   -0.0610 C   0  0  0  0  0  0  0  0  0  0  0  0
    5.6180   -1.9780    0.3150 C   0  0  0  0  0  0  0  0  0  0  0  0
    4.4140   -1.2920    0.2700 C   0  0  0  0  0  0  0  0  0  0  0  0
    2.1540    0.3810   -0.6590 N   0  0  1  0  0  0  0  0  0  0  0  0
    0.9390    1.1460   -0.7900 C   0  0  0  0  0  0  0  0  0  0  0  0
   -0.2360    0.5490   -0.0780 C   0  0  0  0  0  0  0  0  0  0  0  0
   -1.4860    1.3900   -0.2730 C   0  0  1  0  0  0  0  0  0  0  0  0
   -2.6270    0.7910    0.4450 C   0  0  0  0  0  0  0  0  0  0  0  0
   -3.2120    1.4670    1.3230 O   0  0  0  0  0  0  0  0  0  0  0  0
   -3.0290   -0.5340    0.1220 N   0  0  0  0  0  0  0  0  0  0  0  0
   -4.1410   -1.1290    0.8100 C   0  0  2  0  0  0  0  0  0  0  0  0
   -3.7040   -2.1960    1.7880 C   0  0  0  0  0  0  0  0  0  0  0  0
   -3.8430   -3.5920    1.3080 C   0  0  0  0  0  0  0  0  0  0  0  0
   -3.3360   -3.8880   -0.0580 C   0  0  0  0  0  0  0  0  0  0  0  0
   -4.3780   -3.7210   -1.0670 N   0  0  0  0  0  0  0  0  0  0  0  0
   -4.7030   -2.3470   -1.3180 C   0  0  0  0  0  0  0  0  0  0  0  0
   -5.2050   -1.6530   -0.0790 C   0  0  2  0  0  0  0  0  0  0  0  0
   -6.2080   -0.5590   -0.4710 C   0  0  2  0  0  0  0  0  0  0  0  0
   -7.2800   -1.1410   -1.3780 C   0  0  0  0  0  0  0  0  0  0  0  0
   -5.5140    0.6050   -1.1190 C   0  0  0  0  0  0  0  0  0  0  0  0
   -1.2170    2.7340    0.2920 C   0  0  0  0  0  0  0  0  0  0  0  0
   -0.9440    2.9310    1.6290 C   0  0  0  0  0  0  0  0  0  0  0  0
   -0.7050    4.2030    2.1070 C   0  0  0  0  0  0  0  0  0  0  0  0
   -0.7210    5.3170    1.3150 C   0  0  0  0  0  0  0  0  0  0  0  0
   -0.4870    6.6130    1.7550 O   0  0  0  0  0  0  0  0  0  0  0  0
   -0.2080    6.8270    3.1250 C   0  0  0  0  0  0  0  0  0  0  0  0
   -0.9950    5.1340   -0.0390 C   0  0  0  0  0  0  0  0  0  0  0  0
   -1.2350    3.8710   -0.5260 C   0  0  0  0  0  0  0  0  0  0  0  0
    2.8680    0.4120   -1.8940 C   0  0  2  0  0  0  0  0  0  0  0  0
    2.9870    1.7250   -2.5800 C   0  0  0  0  0  0  0  0  0  0  0  0
    3.7470    1.2510   -3.8050 C   0  0  0  0  0  0  0  0  0  0  0  0
    4.7160    1.8010   -4.3670 O   0  0  0  0  0  0  0  0  0  0  0  0
    3.0590    0.0280   -4.1280 N   0  0  0  0  0  0  0  0  0  0  0  0
    2.3300   -0.4130   -2.9820 C   0  0  0  0  0  0  0  0  0  0  0  0
    1.4590   -1.3110   -3.0440 O   0  0  0  0  0  0  0  0  0  0  0  0
  1  2  1  0
  3  2  1  1
  3  4  1  0
  3 14  1  0
  4  5  2  0
  4 13  1  0
  5  6  1  0
  6  7  2  0
  7  8  1  0
  7 12  1  0
  8  9  1  0
  9 10  2  0
 10 11  1  0
 10 12  1  0
 12 13  2  0
 14 15  1  6
 14 39  1  0
 15 16  1  0
 17 16  1  1
 17 18  1  0
 17 31  1  0
 18 19  2  0
 18 20  1  0
 21 20  1  6
 21 22  1  0
 21 27  1  0
 22 23  1  0
 23 24  1  0
 24 25  1  0
 25 26  1  0
 27 26  1  6
 27 28  1  0
 28 29  1  6
 28 30  1  0
 31 32  2  0
 31 38  1  0
 32 33  1  0
 33 34  2  0
 34 35  1  0
 34 37  1  0
 35 36  1  0
 37 38  2  0
 39 40  1  6
 39 44  1  0
 40 41  1  0
 41 42  2  0
 41 43  1  0
 43 44  1  0
 44 45  2  0
M  CHG  2  14   1  25   1
M  END
