
     RDKit          3D

 45 49  0  0  0  0  0  0  0  0999 V2000
   -5.5990   -5.1310    0.8500 C   0  0  0  0  0  0  0  0  0  0  0  0
   -5.1340   -3.9390    0.0620 C   0  0  0  0  0  0  0  0  0  0  0  0
   -4.1310   -3.1270    0.5820 C   0  0  0  0  0  0  0  0  0  0  0  0
   -3.6890   -2.0220   -0.1290 C   0  0  0  0  0  0  0  0  0  0  0  0
   -4.2790   -1.7800   -1.3430 C   0  0  0  0  0  0  0  0  0  0  0  0
   -5.2690   -2.5730   -1.8640 C   0  0  0  0  0  0  0  0  0  0  0  0
   -5.8980   -2.3720   -3.0770 O   0  0  0  0  0  0  0  0  0  0  0  0
   -5.7240   -3.6930   -1.1530 C   0  0  0  0  0  0  0  0  0  0  0  0
   -6.8000   -4.5690   -1.6970 C   0  0  0  0  0  0  0  0  0  0  0  0
   -3.7630   -0.5970   -2.1370 C   0  0  0  0  0  0  0  0  0  0  0  0
   -2.2540   -0.6580   -1.9410 C   0  0  0  0  0  0  0  0  0  0  0  0
   -1.9490   -0.3830   -0.5080 N   0  0  0  0  0  0  0  0  0  0  0  0
   -0.9640    0.6200   -0.3130 C   0  0  0  0  0  0  0  0  0  0  0  0
   -0.5350    1.1420   -1.4270 O   0  0  0  0  0  0  0  0  0  0  0  0
   -0.3780    1.1340    0.9090 C   0  0  1  0  0  0  0  0  0  0  0  0
    0.3420    0.1400    1.7710 C   0  0  0  0  0  0  0  0  0  0  0  0
    0.5660    2.2260    0.5450 N   0  0  0  0  0  0  0  0  0  0  0  0
    1.6730    1.7380   -0.2270 C   0  0  1  0  0  0  0  0  0  0  0  0
    1.8980    2.5240   -1.4900 C   0  0  0  0  0  0  0  0  0  0  0  0
    2.9360    1.8040    0.6080 C   0  0  0  0  0  0  0  0  0  0  0  0
    4.1070    1.2850   -0.1990 C   0  0  0  0  0  0  0  0  0  0  0  0
    3.9230    0.9010   -1.3660 O   0  0  0  0  0  0  0  0  0  0  0  0
    5.4010    1.2350    0.3680 N   0  0  0  0  0  0  0  0  0  0  0  0
    6.5750    0.7820   -0.2530 C   0  0  0  0  0  0  0  0  0  0  0  0
    6.7000    0.4180   -1.5660 C   0  0  0  0  0  0  0  0  0  0  0  0
    7.9060   -0.0360   -2.1000 C   0  0  0  0  0  0  0  0  0  0  0  0
    9.0230   -0.1320   -1.3130 C   0  0  0  0  0  0  0  0  0  0  0  0
    8.9330    0.2260    0.0090 C   0  0  0  0  0  0  0  0  0  0  0  0
    7.7180    0.6790    0.5350 C   0  0  0  0  0  0  0  0  0  0  0  0
   10.1350    0.1380    0.8610 C   0  0  0  0  0  0  0  0  0  0  0  0
   11.1080   -0.8210    0.4840 N   0  0  1  0  0  0  0  0  0  0  0  0
   11.3460   -1.7150    1.6100 C   0  0  0  0  0  0  0  0  0  0  0  0
   10.8210   -1.5860   -0.6890 C   0  0  0  0  0  0  0  0  0  0  0  0
   10.3480   -0.6150   -1.7840 C   0  0  0  0  0  0  0  0  0  0  0  0
   -2.6370   -1.1350    0.4780 C   0  0  1  0  0  0  0  0  0  0  0  0
   -3.3090   -0.3120    1.5700 C   0  0  0  0  0  0  0  0  0  0  0  0
   -4.4100    0.5710    1.0440 C   0  0  0  0  0  0  0  0  0  0  0  0
   -5.0570    1.3510    2.1230 C   0  0  0  0  0  0  0  0  0  0  0  0
   -4.6080    1.2060    3.2700 O   0  0  0  0  0  0  0  0  0  0  0  0
   -6.1820    2.2720    1.9330 C   0  0  1  0  0  0  0  0  0  0  0  0
   -5.9330    3.4180    1.0140 C   0  0  0  0  0  0  0  0  0  0  0  0
   -6.1820    3.1600   -0.4380 C   0  0  0  0  0  0  0  0  0  0  0  0
   -7.4370    2.3860   -0.7120 C   0  0  0  0  0  0  0  0  0  0  0  0
   -8.2030    2.2730    0.5160 N   0  0  0  0  0  0  0  0  0  0  0  0
   -7.4540    1.5570    1.5250 C   0  0  0  0  0  0  0  0  0  0  0  0
  1  2  1  0
  2  3  2  0
  2  8  1  0
  3  4  1  0
  4  5  2  0
  4 35  1  0
  5  6  1  0
  5 10  1  0
  6  7  1  0
  6  8  2  0
  8  9  1  0
 10 11  1  0
 11 12  1  0
 12 13  1  0
 12 35  1  0
 13 14  2  0
 13 15  1  0
 15 16  1  6
 15 17  1  0
 17 18  1  0
 18 19  1  6
 18 20  1  0
 20 21  1  0
 21 22  2  0
 21 23  1  0
 23 24  1  0
 24 25  2  0
 24 29  1  0
 25 26  1  0
 26 27  2  0
 27 28  1  0
 27 34  1  0
 28 29  2  0
 28 30  1  0
 30 31  1  0
 31 32  1  1
 31 33  1  0
 33 34  1  0
 35 36  1  1
 36 37  1  0
 37 38  1  0
 38 39  2  0
 40 38  1  6
 40 41  1  0
 40 45  1  0
 41 42  1  0
 42 43  1  0
 43 44  1  0
 44 45  1  0
M  CHG  3  17   1  31   1  44   1
M  END
