
     RDKit          3D

 22 24  0  0  0  0  0  0  0  0999 V2000
   -0.6410    0.0380    1.0710 O   0  0  0  0  0  0  0  0  0  0  0  0
   -0.3160    0.1160   -0.1340 C   0  0  0  0  0  0  0  0  0  0  0  0
    1.1350    0.1270   -0.5450 C   0  0  0  0  0  0  0  0  0  0  0  0
    1.9460    0.0400    0.5870 O   0  0  0  0  0  0  0  0  0  0  0  0
    3.3160    0.0320    0.4740 C   0  0  0  0  0  0  0  0  0  0  0  0
    4.0890   -0.0540    1.5980 C   0  0  0  0  0  0  0  0  0  0  0  0
    5.4780   -0.0640    1.4950 C   0  0  0  0  0  0  0  0  0  0  0  0
    6.0960    0.0130    0.2640 C   0  0  0  0  0  0  0  0  0  0  0  0
    7.5950    0.0040    0.1260 C   0  0  0  0  0  0  0  0  0  0  0  0
    8.1980   -0.0880    1.3750 O   0  0  0  0  0  0  0  0  0  0  0  0
    5.2920    0.0980   -0.8480 C   0  0  0  0  0  0  0  0  0  0  0  0
    3.9090    0.1080   -0.7540 C   0  0  0  0  0  0  0  0  0  0  0  0
   -1.3000    0.1960   -1.1230 N   0  0  0  0  0  0  0  0  0  0  0  0
   -2.6990    0.1990   -0.9250 C   0  0  0  0  0  0  0  0  0  0  0  0
   -3.5220    0.2850   -2.0440 C   0  0  0  0  0  0  0  0  0  0  0  0
   -4.8980    0.2960   -1.9690 C   0  0  0  0  0  0  0  0  0  0  0  0
   -5.5100    0.2210   -0.7530 C   0  0  0  0  0  0  0  0  0  0  0  0
   -4.7270    0.1350    0.3780 C   0  0  0  0  0  0  0  0  0  0  0  0
   -3.3310    0.1250    0.2750 C   0  0  0  0  0  0  0  0  0  0  0  0
   -5.6250    0.0640    1.5750 C   0  0  0  0  0  0  0  0  0  0  0  0
   -6.9750    0.4300    1.0140 C   0  0  0  0  0  0  0  0  0  0  0  0
   -6.8830    0.2130   -0.3950 N   0  0  0  0  0  0  0  0  0  0  0  0
  1  2  2  0
  2  3  1  0
  2 13  1  0
  3  4  1  0
  4  5  1  0
  5  6  2  0
  5 12  1  0
  6  7  1  0
  7  8  2  0
  8  9  1  0
  8 11  1  0
  9 10  1  0
 11 12  2  0
 13 14  1  0
 14 15  2  0
 14 19  1  0
 15 16  1  0
 16 17  2  0
 17 18  1  0
 17 22  1  0
 18 19  2  0
 18 20  1  0
 20 21  1  0
 21 22  1  0
M  END
