
     RDKit          3D

 22 24  0  0  0  0  0  0  0  0999 V2000
    3.3180    0.2760    1.8420 O   0  0  0  0  0  0  0  0  0  0  0  0
    3.4290   -0.1930    0.6910 C   0  0  0  0  0  0  0  0  0  0  0  0
    2.2870   -0.3530   -0.1370 N   0  0  0  0  0  0  0  0  0  0  0  0
    0.9630   -0.0280    0.2010 C   0  0  0  0  0  0  0  0  0  0  0  0
   -0.0190   -0.2650   -0.7650 C   0  0  0  0  0  0  0  0  0  0  0  0
   -1.3440   -0.0010   -0.5830 C   0  0  0  0  0  0  0  0  0  0  0  0
   -1.7670    0.5360    0.6250 C   0  0  0  0  0  0  0  0  0  0  0  0
   -3.0840    0.8360    0.9030 O   0  0  0  0  0  0  0  0  0  0  0  0
   -4.0850    0.6150   -0.0290 C   0  0  0  0  0  0  0  0  0  0  0  0
   -4.4670    1.5610   -0.9480 C   0  0  0  0  0  0  0  0  0  0  0  0
   -5.4630    1.2860   -1.8460 C   0  0  0  0  0  0  0  0  0  0  0  0
   -6.0760    0.0880   -1.8370 N   0  0  0  0  0  0  0  0  0  0  0  0
   -5.7170   -0.8530   -0.9450 C   0  0  0  0  0  0  0  0  0  0  0  0
   -4.7150   -0.6100   -0.0240 C   0  0  0  0  0  0  0  0  0  0  0  0
   -0.8300    0.7840    1.6030 C   0  0  0  0  0  0  0  0  0  0  0  0
   -1.1870    1.3170    2.8260 O   0  0  0  0  0  0  0  0  0  0  0  0
    0.5250    0.4970    1.3740 C   0  0  0  0  0  0  0  0  0  0  0  0
    4.7730   -0.5750    0.2150 C   0  0  0  0  0  0  0  0  0  0  0  0
    5.1180   -1.0850   -0.9540 C   0  0  0  0  0  0  0  0  0  0  0  0
    6.5800   -1.3020   -0.9660 C   0  0  0  0  0  0  0  0  0  0  0  0
    6.9680   -0.8950    0.2110 C   0  0  0  0  0  0  0  0  0  0  0  0
    5.9960   -0.4480    0.9900 C   0  0  0  0  0  0  0  0  0  0  0  0
  1  2  2  0
  2  3  1  0
  2 18  1  0
  3  4  1  0
  4  5  2  0
  4 17  1  0
  5  6  1  0
  6  7  2  0
  7  8  1  0
  7 15  1  0
  8  9  1  0
  9 10  2  0
  9 14  1  0
 10 11  1  0
 11 12  2  0
 12 13  1  0
 13 14  2  0
 15 16  1  0
 15 17  2  0
 18 19  2  0
 18 22  1  0
 19 20  1  0
 20 21  2  0
 21 22  2  0
M  END
