
     RDKit          3D

 22 24  0  0  0  0  0  0  0  0999 V2000
   -5.2290    1.5570   -1.3070 C   0  0  0  0  0  0  0  0  0  0  0  0
   -3.8890    1.1780   -1.0130 O   0  0  0  0  0  0  0  0  0  0  0  0
   -3.6270    0.0560   -0.2450 C   0  0  0  0  0  0  0  0  0  0  0  0
   -4.6660   -0.6990    0.2390 C   0  0  0  0  0  0  0  0  0  0  0  0
   -4.4180   -1.8330    1.0160 C   0  0  0  0  0  0  0  0  0  0  0  0
   -3.1250   -2.1980    1.2990 C   0  0  0  0  0  0  0  0  0  0  0  0
   -2.1010   -1.4100    0.7920 C   0  0  0  0  0  0  0  0  0  0  0  0
   -2.3340   -0.2980    0.0300 C   0  0  0  0  0  0  0  0  0  0  0  0
   -1.2890    0.4870   -0.4740 O   0  0  0  0  0  0  0  0  0  0  0  0
    0.0630    0.0740   -0.1580 C   0  0  0  0  0  0  0  0  0  0  0  0
    1.0330    0.9950   -0.7570 C   0  0  0  0  0  0  0  0  0  0  0  0
    0.6500    2.0720   -1.4980 N   0  0  0  0  0  0  0  0  0  0  0  0
    1.7330    2.7350   -1.9190 C   0  0  0  0  0  0  0  0  0  0  0  0
    1.7930    3.7790   -2.6260 O   0  0  0  0  0  0  0  0  0  0  0  0
    2.8040    2.0710   -1.4390 N   0  0  0  0  0  0  0  0  0  0  0  0
    2.3800    0.9840   -0.7130 C   0  0  0  0  0  0  0  0  0  0  0  0
    3.2680    0.0460   -0.0520 C   0  0  0  0  0  0  0  0  0  0  0  0
    4.6570    0.2480   -0.1530 C   0  0  0  0  0  0  0  0  0  0  0  0
    5.5740   -0.5870    0.4380 C   0  0  0  0  0  0  0  0  0  0  0  0
    5.1860   -1.6830    1.1730 C   0  0  0  0  0  0  0  0  0  0  0  0
    3.8360   -1.8940    1.2810 C   0  0  0  0  0  0  0  0  0  0  0  0
    2.8940   -1.0440    0.6790 C   0  0  0  0  0  0  0  0  0  0  0  0
  1  2  1  0
  2  3  1  0
  3  4  2  0
  3  8  1  0
  4  5  1  0
  5  6  2  0
  6  7  1  0
  7  8  2  0
  8  9  1  0
  9 10  1  0
 10 11  1  0
 11 12  1  0
 11 16  2  0
 12 13  1  0
 13 14  2  0
 13 15  1  0
 15 16  1  0
 16 17  1  0
 17 18  2  0
 17 22  1  0
 18 19  1  0
 19 20  2  0
 20 21  1  0
 21 22  2  0
M  END
