
     RDKit          3D

 22 24  0  0  0  0  0  0  0  0999 V2000
    5.0570    2.4450   -0.0510 C   0  0  0  0  0  0  0  0  0  0  0  0
    4.3180    2.1280   -1.3170 C   0  0  0  0  0  0  0  0  0  0  0  0
    3.0570    1.5470   -1.0990 O   0  0  0  0  0  0  0  0  0  0  0  0
    2.9170    0.3440   -0.4430 C   0  0  0  0  0  0  0  0  0  0  0  0
    3.9760   -0.3790    0.0380 C   0  0  0  0  0  0  0  0  0  0  0  0
    3.8320   -1.5790    0.6940 C   0  0  0  0  0  0  0  0  0  0  0  0
    2.5630   -2.0850    0.8800 C   0  0  0  0  0  0  0  0  0  0  0  0
    2.0910   -3.2150    1.4710 N   0  0  0  0  0  0  0  0  0  0  0  0
    0.7910   -3.1750    1.3500 N   0  0  0  0  0  0  0  0  0  0  0  0
    0.3590   -2.0770    0.7090 C   0  0  0  0  0  0  0  0  0  0  0  0
   -1.0350   -1.7390    0.4120 C   0  0  0  0  0  0  0  0  0  0  0  0
   -1.8630   -2.7270   -0.1160 C   0  0  0  0  0  0  0  0  0  0  0  0
   -3.1820   -2.4810   -0.4130 C   0  0  0  0  0  0  0  0  0  0  0  0
   -3.6890   -1.2010   -0.1740 C   0  0  0  0  0  0  0  0  0  0  0  0
   -2.9080   -0.2070    0.3420 C   0  0  0  0  0  0  0  0  0  0  0  0
   -3.3270    1.0520    0.5980 O   0  0  0  0  0  0  0  0  0  0  0  0
   -4.5320    1.6900    0.4320 C   0  0  0  0  0  0  0  0  0  0  0  0
   -5.0640    1.8190   -0.9520 C   0  0  0  0  0  0  0  0  0  0  0  0
   -6.2980    2.5060   -0.8410 O   0  0  0  0  0  0  0  0  0  0  0  0
   -1.5690   -0.5060    0.6300 C   0  0  0  0  0  0  0  0  0  0  0  0
    1.4940   -1.3610    0.3980 C   0  0  0  0  0  0  0  0  0  0  0  0
    1.6320   -0.1500   -0.2650 C   0  0  0  0  0  0  0  0  0  0  0  0
  1  2  1  0
  2  3  1  0
  3  4  1  0
  4  5  2  0
  4 22  1  0
  5  6  1  0
  6  7  2  0
  7  8  1  0
  7 21  1  0
  8  9  1  0
  9 10  2  0
 10 11  1  0
 10 21  1  0
 11 12  2  0
 11 20  1  0
 12 13  1  0
 13 14  2  0
 14 15  1  0
 15 16  1  0
 15 20  2  0
 16 17  1  0
 17 18  1  0
 18 19  1  0
 21 22  2  0
M  END
