
     RDKit          3D

 22 24  0  0  0  0  0  0  0  0999 V2000
    5.1950   -0.0700    1.4980 C   0  0  0  0  0  0  0  0  0  0  0  0
    4.0990   -1.1130    1.4390 C   0  0  0  0  0  0  0  0  0  0  0  0
    3.2160   -0.8590    0.3110 N   0  0  0  0  0  0  0  0  0  0  0  0
    3.4300   -1.3820   -0.9060 C   0  0  0  0  0  0  0  0  0  0  0  0
    2.6060   -1.1520   -1.9800 C   0  0  0  0  0  0  0  0  0  0  0  0
    1.5030   -0.3520   -1.8230 C   0  0  0  0  0  0  0  0  0  0  0  0
    0.6340   -0.0960   -2.9120 O   0  0  0  0  0  0  0  0  0  0  0  0
    1.2570    0.1980   -0.5880 C   0  0  0  0  0  0  0  0  0  0  0  0
    0.0850    1.0470   -0.4280 C   0  0  0  0  0  0  0  0  0  0  0  0
    0.1130    2.3980   -0.6310 C   0  0  0  0  0  0  0  0  0  0  0  0
   -0.9940    3.1690   -0.4770 C   0  0  0  0  0  0  0  0  0  0  0  0
   -2.1750    2.5440   -0.1010 C   0  0  0  0  0  0  0  0  0  0  0  0
   -2.2590    1.1820    0.1170 C   0  0  0  0  0  0  0  0  0  0  0  0
   -3.2810    0.3330    0.4860 C   0  0  0  0  0  0  0  0  0  0  0  0
   -4.6710    0.7770    0.7560 C   0  0  0  0  0  0  0  0  0  0  0  0
   -5.4910   -0.2710    1.1060 O   0  0  0  0  0  0  0  0  0  0  0  0
   -2.7390   -0.9340    0.5400 C   0  0  0  0  0  0  0  0  0  0  0  0
   -3.5090   -2.1470    0.9010 C   0  0  0  0  0  0  0  0  0  0  0  0
   -1.4220   -0.8620    0.2120 N   0  0  0  0  0  0  0  0  0  0  0  0
   -1.0950    0.4250   -0.0540 C   0  0  0  0  0  0  0  0  0  0  0  0
    2.1260   -0.0760    0.4400 C   0  0  0  0  0  0  0  0  0  0  0  0
    1.8990    0.4330    1.5820 O   0  0  0  0  0  0  0  0  0  0  0  0
  1  2  1  0
  2  3  1  0
  3  4  1  0
  3 21  1  0
  4  5  2  0
  5  6  1  0
  6  7  1  0
  6  8  2  0
  8  9  1  0
  8 21  1  0
  9 10  2  0
  9 20  1  0
 10 11  1  0
 11 12  2  0
 12 13  1  0
 13 14  1  0
 13 20  2  0
 14 15  1  0
 14 17  2  0
 15 16  1  0
 17 18  1  0
 17 19  1  0
 19 20  1  0
 21 22  2  0
M  END
