
     RDKit          3D

 22 24  0  0  0  0  0  0  0  0999 V2000
    1.1070   -3.0050    1.4300 N   0  0  0  0  0  0  0  0  0  0  0  0
   -0.0690   -2.5250    0.8240 C   0  0  0  0  0  0  0  0  0  0  0  0
   -0.8310   -3.3170    0.1800 O   0  0  0  0  0  0  0  0  0  0  0  0
   -0.4810   -1.0750    0.9080 C   0  0  2  0  0  0  0  0  0  0  0  0
   -1.7100   -0.8420    0.2600 N   0  0  0  0  0  0  0  0  0  0  0  0
   -2.3120    0.4110    0.5560 C   0  0  0  0  0  0  0  0  0  0  0  0
   -3.7230    0.4710    0.0130 C   0  0  0  0  0  0  0  0  0  0  0  0
   -4.2820   -0.5120   -0.6480 C   0  0  0  0  0  0  0  0  0  0  0  0
   -5.6750   -0.4380   -1.1760 C   0  0  0  0  0  0  0  0  0  0  0  0
   -6.3250    0.7530   -0.8470 O   0  0  0  0  0  0  0  0  0  0  0  0
   -5.7490    1.8030   -0.1530 C   0  0  0  0  0  0  0  0  0  0  0  0
   -4.4800    1.6800    0.2740 C   0  0  0  0  0  0  0  0  0  0  0  0
    0.6540   -0.1860    0.6040 C   0  0  0  0  0  0  0  0  0  0  0  0
    0.6690    1.1310    0.9900 C   0  0  0  0  0  0  0  0  0  0  0  0
    1.7820    1.8840    0.6600 C   0  0  0  0  0  0  0  0  0  0  0  0
    2.8640    1.3650   -0.0340 C   0  0  0  0  0  0  0  0  0  0  0  0
    2.8430    0.0440   -0.4180 C   0  0  0  0  0  0  0  0  0  0  0  0
    1.7470   -0.7180   -0.1000 C   0  0  0  0  0  0  0  0  0  0  0  0
    4.0400   -0.4480   -1.1470 C   0  0  0  0  0  0  0  0  0  0  0  0
    5.3210    0.0640   -0.4690 C   0  0  0  0  0  0  0  0  0  0  0  0
    5.3190    1.5510   -0.3350 C   0  0  0  0  0  0  0  0  0  0  0  0
    3.9950    2.0810   -0.3810 O   0  0  0  0  0  0  0  0  0  0  0  0
  1  2  1  0
  2  3  2  0
  2  4  1  0
  4  5  1  6
  4 13  1  0
  5  6  1  0
  6  7  1  0
  7  8  2  0
  7 12  1  0
  8  9  1  0
  9 10  1  0
 10 11  1  0
 11 12  2  0
 13 14  2  0
 13 18  1  0
 14 15  1  0
 15 16  2  0
 16 17  1  0
 16 22  1  0
 17 18  2  0
 17 19  1  0
 19 20  1  0
 20 21  1  0
 21 22  1  0
M  END
