
     RDKit          3D

  7  6  0  0  0  0  0  0  0  0999 V2000
   -1.1450   -1.2700   -0.7980 N   0  0  0  0  0  0  0  0  0  0  0  0
   -0.9170   -0.1500    0.0790 C   0  0  2  0  0  0  0  0  0  0  0  0
   -1.3800    1.4330   -0.6660 S   0  0  0  0  0  0  0  0  0  0  0  0
    0.5140   -0.1200    0.5730 C   0  0  1  0  0  0  0  0  0  0  0  0
    0.8500   -1.2590    1.2770 O   0  0  0  0  0  0  0  0  0  0  0  0
    1.3880   -0.0290   -0.5110 O   0  0  0  0  0  0  0  0  0  0  0  0
    2.1300    1.0490   -0.4260 O   0  0  0  0  0  0  0  0  0  0  0  0
  2  1  1  6
  2  3  1  0
  2  4  1  0
  4  5  1  6
  4  6  1  0
  6  7  1  0
M  END
