
     RDKit          3D

  6  5  0  0  0  0  0  0  0  0999 V2000
   -0.5670    1.3430   -0.2400 C   0  0  0  0  0  0  0  0  0  0  0  0
   -0.0930   -0.0680   -0.4760 C   0  0  1  0  0  0  0  0  0  0  0  0
   -0.2990   -0.8850    0.6910 N   0  0  0  0  0  0  0  0  0  0  0  0
   -0.8540   -0.6160   -1.5200 O   0  0  0  0  0  0  0  0  0  0  0  0
    1.6130   -0.0400   -1.0440 S   0  0  0  0  0  0  0  0  0  0  0  0
    2.7470   -0.1820    0.2190 O   0  0  0  0  0  0  0  0  0  0  0  0
  2  1  1  1
  2  3  1  0
  2  4  1  0
  2  5  1  0
  5  6  1  0
M  CHG  1   3   1
M  END
