
     RDKit          3D

  7  6  0  0  0  0  0  0  0  0999 V2000
   -2.3240   -0.0380   -0.0670 C   0  0  0  0  0  0  0  0  0  0  0  0
   -1.2680   -0.3890   -0.9000 O   0  0  0  0  0  0  0  0  0  0  0  0
   -0.0900   -0.1350   -0.1930 C   0  0  2  0  0  0  0  0  0  0  0  0
   -0.0000   -0.8600    0.9810 O   0  0  0  0  0  0  0  0  0  0  0  0
   -0.1100    1.6330    0.2220 S   0  0  0  0  0  0  0  0  0  0  0  0
    0.9810   -0.3750   -1.0570 O   0  0  0  0  0  0  0  0  0  0  0  0
    2.1670   -0.1560   -0.4620 N   0  0  0  0  0  0  0  0  0  0  0  0
  1  2  1  0
  2  3  1  0
  3  4  1  1
  3  5  1  0
  3  6  1  0
  6  7  1  0
M  CHG  1   7   1
M  END
