
     RDKit          3D

  6  5  0  0  0  0  0  0  0  0999 V2000
   -2.4380   -0.0090   -0.2600 C   0  0  0  0  0  0  0  0  0  0  0  0
   -1.1210    0.4480   -0.4190 O   0  0  0  0  0  0  0  0  0  0  0  0
   -0.2890   -0.0740    0.5690 C   0  0  2  0  0  0  0  0  0  0  0  0
    0.4630    0.9770    1.0660 O   0  0  0  0  0  0  0  0  0  0  0  0
    0.8170   -1.3530   -0.0550 S   0  0  0  0  0  0  0  0  0  0  0  0
    2.4130   -0.7310   -0.4390 N   0  0  0  0  0  0  0  0  0  0  0  0
  1  2  1  0
  2  3  1  0
  3  4  1  6
  3  5  1  0
  5  6  1  0
M  CHG  1   6   1
M  END
