
     RDKit          3D

 24 25  0  0  0  0  0  0  0  0999 V2000
   -2.4230   -3.8550   -0.7980 O   0  0  0  0  0  0  0  0  0  0  0  0
   -2.9010   -2.8210   -0.2850 C   0  0  0  0  0  0  0  0  0  0  0  0
   -3.3220   -1.5430   -0.9550 C   0  0  0  0  0  0  0  0  0  0  0  0
   -2.9570   -0.5560    0.1690 C   0  0  2  0  0  0  0  0  0  0  0  0
   -3.5800    0.6300   -0.0520 O   0  0  0  0  0  0  0  0  0  0  0  0
   -1.5180   -0.5480    0.3850 C   0  0  0  0  0  0  0  0  0  0  0  0
   -0.9960   -1.7040    0.5880 O   0  0  0  0  0  0  0  0  0  0  0  0
   -0.6350    0.5610    0.4000 N   0  0  0  0  0  0  0  0  0  0  0  0
   -1.0940    1.9000    0.1860 C   0  0  0  0  0  0  0  0  0  0  0  0
   -1.1560    2.3110   -1.2570 C   0  0  0  0  0  0  0  0  0  0  0  0
   -1.6790    3.6870   -1.2810 N   0  0  0  0  0  0  0  0  0  0  0  0
   -2.7340    3.9450   -1.8820 O   0  0  0  0  0  0  0  0  0  0  0  0
   -1.0050    4.6850   -0.6400 O   0  0  0  0  0  0  0  0  0  0  0  0
    0.7450    0.3200    0.7340 C   0  0  0  0  0  0  0  0  0  0  0  0
    1.6700   -0.0690   -0.3410 C   0  0  1  0  0  0  0  0  0  0  0  0
    1.8580    0.8090   -1.3630 O   0  0  0  0  0  0  0  0  0  0  0  0
    3.0050   -0.3560    0.3010 C   0  0  0  0  0  0  0  0  0  0  0  0
    3.2890   -0.2750    1.5860 C   0  0  0  0  0  0  0  0  0  0  0  0
    4.7100   -0.6430    1.7750 C   0  0  0  0  0  0  0  0  0  0  0  0
    5.1990   -0.9450    0.4250 C   0  0  0  0  0  0  0  0  0  0  0  0
    4.2000   -0.7750   -0.4200 C   0  0  0  0  0  0  0  0  0  0  0  0
    4.2460   -0.9590   -1.8000 O   0  0  0  0  0  0  0  0  0  0  0  0
   -3.5950   -1.3330    1.3380 C   0  0  0  0  0  0  0  0  0  0  0  0
   -3.1510   -2.6340    1.0690 O   0  0  0  0  0  0  0  0  0  0  0  0
  1  2  2  0
  2  3  1  0
  2 24  1  0
  3  4  1  0
  4  5  1  6
  4  6  1  0
  4 23  1  0
  6  7  2  0
  6  8  1  0
  8  9  1  0
  8 14  1  0
  9 10  1  0
 10 11  1  0
 11 12  2  0
 11 13  1  0
 14 15  1  0
 15 16  1  6
 15 17  1  0
 17 18  2  0
 17 21  1  0
 18 19  1  0
 19 20  1  0
 20 21  2  0
 21 22  1  0
 23 24  1  0
M  CHG  2  11   1  13  -1
M  END
