
     RDKit          3D

 24 24  0  0  0  0  0  0  0  0999 V2000
    6.9900   -0.8710   -0.3210 C   0  0  0  0  0  0  0  0  0  0  0  0
    5.9820   -0.5190    0.5780 O   0  0  0  0  0  0  0  0  0  0  0  0
    4.7820   -0.0140    0.0720 C   0  0  0  0  0  0  0  0  0  0  0  0
    4.6590    0.1020   -1.1630 O   0  0  0  0  0  0  0  0  0  0  0  0
    3.7270    0.3550    1.0080 C   0  0  0  0  0  0  0  0  0  0  0  0
    2.4950    0.8450    0.3060 C   0  0  2  0  0  0  0  0  0  0  0  0
    1.9020   -0.1820   -0.5960 C   0  0  0  0  0  0  0  0  0  0  0  0
    0.5350    0.2740   -0.8990 N   0  0  1  0  0  0  0  0  0  0  0  0
    0.2340   -0.2170   -2.1150 O   0  0  0  0  0  0  0  0  0  0  0  0
   -0.3180   -0.3360    0.1360 C   0  0  0  0  0  0  0  0  0  0  0  0
   -1.7390   -0.1260   -0.1660 C   0  0  0  0  0  0  0  0  0  0  0  0
   -2.0200    0.4960   -1.2420 O   0  0  0  0  0  0  0  0  0  0  0  0
   -2.7950   -0.5820    0.6810 C   0  0  0  0  0  0  0  0  0  0  0  0
   -4.2120   -0.3630    0.3560 C   0  0  0  0  0  0  0  0  0  0  0  0
   -5.1870   -0.8520    1.2720 O   0  0  0  0  0  0  0  0  0  0  0  0
   -4.6910    0.2350   -0.6880 C   0  0  0  0  0  0  0  0  0  0  0  0
   -6.2020    0.3520   -0.8280 C   0  0  0  0  0  0  0  0  0  0  0  0
   -6.5390   -0.2960   -1.9980 O   0  0  0  0  0  0  0  0  0  0  0  0
   -2.5410   -1.2210    1.8070 C   0  0  0  0  0  0  0  0  0  0  0  0
   -1.2850   -1.5400    2.3300 N   0  0  0  0  0  0  0  0  0  0  0  0
   -3.6740   -1.6240    2.5620 O   0  0  0  0  0  0  0  0  0  0  0  0
    0.4580    1.7010   -0.9210 C   0  0  0  0  0  0  0  0  0  0  0  0
    1.8120    2.2230   -1.4030 C   0  0  0  0  0  0  0  0  0  0  0  0
    2.7210    2.0440   -0.3800 O   0  0  0  0  0  0  0  0  0  0  0  0
  1  2  1  0
  2  3  1  0
  3  4  2  0
  3  5  1  0
  6  5  1  6
  6  7  1  0
  6 24  1  0
  7  8  1  0
  8  9  1  6
  8 10  1  0
  8 22  1  0
 10 11  1  0
 11 12  2  0
 11 13  1  0
 13 14  1  0
 13 19  2  3
 14 15  1  0
 14 16  2  3
 16 17  1  0
 17 18  1  0
 19 20  1  0
 19 21  1  0
 22 23  1  0
 23 24  1  0
M  CHG  2   8   1   9  -1
M  END
