
     RDKit          3D

 24 25  0  0  0  0  0  0  0  0999 V2000
   -2.0290   -2.5020    2.2140 C   0  0  0  0  0  0  0  0  0  0  0  0
   -2.2870   -1.3200    1.5250 O   0  0  0  0  0  0  0  0  0  0  0  0
   -2.0340   -1.1850    0.1750 C   0  0  0  0  0  0  0  0  0  0  0  0
   -1.5530   -2.1470   -0.4540 O   0  0  0  0  0  0  0  0  0  0  0  0
   -2.3320    0.0800   -0.5080 C   0  0  1  0  0  0  0  0  0  0  0  0
   -2.0260   -0.0790   -1.9210 N   0  0  0  0  0  0  0  0  0  0  0  0
   -3.8610    0.2310   -0.4550 C   0  0  0  0  0  0  0  0  0  0  0  0
   -4.3240    1.4680   -1.1090 C   0  0  0  0  0  0  0  0  0  0  0  0
   -4.4100    2.5890   -0.5520 O   0  0  0  0  0  0  0  0  0  0  0  0
   -4.7000    1.4150   -2.4500 O   0  0  0  0  0  0  0  0  0  0  0  0
   -1.7430    1.2970    0.0840 C   0  0  0  0  0  0  0  0  0  0  0  0
   -0.3050    1.4140    0.1720 C   0  0  0  0  0  0  0  0  0  0  0  0
    0.1650    2.4930    0.6900 O   0  0  0  0  0  0  0  0  0  0  0  0
    0.6840    0.5340   -0.2230 O   0  0  0  0  0  0  0  0  0  0  0  0
    2.0430    0.7710   -0.1020 C   0  0  2  0  0  0  0  0  0  0  0  0
    2.8060    0.8630   -1.4000 C   0  0  0  0  0  0  0  0  0  0  0  0
    4.1520    1.5090   -1.0490 C   0  0  0  0  0  0  0  0  0  0  0  0
    4.5280    1.2080    0.2740 O   0  0  0  0  0  0  0  0  0  0  0  0
    4.0860    0.0120    0.9070 C   0  0  0  0  0  0  0  0  0  0  0  0
    4.8220   -0.8310    1.6330 C   0  0  0  0  0  0  0  0  0  0  0  0
    3.6620   -2.0960    2.1170 S   0  0  0  0  0  0  0  0  0  0  0  0
    2.2510   -1.3730    1.2860 C   0  0  0  0  0  0  0  0  0  0  0  0
    0.9720   -1.8980    1.2730 O   0  0  0  0  0  0  0  0  0  0  0  0
    2.7780   -0.2590    0.7280 C   0  0  0  0  0  0  0  0  0  0  0  0
  1  2  1  0
  2  3  1  0
  3  4  2  0
  3  5  1  0
  5  6  1  6
  5  7  1  0
  5 11  1  0
  7  8  1  0
  8  9  2  0
  8 10  1  0
 11 12  1  0
 12 13  2  0
 12 14  1  0
 15 14  1  6
 15 16  1  0
 15 24  1  0
 16 17  1  0
 17 18  1  0
 18 19  1  0
 19 20  2  0
 19 24  1  0
 20 21  1  0
 21 22  1  0
 22 23  1  0
 22 24  2  0
M  CHG  2   6   1  10  -1
M  END
