
     RDKit          3D

 24 26  0  0  0  0  0  0  0  0999 V2000
    8.2590    0.2430    0.7630 N   0  0  0  0  0  0  0  0  0  0  0  0
    7.2360   -0.5590    0.0890 C   0  0  1  0  0  0  0  0  0  0  0  0
    6.8860   -1.6830    0.8490 O   0  0  0  0  0  0  0  0  0  0  0  0
    5.4980   -1.7610    0.9330 C   0  0  0  0  0  0  0  0  0  0  0  0
    4.7660   -2.8270    1.4260 O   0  0  0  0  0  0  0  0  0  0  0  0
    4.9950   -0.6280    0.4550 C   0  0  0  0  0  0  0  0  0  0  0  0
    3.5670   -0.3460    0.3820 C   0  0  0  0  0  0  0  0  0  0  0  0
    2.9170    0.8510    0.6310 C   0  0  0  0  0  0  0  0  0  0  0  0
    1.5770    0.6060    0.4270 C   0  0  0  0  0  0  0  0  0  0  0  0
    1.4620   -0.7120    0.0680 C   0  0  0  0  0  0  0  0  0  0  0  0
    0.1670   -1.3490   -0.2340 C   0  0  0  0  0  0  0  0  0  0  0  0
    0.0920   -2.5690   -0.5720 O   0  0  0  0  0  0  0  0  0  0  0  0
   -1.0140   -0.6500   -0.1610 O   0  0  0  0  0  0  0  0  0  0  0  0
   -2.2980   -1.1690   -0.4330 C   0  0  0  0  0  0  0  0  0  0  0  0
   -3.3240   -0.0480   -0.2050 C   0  0  2  0  0  0  0  0  0  0  0  0
   -2.9470    1.0790   -1.1070 C   0  0  0  0  0  0  0  0  0  0  0  0
   -2.9850    0.6170   -2.4800 N   0  0  0  0  0  0  0  0  0  0  0  0
   -3.2350    0.2990    1.2550 C   0  0  0  0  0  0  0  0  0  0  0  0
   -4.3580    0.7900    1.8320 O   0  0  0  0  0  0  0  0  0  0  0  0
   -5.3860    1.1830    1.0390 C   0  0  0  0  0  0  0  0  0  0  0  0
   -5.5460    0.4290   -0.2490 C   0  0  0  0  0  0  0  0  0  0  0  0
   -4.5790   -0.5320   -0.4600 O   0  0  0  0  0  0  0  0  0  0  0  0
    2.6470   -1.2320    0.0530 O   0  0  0  0  0  0  0  0  0  0  0  0
    6.0270    0.1980    0.0560 O   0  0  0  0  0  0  0  0  0  0  0  0
  2  1  1  1
  2  3  1  0
  2 24  1  0
  3  4  1  0
  4  5  1  0
  4  6  2  0
  6  7  1  0
  6 24  1  0
  7  8  2  0
  7 23  1  0
  8  9  1  0
  9 10  2  0
 10 11  1  0
 10 23  1  0
 11 12  2  0
 11 13  1  0
 13 14  1  0
 15 14  1  1
 15 16  1  0
 15 18  1  0
 15 22  1  0
 16 17  1  0
 18 19  1  0
 19 20  1  0
 20 21  1  0
 21 22  1  0
M  CHG  2   5  -1  17   1
M  END
