
     RDKit          3D

 23 24  0  0  0  0  0  0  0  0999 V2000
   -3.4400    2.8100   -0.7200 C   0  0  0  0  0  0  0  0  0  0  0  0
   -2.4470    1.8790   -0.7240 O   0  0  0  0  0  0  0  0  0  0  0  0
   -2.6780    0.6890   -0.1000 C   0  0  2  0  0  0  0  0  0  0  0  0
   -3.8590   -0.0710   -0.6470 C   0  0  0  0  0  0  0  0  0  0  0  0
   -2.7770    0.9010    1.3610 C   0  0  0  0  0  0  0  0  0  0  0  0
   -2.8030    1.9990    1.9500 O   0  0  0  0  0  0  0  0  0  0  0  0
   -2.8490   -0.2510    2.1690 O   0  0  0  0  0  0  0  0  0  0  0  0
   -2.4450   -1.4600    1.5690 C   0  0  0  0  0  0  0  0  0  0  0  0
   -1.2720   -1.2530    0.6700 C   0  0  1  0  0  0  0  0  0  0  0  0
   -0.9370   -2.5220    0.0190 N   0  0  0  0  0  0  0  0  0  0  0  0
   -1.3850   -0.1320   -0.2990 C   0  0  2  0  0  0  0  0  0  0  0  0
   -0.2580    0.8670   -0.1340 C   0  0  0  0  0  0  0  0  0  0  0  0
    1.0420    0.2130   -0.3010 N   0  0  0  0  0  0  0  0  0  0  0  0
    2.2570    0.9390   -0.1920 C   0  0  0  0  0  0  0  0  0  0  0  0
    2.1700    2.1680    0.0530 O   0  0  0  0  0  0  0  0  0  0  0  0
    3.5710    0.2980   -0.3570 C   0  0  0  0  0  0  0  0  0  0  0  0
    3.8480   -1.0190   -0.6240 C   0  0  0  0  0  0  0  0  0  0  0  0
    5.2140   -1.1590   -0.6920 C   0  0  0  0  0  0  0  0  0  0  0  0
    5.7180    0.1010   -0.4590 C   0  0  0  0  0  0  0  0  0  0  0  0
    7.1400    0.4130   -0.4390 C   0  0  0  0  0  0  0  0  0  0  0  0
    7.5330    1.5990   -0.2180 O   0  0  0  0  0  0  0  0  0  0  0  0
    8.0980   -0.5370   -0.6540 O   0  0  0  0  0  0  0  0  0  0  0  0
    4.7090    0.9070   -0.2710 O   0  0  0  0  0  0  0  0  0  0  0  0
  1  2  1  0
  2  3  1  0
  3  4  1  6
  3  5  1  0
  3 11  1  0
  5  6  2  0
  5  7  1  0
  7  8  1  0
  8  9  1  0
  9 10  1  6
  9 11  1  0
 11 12  1  1
 12 13  1  0
 13 14  1  0
 14 15  2  0
 14 16  1  0
 16 17  2  0
 16 23  1  0
 17 18  1  0
 18 19  2  0
 19 20  1  0
 19 23  1  0
 20 21  2  0
 20 22  1  0
M  CHG  2  10   1  22  -1
M  END
