
     RDKit          3D

 10 10  0  0  0  0  0  0  0  0999 V2000
   -2.6870   -0.9550   -0.3720 N   0  0  0  0  0  0  0  0  0  0  0  0
   -1.4860   -0.2430   -0.1610 C   0  0  0  0  0  0  0  0  0  0  0  0
   -1.5400    1.1000    0.1130 C   0  0  0  0  0  0  0  0  0  0  0  0
   -0.3710    1.8270    0.3250 C   0  0  0  0  0  0  0  0  0  0  0  0
    0.8660    1.1850    0.2590 C   0  0  0  0  0  0  0  0  0  0  0  0
    0.9220   -0.1650   -0.0170 C   0  0  0  0  0  0  0  0  0  0  0  0
    2.2010   -0.8390   -0.0880 C   0  0  0  0  0  0  0  0  0  0  0  0
    2.2140   -2.0670   -0.3400 O   0  0  0  0  0  0  0  0  0  0  0  0
    3.4200   -0.2110    0.1070 O   0  0  0  0  0  0  0  0  0  0  0  0
   -0.2480   -0.8440   -0.2190 C   0  0  0  0  0  0  0  0  0  0  0  0
  1  2  1  0
  2  3  2  0
  2 10  1  0
  3  4  1  0
  4  5  2  0
  5  6  1  0
  6  7  1  0
  6 10  2  0
  7  8  2  0
  7  9  1  0
M  END
