
     RDKit          3D

 27 28  0  0  0  0  0  0  0  0999 V2000
    0.4380   -2.0680   -2.6430 O   0  0  0  0  0  0  0  0  0  0  0  0
    0.2890   -1.5910   -1.4670 C   0  0  0  0  0  0  0  0  0  0  0  0
   -0.6020   -2.1830   -0.6500 O   0  0  0  0  0  0  0  0  0  0  0  0
   -0.5470   -2.7450    0.6010 C   0  0  0  0  0  0  0  0  0  0  0  0
   -1.5710   -2.1690    1.3870 O   0  0  0  0  0  0  0  0  0  0  0  0
   -2.7770   -2.8280    1.1650 C   0  0  0  0  0  0  0  0  0  0  0  0
   -3.7320   -2.0450    0.3120 C   0  0  0  0  0  0  0  0  0  0  0  0
   -3.1090   -1.3830   -0.7430 O   0  0  0  0  0  0  0  0  0  0  0  0
   -3.0750   -0.0040   -0.5430 C   0  0  0  0  0  0  0  0  0  0  0  0
   -1.9390    0.5380   -1.3840 C   0  0  1  0  0  0  0  0  0  0  0  0
   -2.3160    1.8400   -1.9850 C   0  0  0  0  0  0  0  0  0  0  0  0
   -3.2930    1.9740   -2.7600 O   0  0  0  0  0  0  0  0  0  0  0  0
   -1.4220    2.7720   -1.5310 O   0  0  0  0  0  0  0  0  0  0  0  0
   -0.9790    2.3400   -0.2610 C   0  0  2  0  0  0  0  0  0  0  0  0
    0.2650    3.0600    0.0690 C   0  0  0  0  0  0  0  0  0  0  0  0
    0.7300    3.8880   -0.7460 O   0  0  0  0  0  0  0  0  0  0  0  0
    0.9480    2.8560    1.2550 O   0  0  0  0  0  0  0  0  0  0  0  0
    2.0870    3.5090    1.5680 O   0  0  0  0  0  0  0  0  0  0  0  0
   -0.7190    0.8470   -0.5180 C   0  0  2  0  0  0  0  0  0  0  0  0
    0.4330    0.7740   -1.2390 O   0  0  0  0  0  0  0  0  0  0  0  0
    1.1420   -0.4180   -1.1560 C   0  0  1  0  0  0  0  0  0  0  0  0
    1.8340   -0.5620    0.1870 C   0  0  0  0  0  0  0  0  0  0  0  0
    2.7310    0.4490    0.4600 O   0  0  0  0  0  0  0  0  0  0  0  0
    3.7730    0.6020   -0.4000 C   0  0  0  0  0  0  0  0  0  0  0  0
    4.5680    1.6820    0.0590 O   0  0  0  0  0  0  0  0  0  0  0  0
    5.0300    1.4480    1.2690 O   0  0  0  0  0  0  0  0  0  0  0  0
    5.8950    0.4620    1.2880 O   0  0  0  0  0  0  0  0  0  0  0  0
  1  2  2  0
  2  3  1  0
  2 21  1  0
  3  4  1  0
  4  5  1  0
  5  6  1  0
  6  7  1  0
  7  8  1  0
  8  9  1  0
 10  9  1  1
 10 11  1  0
 10 19  1  0
 11 12  2  0
 11 13  1  0
 13 14  1  0
 14 15  1  6
 14 19  1  0
 15 16  2  0
 15 17  1  0
 17 18  1  0
 19 20  1  6
 20 21  1  0
 21 22  1  1
 22 23  1  0
 23 24  1  0
 24 25  1  0
 25 26  1  0
 26 27  1  0
M  END
