
     RDKit          3D

 21 22  0  0  0  0  0  0  0  0999 V2000
   -4.4500    1.4060   -2.0900 O   0  0  0  0  0  0  0  0  0  0  0  0
   -4.0760    0.9360   -0.9620 C   0  0  0  0  0  0  0  0  0  0  0  0
   -5.0470    0.7020    0.1420 C   0  0  0  0  0  0  0  0  0  0  0  0
   -4.7910   -0.4410    0.8470 O   0  0  0  0  0  0  0  0  0  0  0  0
   -3.6160   -1.0820    0.5990 C   0  0  0  0  0  0  0  0  0  0  0  0
   -2.4120   -0.1110    0.5730 C   0  0  1  0  0  0  0  0  0  0  0  0
   -1.1970   -0.8790    0.1070 C   0  0  0  0  0  0  0  0  0  0  0  0
   -1.1930   -1.9490   -0.4980 O   0  0  0  0  0  0  0  0  0  0  0  0
   -0.0060   -0.2870    0.3580 O   0  0  0  0  0  0  0  0  0  0  0  0
    1.2680   -0.6030    0.0780 C   0  0  1  0  0  0  0  0  0  0  0  0
    2.0740    0.7150    0.2340 C   0  0  0  0  0  0  0  0  0  0  0  0
    3.3810    0.5320   -0.0900 O   0  0  0  0  0  0  0  0  0  0  0  0
    4.3740    1.9100   -0.0740 P   0  0  0  0  0  0  0  0  0  0  0  0
    3.6530    3.3240    0.5470 O   0  0  0  0  0  0  0  0  0  0  0  0
    5.8450    1.5760    0.7800 O   0  0  0  0  0  0  0  0  0  0  0  0
    1.8420   -1.6040    1.0840 C   0  0  0  0  0  0  0  0  0  0  0  0
    3.1080   -1.8350    0.4900 O   0  0  0  0  0  0  0  0  0  0  0  0
    2.8630   -1.9420   -0.8410 N   0  0  0  0  0  0  0  0  0  0  0  0
    1.6190   -1.2540   -1.1810 C   0  0  0  0  0  0  0  0  0  0  0  0
    1.1470   -1.3340   -2.3150 O   0  0  0  0  0  0  0  0  0  0  0  0
   -2.7450    0.6300   -0.6980 N   0  0  0  0  0  0  0  0  0  0  0  0
  1  2  2  0
  2  3  1  0
  2 21  1  0
  3  4  1  0
  4  5  1  0
  5  6  1  0
  6  7  1  6
  6 21  1  0
  7  8  2  0
  7  9  1  0
  9 10  1  0
 10 11  1  6
 10 16  1  0
 10 19  1  0
 11 12  1  0
 12 13  1  0
 13 14  1  0
 13 15  1  0
 16 17  1  0
 17 18  1  0
 18 19  1  0
 19 20  2  0
M  END
