
     RDKit          3D

 21 22  0  0  0  0  0  0  0  0999 V2000
    0.2730   -1.6320    0.0150 O   0  0  0  0  0  0  0  0  0  0  0  0
    0.3920   -0.4160   -0.0950 C   0  0  0  0  0  0  0  0  0  0  0  0
    1.6340    0.2100    0.0520 N   0  0  0  0  0  0  0  0  0  0  0  0
    2.7920   -0.5460    0.3300 C   0  0  0  0  0  0  0  0  0  0  0  0
    3.9130    0.4590    0.7460 C   0  0  0  0  0  0  0  0  0  0  0  0
    5.0280   -0.3920    0.9770 O   0  0  0  0  0  0  0  0  0  0  0  0
    6.1290    0.1290   -0.2310 P   0  0  0  0  0  0  0  0  0  0  0  0
    7.7300   -0.2130   -0.1550 O   0  0  0  0  0  0  0  0  0  0  0  0
    5.4730    1.0390   -1.4890 O   0  0  0  0  0  0  0  0  0  0  0  0
   -0.7040    0.4540   -0.3530 N   0  0  0  0  0  0  0  0  0  0  0  0
   -2.0280   -0.0740   -0.2740 C   0  0  0  0  0  0  0  0  0  0  0  0
   -2.3080   -1.2040   -0.8830 C   0  0  0  0  0  0  0  0  0  0  0  0
   -3.6840   -1.6990   -0.7370 C   0  0  2  0  0  0  0  0  0  0  0  0
   -4.2040   -2.4360   -1.7500 O   0  0  0  0  0  0  0  0  0  0  0  0
   -4.7930   -3.5030   -1.1670 O   0  0  0  0  0  0  0  0  0  0  0  0
   -4.6200   -0.7400   -0.2250 O   0  0  0  0  0  0  0  0  0  0  0  0
   -4.2690    0.4090    0.4440 C   0  0  0  0  0  0  0  0  0  0  0  0
   -2.9970    0.7670    0.4280 C   0  0  0  0  0  0  0  0  0  0  0  0
   -2.8970    1.9420    1.1600 O   0  0  0  0  0  0  0  0  0  0  0  0
   -4.1980    2.5170    1.2060 C   0  0  0  0  0  0  0  0  0  0  0  0
   -4.9880    1.3360    1.1790 O   0  0  0  0  0  0  0  0  0  0  0  0
  1  2  2  0
  2  3  1  0
  2 10  1  0
  3  4  1  0
  4  5  1  0
  5  6  1  0
  6  7  1  0
  7  8  1  0
  7  9  1  0
 10 11  1  0
 11 12  2  0
 11 18  1  0
 12 13  1  0
 13 14  1  6
 13 16  1  0
 14 15  1  0
 16 17  1  0
 17 18  2  0
 17 21  1  0
 18 19  1  0
 19 20  1  0
 20 21  1  0
M  END
