
     RDKit          3D

 22 22  0  0  0  0  0  0  0  0999 V2000
   -0.7400   -2.1400   -2.0020 O   0  0  0  0  0  0  0  0  0  0  0  0
    0.3290   -2.5690   -0.9590 P   0  0  0  0  0  0  0  0  0  0  0  0
    0.6900   -1.4720    0.5130 C   0  0  2  0  0  0  0  0  0  0  0  0
   -0.4430   -1.5030    1.3300 O   0  0  0  0  0  0  0  0  0  0  0  0
   -1.3450   -2.4040    0.9620 N   0  0  0  0  0  0  0  0  0  0  0  0
   -2.6540   -1.9820    0.6490 C   0  0  0  0  0  0  0  0  0  0  0  0
   -3.5880   -2.8000    0.3670 O   0  0  0  0  0  0  0  0  0  0  0  0
   -3.0200   -0.5250    0.6330 C   0  0  0  0  0  0  0  0  0  0  0  0
   -3.4640   -0.1070   -0.6820 N   0  0  0  0  0  0  0  0  0  0  0  0
   -2.6030    0.4980   -1.6410 C   0  0  0  0  0  0  0  0  0  0  0  0
   -2.9010    0.3170   -2.8570 O   0  0  0  0  0  0  0  0  0  0  0  0
   -1.5340    1.2200   -1.1920 O   0  0  0  0  0  0  0  0  0  0  0  0
   -1.5130    2.2590   -0.2790 C   0  0  0  0  0  0  0  0  0  0  0  0
   -0.2550    2.3010    0.5620 C   0  0  0  0  0  0  0  0  0  0  0  0
    0.9140    2.4280   -0.1770 O   0  0  0  0  0  0  0  0  0  0  0  0
    2.0770    1.7220   -0.1180 C   0  0  0  0  0  0  0  0  0  0  0  0
    3.1790    2.2600    0.1000 O   0  0  0  0  0  0  0  0  0  0  0  0
    2.0560    0.2570   -0.3160 C   0  0  1  0  0  0  0  0  0  0  0  0
    3.3120   -0.3930    0.1820 C   0  0  0  0  0  0  0  0  0  0  0  0
    4.4450    0.2550   -0.3300 O   0  0  0  0  0  0  0  0  0  0  0  0
    5.5540   -0.2710    0.0720 O   0  0  0  0  0  0  0  0  0  0  0  0
    0.8880   -0.2350    0.0760 O   0  0  0  0  0  0  0  0  0  0  0  0
  1  2  2  0
  3  2  1  6
  3  4  1  0
  3 22  1  0
  4  5  1  0
  5  6  1  0
  6  7  2  0
  6  8  1  0
  8  9  1  0
  9 10  1  0
 10 11  2  0
 10 12  1  0
 12 13  1  0
 13 14  1  0
 14 15  1  0
 15 16  1  0
 16 17  2  0
 16 18  1  0
 18 19  1  1
 18 22  1  0
 19 20  1  0
 20 21  1  0
M  END
