
     RDKit          3D

 21 22  0  0  0  0  0  0  0  0999 V2000
    3.6640    0.1550   -0.6410 O   0  0  0  0  0  0  0  0  0  0  0  0
    2.4390    0.2040   -0.3670 C   0  0  0  0  0  0  0  0  0  0  0  0
    1.7920    1.3690    0.0210 O   0  0  0  0  0  0  0  0  0  0  0  0
    0.4000    1.5220    0.0190 C   0  0  1  0  0  0  0  0  0  0  0  0
    0.0610    2.6680    0.9450 C   0  0  0  0  0  0  0  0  0  0  0  0
   -1.0920    3.2300    0.3360 N   0  0  0  0  0  0  0  0  0  0  0  0
   -1.2470    2.7640   -0.8870 O   0  0  0  0  0  0  0  0  0  0  0  0
   -0.1510    2.0500   -1.2750 C   0  0  0  0  0  0  0  0  0  0  0  0
   -0.3330    0.2600    0.4010 C   0  0  1  0  0  0  0  0  0  0  0  0
   -1.6380    0.3330   -0.1460 O   0  0  0  0  0  0  0  0  0  0  0  0
   -2.7480    0.2580    0.6850 C   0  0  0  0  0  0  0  0  0  0  0  0
   -2.5510    0.1260    1.9090 O   0  0  0  0  0  0  0  0  0  0  0  0
   -4.4550    0.3500    0.0130 P   0  0  0  0  0  0  0  0  0  0  0  0
   -4.4050    0.1340   -1.7020 O   0  0  0  0  0  0  0  0  0  0  0  0
   -5.4110   -0.8760    0.7640 O   0  0  0  0  0  0  0  0  0  0  0  0
    0.3160   -0.9460   -0.1590 C   0  0  0  0  0  0  0  0  0  0  0  0
   -0.3480   -2.0090   -0.3950 O   0  0  0  0  0  0  0  0  0  0  0  0
    1.7040   -1.0110   -0.4710 N   0  0  0  0  0  0  0  0  0  0  0  0
    2.3450   -2.2550   -0.8750 C   0  0  0  0  0  0  0  0  0  0  0  0
    2.8790   -3.0210    0.3190 C   0  0  0  0  0  0  0  0  0  0  0  0
    3.8200   -2.2460    0.9950 O   0  0  0  0  0  0  0  0  0  0  0  0
  1  2  2  0
  2  3  1  0
  2 18  1  0
  3  4  1  0
  4  5  1  1
  4  8  1  0
  4  9  1  0
  5  6  1  0
  6  7  1  0
  7  8  1  0
  9 10  1  6
  9 16  1  0
 10 11  1  0
 11 12  2  0
 11 13  1  0
 13 14  1  0
 13 15  1  0
 16 17  2  0
 16 18  1  0
 18 19  1  0
 19 20  1  0
 20 21  1  0
M  END
