
     RDKit          3D

 22 24  0  0  0  0  0  0  0  0999 V2000
    5.4890    1.1810   -0.4410 N   0  0  0  0  0  0  0  0  0  0  0  0
    4.8470    0.2150   -0.2770 C   0  0  0  0  0  0  0  0  0  0  0  0
    4.0410   -0.9600   -0.0600 C   0  0  0  0  0  0  0  0  0  0  0  0
    2.7200   -1.1640   -0.4000 C   0  0  0  0  0  0  0  0  0  0  0  0
    2.3360   -2.4390   -0.0100 C   0  0  0  0  0  0  0  0  0  0  0  0
    1.0220   -3.1210   -0.1570 C   0  0  0  0  0  0  0  0  0  0  0  0
    0.0320   -2.2060   -0.6700 N   0  0  0  0  0  0  0  0  0  0  0  0
   -0.3220   -1.0710    0.0900 C   0  0  0  0  0  0  0  0  0  0  0  0
    0.1960   -0.8630    1.3490 C   0  0  0  0  0  0  0  0  0  0  0  0
   -0.1370    0.2450    2.1020 C   0  0  0  0  0  0  0  0  0  0  0  0
   -1.0140    1.1630    1.5700 C   0  0  0  0  0  0  0  0  0  0  0  0
   -1.4940    2.5980    2.4500 Cl  0  0  0  0  0  0  0  0  0  0  0  0
   -1.5420    0.9680    0.3110 C   0  0  0  0  0  0  0  0  0  0  0  0
   -2.4400    1.9380   -0.1990 N   0  0  0  0  0  0  0  0  0  0  0  0
   -3.7270    2.0960    0.0370 N   0  0  0  0  0  0  0  0  0  0  0  0
   -4.2210    3.1440   -0.6460 C   0  0  0  0  0  0  0  0  0  0  0  0
   -3.1810    3.6970   -1.3700 C   0  0  0  0  0  0  0  0  0  0  0  0
   -2.0770    2.9220   -1.0710 C   0  0  0  0  0  0  0  0  0  0  0  0
   -0.9350    3.1180   -1.5440 O   0  0  0  0  0  0  0  0  0  0  0  0
   -1.2040   -0.1570   -0.4540 C   0  0  0  0  0  0  0  0  0  0  0  0
    3.4320   -2.9770    0.5570 N   0  0  0  0  0  0  0  0  0  0  0  0
    4.4340   -2.1180    0.5320 N   0  0  0  0  0  0  0  0  0  0  0  0
  1  2  3  0
  2  3  1  0
  3  4  1  0
  3 22  2  0
  4  5  2  0
  5  6  1  0
  5 21  1  0
  6  7  1  0
  7  8  1  0
  8  9  2  0
  8 20  1  0
  9 10  1  0
 10 11  2  0
 11 12  1  0
 11 13  1  0
 13 14  1  0
 13 20  2  0
 14 15  1  0
 14 18  1  0
 15 16  1  0
 16 17  2  0
 17 18  1  0
 18 19  2  0
 21 22  1  0
M  END
