
     RDKit          3D

 20 21  0  0  0  0  0  0  0  0999 V2000
   -2.7700   -2.4500    1.3100 C   0  0  0  0  0  0  0  0  0  0  0  0
   -2.2680   -1.1530    0.7440 C   0  0  0  0  0  0  0  0  0  0  0  0
   -2.9010    0.0300    1.0050 C   0  0  0  0  0  0  0  0  0  0  0  0
   -2.4230    1.2650    0.5240 C   0  0  0  0  0  0  0  0  0  0  0  0
   -3.0910    2.4390    0.8180 O   0  0  0  0  0  0  0  0  0  0  0  0
   -1.2810    1.2360   -0.2220 C   0  0  0  0  0  0  0  0  0  0  0  0
   -0.7850    2.4660   -0.8710 C   0  0  0  0  0  0  0  0  0  0  0  0
   -0.5030    3.5420    0.0240 O   0  0  0  0  0  0  0  0  0  0  0  0
   -0.6430    0.0410   -0.4880 C   0  0  0  0  0  0  0  0  0  0  0  0
    0.5200    0.0770   -1.2620 O   0  0  0  0  0  0  0  0  0  0  0  0
    1.7930    0.1360   -0.7050 C   0  0  0  0  0  0  0  0  0  0  0  0
    2.7910    0.3970   -1.5050 C   0  0  0  0  0  0  0  0  0  0  0  0
    4.1940    0.4890   -1.0330 C   0  0  0  0  0  0  0  0  0  0  0  0
    4.3390    0.2520    0.3720 O   0  0  0  0  0  0  0  0  0  0  0  0
    3.2970   -0.0220    1.2190 C   0  0  0  0  0  0  0  0  0  0  0  0
    2.0700   -0.0760    0.7010 C   0  0  0  0  0  0  0  0  0  0  0  0
    1.0170   -0.3450    1.5530 O   0  0  0  0  0  0  0  0  0  0  0  0
   -1.1280   -1.1780   -0.0100 C   0  0  0  0  0  0  0  0  0  0  0  0
   -0.4810   -2.4470   -0.3400 C   0  0  0  0  0  0  0  0  0  0  0  0
    0.6540   -2.2990   -1.1240 O   0  0  0  0  0  0  0  0  0  0  0  0
  1  2  1  0
  2  3  2  0
  2 18  1  0
  3  4  1  0
  4  5  1  0
  4  6  2  0
  6  7  1  0
  6  9  1  0
  7  8  1  0
  9 10  1  0
  9 18  2  0
 10 11  1  0
 11 12  2  0
 11 16  1  0
 12 13  1  0
 13 14  1  0
 14 15  1  0
 15 16  2  0
 16 17  1  0
 18 19  1  0
 19 20  1  0
M  END
