
     RDKit          3D

 22 24  0  0  0  0  0  0  0  0999 V2000
    5.7130   -1.8690    0.0540 C   0  0  0  0  0  0  0  0  0  0  0  0
    5.6400   -0.4560    0.1190 O   0  0  0  0  0  0  0  0  0  0  0  0
    4.3710    0.1290    0.0550 C   0  0  0  0  0  0  0  0  0  0  0  0
    3.2270   -0.6230   -0.0650 C   0  0  0  0  0  0  0  0  0  0  0  0
    1.9670   -0.0180   -0.1270 C   0  0  0  0  0  0  0  0  0  0  0  0
    1.8160    1.3490   -0.0700 C   0  0  0  0  0  0  0  0  0  0  0  0
    0.5660    2.0200   -0.1210 N   0  0  0  0  0  0  0  0  0  0  0  0
   -0.6750    1.3440   -0.1300 C   0  0  0  0  0  0  0  0  0  0  0  0
   -0.8070    0.3450    0.6650 N   0  0  0  0  0  0  0  0  0  0  0  0
   -2.0410   -0.3660    0.6900 C   0  0  0  0  0  0  0  0  0  0  0  0
   -2.0620   -1.3460    1.5220 N   0  0  0  0  0  0  0  0  0  0  0  0
   -3.1450   -2.2410    1.7770 C   0  0  0  0  0  0  0  0  0  0  0  0
   -4.3630   -2.3230    1.2690 C   0  0  0  0  0  0  0  0  0  0  0  0
   -4.9110   -1.4350    0.2480 C   0  0  0  0  0  0  0  0  0  0  0  0
   -4.3580   -0.4000   -0.3790 C   0  0  0  0  0  0  0  0  0  0  0  0
   -3.0550    0.1180   -0.2060 N   0  0  0  0  0  0  0  0  0  0  0  0
   -2.8530    1.2320   -1.0670 C   0  0  0  0  0  0  0  0  0  0  0  0
   -3.8750    1.6820   -1.9370 N   0  0  0  0  0  0  0  0  0  0  0  0
   -1.6890    1.8090   -1.0100 N   0  0  0  0  0  0  0  0  0  0  0  0
    2.9900    2.0820    0.0510 C   0  0  0  0  0  0  0  0  0  0  0  0
    4.2380    1.4990    0.1130 C   0  0  0  0  0  0  0  0  0  0  0  0
    5.6900    2.4690    0.2670 Cl  0  0  0  0  0  0  0  0  0  0  0  0
  1  2  1  0
  2  3  1  0
  3  4  2  0
  3 21  1  0
  4  5  1  0
  5  6  2  0
  6  7  1  0
  6 20  1  0
  7  8  1  0
  8  9  2  0
  8 19  1  0
  9 10  1  0
 10 11  2  0
 10 16  1  0
 11 12  1  0
 12 13  2  0
 13 14  1  0
 14 15  2  0
 15 16  1  0
 16 17  1  0
 17 18  1  0
 17 19  2  0
 20 21  2  0
 21 22  1  0
M  END
