
     RDKit          3D

 22 24  0  0  0  0  0  0  0  0999 V2000
   -3.6870    1.8670    2.4140 C   0  0  0  0  0  0  0  0  0  0  0  0
   -3.8820    0.8760    1.3370 C   0  0  0  0  0  0  0  0  0  0  0  0
   -5.1000    0.3570    1.1520 N   0  0  0  0  0  0  0  0  0  0  0  0
   -5.3130   -0.5470    0.1820 C   0  0  0  0  0  0  0  0  0  0  0  0
   -6.9180   -1.2360   -0.0690 Cl  0  0  0  0  0  0  0  0  0  0  0  0
   -4.2430   -0.9060   -0.5950 C   0  0  0  0  0  0  0  0  0  0  0  0
   -2.9950   -0.3760   -0.4060 N   0  0  0  0  0  0  0  0  0  0  0  0
   -1.9090   -0.8010   -1.2630 C   0  0  0  0  0  0  0  0  0  0  0  0
   -2.7710    0.5210    0.5510 C   0  0  0  0  0  0  0  0  0  0  0  0
   -1.7010    1.0720    0.8250 N   0  0  0  0  0  0  0  0  0  0  0  0
   -0.4040    1.0550    0.3660 C   0  0  0  0  0  0  0  0  0  0  0  0
    0.2280    2.0580   -0.3640 C   0  0  0  0  0  0  0  0  0  0  0  0
    1.5080    1.6310   -0.6090 C   0  0  0  0  0  0  0  0  0  0  0  0
    1.6240    0.3940   -0.0300 C   0  0  0  0  0  0  0  0  0  0  0  0
    2.8470   -0.4340   -0.0540 C   0  0  0  0  0  0  0  0  0  0  0  0
    2.8750   -1.6400    0.5410 N   0  0  0  0  0  0  0  0  0  0  0  0
    3.9810   -2.4160    0.5330 C   0  0  0  0  0  0  0  0  0  0  0  0
    5.1040   -1.9510   -0.1030 C   0  0  0  0  0  0  0  0  0  0  0  0
    5.0950   -0.7100   -0.7230 C   0  0  0  0  0  0  0  0  0  0  0  0
    6.2490   -0.2140   -1.3860 N   0  0  0  0  0  0  0  0  0  0  0  0
    3.9580   -0.0060   -0.6680 N   0  0  0  0  0  0  0  0  0  0  0  0
    0.4840    0.0750    0.5390 O   0  0  0  0  0  0  0  0  0  0  0  0
  1  2  1  0
  2  3  2  0
  2  9  1  0
  3  4  1  0
  4  5  1  0
  4  6  2  0
  6  7  1  0
  7  8  1  0
  7  9  1  0
  9 10  2  3
 10 11  1  0
 11 12  2  0
 11 22  1  0
 12 13  1  0
 13 14  2  0
 14 15  1  0
 14 22  1  0
 15 16  2  0
 15 21  1  0
 16 17  1  0
 17 18  2  0
 18 19  1  0
 19 20  1  0
 19 21  2  0
M  END
