
     RDKit          3D

 13 14  0  0  0  0  0  0  0  0999 V2000
   -2.2510   -0.2880   -0.9640 C   0  0  0  0  0  0  0  0  0  0  0  0
   -2.1020   -0.4440    0.5470 C   0  0  2  0  0  0  0  0  0  0  0  0
   -2.5320    0.8270    1.2400 C   0  0  0  0  0  0  0  0  0  0  0  0
   -0.8230   -0.8630    0.9100 O   0  0  0  0  0  0  0  0  0  0  0  0
    0.2810   -0.0990    0.5920 C   0  0  0  0  0  0  0  0  0  0  0  0
    0.3000    1.1630    0.4640 N   0  0  0  0  0  0  0  0  0  0  0  0
    1.5870    1.6290    0.1350 N   0  0  0  0  0  0  0  0  0  0  0  0
    2.4170    0.6570    0.0490 C   0  0  0  0  0  0  0  0  0  0  0  0
    3.7760    0.1890   -0.2040 C   0  0  0  0  0  0  0  0  0  0  0  0
    4.7560    0.8970   -0.4890 O   0  0  0  0  0  0  0  0  0  0  0  0
    3.7330   -1.2250   -0.0550 N   0  0  0  0  0  0  0  0  0  0  0  0
    2.4160   -1.5640    0.2670 N   0  0  0  0  0  0  0  0  0  0  0  0
    1.6530   -0.5570    0.3360 C   0  0  0  0  0  0  0  0  0  0  0  0
  2  1  1  6
  2  3  1  0
  2  4  1  0
  4  5  1  0
  5  6  2  0
  5 13  1  0
  6  7  1  0
  7  8  2  0
  8  9  1  0
  8 13  1  0
  9 10  2  0
  9 11  1  0
 11 12  1  0
 12 13  2  0
M  END
