
     RDKit          3D

 13 14  0  0  0  0  0  0  0  0999 V2000
    3.0210   -0.2300   -0.3100 C   0  0  0  0  0  0  0  0  0  0  0  0
    2.1080    0.0540    0.8570 C   0  0  0  0  0  0  0  0  0  0  0  0
    0.7030   -0.0720    0.4950 N   0  0  0  0  0  0  0  0  0  0  0  0
    0.0510   -1.2170    0.6040 N   0  0  0  0  0  0  0  0  0  0  0  0
   -1.2440   -1.3670    0.2800 C   0  0  0  0  0  0  0  0  0  0  0  0
   -1.8490   -2.4780    0.3930 O   0  0  0  0  0  0  0  0  0  0  0  0
   -1.9570   -0.3400   -0.1820 N   0  0  0  0  0  0  0  0  0  0  0  0
   -3.2470   -0.2320   -0.5710 C   0  0  0  0  0  0  0  0  0  0  0  0
   -3.4430    1.0440   -0.9520 N   0  0  0  0  0  0  0  0  0  0  0  0
   -2.2860    1.7130   -0.7980 C   0  0  0  0  0  0  0  0  0  0  0  0
   -1.3280    0.8450   -0.3080 C   0  0  0  0  0  0  0  0  0  0  0  0
    0.0150    0.9880    0.0320 C   0  0  0  0  0  0  0  0  0  0  0  0
    0.5910    2.0920   -0.0880 O   0  0  0  0  0  0  0  0  0  0  0  0
  1  2  1  0
  2  3  1  0
  3  4  1  0
  3 12  1  0
  4  5  1  0
  5  6  2  0
  5  7  1  0
  7  8  1  0
  7 11  1  0
  8  9  2  0
  9 10  1  0
 10 11  2  0
 11 12  1  0
 12 13  2  0
M  END
