
     RDKit          3D

 29 31  0  0  0  0  0  0  0  0999 V2000
    8.1230    1.0960    1.1500 C   0  0  0  0  0  0  0  0  0  0  0  0
    6.9670    0.8460    0.2970 N   0  0  0  0  0  0  0  0  0  0  0  0
    6.9890    0.8850   -1.0560 C   0  0  0  0  0  0  0  0  0  0  0  0
    5.7480    0.6050   -1.5290 N   0  0  0  0  0  0  0  0  0  0  0  0
    4.9270    0.3860   -0.4880 C   0  0  0  0  0  0  0  0  0  0  0  0
    3.5640    0.0640   -0.3960 C   0  0  0  0  0  0  0  0  0  0  0  0
    2.9780   -0.1030    0.8280 C   0  0  0  0  0  0  0  0  0  0  0  0
    1.6100   -0.4120    0.9880 N   0  0  0  0  0  0  0  0  0  0  0  0
    0.6330   -0.3910   -0.0270 C   0  0  0  0  0  0  0  0  0  0  0  0
    0.8950   -0.0850   -1.2020 O   0  0  0  0  0  0  0  0  0  0  0  0
   -0.7550   -0.7470    0.3170 C   0  0  0  0  0  0  0  0  0  0  0  0
   -1.0920   -1.0680    1.4850 O   0  0  0  0  0  0  0  0  0  0  0  0
   -1.7660   -0.7340   -0.6820 N   0  0  0  0  0  0  0  0  0  0  0  0
   -3.1230   -1.0570   -0.4570 C   0  0  0  0  0  0  0  0  0  0  0  0
   -3.5080   -2.3770   -0.6270 C   0  0  0  0  0  0  0  0  0  0  0  0
   -2.5790   -3.3770   -1.0210 N   0  0  0  0  0  0  0  0  0  0  0  0
   -1.6370   -3.0510   -1.7550 O   0  0  0  0  0  0  0  0  0  0  0  0
   -2.7300   -4.6740   -0.5900 O   0  0  0  0  0  0  0  0  0  0  0  0
   -4.8300   -2.7250   -0.4090 C   0  0  0  0  0  0  0  0  0  0  0  0
   -5.7350   -1.7300   -0.0220 C   0  0  0  0  0  0  0  0  0  0  0  0
   -5.3190   -0.4280    0.1390 C   0  0  0  0  0  0  0  0  0  0  0  0
   -6.2700    0.5420    0.5310 N   0  0  0  0  0  0  0  0  0  0  0  0
   -3.9980   -0.0730   -0.0780 C   0  0  0  0  0  0  0  0  0  0  0  0
   -3.5030    1.3100    0.0800 C   0  0  0  0  0  0  0  0  0  0  0  0
   -3.2860    2.0450   -1.2070 C   0  0  0  0  0  0  0  0  0  0  0  0
   -4.4950    2.1640   -1.9870 N   0  0  0  0  0  0  0  0  0  0  0  0
    3.7810    0.0560    1.9640 C   0  0  0  0  0  0  0  0  0  0  0  0
    5.1010    0.3690    1.8530 C   0  0  0  0  0  0  0  0  0  0  0  0
    5.7120    0.5420    0.6340 C   0  0  0  0  0  0  0  0  0  0  0  0
  1  2  1  0
  2  3  1  0
  2 29  1  0
  3  4  2  0
  4  5  1  0
  5  6  2  0
  5 29  1  0
  6  7  1  0
  7  8  1  0
  7 27  2  0
  8  9  1  0
  9 10  2  0
  9 11  1  0
 11 12  2  0
 11 13  1  0
 13 14  1  0
 14 15  2  0
 14 23  1  0
 15 16  1  0
 15 19  1  0
 16 17  2  0
 16 18  1  0
 19 20  2  0
 20 21  1  0
 21 22  1  0
 21 23  2  0
 23 24  1  0
 24 25  1  0
 25 26  1  0
 27 28  1  0
 28 29  2  0
M  CHG  2  16   1  18  -1
M  END
