
     RDKit          3D

 29 31  0  0  0  0  0  0  0  0999 V2000
   -8.9330    1.8990   -0.2170 C   0  0  0  0  0  0  0  0  0  0  0  0
   -7.5430    1.7400   -0.7300 C   0  0  0  0  0  0  0  0  0  0  0  0
   -7.0320    0.3610   -0.6590 C   0  0  0  0  0  0  0  0  0  0  0  0
   -7.6910   -0.8440   -0.6460 C   0  0  0  0  0  0  0  0  0  0  0  0
   -6.7650   -1.8120   -0.5730 N   0  0  0  0  0  0  0  0  0  0  0  0
   -5.5170   -1.2870   -0.5370 C   0  0  0  0  0  0  0  0  0  0  0  0
   -4.2380   -1.8360   -0.4560 C   0  0  0  0  0  0  0  0  0  0  0  0
   -3.1150   -1.0420   -0.4250 C   0  0  0  0  0  0  0  0  0  0  0  0
   -1.8270   -1.6270   -0.3570 N   0  0  0  0  0  0  0  0  0  0  0  0
   -0.7750   -1.0080    0.3900 C   0  0  0  0  0  0  0  0  0  0  0  0
   -0.9880    0.0650    0.9970 O   0  0  0  0  0  0  0  0  0  0  0  0
    0.5300   -1.5470    0.4950 N   0  0  0  0  0  0  0  0  0  0  0  0
    1.4990   -0.9110    1.2490 N   0  0  0  0  0  0  0  0  0  0  0  0
    2.7300   -0.4090    0.7750 C   0  0  0  0  0  0  0  0  0  0  0  0
    2.9620   -0.5570   -0.4660 O   0  0  0  0  0  0  0  0  0  0  0  0
    3.6520    0.2250    1.6490 N   0  0  0  0  0  0  0  0  0  0  0  0
    4.8680    0.7080    1.1120 N   0  0  0  0  0  0  0  0  0  0  0  0
    5.6710   -0.2080    0.6550 C   0  0  0  0  0  0  0  0  0  0  0  0
    6.9360    0.1660    0.0840 C   0  0  0  0  0  0  0  0  0  0  0  0
    7.9230   -0.6600   -0.4560 C   0  0  0  0  0  0  0  0  0  0  0  0
    7.7710   -2.1390   -0.4890 C   0  0  0  0  0  0  0  0  0  0  0  0
    8.8760    0.1070   -0.8620 O   0  0  0  0  0  0  0  0  0  0  0  0
    8.5900    1.3720   -0.6300 N   0  0  0  0  0  0  0  0  0  0  0  0
    9.3820    2.4580   -0.9410 O   0  0  0  0  0  0  0  0  0  0  0  0
    7.3900    1.4740   -0.0400 C   0  0  0  0  0  0  0  0  0  0  0  0
    6.6310    2.6720    0.4140 C   0  0  0  0  0  0  0  0  0  0  0  0
   -3.2780    0.3200   -0.4780 C   0  0  0  0  0  0  0  0  0  0  0  0
   -4.5650    0.8760   -0.5620 C   0  0  0  0  0  0  0  0  0  0  0  0
   -5.6630    0.0610   -0.5880 C   0  0  0  0  0  0  0  0  0  0  0  0
  1  2  1  0
  2  3  1  0
  3  4  2  0
  3 29  1  0
  4  5  1  0
  5  6  1  0
  6  7  2  0
  6 29  1  0
  7  8  1  0
  8  9  1  0
  8 27  2  0
  9 10  1  0
 10 11  2  0
 10 12  1  0
 12 13  1  0
 13 14  1  0
 14 15  2  0
 14 16  1  0
 16 17  1  0
 17 18  2  3
 18 19  1  0
 19 20  2  0
 19 25  1  0
 20 21  1  0
 20 22  1  0
 22 23  1  0
 23 24  1  0
 23 25  2  0
 25 26  1  0
 27 28  1  0
 28 29  2  0
M  CHG  2  23   1  24  -1
M  END
