
     RDKit          3D

 29 31  0  0  0  0  0  0  0  0999 V2000
   -5.4430    1.5410   -4.2990 C   0  0  0  0  0  0  0  0  0  0  0  0
   -4.0210    1.6610   -4.0380 C   0  0  0  0  0  0  0  0  0  0  0  0
   -3.3790    1.3610   -2.9710 C   0  0  0  0  0  0  0  0  0  0  0  0
   -3.9230    0.8200   -1.7440 C   0  0  0  0  0  0  0  0  0  0  0  0
   -5.1890    0.5300   -1.4790 N   0  0  0  0  0  0  0  0  0  0  0  0
   -5.2450    0.0440   -0.2000 C   0  0  0  0  0  0  0  0  0  0  0  0
   -3.9960    0.0320    0.3370 C   0  0  0  0  0  0  0  0  0  0  0  0
   -3.1420    0.5160   -0.6150 C   0  0  0  0  0  0  0  0  0  0  0  0
   -1.7490    0.6980   -0.5350 N   0  0  0  0  0  0  0  0  0  0  0  0
   -1.0700    0.3520    0.6230 N   0  0  0  0  0  0  0  0  0  0  0  0
    0.2860   -0.0770    0.6410 C   0  0  0  0  0  0  0  0  0  0  0  0
    0.9020   -0.1480   -0.4330 O   0  0  0  0  0  0  0  0  0  0  0  0
    0.9550   -0.4250    1.8420 N   0  0  0  0  0  0  0  0  0  0  0  0
    2.2780   -0.8500    1.9200 N   0  0  0  0  0  0  0  0  0  0  0  0
    3.3610   -0.0760    1.3640 C   0  0  0  0  0  0  0  0  0  0  0  0
    3.0520    0.9740    0.8190 O   0  0  0  0  0  0  0  0  0  0  0  0
    4.7030   -0.5100    1.4460 N   0  0  0  0  0  0  0  0  0  0  0  0
    5.8400    0.1480    0.9490 C   0  0  0  0  0  0  0  0  0  0  0  0
    5.7970    1.3960    0.3910 C   0  0  0  0  0  0  0  0  0  0  0  0
    6.9240    2.0740   -0.0750 C   0  0  0  0  0  0  0  0  0  0  0  0
    8.1440    1.4650    0.0280 C   0  0  0  0  0  0  0  0  0  0  0  0
    8.2290    0.2200    0.5780 C   0  0  0  0  0  0  0  0  0  0  0  0
    7.0820   -0.4450    1.0410 C   0  0  0  0  0  0  0  0  0  0  0  0
    7.3240   -1.7220    1.5800 N   0  0  0  0  0  0  0  0  0  0  0  0
    8.4540   -1.9270    2.1330 O   0  0  0  0  0  0  0  0  0  0  0  0
    6.4690   -2.7900    1.5890 O   0  0  0  0  0  0  0  0  0  0  0  0
   -4.0520   -0.4950    1.7290 C   0  0  0  0  0  0  0  0  0  0  0  0
   -5.4870   -0.8710    1.9560 C   0  0  0  0  0  0  0  0  0  0  0  0
   -6.2630   -0.4660    0.7500 C   0  0  0  0  0  0  0  0  0  0  0  0
  1  2  1  0
  2  3  2  3
  3  4  1  0
  4  5  1  0
  4  8  2  0
  5  6  1  0
  6  7  2  0
  6 29  1  0
  7  8  1  0
  7 27  1  0
  8  9  1  0
  9 10  1  0
 10 11  1  0
 11 12  2  0
 11 13  1  0
 13 14  1  0
 14 15  1  0
 15 16  2  0
 15 17  1  0
 17 18  1  0
 18 19  2  0
 18 23  1  0
 19 20  1  0
 20 21  2  0
 21 22  1  0
 22 23  2  0
 23 24  1  0
 24 25  2  0
 24 26  1  0
 27 28  1  0
 28 29  1  0
M  CHG  2  24   1  26  -1
M  END
