
     RDKit          3D

 33 35  0  0  0  0  0  0  0  0999 V2000
   -5.9830    3.0680    0.0870 C   0  0  0  0  0  0  0  0  0  0  0  0
   -5.5230    1.8550    0.2990 C   0  0  0  0  0  0  0  0  0  0  0  0
   -6.0470    1.0460    1.2970 O   0  0  0  0  0  0  0  0  0  0  0  0
   -5.5560   -0.2160    1.5050 N   0  0  0  0  0  0  0  0  0  0  0  0
   -4.4980   -0.7610    0.7250 C   0  0  0  0  0  0  0  0  0  0  0  0
   -3.9290   -0.0460   -0.2570 C   0  0  0  0  0  0  0  0  0  0  0  0
   -4.4360    1.3010   -0.5060 C   0  0  0  0  0  0  0  0  0  0  0  0
   -3.9090    1.9820   -1.5040 C   0  0  0  0  0  0  0  0  0  0  0  0
   -2.8670   -0.8000   -0.8080 N   0  0  0  0  0  0  0  0  0  0  0  0
   -1.6160   -0.3800   -1.2350 C   0  0  0  0  0  0  0  0  0  0  0  0
   -0.8860   -1.2920   -1.7950 O   0  0  0  0  0  0  0  0  0  0  0  0
   -1.0170    0.8440   -1.1550 O   0  0  0  0  0  0  0  0  0  0  0  0
    0.2300    1.0790   -1.6220 O   0  0  0  0  0  0  0  0  0  0  0  0
    1.3120    1.3810   -0.8010 C   0  0  0  0  0  0  0  0  0  0  0  0
    1.6140    2.6590   -0.3400 C   0  0  0  0  0  0  0  0  0  0  0  0
    2.7140    2.5740    0.4180 N   0  0  0  0  0  0  0  0  0  0  0  0
    3.0970    1.2800    0.4370 C   0  0  0  0  0  0  0  0  0  0  0  0
    4.2330    0.7430    1.1320 N   0  0  0  0  0  0  0  0  0  0  0  0
    5.7840    0.6650    0.2770 P   0  0  0  0  0  0  0  0  0  0  0  0
    6.7700   -0.7430    0.7640 N   0  0  0  0  0  0  0  0  0  0  0  0
    6.7280    2.2200    0.3620 C   0  0  0  0  0  0  0  0  0  0  0  0
    7.8810    2.2670    0.8570 O   0  0  0  0  0  0  0  0  0  0  0  0
    6.1760    3.3920   -0.1270 O   0  0  0  0  0  0  0  0  0  0  0  0
    2.2410    0.5510   -0.3080 N   0  0  0  0  0  0  0  0  0  0  0  0
    2.3290   -0.8770   -0.5250 C   0  0  1  0  0  0  0  0  0  0  0  0
    3.6690   -1.2750   -0.6590 O   0  0  0  0  0  0  0  0  0  0  0  0
    1.4800   -1.8450    0.8160 P   0  0  0  0  0  0  0  0  0  0  0  0
    0.6400   -3.2060    0.1080 O   0  0  0  0  0  0  0  0  0  0  0  0
    2.7000   -2.4850    1.9010 O   0  0  0  0  0  0  0  0  0  0  0  0
    3.3740   -3.4300    1.2880 O   0  0  0  0  0  0  0  0  0  0  0  0
   -3.3370   -2.1990   -0.7240 C   0  0  0  0  0  0  0  0  0  0  0  0
   -3.8390   -2.1200    0.7340 C   0  0  2  0  0  0  0  0  0  0  0  0
   -4.7540   -3.1310    0.9090 O   0  0  0  0  0  0  0  0  0  0  0  0
  1  2  2  0
  2  3  1  0
  2  7  1  0
  3  4  1  0
  4  5  1  0
  5  6  2  0
  5 32  1  0
  6  7  1  0
  6  9  1  0
  7  8  2  0
  9 10  1  0
  9 31  1  0
 10 11  2  0
 10 12  1  0
 12 13  1  0
 13 14  1  0
 14 15  2  0
 14 24  1  0
 15 16  1  0
 16 17  2  0
 17 18  1  0
 17 24  1  0
 18 19  1  0
 19 20  1  0
 19 21  1  0
 21 22  2  0
 21 23  1  0
 24 25  1  0
 25 26  1  1
 25 27  1  0
 27 28  1  0
 27 29  1  0
 29 30  1  0
 31 32  1  0
 32 33  1  6
M  END
