
     RDKit          3D

 34 34  0  0  0  0  0  0  0  0999 V2000
   -4.8640    3.7220    0.9660 C   0  0  0  0  0  0  0  0  0  0  0  0
   -3.9060    2.8650    0.1490 C   0  0  1  0  0  0  0  0  0  0  0  0
   -4.6700    2.3300   -1.0440 C   0  0  0  0  0  0  0  0  0  0  0  0
   -2.6850    3.6520   -0.2630 C   0  0  0  0  0  0  0  0  0  0  0  0
   -3.4800    1.7930    1.0000 O   0  0  0  0  0  0  0  0  0  0  0  0
   -2.5910    0.8330    0.5340 C   0  0  0  0  0  0  0  0  0  0  0  0
   -2.1800    0.9290   -0.6330 O   0  0  0  0  0  0  0  0  0  0  0  0
   -2.2000   -0.2420    1.4740 C   0  0  1  0  0  0  0  0  0  0  0  0
   -3.4470   -0.9910    1.9100 C   0  0  0  0  0  0  0  0  0  0  0  0
   -4.0070   -1.5980    0.7900 O   0  0  0  0  0  0  0  0  0  0  0  0
   -5.4410   -2.4680    1.2440 P   0  0  0  0  0  0  0  0  0  0  0  0
   -6.6440   -2.1850    0.0370 O   0  0  0  0  0  0  0  0  0  0  0  0
   -5.0940   -4.1820    1.2740 O   0  0  0  0  0  0  0  0  0  0  0  0
   -1.3050   -1.1590    0.9150 O   0  0  0  0  0  0  0  0  0  0  0  0
   -0.0580   -1.4090    1.4510 C   0  0  0  0  0  0  0  0  0  0  0  0
    0.2940   -0.7930    2.4800 O   0  0  0  0  0  0  0  0  0  0  0  0
    0.8690   -2.3660    0.8640 C   0  0  1  0  0  0  0  0  0  0  0  0
    0.3690   -3.0060   -0.2970 O   0  0  0  0  0  0  0  0  0  0  0  0
    1.3400   -3.2970   -1.2490 C   0  0  0  0  0  0  0  0  0  0  0  0
    1.0700   -3.4240   -2.4820 O   0  0  0  0  0  0  0  0  0  0  0  0
    2.7800   -3.4780   -0.8580 C   0  0  2  0  0  0  0  0  0  0  0  0
    3.7050   -3.0310   -1.9660 C   0  0  0  0  0  0  0  0  0  0  0  0
    3.0260   -4.9680   -0.6400 C   0  0  0  0  0  0  0  0  0  0  0  0
    3.0880   -2.7350    0.2780 O   0  0  0  0  0  0  0  0  0  0  0  0
    2.1630   -1.6870    0.3820 C   0  0  2  0  0  0  0  0  0  0  0  0
    2.5600   -0.6910    1.2160 O   0  0  0  0  0  0  0  0  0  0  0  0
    2.7060    0.5040    0.5330 C   0  0  0  0  0  0  0  0  0  0  0  0
    3.7590    0.4640   -0.5510 C   0  0  2  0  0  0  0  0  0  0  0  0
    5.0130    0.1510   -0.0270 O   0  0  0  0  0  0  0  0  0  0  0  0
    3.7710    1.8760   -1.1490 C   0  0  0  0  0  0  0  0  0  0  0  0
    4.0970    2.7570   -0.1220 O   0  0  0  0  0  0  0  0  0  0  0  0
    4.1380    4.3760   -0.6900 P   0  0  0  0  0  0  0  0  0  0  0  0
    5.5280    4.5880   -1.7170 O   0  0  0  0  0  0  0  0  0  0  0  0
    4.3670    5.4260    0.6850 O   0  0  0  0  0  0  0  0  0  0  0  0
  2  1  1  1
  2  3  1  0
  2  4  1  0
  2  5  1  0
  5  6  1  0
  6  7  2  0
  6  8  1  0
  8  9  1  6
  8 14  1  0
  9 10  1  0
 10 11  1  0
 11 12  1  0
 11 13  1  0
 14 15  1  0
 15 16  2  0
 17 15  1  6
 17 18  1  0
 17 25  1  0
 18 19  1  0
 19 20  2  0
 19 21  1  0
 21 22  1  6
 21 23  1  0
 21 24  1  0
 24 25  1  0
 25 26  1  1
 26 27  1  0
 27 28  1  0
 28 29  1  1
 28 30  1  0
 30 31  1  0
 31 32  1  0
 32 33  1  0
 32 34  1  0
M  END
