
     RDKit          3D

 35 36  0  0  0  0  0  0  0  0999 V2000
   -3.9790    2.5090    3.2440 C   0  0  0  0  0  0  0  0  0  0  0  0
   -3.7980    1.9030    1.9700 O   0  0  0  0  0  0  0  0  0  0  0  0
   -2.5740    1.8750    1.3210 C   0  0  0  0  0  0  0  0  0  0  0  0
   -1.6060    2.4190    1.9130 O   0  0  0  0  0  0  0  0  0  0  0  0
   -2.3780    1.2460   -0.0060 C   0  0  1  0  0  0  0  0  0  0  0  0
   -2.7010   -0.2120   -0.0110 C   0  0  1  0  0  0  0  0  0  0  0  0
   -2.5260   -0.8180   -1.2290 O   0  0  0  0  0  0  0  0  0  0  0  0
   -3.3920   -1.9210   -1.2720 C   0  0  0  0  0  0  0  0  0  0  0  0
   -3.7850   -2.3900    0.0950 C   0  0  0  0  0  0  0  0  0  0  0  0
   -2.7690   -2.1190    1.1550 C   0  0  0  0  0  0  0  0  0  0  0  0
   -2.0430   -0.9500    0.9510 O   0  0  0  0  0  0  0  0  0  0  0  0
   -3.3220    1.9250   -0.9930 C   0  0  0  0  0  0  0  0  0  0  0  0
   -2.6600    1.9670   -2.2350 O   0  0  0  0  0  0  0  0  0  0  0  0
   -1.3230    1.6420   -2.0430 C   0  0  0  0  0  0  0  0  0  0  0  0
   -0.4880    1.4360   -2.9480 O   0  0  0  0  0  0  0  0  0  0  0  0
   -1.0220    1.5730   -0.5910 C   0  0  2  0  0  0  0  0  0  0  0  0
   -0.1000    0.5260   -0.3910 O   0  0  0  0  0  0  0  0  0  0  0  0
    1.2160    0.5180   -0.8040 C   0  0  0  0  0  0  0  0  0  0  0  0
    1.6180    1.5360   -1.4070 O   0  0  0  0  0  0  0  0  0  0  0  0
    2.1430   -0.6040   -0.5720 C   0  0  1  0  0  0  0  0  0  0  0  0
    3.2150   -0.1840    0.4010 C   0  0  0  0  0  0  0  0  0  0  0  0
    4.0050    0.9590   -0.1080 C   0  0  0  0  0  0  0  0  0  0  0  0
    5.3760    1.4350    1.0770 P   0  0  0  0  0  0  0  0  0  0  0  0
    6.9280    1.1350    0.4160 O   0  0  0  0  0  0  0  0  0  0  0  0
    5.0840    0.5580    3.0490 P   0  0  0  0  0  0  0  0  0  0  0  0
    5.7100   -1.0430    3.1490 O   0  0  0  0  0  0  0  0  0  0  0  0
    5.9030    1.5520    4.2200 O   0  0  0  0  0  0  0  0  0  0  0  0
    1.4570   -1.7010   -0.0060 O   0  0  0  0  0  0  0  0  0  0  0  0
    1.5910   -2.8150   -0.7990 C   0  0  0  0  0  0  0  0  0  0  0  0
    0.9720   -2.6400   -2.1400 C   0  0  0  0  0  0  0  0  0  0  0  0
    1.1220   -3.7960   -2.9300 O   0  0  0  0  0  0  0  0  0  0  0  0
    0.5780   -3.6310   -4.0990 O   0  0  0  0  0  0  0  0  0  0  0  0
   -0.5280    2.8900   -0.1350 C   0  0  0  0  0  0  0  0  0  0  0  0
    0.5730    3.1220    0.3900 O   0  0  0  0  0  0  0  0  0  0  0  0
   -1.3770    3.9920   -0.3100 O   0  0  0  0  0  0  0  0  0  0  0  0
  1  2  1  0
  2  3  1  0
  3  4  2  0
  5  3  1  1
  5  6  1  0
  5 12  1  0
  5 16  1  0
  6  7  1  6
  6 11  1  0
  7  8  1  0
  8  9  1  0
  9 10  1  0
 10 11  1  0
 12 13  1  0
 13 14  1  0
 14 15  2  0
 14 16  1  0
 16 17  1  6
 16 33  1  0
 17 18  1  0
 18 19  2  0
 18 20  1  0
 20 21  1  1
 20 28  1  0
 21 22  1  0
 22 23  1  0
 23 24  1  0
 23 25  1  0
 25 26  1  0
 25 27  1  0
 28 29  1  0
 29 30  1  0
 30 31  1  0
 31 32  1  0
 33 34  2  0
 33 35  1  0
M  END
