
     RDKit          3D

 35 36  0  0  0  0  0  0  0  0999 V2000
   -6.6200    2.2870   -1.7390 C   0  0  0  0  0  0  0  0  0  0  0  0
   -5.3230    1.9380   -1.3080 O   0  0  0  0  0  0  0  0  0  0  0  0
   -4.7470    0.7710   -1.7830 C   0  0  0  0  0  0  0  0  0  0  0  0
   -5.4360    0.0770   -2.5900 O   0  0  0  0  0  0  0  0  0  0  0  0
   -3.3850    0.3340   -1.3780 C   0  0  2  0  0  0  0  0  0  0  0  0
   -3.0480   -0.9580   -2.0560 C   0  0  0  0  0  0  0  0  0  0  0  0
   -3.2960    0.2020    0.1450 C   0  0  0  0  0  0  0  0  0  0  0  0
   -2.0570   -0.1950    0.4900 O   0  0  0  0  0  0  0  0  0  0  0  0
   -1.6840   -0.3770    1.7610 C   0  0  2  0  0  0  0  0  0  0  0  0
   -2.1070   -1.6120    2.4240 C   0  0  2  0  0  0  0  0  0  0  0  0
   -1.5560   -2.8200    1.6200 C   0  0  0  0  0  0  0  0  0  0  0  0
   -2.7680   -2.7070    0.8840 O   0  0  0  0  0  0  0  0  0  0  0  0
   -3.3410   -2.3520    2.1040 C   0  0  0  0  0  0  0  0  0  0  0  0
   -1.8480    0.8050    2.4980 O   0  0  0  0  0  0  0  0  0  0  0  0
   -0.9080    1.7030    2.0560 C   0  0  0  0  0  0  0  0  0  0  0  0
    0.2100    0.8040    1.5330 C   0  0  2  0  0  0  0  0  0  0  0  0
    1.4700    1.1990    2.2230 C   0  0  0  0  0  0  0  0  0  0  0  0
    1.4800    1.1410    3.6050 O   0  0  0  0  0  0  0  0  0  0  0  0
    1.2990    0.0620    4.4160 C   0  0  0  0  0  0  0  0  0  0  0  0
    1.0950   -1.0500    3.9050 O   0  0  0  0  0  0  0  0  0  0  0  0
    1.3470    0.2310    5.7920 O   0  0  0  0  0  0  0  0  0  0  0  0
    0.4160    1.0970    0.0760 C   0  0  0  0  0  0  0  0  0  0  0  0
    0.8090    2.2400   -0.2530 O   0  0  0  0  0  0  0  0  0  0  0  0
    0.1870    0.1610   -0.8910 O   0  0  0  0  0  0  0  0  0  0  0  0
    0.3740    0.4110   -2.2890 C   0  0  0  0  0  0  0  0  0  0  0  0
    1.7270    0.7580   -2.4810 O   0  0  0  0  0  0  0  0  0  0  0  0
    2.7800   -0.5060   -1.9770 P   0  0  0  0  0  0  0  0  0  0  0  0
    3.3400   -1.4870   -3.2680 O   0  0  0  0  0  0  0  0  0  0  0  0
    4.3710    0.1940   -0.6630 P   0  0  0  0  0  0  0  0  0  0  0  0
    5.1010   -1.1820    0.1050 O   0  0  0  0  0  0  0  0  0  0  0  0
    5.6140    1.1350   -1.6400 C   0  0  0  0  0  0  0  0  0  0  0  0
    6.9870    0.7790   -1.1700 C   0  0  0  0  0  0  0  0  0  0  0  0
    7.2660   -0.5790   -1.3150 O   0  0  0  0  0  0  0  0  0  0  0  0
    8.4650   -0.8860   -0.9040 O   0  0  0  0  0  0  0  0  0  0  0  0
   -0.2210   -0.4770    1.7440 O   0  0  0  0  0  0  0  0  0  0  0  0
  1  2  1  0
  2  3  1  0
  3  4  2  0
  3  5  1  0
  5  6  1  6
  5  7  1  0
  7  8  1  0
  9  8  1  6
  9 10  1  0
  9 14  1  0
  9 35  1  0
 10 11  1  6
 10 13  1  0
 11 12  1  0
 12 13  1  0
 14 15  1  0
 15 16  1  0
 16 17  1  1
 16 22  1  0
 16 35  1  0
 17 18  1  0
 18 19  1  0
 19 20  2  0
 19 21  1  0
 22 23  2  0
 22 24  1  0
 24 25  1  0
 25 26  1  0
 26 27  1  0
 27 28  1  0
 27 29  1  0
 29 30  1  0
 29 31  1  0
 31 32  1  0
 32 33  1  0
 33 34  1  0
M  END
