
     RDKit          3D

 34 35  0  0  0  0  0  0  0  0999 V2000
   -0.2750    5.1000    1.9190 C   0  0  0  0  0  0  0  0  0  0  0  0
   -0.5890    3.7890    1.6650 O   0  0  0  0  0  0  0  0  0  0  0  0
   -0.3580    3.4650   -0.0210 P   0  0  0  0  0  0  0  0  0  0  0  0
   -1.0870    4.7410   -0.9400 O   0  0  0  0  0  0  0  0  0  0  0  0
   -0.3350    4.9840   -2.0160 O   0  0  0  0  0  0  0  0  0  0  0  0
   -1.2360    5.1240   -2.9980 O   0  0  0  0  0  0  0  0  0  0  0  0
   -1.1400    1.8560   -0.4980 C   0  0  0  0  0  0  0  0  0  0  0  0
   -2.2330    1.9390   -1.0740 O   0  0  0  0  0  0  0  0  0  0  0  0
   -0.4740    0.6220   -0.1820 N   0  0  0  0  0  0  0  0  0  0  0  0
    0.7210    0.7360    0.3760 O   0  0  0  0  0  0  0  0  0  0  0  0
    1.6250   -0.2700    0.3120 C   0  0  2  0  0  0  0  0  0  0  0  0
    1.6770   -0.8960    1.5420 O   0  0  0  0  0  0  0  0  0  0  0  0
    2.9460    0.2540    0.0030 N   0  0  0  0  0  0  0  0  0  0  0  0
    4.0190   -0.6640    0.0570 C   0  0  2  0  0  0  0  0  0  0  0  0
    4.4260   -1.1740    1.3990 C   0  0  0  0  0  0  0  0  0  0  0  0
    5.5120    0.0930   -0.7730 P   0  0  0  0  0  0  0  0  0  0  0  0
    5.8310   -0.7370   -2.4110 C   0  0  0  0  0  0  0  0  0  0  0  0
    6.9160    0.0650    0.1970 O   0  0  0  0  0  0  0  0  0  0  0  0
    1.2580   -1.2600   -0.6830 N   0  0  0  0  0  0  0  0  0  0  0  0
   -0.0820   -1.6000   -0.8650 C   0  0  0  0  0  0  0  0  0  0  0  0
   -0.3950   -3.0240   -1.5810 S   0  0  0  0  0  0  0  0  0  0  0  0
   -1.1560   -0.6550   -0.4500 C   0  0  2  0  0  0  0  0  0  0  0  0
   -2.0650   -0.5720   -1.6060 C   0  0  0  0  0  0  0  0  0  0  0  0
   -1.7120    0.0730   -2.6060 O   0  0  0  0  0  0  0  0  0  0  0  0
   -3.3070   -1.2250   -1.5770 N   0  0  0  0  0  0  0  0  0  0  0  0
   -4.0900   -1.3550   -2.6800 O   0  0  0  0  0  0  0  0  0  0  0  0
   -3.4900   -1.0510   -3.8210 N   0  0  0  0  0  0  0  0  0  0  0  0
   -3.8760   -1.8310   -0.3860 C   0  0  0  0  0  0  0  0  0  0  0  0
   -2.9190   -2.0280    0.7390 C   0  0  1  0  0  0  0  0  0  0  0  0
   -2.3710   -3.4320    0.8730 C   0  0  0  0  0  0  0  0  0  0  0  0
   -1.8170   -1.0400    0.8550 C   0  0  2  0  0  0  0  0  0  0  0  0
   -2.2780    0.1910    1.5900 C   0  0  0  0  0  0  0  0  0  0  0  0
   -2.9020   -0.1760    2.9190 C   0  0  0  0  0  0  0  0  0  0  0  0
   -2.0230   -0.8600    3.7220 O   0  0  0  0  0  0  0  0  0  0  0  0
  1  2  1  0
  2  3  1  0
  3  4  1  0
  3  7  1  0
  4  5  1  0
  5  6  1  0
  7  8  2  0
  7  9  1  0
  9 10  1  0
 22  9  1  1
 10 11  1  0
 11 12  1  1
 11 13  1  0
 11 19  1  0
 13 14  1  0
 14 15  1  1
 14 16  1  0
 16 17  1  0
 16 18  1  0
 19 20  1  0
 20 21  2  0
 20 22  1  0
 22 23  1  0
 22 31  1  0
 23 24  2  0
 23 25  1  0
 25 26  1  0
 25 28  1  0
 26 27  1  0
 28 29  1  0
 29 30  1  6
 29 31  1  0
 31 32  1  6
 32 33  1  0
 33 34  1  0
M  END
