
     RDKit          3D

 21 21  0  0  0  0  0  0  0  0999 V2000
   -3.9640   -4.2620    0.4750 C   0  0  0  0  0  0  0  0  0  0  0  0
   -2.7260   -3.6220    0.6100 O   0  0  0  0  0  0  0  0  0  0  0  0
   -2.2880   -2.6300   -0.2420 C   0  0  0  0  0  0  0  0  0  0  0  0
   -3.0320   -2.2860   -1.1790 O   0  0  0  0  0  0  0  0  0  0  0  0
   -1.0340   -2.0070   -0.0750 N   0  0  0  0  0  0  0  0  0  0  0  0
   -0.5330   -0.9650   -0.9400 C   0  0  1  0  0  0  0  0  0  0  0  0
   -0.3710   -1.5060   -2.2010 F   0  0  0  0  0  0  0  0  0  0  0  0
   -1.4110    0.1100   -1.0360 O   0  0  0  0  0  0  0  0  0  0  0  0
   -1.3320    0.9470   -0.0250 O   0  0  0  0  0  0  0  0  0  0  0  0
   -0.0980    1.3890    0.4270 C   0  0  0  0  0  0  0  0  0  0  0  0
    0.0440    2.5400    1.0820 C   0  0  0  0  0  0  0  0  0  0  0  0
   -1.1280    3.3560    1.3320 C   0  0  0  0  0  0  0  0  0  0  0  0
   -1.0260    4.4960    1.9750 C   0  0  0  0  0  0  0  0  0  0  0  0
   -2.1520    5.2530    2.2000 O   0  0  0  0  0  0  0  0  0  0  0  0
    1.0230    0.5560    0.1590 N   0  0  0  0  0  0  0  0  0  0  0  0
    0.8130   -0.5370   -0.4770 C   0  0  0  0  0  0  0  0  0  0  0  0
    1.8840   -1.3560   -0.7450 O   0  0  0  0  0  0  0  0  0  0  0  0
    3.2200   -1.0720   -0.3730 C   0  0  0  0  0  0  0  0  0  0  0  0
    3.7270    0.2150   -0.9850 C   0  0  0  0  0  0  0  0  0  0  0  0
    3.6870    0.1420   -2.3760 O   0  0  0  0  0  0  0  0  0  0  0  0
    4.1310    1.2680   -2.8920 O   0  0  0  0  0  0  0  0  0  0  0  0
  1  2  1  0
  2  3  1  0
  3  4  2  0
  3  5  1  0
  5  6  1  0
  6  7  1  6
  6  8  1  0
  6 16  1  0
  8  9  1  0
  9 10  1  0
 10 11  2  3
 10 15  1  0
 11 12  1  0
 12 13  2  3
 13 14  1  0
 15 16  2  0
 16 17  1  0
 17 18  1  0
 18 19  1  0
 19 20  1  0
 20 21  1  0
M  END
