
     RDKit          3D

 24 26  0  0  0  0  0  0  0  0999 V2000
    6.3350    0.1260    0.3640 O   0  0  0  0  0  0  0  0  0  0  0  0
    6.1350    0.5840   -0.7950 C   0  0  0  0  0  0  0  0  0  0  0  0
    7.1560    1.1380   -1.5700 O   0  0  0  0  0  0  0  0  0  0  0  0
    8.3800    1.1500   -0.9880 O   0  0  0  0  0  0  0  0  0  0  0  0
    4.8170    0.5020   -1.2630 O   0  0  0  0  0  0  0  0  0  0  0  0
    3.8280   -0.0380   -0.5070 O   0  0  0  0  0  0  0  0  0  0  0  0
    2.7410    0.7510   -0.1680 C   0  0  0  0  0  0  0  0  0  0  0  0
    2.7650    1.9510   -0.6100 O   0  0  0  0  0  0  0  0  0  0  0  0
    1.6680    0.2730    0.6150 N   0  0  0  0  0  0  0  0  0  0  0  0
    1.6910   -1.0830    1.0860 C   0  0  0  0  0  0  0  0  0  0  0  0
    0.5600   -1.8230    0.4360 C   0  0  0  0  0  0  0  0  0  0  0  0
   -0.6340   -1.0160    0.2650 N   0  0  0  0  0  0  0  0  0  0  0  0
   -1.8120   -1.6990   -0.1620 C   0  0  0  0  0  0  0  0  0  0  0  0
   -1.8430   -3.0660   -0.4080 O   0  0  0  0  0  0  0  0  0  0  0  0
   -2.8890   -1.0390   -0.3290 N   0  0  0  0  0  0  0  0  0  0  0  0
   -2.9730    0.3680   -0.1060 C   0  0  2  0  0  0  0  0  0  0  0  0
   -4.1230    0.5840    0.8930 C   0  0  0  0  0  0  0  0  0  0  0  0
   -5.3000    0.1330    0.0560 C   0  0  0  0  0  0  0  0  0  0  0  0
   -4.9690    0.7300   -1.2420 N   0  0  0  0  0  0  0  0  0  0  0  0
   -3.5780    0.9760   -1.3120 C   0  0  0  0  0  0  0  0  0  0  0  0
   -2.9650    1.5850   -2.2090 O   0  0  0  0  0  0  0  0  0  0  0  0
   -1.7830    1.0180    0.3180 N   0  0  0  0  0  0  0  0  0  0  0  0
   -0.6880    0.3850    0.4950 C   0  0  0  0  0  0  0  0  0  0  0  0
    0.5580    1.1150    0.9480 C   0  0  0  0  0  0  0  0  0  0  0  0
  1  2  2  0
  2  3  1  0
  2  5  1  0
  3  4  1  0
  5  6  1  0
  6  7  1  0
  7  8  2  0
  7  9  1  0
  9 10  1  0
  9 24  1  0
 10 11  1  0
 11 12  1  0
 12 13  1  0
 12 23  1  0
 13 14  1  0
 13 15  2  0
 15 16  1  0
 16 17  1  1
 16 20  1  0
 16 22  1  0
 17 18  1  0
 18 19  1  0
 19 20  1  0
 20 21  2  0
 22 23  2  0
 23 24  1  0
M  END
