
     RDKit          3D

 23 24  0  0  0  0  0  0  0  0999 V2000
    6.3590    0.4720   -1.2010 C   0  0  0  0  0  0  0  0  0  0  0  0
    5.1300    0.8060   -1.9110 N   0  0  0  0  0  0  0  0  0  0  0  0
    3.8990    0.9450   -1.2140 C   0  0  0  0  0  0  0  0  0  0  0  0
    3.9150    0.7690    0.0310 O   0  0  0  0  0  0  0  0  0  0  0  0
    2.6700    1.2850   -1.9620 C   0  0  0  0  0  0  0  0  0  0  0  0
    1.5140    1.3890   -1.1200 N   0  0  0  0  0  0  0  0  0  0  0  0
    1.1030    0.2570   -0.3630 C   0  0  0  0  0  0  0  0  0  0  0  0
    1.7380   -0.8490   -0.4150 O   0  0  0  0  0  0  0  0  0  0  0  0
   -0.0310    0.2800    0.4940 N   0  0  0  0  0  0  0  0  0  0  0  0
   -0.4310   -0.8930    1.2590 C   0  0  1  0  0  0  0  0  0  0  0  0
   -0.4410   -0.4900    2.6820 C   0  0  0  0  0  0  0  0  0  0  0  0
    0.5460    0.0060    3.2780 O   0  0  0  0  0  0  0  0  0  0  0  0
   -1.7250   -0.7660    3.2020 N   0  0  0  0  0  0  0  0  0  0  0  0
   -2.4700   -1.5750    2.2720 C   0  0  0  0  0  0  0  0  0  0  0  0
   -3.3810   -2.4310    2.0110 N   0  0  0  0  0  0  0  0  0  0  0  0
   -3.4520   -2.7070    0.6420 O   0  0  0  0  0  0  0  0  0  0  0  0
   -2.1260   -2.4090    0.1320 C   0  0  0  0  0  0  0  0  0  0  0  0
   -1.8550   -1.1890    0.9560 C   0  0  2  0  0  0  0  0  0  0  0  0
   -2.5970   -0.0280    0.3370 C   0  0  0  0  0  0  0  0  0  0  0  0
   -3.9140   -0.4630    0.1140 O   0  0  0  0  0  0  0  0  0  0  0  0
   -4.8610    0.8230   -0.6080 P   0  0  0  0  0  0  0  0  0  0  0  0
   -3.7410    1.9220   -1.3550 O   0  0  0  0  0  0  0  0  0  0  0  0
   -5.8390    0.1480   -1.8830 O   0  0  0  0  0  0  0  0  0  0  0  0
  1  2  1  0
  2  3  1  0
  3  4  2  0
  3  5  1  0
  5  6  1  0
  6  7  1  0
  7  8  2  0
  7  9  1  0
 10  9  1  6
 10 11  1  0
 10 18  1  0
 11 12  2  0
 11 13  1  0
 13 14  1  0
 14 15  2  0
 14 18  1  0
 15 16  1  0
 16 17  1  0
 17 18  1  0
 18 19  1  6
 19 20  1  0
 20 21  1  0
 21 22  1  0
 21 23  1  0
M  END
