
     RDKit          3D

 24 25  0  0  0  0  0  0  0  0999 V2000
   -3.5250   -3.7950   -1.2110 N   0  0  0  0  0  0  0  0  0  0  0  0
   -2.1890   -3.4550   -1.4940 C   0  0  0  0  0  0  0  0  0  0  0  0
   -1.5360   -3.9990   -2.4190 O   0  0  0  0  0  0  0  0  0  0  0  0
   -1.5410   -2.4450   -0.6950 N   0  0  0  0  0  0  0  0  0  0  0  0
   -0.2150   -2.0620   -0.9270 C   0  0  0  0  0  0  0  0  0  0  0  0
    0.4170   -2.6470   -1.8340 O   0  0  0  0  0  0  0  0  0  0  0  0
    0.5070   -1.0030   -0.1760 C   0  0  0  0  0  0  0  0  0  0  0  0
    1.7340   -0.7840   -0.4900 N   0  0  0  0  0  0  0  0  0  0  0  0
    2.6040    0.1400    0.0960 C   0  0  0  0  0  0  0  0  0  0  0  0
    3.8390    0.3100   -0.3120 N   0  0  0  0  0  0  0  0  0  0  0  0
    4.6980    1.2400    0.2860 C   0  0  0  0  0  0  0  0  0  0  0  0
    5.1740    1.2200    1.4920 N   0  0  0  0  0  0  0  0  0  0  0  0
    5.9760    2.2990    1.7080 O   0  0  0  0  0  0  0  0  0  0  0  0
    6.3590    2.7180    0.4890 O   0  0  0  0  0  0  0  0  0  0  0  0
    5.2540    2.4610   -0.3360 C   0  0  0  0  0  0  0  0  0  0  0  0
    2.0890    0.9060    1.1750 N   0  0  0  0  0  0  0  0  0  0  0  0
    0.7750    0.6690    1.5730 C   0  0  0  0  0  0  0  0  0  0  0  0
    0.4120    1.1300    2.7050 O   0  0  0  0  0  0  0  0  0  0  0  0
   -0.1940   -0.0930    0.7310 C   0  0  1  0  0  0  0  0  0  0  0  0
   -0.7360    0.9050   -0.0760 O   0  0  0  0  0  0  0  0  0  0  0  0
   -1.9550    1.3720    0.0830 C   0  0  0  0  0  0  0  0  0  0  0  0
   -3.1730    0.5430   -0.0070 C   0  0  0  0  0  0  0  0  0  0  0  0
   -4.2640    1.4310    0.2160 O   0  0  0  0  0  0  0  0  0  0  0  0
   -5.3980    0.8100    0.1600 O   0  0  0  0  0  0  0  0  0  0  0  0
  1  2  1  0
  2  3  2  0
  2  4  1  0
  4  5  1  0
  5  6  2  0
  5  7  1  0
  7  8  2  0
  7 19  1  0
  8  9  1  0
  9 10  2  3
  9 16  1  0
 10 11  1  0
 11 12  2  0
 11 15  1  0
 12 13  1  0
 13 14  1  0
 14 15  1  0
 16 17  1  0
 17 18  2  0
 17 19  1  0
 19 20  1  6
 20 21  1  0
 21 22  1  0
 22 23  1  0
 23 24  1  0
M  END
