
     RDKit          3D

 21 21  0  0  0  0  0  0  0  0999 V2000
   -2.5460   -1.1140    0.9980 C   0  0  0  0  0  0  0  0  0  0  0  0
   -2.8330    0.0620    0.1340 C   0  0  1  0  0  0  0  0  0  0  0  0
   -2.8250   -0.3640   -1.1860 F   0  0  0  0  0  0  0  0  0  0  0  0
   -4.1420    0.7370    0.4400 C   0  0  0  0  0  0  0  0  0  0  0  0
   -5.3250   -0.1800    0.2710 C   0  0  0  0  0  0  0  0  0  0  0  0
   -5.4650   -0.6820   -0.9980 O   0  0  0  0  0  0  0  0  0  0  0  0
   -1.7400    1.0950    0.2950 C   0  0  0  0  0  0  0  0  0  0  0  0
   -0.4800    0.5190   -0.0870 O   0  0  0  0  0  0  0  0  0  0  0  0
    0.6900    1.2530   -0.0340 C   0  0  0  0  0  0  0  0  0  0  0  0
    0.6190    2.4290    0.3540 O   0  0  0  0  0  0  0  0  0  0  0  0
    1.9150    0.6330   -0.4250 N   0  0  0  0  0  0  0  0  0  0  0  0
    2.1110   -0.7250   -0.8920 C   0  0  0  0  0  0  0  0  0  0  0  0
    3.4640   -1.0390   -0.3650 C   0  0  0  0  0  0  0  0  0  0  0  0
    3.8930   -2.1720    0.0420 O   0  0  0  0  0  0  0  0  0  0  0  0
    4.1930    0.1810   -0.4030 N   0  0  0  0  0  0  0  0  0  0  0  0
    5.6120    0.3130   -0.4030 C   0  0  0  0  0  0  0  0  0  0  0  0
    6.1300    1.4580   -0.4390 O   0  0  0  0  0  0  0  0  0  0  0  0
    6.4370   -0.7840   -0.3640 O   0  0  0  0  0  0  0  0  0  0  0  0
    7.7770   -0.6940   -0.3630 O   0  0  0  0  0  0  0  0  0  0  0  0
    3.2130    1.2170   -0.4400 C   0  0  0  0  0  0  0  0  0  0  0  0
    3.4690    2.4550   -0.4810 O   0  0  0  0  0  0  0  0  0  0  0  0
  2  1  1  1
  2  3  1  0
  2  4  1  0
  2  7  1  0
  4  5  1  0
  5  6  1  0
  7  8  1  0
  8  9  1  0
  9 10  2  0
  9 11  1  0
 11 12  1  0
 11 20  1  0
 12 13  1  0
 13 14  2  0
 13 15  1  0
 15 16  1  0
 15 20  1  0
 16 17  2  0
 16 18  1  0
 18 19  1  0
 20 21  2  0
M  END
