
     RDKit          3D

 29 31  0  0  0  0  0  0  0  0999 V2000
   -6.0200    0.1650    3.6780 C   0  0  0  0  0  0  0  0  0  0  0  0
   -6.1030   -0.9170    2.6310 C   0  0  0  0  0  0  0  0  0  0  0  0
   -5.4870   -0.4040    1.3760 C   0  0  0  0  0  0  0  0  0  0  0  0
   -6.1570   -0.0020    0.2890 N   0  0  0  0  0  0  0  0  0  0  0  0
   -5.3120    0.3910   -0.6650 C   0  0  0  0  0  0  0  0  0  0  0  0
   -5.6590    0.9020   -2.0010 C   0  0  0  0  0  0  0  0  0  0  0  0
   -3.9950    0.2360   -0.1740 C   0  0  0  0  0  0  0  0  0  0  0  0
   -2.8260    0.5410   -1.0060 C   0  0  0  0  0  0  0  0  0  0  0  0
   -1.5460    0.4300   -0.4400 N   0  0  0  0  0  0  0  0  0  0  0  0
   -0.3410    0.3100   -1.2470 C   0  0  0  0  0  0  0  0  0  0  0  0
   -0.3760    0.1730   -2.6040 C   0  0  0  0  0  0  0  0  0  0  0  0
    0.8200    0.0340   -3.3250 C   0  0  0  0  0  0  0  0  0  0  0  0
    0.7210   -0.1130   -4.8080 C   0  0  0  0  0  0  0  0  0  0  0  0
    2.0180    0.0360   -2.6640 C   0  0  0  0  0  0  0  0  0  0  0  0
    3.2950   -0.1060   -3.4190 C   0  0  0  0  0  0  0  0  0  0  0  0
    2.0810    0.1760   -1.2680 C   0  0  0  0  0  0  0  0  0  0  0  0
    3.3530    0.1180   -0.6380 N   0  0  0  0  0  0  0  0  0  0  0  0
    3.6840    0.5060    0.6640 C   0  0  0  0  0  0  0  0  0  0  0  0
    2.7950    1.0050    1.3940 O   0  0  0  0  0  0  0  0  0  0  0  0
    5.0100    0.3760    1.2530 C   0  0  0  0  0  0  0  0  0  0  0  0
    5.6760    1.5540    1.6160 C   0  0  0  0  0  0  0  0  0  0  0  0
    6.9480    1.5680    2.1300 C   0  0  0  0  0  0  0  0  0  0  0  0
    7.5880    0.3420    2.2910 C   0  0  0  0  0  0  0  0  0  0  0  0
    6.9440   -0.8310    1.9370 C   0  0  0  0  0  0  0  0  0  0  0  0
    5.6530   -0.8290    1.4160 C   0  0  0  0  0  0  0  0  0  0  0  0
    4.9530   -2.0760    1.0830 C   0  0  0  0  0  0  0  0  0  0  0  0
    0.8960    0.3100   -0.5920 C   0  0  0  0  0  0  0  0  0  0  0  0
   -4.1320   -0.2580    1.0920 C   0  0  0  0  0  0  0  0  0  0  0  0
   -3.0760   -0.6270    2.0580 C   0  0  0  0  0  0  0  0  0  0  0  0
  1  2  1  0
  2  3  1  0
  3  4  1  0
  3 28  2  0
  4  5  1  0
  5  6  1  0
  5  7  2  0
  7  8  1  0
  7 28  1  0
  8  9  1  0
  9 10  1  0
 10 11  2  0
 10 27  1  0
 11 12  1  0
 12 13  1  0
 12 14  2  0
 14 15  1  0
 14 16  1  0
 16 17  1  0
 16 27  2  0
 17 18  1  0
 18 19  2  0
 18 20  1  0
 20 21  2  0
 20 25  1  0
 21 22  1  0
 22 23  2  0
 23 24  1  0
 24 25  2  0
 25 26  1  0
 28 29  1  0
M  END
