
     RDKit          3D

 29 31  0  0  0  0  0  0  0  0999 V2000
   -6.7530    2.6170   -1.1720 C   0  0  0  0  0  0  0  0  0  0  0  0
   -6.9320    1.1180   -0.9360 C   0  0  0  0  0  0  0  0  0  0  0  0
   -6.0430    0.5760    0.0620 C   0  0  0  0  0  0  0  0  0  0  0  0
   -6.3830    0.5780    1.4390 C   0  0  0  0  0  0  0  0  0  0  0  0
   -5.5560    0.2090    2.4460 C   0  0  0  0  0  0  0  0  0  0  0  0
   -4.3050   -0.1950    2.1260 C   0  0  0  0  0  0  0  0  0  0  0  0
   -3.8990   -0.2280    0.8200 C   0  0  0  0  0  0  0  0  0  0  0  0
   -2.6020   -0.6710    0.5240 C   0  0  0  0  0  0  0  0  0  0  0  0
   -2.1530   -0.7450   -0.7550 C   0  0  0  0  0  0  0  0  0  0  0  0
   -0.8500   -1.2050   -1.0530 N   0  0  0  0  0  0  0  0  0  0  0  0
    0.0170   -1.7840   -0.0920 C   0  0  0  0  0  0  0  0  0  0  0  0
   -0.4860   -2.5720    0.7910 N   0  0  0  0  0  0  0  0  0  0  0  0
    1.4130   -1.5510   -0.0580 N   0  0  0  0  0  0  0  0  0  0  0  0
    2.1840   -1.7500    1.1620 C   0  0  2  0  0  0  0  0  0  0  0  0
    1.7250   -0.8600    2.2850 C   0  0  0  0  0  0  0  0  0  0  0  0
    3.6480   -1.5240    0.9370 C   0  0  0  0  0  0  0  0  0  0  0  0
    3.9580   -0.1510    0.4620 C   0  0  0  0  0  0  0  0  0  0  0  0
    3.0110    0.6550    0.3060 O   0  0  0  0  0  0  0  0  0  0  0  0
    5.3120    0.2870    0.1730 C   0  0  0  0  0  0  0  0  0  0  0  0
    6.4060   -0.5340    0.3220 C   0  0  0  0  0  0  0  0  0  0  0  0
    7.6710   -0.0890    0.0350 C   0  0  0  0  0  0  0  0  0  0  0  0
    7.8460    1.2030   -0.4100 C   0  0  0  0  0  0  0  0  0  0  0  0
    9.2230    1.6950   -0.7290 C   0  0  0  0  0  0  0  0  0  0  0  0
    6.7740    2.0350   -0.5660 C   0  0  0  0  0  0  0  0  0  0  0  0
    5.5150    1.5740   -0.2740 C   0  0  0  0  0  0  0  0  0  0  0  0
   -3.0270   -0.3680   -1.7560 C   0  0  0  0  0  0  0  0  0  0  0  0
   -4.3320    0.0820   -1.5310 C   0  0  0  0  0  0  0  0  0  0  0  0
   -5.2360    0.3720   -2.6460 C   0  0  0  0  0  0  0  0  0  0  0  0
   -4.7650    0.1550   -0.2260 C   0  0  0  0  0  0  0  0  0  0  0  0
  1  2  1  0
  2  3  1  0
  3  4  2  0
  3 29  1  0
  4  5  1  0
  5  6  2  0
  6  7  1  0
  7  8  2  0
  7 29  1  0
  8  9  1  0
  9 10  1  0
  9 26  2  0
 10 11  1  0
 11 12  2  0
 11 13  1  0
 13 14  1  0
 14 15  1  1
 14 16  1  0
 16 17  1  0
 17 18  2  0
 17 19  1  0
 19 20  2  0
 19 25  1  0
 20 21  1  0
 21 22  2  0
 22 23  1  0
 22 24  1  0
 24 25  2  0
 26 27  1  0
 27 28  1  0
 27 29  2  0
M  END
