
     RDKit          3D

 29 31  0  0  0  0  0  0  0  0999 V2000
    6.6540    3.4440   -0.9860 C   0  0  0  0  0  0  0  0  0  0  0  0
    6.0100    3.1970    0.1640 C   0  0  0  0  0  0  0  0  0  0  0  0
    4.8540    3.8470    0.4270 N   0  0  0  0  0  0  0  0  0  0  0  0
    3.6410    3.5800    0.3760 C   0  0  0  0  0  0  0  0  0  0  0  0
    2.7970    4.7190    0.7980 N   0  0  0  0  0  0  0  0  0  0  0  0
    3.0550    2.3450   -0.0270 C   0  0  0  0  0  0  0  0  0  0  0  0
    3.8310    1.3240   -0.4020 C   0  0  0  0  0  0  0  0  0  0  0  0
    1.6380    2.0780   -0.0550 C   0  0  0  0  0  0  0  0  0  0  0  0
    1.3100    0.8810   -0.4310 O   0  0  0  0  0  0  0  0  0  0  0  0
    0.5900    2.9880    0.2860 C   0  0  0  0  0  0  0  0  0  0  0  0
   -0.7050    2.6110    0.2270 C   0  0  0  0  0  0  0  0  0  0  0  0
   -1.7650    3.5640    0.5820 C   0  0  0  0  0  0  0  0  0  0  0  0
   -1.0110    1.2870   -0.1760 N   0  0  0  0  0  0  0  0  0  0  0  0
   -1.1880    0.3200    0.8600 C   0  0  0  0  0  0  0  0  0  0  0  0
   -1.0530    0.6800    2.1980 C   0  0  0  0  0  0  0  0  0  0  0  0
   -1.2310   -0.2200    3.2170 C   0  0  0  0  0  0  0  0  0  0  0  0
   -1.5580   -1.5310    2.8630 C   0  0  0  0  0  0  0  0  0  0  0  0
   -1.6930   -1.8930    1.5440 C   0  0  0  0  0  0  0  0  0  0  0  0
   -1.5100   -0.9730    0.5190 C   0  0  0  0  0  0  0  0  0  0  0  0
   -1.6540   -1.4330   -0.8710 C   0  0  2  0  0  0  0  0  0  0  0  0
   -2.9250   -1.0400   -1.5430 C   0  0  0  0  0  0  0  0  0  0  0  0
   -3.9550   -2.0910   -1.7070 C   0  0  0  0  0  0  0  0  0  0  0  0
   -3.7310   -3.3620   -0.9380 C   0  0  0  0  0  0  0  0  0  0  0  0
   -2.3320   -3.8210   -0.9870 C   0  0  0  0  0  0  0  0  0  0  0  0
   -2.0500   -5.1650   -1.0630 C   0  0  0  0  0  0  0  0  0  0  0  0
   -0.7420   -5.5970   -1.1060 C   0  0  0  0  0  0  0  0  0  0  0  0
    0.2520   -4.6470   -1.0690 C   0  0  0  0  0  0  0  0  0  0  0  0
   -0.0420   -3.2820   -0.9910 C   0  0  0  0  0  0  0  0  0  0  0  0
   -1.3460   -2.8610   -0.9500 C   0  0  0  0  0  0  0  0  0  0  0  0
  1  2  2  0
  2  3  1  0
  3  4  2  3
  4  5  1  0
  4  6  1  0
  6  7  2  0
  6  8  1  0
  8  9  2  0
  8 10  1  0
 10 11  2  3
 11 12  1  0
 11 13  1  0
 13 14  1  0
 14 15  2  0
 14 19  1  0
 15 16  1  0
 16 17  2  0
 17 18  1  0
 18 19  2  0
 20 19  1  1
 20 21  1  0
 20 29  1  0
 21 22  1  0
 22 23  1  0
 23 24  1  0
 24 25  2  0
 24 29  1  0
 25 26  1  0
 26 27  2  0
 27 28  1  0
 28 29  2  0
M  END
