
     RDKit          3D

 29 31  0  0  0  0  0  0  0  0999 V2000
   -4.7090    0.6440   -1.0420 C   0  0  0  0  0  0  0  0  0  0  0  0
   -4.3960    0.5740    0.2630 C   0  0  0  0  0  0  0  0  0  0  0  0
   -3.3130   -0.2960    0.6630 C   0  0  0  0  0  0  0  0  0  0  0  0
   -2.6350   -1.0330   -0.3850 N   0  0  0  0  0  0  0  0  0  0  0  0
   -1.1930   -0.7840   -0.5370 C   0  0  0  0  0  0  0  0  0  0  0  0
   -0.6710   -1.6600   -1.5610 C   0  0  0  0  0  0  0  0  0  0  0  0
   -1.4540   -2.6340   -2.1990 C   0  0  0  0  0  0  0  0  0  0  0  0
   -0.9730   -3.5090   -3.1370 C   0  0  0  0  0  0  0  0  0  0  0  0
    0.3250   -3.4450   -3.4790 C   0  0  0  0  0  0  0  0  0  0  0  0
    1.1560   -2.5220   -2.9030 C   0  0  0  0  0  0  0  0  0  0  0  0
    2.4860   -2.4910   -3.2890 C   0  0  0  0  0  0  0  0  0  0  0  0
    3.3420   -1.5870   -2.7450 C   0  0  0  0  0  0  0  0  0  0  0  0
    2.8660   -0.7160   -1.8160 C   0  0  0  0  0  0  0  0  0  0  0  0
    1.5300   -0.6930   -1.3770 C   0  0  0  0  0  0  0  0  0  0  0  0
    1.0790    0.3200   -0.4360 C   0  0  0  0  0  0  0  0  0  0  0  0
    2.3170    1.0440   -0.0070 N   0  0  0  0  0  0  0  0  0  0  0  0
    3.2970    0.4200    0.8140 C   0  0  0  0  0  0  0  0  0  0  0  0
    3.0620   -0.7750    1.1640 O   0  0  0  0  0  0  0  0  0  0  0  0
    4.4660    1.1270    1.2030 N   0  0  0  0  0  0  0  0  0  0  0  0
    5.4460    0.4730    2.0350 C   0  0  0  0  0  0  0  0  0  0  0  0
    6.6190    1.3700    2.3490 C   0  0  0  0  0  0  0  0  0  0  0  0
    7.3590    1.8350    1.1430 C   0  0  0  0  0  0  0  0  0  0  0  0
    0.6720   -1.6150   -1.9350 C   0  0  0  0  0  0  0  0  0  0  0  0
   -2.9140   -0.4530    1.9210 C   0  0  0  0  0  0  0  0  0  0  0  0
   -3.6540    0.3270    2.9030 C   0  0  0  0  0  0  0  0  0  0  0  0
   -4.6320    1.1240    2.6090 C   0  0  0  0  0  0  0  0  0  0  0  0
   -5.1350    1.3580    1.2600 C   0  0  1  0  0  0  0  0  0  0  0  0
   -5.0300    2.8280    0.8600 C   0  0  0  0  0  0  0  0  0  0  0  0
   -6.6060    0.9270    1.2250 C   0  0  0  0  0  0  0  0  0  0  0  0
  1  2  2  0
  2  3  1  0
  2 27  1  0
  3  4  1  0
  3 24  2  0
  4  5  1  0
  5  6  1  0
  6  7  2  0
  6 23  1  0
  7  8  1  0
  8  9  2  0
  9 10  1  0
 10 11  2  0
 10 23  1  0
 11 12  1  0
 12 13  2  0
 13 14  1  0
 14 15  1  0
 14 23  2  0
 15 16  1  0
 16 17  1  0
 17 18  2  0
 17 19  1  0
 19 20  1  0
 20 21  1  0
 21 22  1  0
 24 25  1  0
 25 26  2  0
 26 27  1  0
 27 28  1  6
 27 29  1  0
M  END
