
     RDKit          3D

 21 22  0  0  0  0  0  0  0  0999 V2000
   -3.9750    1.7770    0.5580 C   0  0  0  0  0  0  0  0  0  0  0  0
   -2.5670    1.4440    0.6850 N   0  0  0  0  0  0  0  0  0  0  0  0
   -2.3370    0.2760   -0.1460 C   0  0  2  0  0  0  0  0  0  0  0  0
   -2.7990   -0.9850    0.5000 C   0  0  2  0  0  0  0  0  0  0  0  0
   -2.6210   -0.8900    1.8900 O   0  0  0  0  0  0  0  0  0  0  0  0
   -2.1150   -2.1940   -0.0410 C   0  0  0  0  0  0  0  0  0  0  0  0
   -1.5740   -2.0920   -1.2820 O   0  0  0  0  0  0  0  0  0  0  0  0
   -0.8660   -0.9840   -1.6110 C   0  0  2  0  0  0  0  0  0  0  0  0
    0.6120   -1.1870   -1.7260 C   0  0  0  0  0  0  0  0  0  0  0  0
    1.1190   -0.6310   -0.3790 C   0  0  2  0  0  0  0  0  0  0  0  0
    2.0010    0.5100   -0.7240 C   0  0  0  0  0  0  0  0  0  0  0  0
    2.6410    1.2770    0.3720 C   0  0  2  0  0  0  0  0  0  0  0  0
    3.4320    2.3510   -0.3010 N   0  0  0  0  0  0  0  0  0  0  0  0
    3.6000    0.5720    1.2130 C   0  0  0  0  0  0  0  0  0  0  0  0
    4.8550    0.8100    1.0890 O   0  0  0  0  0  0  0  0  0  0  0  0
    3.3090   -0.3750    2.1870 O   0  0  0  0  0  0  0  0  0  0  0  0
    1.7870   -1.7910    0.2540 C   0  0  0  0  0  0  0  0  0  0  0  0
    1.2700   -2.3540    1.2390 O   0  0  0  0  0  0  0  0  0  0  0  0
    2.9830   -2.2630   -0.2360 O   0  0  0  0  0  0  0  0  0  0  0  0
   -0.0250   -0.2490    0.3100 O   0  0  0  0  0  0  0  0  0  0  0  0
   -0.9320    0.1610   -0.6240 C   0  0  2  0  0  0  0  0  0  0  0  0
  1  2  1  0
  3  2  1  1
  3  4  1  0
  3 21  1  0
  4  5  1  1
  4  6  1  0
  6  7  1  0
  7  8  1  0
  8  9  1  1
  8 21  1  0
  9 10  1  0
 10 11  1  6
 10 17  1  0
 10 20  1  0
 11 12  1  0
 12 13  1  6
 12 14  1  0
 14 15  2  0
 14 16  1  0
 17 18  2  0
 17 19  1  0
 21 20  1  1
M  CHG  2   2   1  13   1
M  END
