
     RDKit          3D

 21 21  0  0  0  0  0  0  0  0999 V2000
    7.2660   -0.3410    0.0780 N   0  0  0  0  0  0  0  0  0  0  0  0
    6.4520    0.5640    0.8220 C   0  0  0  0  0  0  0  0  0  0  0  0
    5.3590    1.1440   -0.0620 C   0  0  2  0  0  0  0  0  0  0  0  0
    4.6240    2.0190    0.7630 O   0  0  0  0  0  0  0  0  0  0  0  0
    4.4500    0.0810   -0.5530 C   0  0  0  0  0  0  0  0  0  0  0  0
    4.8460   -0.7640   -1.4100 O   0  0  0  0  0  0  0  0  0  0  0  0
    3.1570   -0.0510   -0.1230 O   0  0  0  0  0  0  0  0  0  0  0  0
    2.3280   -1.0640   -0.5940 C   0  0  0  0  0  0  0  0  0  0  0  0
    0.9810   -1.0170    0.0480 C   0  0  1  0  0  0  0  0  0  0  0  0
    0.9810   -1.1060    1.4200 O   0  0  0  0  0  0  0  0  0  0  0  0
    0.0770    0.0880   -0.4520 C   0  0  0  0  0  0  0  0  0  0  0  0
   -1.1760   -0.0480    0.3290 C   0  0  0  0  0  0  0  0  0  0  0  0
   -1.2070   -0.2140    1.5780 O   0  0  0  0  0  0  0  0  0  0  0  0
   -2.3740    0.0050   -0.3540 O   0  0  0  0  0  0  0  0  0  0  0  0
   -3.6400   -0.1110    0.2890 C   0  0  2  0  0  0  0  0  0  0  0  0
   -4.1840   -1.4700   -0.1150 C   0  0  0  0  0  0  0  0  0  0  0  0
   -5.6890   -1.5130   -0.1680 C   0  0  0  0  0  0  0  0  0  0  0  0
   -6.1220   -0.4620   -0.9840 O   0  0  0  0  0  0  0  0  0  0  0  0
   -5.9650    0.7010   -0.2470 C   0  0  0  0  0  0  0  0  0  0  0  0
   -4.4920    1.0260   -0.1460 C   0  0  1  0  0  0  0  0  0  0  0  0
   -4.3960    2.1720    0.7420 N   0  0  0  0  0  0  0  0  0  0  0  0
  1  2  1  0
  2  3  1  0
  3  4  1  1
  3  5  1  0
  5  6  2  0
  5  7  1  0
  7  8  1  0
  8  9  1  0
  9 10  1  1
  9 11  1  0
 11 12  1  0
 12 13  2  0
 12 14  1  0
 15 14  1  6
 15 16  1  0
 15 20  1  0
 16 17  1  0
 17 18  1  0
 18 19  1  0
 19 20  1  0
 20 21  1  1
M  CHG  2   1   1  21   1
M  END
