
     RDKit          3D

 19 19  0  0  0  0  0  0  0  0999 V2000
   -1.4540    3.5300    1.7290 C   0  0  0  0  0  0  0  0  0  0  0  0
   -0.9460    2.2590    1.4640 O   0  0  0  0  0  0  0  0  0  0  0  0
   -1.4430    1.8770    0.2240 C   0  0  0  0  0  0  0  0  0  0  0  0
   -1.0070    0.5260   -0.2440 C   0  0  2  0  0  0  0  0  0  0  0  0
   -1.4660   -0.4830    0.7590 C   0  0  2  0  0  0  0  0  0  0  0  0
   -0.9470   -0.2920    2.0200 O   0  0  0  0  0  0  0  0  0  0  0  0
   -1.3010   -1.9150    0.3630 C   0  0  1  0  0  0  0  0  0  0  0  0
   -1.9990   -2.6580    1.3540 O   0  0  0  0  0  0  0  0  0  0  0  0
   -2.0440   -2.2530   -0.9190 C   0  0  0  0  0  0  0  0  0  0  0  0
   -1.9470   -3.6340   -1.0960 O   0  0  0  0  0  0  0  0  0  0  0  0
    0.4310    0.4860   -0.5900 C   0  0  1  0  0  0  0  0  0  0  0  0
    0.6560    1.5140   -1.7080 C   0  0  0  0  0  0  0  0  0  0  0  0
   -0.1770    1.2580   -2.7970 O   0  0  0  0  0  0  0  0  0  0  0  0
    1.4060    0.7130    0.5040 C   0  0  0  0  0  0  0  0  0  0  0  0
    1.7380   -0.5130    1.1320 O   0  0  0  0  0  0  0  0  0  0  0  0
    2.4660   -1.3280    0.3140 C   0  0  2  0  0  0  0  0  0  0  0  0
    3.8850   -1.1470    0.5630 N   0  0  0  0  0  0  0  0  0  0  0  0
    2.1300   -0.9350   -1.1320 C   0  0  0  0  0  0  0  0  0  0  0  0
    0.7720   -0.7410   -1.1990 O   0  0  0  0  0  0  0  0  0  0  0  0
  1  2  1  0
  2  3  1  0
  4  3  1  1
  4  5  1  0
  4 11  1  0
  5  6  1  1
  5  7  1  0
  7  8  1  1
  7  9  1  0
  9 10  1  0
 11 12  1  6
 11 14  1  0
 11 19  1  0
 12 13  1  0
 14 15  1  0
 15 16  1  0
 16 17  1  1
 16 18  1  0
 18 19  1  0
M  CHG  1  17   1
M  END
