
     RDKit          3D

 20 21  0  0  0  0  0  0  0  0999 V2000
    2.8120    1.3710    0.9070 N   0  0  0  0  0  0  0  0  0  0  0  0
    2.5670    0.0020    1.2620 C   0  0  1  0  0  0  0  0  0  0  0  0
    1.9280   -0.7660    0.1810 C   0  0  0  0  0  0  0  0  0  0  0  0
    0.6030   -0.4150   -0.3390 C   0  0  2  0  0  0  0  0  0  0  0  0
    0.3300   -1.4880   -1.4080 C   0  0  0  0  0  0  0  0  0  0  0  0
   -0.6110   -2.2780   -1.3240 O   0  0  0  0  0  0  0  0  0  0  0  0
    1.2100   -1.5080   -2.4710 O   0  0  0  0  0  0  0  0  0  0  0  0
    0.4000    0.8580   -1.0880 C   0  0  0  0  0  0  0  0  0  0  0  0
   -1.1350    0.9710   -0.9410 C   0  0  1  0  0  0  0  0  0  0  0  0
   -1.7160    0.0440   -1.7540 O   0  0  0  0  0  0  0  0  0  0  0  0
   -3.0600   -0.1830   -1.4750 C   0  0  0  0  0  0  0  0  0  0  0  0
   -3.5620    0.5480   -0.2760 C   0  0  1  0  0  0  0  0  0  0  0  0
   -4.8190   -0.0090    0.0490 O   0  0  0  0  0  0  0  0  0  0  0  0
   -2.6630    0.2540    0.9040 C   0  0  1  0  0  0  0  0  0  0  0  0
   -2.7200   -1.0680    1.2960 O   0  0  0  0  0  0  0  0  0  0  0  0
   -1.2390    0.5720    0.5090 C   0  0  1  0  0  0  0  0  0  0  0  0
   -0.3920   -0.4880    0.6300 O   0  0  0  0  0  0  0  0  0  0  0  0
    3.8470   -0.6480    1.7290 C   0  0  0  0  0  0  0  0  0  0  0  0
    3.8880   -1.8350    2.0910 O   0  0  0  0  0  0  0  0  0  0  0  0
    4.9920    0.1310    1.7420 O   0  0  0  0  0  0  0  0  0  0  0  0
  2  1  1  6
  2  3  1  0
  2 18  1  0
  4  3  1  1
  4  5  1  0
  4  8  1  0
  4 17  1  0
  5  6  2  0
  5  7  1  0
  9  8  1  6
  9 10  1  0
  9 16  1  0
 10 11  1  0
 11 12  1  0
 12 13  1  1
 12 14  1  0
 14 15  1  6
 14 16  1  0
 16 17  1  6
 18 19  2  0
 18 20  1  0
M  CHG  1   1   1
M  END
