
     RDKit          3D

 20 20  0  0  0  0  0  0  0  0999 V2000
    2.8000    2.0300    1.2030 C   0  0  0  0  0  0  0  0  0  0  0  0
    3.2160    0.7400    0.5720 C   0  0  1  0  0  0  0  0  0  0  0  0
    3.2000    0.7810   -0.9340 C   0  0  0  0  0  0  0  0  0  0  0  0
    4.2120    1.6750   -1.3220 O   0  0  0  0  0  0  0  0  0  0  0  0
    4.4680    0.3000    0.9680 O   0  0  0  0  0  0  0  0  0  0  0  0
    4.4060   -1.0590    1.1680 C   0  0  0  0  0  0  0  0  0  0  0  0
    3.1070   -1.4750    0.9240 O   0  0  0  0  0  0  0  0  0  0  0  0
    2.3280   -0.3600    1.1260 C   0  0  2  0  0  0  0  0  0  0  0  0
    1.0250   -0.4280    0.3850 C   0  0  0  0  0  0  0  0  0  0  0  0
    0.2930    0.5740    0.5500 O   0  0  0  0  0  0  0  0  0  0  0  0
    0.6390   -1.4330   -0.3850 O   0  0  0  0  0  0  0  0  0  0  0  0
   -0.4760   -1.6920   -1.1170 C   0  0  0  0  0  0  0  0  0  0  0  0
   -1.7890   -1.9080   -0.5080 C   0  0  2  0  0  0  0  0  0  0  0  0
   -2.7710   -2.2710   -1.4860 O   0  0  0  0  0  0  0  0  0  0  0  0
   -2.4510   -0.9420    0.3820 C   0  0  2  0  0  0  0  0  0  0  0  0
   -3.5070   -1.7750    1.0120 O   0  0  0  0  0  0  0  0  0  0  0  0
   -3.2370    0.1560   -0.2910 C   0  0  1  0  0  0  0  0  0  0  0  0
   -4.0150    0.8210    0.7790 N   0  0  0  0  0  0  0  0  0  0  0  0
   -2.4650    1.2270   -0.9550 C   0  0  0  0  0  0  0  0  0  0  0  0
   -3.3690    2.1900   -1.5150 O   0  0  0  0  0  0  0  0  0  0  0  0
  2  1  1  1
  2  3  1  0
  2  5  1  0
  2  8  1  0
  3  4  1  0
  5  6  1  0
  6  7  1  0
  7  8  1  0
  8  9  1  6
  9 10  2  0
  9 11  1  0
 11 12  1  0
 12 13  1  0
 13 14  1  6
 13 15  1  0
 15 16  1  1
 15 17  1  0
 17 18  1  1
 17 19  1  0
 19 20  1  0
M  CHG  1  18   1
M  END
