
     RDKit          3D

 19 19  0  0  0  0  0  0  0  0999 V2000
    5.3660    0.3490    0.0470 C   0  0  0  0  0  0  0  0  0  0  0  0
    4.5890   -0.9620    0.1360 C   0  0  0  0  0  0  0  0  0  0  0  0
    3.3260   -0.7280   -0.3830 O   0  0  0  0  0  0  0  0  0  0  0  0
    2.6430    0.2670    0.3280 C   0  0  1  0  0  0  0  0  0  0  0  0
    2.3380    1.2650   -0.6270 O   0  0  0  0  0  0  0  0  0  0  0  0
    1.3420   -0.3750    0.8120 C   0  0  1  0  0  0  0  0  0  0  0  0
    0.7150    0.4940    1.6510 O   0  0  0  0  0  0  0  0  0  0  0  0
    0.6110   -0.8030   -0.3270 N   0  0  0  0  0  0  0  0  0  0  0  0
   -0.7960   -0.6960   -0.2920 C   0  0  1  0  0  0  0  0  0  0  0  0
   -1.4470   -1.3280    0.9110 C   0  0  0  0  0  0  0  0  0  0  0  0
   -2.9130   -1.5500    0.5130 C   0  0  1  0  0  0  0  0  0  0  0  0
   -3.6120   -2.2330    1.4670 O   0  0  0  0  0  0  0  0  0  0  0  0
   -3.4910   -0.1770    0.2290 C   0  0  0  0  0  0  0  0  0  0  0  0
   -2.8230    0.4150   -0.9950 C   0  0  1  0  0  0  0  0  0  0  0  0
   -3.4660    1.7300   -1.2580 C   0  0  0  0  0  0  0  0  0  0  0  0
   -4.0400    1.9050   -2.3550 O   0  0  0  0  0  0  0  0  0  0  0  0
   -3.4560    2.7660   -0.3470 O   0  0  0  0  0  0  0  0  0  0  0  0
   -1.3600    0.6670   -0.5850 C   0  0  1  0  0  0  0  0  0  0  0  0
   -1.4370    1.4940    0.5080 O   0  0  0  0  0  0  0  0  0  0  0  0
  1  2  1  0
  2  3  1  0
  3  4  1  0
  4  5  1  6
  4  6  1  0
  6  7  1  6
  6  8  1  0
  9  8  1  1
  9 10  1  0
  9 18  1  0
 10 11  1  0
 11 12  1  1
 11 13  1  0
 13 14  1  0
 14 15  1  1
 14 18  1  0
 15 16  2  0
 15 17  1  0
 18 19  1  1
M  CHG  1   8   1
M  END
