
     RDKit          3D

 20 21  0  0  0  0  0  0  0  0999 V2000
    0.5550   -1.5840   -1.6750 N   0  0  0  0  0  0  0  0  0  0  0  0
    0.5290   -0.9340   -0.3650 C   0  0  2  0  0  0  0  0  0  0  0  0
    1.9240   -0.4540   -0.1410 C   0  0  0  0  0  0  0  0  0  0  0  0
    2.1350    0.1500    0.9520 O   0  0  0  0  0  0  0  0  0  0  0  0
    2.9550   -0.6200   -1.0170 O   0  0  0  0  0  0  0  0  0  0  0  0
    4.2280   -0.1150   -0.6810 C   0  0  0  0  0  0  0  0  0  0  0  0
    4.2080    1.3550   -0.4710 C   0  0  0  0  0  0  0  0  0  0  0  0
    5.3000    1.9000   -0.1660 O   0  0  0  0  0  0  0  0  0  0  0  0
    3.0720    2.1290   -0.5920 O   0  0  0  0  0  0  0  0  0  0  0  0
    0.2240   -1.9430    0.6760 C   0  0  0  0  0  0  0  0  0  0  0  0
   -1.1640   -2.0730    1.1360 C   0  0  0  0  0  0  0  0  0  0  0  0
   -2.1810   -1.2550    0.4010 C   0  0  2  0  0  0  0  0  0  0  0  0
   -2.6520   -1.8760   -0.7570 O   0  0  0  0  0  0  0  0  0  0  0  0
   -1.6910    0.1350    0.1680 C   0  0  2  0  0  0  0  0  0  0  0  0
   -0.3580    0.2470   -0.4560 C   0  0  0  0  0  0  0  0  0  0  0  0
   -1.7170    0.7980    1.4060 O   0  0  0  0  0  0  0  0  0  0  0  0
   -2.1160    2.1040    1.1400 C   0  0  0  0  0  0  0  0  0  0  0  0
   -2.4910    2.1350   -0.3200 C   0  0  2  0  0  0  0  0  0  0  0  0
   -3.6750    2.8390   -0.4720 O   0  0  0  0  0  0  0  0  0  0  0  0
   -2.6760    0.7930   -0.6050 O   0  0  0  0  0  0  0  0  0  0  0  0
  2  1  1  6
  2  3  1  0
  2 10  1  0
  2 15  1  0
  3  4  2  0
  3  5  1  0
  5  6  1  0
  6  7  1  0
  7  8  2  0
  7  9  1  0
 10 11  1  0
 11 12  1  0
 12 13  1  6
 12 14  1  0
 14 15  1  6
 14 16  1  0
 14 20  1  0
 16 17  1  0
 17 18  1  0
 18 19  1  1
 18 20  1  0
M  CHG  1   1   1
M  END
