
     RDKit          3D

 20 21  0  0  0  0  0  0  0  0999 V2000
   -4.1720   -1.8770    0.7530 N   0  0  0  0  0  0  0  0  0  0  0  0
   -4.5100   -0.5580    0.3110 C   0  0  0  0  0  0  0  0  0  0  0  0
   -3.3400    0.3760    0.4860 C   0  0  2  0  0  0  0  0  0  0  0  0
   -2.9380    0.4730    1.7990 O   0  0  0  0  0  0  0  0  0  0  0  0
   -3.6340    1.7630   -0.0430 C   0  0  0  0  0  0  0  0  0  0  0  0
   -2.4060    2.3280   -0.2130 O   0  0  0  0  0  0  0  0  0  0  0  0
   -1.4510    1.3550   -0.4700 C   0  0  1  0  0  0  0  0  0  0  0  0
   -0.5670    1.3350    0.5870 O   0  0  0  0  0  0  0  0  0  0  0  0
    0.7580    1.3850    0.3180 C   0  0  0  0  0  0  0  0  0  0  0  0
    1.2220    0.1740   -0.4440 C   0  0  1  0  0  0  0  0  0  0  0  0
    0.6500   -0.0360   -1.6600 O   0  0  0  0  0  0  0  0  0  0  0  0
    2.7510    0.3140   -0.5400 C   0  0  1  0  0  0  0  0  0  0  0  0
    3.2010    0.5210    0.7460 O   0  0  0  0  0  0  0  0  0  0  0  0
    3.6610   -0.7190    1.1890 C   0  0  0  0  0  0  0  0  0  0  0  0
    4.2970   -1.2320   -0.1090 C   0  0  2  0  0  0  0  0  0  0  0  0
    5.5220   -0.4240   -0.3200 C   0  0  0  0  0  0  0  0  0  0  0  0
    5.5660    0.4440   -1.2080 O   0  0  0  0  0  0  0  0  0  0  0  0
    6.6620   -0.6010    0.4580 O   0  0  0  0  0  0  0  0  0  0  0  0
    3.3270   -0.8370   -1.0270 O   0  0  0  0  0  0  0  0  0  0  0  0
   -2.1750   -0.0020   -0.4060 C   0  0  0  0  0  0  0  0  0  0  0  0
  1  2  1  0
  2  3  1  0
  3  4  1  1
  3  5  1  0
  3 20  1  0
  5  6  1  0
  6  7  1  0
  7  8  1  1
  7 20  1  0
  8  9  1  0
  9 10  1  0
 10 11  1  6
 10 12  1  0
 12 13  1  1
 12 19  1  0
 13 14  1  0
 14 15  1  0
 15 16  1  6
 15 19  1  0
 16 17  2  0
 16 18  1  0
M  CHG  1   1   1
M  END
