
     RDKit          3D

 18 19  0  0  0  0  0  0  0  0999 V2000
    2.4520   -0.9330   -1.0730 N   0  0  0  0  0  0  0  0  0  0  0  0
    1.5120    0.0600   -0.4940 C   0  0  2  0  0  0  0  0  0  0  0  0
    2.2130    0.4560    0.8020 C   0  0  0  0  0  0  0  0  0  0  0  0
    3.5520    1.0430    0.5170 C   0  0  0  0  0  0  0  0  0  0  0  0
    3.5790    2.2320    0.0970 O   0  0  0  0  0  0  0  0  0  0  0  0
    4.7560    0.3880    0.6760 O   0  0  0  0  0  0  0  0  0  0  0  0
    5.9400    0.9770    0.4000 O   0  0  0  0  0  0  0  0  0  0  0  0
    0.2410   -0.6500   -0.1610 C   0  0  2  0  0  0  0  0  0  0  0  0
   -0.3450   -1.3100   -1.4290 C   0  0  0  0  0  0  0  0  0  0  0  0
   -1.5030   -2.1550   -0.9460 C   0  0  0  0  0  0  0  0  0  0  0  0
   -2.4430   -1.4390   -0.2490 O   0  0  0  0  0  0  0  0  0  0  0  0
   -1.9410   -0.7640    0.8600 C   0  0  2  0  0  0  0  0  0  0  0  0
   -3.0370    0.0890    1.4480 C   0  0  0  0  0  0  0  0  0  0  0  0
   -3.6330    0.9110    0.3340 C   0  0  0  0  0  0  0  0  0  0  0  0
   -2.6060    1.5400   -0.5590 C   0  0  0  0  0  0  0  0  0  0  0  0
   -1.5030    0.7740   -0.8280 O   0  0  0  0  0  0  0  0  0  0  0  0
   -0.8910    0.2290    0.3140 C   0  0  2  0  0  0  0  0  0  0  0  0
   -0.5790    1.1730    1.2440 O   0  0  0  0  0  0  0  0  0  0  0  0
  2  1  1  1
  2  3  1  0
  2  8  1  0
  3  4  1  0
  4  5  2  0
  4  6  1  0
  6  7  1  0
  8  9  1  6
  8 17  1  0
  9 10  1  0
 10 11  1  0
 11 12  1  0
 12 13  1  6
 12 17  1  0
 13 14  1  0
 14 15  1  0
 15 16  1  0
 16 17  1  0
 17 18  1  1
M  CHG  1   1   1
M  END
