
     RDKit          3D

 18 19  0  0  0  0  0  0  0  0999 V2000
   -0.9310   -1.9950    1.2400 N   0  0  0  0  0  0  0  0  0  0  0  0
   -1.0040   -1.3840   -0.0600 C   0  0  1  0  0  0  0  0  0  0  0  0
   -0.9890   -2.4710   -1.1100 C   0  0  0  0  0  0  0  0  0  0  0  0
   -2.1190   -3.2780   -0.8540 O   0  0  0  0  0  0  0  0  0  0  0  0
   -2.3040   -0.5810   -0.1590 C   0  0  0  0  0  0  0  0  0  0  0  0
   -1.9330    0.8550    0.0040 C   0  0  2  0  0  0  0  0  0  0  0  0
   -2.8810    1.6390    0.8540 C   0  0  0  0  0  0  0  0  0  0  0  0
   -2.8510    2.9090    0.3020 O   0  0  0  0  0  0  0  0  0  0  0  0
   -1.9960    2.8690   -0.7810 C   0  0  0  0  0  0  0  0  0  0  0  0
   -1.8720    1.5600   -1.1820 O   0  0  0  0  0  0  0  0  0  0  0  0
   -0.5310    0.7990    0.5730 C   0  0  0  0  0  0  0  0  0  0  0  0
    0.0200   -0.3260   -0.2920 C   0  0  1  0  0  0  0  0  0  0  0  0
    1.3880   -0.7070    0.0680 C   0  0  0  0  0  0  0  0  0  0  0  0
    1.7270   -1.8100    0.5350 O   0  0  0  0  0  0  0  0  0  0  0  0
    2.3970    0.2270   -0.1210 O   0  0  0  0  0  0  0  0  0  0  0  0
    3.7390   -0.0970    0.2140 C   0  0  0  0  0  0  0  0  0  0  0  0
    4.6740    1.0520   -0.0670 C   0  0  0  0  0  0  0  0  0  0  0  0
    4.3590    2.1870    0.6400 O   0  0  0  0  0  0  0  0  0  0  0  0
  2  1  1  1
  2  3  1  0
  2  5  1  0
  2 12  1  0
  3  4  1  0
  6  5  1  6
  6  7  1  0
  6 10  1  0
  6 11  1  0
  7  8  1  0
  8  9  1  0
  9 10  1  0
 11 12  1  0
 12 13  1  1
 13 14  2  0
 13 15  1  0
 15 16  1  0
 16 17  1  0
 17 18  1  0
M  CHG  1   1   1
M  END
