
     RDKit          3D

 16 16  0  0  0  0  0  0  0  0999 V2000
   -2.2150   -1.5040   -0.0180 C   0  0  0  0  0  0  0  0  0  0  0  0
   -1.4720   -0.2740    0.4620 C   0  0  2  0  0  0  0  0  0  0  0  0
   -0.1700   -0.5100    0.7640 O   0  0  0  0  0  0  0  0  0  0  0  0
    0.6440   -1.0090   -0.2080 C   0  0  0  0  0  0  0  0  0  0  0  0
    2.0250   -1.1730    0.4510 C   0  0  0  0  0  0  0  0  0  0  0  0
    3.0110   -1.7160   -0.5230 C   0  0  0  0  0  0  0  0  0  0  0  0
    3.1410   -0.8880   -1.6040 O   0  0  0  0  0  0  0  0  0  0  0  0
    3.5530    0.3650   -1.2740 C   0  0  0  0  0  0  0  0  0  0  0  0
    4.8850    0.3430   -0.5800 C   0  0  0  0  0  0  0  0  0  0  0  0
    5.2220    1.6800   -0.2890 O   0  0  0  0  0  0  0  0  0  0  0  0
   -2.1450    0.0690    1.8150 C   0  0  0  0  0  0  0  0  0  0  0  0
   -3.6050    0.3010    1.6620 C   0  0  0  0  0  0  0  0  0  0  0  0
   -3.9920    1.1570    0.5040 C   0  0  0  0  0  0  0  0  0  0  0  0
   -3.1640    1.0020   -0.7140 C   0  0  0  0  0  0  0  0  0  0  0  0
   -1.6870    0.9410   -0.3750 C   0  0  2  0  0  0  0  0  0  0  0  0
   -0.8820    1.0890   -1.4660 O   0  0  0  0  0  0  0  0  0  0  0  0
  2  1  1  6
  2  3  1  0
  2 11  1  0
  2 15  1  0
  3  4  1  0
  4  5  1  0
  5  6  1  0
  6  7  1  0
  7  8  1  0
  8  9  1  0
  9 10  1  0
 11 12  1  0
 12 13  1  0
 13 14  1  0
 14 15  1  0
 15 16  1  6
M  END
