
     RDKit          3D

 16 16  0  0  0  0  0  0  0  0999 V2000
   -1.3170   -2.7030   -0.7100 C   0  0  0  0  0  0  0  0  0  0  0  0
   -1.8030   -1.3230   -0.3550 C   0  0  0  0  0  0  0  0  0  0  0  0
   -3.0690   -1.1420   -0.0190 C   0  0  0  0  0  0  0  0  0  0  0  0
   -3.6460    0.1640    0.3460 C   0  0  0  0  0  0  0  0  0  0  0  0
   -2.6380    1.2300    0.2870 C   0  0  0  0  0  0  0  0  0  0  0  0
   -3.0120    2.4850    0.5930 C   0  0  0  0  0  0  0  0  0  0  0  0
   -2.1050    3.5290    0.5540 O   0  0  0  0  0  0  0  0  0  0  0  0
   -1.2830    0.9590   -0.0870 C   0  0  0  0  0  0  0  0  0  0  0  0
   -0.8330   -0.2500   -0.4030 C   0  0  0  0  0  0  0  0  0  0  0  0
    0.5530   -0.4690   -0.7750 C   0  0  0  0  0  0  0  0  0  0  0  0
    1.0120   -1.5970   -1.0800 O   0  0  0  0  0  0  0  0  0  0  0  0
    1.4810    0.5740   -0.8180 O   0  0  0  0  0  0  0  0  0  0  0  0
    2.8250    0.3570   -1.1790 C   0  0  0  0  0  0  0  0  0  0  0  0
    3.5580   -0.5900   -0.2840 C   0  0  0  0  0  0  0  0  0  0  0  0
    3.5990   -0.1100    1.1530 C   0  0  0  0  0  0  0  0  0  0  0  0
    4.2360    1.1100    1.2140 O   0  0  0  0  0  0  0  0  0  0  0  0
  1  2  1  0
  2  3  2  0
  2  9  1  0
  3  4  1  0
  4  5  1  0
  5  6  2  3
  5  8  1  0
  6  7  1  0
  8  9  2  0
  9 10  1  0
 10 11  2  0
 10 12  1  0
 12 13  1  0
 13 14  1  0
 14 15  1  0
 15 16  1  0
M  END
