
     RDKit          3D

 16 16  0  0  0  0  0  0  0  0999 V2000
   -4.9030    1.1710   -0.1540 C   0  0  0  0  0  0  0  0  0  0  0  0
   -3.5630    1.7190    0.2520 C   0  0  0  0  0  0  0  0  0  0  0  0
   -2.7950    0.6650    1.0230 C   0  0  0  0  0  0  0  0  0  0  0  0
   -2.6340   -0.5020    0.1140 C   0  0  0  0  0  0  0  0  0  0  0  0
   -1.4280   -0.9240   -0.2220 C   0  0  0  0  0  0  0  0  0  0  0  0
   -0.2290   -0.2260    0.3120 C   0  0  0  0  0  0  0  0  0  0  0  0
    0.9880   -0.9310   -0.2430 C   0  0  1  0  0  0  0  0  0  0  0  0
    2.1720   -0.5640    0.4100 O   0  0  0  0  0  0  0  0  0  0  0  0
    3.2590    0.0170   -0.2620 C   0  0  0  0  0  0  0  0  0  0  0  0
    3.0940    0.1860   -1.4970 O   0  0  0  0  0  0  0  0  0  0  0  0
    4.5030    0.4080    0.3960 C   0  0  0  0  0  0  0  0  0  0  0  0
    4.5930    1.8900    0.6760 C   0  0  0  0  0  0  0  0  0  0  0  0
    3.5830    2.3430    1.4950 O   0  0  0  0  0  0  0  0  0  0  0  0
    0.7800   -2.4140   -0.0220 C   0  0  0  0  0  0  0  0  0  0  0  0
   -0.2170   -2.9020   -1.0470 C   0  0  0  0  0  0  0  0  0  0  0  0
   -1.3120   -2.0040   -1.0630 O   0  0  0  0  0  0  0  0  0  0  0  0
  1  2  1  0
  2  3  1  0
  3  4  1  0
  4  5  2  3
  5  6  1  0
  5 16  1  0
  6  7  1  0
  7  8  1  1
  7 14  1  0
  8  9  1  0
  9 10  2  0
  9 11  1  0
 11 12  1  0
 12 13  1  0
 14 15  1  0
 15 16  1  0
M  END
