
     RDKit          3D

 16 16  0  0  0  0  0  0  0  0999 V2000
    6.1570    0.5440    0.9310 C   0  0  0  0  0  0  0  0  0  0  0  0
    4.6750    0.5850    1.2680 C   0  0  0  0  0  0  0  0  0  0  0  0
    4.0000   -0.3740    0.3730 C   0  0  0  0  0  0  0  0  0  0  0  0
    3.0790   -0.0340   -0.4630 C   0  0  0  0  0  0  0  0  0  0  0  0
    2.5640    1.3140   -0.6600 C   0  0  0  0  0  0  0  0  0  0  0  0
    1.1750    1.4360   -0.4040 O   0  0  0  0  0  0  0  0  0  0  0  0
    0.2620    0.7100   -1.1170 C   0  0  0  0  0  0  0  0  0  0  0  0
    0.6370   -0.0650   -2.0000 O   0  0  0  0  0  0  0  0  0  0  0  0
   -1.2070    0.8640   -0.8160 C   0  0  0  0  0  0  0  0  0  0  0  0
   -1.6140   -0.2910    0.0710 C   0  0  0  0  0  0  0  0  0  0  0  0
   -3.0580   -0.2530    0.4460 C   0  0  1  0  0  0  0  0  0  0  0  0
   -3.3050    0.9380    1.1340 O   0  0  0  0  0  0  0  0  0  0  0  0
   -3.9900   -0.2740   -0.7420 C   0  0  0  0  0  0  0  0  0  0  0  0
   -5.1640   -1.0680   -0.1480 C   0  0  0  0  0  0  0  0  0  0  0  0
   -4.3880   -2.0550    0.7050 C   0  0  0  0  0  0  0  0  0  0  0  0
   -3.3720   -1.3170    1.2460 O   0  0  0  0  0  0  0  0  0  0  0  0
  1  2  1  0
  2  3  1  0
  3  4  2  3
  4  5  1  0
  5  6  1  0
  6  7  1  0
  7  8  2  0
  7  9  1  0
  9 10  1  0
 10 11  1  0
 11 12  1  1
 11 13  1  0
 11 16  1  0
 13 14  1  0
 14 15  1  0
 15 16  1  0
M  END
