
     RDKit          3D

 16 16  0  0  0  0  0  0  0  0999 V2000
   -0.1200   -2.3800   -0.3000 C   0  0  0  0  0  0  0  0  0  0  0  0
   -0.3740   -0.9460    0.0970 C   0  0  1  0  0  0  0  0  0  0  0  0
   -0.0020    0.0260   -0.9550 C   0  0  0  0  0  0  0  0  0  0  0  0
    1.3910    0.0150   -1.3860 C   0  0  0  0  0  0  0  0  0  0  0  0
    2.3860    0.3150   -0.3520 C   0  0  0  0  0  0  0  0  0  0  0  0
    3.0980    1.4440   -0.5020 C   0  0  0  0  0  0  0  0  0  0  0  0
    4.1280    1.8900    0.4360 C   0  0  0  0  0  0  0  0  0  0  0  0
    4.3950    0.9710    1.4580 O   0  0  0  0  0  0  0  0  0  0  0  0
    3.6910   -0.1900    1.6360 C   0  0  0  0  0  0  0  0  0  0  0  0
    2.7340   -0.5100    0.7810 C   0  0  0  0  0  0  0  0  0  0  0  0
   -1.8630   -0.8570    0.3750 C   0  0  0  0  0  0  0  0  0  0  0  0
   -2.5680   -1.8540    0.2500 O   0  0  0  0  0  0  0  0  0  0  0  0
   -2.3760    0.3500    0.7600 O   0  0  0  0  0  0  0  0  0  0  0  0
   -3.7480    0.5660    1.0490 C   0  0  0  0  0  0  0  0  0  0  0  0
   -4.5690    0.2540   -0.1630 C   0  0  0  0  0  0  0  0  0  0  0  0
   -4.1550    1.1010   -1.1960 O   0  0  0  0  0  0  0  0  0  0  0  0
  2  1  1  6
  2  3  1  0
  2 11  1  0
  3  4  1  0
  4  5  1  0
  5  6  2  0
  5 10  1  0
  6  7  1  0
  7  8  1  0
  8  9  1  0
  9 10  2  0
 11 12  2  0
 11 13  1  0
 13 14  1  0
 14 15  1  0
 15 16  1  0
M  END
