
     RDKit          3D

 18 18  0  0  0  0  0  0  0  0999 V2000
    5.3620   -0.7770   -0.1840 O   0  0  0  0  0  0  0  0  0  0  0  0
    4.2040   -0.2350    0.4170 C   0  0  0  0  0  0  0  0  0  0  0  0
    3.0500   -0.6220   -0.4740 C   0  0  0  0  0  0  0  0  0  0  0  0
    1.7280   -0.1130    0.0360 C   0  0  2  0  0  0  0  0  0  0  0  0
    0.7500   -0.5310   -0.8650 O   0  0  0  0  0  0  0  0  0  0  0  0
    0.3090   -1.8130   -0.6460 C   0  0  0  0  0  0  0  0  0  0  0  0
   -0.9680   -2.0080   -1.4320 C   0  0  0  0  0  0  0  0  0  0  0  0
   -2.0940   -2.0510   -0.6510 O   0  0  0  0  0  0  0  0  0  0  0  0
   -2.0680   -1.2350    0.4550 C   0  0  2  0  0  0  0  0  0  0  0  0
   -2.0980   -2.0820    1.5870 O   0  0  0  0  0  0  0  0  0  0  0  0
   -3.2550   -0.3220    0.5700 C   0  0  2  0  0  0  0  0  0  0  0  0
   -4.2980   -0.8580   -0.1780 O   0  0  0  0  0  0  0  0  0  0  0  0
   -2.9790    1.0630    0.0640 C   0  0  0  0  0  0  0  0  0  0  0  0
   -1.9240    1.7870    0.8460 C   0  0  0  0  0  0  0  0  0  0  0  0
   -0.7090    2.0140    0.0850 N   0  0  0  0  0  0  0  0  0  0  0  0
    0.4840    1.8370    0.8920 C   0  0  0  0  0  0  0  0  0  0  0  0
    1.6750    1.4010    0.0650 C   0  0  2  0  0  0  0  0  0  0  0  0
    1.4770    1.8090   -1.2660 O   0  0  0  0  0  0  0  0  0  0  0  0
  1  2  1  0
  2  3  1  0
  4  3  1  6
  4  5  1  0
  4 17  1  0
  5  6  1  0
  6  7  1  0
  7  8  1  0
  8  9  1  0
  9 10  1  1
  9 11  1  0
 11 12  1  6
 11 13  1  0
 13 14  1  0
 14 15  1  0
 15 16  1  0
 16 17  1  0
 17 18  1  6
M  CHG  1  15   1
M  END
