
     RDKit          3D

 18 19  0  0  0  0  0  0  0  0999 V2000
   -2.7320    1.8760    0.8890 N   0  0  0  0  0  0  0  0  0  0  0  0
   -2.9580    0.4540    1.0840 C   0  0  1  0  0  0  0  0  0  0  0  0
   -4.4180    0.1300    0.9160 C   0  0  0  0  0  0  0  0  0  0  0  0
   -4.4580   -0.9050   -0.2030 C   0  0  0  0  0  0  0  0  0  0  0  0
   -3.3180   -0.4040   -1.0760 C   0  0  2  0  0  0  0  0  0  0  0  0
   -2.9770   -1.2970   -2.0640 O   0  0  0  0  0  0  0  0  0  0  0  0
   -2.2150   -0.2730   -0.0180 C   0  0  1  0  0  0  0  0  0  0  0  0
   -1.1370    0.4330   -0.4870 O   0  0  0  0  0  0  0  0  0  0  0  0
    0.0160   -0.3670   -0.3540 C   0  0  0  0  0  0  0  0  0  0  0  0
    1.2170    0.4090   -0.8730 C   0  0  0  0  0  0  0  0  0  0  0  0
    2.3320   -0.3810   -0.7380 O   0  0  0  0  0  0  0  0  0  0  0  0
    3.4810    0.2460   -1.1870 C   0  0  2  0  0  0  0  0  0  0  0  0
    4.0510   -0.4460   -2.2340 O   0  0  0  0  0  0  0  0  0  0  0  0
    4.4390    0.4260   -0.0270 C   0  0  2  0  0  0  0  0  0  0  0  0
    4.7820   -0.8700    0.6510 C   0  0  0  0  0  0  0  0  0  0  0  0
    4.5610   -0.5590    2.0120 O   0  0  0  0  0  0  0  0  0  0  0  0
    3.4470    0.2860    1.9000 C   0  0  0  0  0  0  0  0  0  0  0  0
    3.8510    1.1980    0.9520 O   0  0  0  0  0  0  0  0  0  0  0  0
  2  1  1  6
  2  3  1  0
  2  7  1  0
  3  4  1  0
  4  5  1  0
  5  6  1  6
  5  7  1  0
  7  8  1  6
  8  9  1  0
  9 10  1  0
 10 11  1  0
 11 12  1  0
 12 13  1  6
 12 14  1  0
 14 15  1  1
 14 18  1  0
 15 16  1  0
 16 17  1  0
 17 18  1  0
M  CHG  1   1   1
M  END
