
     RDKit          3D

 18 19  0  0  0  0  0  0  0  0999 V2000
    0.2640    0.4610   -1.9470 C   0  0  0  0  0  0  0  0  0  0  0  0
   -0.1310    0.5170   -0.5200 C   0  0  1  0  0  0  0  0  0  0  0  0
   -1.3630   -0.3670   -0.1900 C   0  0  2  0  0  0  0  0  0  0  0  0
   -2.0010   -0.8630   -1.4370 C   0  0  0  0  0  0  0  0  0  0  0  0
   -3.0810   -1.8170   -1.2320 N   0  0  0  0  0  0  0  0  0  0  0  0
   -2.2640    0.5010    0.6040 C   0  0  0  0  0  0  0  0  0  0  0  0
   -3.5520   -0.0680    1.0770 C   0  0  0  0  0  0  0  0  0  0  0  0
   -4.1610    0.9810    1.8380 O   0  0  0  0  0  0  0  0  0  0  0  0
   -0.9100   -1.4660    0.5400 O   0  0  0  0  0  0  0  0  0  0  0  0
    0.1790   -2.0980   -0.0530 C   0  0  0  0  0  0  0  0  0  0  0  0
    1.4420   -1.2430    0.1010 C   0  0  0  0  0  0  0  0  0  0  0  0
    0.9300    0.1290    0.4680 C   0  0  2  0  0  0  0  0  0  0  0  0
    0.2840   -0.0540    1.7070 O   0  0  0  0  0  0  0  0  0  0  0  0
    2.0040    1.1280    0.6940 C   0  0  2  0  0  0  0  0  0  0  0  0
    2.8790    1.4790   -0.4420 C   0  0  0  0  0  0  0  0  0  0  0  0
    4.2410    1.5640    0.2420 C   0  0  0  0  0  0  0  0  0  0  0  0
    4.1590    0.4740    1.1400 O   0  0  0  0  0  0  0  0  0  0  0  0
    2.9530    0.7020    1.7850 C   0  0  0  0  0  0  0  0  0  0  0  0
  2  1  1  6
  2  3  1  0
  2 12  1  0
  3  4  1  6
  3  6  1  0
  3  9  1  0
  4  5  1  0
  6  7  1  0
  7  8  1  0
  9 10  1  0
 10 11  1  0
 11 12  1  0
 12 13  1  1
 12 14  1  0
 14 15  1  6
 14 18  1  0
 15 16  1  0
 16 17  1  0
 17 18  1  0
M  CHG  1   5   1
M  END
