
     RDKit          3D

 20 22  0  0  0  0  0  0  0  0999 V2000
   -0.9120    1.4440    2.1800 O   0  0  0  0  0  0  0  0  0  0  0  0
   -1.6020    1.8050    1.2090 C   0  0  0  0  0  0  0  0  0  0  0  0
   -2.7220    2.8200    1.2610 C   0  0  0  0  0  0  0  0  0  0  0  0
   -2.6990    3.2860   -0.1970 C   0  0  0  0  0  0  0  0  0  0  0  0
   -2.4770    1.9670   -0.9040 C   0  0  0  0  0  0  0  0  0  0  0  0
   -1.4620    1.3340   -0.1030 N   0  0  0  0  0  0  0  0  0  0  0  0
   -0.5010    0.3680   -0.6910 C   0  0  1  0  0  0  0  0  0  0  0  0
    0.8740    0.6690   -0.3140 C   0  0  0  0  0  0  0  0  0  0  0  0
    1.9520   -0.1400   -0.9480 C   0  0  1  0  0  0  0  0  0  0  0  0
    1.9070    0.0320   -2.3680 O   0  0  0  0  0  0  0  0  0  0  0  0
    3.3400    0.4240   -0.5250 C   0  0  0  0  0  0  0  0  0  0  0  0
    4.1270   -0.7640   -0.0290 C   0  0  0  0  0  0  0  0  0  0  0  0
    2.9760   -1.6320    0.5280 C   0  0  0  0  0  0  0  0  0  0  0  0
    2.0750   -1.5890   -0.7150 C   0  0  0  0  0  0  0  0  0  0  0  0
   -1.0050   -0.8930   -0.0220 C   0  0  0  0  0  0  0  0  0  0  0  0
   -0.5380   -1.4000    1.0770 C   0  0  0  0  0  0  0  0  0  0  0  0
   -1.0690   -2.6580    1.7060 C   0  0  0  0  0  0  0  0  0  0  0  0
   -2.2550   -3.1060    1.1160 O   0  0  0  0  0  0  0  0  0  0  0  0
   -2.7690   -2.5970   -0.0410 C   0  0  0  0  0  0  0  0  0  0  0  0
   -2.1960   -1.5530   -0.5940 C   0  0  0  0  0  0  0  0  0  0  0  0
  1  2  2  0
  2  3  1  0
  2  6  1  0
  3  4  1  0
  4  5  1  0
  5  6  1  0
  6  7  1  0
  7  8  1  1
  7 15  1  0
  8  9  1  0
  9 10  1  6
  9 11  1  0
  9 14  1  0
 11 12  1  0
 12 13  1  0
 13 14  1  0
 15 16  2  0
 15 20  1  0
 16 17  1  0
 17 18  1  0
 18 19  1  0
 19 20  2  0
M  END
