
     RDKit          3D

 17 18  0  0  0  0  0  0  0  0999 V2000
    2.5840    1.6560   -0.3770 C   0  0  0  0  0  0  0  0  0  0  0  0
    2.1910    0.2140   -0.0910 C   0  0  1  0  0  0  0  0  0  0  0  0
    2.0430   -0.5310   -1.3660 C   0  0  0  0  0  0  0  0  0  0  0  0
    3.2490   -0.5050   -2.0460 O   0  0  0  0  0  0  0  0  0  0  0  0
    3.0840   -0.4580    0.8890 C   0  0  0  0  0  0  0  0  0  0  0  0
    2.2240   -1.0440    1.9880 C   0  0  0  0  0  0  0  0  0  0  0  0
    0.8480   -1.0470    1.2940 C   0  0  0  0  0  0  0  0  0  0  0  0
    0.8680    0.2960    0.7010 C   0  0  2  0  0  0  0  0  0  0  0  0
   -0.1740    0.8850    0.0470 N   0  0  0  0  0  0  0  0  0  0  0  0
   -1.3880    0.3190   -0.3360 C   0  0  1  0  0  0  0  0  0  0  0  0
   -2.0290    1.3130   -1.3390 C   0  0  0  0  0  0  0  0  0  0  0  0
   -2.2390    2.5400   -0.7610 O   0  0  0  0  0  0  0  0  0  0  0  0
   -1.5410   -1.0100   -0.8690 C   0  0  0  0  0  0  0  0  0  0  0  0
   -2.3500   -1.8700    0.0980 C   0  0  0  0  0  0  0  0  0  0  0  0
   -3.3300   -0.8150    0.5730 C   0  0  2  0  0  0  0  0  0  0  0  0
   -4.2500   -0.5070   -0.4020 O   0  0  0  0  0  0  0  0  0  0  0  0
   -2.3910    0.3360    0.8350 C   0  0  0  0  0  0  0  0  0  0  0  0
  2  1  1  6
  2  3  1  0
  2  5  1  0
  2  8  1  0
  3  4  1  0
  5  6  1  0
  6  7  1  0
  7  8  1  0
  8  9  1  6
  9 10  1  0
 10 11  1  6
 10 13  1  0
 10 17  1  0
 11 12  1  0
 13 14  1  0
 14 15  1  0
 15 16  1  6
 15 17  1  0
M  CHG  1   9   1
M  END
