
     RDKit          3D

 11 10  0  0  0  0  0  0  0  0999 V2000
    2.7090   -2.1470   -0.1280 O   0  0  0  0  0  0  0  0  0  0  0  0
    1.7310   -1.2810    0.4400 C   0  0  0  0  0  0  0  0  0  0  0  0
    1.1870   -0.4020   -0.6180 C   0  0  0  0  0  0  0  0  0  0  0  0
    0.1620    0.5900   -0.2760 C   0  0  1  0  0  0  0  0  0  0  0  0
    0.5720    1.4920    0.7250 O   0  0  0  0  0  0  0  0  0  0  0  0
    0.0540    1.4830   -1.5880 C   0  0  0  0  0  0  0  0  0  0  0  0
   -0.8800    2.4850   -1.3630 O   0  0  0  0  0  0  0  0  0  0  0  0
   -1.2290    0.1490   -0.0650 C   0  0  0  0  0  0  0  0  0  0  0  0
   -1.5410   -0.8330    0.9970 C   0  0  1  0  0  0  0  0  0  0  0  0
   -1.1480   -0.3730    2.2440 O   0  0  0  0  0  0  0  0  0  0  0  0
   -2.9820   -0.8980    1.0550 O   0  0  0  0  0  0  0  0  0  0  0  0
  1  2  1  0
  2  3  1  0
  3  4  1  0
  4  5  1  1
  4  6  1  0
  4  8  1  0
  6  7  1  0
  8  9  1  0
  9 10  1  1
  9 11  1  0
M  END
