
     RDKit          3D

 11 11  0  0  0  0  0  0  0  0999 V2000
    2.4410    0.7230    1.0980 O   0  0  0  0  0  0  0  0  0  0  0  0
    2.2600    0.6380   -0.2760 C   0  0  0  0  0  0  0  0  0  0  0  0
    1.3530   -0.4810   -0.6820 C   0  0  1  0  0  0  0  0  0  0  0  0
    1.9270   -1.6710   -0.2330 O   0  0  0  0  0  0  0  0  0  0  0  0
   -0.0510   -0.3390   -0.2270 C   0  0  2  0  0  0  0  0  0  0  0  0
   -0.7740   -1.4340   -0.7470 O   0  0  0  0  0  0  0  0  0  0  0  0
   -0.6650    0.9380   -0.6910 C   0  0  0  0  0  0  0  0  0  0  0  0
   -1.8860    1.0430    0.2320 C   0  0  0  0  0  0  0  0  0  0  0  0
   -1.5980   -0.0300    1.2460 C   0  0  1  0  0  0  0  0  0  0  0  0
   -2.3760   -1.1440    0.9370 O   0  0  0  0  0  0  0  0  0  0  0  0
   -0.2370   -0.3140    1.1290 O   0  0  0  0  0  0  0  0  0  0  0  0
  1  2  1  0
  2  3  1  0
  3  4  1  1
  3  5  1  0
  5  6  1  6
  5  7  1  0
  5 11  1  0
  7  8  1  0
  8  9  1  0
  9 10  1  6
  9 11  1  0
M  END
