
     RDKit          3D

 12 11  0  0  0  0  0  0  0  0999 V2000
    0.0250   -0.9030   -1.7260 C   0  0  0  0  0  0  0  0  0  0  0  0
   -0.5790   -0.5290   -0.4010 C   0  0  1  0  0  0  0  0  0  0  0  0
   -0.8510   -1.6600    0.3640 O   0  0  0  0  0  0  0  0  0  0  0  0
    0.3000    0.2560    0.2990 O   0  0  0  0  0  0  0  0  0  0  0  0
    1.4850   -0.3670    0.5800 C   0  0  2  0  0  0  0  0  0  0  0  0
    1.6980   -0.5200    1.9610 O   0  0  0  0  0  0  0  0  0  0  0  0
    2.6920    0.3630    0.0060 C   0  0  0  0  0  0  0  0  0  0  0  0
    2.7700    1.6550    0.5270 O   0  0  0  0  0  0  0  0  0  0  0  0
   -1.8900    0.1890   -0.6350 C   0  0  2  0  0  0  0  0  0  0  0  0
   -1.7650    1.3310   -1.3820 O   0  0  0  0  0  0  0  0  0  0  0  0
   -2.4990    0.5340    0.7140 C   0  0  0  0  0  0  0  0  0  0  0  0
   -1.6440    1.4490    1.3650 O   0  0  0  0  0  0  0  0  0  0  0  0
  2  1  1  6
  2  3  1  0
  2  4  1  0
  2  9  1  0
  4  5  1  0
  5  6  1  1
  5  7  1  0
  7  8  1  0
  9 10  1  6
  9 11  1  0
 11 12  1  0
M  END
