
     RDKit          3D

 11 11  0  0  0  0  0  0  0  0999 V2000
    3.2110   -0.0630    0.3320 C   0  0  0  0  0  0  0  0  0  0  0  0
    2.0560    0.4530   -0.2640 O   0  0  0  0  0  0  0  0  0  0  0  0
    0.9020    0.0790    0.4220 C   0  0  1  0  0  0  0  0  0  0  0  0
    0.3760    1.2130    0.9840 O   0  0  0  0  0  0  0  0  0  0  0  0
   -0.6960    1.7640    0.3600 C   0  0  0  0  0  0  0  0  0  0  0  0
   -1.8300    0.7300    0.4410 C   0  0  0  0  0  0  0  0  0  0  0  0
   -1.3990   -0.3520   -0.5360 C   0  0  1  0  0  0  0  0  0  0  0  0
   -2.2740   -1.4560   -0.4130 O   0  0  0  0  0  0  0  0  0  0  0  0
   -1.6800    0.1750   -1.8190 O   0  0  0  0  0  0  0  0  0  0  0  0
    0.0260   -0.7430   -0.4160 C   0  0  2  0  0  0  0  0  0  0  0  0
    0.0470   -2.1020   -0.0120 O   0  0  0  0  0  0  0  0  0  0  0  0
  1  2  1  0
  3  2  1  6
  3  4  1  0
  3 10  1  0
  4  5  1  0
  5  6  1  0
  6  7  1  0
  7  8  1  1
  7  9  1  0
  7 10  1  0
 10 11  1  1
M  END
