
     RDKit          3D

 11 11  0  0  0  0  0  0  0  0999 V2000
    1.9910   -0.3740   -1.4970 O   0  0  0  0  0  0  0  0  0  0  0  0
    1.8480   -0.9290   -0.2470 C   0  0  0  0  0  0  0  0  0  0  0  0
    1.1070   -0.0320    0.7170 C   0  0  2  0  0  0  0  0  0  0  0  0
    1.0070   -0.6680    1.9520 O   0  0  0  0  0  0  0  0  0  0  0  0
   -0.2880    0.2920    0.2610 C   0  0  1  0  0  0  0  0  0  0  0  0
   -0.9350    1.1250    1.3540 C   0  0  0  0  0  0  0  0  0  0  0  0
   -2.2510    1.4470    1.0380 O   0  0  0  0  0  0  0  0  0  0  0  0
   -0.3710    0.9230   -1.0780 C   0  0  0  0  0  0  0  0  0  0  0  0
   -0.5980   -0.1420   -1.9290 O   0  0  0  0  0  0  0  0  0  0  0  0
   -1.4290   -0.9700   -1.1800 C   0  0  0  0  0  0  0  0  0  0  0  0
   -1.0420   -0.8730    0.1380 O   0  0  0  0  0  0  0  0  0  0  0  0
  1  2  1  0
  2  3  1  0
  3  4  1  1
  3  5  1  0
  5  6  1  1
  5  8  1  0
  5 11  1  0
  6  7  1  0
  8  9  1  0
  9 10  1  0
 10 11  1  0
M  END
