
     RDKit          3D

 12 12  0  0  0  0  0  0  0  0999 V2000
   -3.3260    0.8430    0.6230 O   0  0  0  0  0  0  0  0  0  0  0  0
   -2.8140    0.9750   -0.5890 O   0  0  0  0  0  0  0  0  0  0  0  0
   -1.6030    0.2790   -0.6270 C   0  0  1  0  0  0  0  0  0  0  0  0
   -1.9330   -1.0570   -0.3340 O   0  0  0  0  0  0  0  0  0  0  0  0
   -1.1640    0.2960   -1.9270 O   0  0  0  0  0  0  0  0  0  0  0  0
   -0.6460    0.8200    0.3760 C   0  0  0  0  0  0  0  0  0  0  0  0
    0.6710    0.2190    0.4830 C   0  0  2  0  0  0  0  0  0  0  0  0
    1.3810    0.9070    1.5000 O   0  0  0  0  0  0  0  0  0  0  0  0
    1.5590    0.3160   -0.7370 C   0  0  0  0  0  0  0  0  0  0  0  0
    2.6830   -0.6290   -0.2830 C   0  0  0  0  0  0  0  0  0  0  0  0
    2.2020   -1.3360    0.7950 O   0  0  0  0  0  0  0  0  0  0  0  0
    0.8000   -1.2230    0.7810 C   0  0  0  0  0  0  0  0  0  0  0  0
  1  2  1  0
  2  3  1  0
  3  4  1  1
  3  5  1  0
  3  6  1  0
  6  7  1  0
  7  8  1  1
  7  9  1  0
  7 12  1  0
  9 10  1  0
 10 11  1  0
 11 12  1  0
M  END
