
     RDKit          3D

 34 35  0  0  0  0  0  0  0  0999 V2000
    7.3590    3.0700    1.5470 O   0  0  0  0  0  0  0  0  0  0  0  0
    5.8660    3.4020    1.2070 P   0  0  0  0  0  0  0  0  0  0  0  0
    4.5100    2.5910    2.1770 C   0  0  0  0  0  0  0  0  0  0  0  0
    3.4660    1.9790    1.2560 C   0  0  0  0  0  0  0  0  0  0  0  0
    2.8160    2.9750    0.3790 C   0  0  0  0  0  0  0  0  0  0  0  0
    1.7850    2.5400   -0.5720 C   0  0  0  0  0  0  0  0  0  0  0  0
    2.0870    1.6750   -1.7280 C   0  0  0  0  0  0  0  0  0  0  0  0
    2.6890    0.4160   -1.5820 N   0  0  0  0  0  0  0  0  0  0  0  0
    4.1100    0.2730   -1.7800 C   0  0  0  0  0  0  0  0  0  0  0  0
    4.8700    1.2880   -1.8210 O   0  0  0  0  0  0  0  0  0  0  0  0
    4.6730   -1.0760   -1.9360 C   0  0  0  0  0  0  0  0  0  0  0  0
    3.8830   -2.0420   -1.2220 N   0  0  0  0  0  0  0  0  0  0  0  0
    2.5270   -1.8380   -1.0520 N   0  0  0  0  0  0  0  0  0  0  0  0
    1.9100   -0.7210   -1.2020 C   0  0  0  0  0  0  0  0  0  0  0  0
    0.4820   -0.6420   -0.9740 C   0  0  0  0  0  0  0  0  0  0  0  0
   -0.3900    0.1520   -1.5970 N   0  0  0  0  0  0  0  0  0  0  0  0
   -1.6970    0.2230   -1.3860 C   0  0  0  0  0  0  0  0  0  0  0  0
   -2.5960    1.1500   -2.1360 C   0  0  0  0  0  0  0  0  0  0  0  0
   -3.1960    0.2410   -3.6370 P   0  0  0  0  0  0  0  0  0  0  0  0
   -4.8930    0.5360   -3.8390 O   0  0  0  0  0  0  0  0  0  0  0  0
   -2.9880   -1.4880   -3.4750 O   0  0  0  0  0  0  0  0  0  0  0  0
   -2.2030   -0.5960   -0.4370 N   0  0  0  0  0  0  0  0  0  0  0  0
   -1.3780   -1.4420    0.2510 C   0  0  0  0  0  0  0  0  0  0  0  0
   -1.9750   -2.2640    1.2260 O   0  0  0  0  0  0  0  0  0  0  0  0
   -3.3640   -2.2220    1.4580 C   0  0  2  0  0  0  0  0  0  0  0  0
   -3.7170   -1.7320    2.8640 C   0  0  0  0  0  0  0  0  0  0  0  0
   -3.1440   -0.3480    3.0020 C   0  0  0  0  0  0  0  0  0  0  0  0
   -1.9400   -0.1230    2.7360 O   0  0  0  0  0  0  0  0  0  0  0  0
   -3.9300    0.7210    3.4260 O   0  0  0  0  0  0  0  0  0  0  0  0
   -4.0460   -3.9370    1.3280 P   0  0  0  0  0  0  0  0  0  0  0  0
   -3.5580   -4.8400    2.7440 O   0  0  0  0  0  0  0  0  0  0  0  0
   -5.7590   -3.8490    1.1870 O   0  0  0  0  0  0  0  0  0  0  0  0
   -6.2760   -4.2350    2.3370 O   0  0  0  0  0  0  0  0  0  0  0  0
   -0.0670   -1.4570   -0.0180 N   0  0  0  0  0  0  0  0  0  0  0  0
  1  2  2  0
  2  3  1  0
  3  4  1  0
  4  5  1  0
  5  6  1  0
  6  7  1  0
  7  8  1  0
  8  9  1  0
  8 14  1  0
  9 10  2  0
  9 11  1  0
 11 12  1  0
 12 13  1  0
 13 14  2  0
 14 15  1  0
 15 16  2  0
 15 34  1  0
 16 17  1  0
 17 18  1  0
 17 22  2  0
 18 19  1  0
 19 20  1  0
 19 21  1  0
 22 23  1  0
 23 24  1  0
 23 34  2  0
 24 25  1  0
 25 26  1  1
 25 30  1  0
 26 27  1  0
 27 28  2  0
 27 29  1  0
 30 31  1  0
 30 32  1  0
 32 33  1  0
M  END
