
     RDKit          3D

 34 35  0  0  0  0  0  0  0  0999 V2000
   -7.0620   -2.3770   -1.6490 C   0  0  0  0  0  0  0  0  0  0  0  0
   -6.3520   -1.3660   -2.1690 O   0  0  0  0  0  0  0  0  0  0  0  0
   -5.0120   -1.3200   -2.1650 C   0  0  0  0  0  0  0  0  0  0  0  0
   -4.2810   -1.3460   -0.8500 C   0  0  1  0  0  0  0  0  0  0  0  0
   -4.5420   -2.9540    0.0000 P   0  0  0  0  0  0  0  0  0  0  0  0
   -3.1510   -3.9880   -0.1060 O   0  0  0  0  0  0  0  0  0  0  0  0
   -5.0200   -2.7340    1.6540 O   0  0  0  0  0  0  0  0  0  0  0  0
   -2.8020   -1.2360   -1.0920 C   0  0  0  0  0  0  0  0  0  0  0  0
   -2.0400   -0.2710   -0.6330 C   0  0  0  0  0  0  0  0  0  0  0  0
   -0.7490    0.0120   -0.7250 O   0  0  0  0  0  0  0  0  0  0  0  0
   -0.4740    1.1040   -0.0800 C   0  0  0  0  0  0  0  0  0  0  0  0
    0.8910    1.6610   -0.0110 C   0  0  2  0  0  0  0  0  0  0  0  0
    1.8310    0.6410    0.2690 O   0  0  0  0  0  0  0  0  0  0  0  0
    2.8720    0.2940   -0.5620 C   0  0  0  0  0  0  0  0  0  0  0  0
    2.9970    0.9220   -1.6390 O   0  0  0  0  0  0  0  0  0  0  0  0
    3.8010   -0.7310   -0.2610 N   0  0  0  0  0  0  0  0  0  0  0  0
    4.8810   -1.0660   -1.1600 C   0  0  0  0  0  0  0  0  0  0  0  0
    5.7110   -2.1880   -0.5920 C   0  0  0  0  0  0  0  0  0  0  0  0
    4.8660   -3.2840   -0.4290 O   0  0  0  0  0  0  0  0  0  0  0  0
    5.6570   -4.6620    0.2160 P   0  0  0  0  0  0  0  0  0  0  0  0
    7.2010   -4.3180    0.8840 O   0  0  0  0  0  0  0  0  0  0  0  0
    4.6660   -5.5110    1.3490 O   0  0  0  0  0  0  0  0  0  0  0  0
    1.0550    2.7360    0.9970 C   0  0  1  0  0  0  0  0  0  0  0  0
    2.4940    3.2360    0.9900 C   0  0  0  0  0  0  0  0  0  0  0  0
    2.8800    3.7490   -0.2290 O   0  0  0  0  0  0  0  0  0  0  0  0
    0.1800    3.9380    0.8250 C   0  0  0  0  0  0  0  0  0  0  0  0
    0.5160    4.8300    1.9040 O   0  0  0  0  0  0  0  0  0  0  0  0
   -0.1100    6.0570    2.0550 C   0  0  0  0  0  0  0  0  0  0  0  0
   -0.9980    6.3860    1.2120 O   0  0  0  0  0  0  0  0  0  0  0  0
    0.2010    6.9310    3.0900 O   0  0  0  0  0  0  0  0  0  0  0  0
   -1.6220    1.5440    0.4470 N   0  0  0  0  0  0  0  0  0  0  0  0
   -2.6400    0.7220    0.1330 C   0  0  0  0  0  0  0  0  0  0  0  0
   -3.9370    0.6950    0.3910 C   0  0  0  0  0  0  0  0  0  0  0  0
   -4.7650   -0.2950   -0.0700 O   0  0  0  0  0  0  0  0  0  0  0  0
  1  2  1  0
  2  3  1  0
  4  3  1  6
  4  5  1  0
  4  8  1  0
  4 34  1  0
  5  6  1  0
  5  7  1  0
  8  9  2  0
  9 10  1  0
  9 32  1  0
 10 11  1  0
 11 12  1  0
 11 31  2  0
 12 13  1  1
 12 23  1  0
 13 14  1  0
 14 15  2  0
 14 16  1  0
 16 17  1  0
 17 18  1  0
 18 19  1  0
 19 20  1  0
 20 21  1  0
 20 22  1  0
 23 24  1  6
 23 26  1  0
 24 25  1  0
 26 27  1  0
 27 28  1  0
 28 29  2  0
 28 30  1  0
 31 32  1  0
 32 33  2  0
 33 34  1  0
M  END
