
     RDKit          3D

 34 35  0  0  0  0  0  0  0  0999 V2000
   -5.0230    1.4540   -2.8200 O   0  0  0  0  0  0  0  0  0  0  0  0
   -4.4960    1.3730   -1.6660 C   0  0  0  0  0  0  0  0  0  0  0  0
   -3.0370    1.1100   -1.6970 C   0  0  0  0  0  0  0  0  0  0  0  0
   -2.8000   -0.3550   -1.8450 C   0  0  1  0  0  0  0  0  0  0  0  0
   -3.8700   -1.0830   -2.5730 C   0  0  0  0  0  0  0  0  0  0  0  0
   -3.6090   -1.7700   -3.6110 O   0  0  0  0  0  0  0  0  0  0  0  0
   -5.1850   -1.0550   -2.1700 O   0  0  0  0  0  0  0  0  0  0  0  0
   -1.5030   -0.5790   -2.4650 N   0  0  0  0  0  0  0  0  0  0  0  0
   -0.5060   -1.4390   -2.0250 C   0  0  0  0  0  0  0  0  0  0  0  0
   -0.0520   -2.2870   -2.8960 O   0  0  0  0  0  0  0  0  0  0  0  0
    0.1310   -1.5470   -0.7110 C   0  0  1  0  0  0  0  0  0  0  0  0
    1.3910   -0.9050   -0.8520 O   0  0  0  0  0  0  0  0  0  0  0  0
    0.9870    0.4090   -1.0230 C   0  0  2  0  0  0  0  0  0  0  0  0
    2.1140    1.4010   -0.8780 C   0  0  0  0  0  0  0  0  0  0  0  0
    2.7440    1.4110    0.3260 O   0  0  0  0  0  0  0  0  0  0  0  0
    3.3570    0.2640    0.7380 C   0  0  0  0  0  0  0  0  0  0  0  0
    4.4500   -0.2250   -0.1870 C   0  0  0  0  0  0  0  0  0  0  0  0
    5.8030    1.0320   -0.3690 P   0  0  0  0  0  0  0  0  0  0  0  0
    7.0280    0.3050   -1.3950 O   0  0  0  0  0  0  0  0  0  0  0  0
    6.5630    1.2890    1.1780 O   0  0  0  0  0  0  0  0  0  0  0  0
    7.8550    0.1380    1.4150 P   0  0  0  0  0  0  0  0  0  0  0  0
    8.1510   -0.0140    3.1040 O   0  0  0  0  0  0  0  0  0  0  0  0
    9.3300    0.7270    0.6750 O   0  0  0  0  0  0  0  0  0  0  0  0
   -0.0330    0.5970   -0.0890 O   0  0  0  0  0  0  0  0  0  0  0  0
   -0.4260   -0.6890    0.3550 C   0  0  0  0  0  0  0  0  0  0  0  0
   -1.0410   -1.0720    1.3180 N   0  0  0  0  0  0  0  0  0  0  0  0
   -1.6590   -1.7830    2.2320 C   0  0  0  0  0  0  0  0  0  0  0  0
   -1.8670   -3.0300    2.2220 O   0  0  0  0  0  0  0  0  0  0  0  0
   -2.1810   -1.1600    3.3930 O   0  0  0  0  0  0  0  0  0  0  0  0
   -2.8670    0.0740    3.3870 C   0  0  0  0  0  0  0  0  0  0  0  0
   -3.2280    0.5040    1.9770 C   0  0  0  0  0  0  0  0  0  0  0  0
   -4.5960    1.1260    1.8680 C   0  0  0  0  0  0  0  0  0  0  0  0
   -5.3220    0.7160    0.6170 C   0  0  0  0  0  0  0  0  0  0  0  0
   -5.1270    1.5030   -0.4810 O   0  0  0  0  0  0  0  0  0  0  0  0
  1  2  2  0
  2  3  1  0
  2 34  1  0
  3  4  1  0
  4  5  1  6
  4  8  1  0
  5  6  2  0
  5  7  1  0
  8  9  1  0
  9 10  2  0
  9 11  1  0
 11 12  1  6
 11 25  1  0
 12 13  1  0
 13 14  1  1
 13 24  1  0
 14 15  1  0
 15 16  1  0
 16 17  1  0
 17 18  1  0
 18 19  1  0
 18 20  1  0
 20 21  1  0
 21 22  1  0
 21 23  1  0
 24 25  1  0
 25 26  2  0
 26 27  1  0
 27 28  2  0
 27 29  1  0
 29 30  1  0
 30 31  1  0
 31 32  1  0
 32 33  1  0
 33 34  1  0
M  END
