
     RDKit          3D

 24 25  0  0  0  0  0  0  0  0999 V2000
   -3.3360   -2.9850   -4.2020 C   0  0  0  0  0  0  0  0  0  0  0  0
   -3.3310   -3.1890   -2.9210 C   0  0  0  0  0  0  0  0  0  0  0  0
   -2.6100   -2.3950   -1.9530 C   0  0  0  0  0  0  0  0  0  0  0  0
   -2.7270   -2.7600   -0.6610 C   0  0  0  0  0  0  0  0  0  0  0  0
   -3.5710   -3.9320   -0.3000 C   0  0  0  0  0  0  0  0  0  0  0  0
   -2.0160   -1.9850    0.3290 C   0  0  0  0  0  0  0  0  0  0  0  0
   -1.2520   -0.9410    0.0880 C   0  0  0  0  0  0  0  0  0  0  0  0
   -0.5850   -0.2350    1.1340 N   0  0  0  0  0  0  0  0  0  0  0  0
    0.8280   -0.2600    1.2080 C   0  0  0  0  0  0  0  0  0  0  0  0
    1.4360   -0.9440    0.3090 O   0  0  0  0  0  0  0  0  0  0  0  0
    1.5550    0.4270    2.2150 N   0  0  0  0  0  0  0  0  0  0  0  0
    2.9780    0.3520    2.2130 C   0  0  0  0  0  0  0  0  0  0  0  0
    3.5200    1.7490    2.0140 C   0  0  0  0  0  0  0  0  0  0  0  0
    3.5410    2.5100    3.3440 C   0  0  0  0  0  0  0  0  0  0  0  0
    2.2390    2.8380    3.7320 O   0  0  0  0  0  0  0  0  0  0  0  0
    1.5360    1.7800    4.2630 C   0  0  0  0  0  0  0  0  0  0  0  0
    0.7250    1.1450    3.1570 C   0  0  0  0  0  0  0  0  0  0  0  0
   -1.0730   -0.4730   -1.3020 C   0  0  0  0  0  0  0  0  0  0  0  0
   -0.3460    0.6030   -1.5350 C   0  0  0  0  0  0  0  0  0  0  0  0
   -0.0530    1.2110   -2.8110 C   0  0  0  0  0  0  0  0  0  0  0  0
    0.7130    2.3150   -2.8410 C   0  0  0  0  0  0  0  0  0  0  0  0
    1.0400    2.9730   -4.1210 C   0  0  0  0  0  0  0  0  0  0  0  0
   -1.7850   -1.2470   -2.3100 C   0  0  0  0  0  0  0  0  0  0  0  0
   -1.6630   -0.8900   -3.5010 O   0  0  0  0  0  0  0  0  0  0  0  0
  1  2  2  0
  2  3  1  0
  3  4  2  0
  3 23  1  0
  4  5  1  0
  4  6  1  0
  6  7  2  0
  7  8  1  0
  7 18  1  0
  8  9  1  0
  9 10  2  0
  9 11  1  0
 11 12  1  0
 11 17  1  0
 12 13  1  0
 13 14  1  0
 14 15  1  0
 15 16  1  0
 16 17  1  0
 18 19  2  3
 18 23  1  0
 19 20  1  0
 20 21  2  3
 21 22  1  0
 23 24  2  0
M  END
