
     RDKit          3D

 24 26  0  0  0  0  0  0  0  0999 V2000
   -6.8440   -0.5740    0.5510 C   0  0  0  0  0  0  0  0  0  0  0  0
   -6.1850    0.7520    0.2410 C   0  0  0  0  0  0  0  0  0  0  0  0
   -4.7770    0.4270   -0.1120 N   0  0  0  0  0  0  0  0  0  0  0  0
   -4.5490    0.1700   -1.4940 C   0  0  0  0  0  0  0  0  0  0  0  0
   -3.8550    0.4060    0.9140 C   0  0  0  0  0  0  0  0  0  0  0  0
   -4.3720    0.6860    2.0880 O   0  0  0  0  0  0  0  0  0  0  0  0
   -2.4460    0.1340    0.9200 C   0  0  0  0  0  0  0  0  0  0  0  0
   -1.7580    0.1910    2.1310 C   0  0  0  0  0  0  0  0  0  0  0  0
   -0.4120   -0.0480    2.2720 C   0  0  0  0  0  0  0  0  0  0  0  0
    0.3120   -0.3650    1.1460 C   0  0  0  0  0  0  0  0  0  0  0  0
   -0.3220   -0.4320   -0.0680 C   0  0  0  0  0  0  0  0  0  0  0  0
   -1.6900   -0.1820   -0.1650 C   0  0  0  0  0  0  0  0  0  0  0  0
    0.2540   -0.7510   -1.3900 C   0  0  0  0  0  0  0  0  0  0  0  0
   -0.5650   -1.0540   -2.2900 O   0  0  0  0  0  0  0  0  0  0  0  0
    1.6270   -0.7550   -1.7620 N   0  0  0  0  0  0  0  0  0  0  0  0
    2.7360   -0.4520   -0.8940 C   0  0  0  0  0  0  0  0  0  0  0  0
    3.9010   -0.2140   -1.5920 C   0  0  0  0  0  0  0  0  0  0  0  0
    5.0650    0.0920   -0.9230 C   0  0  0  0  0  0  0  0  0  0  0  0
    6.3140    0.3470   -1.6680 C   0  0  0  0  0  0  0  0  0  0  0  0
    5.0500    0.1590    0.4610 C   0  0  0  0  0  0  0  0  0  0  0  0
    6.3400    0.4950    1.1340 C   0  0  0  0  0  0  0  0  0  0  0  0
    3.8960   -0.0750    1.1790 C   0  0  0  0  0  0  0  0  0  0  0  0
    2.7260   -0.3850    0.4850 C   0  0  0  0  0  0  0  0  0  0  0  0
    1.6600   -0.5890    1.3820 O   0  0  0  0  0  0  0  0  0  0  0  0
  1  2  1  0
  2  3  1  0
  3  4  1  0
  3  5  1  0
  5  6  2  0
  5  7  1  0
  7  8  2  0
  7 12  1  0
  8  9  1  0
  9 10  2  0
 10 11  1  0
 10 24  1  0
 11 12  2  0
 11 13  1  0
 13 14  2  0
 13 15  1  0
 15 16  1  0
 16 17  2  0
 16 23  1  0
 17 18  1  0
 18 19  1  0
 18 20  2  0
 20 21  1  0
 20 22  1  0
 22 23  2  0
 23 24  1  0
M  END
