
     RDKit          3D

 24 26  0  0  0  0  0  0  0  0999 V2000
   -6.9740    0.2110    1.6200 C   0  0  0  0  0  0  0  0  0  0  0  0
   -6.3830   -0.1400    0.2850 C   0  0  0  0  0  0  0  0  0  0  0  0
   -7.1310   -0.5610   -0.7720 C   0  0  0  0  0  0  0  0  0  0  0  0
   -6.5620   -0.8670   -1.9540 N   0  0  0  0  0  0  0  0  0  0  0  0
   -5.2390   -0.7770   -2.1620 C   0  0  0  0  0  0  0  0  0  0  0  0
   -4.7240   -1.0630   -3.2620 O   0  0  0  0  0  0  0  0  0  0  0  0
   -4.4300   -0.3470   -1.1000 C   0  0  0  0  0  0  0  0  0  0  0  0
   -2.9990   -0.2520   -1.3330 C   0  0  0  0  0  0  0  0  0  0  0  0
   -2.1560    0.1370   -0.4110 C   0  0  0  0  0  0  0  0  0  0  0  0
   -0.7360    0.2060   -0.7210 C   0  0  0  0  0  0  0  0  0  0  0  0
    0.1140    0.5920    0.1860 N   0  0  0  0  0  0  0  0  0  0  0  0
    1.5050    0.6660   -0.0960 C   0  0  0  0  0  0  0  0  0  0  0  0
    2.0130    1.2680   -1.2260 C   0  0  0  0  0  0  0  0  0  0  0  0
    3.3810    1.1270   -1.1190 C   0  0  0  0  0  0  0  0  0  0  0  0
    3.6540    0.4540    0.0580 C   0  0  0  0  0  0  0  0  0  0  0  0
    4.9540    0.0780    0.5940 C   0  0  0  0  0  0  0  0  0  0  0  0
    5.0640   -0.5960    1.7890 C   0  0  0  0  0  0  0  0  0  0  0  0
    6.3270   -0.9250    2.2450 C   0  0  0  0  0  0  0  0  0  0  0  0
    7.4600   -0.5980    1.5400 C   0  0  0  0  0  0  0  0  0  0  0  0
    8.7280   -0.9180    1.9790 O   0  0  0  0  0  0  0  0  0  0  0  0
    7.3490    0.0780    0.3390 C   0  0  0  0  0  0  0  0  0  0  0  0
    6.0910    0.4040   -0.1110 C   0  0  0  0  0  0  0  0  0  0  0  0
    2.5180    0.2030    0.6270 O   0  0  0  0  0  0  0  0  0  0  0  0
   -4.9980   -0.0360    0.0980 C   0  0  0  0  0  0  0  0  0  0  0  0
  1  2  1  0
  2  3  2  0
  2 24  1  0
  3  4  1  0
  4  5  1  0
  5  6  2  0
  5  7  1  0
  7  8  1  0
  7 24  2  0
  8  9  2  3
  9 10  1  0
 10 11  2  3
 11 12  1  0
 12 13  2  0
 12 23  1  0
 13 14  1  0
 14 15  2  0
 15 16  1  0
 15 23  1  0
 16 17  2  0
 16 22  1  0
 17 18  1  0
 18 19  2  0
 19 20  1  0
 19 21  1  0
 21 22  2  0
M  END
