
     RDKit          3D

 24 26  0  0  0  0  0  0  0  0999 V2000
    4.0000    0.4070    1.6120 C   0  0  0  0  0  0  0  0  0  0  0  0
    4.1070    0.1730    0.3350 C   0  0  0  0  0  0  0  0  0  0  0  0
    5.4810    0.0730   -0.2650 C   0  0  0  0  0  0  0  0  0  0  0  0
    5.4800   -0.2240   -1.6510 N   0  0  0  0  0  0  0  0  0  0  0  0
    4.4640   -0.3830   -2.3590 C   0  0  0  0  0  0  0  0  0  0  0  0
    3.1260   -0.2730   -1.7920 C   0  0  0  0  0  0  0  0  0  0  0  0
    2.9780   -0.0060   -0.5120 C   0  0  0  0  0  0  0  0  0  0  0  0
    1.6190    0.0890   -0.0240 N   0  0  0  0  0  0  0  0  0  0  0  0
    1.2070    1.3870    0.4480 C   0  0  0  0  0  0  0  0  0  0  0  0
    0.4280    1.3640    1.6890 C   0  0  0  0  0  0  0  0  0  0  0  0
   -0.7760    1.9240    1.8170 C   0  0  0  0  0  0  0  0  0  0  0  0
   -1.4160    2.6120    0.6940 C   0  0  0  0  0  0  0  0  0  0  0  0
   -2.0810    1.5830   -0.2020 C   0  0  0  0  0  0  0  0  0  0  0  0
   -2.9040    0.7100    0.5500 O   0  0  0  0  0  0  0  0  0  0  0  0
   -3.5660   -0.4220    0.0520 C   0  0  0  0  0  0  0  0  0  0  0  0
   -4.9400   -0.5610    0.1720 C   0  0  0  0  0  0  0  0  0  0  0  0
   -5.6690   -1.6350   -0.2930 C   0  0  0  0  0  0  0  0  0  0  0  0
   -4.9840   -2.6350   -0.9190 C   0  0  0  0  0  0  0  0  0  0  0  0
   -3.6180   -2.5220   -1.0490 C   0  0  0  0  0  0  0  0  0  0  0  0
   -2.8700   -1.4440   -0.5820 C   0  0  0  0  0  0  0  0  0  0  0  0
   -1.4800   -1.3960   -0.7430 O   0  0  0  0  0  0  0  0  0  0  0  0
   -0.5420   -1.3140    0.3500 C   0  0  0  0  0  0  0  0  0  0  0  0
    0.8090   -1.0460   -0.0950 C   0  0  0  0  0  0  0  0  0  0  0  0
    1.3630   -2.0740   -0.6730 O   0  0  0  0  0  0  0  0  0  0  0  0
  1  2  2  0
  2  3  1  0
  2  7  1  0
  3  4  1  0
  4  5  2  0
  5  6  1  0
  6  7  2  0
  7  8  1  0
  8  9  1  0
  8 23  1  0
  9 10  1  0
 10 11  2  0
 11 12  1  0
 12 13  1  0
 13 14  1  0
 14 15  1  0
 15 16  2  0
 15 20  1  0
 16 17  1  0
 17 18  2  0
 18 19  1  0
 19 20  2  0
 20 21  1  0
 21 22  1  0
 22 23  1  0
 23 24  2  0
M  END
