
     RDKit          3D

 24 26  0  0  0  0  0  0  0  0999 V2000
   -2.7030   -3.4560   -0.4110 C   0  0  0  0  0  0  0  0  0  0  0  0
   -3.1350   -2.7320    0.5780 C   0  0  0  0  0  0  0  0  0  0  0  0
   -3.2170   -1.2850    0.5850 C   0  0  0  0  0  0  0  0  0  0  0  0
   -4.4300   -0.7690    1.0720 C   0  0  0  0  0  0  0  0  0  0  0  0
   -4.6140    0.5860    1.1270 C   0  0  0  0  0  0  0  0  0  0  0  0
   -5.8730    1.1930    1.6310 C   0  0  0  0  0  0  0  0  0  0  0  0
   -3.5950    1.4130    0.6990 C   0  0  0  0  0  0  0  0  0  0  0  0
   -2.4400    0.8840    0.2370 N   0  0  0  0  0  0  0  0  0  0  0  0
   -2.2250   -0.4370    0.1700 C   0  0  0  0  0  0  0  0  0  0  0  0
   -0.9810   -0.9050   -0.2640 N   0  0  0  0  0  0  0  0  0  0  0  0
    0.0550   -0.0340   -0.7290 C   0  0  0  0  0  0  0  0  0  0  0  0
   -0.2180    1.1970   -0.7540 O   0  0  0  0  0  0  0  0  0  0  0  0
    1.3520   -0.6090   -1.1420 C   0  0  2  0  0  0  0  0  0  0  0  0
    1.4400   -0.4060   -2.6510 C   0  0  0  0  0  0  0  0  0  0  0  0
    1.3030   -1.9870   -0.9490 O   0  0  0  0  0  0  0  0  0  0  0  0
    1.5940   -2.3530    0.3540 C   0  0  0  0  0  0  0  0  0  0  0  0
    3.1190   -2.2290    0.4870 C   0  0  0  0  0  0  0  0  0  0  0  0
    3.3910   -0.7760    0.3410 C   0  0  0  0  0  0  0  0  0  0  0  0
    4.3160    0.0030    0.8140 O   0  0  0  0  0  0  0  0  0  0  0  0
    4.1540    1.2380    0.4100 C   0  0  0  0  0  0  0  0  0  0  0  0
    5.0200    2.3920    0.7540 C   0  0  0  0  0  0  0  0  0  0  0  0
    3.0170    1.2450   -0.3960 C   0  0  0  0  0  0  0  0  0  0  0  0
    2.5160    2.4610   -1.0390 C   0  0  0  0  0  0  0  0  0  0  0  0
    2.5220   -0.0360   -0.4470 C   0  0  0  0  0  0  0  0  0  0  0  0
  1  2  2  0
  2  3  1  0
  3  4  2  0
  3  9  1  0
  4  5  1  0
  5  6  1  0
  5  7  2  0
  7  8  1  0
  8  9  2  0
  9 10  1  0
 10 11  1  0
 11 12  2  0
 11 13  1  0
 13 14  1  6
 13 15  1  0
 13 24  1  0
 15 16  1  0
 16 17  1  0
 17 18  1  0
 18 19  1  0
 18 24  2  0
 19 20  1  0
 20 21  1  0
 20 22  2  0
 22 23  1  0
 22 24  1  0
M  END
