
     RDKit          3D

 10  9  0  0  0  0  0  0  0  0999 V2000
   -3.1630    1.4390    1.0080 C   0  0  0  0  0  0  0  0  0  0  0  0
   -3.1870    0.6200    0.0180 C   0  0  0  0  0  0  0  0  0  0  0  0
   -2.0130   -0.1750   -0.3360 C   0  0  0  0  0  0  0  0  0  0  0  0
   -2.1200   -1.0070   -1.3600 C   0  0  0  0  0  0  0  0  0  0  0  0
   -0.7640   -0.0630    0.3210 N   0  0  0  0  0  0  0  0  0  0  0  0
    0.4100   -0.5870   -0.3290 C   0  0  0  0  0  0  0  0  0  0  0  0
    1.7060   -0.1960    0.3410 C   0  0  2  0  0  0  0  0  0  0  0  0
    1.9160    1.3030    0.3200 C   0  0  0  0  0  0  0  0  0  0  0  0
    2.8190   -0.8250   -0.4810 C   0  0  0  0  0  0  0  0  0  0  0  0
    1.7810   -0.6410    1.6450 O   0  0  0  0  0  0  0  0  0  0  0  0
  1  2  2  0
  2  3  1  0
  3  4  2  0
  3  5  1  0
  5  6  1  0
  6  7  1  0
  7  8  1  1
  7  9  1  0
  7 10  1  0
M  END
