
     RDKit          3D

 10  9  0  0  0  0  0  0  0  0999 V2000
   -1.1060    1.6920   -2.2790 C   0  0  0  0  0  0  0  0  0  0  0  0
   -1.8320    1.1810   -1.3330 C   0  0  0  0  0  0  0  0  0  0  0  0
   -1.4130   -0.0230   -0.6310 C   0  0  0  0  0  0  0  0  0  0  0  0
   -2.1880   -0.5060    0.3090 C   0  0  0  0  0  0  0  0  0  0  0  0
   -1.8040   -1.7360    1.0550 C   0  0  0  0  0  0  0  0  0  0  0  0
   -0.1630   -0.5900   -1.0100 N   0  0  0  0  0  0  0  0  0  0  0  0
    1.0960   -0.0750   -0.4840 C   0  0  0  0  0  0  0  0  0  0  0  0
    1.2660   -0.3660    0.9880 C   0  0  0  0  0  0  0  0  0  0  0  0
    2.5900    0.2150    1.4260 C   0  0  0  0  0  0  0  0  0  0  0  0
    2.5110    1.6020    1.1870 O   0  0  0  0  0  0  0  0  0  0  0  0
  1  2  2  0
  2  3  1  0
  3  4  2  3
  3  6  1  0
  4  5  1  0
  6  7  1  0
  7  8  1  0
  8  9  1  0
  9 10  1  0
M  END
