
     RDKit          3D

 10  9  0  0  0  0  0  0  0  0999 V2000
    3.4140   -2.1210   -0.1020 C   0  0  0  0  0  0  0  0  0  0  0  0
    3.0510   -0.8700    0.3800 O   0  0  0  0  0  0  0  0  0  0  0  0
    1.9170   -0.3730   -0.2770 C   0  0  0  0  0  0  0  0  0  0  0  0
    1.6280    0.9740    0.3290 C   0  0  0  0  0  0  0  0  0  0  0  0
    0.4480    1.6850   -0.2010 C   0  0  0  0  0  0  0  0  0  0  0  0
   -0.8740    1.1040    0.0090 C   0  0  0  0  0  0  0  0  0  0  0  0
   -2.0600    1.8380   -0.6170 C   0  0  0  0  0  0  0  0  0  0  0  0
   -1.2090    0.0230    0.6690 C   0  0  0  0  0  0  0  0  0  0  0  0
   -2.6140   -0.4380    0.7860 C   0  0  0  0  0  0  0  0  0  0  0  0
   -2.7850   -1.7670    0.2210 N   0  0  0  0  0  0  0  0  0  0  0  0
  1  2  1  0
  2  3  1  0
  3  4  1  0
  4  5  1  0
  5  6  1  0
  6  7  1  0
  6  8  2  3
  8  9  1  0
  9 10  1  0
M  END
