
     RDKit          3D

 10  9  0  0  0  0  0  0  0  0999 V2000
   -4.6640   -1.0750   -0.4030 N   0  0  0  0  0  0  0  0  0  0  0  0
   -4.0080    0.2020   -0.1680 C   0  0  0  0  0  0  0  0  0  0  0  0
   -2.7570    0.0370    0.6120 C   0  0  0  0  0  0  0  0  0  0  0  0
   -1.5950    0.4180    0.1070 C   0  0  0  0  0  0  0  0  0  0  0  0
   -0.3490    0.2680    0.8520 C   0  0  0  0  0  0  0  0  0  0  0  0
    0.7870    0.6510    0.3360 C   0  0  0  0  0  0  0  0  0  0  0  0
    2.0230    0.4770    1.1330 C   0  0  0  0  0  0  0  0  0  0  0  0
    2.9680   -0.4170    0.4030 C   0  0  0  0  0  0  0  0  0  0  0  0
    3.3290    0.1940   -0.9220 C   0  0  0  0  0  0  0  0  0  0  0  0
    4.2330   -0.6320   -1.6280 O   0  0  0  0  0  0  0  0  0  0  0  0
  1  2  1  0
  2  3  1  0
  3  4  2  3
  4  5  1  0
  5  6  2  3
  6  7  1  0
  7  8  1  0
  8  9  1  0
  9 10  1  0
M  END
