
     RDKit          3D

 10  9  0  0  0  0  0  0  0  0999 V2000
   -3.3190   -0.7840    0.4650 C   0  0  0  0  0  0  0  0  0  0  0  0
   -2.2430    0.0610   -0.2000 C   0  0  0  0  0  0  0  0  0  0  0  0
   -0.8830   -0.5570   -0.0170 C   0  0  0  0  0  0  0  0  0  0  0  0
    0.1680    0.2550   -0.6910 C   0  0  2  0  0  0  0  0  0  0  0  0
    1.5530   -0.3310   -0.5290 C   0  0  0  0  0  0  0  0  0  0  0  0
    2.0340   -0.4730    0.8610 C   0  0  0  0  0  0  0  0  0  0  0  0
    3.4410   -1.0830    0.7770 C   0  0  0  0  0  0  0  0  0  0  0  0
    0.1230    1.6990   -0.4190 C   0  0  0  0  0  0  0  0  0  0  0  0
   -0.9180    2.5370   -0.8900 N   0  0  0  0  0  0  0  0  0  0  0  0
    1.0380    2.2290    0.2570 O   0  0  0  0  0  0  0  0  0  0  0  0
  1  2  1  0
  2  3  1  0
  4  3  1  1
  4  5  1  0
  4  8  1  0
  5  6  1  0
  6  7  1  0
  8  9  1  0
  8 10  2  0
M  END
