
     RDKit          3D

 24 26  0  0  0  0  0  0  0  0999 V2000
    7.2950    0.3080   -0.0440 C   0  0  0  0  0  0  0  0  0  0  0  0
    6.5570   -0.8720    0.0590 O   0  0  0  0  0  0  0  0  0  0  0  0
    5.4390   -0.7180    0.7750 N   0  0  0  0  0  0  0  0  0  0  0  0
    4.1340   -0.7830    0.2520 C   0  0  0  0  0  0  0  0  0  0  0  0
    3.0610   -0.5900    1.1370 C   0  0  0  0  0  0  0  0  0  0  0  0
    1.7550   -0.6340    0.7320 C   0  0  0  0  0  0  0  0  0  0  0  0
    0.7160   -0.4330    1.6500 N   0  0  0  0  0  0  0  0  0  0  0  0
   -0.6370   -0.4430    1.3240 N   0  0  0  0  0  0  0  0  0  0  0  0
   -1.2630    0.5430    0.5150 C   0  0  0  0  0  0  0  0  0  0  0  0
   -0.4910    1.4680    0.0930 O   0  0  0  0  0  0  0  0  0  0  0  0
   -2.6710    0.5650    0.1550 C   0  0  1  0  0  0  0  0  0  0  0  0
   -3.1680   -0.6830   -0.5430 C   0  0  0  0  0  0  0  0  0  0  0  0
   -4.4330   -0.3250   -1.1630 N   0  0  0  0  0  0  0  0  0  0  0  0
   -5.2360    0.5470   -0.6020 C   0  0  0  0  0  0  0  0  0  0  0  0
   -6.5350    1.0900   -0.9790 C   0  0  0  0  0  0  0  0  0  0  0  0
   -7.2290    0.8350   -1.9900 O   0  0  0  0  0  0  0  0  0  0  0  0
   -6.8830    2.0010    0.0540 N   0  0  0  0  0  0  0  0  0  0  0  0
   -5.8490    2.0050    1.0020 N   0  0  0  0  0  0  0  0  0  0  0  0
   -4.9150    1.2000    0.6600 C   0  0  0  0  0  0  0  0  0  0  0  0
   -3.6250    0.8420    1.3000 C   0  0  0  0  0  0  0  0  0  0  0  0
    1.4830   -0.8790   -0.6020 C   0  0  0  0  0  0  0  0  0  0  0  0
    2.5040   -1.0740   -1.5060 C   0  0  0  0  0  0  0  0  0  0  0  0
    3.8420   -1.0250   -1.0700 C   0  0  0  0  0  0  0  0  0  0  0  0
    4.7890   -1.2290   -2.0390 O   0  0  0  0  0  0  0  0  0  0  0  0
  1  2  1  0
  2  3  1  0
  3  4  1  0
  4  5  2  0
  4 23  1  0
  5  6  1  0
  6  7  1  0
  6 21  2  0
  7  8  1  0
  8  9  1  0
  9 10  2  0
 11  9  1  1
 11 12  1  0
 11 20  1  0
 12 13  1  0
 13 14  2  0
 14 15  1  0
 14 19  1  0
 15 16  2  0
 15 17  1  0
 17 18  1  0
 18 19  2  0
 19 20  1  0
 21 22  1  0
 22 23  2  0
 23 24  1  0
M  CHG  1  13   1
M  END
