
     RDKit          3D

 24 26  0  0  0  0  0  0  0  0999 V2000
    4.2490    1.4120    1.3240 C   0  0  0  0  0  0  0  0  0  0  0  0
    5.1830    1.1730    0.1960 C   0  0  0  0  0  0  0  0  0  0  0  0
    6.0000    2.0610   -0.3600 O   0  0  0  0  0  0  0  0  0  0  0  0
    6.6610    1.4910   -1.3140 N   0  0  0  0  0  0  0  0  0  0  0  0
    6.2970    0.1820   -1.4230 C   0  0  0  0  0  0  0  0  0  0  0  0
    6.7710   -0.6170   -2.2610 O   0  0  0  0  0  0  0  0  0  0  0  0
    5.3450   -0.0370   -0.4580 C   0  0  0  0  0  0  0  0  0  0  0  0
    4.6140   -1.2700   -0.1370 C   0  0  0  0  0  0  0  0  0  0  0  0
    3.2010   -1.2060   -0.6750 C   0  0  0  0  0  0  0  0  0  0  0  0
    2.9690   -1.1210   -1.9210 O   0  0  0  0  0  0  0  0  0  0  0  0
    2.0670   -1.2340    0.1780 N   0  0  0  0  0  0  0  0  0  0  0  0
    0.7360   -1.1670   -0.3560 C   0  0  0  0  0  0  0  0  0  0  0  0
   -0.3460   -1.1800    0.4350 N   0  0  0  0  0  0  0  0  0  0  0  0
   -1.5970   -1.1190   -0.0200 C   0  0  0  0  0  0  0  0  0  0  0  0
   -2.8190   -1.1110    0.8270 C   0  0  0  0  0  0  0  0  0  0  0  0
   -3.2090    0.1910    1.2340 N   0  0  0  0  0  0  0  0  0  0  0  0
   -4.5710    0.2700    1.6220 C   0  0  1  0  0  0  0  0  0  0  0  0
   -5.1490    1.7000    1.5160 C   0  0  0  0  0  0  0  0  0  0  0  0
   -5.6480    1.2590    0.1330 C   0  0  0  0  0  0  0  0  0  0  0  0
   -5.6510   -0.1460    0.7020 C   0  0  0  0  0  0  0  0  0  0  0  0
   -1.7720   -1.0380   -1.3490 N   0  0  0  0  0  0  0  0  0  0  0  0
   -0.7120   -1.0190   -2.2200 C   0  0  0  0  0  0  0  0  0  0  0  0
   -0.9030   -0.9430   -3.4600 O   0  0  0  0  0  0  0  0  0  0  0  0
    0.5100   -1.0850   -1.6740 N   0  0  0  0  0  0  0  0  0  0  0  0
  1  2  1  0
  2  3  1  0
  2  7  2  0
  3  4  1  0
  4  5  1  0
  5  6  2  0
  5  7  1  0
  7  8  1  0
  8  9  1  0
  9 10  2  0
  9 11  1  0
 11 12  1  0
 12 13  1  0
 12 24  2  0
 13 14  2  0
 14 15  1  0
 14 21  1  0
 15 16  1  0
 17 16  1  6
 17 18  1  0
 17 20  1  0
 18 19  1  0
 19 20  1  0
 21 22  1  0
 22 23  2  0
 22 24  1  0
M  CHG  1  16   1
M  END
