
     RDKit          3D

 24 25  0  0  0  0  0  0  0  0999 V2000
    8.6300   -0.1210   -0.1810 C   0  0  0  0  0  0  0  0  0  0  0  0
    7.2780    0.4270   -0.0700 N   0  0  0  0  0  0  0  0  0  0  0  0
    6.1880   -0.3610   -0.2300 C   0  0  0  0  0  0  0  0  0  0  0  0
    6.4140   -1.6350   -0.4890 O   0  0  0  0  0  0  0  0  0  0  0  0
    4.8830   -0.1510   -0.1880 N   0  0  0  0  0  0  0  0  0  0  0  0
    3.5810    0.0280   -0.1510 C   0  0  0  0  0  0  0  0  0  0  0  0
    2.9450   -1.1190   -0.3850 O   0  0  0  0  0  0  0  0  0  0  0  0
    2.7880    1.0960    0.0660 N   0  0  0  0  0  0  0  0  0  0  0  0
    1.3720    0.9660    0.0390 C   0  0  0  0  0  0  0  0  0  0  0  0
    0.6310    2.0560    0.2620 N   0  0  0  0  0  0  0  0  0  0  0  0
   -0.6310    1.7040    0.1890 C   0  0  0  0  0  0  0  0  0  0  0  0
   -0.7130    0.3640   -0.0840 C   0  0  0  0  0  0  0  0  0  0  0  0
   -1.9230   -0.4180   -0.2450 C   0  0  0  0  0  0  0  0  0  0  0  0
   -3.1060    0.1370   -0.1340 C   0  0  0  0  0  0  0  0  0  0  0  0
   -4.3210   -0.6480   -0.2950 C   0  0  0  0  0  0  0  0  0  0  0  0
   -4.2570   -1.8740   -0.5440 O   0  0  0  0  0  0  0  0  0  0  0  0
   -5.6500   -0.0490   -0.1750 C   0  0  0  0  0  0  0  0  0  0  0  0
   -5.9490    1.2220    0.0830 C   0  0  0  0  0  0  0  0  0  0  0  0
   -7.3980    1.4320    0.1240 C   0  0  0  0  0  0  0  0  0  0  0  0
   -7.9050    0.0980   -0.1480 N   0  0  0  0  0  0  0  0  0  0  0  0
   -6.9360   -0.7130   -0.3120 C   0  0  0  0  0  0  0  0  0  0  0  0
   -1.8400   -1.7690   -0.5190 O   0  0  0  0  0  0  0  0  0  0  0  0
   -1.5680   -2.7270    0.4900 C   0  0  0  0  0  0  0  0  0  0  0  0
    0.5800   -0.0670   -0.1720 N   0  0  0  0  0  0  0  0  0  0  0  0
  1  2  1  0
  2  3  1  0
  3  4  2  0
  3  5  1  0
  5  6  1  0
  6  7  2  0
  6  8  1  0
  8  9  1  0
  9 10  1  0
  9 24  2  0
 10 11  1  0
 11 12  2  0
 12 13  1  0
 12 24  1  0
 13 14  2  3
 13 22  1  0
 14 15  1  0
 15 16  2  0
 15 17  1  0
 17 18  2  0
 17 21  1  0
 18 19  1  0
 19 20  1  0
 20 21  2  0
 22 23  1  0
M  CHG  1  24   1
M  END
