
     RDKit          3D

 24 26  0  0  0  0  0  0  0  0999 V2000
   -5.3350   -1.7320    1.0160 C   0  0  0  0  0  0  0  0  0  0  0  0
   -5.0390   -0.4920    1.4660 O   0  0  0  0  0  0  0  0  0  0  0  0
   -3.7650   -0.1680    1.7710 C   0  0  0  0  0  0  0  0  0  0  0  0
   -2.7320   -0.2440    0.7120 C   0  0  1  0  0  0  0  0  0  0  0  0
   -2.5410   -1.5020    0.1520 O   0  0  0  0  0  0  0  0  0  0  0  0
   -2.9060    0.8000   -0.3730 C   0  0  0  0  0  0  0  0  0  0  0  0
   -1.8130    0.6510   -1.4100 C   0  0  1  0  0  0  0  0  0  0  0  0
   -2.0100    1.6900   -2.4690 C   0  0  0  0  0  0  0  0  0  0  0  0
   -1.9640    3.0410   -1.9770 N   0  0  0  0  0  0  0  0  0  0  0  0
   -0.4610    0.7740   -0.7770 C   0  0  0  0  0  0  0  0  0  0  0  0
    0.5620   -0.1130   -0.8650 N   0  0  0  0  0  0  0  0  0  0  0  0
    1.5770    0.3940   -0.1480 C   0  0  0  0  0  0  0  0  0  0  0  0
    2.9110   -0.2050    0.0600 C   0  0  0  0  0  0  0  0  0  0  0  0
    3.3650   -1.4040   -0.4450 C   0  0  0  0  0  0  0  0  0  0  0  0
    4.6650   -1.5460    0.0130 C   0  0  0  0  0  0  0  0  0  0  0  0
    5.5740   -2.5230   -0.1740 N   0  0  0  0  0  0  0  0  0  0  0  0
    6.7850   -2.3990    0.4020 C   0  0  0  0  0  0  0  0  0  0  0  0
    7.1150   -1.3430    1.1500 N   0  0  0  0  0  0  0  0  0  0  0  0
    6.2200   -0.3850    1.3330 C   0  0  0  0  0  0  0  0  0  0  0  0
    6.4610    0.6370    2.0250 O   0  0  0  0  0  0  0  0  0  0  0  0
    4.9860   -0.4930    0.7570 N   0  0  0  0  0  0  0  0  0  0  0  0
    3.9290    0.3000    0.7760 N   0  0  0  0  0  0  0  0  0  0  0  0
    1.1140    1.5880    0.3500 C   0  0  0  0  0  0  0  0  0  0  0  0
   -0.1150    1.7960   -0.0410 O   0  0  0  0  0  0  0  0  0  0  0  0
  1  2  1  0
  2  3  1  0
  3  4  1  0
  4  5  1  6
  4  6  1  0
  7  6  1  1
  7  8  1  0
  7 10  1  0
  8  9  1  0
 10 11  2  0
 10 24  1  0
 11 12  1  0
 12 13  1  0
 12 23  2  0
 13 14  1  0
 13 22  2  0
 14 15  2  0
 15 16  1  0
 15 21  1  0
 16 17  2  0
 17 18  1  0
 18 19  1  0
 19 20  2  0
 19 21  1  0
 21 22  1  0
 23 24  1  0
M  CHG  1   9   1
M  END
