
     RDKit          3D

 24 26  0  0  0  0  0  0  0  0999 V2000
   -5.2660    2.3500    2.0530 N   0  0  0  0  0  0  0  0  0  0  0  0
   -5.1180    0.9440    1.7320 C   0  0  0  0  0  0  0  0  0  0  0  0
   -4.0190    0.7340    0.7150 C   0  0  0  0  0  0  0  0  0  0  0  0
   -3.9380   -0.7590    0.4440 C   0  0  0  0  0  0  0  0  0  0  0  0
   -2.9200   -1.0860   -0.5160 N   0  0  0  0  0  0  0  0  0  0  0  0
   -1.5510   -0.8040   -0.3520 C   0  0  0  0  0  0  0  0  0  0  0  0
   -1.1740   -0.2290    0.6960 O   0  0  0  0  0  0  0  0  0  0  0  0
   -0.5220   -1.1550   -1.3640 C   0  0  2  0  0  0  0  0  0  0  0  0
   -0.4530   -2.6180   -1.6280 C   0  0  0  0  0  0  0  0  0  0  0  0
    0.9830   -2.8740   -1.9450 C   0  0  0  0  0  0  0  0  0  0  0  0
    1.6890   -1.8650   -1.0660 C   0  0  0  0  0  0  0  0  0  0  0  0
    0.7950   -0.7270   -0.9770 N   0  0  0  0  0  0  0  0  0  0  0  0
    1.1890    0.5750   -0.5710 C   0  0  0  0  0  0  0  0  0  0  0  0
    0.3410    1.5170   -0.5280 O   0  0  0  0  0  0  0  0  0  0  0  0
    2.5540    0.9070   -0.1870 C   0  0  0  0  0  0  0  0  0  0  0  0
    3.5630    0.0130   -0.1800 N   0  0  0  0  0  0  0  0  0  0  0  0
    4.8260    0.3130    0.1740 C   0  0  0  0  0  0  0  0  0  0  0  0
    5.9900   -0.3540    0.2700 N   0  0  0  0  0  0  0  0  0  0  0  0
    6.9790    0.4700    0.6900 C   0  0  0  0  0  0  0  0  0  0  0  0
    6.4370    1.6900    0.8650 N   0  0  0  0  0  0  0  0  0  0  0  0
    5.1220    1.6140    0.5550 C   0  0  0  0  0  0  0  0  0  0  0  0
    4.0680    2.5040    0.5360 C   0  0  0  0  0  0  0  0  0  0  0  0
    4.3220    3.6930    0.8810 O   0  0  0  0  0  0  0  0  0  0  0  0
    2.8650    2.1230    0.1770 O   0  0  0  0  0  0  0  0  0  0  0  0
  1  2  1  0
  2  3  1  0
  3  4  1  0
  4  5  1  0
  5  6  1  0
  6  7  2  0
  8  6  1  1
  8  9  1  0
  8 12  1  0
  9 10  1  0
 10 11  1  0
 11 12  1  0
 12 13  1  0
 13 14  2  0
 13 15  1  0
 15 16  2  0
 15 24  1  0
 16 17  1  0
 17 18  1  0
 17 21  2  0
 18 19  2  0
 19 20  1  0
 20 21  1  0
 21 22  1  0
 22 23  2  0
 22 24  1  0
M  CHG  1   1   1
M  END
