
     RDKit          3D

 24 26  0  0  0  0  0  0  0  0999 V2000
   -5.8670   -1.4220   -0.5880 C   0  0  0  0  0  0  0  0  0  0  0  0
   -6.0040    0.0360   -0.8350 C   0  0  0  0  0  0  0  0  0  0  0  0
   -7.0500    0.6190   -1.4870 N   0  0  0  0  0  0  0  0  0  0  0  0
   -6.8320    1.9300   -1.5190 N   0  0  0  0  0  0  0  0  0  0  0  0
   -5.6550    2.2100   -0.8950 C   0  0  0  0  0  0  0  0  0  0  0  0
   -5.1220    1.0240   -0.4600 C   0  0  0  0  0  0  0  0  0  0  0  0
   -3.9030    0.8430    0.2410 N   0  0  0  0  0  0  0  0  0  0  0  0
   -3.0590   -0.1830    0.1800 N   0  0  0  0  0  0  0  0  0  0  0  0
   -2.0130    0.0080    0.9910 C   0  0  0  0  0  0  0  0  0  0  0  0
   -0.8720   -0.9540    1.1660 C   0  0  0  0  0  0  0  0  0  0  0  0
    0.1960   -0.6830    0.2260 N   0  0  0  0  0  0  0  0  0  0  0  0
    1.4110   -0.4840    1.0310 C   0  0  0  0  0  0  0  0  0  0  0  0
    2.5300   -0.0460    0.1230 C   0  0  2  0  0  0  0  0  0  0  0  0
    2.1640    1.1490   -0.4980 O   0  0  0  0  0  0  0  0  0  0  0  0
    2.8100   -1.0580   -0.9500 C   0  0  0  0  0  0  0  0  0  0  0  0
    3.8750   -0.5530   -1.7560 O   0  0  0  0  0  0  0  0  0  0  0  0
    5.0880   -0.2940   -1.1570 C   0  0  0  0  0  0  0  0  0  0  0  0
    5.8050    0.8000   -1.2660 C   0  0  0  0  0  0  0  0  0  0  0  0
    7.0210    0.6120   -0.4440 C   0  0  0  0  0  0  0  0  0  0  0  0
    7.0830   -0.7210   -0.1060 O   0  0  0  0  0  0  0  0  0  0  0  0
    5.8010   -1.2420   -0.2630 C   0  0  0  0  0  0  0  0  0  0  0  0
   -2.1900    1.1910    1.5910 N   0  0  0  0  0  0  0  0  0  0  0  0
   -3.3380    1.6970    1.1340 C   0  0  0  0  0  0  0  0  0  0  0  0
   -3.8160    2.8170    1.4960 O   0  0  0  0  0  0  0  0  0  0  0  0
  1  2  1  0
  2  3  1  0
  2  6  2  0
  3  4  1  0
  4  5  2  0
  5  6  1  0
  6  7  1  0
  7  8  1  0
  7 23  1  0
  8  9  2  0
  9 10  1  0
  9 22  1  0
 10 11  1  0
 11 12  1  0
 12 13  1  0
 13 14  1  6
 13 15  1  0
 15 16  1  0
 16 17  1  0
 17 18  2  0
 17 21  1  0
 18 19  1  0
 19 20  1  0
 20 21  1  0
 22 23  1  0
 23 24  2  0
M  CHG  1  11   1
M  END
