
     RDKit          3D

 21 22  0  0  0  0  0  0  0  0999 V2000
    5.7420    2.2800   -0.0020 O   0  0  0  0  0  0  0  0  0  0  0  0
    4.6730    1.6520   -0.1090 C   0  0  0  0  0  0  0  0  0  0  0  0
    3.4840    2.1950    0.3480 C   0  0  0  0  0  0  0  0  0  0  0  0
    2.2930    1.4980    0.2300 C   0  0  0  0  0  0  0  0  0  0  0  0
    2.3370    0.2740   -0.3460 N   0  0  0  0  0  0  0  0  0  0  0  0
    1.1500   -0.5160   -0.5080 C   0  0  2  0  0  0  0  0  0  0  0  0
   -0.0100    0.1790   -0.1690 O   0  0  0  0  0  0  0  0  0  0  0  0
   -0.9680   -0.8140   -0.2250 C   0  0  2  0  0  0  0  0  0  0  0  0
   -2.2680   -0.4140    0.4200 C   0  0  0  0  0  0  0  0  0  0  0  0
   -2.7930    0.6780   -0.1920 O   0  0  0  0  0  0  0  0  0  0  0  0
   -4.1890    1.3010    0.3200 P   0  0  0  0  0  0  0  0  0  0  0  0
   -4.4000    2.8980    0.6690 O   0  0  0  0  0  0  0  0  0  0  0  0
   -5.4980    0.2800    0.6740 O   0  0  0  0  0  0  0  0  0  0  0  0
   -4.7960    1.4380   -1.0870 O   0  0  0  0  0  0  0  0  0  0  0  0
   -0.3430   -1.8780    0.6870 C   0  0  1  0  0  0  0  0  0  0  0  0
   -0.7250   -3.1460    0.3200 O   0  0  0  0  0  0  0  0  0  0  0  0
    1.1390   -1.6410    0.5190 C   0  0  1  0  0  0  0  0  0  0  0  0
    1.7650   -2.7890    0.0170 O   0  0  0  0  0  0  0  0  0  0  0  0
    3.4980   -0.2300   -0.7800 C   0  0  0  0  0  0  0  0  0  0  0  0
    3.5510   -1.3730   -1.3190 O   0  0  0  0  0  0  0  0  0  0  0  0
    4.6760    0.4300   -0.6770 N   0  0  0  0  0  0  0  0  0  0  0  0
  1  2  2  0
  2  3  1  0
  2 21  1  0
  3  4  2  0
  4  5  1  0
  6  5  1  1
  5 19  1  0
  6  7  1  0
  6 17  1  0
  7  8  1  0
  8  9  1  1
  8 15  1  0
  9 10  1  0
 10 11  1  0
 11 12  1  0
 11 13  1  0
 11 14  1  0
 15 16  1  6
 15 17  1  0
 17 18  1  6
 19 20  2  0
 19 21  1  0
M  END
