
     RDKit          3D

 17 17  0  0  0  0  0  0  0  0999 V2000
    4.1880    1.6550   -1.0750 N   0  0  0  0  0  0  0  0  0  0  0  0
    3.6460    1.4260    0.2050 C   0  0  0  0  0  0  0  0  0  0  0  0
    2.4930    0.8050    0.3920 C   0  0  0  0  0  0  0  0  0  0  0  0
    1.6010    0.2610   -0.6620 C   0  0  0  0  0  0  0  0  0  0  0  0
    0.5330   -0.4300    0.1080 C   0  0  1  0  0  0  0  0  0  0  0  0
   -0.7300   -0.5390   -0.5080 N   0  0  0  0  0  0  0  0  0  0  0  0
   -1.4200    0.6630   -0.8130 C   0  0  0  0  0  0  0  0  0  0  0  0
   -2.7650    0.3030   -1.4080 C   0  0  0  0  0  0  0  0  0  0  0  0
   -3.4920   -0.4490   -0.4880 O   0  0  0  0  0  0  0  0  0  0  0  0
   -3.8660    0.0150    0.7510 C   0  0  0  0  0  0  0  0  0  0  0  0
   -3.5620    1.1860    1.1320 O   0  0  0  0  0  0  0  0  0  0  0  0
   -4.5990   -0.7510    1.6800 O   0  0  0  0  0  0  0  0  0  0  0  0
    1.0900   -2.1330    0.6580 P   0  0  0  0  0  0  0  0  0  0  0  0
   -0.2450   -2.8180    1.5620 O   0  0  0  0  0  0  0  0  0  0  0  0
    1.3550   -3.1790   -0.6890 O   0  0  0  0  0  0  0  0  0  0  0  0
    0.4840    0.4160    1.3900 C   0  0  0  0  0  0  0  0  0  0  0  0
    1.8970    0.5440    1.6300 O   0  0  0  0  0  0  0  0  0  0  0  0
  1  2  1  0
  2  3  2  3
  3  4  1  0
  3 17  1  0
  4  5  1  0
  5  6  1  6
  5 13  1  0
  5 16  1  0
  6  7  1  0
  7  8  1  0
  8  9  1  0
  9 10  1  0
 10 11  2  0
 10 12  1  0
 13 14  1  0
 13 15  1  0
 16 17  1  0
M  END
