
     RDKit          3D

 22 23  0  0  0  0  0  0  0  0999 V2000
    1.1330   -0.2120   -0.5520 O   0  0  0  0  0  0  0  0  0  0  0  0
    1.2890    0.9790   -0.2250 C   0  0  0  0  0  0  0  0  0  0  0  0
    2.6020    1.5220   -0.2670 N   0  0  0  0  0  0  0  0  0  0  0  0
    3.6780    0.6890   -0.6800 C   0  0  0  0  0  0  0  0  0  0  0  0
    4.7610    0.3520    0.0050 C   0  0  0  0  0  0  0  0  0  0  0  0
    5.6200   -0.5420   -0.8240 C   0  0  1  0  0  0  0  0  0  0  0  0
    5.7900   -1.7850   -0.2220 O   0  0  0  0  0  0  0  0  0  0  0  0
    7.0800   -1.9490   -0.0240 O   0  0  0  0  0  0  0  0  0  0  0  0
    7.7020   -1.6340   -1.1400 O   0  0  0  0  0  0  0  0  0  0  0  0
    4.8160   -0.6300   -2.0710 C   0  0  0  0  0  0  0  0  0  0  0  0
    3.7510    0.0610   -1.9540 N   0  0  0  0  0  0  0  0  0  0  0  0
    0.2090    1.7240    0.1620 O   0  0  0  0  0  0  0  0  0  0  0  0
   -1.1180    1.2300    0.2220 C   0  0  0  0  0  0  0  0  0  0  0  0
   -1.2830    0.0880    1.1540 C   0  0  0  0  0  0  0  0  0  0  0  0
   -2.6170   -0.3450    1.1560 O   0  0  0  0  0  0  0  0  0  0  0  0
   -3.6480    0.4720    1.5570 C   0  0  0  0  0  0  0  0  0  0  0  0
   -3.4760    1.6540    1.9510 O   0  0  0  0  0  0  0  0  0  0  0  0
   -5.0770    0.0090    1.5550 C   0  0  2  0  0  0  0  0  0  0  0  0
   -5.2110   -1.2860    1.1170 O   0  0  0  0  0  0  0  0  0  0  0  0
   -6.0840   -1.2860    0.0340 C   0  0  0  0  0  0  0  0  0  0  0  0
   -6.0140    0.1670   -0.4060 C   0  0  0  0  0  0  0  0  0  0  0  0
   -5.8910    0.8220    0.8020 O   0  0  0  0  0  0  0  0  0  0  0  0
  1  2  2  0
  2  3  1  0
  2 12  1  0
  3  4  1  0
  4  5  2  0
  4 11  1  0
  5  6  1  0
  6  7  1  1
  6 10  1  0
  7  8  1  0
  8  9  1  0
 10 11  2  0
 12 13  1  0
 13 14  1  0
 14 15  1  0
 15 16  1  0
 16 17  2  0
 18 16  1  6
 18 19  1  0
 18 22  1  0
 19 20  1  0
 20 21  1  0
 21 22  1  0
M  END
