
     RDKit          3D

 22 22  0  0  0  0  0  0  0  0999 V2000
    5.3780    0.1120    0.5530 C   0  0  0  0  0  0  0  0  0  0  0  0
    4.8670    0.2250   -0.7970 N   0  0  0  0  0  0  0  0  0  0  0  0
    4.9560   -1.0190   -1.5240 C   0  0  0  0  0  0  0  0  0  0  0  0
    3.5390    0.7820   -0.8050 C   0  0  0  0  0  0  0  0  0  0  0  0
    2.5160   -0.1760   -0.1900 C   0  0  0  0  0  0  0  0  0  0  0  0
    1.2740    0.5010   -0.2660 O   0  0  0  0  0  0  0  0  0  0  0  0
    0.0720   -0.0520    0.2020 C   0  0  0  0  0  0  0  0  0  0  0  0
    0.1610   -1.1800    0.6920 O   0  0  0  0  0  0  0  0  0  0  0  0
   -1.1000    0.7200    0.0720 N   0  0  0  0  0  0  0  0  0  0  0  0
   -2.3600    0.2730    0.5060 C   0  0  0  0  0  0  0  0  0  0  0  0
   -2.6130   -0.8910    1.0780 C   0  0  0  0  0  0  0  0  0  0  0  0
   -3.9720   -1.2990    1.5130 C   0  0  2  0  0  0  0  0  0  0  0  0
   -3.9420   -1.5750    2.8840 O   0  0  0  0  0  0  0  0  0  0  0  0
   -4.3140   -2.4860    0.8590 O   0  0  0  0  0  0  0  0  0  0  0  0
   -3.5110   -3.4710    1.1050 O   0  0  0  0  0  0  0  0  0  0  0  0
   -4.9180   -0.3150    1.2380 O   0  0  0  0  0  0  0  0  0  0  0  0
   -4.7110    0.8950    0.6540 C   0  0  0  0  0  0  0  0  0  0  0  0
   -3.4820    1.2110    0.2870 C   0  0  0  0  0  0  0  0  0  0  0  0
   -3.2220    2.4340   -0.3120 O   0  0  0  0  0  0  0  0  0  0  0  0
   -3.2610    2.6700   -1.6690 C   0  0  0  0  0  0  0  0  0  0  0  0
   -3.5480    1.7220   -2.4290 O   0  0  0  0  0  0  0  0  0  0  0  0
   -2.9930    3.9200   -2.2350 O   0  0  0  0  0  0  0  0  0  0  0  0
  1  2  1  0
  2  3  1  0
  2  4  1  0
  4  5  1  0
  5  6  1  0
  6  7  1  0
  7  8  2  0
  7  9  1  0
  9 10  1  0
 10 11  2  0
 10 18  1  0
 11 12  1  0
 12 13  1  1
 12 14  1  0
 12 16  1  0
 14 15  1  0
 16 17  1  0
 17 18  2  0
 18 19  1  0
 19 20  1  0
 20 21  2  0
 20 22  1  0
M  END
