
     RDKit          3D

 22 23  0  0  0  0  0  0  0  0999 V2000
   -0.9000   -0.7700    1.9100 O   0  0  0  0  0  0  0  0  0  0  0  0
   -0.2890   -0.1080    1.0260 C   0  0  0  0  0  0  0  0  0  0  0  0
   -0.8920    1.0410    0.4820 N   0  0  0  0  0  0  0  0  0  0  0  0
   -2.2050    1.4830    0.9220 C   0  0  0  0  0  0  0  0  0  0  0  0
   -3.2740    0.4520    0.6840 C   0  0  2  0  0  0  0  0  0  0  0  0
   -3.3240    0.1090   -0.7890 C   0  0  0  0  0  0  0  0  0  0  0  0
   -4.3930   -0.7170   -1.0970 O   0  0  0  0  0  0  0  0  0  0  0  0
   -5.5640   -0.3310   -0.4500 C   0  0  0  0  0  0  0  0  0  0  0  0
   -5.3810    1.0670    0.1150 C   0  0  0  0  0  0  0  0  0  0  0  0
   -4.4750    0.9930    1.1440 O   0  0  0  0  0  0  0  0  0  0  0  0
    0.9710   -0.5750    0.6410 N   0  0  0  0  0  0  0  0  0  0  0  0
    1.5440   -1.8060    1.2340 C   0  0  0  0  0  0  0  0  0  0  0  0
    2.0840   -2.5960    0.0630 C   0  0  0  0  0  0  0  0  0  0  0  0
    3.1040   -1.9520   -0.5730 O   0  0  0  0  0  0  0  0  0  0  0  0
    2.7460   -0.7450   -1.1540 C   0  0  2  0  0  0  0  0  0  0  0  0
    4.0260    0.0180   -1.4260 C   0  0  0  0  0  0  0  0  0  0  0  0
    4.7280    0.2490   -0.2370 O   0  0  0  0  0  0  0  0  0  0  0  0
    5.8320    0.9110   -0.4980 O   0  0  0  0  0  0  0  0  0  0  0  0
    6.3220    1.4540    0.6000 O   0  0  0  0  0  0  0  0  0  0  0  0
    7.6310    1.3480    0.6360 O   0  0  0  0  0  0  0  0  0  0  0  0
    1.8240    0.0430   -0.3150 C   0  0  0  0  0  0  0  0  0  0  0  0
    1.8020    1.2880   -0.4560 O   0  0  0  0  0  0  0  0  0  0  0  0
  1  2  2  0
  2  3  1  0
  2 11  1  0
  3  4  1  0
  5  4  1  6
  5  6  1  0
  5 10  1  0
  6  7  1  0
  7  8  1  0
  8  9  1  0
  9 10  1  0
 11 12  1  0
 11 21  1  0
 12 13  1  0
 13 14  1  0
 14 15  1  0
 15 16  1  1
 15 21  1  0
 16 17  1  0
 17 18  1  0
 18 19  1  0
 19 20  1  0
 21 22  2  0
M  END
