
     RDKit          3D

 22 23  0  0  0  0  0  0  0  0999 V2000
   -4.6870    0.1430    0.0560 O   0  0  0  0  0  0  0  0  0  0  0  0
   -3.6870   -0.5910   -0.0300 C   0  0  0  0  0  0  0  0  0  0  0  0
   -3.7330   -1.9910    0.3550 N   0  0  0  0  0  0  0  0  0  0  0  0
   -2.3770   -2.4870    0.3070 C   0  0  0  0  0  0  0  0  0  0  0  0
   -1.8910   -1.7220   -0.9480 C   0  0  0  0  0  0  0  0  0  0  0  0
   -2.3170   -0.3410   -0.4880 C   0  0  2  0  0  0  0  0  0  0  0  0
   -1.4820    0.0070    0.6370 O   0  0  0  0  0  0  0  0  0  0  0  0
   -0.5410    1.0290    0.3280 C   0  0  0  0  0  0  0  0  0  0  0  0
   -0.9940    2.3390    0.3990 C   0  0  0  0  0  0  0  0  0  0  0  0
   -2.2830    2.5390    0.7560 O   0  0  0  0  0  0  0  0  0  0  0  0
   -0.0960    3.3580    0.1150 C   0  0  0  0  0  0  0  0  0  0  0  0
   -0.5580    4.6590    0.2230 O   0  0  0  0  0  0  0  0  0  0  0  0
    0.3320    5.6120   -0.1440 O   0  0  0  0  0  0  0  0  0  0  0  0
    1.1340    3.0310   -0.2250 N   0  0  0  0  0  0  0  0  0  0  0  0
    1.5890    1.8090   -0.3150 C   0  0  0  0  0  0  0  0  0  0  0  0
    2.9190    1.5820   -0.6980 O   0  0  0  0  0  0  0  0  0  0  0  0
    0.7220    0.7330   -0.0210 C   0  0  0  0  0  0  0  0  0  0  0  0
    1.2430   -0.5450   -0.0950 O   0  0  0  0  0  0  0  0  0  0  0  0
    2.3750   -0.9640    0.5450 C   0  0  0  0  0  0  0  0  0  0  0  0
    2.7030   -2.4470    0.2310 C   0  0  0  0  0  0  0  0  0  0  0  0
    3.9240   -2.5850    0.9170 O   0  0  0  0  0  0  0  0  0  0  0  0
    4.9140   -2.8530    0.0040 O   0  0  0  0  0  0  0  0  0  0  0  0
  1  2  2  0
  2  3  1  0
  2  6  1  0
  3  4  1  0
  4  5  1  0
  5  6  1  0
  6  7  1  1
  7  8  1  0
  8  9  2  0
  8 17  1  0
  9 10  1  0
  9 11  1  0
 11 12  1  0
 11 14  2  0
 12 13  1  0
 14 15  1  0
 15 16  1  0
 15 17  2  0
 17 18  1  0
 18 19  1  0
 19 20  1  0
 20 21  1  0
 21 22  1  0
M  END
