
     RDKit          3D

 25 25  0  0  0  0  0  0  0  0999 V2000
    0.9840    1.9920    1.8500 C   0  0  0  0  0  0  0  0  0  0  0  0
    1.0090    0.9140    0.9330 O   0  0  0  0  0  0  0  0  0  0  0  0
    1.2770   -0.3860    1.3290 C   0  0  0  0  0  0  0  0  0  0  0  0
    1.5010   -0.5830    2.5510 O   0  0  0  0  0  0  0  0  0  0  0  0
    1.2790   -1.4370    0.2980 C   0  0  2  0  0  0  0  0  0  0  0  0
    1.5590   -2.6940    0.8110 O   0  0  0  0  0  0  0  0  0  0  0  0
    1.5290   -3.5390   -0.2190 O   0  0  0  0  0  0  0  0  0  0  0  0
    2.2090   -1.1370   -0.6700 O   0  0  0  0  0  0  0  0  0  0  0  0
    3.8080   -1.0130   -0.0650 P   0  0  0  0  0  0  0  0  0  0  0  0
    3.9180   -1.1050    1.6410 O   0  0  0  0  0  0  0  0  0  0  0  0
    4.9070   -0.3800    2.1270 O   0  0  0  0  0  0  0  0  0  0  0  0
    4.8910    0.7150   -0.8910 P   0  0  0  0  0  0  0  0  0  0  0  0
    6.6560    0.1710   -1.1870 C   0  0  0  0  0  0  0  0  0  0  0  0
    3.9400    1.2380   -2.8200 P   0  0  0  0  0  0  0  0  0  0  0  0
   -0.4100   -1.5150   -0.4720 P   0  0  0  0  0  0  0  0  0  0  0  0
   -1.5460    0.1080   -0.4440 P   0  0  0  0  0  0  0  0  0  0  0  0
   -3.1210    0.2120   -1.1040 O   0  0  0  0  0  0  0  0  0  0  0  0
   -4.1210   -0.0140   -0.1300 C   0  0  2  0  0  0  0  0  0  0  0  0
   -4.9790   -1.0730   -0.4840 C   0  0  0  0  0  0  0  0  0  0  0  0
   -5.0770   -2.4130   -0.2110 O   0  0  0  0  0  0  0  0  0  0  0  0
   -6.1930   -0.2550   -1.5770 P   0  0  0  0  0  0  0  0  0  0  0  0
   -5.3150    1.5470   -1.3850 C   0  0  0  0  0  0  0  0  0  0  0  0
   -5.2960    2.3710   -2.2070 O   0  0  0  0  0  0  0  0  0  0  0  0
   -4.8530    1.2860   -0.0080 C   0  0  1  0  0  0  0  0  0  0  0  0
   -6.0690    1.1820    0.8880 C   0  0  0  0  0  0  0  0  0  0  0  0
  1  2  1  0
  2  3  1  0
  3  4  2  0
  3  5  1  0
  5  6  1  1
  5  8  1  0
  5 15  1  0
  6  7  1  0
  8  9  1  0
  9 10  1  0
  9 12  1  0
 10 11  1  0
 12 13  1  0
 12 14  1  0
 15 16  2  3
 16 17  1  0
 18 17  1  6
 18 19  1  0
 18 24  1  0
 19 20  1  0
 19 21  2  0
 21 22  1  0
 22 23  2  0
 22 24  1  0
 24 25  1  1
M  END
