
     RDKit          3D

 22 23  0  0  0  0  0  0  0  0999 V2000
   -5.8360    2.1070   -1.5090 O   0  0  0  0  0  0  0  0  0  0  0  0
   -4.8080    1.6190   -0.9540 C   0  0  0  0  0  0  0  0  0  0  0  0
   -3.5770    2.1120   -1.1970 N   0  0  0  0  0  0  0  0  0  0  0  0
   -2.4610    1.6330   -0.6370 C   0  0  0  0  0  0  0  0  0  0  0  0
   -1.3380    2.1310   -0.9000 O   0  0  0  0  0  0  0  0  0  0  0  0
   -2.5200    0.6180    0.2100 N   0  0  0  0  0  0  0  0  0  0  0  0
   -1.3610    0.0360    0.8630 C   0  0  2  0  0  0  0  0  0  0  0  0
   -0.2550    0.8060    0.6110 O   0  0  0  0  0  0  0  0  0  0  0  0
    0.8780    0.0310    0.8490 C   0  0  2  0  0  0  0  0  0  0  0  0
    1.9870    0.3870   -0.0740 C   0  0  0  0  0  0  0  0  0  0  0  0
    3.1340   -0.3620    0.1280 O   0  0  0  0  0  0  0  0  0  0  0  0
    4.3830   -0.1480   -0.7260 P   0  0  0  0  0  0  0  0  0  0  0  0
    4.8940    1.2170   -0.0600 O   0  0  0  0  0  0  0  0  0  0  0  0
    3.4650   -0.1310   -2.1350 O   0  0  0  0  0  0  0  0  0  0  0  0
    4.9200   -1.6500   -0.2180 O   0  0  0  0  0  0  0  0  0  0  0  0
    0.4800   -1.4070    0.5590 C   0  0  1  0  0  0  0  0  0  0  0  0
    0.6540   -2.1980    1.7030 O   0  0  0  0  0  0  0  0  0  0  0  0
   -0.9820   -1.2960    0.2590 C   0  0  1  0  0  0  0  0  0  0  0  0
   -1.6870   -2.2830    0.9030 O   0  0  0  0  0  0  0  0  0  0  0  0
   -3.7260    0.0850    0.4910 C   0  0  0  0  0  0  0  0  0  0  0  0
   -4.8880    0.5630   -0.0750 C   0  0  0  0  0  0  0  0  0  0  0  0
   -6.1110    0.0300    0.2030 F   0  0  0  0  0  0  0  0  0  0  0  0
  1  2  2  0
  2  3  1  0
  2 21  1  0
  3  4  1  0
  4  5  2  0
  4  6  1  0
  7  6  1  6
  6 20  1  0
  7  8  1  0
  7 18  1  0
  8  9  1  0
  9 10  1  6
  9 16  1  0
 10 11  1  0
 11 12  1  0
 12 13  1  0
 12 14  1  0
 12 15  1  0
 16 17  1  1
 16 18  1  0
 18 19  1  1
 20 21  2  0
 21 22  1  0
M  END
