
     RDKit          3D

 22 23  0  0  0  0  0  0  0  0999 V2000
    6.0340    0.3280    0.0270 C   0  0  0  0  0  0  0  0  0  0  0  0
    4.5900    0.7390   -0.0590 C   0  0  0  0  0  0  0  0  0  0  0  0
    3.9680    0.6750   -1.1580 O   0  0  0  0  0  0  0  0  0  0  0  0
    3.8890    1.1940    1.0320 O   0  0  0  0  0  0  0  0  0  0  0  0
    2.5320    1.5750    0.9270 C   0  0  0  0  0  0  0  0  0  0  0  0
    1.7010    0.4310    0.4650 C   0  0  0  0  0  0  0  0  0  0  0  0
    0.3590    0.5030    0.2740 N   0  0  0  0  0  0  0  0  0  0  0  0
   -0.1080   -0.6810   -0.1420 C   0  0  0  0  0  0  0  0  0  0  0  0
   -1.5360   -0.9510   -0.4470 C   0  0  2  0  0  0  0  0  0  0  0  0
   -2.3190    0.3510   -0.5650 C   0  0  0  0  0  0  0  0  0  0  0  0
   -2.2730    1.0970    0.6200 O   0  0  0  0  0  0  0  0  0  0  0  0
   -2.9500    2.3080    0.6410 C   0  0  0  0  0  0  0  0  0  0  0  0
   -3.5760    2.7150   -0.3630 O   0  0  0  0  0  0  0  0  0  0  0  0
   -2.9520    3.1090    1.7860 O   0  0  0  0  0  0  0  0  0  0  0  0
   -2.1020   -1.8280    0.6490 C   0  0  0  0  0  0  0  0  0  0  0  0
   -3.4600   -2.2880    0.2190 C   0  0  0  0  0  0  0  0  0  0  0  0
   -3.3250   -3.1930   -0.8170 O   0  0  0  0  0  0  0  0  0  0  0  0
   -2.3320   -2.9350   -1.6430 O   0  0  0  0  0  0  0  0  0  0  0  0
   -1.6680   -1.7100   -1.7220 C   0  0  0  0  0  0  0  0  0  0  0  0
   -1.2060   -1.2720   -2.8220 O   0  0  0  0  0  0  0  0  0  0  0  0
    0.9660   -1.4840   -0.2040 N   0  0  0  0  0  0  0  0  0  0  0  0
    2.0300   -0.7960    0.1630 O   0  0  0  0  0  0  0  0  0  0  0  0
  1  2  1  0
  2  3  2  0
  2  4  1  0
  4  5  1  0
  5  6  1  0
  6  7  2  0
  6 22  1  0
  7  8  1  0
  8  9  1  0
  8 21  2  0
  9 10  1  6
  9 15  1  0
  9 19  1  0
 10 11  1  0
 11 12  1  0
 12 13  2  0
 12 14  1  0
 15 16  1  0
 16 17  1  0
 17 18  1  0
 18 19  1  0
 19 20  2  0
 21 22  1  0
M  END
