
     RDKit          3D

 27 31  0  0  0  0  0  0  0  0999 V2000
   -5.1940    1.8360   -1.5880 C   0  0  0  0  0  0  0  0  0  0  0  0
   -3.8830    1.5010   -0.9690 C   0  0  0  0  0  0  0  0  0  0  0  0
   -3.6190    0.4560   -0.3050 C   0  0  0  0  0  0  0  0  0  0  0  0
   -4.7470   -0.6390   -0.0750 C   0  0  0  0  0  0  0  0  0  0  0  0
   -3.8120   -1.4790    0.6120 N   0  0  0  0  0  0  0  0  0  0  0  0
   -2.8260   -2.4710    0.3660 C   0  0  0  0  0  0  0  0  0  0  0  0
   -3.0170   -3.6290   -0.1090 N   0  0  0  0  0  0  0  0  0  0  0  0
   -1.5860   -1.7990    0.7010 N   0  0  0  0  0  0  0  0  0  0  0  0
   -0.1900   -1.7370    0.4860 C   0  0  0  0  0  0  0  0  0  0  0  0
    0.0350   -0.4560   -0.3730 C   0  0  2  0  0  0  0  0  0  0  0  0
    1.3170    0.1400   -0.0510 C   0  0  0  0  0  0  0  0  0  0  0  0
    2.3770    0.2220   -0.8760 N   0  0  0  0  0  0  0  0  0  0  0  0
    3.3970    0.8230   -0.2830 C   0  0  0  0  0  0  0  0  0  0  0  0
    4.7310    1.1330   -0.7740 C   0  0  0  0  0  0  0  0  0  0  0  0
    5.0970    0.7860   -2.0610 C   0  0  0  0  0  0  0  0  0  0  0  0
    6.3560    1.0630   -2.5640 C   0  0  0  0  0  0  0  0  0  0  0  0
    7.2760    1.7070   -1.7550 C   0  0  0  0  0  0  0  0  0  0  0  0
    6.9400    2.0690   -0.4590 C   0  0  0  0  0  0  0  0  0  0  0  0
    7.8880    2.7130    0.3250 O   0  0  0  0  0  0  0  0  0  0  0  0
    5.6760    1.7730   -0.0000 C   0  0  0  0  0  0  0  0  0  0  0  0
    2.9680    1.1290    0.9550 N   0  0  0  0  0  0  0  0  0  0  0  0
    1.7030    0.7090    1.0840 N   0  0  0  0  0  0  0  0  0  0  0  0
   -1.0670    0.5550   -0.3300 C   0  0  0  0  0  0  0  0  0  0  0  0
   -2.3260    0.2000    0.2160 N   0  0  0  0  0  0  0  0  0  0  0  0
   -2.0850   -0.6060    1.4730 C   0  0  1  0  0  0  0  0  0  0  0  0
   -3.4490   -1.0890    1.9650 C   0  0  2  0  0  0  0  0  0  0  0  0
   -3.3130   -2.1810    2.9340 C   0  0  0  0  0  0  0  0  0  0  0  0
  1  2  1  0
  2  3  2  3
  3  4  1  0
  3 24  1  0
  4  5  1  0
  5  6  1  0
  5 26  1  0
  6  7  2  0
  6  8  1  0
  8  9  1  0
 25  8  1  6
  9 10  1  0
 10 11  1  1
 10 23  1  0
 11 12  2  0
 11 22  1  0
 12 13  1  0
 13 14  1  0
 13 21  2  0
 14 15  2  0
 14 20  1  0
 15 16  1  0
 16 17  2  0
 17 18  1  0
 18 19  1  0
 18 20  2  0
 21 22  1  0
 23 24  1  0
 24 25  1  0
 25 26  1  0
 26 27  1  1
M  END
