
     RDKit          3D

 27 30  0  0  0  0  0  0  0  0999 V2000
   -6.0120    1.9300    2.2600 C   0  0  0  0  0  0  0  0  0  0  0  0
   -5.9930    1.0960    1.0180 C   0  0  0  0  0  0  0  0  0  0  0  0
   -7.0230    0.5520    0.3690 N   0  0  0  0  0  0  0  0  0  0  0  0
   -6.6280   -0.1250   -0.6960 N   0  0  0  0  0  0  0  0  0  0  0  0
   -7.4760   -0.8550   -1.6500 C   0  0  0  0  0  0  0  0  0  0  0  0
   -5.2860   -0.0190   -0.7450 C   0  0  0  0  0  0  0  0  0  0  0  0
   -4.3700   -0.5220   -1.6340 C   0  0  0  0  0  0  0  0  0  0  0  0
   -3.0180   -0.2580   -1.4500 C   0  0  0  0  0  0  0  0  0  0  0  0
   -2.5380    0.4930   -0.4050 C   0  0  0  0  0  0  0  0  0  0  0  0
   -1.1700    0.7560   -0.1660 N   0  0  0  0  0  0  0  0  0  0  0  0
   -0.1040   -0.1460   -0.2670 C   0  0  0  0  0  0  0  0  0  0  0  0
    1.1540    0.3000   -0.0190 N   0  0  0  0  0  0  0  0  0  0  0  0
    2.2500   -0.4660   -0.0540 C   0  0  0  0  0  0  0  0  0  0  0  0
    3.5770    0.1260    0.2340 C   0  0  1  0  0  0  0  0  0  0  0  0
    4.2110   -0.6250    1.3790 C   0  0  0  0  0  0  0  0  0  0  0  0
    5.6430   -0.2440    1.6030 C   0  0  0  0  0  0  0  0  0  0  0  0
    6.4590   -0.3880    0.3440 C   0  0  0  0  0  0  0  0  0  0  0  0
    5.7750    0.3320   -0.7110 N   0  0  0  0  0  0  0  0  0  0  0  0
    6.4180    1.3870   -1.4120 C   0  0  0  0  0  0  0  0  0  0  0  0
    6.6150    2.5540   -0.9040 N   0  0  0  0  0  0  0  0  0  0  0  0
    4.4250   -0.0520   -1.0280 C   0  0  0  0  0  0  0  0  0  0  0  0
    2.0860   -1.7890   -0.3600 C   0  0  0  0  0  0  0  0  0  0  0  0
    0.8410   -2.2940   -0.6190 C   0  0  0  0  0  0  0  0  0  0  0  0
    0.7160   -3.5010   -0.8960 O   0  0  0  0  0  0  0  0  0  0  0  0
   -0.2250   -1.4390   -0.5620 N   0  0  0  0  0  0  0  0  0  0  0  0
   -3.5130    0.9880    0.4790 C   0  0  0  0  0  0  0  0  0  0  0  0
   -4.8510    0.7430    0.3200 C   0  0  0  0  0  0  0  0  0  0  0  0
  1  2  1  0
  2  3  2  0
  2 27  1  0
  3  4  1  0
  4  5  1  0
  4  6  1  0
  6  7  2  0
  6 27  1  0
  7  8  1  0
  8  9  2  0
  9 10  1  0
  9 26  1  0
 10 11  1  0
 11 12  2  0
 11 25  1  0
 12 13  1  0
 14 13  1  6
 13 22  2  0
 14 15  1  0
 14 21  1  0
 15 16  1  0
 16 17  1  0
 17 18  1  0
 18 19  1  0
 18 21  1  0
 19 20  2  0
 22 23  1  0
 23 24  2  0
 23 25  1  0
 26 27  2  0
M  END
