
     RDKit          3D

 26 30  0  0  0  0  0  0  0  0999 V2000
   -4.0150    1.1500    0.1550 C   0  0  0  0  0  0  0  0  0  0  0  0
   -3.6830   -0.2520    0.4010 N   0  0  0  0  0  0  0  0  0  0  0  0
   -4.8900   -0.8980    0.8660 C   0  0  0  0  0  0  0  0  0  0  0  0
   -4.6300   -1.1600    2.3340 C   0  0  0  0  0  0  0  0  0  0  0  0
   -3.2050   -1.3840    2.3330 N   0  0  0  0  0  0  0  0  0  0  0  0
   -2.4000   -2.3530    2.9480 C   0  0  0  0  0  0  0  0  0  0  0  0
   -2.8510   -3.2040    3.8190 N   0  0  0  0  0  0  0  0  0  0  0  0
   -1.0310   -2.3870    2.5880 N   0  0  0  0  0  0  0  0  0  0  0  0
   -0.5290   -1.4580    1.6440 C   0  0  0  0  0  0  0  0  0  0  0  0
    0.8150   -1.5410    1.2480 C   0  0  0  0  0  0  0  0  0  0  0  0
    1.3130   -0.6800    0.2910 C   0  0  0  0  0  0  0  0  0  0  0  0
    2.5350   -0.5240   -0.2790 N   0  0  0  0  0  0  0  0  0  0  0  0
    2.5420    0.4650   -1.1810 C   0  0  0  0  0  0  0  0  0  0  0  0
    3.6460    0.9440   -2.0020 C   0  0  0  0  0  0  0  0  0  0  0  0
    4.8690    0.3320   -1.8800 C   0  0  0  0  0  0  0  0  0  0  0  0
    5.9690    0.7390   -2.6350 C   0  0  0  0  0  0  0  0  0  0  0  0
    5.8130    1.7890   -3.5280 C   0  0  0  0  0  0  0  0  0  0  0  0
    6.9120    2.2260   -4.3090 C   0  0  0  0  0  0  0  0  0  0  0  0
    7.8030    2.5800   -4.9670 N   0  0  0  0  0  0  0  0  0  0  0  0
    4.6100    2.4100   -3.6660 C   0  0  0  0  0  0  0  0  0  0  0  0
    3.5310    1.9770   -2.8950 C   0  0  0  0  0  0  0  0  0  0  0  0
    1.2730    0.9540   -1.1800 N   0  0  0  0  0  0  0  0  0  0  0  0
    0.5170    0.2780   -0.3010 C   0  0  0  0  0  0  0  0  0  0  0  0
   -0.8000    0.3490    0.0990 C   0  0  0  0  0  0  0  0  0  0  0  0
   -1.3270   -0.5110    1.0660 C   0  0  0  0  0  0  0  0  0  0  0  0
   -2.7110   -0.3330    1.4730 C   0  0  1  0  0  0  0  0  0  0  0  0
  1  2  1  0
  2  3  1  0
 26  2  1  6
  3  4  1  0
  4  5  1  0
  5  6  1  0
  5 26  1  0
  6  7  2  0
  6  8  1  0
  8  9  1  0
  9 10  2  0
  9 25  1  0
 10 11  1  0
 11 12  1  0
 11 23  2  0
 12 13  2  0
 13 14  1  0
 13 22  1  0
 14 15  2  0
 14 21  1  0
 15 16  1  0
 16 17  2  0
 17 18  1  0
 17 20  1  0
 18 19  3  0
 20 21  2  0
 22 23  1  0
 23 24  1  0
 24 25  2  0
 25 26  1  0
M  END
