
     RDKit          3D

 27 29  0  0  0  0  0  0  0  0999 V2000
   -5.1540    0.4690    2.1530 C   0  0  0  0  0  0  0  0  0  0  0  0
   -4.9370    1.0990    0.7850 C   0  0  0  0  0  0  0  0  0  0  0  0
   -3.5090    0.9600    0.3720 C   0  0  0  0  0  0  0  0  0  0  0  0
   -3.1880    0.3420   -0.7800 C   0  0  0  0  0  0  0  0  0  0  0  0
   -4.3480   -0.1710   -1.5960 C   0  0  0  0  0  0  0  0  0  0  0  0
   -1.8600    0.1360   -1.2460 N   0  0  0  0  0  0  0  0  0  0  0  0
   -0.9120   -0.9190   -0.8000 C   0  0  0  0  0  0  0  0  0  0  0  0
   -0.2120   -1.7260   -1.6810 C   0  0  0  0  0  0  0  0  0  0  0  0
    0.8150   -2.6250   -1.2950 C   0  0  0  0  0  0  0  0  0  0  0  0
    1.2010   -2.7720    0.0160 C   0  0  0  0  0  0  0  0  0  0  0  0
    0.4850   -1.9790    0.8860 C   0  0  0  0  0  0  0  0  0  0  0  0
   -0.5410   -1.0730    0.5200 C   0  0  0  0  0  0  0  0  0  0  0  0
    2.3880   -3.5290    0.4290 N   0  0  0  0  0  0  0  0  0  0  0  0
    3.6730   -2.8160    0.4400 C   0  0  0  0  0  0  0  0  0  0  0  0
    4.7430   -3.3830    0.7900 O   0  0  0  0  0  0  0  0  0  0  0  0
    3.8330   -1.4410    0.0650 N   0  0  0  0  0  0  0  0  0  0  0  0
    5.0060   -1.0830   -0.7640 C   0  0  0  0  0  0  0  0  0  0  0  0
    2.9840   -0.3480    0.4030 C   0  0  0  0  0  0  0  0  0  0  0  0
    3.7100    0.9830    0.3550 C   0  0  0  0  0  0  0  0  0  0  0  0
    3.0840    1.8450   -0.6900 C   0  0  0  0  0  0  0  0  0  0  0  0
    1.7370    2.3960   -0.3400 C   0  0  0  0  0  0  0  0  0  0  0  0
    1.2180    3.6240   -0.6170 N   0  0  0  0  0  0  0  0  0  0  0  0
   -0.0000    3.6860   -0.1520 N   0  0  0  0  0  0  0  0  0  0  0  0
   -0.3250    2.5000    0.4490 C   0  0  0  0  0  0  0  0  0  0  0  0
    0.7990    1.7440    0.2970 N   0  0  0  0  0  0  0  0  0  0  0  0
   -1.4380    2.0640    1.0730 N   0  0  0  0  0  0  0  0  0  0  0  0
   -2.5190    1.5800    1.2980 C   0  0  0  0  0  0  0  0  0  0  0  0
  1  2  1  0
  2  3  1  0
  3  4  2  0
  3 27  1  0
  4  5  1  0
  4  6  1  0
  6  7  1  0
  7  8  2  0
  7 12  1  0
  8  9  1  0
  9 10  2  0
 10 11  1  0
 10 13  1  0
 11 12  2  0
 13 14  1  0
 14 15  2  0
 14 16  1  0
 16 17  1  0
 16 18  1  0
 18 19  1  0
 19 20  1  0
 20 21  1  0
 21 22  2  0
 21 25  1  0
 22 23  1  0
 23 24  1  0
 24 25  2  0
 24 26  1  0
 26 27  2  0
M  END
