
     RDKit          3D

 27 31  0  0  0  0  0  0  0  0999 V2000
    0.0000    2.6470    0.3090 O   0  0  0  0  0  0  0  0  0  0  0  0
    0.5750    1.5440    0.4490 C   0  0  0  0  0  0  0  0  0  0  0  0
   -0.1970    0.3520    0.4250 N   0  0  0  0  0  0  0  0  0  0  0  0
   -1.5930    0.2540    0.2550 C   0  0  0  0  0  0  0  0  0  0  0  0
   -2.1190   -1.0390    0.2680 C   0  0  0  0  0  0  0  0  0  0  0  0
   -3.4660   -1.2620    0.1130 C   0  0  0  0  0  0  0  0  0  0  0  0
   -4.3160   -0.2020   -0.0590 C   0  0  0  0  0  0  0  0  0  0  0  0
   -5.6630   -0.4220   -0.2140 C   0  0  0  0  0  0  0  0  0  0  0  0
   -6.5210    0.6160   -0.3850 N   0  0  0  0  0  0  0  0  0  0  0  0
   -6.0470    1.8690   -0.4020 C   0  0  0  0  0  0  0  0  0  0  0  0
   -4.7110    2.1280   -0.2500 C   0  0  0  0  0  0  0  0  0  0  0  0
   -3.8470    1.0910   -0.0780 C   0  0  0  0  0  0  0  0  0  0  0  0
   -2.4720    1.2820    0.0820 C   0  0  0  0  0  0  0  0  0  0  0  0
   -6.1490   -1.7610   -0.1930 N   0  0  0  0  0  0  0  0  0  0  0  0
   -5.3810   -2.8070    0.4850 C   0  0  0  0  0  0  0  0  0  0  0  0
   -4.0030   -2.5860    0.1250 N   0  0  0  0  0  0  0  0  0  0  0  0
    2.0400    1.5240    0.6350 C   0  0  1  0  0  0  0  0  0  0  0  0
    2.4970    0.9320    1.9320 C   0  0  0  0  0  0  0  0  0  0  0  0
    3.2270   -0.3180    1.5180 C   0  0  0  0  0  0  0  0  0  0  0  0
    3.7940    0.0620    0.2600 N   0  0  0  0  0  0  0  0  0  0  0  0
    5.1150   -0.1710   -0.1810 C   0  0  0  0  0  0  0  0  0  0  0  0
    5.5400    0.2460   -1.4400 C   0  0  0  0  0  0  0  0  0  0  0  0
    6.8390   -0.0160   -1.7980 C   0  0  0  0  0  0  0  0  0  0  0  0
    7.7030   -0.6560   -0.9750 N   0  0  0  0  0  0  0  0  0  0  0  0
    7.2940   -1.0570    0.2370 C   0  0  0  0  0  0  0  0  0  0  0  0
    6.0340   -0.8010    0.5800 N   0  0  0  0  0  0  0  0  0  0  0  0
    2.7550    0.7280   -0.4720 C   0  0  0  0  0  0  0  0  0  0  0  0
  1  2  2  0
  2  3  1  0
 17  2  1  6
  3  4  1  0
  4  5  2  0
  4 13  1  0
  5  6  1  0
  6  7  2  0
  6 16  1  0
  7  8  1  0
  7 12  1  0
  8  9  2  0
  8 14  1  0
  9 10  1  0
 10 11  2  0
 11 12  1  0
 12 13  2  0
 14 15  1  0
 15 16  1  0
 17 18  1  0
 17 27  1  0
 18 19  1  0
 19 20  1  0
 20 21  1  0
 20 27  1  0
 21 22  2  0
 21 26  1  0
 22 23  1  0
 23 24  2  0
 24 25  1  0
 25 26  2  0
M  END
