
     RDKit          3D

 17 17  0  0  0  0  0  0  0  0999 V2000
   -3.5660   -1.4540    0.4040 C   0  0  0  0  0  0  0  0  0  0  0  0
   -3.3410    0.0400    0.3310 C   0  0  0  0  0  0  0  0  0  0  0  0
   -1.9460    0.2840   -0.1630 C   0  0  0  0  0  0  0  0  0  0  0  0
   -1.8390    0.9590   -1.2680 C   0  0  0  0  0  0  0  0  0  0  0  0
   -2.9640    1.4570   -2.0000 N   0  0  0  0  0  0  0  0  0  0  0  0
   -0.5970    1.2430   -1.8160 O   0  0  0  0  0  0  0  0  0  0  0  0
    0.5350    0.8020   -1.1770 C   0  0  0  0  0  0  0  0  0  0  0  0
    0.4780    0.1180   -0.0610 C   0  0  0  0  0  0  0  0  0  0  0  0
    1.7890   -0.2820    0.4980 C   0  0  0  0  0  0  0  0  0  0  0  0
    1.8590   -0.9420    1.5680 O   0  0  0  0  0  0  0  0  0  0  0  0
    2.9890    0.0400   -0.1090 O   0  0  0  0  0  0  0  0  0  0  0  0
    4.2090   -0.3610    0.4580 C   0  0  0  0  0  0  0  0  0  0  0  0
    5.3990    0.0750   -0.3340 C   0  0  1  0  0  0  0  0  0  0  0  0
    6.5360   -0.3740    0.3170 F   0  0  0  0  0  0  0  0  0  0  0  0
    5.3500   -0.4340   -1.6290 F   0  0  0  0  0  0  0  0  0  0  0  0
   -0.7780   -0.2150    0.5680 C   0  0  1  0  0  0  0  0  0  0  0  0
   -0.8280    0.1330    2.0430 C   0  0  0  0  0  0  0  0  0  0  0  0
  1  2  1  0
  2  3  1  0
  3  4  2  0
  3 16  1  0
  4  5  1  0
  4  6  1  0
  6  7  1  0
  7  8  2  0
  8  9  1  0
  8 16  1  0
  9 10  2  0
  9 11  1  0
 11 12  1  0
 12 13  1  0
 13 14  1  1
 13 15  1  0
 16 17  1  1
M  END
