
     RDKit          3D

 17 18  0  0  0  0  0  0  0  0999 V2000
   -4.2770    0.4150    2.4270 O   0  0  0  0  0  0  0  0  0  0  0  0
   -3.9590    0.5420    1.2340 C   0  0  0  0  0  0  0  0  0  0  0  0
   -4.3730    1.5310    0.3560 O   0  0  0  0  0  0  0  0  0  0  0  0
   -3.9170    1.2540   -0.9520 C   0  0  0  0  0  0  0  0  0  0  0  0
   -3.7590   -0.2540   -0.9020 C   0  0  0  0  0  0  0  0  0  0  0  0
   -3.0590   -0.3450    0.4670 C   0  0  1  0  0  0  0  0  0  0  0  0
   -1.7850    0.3060    0.2730 N   0  0  0  0  0  0  0  0  0  0  0  0
   -0.7450   -0.6950    0.3660 C   0  0  0  0  0  0  0  0  0  0  0  0
    0.5720   -0.0240    0.1660 C   0  0  0  0  0  0  0  0  0  0  0  0
    1.5960   -1.0360    0.2550 O   0  0  0  0  0  0  0  0  0  0  0  0
    2.9400   -0.6320    0.0850 C   0  0  0  0  0  0  0  0  0  0  0  0
    3.5220    0.3460    0.7440 C   0  0  0  0  0  0  0  0  0  0  0  0
    4.9200    0.4630    0.2920 C   0  0  0  0  0  0  0  0  0  0  0  0
    5.0760   -0.5910   -0.7340 C   0  0  0  0  0  0  0  0  0  0  0  0
    6.2010   -0.8420   -1.4100 F   0  0  0  0  0  0  0  0  0  0  0  0
    3.9020   -1.2040   -0.8230 C   0  0  0  0  0  0  0  0  0  0  0  0
    3.6700   -2.2400   -1.6810 F   0  0  0  0  0  0  0  0  0  0  0  0
  1  2  2  0
  2  3  1  0
  2  6  1  0
  3  4  1  0
  4  5  1  0
  5  6  1  0
  6  7  1  6
  7  8  1  0
  8  9  1  0
  9 10  1  0
 10 11  1  0
 11 12  2  0
 11 16  1  0
 12 13  1  0
 13 14  1  0
 14 15  1  0
 14 16  2  0
 16 17  1  0
M  END
