
     RDKit          3D

 17 18  0  0  0  0  0  0  0  0999 V2000
   -4.7170   -1.4630    0.5040 C   0  0  0  0  0  0  0  0  0  0  0  0
   -3.8280   -0.4990    0.3810 C   0  0  0  0  0  0  0  0  0  0  0  0
   -2.4100   -0.6490   -0.0230 C   0  0  0  0  0  0  0  0  0  0  0  0
   -1.9690    0.8190   -0.0240 C   0  0  1  0  0  0  0  0  0  0  0  0
   -0.9530    1.0530   -1.1180 C   0  0  0  0  0  0  0  0  0  0  0  0
    0.2630    0.3140   -0.9030 N   0  0  0  0  0  0  0  0  0  0  0  0
    1.0810    0.4960    0.2400 C   0  0  0  0  0  0  0  0  0  0  0  0
    0.7230    1.3420    1.0950 O   0  0  0  0  0  0  0  0  0  0  0  0
    2.3030   -0.3150    0.3600 C   0  0  1  0  0  0  0  0  0  0  0  0
    3.2750    0.1110   -0.7220 C   0  0  0  0  0  0  0  0  0  0  0  0
    4.5550   -0.5090   -0.1850 C   0  0  0  0  0  0  0  0  0  0  0  0
    4.3270   -0.4000    1.3070 C   0  0  0  0  0  0  0  0  0  0  0  0
    3.0200   -0.0530    1.5110 O   0  0  0  0  0  0  0  0  0  0  0  0
   -3.1410    1.5390   -0.2500 O   0  0  0  0  0  0  0  0  0  0  0  0
   -4.0520    0.9440    0.6210 C   0  0  2  0  0  0  0  0  0  0  0  0
   -3.6600    1.3140    1.9030 F   0  0  0  0  0  0  0  0  0  0  0  0
   -5.3490    1.3180    0.3610 F   0  0  0  0  0  0  0  0  0  0  0  0
  1  2  2  0
  2  3  1  0
  2 15  1  0
  3  4  1  0
  4  5  1  6
  4 14  1  0
  5  6  1  0
  6  7  1  0
  7  8  2  0
  9  7  1  1
  9 10  1  0
  9 13  1  0
 10 11  1  0
 11 12  1  0
 12 13  1  0
 14 15  1  0
 15 16  1  1
 15 17  1  0
M  END
