
     RDKit          3D

 17 17  0  0  0  0  0  0  0  0999 V2000
    2.6830    2.0760    1.3150 C   0  0  0  0  0  0  0  0  0  0  0  0
    2.9860    0.9980    0.6290 C   0  0  0  0  0  0  0  0  0  0  0  0
    4.3220    0.6940    0.4600 O   0  0  0  0  0  0  0  0  0  0  0  0
    1.9570    0.1210    0.0450 C   0  0  0  0  0  0  0  0  0  0  0  0
    2.2380   -0.9580   -0.6410 C   0  0  0  0  0  0  0  0  0  0  0  0
    3.5850   -1.4790   -0.9470 C   0  0  2  0  0  0  0  0  0  0  0  0
    4.3170   -1.8260    0.1670 F   0  0  0  0  0  0  0  0  0  0  0  0
    4.2900   -0.5750   -1.7460 F   0  0  0  0  0  0  0  0  0  0  0  0
    0.5520    0.5420    0.2770 C   0  0  0  0  0  0  0  0  0  0  0  0
   -0.4480   -0.2880   -0.2650 N   0  0  0  0  0  0  0  0  0  0  0  0
   -0.6970   -1.5460    0.2890 C   0  0  0  0  0  0  0  0  0  0  0  0
   -2.0650   -1.6800    0.9280 C   0  0  0  0  0  0  0  0  0  0  0  0
   -3.0370   -1.2480    0.0100 O   0  0  0  0  0  0  0  0  0  0  0  0
   -2.8720    0.1200   -0.1270 C   0  0  2  0  0  0  0  0  0  0  0  0
   -4.0160    0.6550   -0.9770 C   0  0  0  0  0  0  0  0  0  0  0  0
   -3.8860    2.0260   -1.1390 O   0  0  0  0  0  0  0  0  0  0  0  0
   -1.5720    0.4000   -0.8260 C   0  0  0  0  0  0  0  0  0  0  0  0
  1  2  2  0
  2  3  1  0
  2  4  1  0
  4  5  2  3
  4  9  1  0
  5  6  1  0
  6  7  1  1
  6  8  1  0
  9 10  1  0
 10 11  1  0
 10 17  1  0
 11 12  1  0
 12 13  1  0
 13 14  1  0
 14 15  1  6
 14 17  1  0
 15 16  1  0
M  END
