
     RDKit          3D

 18 20  0  0  0  0  0  0  0  0999 V2000
   -4.9240    1.8300    1.0610 C   0  0  0  0  0  0  0  0  0  0  0  0
   -3.8710    0.7930    0.8310 C   0  0  0  0  0  0  0  0  0  0  0  0
   -2.5320    0.9340    0.5190 C   0  0  0  0  0  0  0  0  0  0  0  0
   -1.8120   -0.1970    0.3680 C   0  0  0  0  0  0  0  0  0  0  0  0
   -2.4050   -1.3930    0.5210 C   0  0  0  0  0  0  0  0  0  0  0  0
   -4.0620   -0.9720    0.8990 S   0  0  0  0  0  0  0  0  0  0  0  0
   -2.0080   -2.7980    0.4500 C   0  0  0  0  0  0  0  0  0  0  0  0
   -1.0270   -3.0490   -0.5730 N   0  0  0  0  0  0  0  0  0  0  0  0
    0.0610   -2.2760   -1.0550 C   0  0  0  0  0  0  0  0  0  0  0  0
    0.7680   -2.7300   -1.9650 O   0  0  0  0  0  0  0  0  0  0  0  0
    0.4460   -0.9430   -0.5650 C   0  0  0  0  0  0  0  0  0  0  0  0
    1.8420   -0.6100   -0.7930 C   0  0  0  0  0  0  0  0  0  0  0  0
    2.5620   -1.4870   -1.3770 O   0  0  0  0  0  0  0  0  0  0  0  0
    2.4520    0.6200   -0.4120 N   0  0  0  0  0  0  0  0  0  0  0  0
    3.8690    0.7930   -0.7170 C   0  0  2  0  0  0  0  0  0  0  0  0
    4.6830    1.4630    0.4270 C   0  0  0  0  0  0  0  0  0  0  0  0
    4.4300    2.1620   -0.8330 C   0  0  0  0  0  0  0  0  0  0  0  0
   -0.3510   -0.0810    0.0300 C   0  0  0  0  0  0  0  0  0  0  0  0
  1  2  1  0
  2  3  2  0
  2  6  1  0
  3  4  1  0
  4  5  2  0
  4 18  1  0
  5  6  1  0
  5  7  1  0
  7  8  1  0
  8  9  1  0
  9 10  2  0
  9 11  1  0
 11 12  1  0
 11 18  2  0
 12 13  2  0
 12 14  1  0
 15 14  1  1
 15 16  1  0
 15 17  1  0
 16 17  1  0
M  END
