
     RDKit          3D

 21 24  0  0  0  0  0  0  0  0999 V2000
    4.0320    0.7060    2.2850 C   0  0  0  0  0  0  0  0  0  0  0  0
    2.6000    0.3230    2.2160 C   0  0  0  0  0  0  0  0  0  0  0  0
    1.8690    0.0870    3.3160 N   0  0  0  0  0  0  0  0  0  0  0  0
    0.6080   -0.2510    3.2530 N   0  0  0  0  0  0  0  0  0  0  0  0
   -0.0360   -0.3830    2.0760 C   0  0  0  0  0  0  0  0  0  0  0  0
   -1.2500   -0.7210    2.0550 O   0  0  0  0  0  0  0  0  0  0  0  0
    0.6150   -0.1610    0.8770 C   0  0  0  0  0  0  0  0  0  0  0  0
    0.2720   -0.2380   -0.4460 C   0  0  0  0  0  0  0  0  0  0  0  0
   -0.9730   -0.6420   -1.0740 C   0  0  0  0  0  0  0  0  0  0  0  0
   -0.9230   -1.6150   -2.0730 C   0  0  0  0  0  0  0  0  0  0  0  0
   -2.0370   -1.9750   -2.7740 C   0  0  0  0  0  0  0  0  0  0  0  0
   -3.2480   -1.3870   -2.5180 C   0  0  0  0  0  0  0  0  0  0  0  0
   -3.3520   -0.4120   -1.5370 C   0  0  0  0  0  0  0  0  0  0  0  0
   -2.2200   -0.0600   -0.8360 C   0  0  0  0  0  0  0  0  0  0  0  0
   -2.5200    0.9440    0.0100 C   0  0  0  0  0  0  0  0  0  0  0  0
   -3.9530    1.2140   -0.0650 C   0  0  0  0  0  0  0  0  0  0  0  0
   -4.4080    0.3130   -1.1410 C   0  0  0  0  0  0  0  0  0  0  0  0
    1.4250    0.0660   -1.1150 N   0  0  0  0  0  0  0  0  0  0  0  0
    2.4240    0.3240   -0.2840 C   0  0  0  0  0  0  0  0  0  0  0  0
    3.8310    0.6950   -0.6520 C   0  0  0  0  0  0  0  0  0  0  0  0
    1.9780    0.1990    0.9950 C   0  0  0  0  0  0  0  0  0  0  0  0
  1  2  1  0
  2  3  2  0
  2 21  1  0
  3  4  1  0
  4  5  1  0
  5  6  2  0
  5  7  1  0
  7  8  2  0
  7 21  1  0
  8  9  1  0
  8 18  1  0
  9 10  2  0
  9 14  1  0
 10 11  1  0
 11 12  2  0
 12 13  1  0
 13 14  1  0
 13 17  2  0
 14 15  2  0
 15 16  1  0
 16 17  1  0
 18 19  1  0
 19 20  1  0
 19 21  2  0
M  END
