
     RDKit          3D

 21 24  0  0  0  0  0  0  0  0999 V2000
    3.2760    2.0510    1.0660 O   0  0  0  0  0  0  0  0  0  0  0  0
    3.7710    0.7960    0.6850 C   0  0  0  0  0  0  0  0  0  0  0  0
    5.1520    0.6240    0.8590 C   0  0  0  0  0  0  0  0  0  0  0  0
    5.6870   -0.5860    0.5100 C   0  0  0  0  0  0  0  0  0  0  0  0
    4.8990   -1.6040    0.0020 C   0  0  0  0  0  0  0  0  0  0  0  0
    3.5800   -1.3830   -0.1450 N   0  0  0  0  0  0  0  0  0  0  0  0
    3.0100   -0.2180    0.1820 C   0  0  0  0  0  0  0  0  0  0  0  0
    1.5800   -0.0320    0.0120 C   0  0  0  0  0  0  0  0  0  0  0  0
    1.0170    1.0330   -0.6600 C   0  0  0  0  0  0  0  0  0  0  0  0
   -0.3060    1.2100   -0.7950 N   0  0  0  0  0  0  0  0  0  0  0  0
   -1.1410    0.2920   -0.2430 C   0  0  0  0  0  0  0  0  0  0  0  0
   -0.6990   -0.8040    0.4450 C   0  0  0  0  0  0  0  0  0  0  0  0
    0.6890   -0.9340    0.5530 C   0  0  0  0  0  0  0  0  0  0  0  0
   -1.5930   -1.8080    1.0490 C   0  0  0  0  0  0  0  0  0  0  0  0
   -2.9710   -1.5450    0.8600 N   0  0  0  0  0  0  0  0  0  0  0  0
   -3.4310   -0.4100    0.1480 C   0  0  0  0  0  0  0  0  0  0  0  0
   -4.7980   -0.2040   -0.0060 C   0  0  0  0  0  0  0  0  0  0  0  0
   -5.2590    0.8990   -0.6990 C   0  0  0  0  0  0  0  0  0  0  0  0
   -4.4080    1.8280   -1.2580 C   0  0  0  0  0  0  0  0  0  0  0  0
   -3.0530    1.6250   -1.1060 C   0  0  0  0  0  0  0  0  0  0  0  0
   -2.5840    0.5190   -0.4110 C   0  0  0  0  0  0  0  0  0  0  0  0
  1  2  1  0
  2  3  2  0
  2  7  1  0
  3  4  1  0
  4  5  2  0
  5  6  1  0
  6  7  2  0
  7  8  1  0
  8  9  2  0
  8 13  1  0
  9 10  1  0
 10 11  2  0
 11 12  1  0
 11 21  1  0
 12 13  2  0
 12 14  1  0
 14 15  1  0
 15 16  1  0
 16 17  2  0
 16 21  1  0
 17 18  1  0
 18 19  2  0
 19 20  1  0
 20 21  2  0
M  END
