
     RDKit          3D

 18 19  0  0  0  0  0  0  0  0999 V2000
    4.8390    1.3030    0.4360 C   0  0  0  0  0  0  0  0  0  0  0  0
    4.7670   -0.0120   -0.2660 C   0  0  0  0  0  0  0  0  0  0  0  0
    3.3860   -0.4860   -0.4630 C   0  0  0  0  0  0  0  0  0  0  0  0
    2.3750    0.2380   -0.0330 C   0  0  0  0  0  0  0  0  0  0  0  0
    0.9840   -0.1880   -0.2040 C   0  0  0  0  0  0  0  0  0  0  0  0
   -0.0610    0.5720    0.2460 N   0  0  0  0  0  0  0  0  0  0  0  0
   -1.1810   -0.0820   -0.0590 C   0  0  0  0  0  0  0  0  0  0  0  0
   -2.5150    0.4170    0.2640 C   0  0  0  0  0  0  0  0  0  0  0  0
   -3.5220   -0.2610   -0.0590 O   0  0  0  0  0  0  0  0  0  0  0  0
   -2.7400    1.6420    0.9300 N   0  0  0  0  0  0  0  0  0  0  0  0
   -4.0430    2.1520    1.2570 C   0  0  0  0  0  0  0  0  0  0  0  0
   -4.8990    2.3680    0.0840 C   0  0  0  0  0  0  0  0  0  0  0  0
   -4.4830    2.1180   -1.0240 O   0  0  0  0  0  0  0  0  0  0  0  0
   -0.8780   -1.2880   -0.7180 C   0  0  0  0  0  0  0  0  0  0  0  0
    0.4930   -1.3140   -0.7880 C   0  0  0  0  0  0  0  0  0  0  0  0
    0.9120   -2.8380   -1.6010 S   0  0  0  0  0  0  0  0  0  0  0  0
   -0.7100   -3.6630   -1.2520 C   0  0  0  0  0  0  0  0  0  0  0  0
   -1.5650   -2.4200   -1.3140 C   0  0  0  0  0  0  0  0  0  0  0  0
  1  2  1  0
  2  3  1  0
  3  4  2  3
  4  5  1  0
  5  6  1  0
  5 15  2  0
  6  7  1  0
  7  8  1  0
  7 14  2  0
  8  9  2  0
  8 10  1  0
 10 11  1  0
 11 12  1  0
 12 13  2  0
 14 15  1  0
 14 18  1  0
 15 16  1  0
 16 17  1  0
 17 18  1  0
M  END
