
     RDKit          3D

 18 20  0  0  0  0  0  0  0  0999 V2000
    1.1830   -0.8440    0.6650 O   0  0  0  0  0  0  0  0  0  0  0  0
    1.4390   -0.0170   -0.2300 C   0  0  0  0  0  0  0  0  0  0  0  0
    2.8620    0.2520   -0.5840 C   0  0  0  0  0  0  0  0  0  0  0  0
    3.8050   -0.5700    0.2510 C   0  0  1  0  0  0  0  0  0  0  0  0
    5.2580   -0.3480   -0.0530 C   0  0  0  0  0  0  0  0  0  0  0  0
    4.6800    0.1280    1.2460 C   0  0  0  0  0  0  0  0  0  0  0  0
    0.3640    0.6370   -0.8790 N   0  0  0  0  0  0  0  0  0  0  0  0
   -1.0110    0.4700   -0.6360 C   0  0  0  0  0  0  0  0  0  0  0  0
   -1.8920    1.2340   -1.4120 C   0  0  0  0  0  0  0  0  0  0  0  0
   -3.2580    1.1460   -1.2540 C   0  0  0  0  0  0  0  0  0  0  0  0
   -3.8140    0.2960   -0.3210 C   0  0  0  0  0  0  0  0  0  0  0  0
   -2.9810   -0.4740    0.4640 C   0  0  0  0  0  0  0  0  0  0  0  0
   -1.6010   -0.3580    0.2760 C   0  0  0  0  0  0  0  0  0  0  0  0
   -3.8300   -1.2590    1.3420 C   0  0  0  0  0  0  0  0  0  0  0  0
   -3.3170   -2.3220    2.4540 S   0  0  0  0  0  0  0  0  0  0  0  0
   -5.2240   -0.9480    1.0740 C   0  0  0  0  0  0  0  0  0  0  0  0
   -6.2670   -1.4130    1.6200 O   0  0  0  0  0  0  0  0  0  0  0  0
   -5.1680    0.0350    0.0220 N   0  0  0  0  0  0  0  0  0  0  0  0
  1  2  2  0
  2  3  1  0
  2  7  1  0
  4  3  1  6
  4  5  1  0
  4  6  1  0
  5  6  1  0
  7  8  1  0
  8  9  2  0
  8 13  1  0
  9 10  1  0
 10 11  2  0
 11 12  1  0
 11 18  1  0
 12 13  2  0
 12 14  1  0
 14 15  2  0
 14 16  1  0
 16 17  2  0
 16 18  1  0
M  END
