
     RDKit          3D

 19 20  0  0  0  0  0  0  0  0999 V2000
   -3.0940    0.9810   -0.5620 C   0  0  0  0  0  0  0  0  0  0  0  0
   -1.6980    0.5600   -0.8730 C   0  0  0  0  0  0  0  0  0  0  0  0
   -0.9850    0.1010    0.3940 C   0  0  1  0  0  0  0  0  0  0  0  0
   -0.9090    1.0740    1.3380 O   0  0  0  0  0  0  0  0  0  0  0  0
   -0.3360    2.2610    1.1110 C   0  0  0  0  0  0  0  0  0  0  0  0
   -1.9480   -0.9870    0.9510 C   0  0  0  0  0  0  0  0  0  0  0  0
   -1.5980   -2.1340    0.0250 C   0  0  0  0  0  0  0  0  0  0  0  0
   -0.1280   -1.9430   -0.0980 C   0  0  0  0  0  0  0  0  0  0  0  0
    1.0080   -3.2650   -0.4680 S   0  0  0  0  0  0  0  0  0  0  0  0
    0.2240   -0.6770    0.1110 C   0  0  0  0  0  0  0  0  0  0  0  0
    1.6200   -0.1350    0.0440 C   0  0  2  0  0  0  0  0  0  0  0  0
    1.7600    0.7750   -0.9980 O   0  0  0  0  0  0  0  0  0  0  0  0
    3.0340    0.8840   -1.3360 O   0  0  0  0  0  0  0  0  0  0  0  0
    3.8690    0.5670   -0.3470 N   0  0  0  0  0  0  0  0  0  0  0  0
    3.9980    1.5170    0.5790 O   0  0  0  0  0  0  0  0  0  0  0  0
    5.6670    1.9040    0.7200 Cl  0  0  0  0  0  0  0  0  0  0  0  0
    3.7860   -0.6760    0.1230 O   0  0  0  0  0  0  0  0  0  0  0  0
    2.5700   -1.1990   -0.2690 N   0  0  0  0  0  0  0  0  0  0  0  0
    2.7370   -1.3370   -2.0210 Cl  0  0  0  0  0  0  0  0  0  0  0  0
  1  2  1  0
  3  2  1  6
  3  4  1  0
  3  6  1  0
  3 10  1  0
  4  5  1  0
  6  7  1  0
  7  8  1  0
  8  9  1  0
  8 10  2  0
 11 10  1  6
 11 12  1  0
 11 18  1  0
 12 13  1  0
 13 14  1  0
 14 15  1  0
 14 17  1  0
 15 16  1  0
 17 18  1  0
 18 19  1  0
M  END
