
     RDKit          3D

  9  9  0  0  0  0  0  0  0  0999 V2000
    2.0970   -0.4290    1.2860 C   0  0  0  0  0  0  0  0  0  0  0  0
    1.4090    0.0330    0.0550 C   0  0  0  0  0  0  0  0  0  0  0  0
    2.1980    0.8230   -0.9250 C   0  0  0  0  0  0  0  0  0  0  0  0
    0.1530   -0.2470   -0.1530 C   0  0  0  0  0  0  0  0  0  0  0  0
   -0.6200   -1.0020    0.7740 N   0  0  0  0  0  0  0  0  0  0  0  0
   -1.9730   -1.0910    0.6810 O   0  0  0  0  0  0  0  0  0  0  0  0
   -2.5640    0.0840    0.2720 C   0  0  0  0  0  0  0  0  0  0  0  0
   -2.4870    0.1220   -1.2600 C   0  0  0  0  0  0  0  0  0  0  0  0
   -0.6990    0.3040   -1.6380 S   0  0  0  0  0  0  0  0  0  0  0  0
  1  2  1  0
  2  3  1  0
  2  4  2  3
  4  5  1  0
  4  9  1  0
  5  6  1  0
  6  7  1  0
  7  8  1  0
  8  9  1  0
M  END
