
     RDKit          3D

 20 21  0  0  0  0  0  0  0  0999 V2000
   -2.8760   -1.5060    1.2080 C   0  0  0  0  0  0  0  0  0  0  0  0
   -1.6700   -0.7550    0.9510 N   0  0  0  0  0  0  0  0  0  0  0  0
   -0.6120   -1.0200    1.7690 O   0  0  0  0  0  0  0  0  0  0  0  0
    0.4670   -1.3380    0.9690 O   0  0  0  0  0  0  0  0  0  0  0  0
    0.7430   -0.4840   -0.0660 C   0  0  0  0  0  0  0  0  0  0  0  0
    2.4200   -0.3460   -0.7580 S   0  0  0  0  0  0  0  0  0  0  0  0
    2.4760    0.4020   -2.2220 C   0  0  0  0  0  0  0  0  0  0  0  0
    2.0580   -1.7140   -1.3470 O   0  0  0  0  0  0  0  0  0  0  0  0
    3.5910   -1.1080   -0.0700 O   0  0  0  0  0  0  0  0  0  0  0  0
    3.3380   -1.3910    1.2130 O   0  0  0  0  0  0  0  0  0  0  0  0
    3.4780   -0.2780    2.0720 C   0  0  0  0  0  0  0  0  0  0  0  0
    3.9270   -0.3510    3.2350 O   0  0  0  0  0  0  0  0  0  0  0  0
    3.0410    0.9340    1.4420 N   0  0  0  0  0  0  0  0  0  0  0  0
    2.5840    0.8860    0.2110 C   0  0  0  0  0  0  0  0  0  0  0  0
    2.1270    2.5730   -0.2160 Cl  0  0  0  0  0  0  0  0  0  0  0  0
   -0.1380    0.2740   -0.6320 C   0  0  0  0  0  0  0  0  0  0  0  0
   -1.5200    0.1670   -0.0930 C   0  0  0  0  0  0  0  0  0  0  0  0
   -2.4660    0.9160   -0.5410 C   0  0  0  0  0  0  0  0  0  0  0  0
   -3.8670    1.0410   -0.1420 C   0  0  0  0  0  0  0  0  0  0  0  0
   -4.0900    2.7720    0.3270 Cl  0  0  0  0  0  0  0  0  0  0  0  0
  1  2  1  0
  2  3  1  0
  2 17  1  0
  3  4  1  0
  4  5  1  0
  5  6  1  0
  5 16  2  0
  6  7  1  0
  6  8  2  0
  6  9  1  0
  6 14  1  0
  9 10  1  0
 10 11  1  0
 11 12  2  0
 11 13  1  0
 13 14  2  0
 14 15  1  0
 16 17  1  0
 17 18  2  3
 18 19  1  0
 19 20  1  0
M  END
