
     RDKit          3D

 20 21  0  0  0  0  0  0  0  0999 V2000
    4.4720   -1.2720   -0.1850 C   0  0  0  0  0  0  0  0  0  0  0  0
    4.1280   -0.0600   -0.5570 C   0  0  0  0  0  0  0  0  0  0  0  0
    3.0890    0.6690    0.2100 C   0  0  0  0  0  0  0  0  0  0  0  0
    1.9430    0.9960   -0.6940 C   0  0  2  0  0  0  0  0  0  0  0  0
    0.9010    1.7010   -0.0210 N   0  0  0  0  0  0  0  0  0  0  0  0
   -0.5950    1.0670   -0.2960 S   0  0  0  0  0  0  0  0  0  0  0  0
   -1.6570    0.2400   -0.3640 O   0  0  0  0  0  0  0  0  0  0  0  0
   -2.3320   -0.7610    0.1760 C   0  0  1  0  0  0  0  0  0  0  0  0
   -3.5460   -0.9400   -0.7830 C   0  0  0  0  0  0  0  0  0  0  0  0
   -1.6870   -2.1360    0.1860 C   0  0  0  0  0  0  0  0  0  0  0  0
   -2.9310   -0.5070    1.4120 O   0  0  0  0  0  0  0  0  0  0  0  0
   -1.2150    2.3810    0.0370 C   0  0  2  0  0  0  0  0  0  0  0  0
   -1.2820    2.5340    1.4500 O   0  0  0  0  0  0  0  0  0  0  0  0
   -2.9180    2.6290   -0.4770 Cl  0  0  0  0  0  0  0  0  0  0  0  0
   -0.5120    3.9870   -0.4540 Cl  0  0  0  0  0  0  0  0  0  0  0  0
    0.1280    0.4180   -1.6780 O   0  0  0  0  0  0  0  0  0  0  0  0
    1.1680   -0.2150   -1.0320 N   0  0  0  0  0  0  0  0  0  0  0  0
    0.8200   -0.7910    0.1020 O   0  0  0  0  0  0  0  0  0  0  0  0
    0.1100   -0.1230    1.0410 C   0  0  0  0  0  0  0  0  0  0  0  0
   -0.1650   -0.0470    2.1910 O   0  0  0  0  0  0  0  0  0  0  0  0
  1  2  2  0
  2  3  1  0
  4  3  1  1
  4  5  1  0
  4 17  1  0
  5  6  2  0
  6  7  1  0
  6 12  1  0
  6 16  1  0
  6 19  1  0
  7  8  1  0
  8  9  1  6
  8 10  1  0
  8 11  1  0
 12 13  1  1
 12 14  1  0
 12 15  1  0
 16 17  1  0
 17 18  1  0
 18 19  1  0
 19 20  2  0
M  END
