
     RDKit          3D

 16 16  0  0  0  0  0  0  0  0999 V2000
    5.4120    0.4870    0.3340 C   0  0  0  0  0  0  0  0  0  0  0  0
    4.8510   -0.7290    1.0150 C   0  0  0  0  0  0  0  0  0  0  0  0
    3.4680   -1.0700    0.4530 C   0  0  0  0  0  0  0  0  0  0  0  0
    2.6140    0.0550    0.6880 O   0  0  0  0  0  0  0  0  0  0  0  0
    1.3140    0.0710    0.3060 N   0  0  0  0  0  0  0  0  0  0  0  0
    0.8710    0.4470   -0.8360 C   0  0  0  0  0  0  0  0  0  0  0  0
    1.9340    1.0120   -2.1080 Cl  0  0  0  0  0  0  0  0  0  0  0  0
   -0.5010    0.3930   -1.0460 O   0  0  0  0  0  0  0  0  0  0  0  0
   -1.2060   -0.4550   -0.3000 O   0  0  0  0  0  0  0  0  0  0  0  0
   -2.2950    0.1910    0.3320 C   0  0  2  0  0  0  0  0  0  0  0  0
   -3.0020   -0.9010    1.1440 C   0  0  0  0  0  0  0  0  0  0  0  0
   -3.4600   -1.9770    0.1960 C   0  0  0  0  0  0  0  0  0  0  0  0
   -3.1980    0.7360   -0.6500 C   0  0  0  0  0  0  0  0  0  0  0  0
   -3.2060    2.2020   -0.7350 C   0  0  0  0  0  0  0  0  0  0  0  0
   -1.8630    2.6940    0.3820 S   0  0  0  0  0  0  0  0  0  0  0  0
   -1.7670    1.1320    1.2380 N   0  0  0  0  0  0  0  0  0  0  0  0
  1  2  1  0
  2  3  1  0
  3  4  1  0
  4  5  1  0
  5  6  2  3
  6  7  1  0
  6  8  1  0
  8  9  1  0
  9 10  1  0
 10 11  1  1
 10 13  1  0
 10 16  1  0
 11 12  1  0
 13 14  1  0
 14 15  1  0
 15 16  1  0
M  END
