
     RDKit          3D

 18 20  0  0  0  0  0  0  0  0999 V2000
    1.2500   -2.6160    0.5300 O   0  0  0  0  0  0  0  0  0  0  0  0
    1.0500   -1.4570    0.0880 C   0  0  0  0  0  0  0  0  0  0  0  0
    1.9910   -0.3660    0.2100 C   0  0  0  0  0  0  0  0  0  0  0  0
    3.2410   -0.3050    0.7900 C   0  0  0  0  0  0  0  0  0  0  0  0
    3.9370    0.9000    0.7610 C   0  0  0  0  0  0  0  0  0  0  0  0
    3.4020    2.0260    0.1680 C   0  0  0  0  0  0  0  0  0  0  0  0
    2.1520    1.9150   -0.3960 C   0  0  0  0  0  0  0  0  0  0  0  0
    1.4290    0.7360   -0.3880 C   0  0  0  0  0  0  0  0  0  0  0  0
    0.1150    0.3530   -0.9020 C   0  0  0  0  0  0  0  0  0  0  0  0
   -0.6690    1.1150   -1.5050 O   0  0  0  0  0  0  0  0  0  0  0  0
   -0.1340   -1.0220   -0.6090 N   0  0  0  0  0  0  0  0  0  0  0  0
   -1.3080   -1.8100   -0.9340 C   0  0  0  0  0  0  0  0  0  0  0  0
   -2.3490   -1.7530    0.1560 C   0  0  0  0  0  0  0  0  0  0  0  0
   -2.8290   -0.3800    0.4190 C   0  0  0  0  0  0  0  0  0  0  0  0
   -2.2900    0.4720    1.3040 N   0  0  0  0  0  0  0  0  0  0  0  0
   -2.9880    1.5940    1.2560 N   0  0  0  0  0  0  0  0  0  0  0  0
   -3.9540    1.4900    0.3710 N   0  0  0  0  0  0  0  0  0  0  0  0
   -3.8540    0.2760   -0.1420 N   0  0  0  0  0  0  0  0  0  0  0  0
  1  2  2  0
  2  3  1  0
  2 11  1  0
  3  4  2  0
  3  8  1  0
  4  5  1  0
  5  6  2  0
  6  7  1  0
  7  8  2  0
  8  9  1  0
  9 10  2  0
  9 11  1  0
 11 12  1  0
 12 13  1  0
 13 14  1  0
 14 15  1  0
 14 18  2  0
 15 16  2  0
 16 17  1  0
 17 18  1  0
M  END
