
     RDKit          3D

 20 23  0  0  0  0  0  0  0  0999 V2000
    6.5160   -1.2000    0.9300 O   0  0  0  0  0  0  0  0  0  0  0  0
    5.1090   -1.2740    0.3470 S   0  0  0  0  0  0  0  0  0  0  0  0
    4.9670   -0.2910   -1.1460 C   0  0  0  0  0  0  0  0  0  0  0  0
    4.2780    1.0230   -0.7560 C   0  0  0  0  0  0  0  0  0  0  0  0
    2.9070    0.6580   -0.3510 C   0  0  0  0  0  0  0  0  0  0  0  0
    1.8510    1.1420   -1.0760 C   0  0  0  0  0  0  0  0  0  0  0  0
    0.5940    0.7870   -0.6780 N   0  0  0  0  0  0  0  0  0  0  0  0
    0.3950   -0.0080    0.3850 C   0  0  0  0  0  0  0  0  0  0  0  0
   -0.9340   -0.3450    0.7530 N   0  0  0  0  0  0  0  0  0  0  0  0
   -2.0450    0.1590   -0.0030 C   0  0  0  0  0  0  0  0  0  0  0  0
   -1.9300    0.9600   -1.0800 N   0  0  0  0  0  0  0  0  0  0  0  0
   -3.1090    1.2660   -1.5730 N   0  0  0  0  0  0  0  0  0  0  0  0
   -3.9890    0.6360   -0.7760 C   0  0  0  0  0  0  0  0  0  0  0  0
   -3.3410   -0.0430    0.1850 N   0  0  0  0  0  0  0  0  0  0  0  0
   -4.2710   -0.7290    1.0530 C   0  0  0  0  0  0  0  0  0  0  0  0
   -5.5220   -0.8280    0.2180 C   0  0  0  0  0  0  0  0  0  0  0  0
   -5.4490    0.4400   -0.6070 C   0  0  0  0  0  0  0  0  0  0  0  0
    1.4550   -0.4640    1.0720 N   0  0  0  0  0  0  0  0  0  0  0  0
    2.7330   -0.1560    0.7390 C   0  0  0  0  0  0  0  0  0  0  0  0
    3.8880   -0.6790    1.5260 C   0  0  0  0  0  0  0  0  0  0  0  0
  1  2  2  0
  2  3  1  6
  2 20  1  0
  3  4  1  0
  4  5  1  0
  5  6  2  0
  5 19  1  0
  6  7  1  0
  7  8  2  0
  8  9  1  0
  8 18  1  0
  9 10  1  0
 10 11  2  0
 10 14  1  0
 11 12  1  0
 12 13  2  0
 13 14  1  0
 13 17  1  0
 14 15  1  0
 15 16  1  0
 16 17  1  0
 18 19  2  0
 19 20  1  0
M  END
