
     RDKit          3D

 20 22  0  0  0  0  0  0  0  0999 V2000
   -0.3120    3.2630   -0.5660 C   0  0  0  0  0  0  0  0  0  0  0  0
   -1.0790    2.4490   -1.5900 C   0  0  0  0  0  0  0  0  0  0  0  0
   -1.4660    1.2110   -0.9830 N   0  0  0  0  0  0  0  0  0  0  0  0
   -0.6370    0.1590   -1.0760 C   0  0  0  0  0  0  0  0  0  0  0  0
    0.8800    0.3240   -1.9330 S   0  0  0  0  0  0  0  0  0  0  0  0
    2.2920    0.8430   -1.0190 C   0  0  0  0  0  0  0  0  0  0  0  0
    2.8000   -0.1090    0.0000 C   0  0  0  0  0  0  0  0  0  0  0  0
    2.4000   -1.2930    0.3580 C   0  0  0  0  0  0  0  0  0  0  0  0
    3.2720   -1.8140    1.4400 C   0  0  0  0  0  0  0  0  0  0  0  0
    4.2040   -0.7360    1.6140 N   0  0  0  0  0  0  0  0  0  0  0  0
    3.9630    0.2260    0.8250 C   0  0  0  0  0  0  0  0  0  0  0  0
   -1.0430   -0.9820   -0.4910 N   0  0  0  0  0  0  0  0  0  0  0  0
   -2.2180   -1.0690    0.1550 N   0  0  0  0  0  0  0  0  0  0  0  0
   -2.7970   -2.0870    0.7910 C   0  0  0  0  0  0  0  0  0  0  0  0
   -2.1870   -3.4550    0.9160 C   0  0  0  0  0  0  0  0  0  0  0  0
   -3.9610   -1.6740    1.2690 N   0  0  0  0  0  0  0  0  0  0  0  0
   -4.1410   -0.4050    0.9500 N   0  0  0  0  0  0  0  0  0  0  0  0
   -3.0550   -0.0240    0.2550 C   0  0  0  0  0  0  0  0  0  0  0  0
   -2.6540    1.1640   -0.3430 C   0  0  0  0  0  0  0  0  0  0  0  0
   -3.4210    2.1590   -0.2630 O   0  0  0  0  0  0  0  0  0  0  0  0
  1  2  1  0
  2  3  1  0
  3  4  1  0
  3 19  1  0
  4  5  1  0
  4 12  2  0
  5  6  1  0
  6  7  1  0
  7  8  2  0
  7 11  1  0
  8  9  1  0
  9 10  1  0
 10 11  2  0
 12 13  1  0
 13 14  1  0
 13 18  1  0
 14 15  1  0
 14 16  2  0
 16 17  1  0
 17 18  2  0
 18 19  1  0
 19 20  2  0
M  END
