
     RDKit          3D

 20 22  0  0  0  0  0  0  0  0999 V2000
    4.8030   -2.3920    3.6800 C   0  0  0  0  0  0  0  0  0  0  0  0
    5.1250   -1.1780    3.3160 C   0  0  0  0  0  0  0  0  0  0  0  0
    4.2560   -0.4260    2.4830 N   0  0  0  0  0  0  0  0  0  0  0  0
    3.0630   -0.8160    1.9890 C   0  0  0  0  0  0  0  0  0  0  0  0
    2.5280    0.1850    1.2290 C   0  0  0  0  0  0  0  0  0  0  0  0
    1.2630    0.2240    0.4990 C   0  0  0  0  0  0  0  0  0  0  0  0
    0.8860    1.3000   -0.2140 N   0  0  0  0  0  0  0  0  0  0  0  0
   -0.2620    1.3300   -0.8750 N   0  0  0  0  0  0  0  0  0  0  0  0
   -1.1170    0.2920   -0.8730 C   0  0  0  0  0  0  0  0  0  0  0  0
   -2.3630    0.3680   -1.6100 N   0  0  0  0  0  0  0  0  0  0  0  0
   -3.5420    0.2400   -0.8410 C   0  0  0  0  0  0  0  0  0  0  0  0
   -4.8310    0.6500   -1.4150 C   0  0  0  0  0  0  0  0  0  0  0  0
   -4.8340    1.0940   -3.1520 S   0  0  0  0  0  0  0  0  0  0  0  0
   -3.1360    1.6710   -3.5360 C   0  0  0  0  0  0  0  0  0  0  0  0
   -2.2300    0.5610   -3.0190 C   0  0  0  0  0  0  0  0  0  0  0  0
   -0.7630   -0.8190   -0.1570 C   0  0  0  0  0  0  0  0  0  0  0  0
   -1.5300   -1.8000   -0.1310 O   0  0  0  0  0  0  0  0  0  0  0  0
    0.4140   -0.8200    0.5070 N   0  0  0  0  0  0  0  0  0  0  0  0
    3.4380    1.2190    1.2690 C   0  0  0  0  0  0  0  0  0  0  0  0
    4.4750    0.8070    2.0420 N   0  0  0  0  0  0  0  0  0  0  0  0
  1  2  2  0
  2  3  1  0
  3  4  1  0
  3 20  1  0
  4  5  2  0
  5  6  1  0
  5 19  1  0
  6  7  2  0
  6 18  1  0
  7  8  1  0
  8  9  2  0
  9 10  1  0
  9 16  1  0
 10 11  1  0
 10 15  1  0
 11 12  1  0
 12 13  1  0
 13 14  1  0
 14 15  1  0
 16 17  2  0
 16 18  1  0
 19 20  2  0
M  END
