
     RDKit          3D

 14 15  0  0  0  0  0  0  0  0999 V2000
   -4.8480   -0.2960    0.5910 C   0  0  0  0  0  0  0  0  0  0  0  0
   -3.4460   -0.4310    0.1190 C   0  0  0  0  0  0  0  0  0  0  0  0
   -2.8920   -1.5260   -0.3150 O   0  0  0  0  0  0  0  0  0  0  0  0
   -1.6170   -1.2980   -0.6600 C   0  0  0  0  0  0  0  0  0  0  0  0
   -1.3170    0.0160   -0.4410 C   0  0  0  0  0  0  0  0  0  0  0  0
   -0.1620    0.6810   -0.6440 O   0  0  0  0  0  0  0  0  0  0  0  0
    1.0740    0.3120   -1.1000 C   0  0  0  0  0  0  0  0  0  0  0  0
    1.7120   -0.7020   -0.2060 C   0  0  2  0  0  0  0  0  0  0  0  0
    2.0060   -0.0430    1.1440 C   0  0  0  0  0  0  0  0  0  0  0  0
    3.3830    0.4830    0.9200 C   0  0  0  0  0  0  0  0  0  0  0  0
    3.7790   -0.0200   -0.4410 C   0  0  0  0  0  0  0  0  0  0  0  0
    2.9460   -1.1040   -0.6450 O   0  0  0  0  0  0  0  0  0  0  0  0
   -2.5020    0.5680    0.0610 C   0  0  0  0  0  0  0  0  0  0  0  0
   -2.6940    1.8770    0.4330 O   0  0  0  0  0  0  0  0  0  0  0  0
  1  2  1  0
  2  3  1  0
  2 13  2  0
  3  4  1  0
  4  5  2  0
  5  6  1  0
  5 13  1  0
  6  7  1  0
  8  7  1  6
  8  9  1  0
  8 12  1  0
  9 10  1  0
 10 11  1  0
 11 12  1  0
 13 14  1  0
M  END
