
     RDKit          3D

 14 15  0  0  0  0  0  0  0  0999 V2000
    3.5600    0.8020   -0.7230 C   0  0  0  0  0  0  0  0  0  0  0  0
    3.4130   -0.5580   -0.8260 O   0  0  0  0  0  0  0  0  0  0  0  0
    2.9300   -1.1410    0.3340 C   0  0  0  0  0  0  0  0  0  0  0  0
    1.5760   -0.5820    0.6780 C   0  0  0  0  0  0  0  0  0  0  0  0
    0.6840   -0.8490   -0.3900 O   0  0  0  0  0  0  0  0  0  0  0  0
   -0.6470   -0.4530   -0.3650 C   0  0  0  0  0  0  0  0  0  0  0  0
   -1.6990   -1.2530   -0.2230 C   0  0  0  0  0  0  0  0  0  0  0  0
   -2.9320   -0.4470   -0.2480 C   0  0  0  0  0  0  0  0  0  0  0  0
   -4.3110   -0.4540   -0.1760 C   0  0  0  0  0  0  0  0  0  0  0  0
   -4.7240    0.7860   -0.2900 O   0  0  0  0  0  0  0  0  0  0  0  0
   -3.7240    1.6110   -0.4320 C   0  0  0  0  0  0  0  0  0  0  0  0
   -2.5570    0.8710   -0.4110 C   0  0  0  0  0  0  0  0  0  0  0  0
   -1.0970    0.9320   -0.4930 C   0  0  0  0  0  0  0  0  0  0  0  0
   -0.3800    1.9460   -0.6410 O   0  0  0  0  0  0  0  0  0  0  0  0
  1  2  1  0
  2  3  1  0
  3  4  1  0
  4  5  1  0
  5  6  1  0
  6  7  2  0
  6 13  1  0
  7  8  1  0
  8  9  2  0
  8 12  1  0
  9 10  1  0
 10 11  1  0
 11 12  2  0
 12 13  1  0
 13 14  2  0
M  END
