
     RDKit          3D

 21 23  0  0  0  0  0  0  0  0999 V2000
    1.6320    2.0930    0.1190 O   0  0  0  0  0  0  0  0  0  0  0  0
    1.6900    0.8510    0.1020 C   0  0  0  0  0  0  0  0  0  0  0  0
    0.5050    0.1010    0.1270 N   0  0  0  0  0  0  0  0  0  0  0  0
   -0.8250    0.5650    0.1770 C   0  0  0  0  0  0  0  0  0  0  0  0
   -1.1140    1.8730    0.4360 C   0  0  0  0  0  0  0  0  0  0  0  0
   -2.4330    2.3040    0.4640 C   0  0  0  0  0  0  0  0  0  0  0  0
   -3.4350    1.4140    0.2320 C   0  0  0  0  0  0  0  0  0  0  0  0
   -3.1670    0.0850   -0.0320 C   0  0  0  0  0  0  0  0  0  0  0  0
   -4.2770   -0.8300   -0.2730 C   0  0  0  0  0  0  0  0  0  0  0  0
   -4.1200   -2.1370   -0.5380 N   0  0  0  0  0  0  0  0  0  0  0  0
   -5.3210   -2.6880   -0.7080 N   0  0  0  0  0  0  0  0  0  0  0  0
   -6.2170   -1.7210   -0.5490 N   0  0  0  0  0  0  0  0  0  0  0  0
   -5.5920   -0.5670   -0.2800 N   0  0  0  0  0  0  0  0  0  0  0  0
   -1.8690   -0.3360   -0.0590 C   0  0  0  0  0  0  0  0  0  0  0  0
    3.0290    0.2250    0.0550 C   0  0  0  0  0  0  0  0  0  0  0  0
    3.2380   -1.1180    0.0360 C   0  0  0  0  0  0  0  0  0  0  0  0
    4.5160   -1.6760   -0.0090 C   0  0  0  0  0  0  0  0  0  0  0  0
    5.6210   -0.8540   -0.0360 C   0  0  0  0  0  0  0  0  0  0  0  0
    5.4370    0.4970   -0.0180 C   0  0  0  0  0  0  0  0  0  0  0  0
    6.5060    1.3520   -0.0440 F   0  0  0  0  0  0  0  0  0  0  0  0
    4.1560    1.0250    0.0260 C   0  0  0  0  0  0  0  0  0  0  0  0
  1  2  2  0
  2  3  1  0
  2 15  1  0
  3  4  1  0
  4  5  2  0
  4 14  1  0
  5  6  1  0
  6  7  2  0
  7  8  1  0
  8  9  1  0
  8 14  2  0
  9 10  1  0
  9 13  2  0
 10 11  2  0
 11 12  1  0
 12 13  1  0
 15 16  2  0
 15 21  1  0
 16 17  1  0
 17 18  2  0
 18 19  1  0
 19 20  1  0
 19 21  2  0
M  END
