
     RDKit          3D

 17 18  0  0  0  0  0  0  0  0999 V2000
   -4.1570   -1.7500   -0.3060 C   0  0  0  0  0  0  0  0  0  0  0  0
   -2.9070   -0.9720   -0.0390 C   0  0  0  0  0  0  0  0  0  0  0  0
   -1.6630   -1.5490   -0.1850 C   0  0  0  0  0  0  0  0  0  0  0  0
   -0.4880   -0.8190    0.0660 C   0  0  0  0  0  0  0  0  0  0  0  0
    0.7540   -1.4550   -0.0860 N   0  0  0  0  0  0  0  0  0  0  0  0
    1.9890   -0.8360    0.1120 C   0  0  0  0  0  0  0  0  0  0  0  0
    3.1290   -1.6480    0.1370 C   0  0  0  0  0  0  0  0  0  0  0  0
    4.3770   -1.1200    0.3140 C   0  0  0  0  0  0  0  0  0  0  0  0
    4.5770    0.2390    0.4780 C   0  0  0  0  0  0  0  0  0  0  0  0
    6.1380    0.9710    0.7070 Cl  0  0  0  0  0  0  0  0  0  0  0  0
    3.4540    1.0350    0.4530 C   0  0  0  0  0  0  0  0  0  0  0  0
    2.1680    0.5010    0.2710 C   0  0  0  0  0  0  0  0  0  0  0  0
   -0.6740    0.4320    0.4430 N   0  0  0  0  0  0  0  0  0  0  0  0
   -1.8450    1.0380    0.6000 C   0  0  0  0  0  0  0  0  0  0  0  0
   -1.8510    2.4590    1.0330 C   0  0  0  0  0  0  0  0  0  0  0  0
   -1.8210    3.2810   -0.1580 N   0  0  0  0  0  0  0  0  0  0  0  0
   -2.9560    0.3210    0.3540 N   0  0  0  0  0  0  0  0  0  0  0  0
  1  2  1  0
  2  3  2  0
  2 17  1  0
  3  4  1  0
  4  5  1  0
  4 13  2  0
  5  6  1  0
  6  7  2  0
  6 12  1  0
  7  8  1  0
  8  9  2  0
  9 10  1  0
  9 11  1  0
 11 12  2  0
 13 14  1  0
 14 15  1  0
 14 17  2  0
 15 16  1  0
M  END
