
     RDKit          3D

 17 18  0  0  0  0  0  0  0  0999 V2000
    2.4410    1.1330   -1.1980 N   0  0  0  0  0  0  0  0  0  0  0  0
    2.2090    0.1770   -0.1880 C   0  0  0  0  0  0  0  0  0  0  0  0
    3.1240   -0.8090    0.0400 C   0  0  0  0  0  0  0  0  0  0  0  0
    4.3650   -1.0150   -0.6510 C   0  0  0  0  0  0  0  0  0  0  0  0
    4.8860   -0.3280   -1.6270 C   0  0  0  0  0  0  0  0  0  0  0  0
    6.4610   -0.8610   -2.2640 Cl  0  0  0  0  0  0  0  0  0  0  0  0
    2.8170   -1.6860    1.0320 N   0  0  0  0  0  0  0  0  0  0  0  0
    1.6890   -1.5840    1.7360 C   0  0  0  0  0  0  0  0  0  0  0  0
    0.8010   -0.5900    1.4820 N   0  0  0  0  0  0  0  0  0  0  0  0
    1.0260    0.3200    0.5190 C   0  0  0  0  0  0  0  0  0  0  0  0
    0.1200    1.3600    0.2750 N   0  0  0  0  0  0  0  0  0  0  0  0
   -1.1230    1.5960    0.9050 C   0  0  0  0  0  0  0  0  0  0  0  0
   -2.2730    0.7410    0.5730 C   0  0  1  0  0  0  0  0  0  0  0  0
   -2.7170    0.7500   -0.8720 C   0  0  0  0  0  0  0  0  0  0  0  0
   -3.8500   -0.2820   -0.8240 C   0  0  0  0  0  0  0  0  0  0  0  0
   -3.5810   -1.1570    0.4060 C   0  0  0  0  0  0  0  0  0  0  0  0
   -2.1590   -0.7210    0.8470 C   0  0  0  0  0  0  0  0  0  0  0  0
  1  2  1  0
  2  3  2  0
  2 10  1  0
  3  4  1  0
  3  7  1  0
  4  5  2  3
  5  6  1  0
  7  8  2  0
  8  9  1  0
  9 10  2  0
 10 11  1  0
 11 12  1  0
 13 12  1  6
 13 14  1  0
 13 17  1  0
 14 15  1  0
 15 16  1  0
 16 17  1  0
M  END
