
     RDKit          3D

 17 18  0  0  0  0  0  0  0  0999 V2000
   -3.8400   -1.1370   -0.6840 C   0  0  0  0  0  0  0  0  0  0  0  0
   -2.4380   -0.7390   -0.5210 C   0  0  0  0  0  0  0  0  0  0  0  0
   -1.9810    0.0670    0.4980 C   0  0  0  0  0  0  0  0  0  0  0  0
   -3.0520    0.4480    1.4800 C   0  0  0  0  0  0  0  0  0  0  0  0
   -3.1150    1.9270    1.4540 N   0  0  0  0  0  0  0  0  0  0  0  0
   -0.6790    0.4070    0.5700 C   0  0  0  0  0  0  0  0  0  0  0  0
    0.2740   -0.0270   -0.3750 C   0  0  0  0  0  0  0  0  0  0  0  0
    1.5850    0.4760   -0.3380 N   0  0  0  0  0  0  0  0  0  0  0  0
    2.8190    0.0890    0.1910 C   0  0  0  0  0  0  0  0  0  0  0  0
    3.6760    1.1510    0.6130 C   0  0  0  0  0  0  0  0  0  0  0  0
    4.9450    0.9700    1.0770 C   0  0  0  0  0  0  0  0  0  0  0  0
    5.4470   -0.2710    1.1580 N   0  0  0  0  0  0  0  0  0  0  0  0
    4.7030   -1.3010    0.7840 C   0  0  0  0  0  0  0  0  0  0  0  0
    3.3910   -1.1350    0.3020 C   0  0  0  0  0  0  0  0  0  0  0  0
   -0.2030   -0.8040   -1.3500 N   0  0  0  0  0  0  0  0  0  0  0  0
   -1.5450   -1.1820   -1.4580 C   0  0  0  0  0  0  0  0  0  0  0  0
   -2.0560   -2.1010   -2.8280 Cl  0  0  0  0  0  0  0  0  0  0  0  0
  1  2  1  0
  2  3  2  0
  2 16  1  0
  3  4  1  0
  3  6  1  0
  4  5  1  0
  6  7  2  0
  7  8  1  0
  7 15  1  0
  8  9  1  0
  9 10  2  0
  9 14  1  0
 10 11  1  0
 11 12  2  0
 12 13  1  0
 13 14  2  0
 15 16  2  0
 16 17  1  0
M  END
