
     RDKit          3D

 17 18  0  0  0  0  0  0  0  0999 V2000
   -5.6180    0.5150    0.4400 C   0  0  0  0  0  0  0  0  0  0  0  0
   -4.4550   -0.3690    0.6130 C   0  0  0  0  0  0  0  0  0  0  0  0
   -3.2310    0.1210    0.5870 C   0  0  0  0  0  0  0  0  0  0  0  0
   -3.0640    1.8670    0.3390 Cl  0  0  0  0  0  0  0  0  0  0  0  0
   -2.0630   -0.7230    0.7550 C   0  0  0  0  0  0  0  0  0  0  0  0
   -0.8330   -0.2560    0.7330 C   0  0  0  0  0  0  0  0  0  0  0  0
    0.3350   -1.1250    0.9040 C   0  0  0  0  0  0  0  0  0  0  0  0
    1.2340   -1.0960   -0.2460 N   0  0  0  0  0  0  0  0  0  0  0  0
    1.1450   -1.9200   -1.3040 C   0  0  0  0  0  0  0  0  0  0  0  0
    2.1720   -1.5600   -2.1500 C   0  0  0  0  0  0  0  0  0  0  0  0
    2.8650   -0.5020   -1.5590 C   0  0  0  0  0  0  0  0  0  0  0  0
    3.9210    0.2180   -1.9320 N   0  0  0  0  0  0  0  0  0  0  0  0
    4.3880    1.1800   -1.1770 N   0  0  0  0  0  0  0  0  0  0  0  0
    3.8570    1.5230    0.0140 C   0  0  0  0  0  0  0  0  0  0  0  0
    4.3990    2.5790    0.8010 N   0  0  0  0  0  0  0  0  0  0  0  0
    2.7600    0.7940    0.4280 C   0  0  0  0  0  0  0  0  0  0  0  0
    2.2410   -0.2390   -0.3580 C   0  0  0  0  0  0  0  0  0  0  0  0
  1  2  1  0
  2  3  2  3
  3  4  1  0
  3  5  1  0
  5  6  2  3
  6  7  1  0
  7  8  1  0
  8  9  1  0
  8 17  1  0
  9 10  2  0
 10 11  1  0
 11 12  2  0
 11 17  1  0
 12 13  1  0
 13 14  2  0
 14 15  1  0
 14 16  1  0
 16 17  2  0
M  END
