
     RDKit          3D

 18 20  0  0  0  0  0  0  0  0999 V2000
    5.1210    1.6520    0.2770 N   0  0  0  0  0  0  0  0  0  0  0  0
    4.3980    0.4840   -0.0890 C   0  0  0  0  0  0  0  0  0  0  0  0
    5.1180   -0.5850   -0.4500 N   0  0  0  0  0  0  0  0  0  0  0  0
    4.5130   -1.7270   -0.8100 C   0  0  0  0  0  0  0  0  0  0  0  0
    3.1210   -1.7640   -0.7980 C   0  0  0  0  0  0  0  0  0  0  0  0
    2.3730   -0.6690   -0.4290 C   0  0  0  0  0  0  0  0  0  0  0  0
    0.9600   -0.7310   -0.4240 N   0  0  0  0  0  0  0  0  0  0  0  0
    0.2220    0.4460   -0.0280 C   0  0  0  0  0  0  0  0  0  0  0  0
   -1.2530    0.2050   -0.0810 C   0  0  0  0  0  0  0  0  0  0  0  0
   -2.1200    1.2030    0.2590 C   0  0  0  0  0  0  0  0  0  0  0  0
   -3.4780    0.9840    0.2110 C   0  0  0  0  0  0  0  0  0  0  0  0
   -4.5020    1.7390    0.4750 O   0  0  0  0  0  0  0  0  0  0  0  0
   -5.6380    1.1200    0.2930 C   0  0  0  0  0  0  0  0  0  0  0  0
   -5.3190   -0.1550   -0.1260 C   0  0  0  0  0  0  0  0  0  0  0  0
   -3.9570   -0.2530   -0.1820 C   0  0  0  0  0  0  0  0  0  0  0  0
   -3.0350   -1.2240   -0.5130 C   0  0  0  0  0  0  0  0  0  0  0  0
   -1.7100   -0.9950   -0.4620 N   0  0  0  0  0  0  0  0  0  0  0  0
    3.0580    0.4280   -0.0840 N   0  0  0  0  0  0  0  0  0  0  0  0
  1  2  1  0
  2  3  2  0
  2 18  1  0
  3  4  1  0
  4  5  2  0
  5  6  1  0
  6  7  1  0
  6 18  2  0
  7  8  1  0
  8  9  1  0
  9 10  2  0
  9 17  1  0
 10 11  1  0
 11 12  1  0
 11 15  2  0
 12 13  1  0
 13 14  2  0
 14 15  1  0
 15 16  1  0
 16 17  2  0
M  END
