
     RDKit          3D

  7  7  0  0  0  0  0  0  0  0999 V2000
    1.8920    0.3270   -0.3720 O   0  0  0  0  0  0  0  0  0  0  0  0
    1.8000   -0.9270    0.0620 O   0  0  0  0  0  0  0  0  0  0  0  0
    0.1360   -1.4760   -0.0620 P   0  0  0  0  0  0  0  0  0  0  0  0
   -0.7750   -0.3330    0.9230 O   0  0  0  0  0  0  0  0  0  0  0  0
   -1.3080    0.4930   -0.0450 C   0  0  0  0  0  0  0  0  0  0  0  0
   -0.5320    0.4360   -1.1770 O   0  0  0  0  0  0  0  0  0  0  0  0
   -0.4380   -0.7880   -1.5820 O   0  0  0  0  0  0  0  0  0  0  0  0
  1  2  1  0
  2  3  1  0
  3  4  1  0
  3  7  1  0
  4  5  1  0
  5  6  1  0
  6  7  1  0
M  END
