
     RDKit          3D

  7  6  0  0  0  0  0  0  0  0999 V2000
   -2.1780   -0.9430   -0.0440 O   0  0  0  0  0  0  0  0  0  0  0  0
   -2.1080    0.3220    0.0480 C   0  0  0  0  0  0  0  0  0  0  0  0
   -0.9290    0.9130   -0.3130 O   0  0  0  0  0  0  0  0  0  0  0  0
    0.1730    0.2950   -0.7600 O   0  0  0  0  0  0  0  0  0  0  0  0
    1.2150   -0.1510    0.0010 C   0  0  0  0  0  0  0  0  0  0  0  0
    1.1580    0.0240    1.2480 O   0  0  0  0  0  0  0  0  0  0  0  0
    2.3460   -0.7890   -0.4840 O   0  0  0  0  0  0  0  0  0  0  0  0
  1  2  2  0
  2  3  1  0
  3  4  1  0
  4  5  1  0
  5  6  2  0
  5  7  1  0
M  END
