
     RDKit          3D

 28 31  0  0  0  0  0  0  0  0999 V2000
   -5.0770   -0.0570   -1.8650 C   0  0  0  0  0  0  0  0  0  0  0  0
   -3.6890   -0.5050   -1.6180 C   0  0  0  0  0  0  0  0  0  0  0  0
   -2.9850   -1.0500   -2.7220 C   0  0  0  0  0  0  0  0  0  0  0  0
   -1.7120   -1.4810   -2.4880 C   0  0  0  0  0  0  0  0  0  0  0  0
   -1.0470   -1.9760   -3.4510 O   0  0  0  0  0  0  0  0  0  0  0  0
   -1.1120   -1.4180   -1.3050 N   0  0  0  0  0  0  0  0  0  0  0  0
    0.2350   -1.9000   -1.1580 C   0  0  0  0  0  0  0  0  0  0  0  0
    0.4710   -3.2270   -1.4510 C   0  0  0  0  0  0  0  0  0  0  0  0
    1.7690   -3.6740   -1.3040 C   0  0  0  0  0  0  0  0  0  0  0  0
    2.7660   -2.7930   -0.8780 C   0  0  0  0  0  0  0  0  0  0  0  0
    2.4870   -1.4730   -0.5960 C   0  0  0  0  0  0  0  0  0  0  0  0
    3.5640   -0.5970   -0.1550 C   0  0  0  0  0  0  0  0  0  0  0  0
    4.7280   -1.0550   -0.0380 O   0  0  0  0  0  0  0  0  0  0  0  0
    3.3750    0.7700    0.1580 N   0  0  0  0  0  0  0  0  0  0  0  0
    4.4430    1.6200    0.5900 C   0  0  0  0  0  0  0  0  0  0  0  0
    4.8420    2.7180   -0.0390 C   0  0  0  0  0  0  0  0  0  0  0  0
    5.9670    3.3460    0.6900 C   0  0  0  0  0  0  0  0  0  0  0  0
    6.1730    2.4580    1.8400 C   0  0  0  0  0  0  0  0  0  0  0  0
    5.2840    1.4850    1.7480 C   0  0  0  0  0  0  0  0  0  0  0  0
    1.2210   -1.0590   -0.7440 N   0  0  0  0  0  0  0  0  0  0  0  0
   -1.7750   -0.9140   -0.3040 N   0  0  0  0  0  0  0  0  0  0  0  0
   -3.0600   -0.4490   -0.4230 C   0  0  0  0  0  0  0  0  0  0  0  0
   -3.7050    0.1260    0.7770 C   0  0  0  0  0  0  0  0  0  0  0  0
   -3.1230    0.1570    1.9450 N   0  0  0  0  0  0  0  0  0  0  0  0
   -1.8540   -0.3390    2.1830 O   0  0  0  0  0  0  0  0  0  0  0  0
   -3.9250    0.7350    2.8910 O   0  0  0  0  0  0  0  0  0  0  0  0
   -4.8860    1.5240    2.2640 C   0  0  0  0  0  0  0  0  0  0  0  0
   -5.0170    0.7560    0.9270 C   0  0  0  0  0  0  0  0  0  0  0  0
  1  2  1  0
  2  3  2  0
  2 22  1  0
  3  4  1  0
  4  5  2  0
  4  6  1  0
  6  7  1  0
  6 21  1  0
  7  8  2  0
  7 20  1  0
  8  9  1  0
  9 10  2  0
 10 11  1  0
 11 12  1  0
 11 20  2  0
 12 13  2  0
 12 14  1  0
 14 15  1  0
 15 16  2  0
 15 19  1  0
 16 17  1  0
 17 18  1  0
 18 19  2  0
 21 22  2  0
 22 23  1  0
 23 24  2  0
 23 28  1  0
 24 25  1  0
 24 26  1  0
 26 27  1  0
 27 28  1  0
M  CHG  2  24   1  25  -1
M  END
