
     RDKit          3D

 28 31  0  0  0  0  0  0  0  0999 V2000
   -7.5160    3.0120   -0.6640 O   0  0  0  0  0  0  0  0  0  0  0  0
   -6.4630    2.5210   -0.1880 C   0  0  0  0  0  0  0  0  0  0  0  0
   -6.1320    1.1320   -0.3830 C   0  0  0  0  0  0  0  0  0  0  0  0
   -6.9840    0.3200   -1.1050 C   0  0  0  0  0  0  0  0  0  0  0  0
   -6.6990   -1.0130   -1.3110 C   0  0  0  0  0  0  0  0  0  0  0  0
   -5.5160   -1.5280   -0.7660 C   0  0  0  0  0  0  0  0  0  0  0  0
   -4.6840   -0.6950   -0.0500 C   0  0  0  0  0  0  0  0  0  0  0  0
   -3.4980   -1.2330    0.4900 N   0  0  0  0  0  0  0  0  0  0  0  0
   -2.2410   -0.7430    0.2570 C   0  0  0  0  0  0  0  0  0  0  0  0
   -1.3470   -1.5240    0.9490 C   0  0  0  0  0  0  0  0  0  0  0  0
    0.0630   -1.4570    1.0540 N   0  0  0  0  0  0  0  0  0  0  0  0
    0.8790   -0.4890    0.4090 C   0  0  0  0  0  0  0  0  0  0  0  0
    0.3190    0.3730   -0.3070 O   0  0  0  0  0  0  0  0  0  0  0  0
    2.3260   -0.4600    0.5480 C   0  0  0  0  0  0  0  0  0  0  0  0
    3.1250   -1.3310    1.2970 C   0  0  0  0  0  0  0  0  0  0  0  0
    4.4250   -0.9340    1.1400 C   0  0  0  0  0  0  0  0  0  0  0  0
    4.3900    0.1550    0.3090 C   0  0  0  0  0  0  0  0  0  0  0  0
    5.5710    0.9120   -0.1360 C   0  0  0  0  0  0  0  0  0  0  0  0
    6.8260    0.5610    0.2700 C   0  0  0  0  0  0  0  0  0  0  0  0
    7.9520    1.2660   -0.1410 C   0  0  0  0  0  0  0  0  0  0  0  0
    7.7490    2.3410   -0.9800 C   0  0  0  0  0  0  0  0  0  0  0  0
    6.4990    2.6580   -1.3590 N   0  0  0  0  0  0  0  0  0  0  0  0
    5.4400    1.9710   -0.9540 N   0  0  0  0  0  0  0  0  0  0  0  0
    4.1610    2.3130   -1.3550 O   0  0  0  0  0  0  0  0  0  0  0  0
    3.1500    0.3730    0.0060 O   0  0  0  0  0  0  0  0  0  0  0  0
   -2.1250   -2.4700    1.5820 C   0  0  0  0  0  0  0  0  0  0  0  0
   -3.4180   -2.2770    1.2920 N   0  0  0  0  0  0  0  0  0  0  0  0
   -4.9520    0.6390    0.1670 C   0  0  0  0  0  0  0  0  0  0  0  0
  1  2  2  0
  2  3  1  0
  3  4  2  0
  3 28  1  0
  4  5  1  0
  5  6  2  0
  6  7  1  0
  7  8  1  0
  7 28  2  0
  8  9  1  0
  8 27  1  0
  9 10  2  0
 10 11  1  0
 10 26  1  0
 11 12  1  0
 12 13  2  0
 12 14  1  0
 14 15  2  0
 14 25  1  0
 15 16  1  0
 16 17  2  0
 17 18  1  0
 17 25  1  0
 18 19  2  0
 18 23  1  0
 19 20  1  0
 20 21  2  0
 21 22  1  0
 22 23  2  0
 23 24  1  0
 26 27  2  0
M  CHG  2  23   1  24  -1
M  END
