
     RDKit          3D

 32 36  0  0  0  0  0  0  0  0999 V2000
    8.1750    1.8310    0.0550 C   0  0  0  0  0  0  0  0  0  0  0  0
    7.0950    2.8860   -0.0500 C   0  0  0  0  0  0  0  0  0  0  0  0
    6.4130    2.8630   -1.3910 C   0  0  0  0  0  0  0  0  0  0  0  0
    5.7490    1.5570   -1.6970 C   0  0  0  0  0  0  0  0  0  0  0  0
    4.7040    1.1920   -0.7260 C   0  0  0  0  0  0  0  0  0  0  0  0
    4.2400    1.8080    0.3640 N   0  0  0  0  0  0  0  0  0  0  0  0
    3.3050    1.0740    0.8840 O   0  0  0  0  0  0  0  0  0  0  0  0
    3.1220   -0.0100    0.1870 C   0  0  0  0  0  0  0  0  0  0  0  0
    2.1940   -1.0700    0.4230 N   0  0  0  0  0  0  0  0  0  0  0  0
    2.1320   -2.2050   -0.4660 C   0  0  0  0  0  0  0  0  0  0  0  0
    0.7560   -2.3260   -1.0360 C   0  0  0  0  0  0  0  0  0  0  0  0
   -0.1440   -1.2950   -0.4060 C   0  0  0  0  0  0  0  0  0  0  0  0
   -0.1060   -1.4510    1.0830 C   0  0  2  0  0  0  0  0  0  0  0  0
   -0.4900   -2.8210    1.5440 C   0  0  0  0  0  0  0  0  0  0  0  0
   -1.8960   -3.1640    1.2240 C   0  0  0  0  0  0  0  0  0  0  0  0
   -2.7820   -2.0050    1.0740 N   0  0  0  0  0  0  0  0  0  0  0  0
   -3.9180   -2.0370    0.2630 C   0  0  0  0  0  0  0  0  0  0  0  0
   -4.1390   -3.2000   -0.2740 O   0  0  0  0  0  0  0  0  0  0  0  0
   -4.8560   -0.9900   -0.0550 C   0  0  0  0  0  0  0  0  0  0  0  0
   -6.0370   -1.2950   -0.7550 C   0  0  0  0  0  0  0  0  0  0  0  0
   -6.9300   -0.3140   -1.1100 C   0  0  0  0  0  0  0  0  0  0  0  0
   -6.7240    1.0140   -0.8040 C   0  0  0  0  0  0  0  0  0  0  0  0
   -5.5800    1.3400   -0.1210 C   0  0  0  0  0  0  0  0  0  0  0  0
   -4.6720    0.3340    0.2370 C   0  0  0  0  0  0  0  0  0  0  0  0
   -5.5930    2.7830    0.0800 C   0  0  0  0  0  0  0  0  0  0  0  0
   -6.6830    3.3140   -0.4480 C   0  0  0  0  0  0  0  0  0  0  0  0
   -7.5200    2.2600   -1.0660 C   0  0  0  0  0  0  0  0  0  0  0  0
   -2.4320   -0.8990    1.8620 N   0  0  0  0  0  0  0  0  0  0  0  0
   -1.0600   -0.4940    1.7510 C   0  0  0  0  0  0  0  0  0  0  0  0
   -0.6710    0.6000    2.1870 O   0  0  0  0  0  0  0  0  0  0  0  0
    1.2810   -1.0590    1.5490 C   0  0  0  0  0  0  0  0  0  0  0  0
    3.9890    0.0510   -0.8210 N   0  0  0  0  0  0  0  0  0  0  0  0
  1  2  1  0
  2  3  1  0
  3  4  1  0
  4  5  1  0
  5  6  2  0
  5 32  1  0
  6  7  1  0
  7  8  1  0
  8  9  1  0
  8 32  2  0
  9 10  1  0
  9 31  1  0
 10 11  1  0
 11 12  1  0
 13 12  1  6
 13 14  1  0
 13 29  1  0
 13 31  1  0
 14 15  1  0
 15 16  1  0
 16 17  1  0
 16 28  1  0
 17 18  2  0
 17 19  1  0
 19 20  2  0
 19 24  1  0
 20 21  1  0
 21 22  2  0
 22 23  1  0
 22 27  1  0
 23 24  2  0
 23 25  1  0
 25 26  2  0
 26 27  1  0
 28 29  1  0
 29 30  2  0
M  END
