
     RDKit          3D

 32 33  0  0  0  0  0  0  0  0999 V2000
    7.7070   -1.4800    2.0170 C   0  0  0  0  0  0  0  0  0  0  0  0
    6.3060   -1.7990    2.0680 O   0  0  0  0  0  0  0  0  0  0  0  0
    5.4060   -1.1000    1.2540 C   0  0  0  0  0  0  0  0  0  0  0  0
    5.8910   -0.2120    0.5100 O   0  0  0  0  0  0  0  0  0  0  0  0
    3.9310   -1.4200    1.2900 C   0  0  0  0  0  0  0  0  0  0  0  0
    3.3240   -0.5770    0.3240 O   0  0  0  0  0  0  0  0  0  0  0  0
    1.9270   -0.6420    0.0950 C   0  0  0  0  0  0  0  0  0  0  0  0
    1.3360   -1.4640    0.7870 O   0  0  0  0  0  0  0  0  0  0  0  0
    1.4230    0.2720   -0.9240 C   0  0  1  0  0  0  0  0  0  0  0  0
    1.8980    1.6760   -0.6510 C   0  0  0  0  0  0  0  0  0  0  0  0
    3.3720    1.8040   -0.6540 C   0  0  0  0  0  0  0  0  0  0  0  0
    4.1020    1.4030   -1.6000 O   0  0  0  0  0  0  0  0  0  0  0  0
    4.0340    2.3920    0.4240 O   0  0  0  0  0  0  0  0  0  0  0  0
    1.9800   -0.2400   -2.2530 C   0  0  0  0  0  0  0  0  0  0  0  0
    1.0200   -1.0730   -2.8150 O   0  0  0  0  0  0  0  0  0  0  0  0
   -0.0240   -1.2130   -1.8920 C   0  0  0  0  0  0  0  0  0  0  0  0
   -0.0610    0.1860   -1.2310 C   0  0  2  0  0  0  0  0  0  0  0  0
   -0.2910    1.1190   -2.3950 C   0  0  0  0  0  0  0  0  0  0  0  0
   -0.9180    0.3150   -0.0770 C   0  0  1  0  0  0  0  0  0  0  0  0
   -0.6860    1.6040    0.4700 O   0  0  0  0  0  0  0  0  0  0  0  0
   -2.3230   -0.0880   -0.0230 C   0  0  2  0  0  0  0  0  0  0  0  0
   -3.3790    0.4960   -0.8490 C   0  0  1  0  0  0  0  0  0  0  0  0
   -3.0950    1.0490   -2.0560 O   0  0  0  0  0  0  0  0  0  0  0  0
   -4.5080   -0.5610   -0.9940 C   0  0  0  0  0  0  0  0  0  0  0  0
   -4.9980   -0.8320    0.4030 C   0  0  1  0  0  0  0  0  0  0  0  0
   -4.9640   -2.1930    0.6920 O   0  0  0  0  0  0  0  0  0  0  0  0
   -4.3370   -0.0210    1.4720 C   0  0  1  0  0  0  0  0  0  0  0  0
   -4.7530   -0.6670    2.7820 C   0  0  0  0  0  0  0  0  0  0  0  0
   -4.5920   -0.0340    3.8630 O   0  0  0  0  0  0  0  0  0  0  0  0
   -5.2980   -1.9240    2.8410 O   0  0  0  0  0  0  0  0  0  0  0  0
   -2.8400   -0.0410    1.4500 C   0  0  2  0  0  0  0  0  0  0  0  0
   -2.3470    1.0830    2.0950 O   0  0  0  0  0  0  0  0  0  0  0  0
  1  2  1  0
  2  3  1  0
  3  4  2  0
  3  5  1  0
  5  6  1  0
  6  7  1  0
  7  8  2  0
  7  9  1  0
  9 10  1  1
  9 14  1  0
  9 17  1  0
 10 11  1  0
 11 12  2  0
 11 13  1  0
 14 15  1  0
 15 16  1  0
 16 17  1  0
 17 18  1  6
 17 19  1  0
 19 20  1  6
 19 21  1  0
 21 22  1  6
 21 31  1  0
 22 23  1  6
 22 24  1  0
 24 25  1  0
 25 26  1  1
 25 27  1  0
 27 28  1  1
 27 31  1  0
 28 29  2  0
 28 30  1  0
 31 32  1  6
M  CHG  2  13  -1  30  -1
M  END
