
     RDKit          3D

 33 33  0  0  0  0  0  0  0  0999 V2000
   -4.8750    2.0480    1.9240 C   0  0  0  0  0  0  0  0  0  0  0  0
   -5.7740    1.9430    0.7150 C   0  0  0  0  0  0  0  0  0  0  0  0
   -5.7240    0.6170    0.2240 O   0  0  0  0  0  0  0  0  0  0  0  0
   -4.4880    0.1270   -0.1850 C   0  0  0  0  0  0  0  0  0  0  0  0
   -3.4840    0.8600   -0.1080 O   0  0  0  0  0  0  0  0  0  0  0  0
   -4.3660   -1.2450   -0.7050 C   0  0  0  0  0  0  0  0  0  0  0  0
   -3.0680   -1.5320   -1.1010 O   0  0  0  0  0  0  0  0  0  0  0  0
   -1.9470   -1.4700   -0.3260 C   0  0  0  0  0  0  0  0  0  0  0  0
   -2.0470   -1.1100    0.8650 O   0  0  0  0  0  0  0  0  0  0  0  0
   -0.5470   -1.8350   -0.8660 C   0  0  1  0  0  0  0  0  0  0  0  0
   -0.6810   -3.3380   -1.0310 C   0  0  0  0  0  0  0  0  0  0  0  0
   -0.6380   -1.2140   -2.2300 C   0  0  1  0  0  0  0  0  0  0  0  0
    0.5380   -1.3780   -3.1340 C   0  0  0  0  0  0  0  0  0  0  0  0
   -1.7200   -1.8750   -2.8740 O   0  0  0  0  0  0  0  0  0  0  0  0
   -0.9750    0.2290   -2.2370 C   0  0  0  0  0  0  0  0  0  0  0  0
   -2.0610    0.5840   -2.7760 O   0  0  0  0  0  0  0  0  0  0  0  0
   -0.1770    1.2270   -1.6920 O   0  0  0  0  0  0  0  0  0  0  0  0
    0.3800   -1.3580    0.1240 C   0  0  2  0  0  0  0  0  0  0  0  0
   -0.0010   -2.0650    1.3700 O   0  0  0  0  0  0  0  0  0  0  0  0
   -0.0990   -0.0680    0.5230 O   0  0  0  0  0  0  0  0  0  0  0  0
    0.7330    0.3180    1.5570 C   0  0  2  0  0  0  0  0  0  0  0  0
    0.9090    1.8000    1.4600 C   0  0  0  0  0  0  0  0  0  0  0  0
    2.0060   -0.4610    1.4610 C   0  0  2  0  0  0  0  0  0  0  0  0
    2.1110   -1.2380    2.6090 O   0  0  0  0  0  0  0  0  0  0  0  0
    3.2100    0.3870    1.3690 C   0  0  0  0  0  0  0  0  0  0  0  0
    4.1110    0.2950    2.2440 O   0  0  0  0  0  0  0  0  0  0  0  0
    3.4350    1.3000    0.3700 O   0  0  0  0  0  0  0  0  0  0  0  0
    4.4720    2.1610    0.1360 C   0  0  0  0  0  0  0  0  0  0  0  0
    4.6100    3.1910    1.2140 C   0  0  0  0  0  0  0  0  0  0  0  0
    4.8490    2.6930    2.4720 O   0  0  0  0  0  0  0  0  0  0  0  0
    1.8020   -1.3500    0.2040 C   0  0  2  0  0  0  0  0  0  0  0  0
    2.7700   -1.0650   -0.8420 C   0  0  0  0  0  0  0  0  0  0  0  0
    4.0770   -1.1650   -0.2560 O   0  0  0  0  0  0  0  0  0  0  0  0
  1  2  1  0
  2  3  1  0
  3  4  1  0
  4  5  2  0
  4  6  1  0
  6  7  1  0
  7  8  1  0
  8  9  2  0
  8 10  1  0
 10 11  1  6
 10 12  1  0
 10 18  1  0
 12 13  1  6
 12 14  1  0
 12 15  1  0
 15 16  2  0
 15 17  1  0
 18 19  1  1
 18 20  1  0
 18 31  1  0
 20 21  1  0
 21 22  1  6
 21 23  1  0
 23 24  1  1
 23 25  1  0
 23 31  1  0
 25 26  2  0
 25 27  1  0
 27 28  1  0
 28 29  1  0
 29 30  1  0
 31 32  1  6
 32 33  1  0
M  CHG  2  17  -1  24  -1
M  END
