
     RDKit          3D

 33 36  0  0  0  0  0  0  0  0999 V2000
   -0.1970   -2.8230   -1.2370 C   0  0  0  0  0  0  0  0  0  0  0  0
   -0.9330   -1.5690   -0.9390 C   0  0  0  0  0  0  0  0  0  0  0  0
   -0.1860   -0.4650   -0.6780 N   0  0  0  0  0  0  0  0  0  0  0  0
   -0.7880    0.7050   -0.3990 C   0  0  0  0  0  0  0  0  0  0  0  0
   -0.0540    1.8880   -0.1190 N   0  0  0  0  0  0  0  0  0  0  0  0
    1.3890    1.9060   -0.1220 C   0  0  0  0  0  0  0  0  0  0  0  0
    2.3300    2.5970    0.0410 N   0  0  0  0  0  0  0  0  0  0  0  0
    3.5840    2.3290   -0.0340 C   0  0  0  0  0  0  0  0  0  0  0  0
    3.8670    0.9530   -0.3750 C   0  0  0  0  0  0  0  0  0  0  0  0
    5.1780    0.3850   -0.5260 C   0  0  0  0  0  0  0  0  0  0  0  0
    5.2650   -0.8330   -0.8300 O   0  0  0  0  0  0  0  0  0  0  0  0
    6.3880    1.1020   -0.3580 N   0  0  0  0  0  0  0  0  0  0  0  0
    7.6760    0.5310   -0.5120 C   0  0  0  0  0  0  0  0  0  0  0  0
    8.2810   -0.0340    0.5870 C   0  0  0  0  0  0  0  0  0  0  0  0
    7.5650   -0.0220    1.8750 C   0  0  0  0  0  0  0  0  0  0  0  0
    9.5390   -0.5950    0.4580 C   0  0  0  0  0  0  0  0  0  0  0  0
   10.2270   -0.6130   -0.7540 C   0  0  0  0  0  0  0  0  0  0  0  0
    9.6080   -0.0420   -1.8560 C   0  0  0  0  0  0  0  0  0  0  0  0
    8.3560    0.5130   -1.7110 C   0  0  0  0  0  0  0  0  0  0  0  0
    7.5830    1.2310   -3.1040 Cl  0  0  0  0  0  0  0  0  0  0  0  0
    2.2920    0.2950   -0.5250 S   0  0  0  0  0  0  0  0  0  0  0  0
   -2.1610    0.7450   -0.3870 C   0  0  0  0  0  0  0  0  0  0  0  0
   -2.9500   -0.3530   -0.6460 C   0  0  0  0  0  0  0  0  0  0  0  0
   -4.3600   -0.3120   -0.6360 N   0  0  0  0  0  0  0  0  0  0  0  0
   -5.1670    0.8420   -0.3940 C   0  0  0  0  0  0  0  0  0  0  0  0
   -6.0750    0.5120    0.7920 C   0  0  0  0  0  0  0  0  0  0  0  0
   -6.9180   -0.5630    0.4420 N   0  0  0  0  0  0  0  0  0  0  0  0
   -8.3190   -0.3090    0.5060 C   0  0  0  0  0  0  0  0  0  0  0  0
   -8.8730   -0.1130    1.8860 C   0  0  0  0  0  0  0  0  0  0  0  0
   -8.2970    0.9590    2.5540 O   0  0  0  0  0  0  0  0  0  0  0  0
   -6.5870   -1.3130   -0.7140 C   0  0  0  0  0  0  0  0  0  0  0  0
   -5.0990   -1.5420   -0.8930 C   0  0  0  0  0  0  0  0  0  0  0  0
   -2.2740   -1.5060   -0.9210 N   0  0  0  0  0  0  0  0  0  0  0  0
  1  2  1  0
  2  3  2  0
  2 33  1  0
  3  4  1  0
  4  5  1  0
  4 22  2  0
  5  6  1  0
  6  7  2  0
  6 21  1  0
  7  8  1  0
  8  9  2  0
  9 10  1  0
  9 21  1  0
 10 11  2  0
 10 12  1  0
 12 13  1  0
 13 14  2  0
 13 19  1  0
 14 15  1  0
 14 16  1  0
 16 17  2  0
 17 18  1  0
 18 19  2  0
 19 20  1  0
 22 23  1  0
 23 24  1  0
 23 33  2  0
 24 25  1  0
 24 32  1  0
 25 26  1  0
 26 27  1  0
 27 28  1  0
 27 31  1  0
 28 29  1  0
 29 30  1  0
 31 32  1  0
M  END
