
     RDKit          3D

 24 26  0  0  0  0  0  0  0  0999 V2000
    6.0980   -0.8700    0.5400 C   0  0  0  0  0  0  0  0  0  0  0  0
    5.0600    0.2440    0.2970 C   0  0  1  0  0  0  0  0  0  0  0  0
    5.4460    1.3720    1.2100 C   0  0  0  0  0  0  0  0  0  0  0  0
    5.2360    0.6040   -1.1780 C   0  0  0  0  0  0  0  0  0  0  0  0
    4.3920   -0.3510   -1.9550 C   0  0  0  0  0  0  0  0  0  0  0  0
    2.9350   -0.0140   -1.7270 C   0  0  0  0  0  0  0  0  0  0  0  0
    2.5830    0.1430   -0.2590 C   0  0  1  0  0  0  0  0  0  0  0  0
    2.4270    1.5960    0.0240 C   0  0  0  0  0  0  0  0  0  0  0  0
    1.5040    1.7470    1.2160 C   0  0  0  0  0  0  0  0  0  0  0  0
    0.1420    1.3380    0.6760 C   0  0  0  0  0  0  0  0  0  0  0  0
    0.1250    0.0020    0.1870 N   0  0  1  0  0  0  0  0  0  0  0  0
   -0.6990   -0.0430   -1.0220 C   0  0  0  0  0  0  0  0  0  0  0  0
   -1.6680   -1.1540   -1.0260 C   0  0  0  0  0  0  0  0  0  0  0  0
   -2.6820   -1.3220    0.0180 C   0  0  2  0  0  0  0  0  0  0  0  0
   -3.4260   -2.6370   -0.3730 C   0  0  0  0  0  0  0  0  0  0  0  0
   -4.0470   -2.5520   -1.6480 N   0  0  0  0  0  0  0  0  0  0  0  0
   -3.7360   -0.3090    0.1820 C   0  0  1  0  0  0  0  0  0  0  0  0
   -4.6910   -0.6910    1.3220 C   0  0  0  0  0  0  0  0  0  0  0  0
   -5.9850    0.0520    1.0690 C   0  0  0  0  0  0  0  0  0  0  0  0
   -5.7230    1.5380    1.2060 C   0  0  0  0  0  0  0  0  0  0  0  0
   -4.5750    1.9900    0.3710 C   0  0  0  0  0  0  0  0  0  0  0  0
   -3.3230    1.0970    0.5300 C   0  0  0  0  0  0  0  0  0  0  0  0
    1.3670   -0.6500    0.0760 C   0  0  0  0  0  0  0  0  0  0  0  0
    3.7310   -0.3680    0.5840 C   0  0  0  0  0  0  0  0  0  0  0  0
  2  1  1  1
  2  3  1  0
  2  4  1  0
  2 24  1  0
  4  5  1  0
  5  6  1  0
  7  6  1  6
  7  8  1  0
  7 23  1  0
  7 24  1  0
  8  9  1  0
  9 10  1  0
 10 11  1  0
 11 12  1  6
 11 23  1  0
 12 13  1  0
 14 13  1  6
 14 15  1  0
 14 17  1  0
 15 16  1  0
 17 18  1  1
 17 22  1  0
 18 19  1  0
 19 20  1  0
 20 21  1  0
 21 22  1  0
M  CHG  2  11   1  16   1
M  END
