
     RDKit          3D

 24 26  0  0  0  0  0  0  0  0999 V2000
    3.4320    3.1420   -0.9140 C   0  0  0  0  0  0  0  0  0  0  0  0
    2.3670    2.2440   -0.3180 C   0  0  0  0  0  0  0  0  0  0  0  0
    2.1630    1.0000   -1.1310 C   0  0  2  0  0  0  0  0  0  0  0  0
    1.7300    1.2920   -2.5430 C   0  0  0  0  0  0  0  0  0  0  0  0
    1.3280   -0.0640   -0.4640 C   0  0  2  0  0  0  0  0  0  0  0  0
    1.2500   -1.1540   -1.4150 N   0  0  0  0  0  0  0  0  0  0  0  0
   -0.0500    0.4630   -0.1900 C   0  0  0  0  0  0  0  0  0  0  0  0
   -0.9710   -0.4960    0.4670 C   0  0  0  0  0  0  0  0  0  0  0  0
   -2.3460    0.0660    0.7130 C   0  0  2  0  0  0  0  0  0  0  0  0
   -3.1250   -1.0550    1.4150 C   0  0  0  0  0  0  0  0  0  0  0  0
   -4.4930   -0.6200    1.8380 C   0  0  2  0  0  0  0  0  0  0  0  0
   -5.4660   -1.4630    0.9820 C   0  0  0  0  0  0  0  0  0  0  0  0
   -5.1230   -0.9620   -0.4160 C   0  0  0  0  0  0  0  0  0  0  0  0
   -4.5930    0.4090   -0.2580 C   0  0  1  0  0  0  0  0  0  0  0  0
   -4.7820    0.7440    1.2200 C   0  0  0  0  0  0  0  0  0  0  0  0
   -3.0800    0.5460   -0.4990 C   0  0  2  0  0  0  0  0  0  0  0  0
   -2.6680   -0.1220   -1.7630 C   0  0  0  0  0  0  0  0  0  0  0  0
   -2.8840    2.0610   -0.6920 C   0  0  0  0  0  0  0  0  0  0  0  0
    2.0240   -0.4730    0.8030 C   0  0  0  0  0  0  0  0  0  0  0  0
    3.3300   -1.0050    0.6290 N   0  0  1  0  0  0  0  0  0  0  0  0
    4.4030   -0.2330    1.2090 C   0  0  0  0  0  0  0  0  0  0  0  0
    5.5900   -1.1840    1.0040 C   0  0  0  0  0  0  0  0  0  0  0  0
    4.9590   -2.5210    1.2570 C   0  0  0  0  0  0  0  0  0  0  0  0
    3.4720   -2.2700    1.3740 C   0  0  0  0  0  0  0  0  0  0  0  0
  1  2  1  0
  2  3  1  0
  3  4  1  6
  3  5  1  0
  5  6  1  6
  5  7  1  0
  5 19  1  0
  7  8  1  0
  9  8  1  6
  9 10  1  0
  9 16  1  0
 11 10  1  6
 11 12  1  0
 11 15  1  0
 12 13  1  0
 14 13  1  1
 14 15  1  0
 14 16  1  0
 16 17  1  6
 16 18  1  0
 20 19  1  1
 20 21  1  0
 20 24  1  0
 21 22  1  0
 22 23  1  0
 23 24  1  0
M  CHG  2   6   1  20   1
M  END
