
     RDKit          3D

 27 27  0  0  0  0  0  0  0  0999 V2000
    5.4520    2.8220    0.9680 C   0  0  0  0  0  0  0  0  0  0  0  0
    5.7740    1.4180    0.5560 C   0  0  0  0  0  0  0  0  0  0  0  0
    4.5640    0.7710   -0.1430 C   0  0  0  0  0  0  0  0  0  0  0  0
    3.3890    0.7280    0.7560 C   0  0  0  0  0  0  0  0  0  0  0  0
    2.1800    0.1150    0.2380 C   0  0  0  0  0  0  0  0  0  0  0  0
    1.8990   -1.2920    0.0290 C   0  0  2  0  0  0  0  0  0  0  0  0
    2.6890   -2.2130   -0.7790 C   0  0  0  0  0  0  0  0  0  0  0  0
    4.0460   -2.5560   -0.3340 C   0  0  0  0  0  0  0  0  0  0  0  0
    4.5220   -2.2930    0.7980 O   0  0  0  0  0  0  0  0  0  0  0  0
    4.9320   -3.2450   -1.2330 N   0  0  0  0  0  0  0  0  0  0  0  0
    6.1870   -3.5750   -0.8570 O   0  0  0  0  0  0  0  0  0  0  0  0
    0.4750   -1.3510   -0.5370 C   0  0  0  0  0  0  0  0  0  0  0  0
    0.3240   -1.8060   -1.6670 O   0  0  0  0  0  0  0  0  0  0  0  0
   -0.6010   -0.8960    0.2260 N   0  0  0  0  0  0  0  0  0  0  0  0
   -1.9720   -0.9570   -0.3340 C   0  0  2  0  0  0  0  0  0  0  0  0
   -2.4400    0.4100   -0.4930 C   0  0  0  0  0  0  0  0  0  0  0  0
   -1.5230    1.1880   -1.0210 O   0  0  0  0  0  0  0  0  0  0  0  0
   -3.6360    1.0290   -0.1970 N   0  0  0  0  0  0  0  0  0  0  0  0
   -4.8300    0.5310    0.4440 C   0  0  0  0  0  0  0  0  0  0  0  0
   -5.5250    1.7380    1.0920 C   0  0  0  0  0  0  0  0  0  0  0  0
   -4.5010    2.8550    0.8590 C   0  0  0  0  0  0  0  0  0  0  0  0
   -3.9970    2.4270   -0.5060 C   0  0  1  0  0  0  0  0  0  0  0  0
   -2.8810    3.2610   -1.0040 C   0  0  0  0  0  0  0  0  0  0  0  0
   -3.4110    4.5540   -1.2310 O   0  0  0  0  0  0  0  0  0  0  0  0
   -2.7270   -1.9380    0.4570 C   0  0  2  0  0  0  0  0  0  0  0  0
   -1.8900   -3.2620    0.3540 C   0  0  0  0  0  0  0  0  0  0  0  0
   -4.0170   -2.3210   -0.2980 C   0  0  0  0  0  0  0  0  0  0  0  0
  1  2  1  0
  2  3  1  0
  3  4  1  0
  4  5  1  0
  6  5  1  6
  6  7  1  0
  6 12  1  0
  7  8  1  0
  8  9  2  0
  8 10  1  0
 10 11  1  0
 12 13  2  0
 12 14  1  0
 15 14  1  1
 15 16  1  0
 15 25  1  0
 16 17  2  0
 16 18  1  0
 18 19  1  0
 18 22  1  0
 19 20  1  0
 20 21  1  0
 21 22  1  0
 22 23  1  1
 23 24  1  0
 25 26  1  6
 25 27  1  0
M  END
