
     RDKit          3D

 24 26  0  0  0  0  0  0  0  0999 V2000
    3.5470    1.5420    2.1150 C   0  0  0  0  0  0  0  0  0  0  0  0
    3.1410    1.8520    0.6970 C   0  0  0  0  0  0  0  0  0  0  0  0
    3.2470    0.6460   -0.2070 C   0  0  1  0  0  0  0  0  0  0  0  0
    4.7710    0.2960   -0.1060 C   0  0  2  0  0  0  0  0  0  0  0  0
    5.7420    1.3330   -0.5370 C   0  0  0  0  0  0  0  0  0  0  0  0
    5.5440    0.0330   -1.3130 C   0  0  0  0  0  0  0  0  0  0  0  0
    2.5510   -0.5660    0.2160 C   0  0  2  0  0  0  0  0  0  0  0  0
    2.8750   -1.6230   -0.8990 C   0  0  0  0  0  0  0  0  0  0  0  0
    1.1560   -0.6410    0.5960 C   0  0  0  0  0  0  0  0  0  0  0  0
    0.0290   -0.3330   -0.2830 C   0  0  2  0  0  0  0  0  0  0  0  0
    0.0310    1.0840   -0.7630 C   0  0  0  0  0  0  0  0  0  0  0  0
   -1.1330    1.3720   -1.7000 C   0  0  0  0  0  0  0  0  0  0  0  0
   -2.4040    1.0420   -0.9980 C   0  0  2  0  0  0  0  0  0  0  0  0
   -3.3740    2.1740   -1.0290 C   0  0  0  0  0  0  0  0  0  0  0  0
   -2.9010    3.4320   -0.3870 C   0  0  0  0  0  0  0  0  0  0  0  0
   -3.9450    4.4420   -0.4940 N   0  0  0  0  0  0  0  0  0  0  0  0
   -2.0950    0.6270    0.4070 C   0  0  0  0  0  0  0  0  0  0  0  0
   -1.2100   -0.4910    0.4990 N   0  0  1  0  0  0  0  0  0  0  0  0
   -1.9410   -1.6800    0.1810 C   0  0  1  0  0  0  0  0  0  0  0  0
   -1.1530   -2.9430    0.1200 C   0  0  0  0  0  0  0  0  0  0  0  0
   -2.0900   -4.0340   -0.3790 C   0  0  0  0  0  0  0  0  0  0  0  0
   -3.2950   -4.1910    0.4920 C   0  0  0  0  0  0  0  0  0  0  0  0
   -3.1280   -3.2970    1.7030 C   0  0  0  0  0  0  0  0  0  0  0  0
   -2.9850   -1.8490    1.2830 C   0  0  0  0  0  0  0  0  0  0  0  0
  1  2  1  0
  3  2  1  1
  3  4  1  0
  3  7  1  0
  4  5  1  6
  4  6  1  0
  5  6  1  0
  7  8  1  6
  7  9  1  0
 10  9  1  1
 10 11  1  0
 10 18  1  0
 11 12  1  0
 12 13  1  0
 13 14  1  1
 13 17  1  0
 14 15  1  0
 15 16  1  0
 18 17  1  6
 18 19  1  0
 19 20  1  1
 19 24  1  0
 20 21  1  0
 21 22  1  0
 22 23  1  0
 23 24  1  0
M  CHG  2  16   1  18   1
M  END
