
     RDKit          3D

 24 26  0  0  0  0  0  0  0  0999 V2000
    5.4140    2.7270   -0.9280 C   0  0  0  0  0  0  0  0  0  0  0  0
    5.6810    1.8620    0.2860 C   0  0  0  0  0  0  0  0  0  0  0  0
    4.3640    1.3450    0.8550 C   0  0  0  0  0  0  0  0  0  0  0  0
    3.6500    0.5240   -0.1980 C   0  0  1  0  0  0  0  0  0  0  0  0
    4.5530   -0.6570   -0.5890 C   0  0  0  0  0  0  0  0  0  0  0  0
    3.2390   -1.4370   -0.7600 C   0  0  0  0  0  0  0  0  0  0  0  0
    2.6880   -0.5040    0.3280 C   0  0  2  0  0  0  0  0  0  0  0  0
    1.2110   -0.1580    0.1270 C   0  0  0  0  0  0  0  0  0  0  0  0
    0.3570   -1.1460    0.6380 N   0  0  1  0  0  0  0  0  0  0  0  0
    0.2240   -0.9420    2.0810 C   0  0  0  0  0  0  0  0  0  0  0  0
   -0.6960   -2.0290    2.4760 C   0  0  0  0  0  0  0  0  0  0  0  0
   -1.3020   -2.4680    1.2060 C   0  0  0  0  0  0  0  0  0  0  0  0
   -0.8430   -1.5330    0.0650 C   0  0  2  0  0  0  0  0  0  0  0  0
   -0.6050   -2.5530   -1.0400 C   0  0  0  0  0  0  0  0  0  0  0  0
    0.1530   -2.2780   -2.1490 N   0  0  0  0  0  0  0  0  0  0  0  0
   -1.9350   -0.5820   -0.2220 C   0  0  1  0  0  0  0  0  0  0  0  0
   -3.0660   -1.3170   -0.9500 C   0  0  0  0  0  0  0  0  0  0  0  0
   -2.5920    0.0390    0.9930 C   0  0  0  0  0  0  0  0  0  0  0  0
   -3.9120    0.7120    0.6750 C   0  0  0  0  0  0  0  0  0  0  0  0
   -3.7910    1.6940   -0.4400 C   0  0  1  0  0  0  0  0  0  0  0  0
   -5.1870    1.9470   -1.0040 C   0  0  0  0  0  0  0  0  0  0  0  0
   -3.3380    3.0550    0.1140 C   0  0  0  0  0  0  0  0  0  0  0  0
   -2.8980    1.3240   -1.5320 C   0  0  0  0  0  0  0  0  0  0  0  0
   -1.6260    0.5740   -1.1370 C   0  0  0  0  0  0  0  0  0  0  0  0
  1  2  1  0
  2  3  1  0
  4  3  1  1
  4  5  1  0
  4  7  1  0
  5  6  1  0
  6  7  1  0
  7  8  1  6
  9  8  1  6
  9 10  1  0
  9 13  1  0
 10 11  1  0
 11 12  1  0
 12 13  1  0
 13 14  1  6
 13 16  1  0
 14 15  1  0
 16 17  1  6
 16 18  1  0
 16 24  1  0
 18 19  1  0
 19 20  1  0
 20 21  1  6
 20 22  1  0
 20 23  1  0
 23 24  1  0
M  CHG  2   9   1  15   1
M  END
