
     RDKit          3D

 29 31  0  0  0  0  0  0  0  0999 V2000
   -5.5810   -2.0190    0.2010 C   0  0  0  0  0  0  0  0  0  0  0  0
   -5.0620   -0.6270    0.0440 C   0  0  2  0  0  0  0  0  0  0  0  0
   -3.6350   -0.5200    0.2980 N   0  0  0  0  0  0  0  0  0  0  0  0
   -3.1260   -0.9050    1.5490 C   0  0  0  0  0  0  0  0  0  0  0  0
   -3.9340   -1.3340    2.4270 O   0  0  0  0  0  0  0  0  0  0  0  0
   -1.7000   -0.8450    1.9280 C   0  0  0  0  0  0  0  0  0  0  0  0
   -0.8590   -0.4700    0.8700 O   0  0  0  0  0  0  0  0  0  0  0  0
   -0.7320   -1.2520   -0.2720 C   0  0  0  0  0  0  0  0  0  0  0  0
   -1.3930   -2.3240   -0.3340 O   0  0  0  0  0  0  0  0  0  0  0  0
    0.1340   -0.8810   -1.3960 C   0  0  2  0  0  0  0  0  0  0  0  0
    0.0650   -1.8390   -2.3890 O   0  0  0  0  0  0  0  0  0  0  0  0
    1.5170   -0.7430   -0.8810 C   0  0  0  0  0  0  0  0  0  0  0  0
    2.2430   -1.8580   -0.6040 C   0  0  0  0  0  0  0  0  0  0  0  0
    3.5250   -1.7490   -0.1260 C   0  0  0  0  0  0  0  0  0  0  0  0
    4.1250   -0.5010    0.0900 C   0  0  0  0  0  0  0  0  0  0  0  0
    3.3830    0.6200   -0.1930 C   0  0  0  0  0  0  0  0  0  0  0  0
    2.0940    0.4810   -0.6730 C   0  0  0  0  0  0  0  0  0  0  0  0
    3.9600    1.9960    0.0150 C   0  0  1  0  0  0  0  0  0  0  0  0
    3.5860    2.4060    1.3070 O   0  0  0  0  0  0  0  0  0  0  0  0
    5.4630    1.8480   -0.0910 C   0  0  1  0  0  0  0  0  0  0  0  0
    6.3170    3.4230    0.0050 S   0  0  0  0  0  0  0  0  0  0  0  0
    8.0010    3.1290   -0.1260 O   0  0  0  0  0  0  0  0  0  0  0  0
    5.8900    0.9080    1.0250 C   0  0  0  0  0  0  0  0  0  0  0  0
    5.5130   -0.4940    0.6080 C   0  0  0  0  0  0  0  0  0  0  0  0
   -5.7700    0.3550    0.9460 C   0  0  0  0  0  0  0  0  0  0  0  0
   -5.0390    1.5400    0.8810 O   0  0  0  0  0  0  0  0  0  0  0  0
   -4.8760    1.9680   -0.4380 C   0  0  0  0  0  0  0  0  0  0  0  0
   -5.6150    1.2480   -1.3520 O   0  0  0  0  0  0  0  0  0  0  0  0
   -5.3210   -0.1080   -1.3830 C   0  0  0  0  0  0  0  0  0  0  0  0
  2  1  1  6
  2  3  1  0
  2 25  1  0
  2 29  1  0
  3  4  1  0
  4  5  2  0
  4  6  1  0
  6  7  1  0
  7  8  1  0
  8  9  2  0
  8 10  1  0
 10 11  1  6
 10 12  1  0
 12 13  2  0
 12 17  1  0
 13 14  1  0
 14 15  2  0
 15 16  1  0
 15 24  1  0
 16 17  2  0
 16 18  1  0
 18 19  1  1
 18 20  1  0
 20 21  1  1
 20 23  1  0
 21 22  1  0
 23 24  1  0
 25 26  1  0
 26 27  1  0
 27 28  1  0
 28 29  1  0
M  END
