
     RDKit          3D

 42 45  0  0  0  0  0  0  0  0999 V2000
   -6.6120   -2.2690   -3.6650 C   0  0  0  0  0  0  0  0  0  0  0  0
   -5.8260   -1.2110   -3.0080 C   0  0  0  0  0  0  0  0  0  0  0  0
   -6.2610   -0.1330   -2.4080 C   0  0  0  0  0  0  0  0  0  0  0  0
   -5.2950    0.7980   -1.8160 C   0  0  0  0  0  0  0  0  0  0  0  0
   -4.9700    0.6100   -0.3710 C   0  0  2  0  0  0  0  0  0  0  0  0
   -3.7780   -0.7320   -0.1740 S   0  0  0  0  0  0  0  0  0  0  0  0
   -3.2120   -0.9960    1.4930 C   0  0  0  0  0  0  0  0  0  0  0  0
   -2.3860    0.0220    2.0550 N   0  0  0  0  0  0  0  0  0  0  0  0
   -2.8710    1.1230    2.8050 C   0  0  0  0  0  0  0  0  0  0  0  0
   -4.0250    1.5330    2.6420 O   0  0  0  0  0  0  0  0  0  0  0  0
   -1.9250    1.7510    3.7890 C   0  0  0  0  0  0  0  0  0  0  0  0
   -0.7110    1.9860    3.1080 O   0  0  0  0  0  0  0  0  0  0  0  0
   -0.1510    0.9560    2.3920 C   0  0  0  0  0  0  0  0  0  0  0  0
    1.2170    0.9430    2.2280 C   0  0  0  0  0  0  0  0  0  0  0  0
    1.8170   -0.0710    1.5170 C   0  0  0  0  0  0  0  0  0  0  0  0
    3.2640   -0.0800    1.3480 C   0  0  0  0  0  0  0  0  0  0  0  0
    4.0030    0.8130    1.8200 O   0  0  0  0  0  0  0  0  0  0  0  0
    3.8420   -1.1160    0.6400 O   0  0  0  0  0  0  0  0  0  0  0  0
    5.3050   -1.1390    0.4550 C   0  0  0  0  0  0  0  0  0  0  0  0
    5.6450    0.0100   -0.2990 C   0  0  0  0  0  0  0  0  0  0  0  0
    4.6200    0.7510   -0.6850 O   0  0  0  0  0  0  0  0  0  0  0  0
    6.9660    0.5330   -0.7360 C   0  0  0  0  0  0  0  0  0  0  0  0
    6.8490    1.6590   -1.4310 C   0  0  0  0  0  0  0  0  0  0  0  0
    7.6880    2.6080   -2.0960 C   0  0  1  0  0  0  0  0  0  0  0  0
    6.7920    3.5710   -2.7410 F   0  0  0  0  0  0  0  0  0  0  0  0
    8.4670    3.4090   -1.2880 F   0  0  0  0  0  0  0  0  0  0  0  0
    8.3660    2.0840   -3.1650 F   0  0  0  0  0  0  0  0  0  0  0  0
    8.1820   -0.1670   -0.3640 C   0  0  0  0  0  0  0  0  0  0  0  0
    8.2420   -1.2970    0.3140 C   0  0  0  0  0  0  0  0  0  0  0  0
    9.6550   -1.7100    0.5080 C   0  0  0  0  0  0  0  0  0  0  0  0
   10.4320   -0.6860   -0.1330 C   0  0  0  0  0  0  0  0  0  0  0  0
    9.5700    0.2050   -0.6360 C   0  0  0  0  0  0  0  0  0  0  0  0
   10.0580    1.2790   -1.2880 F   0  0  0  0  0  0  0  0  0  0  0  0
    1.0200   -1.0530    0.9850 C   0  0  0  0  0  0  0  0  0  0  0  0
   -0.3590   -1.0390    1.1520 C   0  0  0  0  0  0  0  0  0  0  0  0
   -0.9640   -0.0460    1.8510 C   0  0  0  0  0  0  0  0  0  0  0  0
   -6.1590    0.4130    0.5160 C   0  0  0  0  0  0  0  0  0  0  0  0
   -7.2780   -0.3800   -0.0400 C   0  0  0  0  0  0  0  0  0  0  0  0
   -8.0860    0.5330   -0.9710 C   0  0  0  0  0  0  0  0  0  0  0  0
   -7.7300    0.0530   -2.3820 C   0  0  1  0  0  0  0  0  0  0  0  0
   -8.0920    1.0610   -3.2830 F   0  0  0  0  0  0  0  0  0  0  0  0
   -8.4740   -1.0480   -2.6250 F   0  0  0  0  0  0  0  0  0  0  0  0
  1  2  1  0
  2  3  2  3
  3  4  1  0
  3 40  1  0
  4  5  1  0
  5  6  1  6
  5 37  1  0
  6  7  1  0
  7  8  1  0
  8  9  1  0
  8 36  1  0
  9 10  2  0
  9 11  1  0
 11 12  1  0
 12 13  1  0
 13 14  2  0
 13 36  1  0
 14 15  1  0
 15 16  1  0
 15 34  2  0
 16 17  2  0
 16 18  1  0
 18 19  1  0
 19 20  1  0
 20 21  2  0
 20 22  1  0
 22 23  2  3
 22 28  1  0
 23 24  1  0
 24 25  1  6
 24 26  1  0
 24 27  1  0
 28 29  2  0
 28 32  1  0
 29 30  1  0
 30 31  1  0
 31 32  2  0
 32 33  1  0
 34 35  1  0
 35 36  2  0
 37 38  1  0
 38 39  1  0
 39 40  1  0
 40 41  1  6
 40 42  1  0
M  END
