
     RDKit          3D

 14 15  0  0  0  0  0  0  0  0999 V2000
   -2.1470    2.4030    0.3260 O   0  0  0  0  0  0  0  0  0  0  0  0
   -1.9070    1.1890    0.1220 C   0  0  0  0  0  0  0  0  0  0  0  0
   -2.9360    0.3120   -0.0820 N   0  0  0  0  0  0  0  0  0  0  0  0
   -2.6880   -0.9890   -0.3010 C   0  0  0  0  0  0  0  0  0  0  0  0
   -1.3950   -1.4310   -0.3190 C   0  0  0  0  0  0  0  0  0  0  0  0
   -0.3210   -0.5520   -0.1130 C   0  0  0  0  0  0  0  0  0  0  0  0
    0.9750   -1.0190   -0.1350 C   0  0  0  0  0  0  0  0  0  0  0  0
    2.0430   -0.1700    0.0650 C   0  0  0  0  0  0  0  0  0  0  0  0
    3.3760   -0.6640    0.0400 N   0  0  0  0  0  0  0  0  0  0  0  0
    3.6260   -1.8620   -0.1610 O   0  0  0  0  0  0  0  0  0  0  0  0
    4.4280    0.1900    0.2400 O   0  0  0  0  0  0  0  0  0  0  0  0
    1.7580    1.1640    0.2880 C   0  0  0  0  0  0  0  0  0  0  0  0
    0.4650    1.6370    0.3120 C   0  0  0  0  0  0  0  0  0  0  0  0
   -0.5970    0.7790    0.1100 C   0  0  0  0  0  0  0  0  0  0  0  0
  1  2  2  0
  2  3  1  0
  2 14  1  0
  3  4  1  0
  4  5  2  0
  5  6  1  0
  6  7  2  0
  6 14  1  0
  7  8  1  0
  8  9  1  0
  8 12  2  0
  9 10  2  0
  9 11  1  0
 12 13  1  0
 13 14  2  0
M  CHG  2   9   1  11  -1
M  END
