
     RDKit          3D

  8  7  0  0  0  0  0  0  0  0999 V2000
   -1.8510    0.5080   -3.3120 C   0  0  0  0  0  0  0  0  0  0  0  0
   -1.2490    1.4300   -2.3390 C   0  0  0  0  0  0  0  0  0  0  0  0
   -0.7390    1.0610   -1.1960 C   0  0  0  0  0  0  0  0  0  0  0  0
   -0.6520   -0.2670   -0.6530 C   0  0  0  0  0  0  0  0  0  0  0  0
   -0.1370   -0.6250    0.4950 C   0  0  0  0  0  0  0  0  0  0  0  0
    0.4670    0.2710    1.4790 C   0  0  0  0  0  0  0  0  0  0  0  0
    1.8510   -0.0700    1.7100 N   0  0  0  0  0  0  0  0  0  0  0  0
    2.0550   -1.3220    2.3660 C   0  0  0  0  0  0  0  0  0  0  0  0
  1  2  1  0
  2  3  2  3
  3  4  1  0
  4  5  2  3
  5  6  1  0
  6  7  1  0
  7  8  1  0
M  END
