
     RDKit          3D

  9  8  0  0  0  0  0  0  0  0999 V2000
    2.9520    0.7220   -2.0030 C   0  0  0  0  0  0  0  0  0  0  0  0
    2.6040    0.3200   -0.6080 C   0  0  0  0  0  0  0  0  0  0  0  0
    1.2190    0.6070   -0.2300 C   0  0  0  0  0  0  0  0  0  0  0  0
    0.3400   -0.3020    0.1470 C   0  0  0  0  0  0  0  0  0  0  0  0
   -1.0290   -0.0090    0.5190 C   0  0  0  0  0  0  0  0  0  0  0  0
   -1.5760    1.3920    0.5060 C   0  0  0  0  0  0  0  0  0  0  0  0
   -1.8480   -0.9720    0.8840 C   0  0  0  0  0  0  0  0  0  0  0  0
   -3.1860   -0.7230    1.2530 N   0  0  0  0  0  0  0  0  0  0  0  0
   -1.3810   -2.3070    0.9120 N   0  0  0  0  0  0  0  0  0  0  0  0
  1  2  1  0
  2  3  1  0
  3  4  2  3
  4  5  1  0
  5  6  1  0
  5  7  2  3
  7  8  1  0
  7  9  1  0
M  END
