
     RDKit          3D

  9  9  0  0  0  0  0  0  0  0999 V2000
    2.4370   -1.2160    0.3270 N   0  0  0  0  0  0  0  0  0  0  0  0
    2.5220    0.1550   -0.0270 C   0  0  0  0  0  0  0  0  0  0  0  0
    1.4790    0.9300   -0.1870 C   0  0  0  0  0  0  0  0  0  0  0  0
    0.1170    0.4740   -0.0190 C   0  0  0  0  0  0  0  0  0  0  0  0
   -0.9630    1.3120   -0.1930 C   0  0  0  0  0  0  0  0  0  0  0  0
   -2.2670    0.9030   -0.0400 C   0  0  0  0  0  0  0  0  0  0  0  0
   -2.5320   -0.4030    0.3050 C   0  0  0  0  0  0  0  0  0  0  0  0
   -1.4460   -1.2360    0.4780 C   0  0  0  0  0  0  0  0  0  0  0  0
   -0.1860   -0.8070    0.3210 N   0  0  0  0  0  0  0  0  0  0  0  0
  1  2  1  0
  2  3  2  3
  3  4  1  0
  4  5  2  0
  4  9  1  0
  5  6  1  0
  6  7  2  0
  7  8  1  0
  8  9  2  0
M  END
