
     RDKit          3D

 17 17  0  0  0  0  0  0  0  0999 V2000
    2.3210    1.8710    0.4180 O   0  0  0  0  0  0  0  0  0  0  0  0
    3.3990    1.0410    0.6300 C   0  0  0  0  0  0  0  0  0  0  0  0
    3.3370   -0.2070   -0.2220 C   0  0  1  0  0  0  0  0  0  0  0  0
    4.4450   -0.9970    0.0370 O   0  0  0  0  0  0  0  0  0  0  0  0
    2.0780   -1.0050    0.0700 C   0  0  0  0  0  0  0  0  0  0  0  0
    0.9420   -0.2470   -0.1770 O   0  0  0  0  0  0  0  0  0  0  0  0
   -0.1760   -1.0200    0.1040 C   0  0  2  0  0  0  0  0  0  0  0  0
   -0.8660   -1.2470   -1.0530 O   0  0  0  0  0  0  0  0  0  0  0  0
   -1.8430   -0.3810   -1.4170 C   0  0  2  0  0  0  0  0  0  0  0  0
   -1.3430    0.9250   -1.9750 C   0  0  0  0  0  0  0  0  0  0  0  0
   -0.5670    1.6750   -1.1540 O   0  0  0  0  0  0  0  0  0  0  0  0
   -2.8950   -0.2370   -0.3730 C   0  0  2  0  0  0  0  0  0  0  0  0
   -3.6860    0.9140   -0.6040 O   0  0  0  0  0  0  0  0  0  0  0  0
   -2.4060   -0.2930    1.0340 C   0  0  2  0  0  0  0  0  0  0  0  0
   -2.8780    0.8640    1.7010 O   0  0  0  0  0  0  0  0  0  0  0  0
   -0.9370   -0.3590    1.2030 C   0  0  1  0  0  0  0  0  0  0  0  0
   -0.6400   -1.0380    2.4130 O   0  0  0  0  0  0  0  0  0  0  0  0
  1  2  1  0
  2  3  1  0
  3  4  1  1
  3  5  1  0
  5  6  1  0
  7  6  1  6
  7  8  1  0
  7 16  1  0
  8  9  1  0
  9 10  1  1
  9 12  1  0
 10 11  1  0
 12 13  1  6
 12 14  1  0
 14 15  1  1
 14 16  1  0
 16 17  1  1
M  END
