
     RDKit          3D

 14 15  0  0  0  0  0  0  0  0999 V2000
    1.2590    2.5190   -0.6730 O   0  0  0  0  0  0  0  0  0  0  0  0
    1.4630    1.2900   -0.4940 C   0  0  0  0  0  0  0  0  0  0  0  0
    2.6870    0.7450   -0.6230 N   0  0  0  0  0  0  0  0  0  0  0  0
    2.8750   -0.5800   -0.4240 C   0  0  0  0  0  0  0  0  0  0  0  0
    1.8110   -1.3890   -0.0880 C   0  0  0  0  0  0  0  0  0  0  0  0
    0.5650   -0.8210    0.0410 C   0  0  0  0  0  0  0  0  0  0  0  0
   -0.5380   -1.5880    0.3770 C   0  0  0  0  0  0  0  0  0  0  0  0
   -1.7930   -1.0390    0.5110 C   0  0  0  0  0  0  0  0  0  0  0  0
   -2.0010    0.3100    0.3120 C   0  0  0  0  0  0  0  0  0  0  0  0
   -3.2820    0.9090    0.4410 N   0  0  0  0  0  0  0  0  0  0  0  0
   -3.4560    2.1240    0.2600 O   0  0  0  0  0  0  0  0  0  0  0  0
   -4.3620    0.1370    0.7750 O   0  0  0  0  0  0  0  0  0  0  0  0
   -0.9030    1.0900   -0.0260 C   0  0  0  0  0  0  0  0  0  0  0  0
    0.3580    0.5280   -0.1580 C   0  0  0  0  0  0  0  0  0  0  0  0
  1  2  2  0
  2  3  1  0
  2 14  1  0
  3  4  1  0
  4  5  2  0
  5  6  1  0
  6  7  2  0
  6 14  1  0
  7  8  1  0
  8  9  2  0
  9 10  1  0
  9 13  1  0
 10 11  2  0
 10 12  1  0
 13 14  2  0
M  CHG  2  10   1  12  -1
M  END
