
     RDKit          3D

 20 20  0  0  0  0  0  0  0  0999 V2000
   -2.3080    3.1200   -0.1420 C   0  0  0  0  0  0  0  0  0  0  0  0
   -1.3850    2.0960   -0.3920 O   0  0  0  0  0  0  0  0  0  0  0  0
   -1.6640    0.7690   -0.4150 C   0  0  0  0  0  0  0  0  0  0  0  0
   -2.8760    0.4910   -0.0080 N   0  0  0  0  0  0  0  0  0  0  0  0
   -3.5040   -0.8020    0.0950 C   0  0  0  0  0  0  0  0  0  0  0  0
   -3.1650   -1.9030   -0.5650 C   0  0  0  0  0  0  0  0  0  0  0  0
   -3.9460   -3.0990   -0.3000 C   0  0  0  0  0  0  0  0  0  0  0  0
   -4.8820   -3.0830    0.5060 O   0  0  0  0  0  0  0  0  0  0  0  0
   -3.6550   -4.2850   -0.9480 O   0  0  0  0  0  0  0  0  0  0  0  0
   -2.1150   -2.0010   -1.4960 O   0  0  0  0  0  0  0  0  0  0  0  0
   -0.8670   -1.3510   -1.3510 C   0  0  0  0  0  0  0  0  0  0  0  0
   -0.6120   -0.1170   -0.8730 C   0  0  0  0  0  0  0  0  0  0  0  0
    0.7760    0.2970   -0.8470 C   0  0  0  0  0  0  0  0  0  0  0  0
    1.6010   -0.5660   -1.3190 O   0  0  0  0  0  0  0  0  0  0  0  0
    1.3370    1.4820   -0.3860 N   0  0  0  0  0  0  0  0  0  0  0  0
    2.7140    1.8680   -0.3560 C   0  0  0  0  0  0  0  0  0  0  0  0
    3.6530    1.1230    0.5050 C   0  0  0  0  0  0  0  0  0  0  0  0
    3.8980   -0.6450    0.1640 P   0  0  0  0  0  0  0  0  0  0  0  0
    5.5190   -1.0560   -0.2750 O   0  0  0  0  0  0  0  0  0  0  0  0
    3.4470   -1.6170    1.5250 O   0  0  0  0  0  0  0  0  0  0  0  0
  1  2  1  0
  2  3  1  0
  3  4  2  0
  3 12  1  0
  4  5  1  0
  5  6  2  0
  6  7  1  0
  6 10  1  0
  7  8  2  0
  7  9  1  0
 10 11  1  0
 11 12  2  0
 12 13  1  0
 13 14  2  0
 13 15  1  0
 15 16  1  0
 16 17  1  0
 17 18  1  0
 18 19  1  0
 18 20  1  0
M  END
