
     RDKit          3D

 20 20  0  0  0  0  0  0  0  0999 V2000
   -1.6950    2.8120   -0.6260 N   0  0  0  0  0  0  0  0  0  0  0  0
   -2.1460    1.4380   -0.5760 C   0  0  0  0  0  0  0  0  0  0  0  0
   -1.7370    0.6740    0.6160 C   0  0  1  0  0  0  0  0  0  0  0  0
   -2.3140   -0.5910    0.5640 O   0  0  0  0  0  0  0  0  0  0  0  0
   -2.5100   -1.1380   -0.6540 C   0  0  2  0  0  0  0  0  0  0  0  0
   -3.1690   -2.5070   -0.3790 C   0  0  0  0  0  0  0  0  0  0  0  0
   -2.2960   -3.2840    0.4120 O   0  0  0  0  0  0  0  0  0  0  0  0
   -1.2710   -1.4470   -1.4020 C   0  0  0  0  0  0  0  0  0  0  0  0
   -1.4000   -2.0910   -2.4700 O   0  0  0  0  0  0  0  0  0  0  0  0
   -0.0070   -1.0690   -0.9900 O   0  0  0  0  0  0  0  0  0  0  0  0
    0.4640    0.1540   -0.4220 C   0  0  2  0  0  0  0  0  0  0  0  0
    1.9500   -0.0660   -0.2690 C   0  0  1  0  0  0  0  0  0  0  0  0
    2.3560   -1.2100    0.5790 C   0  0  0  0  0  0  0  0  0  0  0  0
    1.9230   -1.1340    1.8880 O   0  0  0  0  0  0  0  0  0  0  0  0
    2.5250   -0.2580   -1.6800 C   0  0  0  0  0  0  0  0  0  0  0  0
    4.0200   -0.4870   -1.6460 C   0  0  0  0  0  0  0  0  0  0  0  0
    4.7010    0.5730   -1.0650 O   0  0  0  0  0  0  0  0  0  0  0  0
   -0.2550    0.4620    0.8230 C   0  0  1  0  0  0  0  0  0  0  0  0
    0.2710    1.5430    1.6810 C   0  0  0  0  0  0  0  0  0  0  0  0
   -0.4410    1.4870    2.9700 N   0  0  0  0  0  0  0  0  0  0  0  0
  1  2  1  0
  3  2  1  6
  3  4  1  0
  3 18  1  0
  4  5  1  0
  5  6  1  1
  5  8  1  0
  6  7  1  0
  8  9  2  0
  8 10  1  0
 11 10  1  1
 11 12  1  0
 11 18  1  0
 12 13  1  1
 12 15  1  0
 13 14  1  0
 15 16  1  0
 16 17  1  0
 18 19  1  6
 19 20  1  0
M  CHG  2   1   1  20   1
M  END
