
     RDKit          3D

 21 21  0  0  0  0  0  0  0  0999 V2000
    4.9370    0.8800   -0.8100 N   0  0  0  0  0  0  0  0  0  0  0  0
    4.7360    0.2720    0.4860 C   0  0  2  0  0  0  0  0  0  0  0  0
    5.6150   -0.9820    0.5060 C   0  0  0  0  0  0  0  0  0  0  0  0
    5.4300   -1.5850    1.7650 O   0  0  0  0  0  0  0  0  0  0  0  0
    3.3360   -0.2110    0.5840 C   0  0  0  0  0  0  0  0  0  0  0  0
    2.9190   -0.7860    1.6370 O   0  0  0  0  0  0  0  0  0  0  0  0
    2.4970   -0.0230   -0.4950 O   0  0  0  0  0  0  0  0  0  0  0  0
    1.1710   -0.4290   -0.5180 C   0  0  0  0  0  0  0  0  0  0  0  0
    0.3050    0.2200    0.5390 C   0  0  2  0  0  0  0  0  0  0  0  0
   -1.1130   -0.2830    0.4280 C   0  0  0  0  0  0  0  0  0  0  0  0
   -1.9950    0.4500   -0.4780 C   0  0  1  0  0  0  0  0  0  0  0  0
   -3.4360    0.5880   -0.0370 C   0  0  1  0  0  0  0  0  0  0  0  0
   -4.1420    1.4000   -1.0700 N   0  0  0  0  0  0  0  0  0  0  0  0
   -4.2090   -0.6690    0.1110 C   0  0  1  0  0  0  0  0  0  0  0  0
   -4.2480   -1.4270   -1.0460 O   0  0  0  0  0  0  0  0  0  0  0  0
   -4.1190   -1.4350    1.3600 C   0  0  0  0  0  0  0  0  0  0  0  0
   -3.0950   -2.3230    1.5190 O   0  0  0  0  0  0  0  0  0  0  0  0
   -1.4490    1.7670   -0.9850 C   0  0  0  0  0  0  0  0  0  0  0  0
   -0.5980    2.4150   -0.0860 O   0  0  0  0  0  0  0  0  0  0  0  0
    0.4480    1.6640    0.4220 C   0  0  0  0  0  0  0  0  0  0  0  0
    1.5290    2.1940    0.7900 O   0  0  0  0  0  0  0  0  0  0  0  0
  2  1  1  6
  2  3  1  0
  2  5  1  0
  3  4  1  0
  5  6  2  0
  5  7  1  0
  7  8  1  0
  9  8  1  6
  9 10  1  0
  9 20  1  0
 11 10  1  1
 11 12  1  0
 11 18  1  0
 12 13  1  6
 12 14  1  0
 14 15  1  6
 14 16  1  0
 16 17  1  0
 18 19  1  0
 19 20  1  0
 20 21  2  0
M  CHG  2   1   1  13   1
M  END
