
     RDKit          3D

 20 21  0  0  0  0  0  0  0  0999 V2000
   -3.1560    2.0890   -1.9090 N   0  0  0  0  0  0  0  0  0  0  0  0
   -2.3660    1.9060   -0.7250 C   0  0  0  0  0  0  0  0  0  0  0  0
   -2.8470    0.7340    0.0960 C   0  0  0  0  0  0  0  0  0  0  0  0
   -1.9760   -0.2350    0.2920 C   0  0  0  0  0  0  0  0  0  0  0  0
   -0.6890   -0.1510   -0.2430 O   0  0  0  0  0  0  0  0  0  0  0  0
    0.2200   -1.1980   -0.3720 C   0  0  1  0  0  0  0  0  0  0  0  0
    1.4520   -0.9010    0.4210 C   0  0  0  0  0  0  0  0  0  0  0  0
    2.1570    0.3520   -0.0060 C   0  0  1  0  0  0  0  0  0  0  0  0
    3.3850    0.5920    0.8310 C   0  0  0  0  0  0  0  0  0  0  0  0
    4.2490   -0.5440    0.7390 N   0  0  0  0  0  0  0  0  0  0  0  0
    2.5320    0.3880   -1.4460 C   0  0  0  0  0  0  0  0  0  0  0  0
    2.6810    1.7780   -1.6610 O   0  0  0  0  0  0  0  0  0  0  0  0
    1.9560    2.4140   -0.6900 C   0  0  0  0  0  0  0  0  0  0  0  0
    1.3500    1.4870    0.1190 O   0  0  0  0  0  0  0  0  0  0  0  0
   -0.3280   -2.5200    0.1080 C   0  0  0  0  0  0  0  0  0  0  0  0
   -1.2410   -2.3640    1.1730 O   0  0  0  0  0  0  0  0  0  0  0  0
   -2.2690   -1.4330    1.0570 C   0  0  0  0  0  0  0  0  0  0  0  0
   -3.4260   -1.6730    1.6300 C   0  0  0  0  0  0  0  0  0  0  0  0
   -4.5450   -0.8880    1.6280 O   0  0  0  0  0  0  0  0  0  0  0  0
   -3.5810   -2.8860    2.3510 O   0  0  0  0  0  0  0  0  0  0  0  0
  1  2  1  0
  2  3  1  0
  3  4  2  3
  4  5  1  0
  4 17  1  0
  5  6  1  0
  6  7  1  1
  6 15  1  0
  8  7  1  1
  8  9  1  0
  8 11  1  0
  8 14  1  0
  9 10  1  0
 11 12  1  0
 12 13  1  0
 13 14  1  0
 15 16  1  0
 16 17  1  0
 17 18  2  3
 18 19  1  0
 18 20  1  0
M  CHG  2   1   1  10   1
M  END
