
     RDKit          3D

 21 22  0  0  0  0  0  0  0  0999 V2000
   -2.1300    1.8300   -1.5700 C   0  0  0  0  0  0  0  0  0  0  0  0
   -3.1030    1.1230   -0.7560 N   0  0  0  0  0  0  0  0  0  0  0  0
   -2.6640   -0.1680   -0.3350 C   0  0  2  0  0  0  0  0  0  0  0  0
   -2.9700   -0.4150    1.1240 C   0  0  2  0  0  0  0  0  0  0  0  0
   -2.4110    0.6720    1.8290 O   0  0  0  0  0  0  0  0  0  0  0  0
   -2.4210   -1.6870    1.6370 C   0  0  0  0  0  0  0  0  0  0  0  0
   -1.3930   -2.2610    1.0190 O   0  0  0  0  0  0  0  0  0  0  0  0
   -0.8960   -1.8130   -0.1330 C   0  0  2  0  0  0  0  0  0  0  0  0
    0.6170   -1.7080   -0.1290 C   0  0  0  0  0  0  0  0  0  0  0  0
    0.8320   -0.3630    0.5250 C   0  0  2  0  0  0  0  0  0  0  0  0
    1.6060    0.5880   -0.2970 C   0  0  0  0  0  0  0  0  0  0  0  0
    2.9650    0.2860   -0.7480 C   0  0  2  0  0  0  0  0  0  0  0  0
    3.9380    0.0860    0.2830 N   0  0  0  0  0  0  0  0  0  0  0  0
    3.4200    1.4800   -1.5590 C   0  0  0  0  0  0  0  0  0  0  0  0
    4.4790    2.0780   -1.2550 O   0  0  0  0  0  0  0  0  0  0  0  0
    2.6980    1.9410   -2.6370 O   0  0  0  0  0  0  0  0  0  0  0  0
    1.2570   -0.5850    1.9140 C   0  0  0  0  0  0  0  0  0  0  0  0
    0.5380   -0.1050    2.8690 O   0  0  0  0  0  0  0  0  0  0  0  0
    2.3670   -1.2690    2.3530 O   0  0  0  0  0  0  0  0  0  0  0  0
   -0.4770    0.2560    0.5560 O   0  0  0  0  0  0  0  0  0  0  0  0
   -1.1830   -0.3570   -0.4700 C   0  0  2  0  0  0  0  0  0  0  0  0
  1  2  1  0
  3  2  1  1
  3  4  1  0
  3 21  1  0
  4  5  1  1
  4  6  1  0
  6  7  1  0
  7  8  1  0
  8  9  1  1
  8 21  1  0
  9 10  1  0
 10 11  1  6
 10 17  1  0
 10 20  1  0
 11 12  1  0
 12 13  1  1
 12 14  1  0
 14 15  2  0
 14 16  1  0
 17 18  2  0
 17 19  1  0
 21 20  1  1
M  CHG  2   2   1  13   1
M  END
