
     RDKit          3D

 21 21  0  0  0  0  0  0  0  0999 V2000
    5.0980    0.1050    2.1160 N   0  0  0  0  0  0  0  0  0  0  0  0
    4.5390   -1.0480    1.4220 C   0  0  0  0  0  0  0  0  0  0  0  0
    4.9880   -0.9390   -0.0390 C   0  0  2  0  0  0  0  0  0  0  0  0
    6.3540   -0.9460   -0.1480 O   0  0  0  0  0  0  0  0  0  0  0  0
    4.3570    0.2830   -0.5870 C   0  0  0  0  0  0  0  0  0  0  0  0
    4.9740    1.2410   -1.1090 O   0  0  0  0  0  0  0  0  0  0  0  0
    2.9770    0.3710   -0.5150 O   0  0  0  0  0  0  0  0  0  0  0  0
    2.2480    1.4780   -0.9990 C   0  0  0  0  0  0  0  0  0  0  0  0
    0.7700    1.1680   -0.7240 C   0  0  1  0  0  0  0  0  0  0  0  0
   -0.0220    2.1970   -1.1640 O   0  0  0  0  0  0  0  0  0  0  0  0
    0.4830   -0.1410   -1.4250 C   0  0  0  0  0  0  0  0  0  0  0  0
   -0.9300   -0.5630   -1.2370 C   0  0  0  0  0  0  0  0  0  0  0  0
   -1.2820   -1.6390   -1.7770 O   0  0  0  0  0  0  0  0  0  0  0  0
   -1.8580    0.1380   -0.5230 O   0  0  0  0  0  0  0  0  0  0  0  0
   -3.2070   -0.2520   -0.3360 C   0  0  2  0  0  0  0  0  0  0  0  0
   -4.0510    0.8020   -1.0090 C   0  0  0  0  0  0  0  0  0  0  0  0
   -5.4400    0.8920   -0.4460 C   0  0  0  0  0  0  0  0  0  0  0  0
   -5.4870    0.8540    0.9250 O   0  0  0  0  0  0  0  0  0  0  0  0
   -5.0430   -0.4310    1.3110 C   0  0  0  0  0  0  0  0  0  0  0  0
   -3.5440   -0.4320    1.1160 C   0  0  1  0  0  0  0  0  0  0  0  0
   -3.0590   -1.7250    1.5650 N   0  0  0  0  0  0  0  0  0  0  0  0
  1  2  1  0
  2  3  1  0
  3  4  1  1
  3  5  1  0
  5  6  2  0
  5  7  1  0
  7  8  1  0
  8  9  1  0
  9 10  1  6
  9 11  1  0
 11 12  1  0
 12 13  2  0
 12 14  1  0
 15 14  1  1
 15 16  1  0
 15 20  1  0
 16 17  1  0
 17 18  1  0
 18 19  1  0
 19 20  1  0
 20 21  1  6
M  CHG  2   1   1  21   1
M  END
