
     RDKit          3D

 17 18  0  0  0  0  0  0  0  0999 V2000
   -1.2970   -1.3400    1.7510 N   0  0  0  0  0  0  0  0  0  0  0  0
   -0.9940   -1.0790    0.3670 C   0  0  2  0  0  0  0  0  0  0  0  0
   -2.1000   -1.5130   -0.5250 C   0  0  0  0  0  0  0  0  0  0  0  0
   -1.9990   -1.3600   -1.7640 O   0  0  0  0  0  0  0  0  0  0  0  0
   -3.2420   -2.0880    0.0120 O   0  0  0  0  0  0  0  0  0  0  0  0
    0.2220   -1.8990   -0.0090 C   0  0  0  0  0  0  0  0  0  0  0  0
    1.4360   -1.1190    0.4520 C   0  0  0  0  0  0  0  0  0  0  0  0
    1.6750   -0.0100   -0.5410 C   0  0  1  0  0  0  0  0  0  0  0  0
    2.5070    1.1070    0.0220 C   0  0  0  0  0  0  0  0  0  0  0  0
    3.6770    1.0980   -0.7640 O   0  0  0  0  0  0  0  0  0  0  0  0
    3.7480   -0.2720   -1.0920 C   0  0  0  0  0  0  0  0  0  0  0  0
    2.4430   -0.5030   -1.5620 O   0  0  0  0  0  0  0  0  0  0  0  0
    0.3400    0.5350   -0.9910 C   0  0  0  0  0  0  0  0  0  0  0  0
   -0.6250    0.3800    0.1440 C   0  0  1  0  0  0  0  0  0  0  0  0
   -1.9080    1.1470   -0.0480 C   0  0  0  0  0  0  0  0  0  0  0  0
   -1.6980    2.6050   -0.2790 C   0  0  0  0  0  0  0  0  0  0  0  0
   -1.0370    3.1850    0.8100 O   0  0  0  0  0  0  0  0  0  0  0  0
  2  1  1  1
  2  3  1  0
  2  6  1  0
  2 14  1  0
  3  4  2  0
  3  5  1  0
  6  7  1  0
  8  7  1  1
  8  9  1  0
  8 12  1  0
  8 13  1  0
  9 10  1  0
 10 11  1  0
 11 12  1  0
 13 14  1  0
 14 15  1  6
 15 16  1  0
 16 17  1  0
M  CHG  1   1   1
M  END
