
     RDKit          3D

 18 18  0  0  0  0  0  0  0  0999 V2000
   -3.3760    2.6470    0.1480 C   0  0  0  0  0  0  0  0  0  0  0  0
   -2.5630    1.5820   -0.3120 O   0  0  0  0  0  0  0  0  0  0  0  0
   -2.2750    0.4670    0.4450 C   0  0  0  0  0  0  0  0  0  0  0  0
   -2.7780    0.4270    1.6000 O   0  0  0  0  0  0  0  0  0  0  0  0
   -1.4160   -0.6150   -0.0950 C   0  0  1  0  0  0  0  0  0  0  0  0
   -2.2880   -1.8440   -0.2300 C   0  0  0  0  0  0  0  0  0  0  0  0
   -1.0400   -0.2450   -1.3830 O   0  0  0  0  0  0  0  0  0  0  0  0
    0.0090    0.7030   -1.3200 C   0  0  0  0  0  0  0  0  0  0  0  0
    1.2620   -0.1140   -1.0840 C   0  0  1  0  0  0  0  0  0  0  0  0
    2.4990    0.7170   -1.0120 C   0  0  1  0  0  0  0  0  0  0  0  0
    2.6120    1.3870   -2.2530 O   0  0  0  0  0  0  0  0  0  0  0  0
    2.5250    1.7350    0.0760 C   0  0  0  0  0  0  0  0  0  0  0  0
    2.4210    1.1640    1.3400 O   0  0  0  0  0  0  0  0  0  0  0  0
    2.4420    2.0420    2.2940 O   0  0  0  0  0  0  0  0  0  0  0  0
    1.0570   -1.0760    0.0340 C   0  0  2  0  0  0  0  0  0  0  0  0
    1.0520   -2.5350   -0.4480 C   0  0  0  0  0  0  0  0  0  0  0  0
   -0.2250   -0.8510    0.7980 C   0  0  2  0  0  0  0  0  0  0  0  0
   -0.4060   -1.9450    1.7180 N   0  0  0  0  0  0  0  0  0  0  0  0
  1  2  1  0
  2  3  1  0
  3  4  2  0
  3  5  1  0
  5  6  1  6
  5  7  1  0
  5 17  1  0
  7  8  1  0
  9  8  1  1
  9 10  1  0
  9 15  1  0
 10 11  1  6
 10 12  1  0
 12 13  1  0
 13 14  1  0
 15 16  1  6
 15 17  1  0
 17 18  1  6
M  CHG  1  18   1
M  END
