
     RDKit          3D

 11 11  0  0  0  0  0  0  0  0999 V2000
   -1.1610   -1.3660    1.1910 C   0  0  0  0  0  0  0  0  0  0  0  0
   -0.9730   -1.0720   -0.2570 C   0  0  1  0  0  0  0  0  0  0  0  0
   -2.2120   -0.5010   -0.6700 O   0  0  0  0  0  0  0  0  0  0  0  0
   -2.2570    0.5600    0.1020 O   0  0  0  0  0  0  0  0  0  0  0  0
   -1.0190    1.2120   -0.0150 C   0  0  1  0  0  0  0  0  0  0  0  0
   -0.5710    1.7190    1.1740 O   0  0  0  0  0  0  0  0  0  0  0  0
   -0.1620    0.1190   -0.6060 C   0  0  2  0  0  0  0  0  0  0  0  0
   -0.3730    0.2790   -2.0690 N   0  0  0  0  0  0  0  0  0  0  0  0
    1.2540    0.1620   -0.3750 C   0  0  0  0  0  0  0  0  0  0  0  0
    1.8060    0.0080    0.9860 C   0  0  0  0  0  0  0  0  0  0  0  0
    3.2230    0.0810    0.9740 O   0  0  0  0  0  0  0  0  0  0  0  0
  2  1  1  1
  2  3  1  0
  2  7  1  0
  3  4  1  0
  4  5  1  0
  5  6  1  1
  5  7  1  0
  7  8  1  6
  7  9  1  0
  9 10  1  0
 10 11  1  0
M  CHG  1   8   1
M  END
