
     RDKit          3D

 11 11  0  0  0  0  0  0  0  0999 V2000
   -1.6890    1.3770   -0.6040 N   0  0  0  0  0  0  0  0  0  0  0  0
   -0.9890    0.5460    0.3740 C   0  0  1  0  0  0  0  0  0  0  0  0
   -1.9160   -0.6210    0.6710 C   0  0  0  0  0  0  0  0  0  0  0  0
   -2.1260   -1.2870   -0.5440 O   0  0  0  0  0  0  0  0  0  0  0  0
    0.2870   -0.0190   -0.2090 C   0  0  2  0  0  0  0  0  0  0  0  0
    0.0300   -0.7990   -1.3140 O   0  0  0  0  0  0  0  0  0  0  0  0
    0.9960   -0.7860    0.8790 C   0  0  0  0  0  0  0  0  0  0  0  0
    2.2640   -0.1890    1.0680 O   0  0  0  0  0  0  0  0  0  0  0  0
    2.9060   -0.2330   -0.1640 C   0  0  0  0  0  0  0  0  0  0  0  0
    2.4190    0.7720   -0.9930 O   0  0  0  0  0  0  0  0  0  0  0  0
    1.1500    1.1710   -0.6380 C   0  0  0  0  0  0  0  0  0  0  0  0
  2  1  1  6
  2  3  1  0
  2  5  1  0
  3  4  1  0
  5  6  1  6
  5  7  1  0
  5 11  1  0
  7  8  1  0
  8  9  1  0
  9 10  1  0
 10 11  1  0
M  CHG  1   1   1
M  END
