
     RDKit          3D

 11 11  0  0  0  0  0  0  0  0999 V2000
    2.6500    0.6330   -0.6500 O   0  0  0  0  0  0  0  0  0  0  0  0
    2.3690   -0.2120    0.4220 C   0  0  0  0  0  0  0  0  0  0  0  0
    0.8790   -0.2670    0.7060 C   0  0  1  0  0  0  0  0  0  0  0  0
    0.3930    1.0280    1.0250 N   0  0  0  0  0  0  0  0  0  0  0  0
   -0.8570    1.3820    0.4250 C   0  0  0  0  0  0  0  0  0  0  0  0
   -1.8400    0.2580    0.3310 C   0  0  2  0  0  0  0  0  0  0  0  0
   -2.4580    0.0310    1.5770 O   0  0  0  0  0  0  0  0  0  0  0  0
   -1.2870   -0.9910   -0.2700 C   0  0  1  0  0  0  0  0  0  0  0  0
   -1.8470   -1.3020   -1.5130 O   0  0  0  0  0  0  0  0  0  0  0  0
    0.2110   -0.8690   -0.4990 C   0  0  2  0  0  0  0  0  0  0  0  0
    0.7190   -2.1150   -0.7860 O   0  0  0  0  0  0  0  0  0  0  0  0
  1  2  1  0
  3  2  1  6
  3  4  1  0
  3 10  1  0
  4  5  1  0
  5  6  1  0
  6  7  1  1
  6  8  1  0
  8  9  1  6
  8 10  1  0
 10 11  1  1
M  CHG  1   4   1
M  END
