
     RDKit          3D

 27 29  0  0  0  0  0  0  0  0999 V2000
    4.8170    1.8830   -0.6420 C   0  0  0  0  0  0  0  0  0  0  0  0
    4.4460    1.0260   -1.8170 C   0  0  0  0  0  0  0  0  0  0  0  0
    3.5200   -0.1240   -1.4600 C   0  0  0  0  0  0  0  0  0  0  0  0
    4.1640   -0.9600   -0.4840 N   0  0  0  0  0  0  0  0  0  0  0  0
    4.3920   -0.5530    0.8500 C   0  0  0  0  0  0  0  0  0  0  0  0
    3.4350   -0.1770    1.5950 N   0  0  0  0  0  0  0  0  0  0  0  0
    2.0600   -0.0970    1.2760 C   0  0  0  0  0  0  0  0  0  0  0  0
    1.4300    1.1330    1.1610 C   0  0  0  0  0  0  0  0  0  0  0  0
    0.0920    1.2260    0.8570 C   0  0  0  0  0  0  0  0  0  0  0  0
   -0.4530    2.5360    0.7800 N   0  0  0  0  0  0  0  0  0  0  0  0
   -0.7020    0.0860    0.6500 C   0  0  0  0  0  0  0  0  0  0  0  0
   -2.0930    0.3490    0.3700 C   0  0  0  0  0  0  0  0  0  0  0  0
   -2.4800    1.4860   -0.1220 N   0  0  0  0  0  0  0  0  0  0  0  0
   -3.7960    1.9040   -0.4450 C   0  0  1  0  0  0  0  0  0  0  0  0
   -4.0780    1.8120   -1.9510 C   0  0  0  0  0  0  0  0  0  0  0  0
   -4.8390    1.0840    0.2150 C   0  0  0  0  0  0  0  0  0  0  0  0
   -4.5120   -0.0470    0.7760 C   0  0  0  0  0  0  0  0  0  0  0  0
   -5.5600   -0.9120    1.4460 C   0  0  0  0  0  0  0  0  0  0  0  0
   -3.1600   -0.4500    0.8620 N   0  0  0  0  0  0  0  0  0  0  0  0
   -0.0660   -1.1090    0.7490 C   0  0  0  0  0  0  0  0  0  0  0  0
   -0.7050   -2.2730    0.3950 C   0  0  0  0  0  0  0  0  0  0  0  0
   -1.9520   -2.3320   -0.2950 N   0  0  0  0  0  0  0  0  0  0  0  0
   -0.0060   -3.4900    0.4010 C   0  0  0  0  0  0  0  0  0  0  0  0
    1.3230   -3.5180    0.7490 C   0  0  0  0  0  0  0  0  0  0  0  0
    1.9410   -4.6010    0.7620 O   0  0  0  0  0  0  0  0  0  0  0  0
    1.9720   -2.3830    1.0780 N   0  0  0  0  0  0  0  0  0  0  0  0
    1.2890   -1.2360    1.0620 C   0  0  0  0  0  0  0  0  0  0  0  0
  1  2  1  0
  2  3  1  0
  3  4  1  0
  4  5  1  0
  5  6  2  3
  6  7  1  0
  7  8  2  0
  7 27  1  0
  8  9  1  0
  9 10  1  0
  9 11  2  0
 11 12  1  0
 11 20  1  0
 12 13  2  0
 12 19  1  0
 13 14  1  0
 14 15  1  6
 14 16  1  0
 16 17  2  0
 17 18  1  0
 17 19  1  0
 20 21  1  0
 20 27  2  0
 21 22  1  0
 21 23  2  0
 23 24  1  0
 24 25  2  0
 24 26  1  0
 26 27  1  0
M  CHG  2   6   1  10   1
M  END
