
     RDKit          3D

 27 30  0  0  0  0  0  0  0  0999 V2000
   -6.1100   -1.3710   -0.6660 N   0  0  0  0  0  0  0  0  0  0  0  0
   -6.0960   -0.2030    0.1400 C   0  0  0  0  0  0  0  0  0  0  0  0
   -5.8160    1.0970   -0.4840 C   0  0  0  0  0  0  0  0  0  0  0  0
   -6.6360    1.8700   -1.2340 C   0  0  0  0  0  0  0  0  0  0  0  0
   -5.9780    3.0670   -1.3240 N   0  0  0  0  0  0  0  0  0  0  0  0
   -4.8410    2.9950   -0.6780 N   0  0  0  0  0  0  0  0  0  0  0  0
   -4.6220    1.8230   -0.1090 C   0  0  0  0  0  0  0  0  0  0  0  0
   -3.5780    1.2220    0.7060 C   0  0  0  0  0  0  0  0  0  0  0  0
   -2.7760    0.1290    0.0170 C   0  0  0  0  0  0  0  0  0  0  0  0
   -2.0000   -0.6490    0.9570 N   0  0  0  0  0  0  0  0  0  0  0  0
   -0.7570   -0.7980    1.2620 C   0  0  0  0  0  0  0  0  0  0  0  0
    0.4920   -0.4810    0.5920 C   0  0  0  0  0  0  0  0  0  0  0  0
    0.9510    0.6750    0.1030 C   0  0  0  0  0  0  0  0  0  0  0  0
    2.2290    0.8090   -0.4760 C   0  0  0  0  0  0  0  0  0  0  0  0
    3.0350   -0.3180   -0.5260 C   0  0  0  0  0  0  0  0  0  0  0  0
    4.4940   -0.2360   -0.9400 C   0  0  1  0  0  0  0  0  0  0  0  0
    4.9160    1.1510   -0.5000 C   0  0  0  0  0  0  0  0  0  0  0  0
    6.3860    1.3770   -0.4410 C   0  0  0  0  0  0  0  0  0  0  0  0
    7.1910    0.1160   -0.2080 C   0  0  0  0  0  0  0  0  0  0  0  0
    6.3190   -0.7950    0.5940 C   0  0  0  0  0  0  0  0  0  0  0  0
    5.2310   -1.2590   -0.2480 N   0  0  0  0  0  0  0  0  0  0  0  0
    2.6040   -1.5300   -0.0490 C   0  0  0  0  0  0  0  0  0  0  0  0
    1.3550   -1.6150    0.5110 C   0  0  0  0  0  0  0  0  0  0  0  0
   -0.7070   -1.6230    2.4080 N   0  0  0  0  0  0  0  0  0  0  0  0
   -1.8950   -1.9580    2.7650 N   0  0  0  0  0  0  0  0  0  0  0  0
   -2.7620   -1.3730    1.8760 C   0  0  0  0  0  0  0  0  0  0  0  0
   -3.9560   -1.5690    1.9880 O   0  0  0  0  0  0  0  0  0  0  0  0
  1  2  1  0
  2  3  1  0
  3  4  2  0
  3  7  1  0
  4  5  1  0
  5  6  1  0
  6  7  2  0
  7  8  1  0
  8  9  1  0
  9 10  1  0
 10 11  1  0
 10 26  1  0
 11 12  1  0
 11 24  2  0
 12 13  2  0
 12 23  1  0
 13 14  1  0
 14 15  2  0
 16 15  1  1
 15 22  1  0
 16 17  1  0
 16 21  1  0
 17 18  1  0
 18 19  1  0
 19 20  1  0
 20 21  1  0
 22 23  2  0
 24 25  1  0
 25 26  1  0
 26 27  2  0
M  CHG  2   1   1  21   1
M  END
