
     RDKit          3D

 27 29  0  0  0  0  0  0  0  0999 V2000
   -3.5990   -1.8220   -0.5290 C   0  0  0  0  0  0  0  0  0  0  0  0
   -3.1370   -0.9220    0.4170 N   0  0  0  0  0  0  0  0  0  0  0  0
   -2.0010   -0.1430    0.3330 C   0  0  0  0  0  0  0  0  0  0  0  0
   -0.6520   -0.7410    0.4100 C   0  0  0  0  0  0  0  0  0  0  0  0
    0.2070   -0.5030    1.4390 C   0  0  0  0  0  0  0  0  0  0  0  0
    1.4210   -1.2030    1.2600 N   0  0  0  0  0  0  0  0  0  0  0  0
    1.5280   -1.4230   -0.1520 C   0  0  2  0  0  0  0  0  0  0  0  0
    2.0260   -0.2530   -0.7930 N   0  0  0  0  0  0  0  0  0  0  0  0
    3.2980    0.3280   -0.6230 C   0  0  0  0  0  0  0  0  0  0  0  0
    3.6060    1.5200   -1.2320 C   0  0  0  0  0  0  0  0  0  0  0  0
    4.8620    2.0520   -1.0470 C   0  0  0  0  0  0  0  0  0  0  0  0
    5.8000    1.4030   -0.2630 C   0  0  0  0  0  0  0  0  0  0  0  0
    7.1370    1.9950   -0.0770 C   0  0  0  0  0  0  0  0  0  0  0  0
    7.2210    3.2330   -0.8070 N   0  0  0  0  0  0  0  0  0  0  0  0
    5.4890    0.2100    0.3450 C   0  0  0  0  0  0  0  0  0  0  0  0
    6.3740   -0.4850    1.1350 O   0  0  0  0  0  0  0  0  0  0  0  0
    4.2260   -0.3190    0.1540 C   0  0  0  0  0  0  0  0  0  0  0  0
    0.0650   -1.5670   -0.5360 C   0  0  0  0  0  0  0  0  0  0  0  0
   -0.3850   -2.2700   -1.5370 C   0  0  0  0  0  0  0  0  0  0  0  0
    0.6110   -3.0050   -2.3090 N   0  0  0  0  0  0  0  0  0  0  0  0
   -4.1020   -0.5690    1.4430 C   0  0  0  0  0  0  0  0  0  0  0  0
   -5.3330    0.0210    0.9030 C   0  0  0  0  0  0  0  0  0  0  0  0
   -6.5650   -0.5640    1.0030 N   0  0  0  0  0  0  0  0  0  0  0  0
   -7.4730    0.2290    0.4020 C   0  0  0  0  0  0  0  0  0  0  0  0
   -6.8310    1.3280   -0.0880 C   0  0  0  0  0  0  0  0  0  0  0  0
   -5.5130    1.1680    0.2380 N   0  0  0  0  0  0  0  0  0  0  0  0
   -4.4540    2.0970   -0.0900 C   0  0  0  0  0  0  0  0  0  0  0  0
  1  2  1  0
  2  3  1  0
  2 21  1  0
  3  4  1  0
  4  5  2  0
  4 18  1  0
  5  6  1  0
  6  7  1  0
  7  8  1  6
  7 18  1  0
  8  9  1  0
  9 10  2  0
  9 17  1  0
 10 11  1  0
 11 12  2  0
 12 13  1  0
 12 15  1  0
 13 14  1  0
 15 16  1  0
 15 17  2  0
 18 19  2  3
 19 20  1  0
 21 22  1  0
 22 23  2  0
 22 26  1  0
 23 24  1  0
 24 25  2  0
 25 26  1  0
 26 27  1  0
M  CHG  2  20   1  23   1
M  END
