
     RDKit          3D

 27 30  0  0  0  0  0  0  0  0999 V2000
   -4.5880    4.6380   -0.4500 C   0  0  0  0  0  0  0  0  0  0  0  0
   -3.3700    4.0660    0.0910 N   0  0  0  0  0  0  0  0  0  0  0  0
   -3.2130    2.6330    0.0200 C   0  0  0  0  0  0  0  0  0  0  0  0
   -4.0760    1.7460   -0.4990 N   0  0  0  0  0  0  0  0  0  0  0  0
   -3.6110    0.4920   -0.4000 C   0  0  0  0  0  0  0  0  0  0  0  0
   -4.0710   -0.7600   -0.7570 C   0  0  0  0  0  0  0  0  0  0  0  0
   -3.3210   -1.8920   -0.5030 C   0  0  0  0  0  0  0  0  0  0  0  0
   -3.7610   -3.1520   -0.8410 C   0  0  0  0  0  0  0  0  0  0  0  0
   -4.8800   -3.2570   -1.4050 O   0  0  0  0  0  0  0  0  0  0  0  0
   -2.9780   -4.2050   -0.5540 N   0  0  0  0  0  0  0  0  0  0  0  0
   -1.7820   -4.1180    0.0470 C   0  0  0  0  0  0  0  0  0  0  0  0
   -0.9970   -5.2870    0.3240 N   0  0  0  0  0  0  0  0  0  0  0  0
   -1.3320   -2.8950    0.3870 N   0  0  0  0  0  0  0  0  0  0  0  0
   -2.0710   -1.8090    0.1240 C   0  0  0  0  0  0  0  0  0  0  0  0
   -1.6460   -0.5330    0.4640 C   0  0  0  0  0  0  0  0  0  0  0  0
   -0.3170   -0.3730    1.0950 C   0  0  0  0  0  0  0  0  0  0  0  0
    0.7260   -0.4190    0.0250 C   0  0  0  0  0  0  0  0  0  0  0  0
    2.0680   -0.2870    0.5220 N   0  0  0  0  0  0  0  0  0  0  0  0
    2.7220    0.8430   -0.0610 C   0  0  0  0  0  0  0  0  0  0  0  0
    4.1740    0.8690    0.1560 C   0  0  0  0  0  0  0  0  0  0  0  0
    4.8910   -0.0730    0.8440 C   0  0  0  0  0  0  0  0  0  0  0  0
    6.2690    0.0620    0.9830 C   0  0  0  0  0  0  0  0  0  0  0  0
    6.9620    1.1310    0.4460 C   0  0  0  0  0  0  0  0  0  0  0  0
    6.2340    2.0750   -0.2450 C   0  0  0  0  0  0  0  0  0  0  0  0
    4.8830    1.9390   -0.3800 C   0  0  0  0  0  0  0  0  0  0  0  0
   -2.3840    0.6050    0.2180 C   0  0  0  0  0  0  0  0  0  0  0  0
   -2.1680    1.9050    0.4600 N   0  0  0  0  0  0  0  0  0  0  0  0
  1  2  1  0
  2  3  1  0
  3  4  2  0
  3 27  1  0
  4  5  1  0
  5  6  2  0
  5 26  1  0
  6  7  1  0
  7  8  1  0
  7 14  2  0
  8  9  2  0
  8 10  1  0
 10 11  1  0
 11 12  1  0
 11 13  2  0
 13 14  1  0
 14 15  1  0
 15 16  1  0
 15 26  2  0
 16 17  1  0
 17 18  1  0
 18 19  1  0
 19 20  1  0
 20 21  2  0
 20 25  1  0
 21 22  1  0
 22 23  2  0
 23 24  1  0
 24 25  2  0
 26 27  1  0
M  CHG  2  13   1  18   1
M  END
