
     RDKit          3D

 23 25  0  0  0  0  0  0  0  0999 V2000
   -3.0600   -2.0040    1.8240 C   0  0  0  0  0  0  0  0  0  0  0  0
   -1.9230   -2.5100    1.0260 C   0  0  0  0  0  0  0  0  0  0  0  0
   -1.7210   -1.7800   -0.3240 C   0  0  0  0  0  0  0  0  0  0  0  0
   -1.6510   -0.3520    0.0480 N   0  0  0  0  0  0  0  0  0  0  0  0
   -0.5080   -0.1210    0.7970 C   0  0  0  0  0  0  0  0  0  0  0  0
    0.7980   -0.0130    0.1510 C   0  0  0  0  0  0  0  0  0  0  0  0
    1.1350    0.2910   -1.0930 N   0  0  0  0  0  0  0  0  0  0  0  0
    2.4540    0.4100   -1.2110 C   0  0  0  0  0  0  0  0  0  0  0  0
    3.0470    0.1660   -0.0040 C   0  0  0  0  0  0  0  0  0  0  0  0
    4.4200   -0.0950    0.2820 N   0  0  0  0  0  0  0  0  0  0  0  0
    5.5460    0.4260   -0.2760 C   0  0  0  0  0  0  0  0  0  0  0  0
    5.7560    1.4500   -1.1330 N   0  0  0  0  0  0  0  0  0  0  0  0
    7.0800    1.4000   -1.5140 C   0  0  0  0  0  0  0  0  0  0  0  0
    7.6640    0.3440   -0.8790 N   0  0  0  0  0  0  0  0  0  0  0  0
    6.7670   -0.2310   -0.1480 N   0  0  0  0  0  0  0  0  0  0  0  0
    2.0070   -0.0980    0.8600 C   0  0  0  0  0  0  0  0  0  0  0  0
    2.1450   -0.3480    2.2310 C   0  0  0  0  0  0  0  0  0  0  0  0
    2.2490   -0.5480    3.3740 N   0  0  0  0  0  0  0  0  0  0  0  0
   -2.2900    0.4620   -0.8620 C   0  0  2  0  0  0  0  0  0  0  0  0
   -2.4650    1.8790   -0.4450 C   0  0  0  0  0  0  0  0  0  0  0  0
   -3.8400    2.2850   -1.0510 C   0  0  0  0  0  0  0  0  0  0  0  0
   -4.6400    1.0200   -0.6720 C   0  0  0  0  0  0  0  0  0  0  0  0
   -3.7020   -0.0600   -1.1890 C   0  0  0  0  0  0  0  0  0  0  0  0
  1  2  1  0
  2  3  1  0
  3  4  1  0
  4  5  1  0
 19  4  1  1
  5  6  1  0
  6  7  1  0
  6 16  2  0
  7  8  1  0
  8  9  2  0
  9 10  1  0
  9 16  1  0
 10 11  1  0
 11 12  1  0
 11 15  2  0
 12 13  2  0
 13 14  1  0
 14 15  1  0
 16 17  1  0
 17 18  3  0
 19 20  1  0
 19 23  1  0
 20 21  1  0
 21 22  1  0
 22 23  1  0
M  END
