
     RDKit          3D

 18 19  0  0  0  0  0  0  0  0999 V2000
    4.6800    1.0680    0.5950 C   0  0  0  0  0  0  0  0  0  0  0  0
    3.3180    1.0450   -0.1190 C   0  0  0  0  0  0  0  0  0  0  0  0
    2.4470    0.1270    0.6680 C   0  0  0  0  0  0  0  0  0  0  0  0
    1.0390   -0.0320    0.0970 C   0  0  2  0  0  0  0  0  0  0  0  0
    0.4210    1.3100    0.0900 C   0  0  0  0  0  0  0  0  0  0  0  0
   -0.9200    1.4210   -0.3920 N   0  0  0  0  0  0  0  0  0  0  0  0
   -2.0490    0.8980    0.3810 C   0  0  0  0  0  0  0  0  0  0  0  0
   -2.0890    1.0340    1.6610 N   0  0  0  0  0  0  0  0  0  0  0  0
   -3.5340    0.3130    2.2600 S   0  0  1  0  0  0  0  0  0  0  0  0
   -3.2850   -0.5230    3.4650 O   0  0  0  0  0  0  0  0  0  0  0  0
   -4.6430    1.2820    2.4160 O   0  0  0  0  0  0  0  0  0  0  0  0
   -3.7970   -0.7490    0.8070 C   0  0  0  0  0  0  0  0  0  0  0  0
   -3.2250    0.2340   -0.1980 C   0  0  2  0  0  0  0  0  0  0  0  0
   -2.9270   -0.4350   -1.5150 C   0  0  0  0  0  0  0  0  0  0  0  0
    0.3560   -1.0890    0.8890 C   0  0  0  0  0  0  0  0  0  0  0  0
    0.9000   -2.3460    0.2030 C   0  0  0  0  0  0  0  0  0  0  0  0
    0.7020   -2.0050   -1.1270 O   0  0  0  0  0  0  0  0  0  0  0  0
    1.1070   -0.6860   -1.2730 C   0  0  0  0  0  0  0  0  0  0  0  0
  1  2  1  0
  2  3  1  0
  4  3  1  1
  4  5  1  0
  4 15  1  0
  4 18  1  0
  5  6  1  0
  6  7  1  0
  7  8  2  0
  7 13  1  0
  8  9  1  0
  9 10  2  0
  9 11  2  0
  9 12  1  6
 12 13  1  0
 13 14  1  6
 15 16  1  0
 16 17  1  0
 17 18  1  0
M  END
