
     RDKit          3D

 20 22  0  0  0  0  0  0  0  0999 V2000
    5.5340    0.0650    0.1670 C   0  0  0  0  0  0  0  0  0  0  0  0
    4.3710    0.9200    0.1950 N   0  0  0  0  0  0  0  0  0  0  0  0
    3.0600    0.3720    0.2100 C   0  0  0  0  0  0  0  0  0  0  0  0
    1.8950    1.0130    0.2360 N   0  0  0  0  0  0  0  0  0  0  0  0
    0.8700    0.1360    0.2420 C   0  0  0  0  0  0  0  0  0  0  0  0
   -0.5020    0.3460    0.2660 C   0  0  0  0  0  0  0  0  0  0  0  0
   -1.0770    1.7100    0.2910 C   0  0  0  0  0  0  0  0  0  0  0  0
   -0.9920    2.3590   -1.0750 C   0  0  0  0  0  0  0  0  0  0  0  0
   -1.5610    3.6780   -0.9940 N   0  0  0  0  0  0  0  0  0  0  0  0
   -1.3130   -0.7740    0.2670 C   0  0  0  0  0  0  0  0  0  0  0  0
   -2.6550   -0.5710    0.2910 N   0  0  0  0  0  0  0  0  0  0  0  0
   -3.5040   -1.6180    0.2930 C   0  0  0  0  0  0  0  0  0  0  0  0
   -4.9160   -1.4500    0.3180 N   0  0  0  0  0  0  0  0  0  0  0  0
   -2.9770   -2.8560    0.2710 N   0  0  0  0  0  0  0  0  0  0  0  0
   -1.6560   -3.1080    0.2480 C   0  0  0  0  0  0  0  0  0  0  0  0
   -1.1600   -4.2550    0.2270 O   0  0  0  0  0  0  0  0  0  0  0  0
   -0.7730   -2.0430    0.2450 C   0  0  0  0  0  0  0  0  0  0  0  0
    0.5910   -2.2280    0.2220 C   0  0  0  0  0  0  0  0  0  0  0  0
    1.4300   -1.1210    0.2200 C   0  0  0  0  0  0  0  0  0  0  0  0
    2.7560   -0.9520    0.2010 N   0  0  0  0  0  0  0  0  0  0  0  0
  1  2  1  0
  2  3  1  0
  3  4  2  0
  3 20  1  0
  4  5  1  0
  5  6  2  0
  5 19  1  0
  6  7  1  0
  6 10  1  0
  7  8  1  0
  8  9  1  0
 10 11  1  0
 10 17  2  0
 11 12  2  0
 12 13  1  0
 12 14  1  0
 14 15  1  0
 15 16  2  0
 15 17  1  0
 17 18  1  0
 18 19  2  0
 19 20  1  0
M  CHG  1   9   1
M  END
