
     RDKit          3D

 33 37  0  0  0  0  0  0  0  0999 V2000
    2.1850   -3.2950    1.0960 C   0  0  0  0  0  0  0  0  0  0  0  0
    1.1270   -3.0930    0.1190 N   0  0  1  0  0  0  0  0  0  0  0  0
   -0.0040   -2.5230    0.7510 C   0  0  0  0  0  0  0  0  0  0  0  0
   -0.7230   -1.5000   -0.0400 C   0  0  0  0  0  0  0  0  0  0  0  0
   -0.4820   -1.1670   -1.2800 C   0  0  0  0  0  0  0  0  0  0  0  0
   -1.1830   -0.1590   -2.0820 C   0  0  0  0  0  0  0  0  0  0  0  0
   -2.3230    0.5530   -1.4780 C   0  0  0  0  0  0  0  0  0  0  0  0
   -3.4660   -0.2240   -1.1130 N   0  0  0  0  0  0  0  0  0  0  0  0
   -4.0480    0.2970    0.0690 C   0  0  2  0  0  0  0  0  0  0  0  0
   -4.7380   -0.7440    0.9210 C   0  0  0  0  0  0  0  0  0  0  0  0
   -4.9870   -0.1960    2.2830 C   0  0  0  0  0  0  0  0  0  0  0  0
   -5.0720    1.2900    2.3530 C   0  0  0  0  0  0  0  0  0  0  0  0
   -5.5380    1.9140    1.0830 C   0  0  0  0  0  0  0  0  0  0  0  0
   -6.4410    2.9440    1.0500 C   0  0  0  0  0  0  0  0  0  0  0  0
   -6.8050    3.4560   -0.1750 C   0  0  0  0  0  0  0  0  0  0  0  0
   -6.2950    2.9690   -1.3590 C   0  0  0  0  0  0  0  0  0  0  0  0
   -5.3750    1.9200   -1.3260 C   0  0  0  0  0  0  0  0  0  0  0  0
   -5.0090    1.4060   -0.1030 C   0  0  0  0  0  0  0  0  0  0  0  0
    0.6380   -1.9000   -1.9600 C   0  0  0  0  0  0  0  0  0  0  0  0
    1.6770   -2.4100   -1.0020 C   0  0  1  0  0  0  0  0  0  0  0  0
    2.7360   -1.4170   -0.6880 C   0  0  0  0  0  0  0  0  0  0  0  0
    2.6040   -0.5160    0.3160 C   0  0  0  0  0  0  0  0  0  0  0  0
    3.6200    0.4060    0.5850 C   0  0  0  0  0  0  0  0  0  0  0  0
    4.7930    0.4530   -0.1400 C   0  0  0  0  0  0  0  0  0  0  0  0
    4.9230   -0.4650   -1.1600 C   0  0  0  0  0  0  0  0  0  0  0  0
    3.9240   -1.3780   -1.4310 C   0  0  0  0  0  0  0  0  0  0  0  0
    6.1400   -0.2170   -1.7110 N   0  0  0  0  0  0  0  0  0  0  0  0
    6.7220    0.8000   -1.0580 C   0  0  0  0  0  0  0  0  0  0  0  0
    7.8730    1.2920   -1.3160 O   0  0  0  0  0  0  0  0  0  0  0  0
    5.9030    1.2150   -0.0960 N   0  0  0  0  0  0  0  0  0  0  0  0
    6.1440    2.2900    0.8380 C   0  0  0  0  0  0  0  0  0  0  0  0
    6.8340    1.7540    2.0870 C   0  0  0  0  0  0  0  0  0  0  0  0
    8.0440    1.1650    1.8210 O   0  0  0  0  0  0  0  0  0  0  0  0
  2  1  1  1
  2  3  1  0
  2 20  1  0
  3  4  1  0
  4  5  2  0
  5  6  1  0
  5 19  1  0
  6  7  1  0
  7  8  1  0
  9  8  1  6
  9 10  1  0
  9 18  1  0
 10 11  1  0
 11 12  1  0
 12 13  1  0
 13 14  2  0
 13 18  1  0
 14 15  1  0
 15 16  2  0
 16 17  1  0
 17 18  2  0
 19 20  1  0
 20 21  1  1
 21 22  2  0
 21 26  1  0
 22 23  1  0
 23 24  2  0
 24 25  1  0
 24 30  1  0
 25 26  2  0
 25 27  1  0
 27 28  1  0
 28 29  2  0
 28 30  1  0
 30 31  1  0
 31 32  1  0
 32 33  1  0
M  CHG  2   2   1   8   1
M  END
