
     RDKit          3D

 33 35  0  0  0  0  0  0  0  0999 V2000
   -7.7710    0.0900   -2.3650 C   0  0  0  0  0  0  0  0  0  0  0  0
   -7.1910    1.0650   -1.6810 C   0  0  0  0  0  0  0  0  0  0  0  0
   -6.7200    0.8350   -0.2890 C   0  0  2  0  0  0  0  0  0  0  0  0
   -7.5460    1.5770    0.7160 C   0  0  0  0  0  0  0  0  0  0  0  0
   -6.8050    2.5600    1.5540 C   0  0  0  0  0  0  0  0  0  0  0  0
   -5.9080    1.6870    2.8710 S   0  0  0  0  0  0  0  0  0  0  0  0
   -4.3800    0.9650    2.2100 C   0  0  0  0  0  0  0  0  0  0  0  0
   -4.7340    0.1640    0.9810 C   0  0  2  0  0  0  0  0  0  0  0  0
   -3.6030   -0.6270    0.5820 N   0  0  0  0  0  0  0  0  0  0  0  0
   -3.6810   -2.0840    0.6260 C   0  0  0  0  0  0  0  0  0  0  0  0
   -2.3640   -0.0600    0.1300 C   0  0  0  0  0  0  0  0  0  0  0  0
   -2.2810    1.1930    0.1010 O   0  0  0  0  0  0  0  0  0  0  0  0
   -1.2800   -0.8740   -0.2680 N   0  0  0  0  0  0  0  0  0  0  0  0
   -0.0220   -0.3390   -0.7230 C   0  0  2  0  0  0  0  0  0  0  0  0
    0.1810   -0.6650   -2.1820 C   0  0  0  0  0  0  0  0  0  0  0  0
   -0.9630   -0.0350   -2.9830 C   0  0  0  0  0  0  0  0  0  0  0  0
    1.0640   -0.8890    0.1310 C   0  0  0  0  0  0  0  0  0  0  0  0
    0.7550   -1.6680    1.0450 O   0  0  0  0  0  0  0  0  0  0  0  0
    2.4300   -0.5460   -0.0740 N   0  0  0  0  0  0  0  0  0  0  0  0
    3.5260   -1.0110    0.6750 C   0  0  0  0  0  0  0  0  0  0  0  0
    3.4340   -1.8560    1.7430 C   0  0  0  0  0  0  0  0  0  0  0  0
    4.5450   -2.3090    2.4760 C   0  0  0  0  0  0  0  0  0  0  0  0
    5.7860   -1.9020    2.1280 C   0  0  0  0  0  0  0  0  0  0  0  0
    5.9230   -1.0510    1.0570 C   0  0  0  0  0  0  0  0  0  0  0  0
    7.1850   -0.6130    0.6670 C   0  0  0  0  0  0  0  0  0  0  0  0
    7.4050    0.2330   -0.3910 C   0  0  0  0  0  0  0  0  0  0  0  0
    8.7170    0.6440   -0.7420 N   0  0  0  0  0  0  0  0  0  0  0  0
    9.8340    0.1870    0.0620 C   0  0  0  0  0  0  0  0  0  0  0  0
    8.9870    1.4560   -1.8230 N   0  0  0  0  0  0  0  0  0  0  0  0
    6.2920    0.6470   -1.0750 C   0  0  0  0  0  0  0  0  0  0  0  0
    5.0010    0.2440   -0.7330 C   0  0  0  0  0  0  0  0  0  0  0  0
    4.8110   -0.6020    0.3290 C   0  0  0  0  0  0  0  0  0  0  0  0
   -5.2300    1.0590   -0.1400 C   0  0  0  0  0  0  0  0  0  0  0  0
  1  2  2  0
  3  2  1  6
  3  4  1  0
  3 33  1  0
  4  5  1  0
  5  6  1  0
  6  7  1  0
  7  8  1  0
  8  9  1  6
  8 33  1  0
  9 10  1  0
  9 11  1  0
 11 12  2  0
 11 13  1  0
 13 14  1  0
 14 15  1  6
 14 17  1  0
 15 16  1  0
 17 18  2  0
 17 19  1  0
 19 20  1  0
 20 21  2  0
 20 32  1  0
 21 22  1  0
 22 23  2  0
 23 24  1  0
 24 25  2  0
 24 32  1  0
 25 26  1  0
 26 27  1  0
 26 30  2  0
 27 28  1  0
 27 29  1  0
 30 31  1  0
 31 32  2  0
M  END
