
     RDKit          3D

 33 35  0  0  0  0  0  0  0  0999 V2000
   -6.3770    1.6410   -2.6870 C   0  0  0  0  0  0  0  0  0  0  0  0
   -6.5720    0.3270   -1.9580 C   0  0  0  0  0  0  0  0  0  0  0  0
   -6.7720    0.3560   -0.3680 S   0  0  0  0  0  0  0  0  0  0  0  0
   -6.9440   -1.2640   -0.1620 C   0  0  0  0  0  0  0  0  0  0  0  0
   -8.0610    1.3810   -0.6130 O   0  0  0  0  0  0  0  0  0  0  0  0
   -5.2280    1.1050   -0.1470 C   0  0  0  0  0  0  0  0  0  0  0  0
   -5.1230    2.4450   -0.2400 C   0  0  0  0  0  0  0  0  0  0  0  0
   -3.8850    3.0290   -0.0680 C   0  0  0  0  0  0  0  0  0  0  0  0
   -2.7790    2.2030    0.1970 C   0  0  0  0  0  0  0  0  0  0  0  0
   -2.9050    0.8430    0.2890 C   0  0  0  0  0  0  0  0  0  0  0  0
   -1.8290   -0.0270    0.5750 N   0  0  0  0  0  0  0  0  0  0  0  0
   -1.8550   -1.3320    0.0950 N   0  0  0  0  0  0  0  0  0  0  0  0
   -0.9310   -2.1950    0.3200 C   0  0  0  0  0  0  0  0  0  0  0  0
   -1.0260   -3.5970   -0.2330 C   0  0  0  0  0  0  0  0  0  0  0  0
    0.2790   -1.9100    1.1100 C   0  0  0  0  0  0  0  0  0  0  0  0
    0.3540   -0.5690    1.6430 N   0  0  0  0  0  0  0  0  0  0  0  0
    1.5070   -0.2100    2.4390 C   0  0  1  0  0  0  0  0  0  0  0  0
    1.7080   -1.2600    3.5520 C   0  0  0  0  0  0  0  0  0  0  0  0
    2.7230    0.0510    1.6710 C   0  0  0  0  0  0  0  0  0  0  0  0
    3.8390    0.2530    2.2590 O   0  0  0  0  0  0  0  0  0  0  0  0
    2.8000    0.1100    0.2480 N   0  0  0  0  0  0  0  0  0  0  0  0
    4.0090    0.3650   -0.4370 C   0  0  0  0  0  0  0  0  0  0  0  0
    4.1130    1.4210   -1.2280 C   0  0  0  0  0  0  0  0  0  0  0  0
    5.2720    1.8740   -2.0320 C   0  0  0  0  0  0  0  0  0  0  0  0
    6.5520    1.6020   -1.8330 C   0  0  0  0  0  0  0  0  0  0  0  0
    7.1340    0.7870   -0.7670 C   0  0  2  0  0  0  0  0  0  0  0  0
    8.5760    0.4990   -1.1490 C   0  0  0  0  0  0  0  0  0  0  0  0
    6.4120   -0.4050   -0.3580 C   0  0  0  0  0  0  0  0  0  0  0  0
    5.1000   -0.5920   -0.2160 C   0  0  0  0  0  0  0  0  0  0  0  0
    4.6290   -1.9360    0.2300 C   0  0  0  0  0  0  0  0  0  0  0  0
   -0.6860    0.3530    1.3700 C   0  0  0  0  0  0  0  0  0  0  0  0
   -0.6410    1.5540    1.8350 N   0  0  0  0  0  0  0  0  0  0  0  0
   -4.1850    0.3030    0.1060 C   0  0  0  0  0  0  0  0  0  0  0  0
  1  2  1  0
  2  3  1  0
  3  4  1  0
  3  5  2  0
  3  6  1  0
  6  7  2  0
  6 33  1  0
  7  8  1  0
  8  9  2  0
  9 10  1  0
 10 11  1  0
 10 33  2  0
 11 12  1  0
 11 31  1  0
 12 13  2  0
 13 14  1  0
 13 15  1  0
 15 16  1  0
 16 17  1  0
 16 31  1  0
 17 18  1  1
 17 19  1  0
 19 20  2  0
 19 21  1  0
 21 22  1  0
 22 23  2  0
 22 29  1  0
 23 24  1  0
 24 25  2  0
 25 26  1  0
 26 27  1  6
 26 28  1  0
 28 29  2  0
 29 30  1  0
 31 32  2  0
M  END
