
     RDKit          3D

 37 41  0  0  0  0  0  0  0  0999 V2000
   -8.0280   -1.7710   -2.2580 N   0  0  0  0  0  0  0  0  0  0  0  0
   -6.8860   -1.5640   -1.4300 C   0  0  0  0  0  0  0  0  0  0  0  0
   -6.5930   -2.4430   -0.4080 C   0  0  0  0  0  0  0  0  0  0  0  0
   -5.4960   -2.2640    0.4040 C   0  0  0  0  0  0  0  0  0  0  0  0
   -4.6390   -1.1990    0.2340 C   0  0  0  0  0  0  0  0  0  0  0  0
   -3.5220   -0.7720    0.8490 N   0  0  0  0  0  0  0  0  0  0  0  0
   -3.0770    0.3650    0.2550 C   0  0  0  0  0  0  0  0  0  0  0  0
   -1.8470    1.1330    0.6690 C   0  0  1  0  0  0  0  0  0  0  0  0
   -1.9860    1.6710    2.0370 C   0  0  0  0  0  0  0  0  0  0  0  0
   -0.9810    1.1150    2.9860 C   0  0  0  0  0  0  0  0  0  0  0  0
    0.3990    1.4290    2.4090 C   0  0  0  0  0  0  0  0  0  0  0  0
    0.5330    0.7640    1.1240 N   0  0  0  0  0  0  0  0  0  0  0  0
    1.8200    0.5660    0.5970 C   0  0  0  0  0  0  0  0  0  0  0  0
    2.9370    1.0750    1.1330 N   0  0  0  0  0  0  0  0  0  0  0  0
    4.1460    0.8450    0.5910 C   0  0  0  0  0  0  0  0  0  0  0  0
    5.3490    1.4130    1.1830 C   0  0  0  0  0  0  0  0  0  0  0  0
    6.4520    1.1660    0.6380 O   0  0  0  0  0  0  0  0  0  0  0  0
    5.2790    2.2370    2.3630 C   0  0  0  0  0  0  0  0  0  0  0  0
    6.3820    2.7460    2.8850 C   0  0  0  0  0  0  0  0  0  0  0  0
    6.3400    3.5570    4.0410 N   0  0  0  0  0  0  0  0  0  0  0  0
    6.0460    3.0300    5.2360 F   0  0  0  0  0  0  0  0  0  0  0  0
    6.6020    4.8860    3.9570 F   0  0  0  0  0  0  0  0  0  0  0  0
    4.2340    0.0730   -0.5340 N   0  0  0  0  0  0  0  0  0  0  0  0
    3.1380   -0.4510   -1.0950 C   0  0  0  0  0  0  0  0  0  0  0  0
    3.2400   -1.2830   -2.3080 C   0  0  0  0  0  0  0  0  0  0  0  0
    4.4480   -1.5540   -2.8940 C   0  0  0  0  0  0  0  0  0  0  0  0
    4.5040   -2.3190   -4.0150 C   0  0  0  0  0  0  0  0  0  0  0  0
    5.6870   -2.5910   -4.5990 F   0  0  0  0  0  0  0  0  0  0  0  0
    3.3740   -2.8540   -4.6100 C   0  0  0  0  0  0  0  0  0  0  0  0
    2.1540   -2.5820   -4.0190 C   0  0  0  0  0  0  0  0  0  0  0  0
    1.0120   -3.0970   -4.5840 F   0  0  0  0  0  0  0  0  0  0  0  0
    2.0970   -1.8060   -2.8840 C   0  0  0  0  0  0  0  0  0  0  0  0
    1.9540   -0.1960   -0.5210 N   0  0  0  0  0  0  0  0  0  0  0  0
   -0.6180    0.3150    0.3860 C   0  0  0  0  0  0  0  0  0  0  0  0
   -3.9410    0.6240   -0.7300 N   0  0  0  0  0  0  0  0  0  0  0  0
   -4.9170   -0.2980   -0.7910 C   0  0  0  0  0  0  0  0  0  0  0  0
   -6.0260   -0.4920   -1.6020 C   0  0  0  0  0  0  0  0  0  0  0  0
  1  2  1  0
  2  3  2  0
  2 37  1  0
  3  4  1  0
  4  5  2  0
  5  6  1  0
  5 36  1  0
  6  7  2  0
  8  7  1  1
  7 35  1  0
  8  9  1  0
  8 34  1  0
  9 10  1  0
 10 11  1  0
 11 12  1  0
 12 13  1  0
 12 34  1  0
 13 14  2  0
 13 33  1  0
 14 15  1  0
 15 16  1  0
 15 23  2  0
 16 17  2  0
 16 18  1  0
 18 19  2  3
 19 20  1  0
 20 21  1  0
 20 22  1  0
 23 24  1  0
 24 25  1  0
 24 33  2  0
 25 26  2  0
 25 32  1  0
 26 27  1  0
 27 28  1  0
 27 29  2  0
 29 30  1  0
 30 31  1  0
 30 32  2  0
 35 36  1  0
 36 37  2  0
M  CHG  1   6   1
M  END
