
     RDKit          3D

 38 42  0  0  0  0  0  0  0  0999 V2000
   -4.3790    3.9820    0.1150 C   0  0  0  0  0  0  0  0  0  0  0  0
   -3.2500    3.2350    0.6330 N   0  0  0  0  0  0  0  0  0  0  0  0
   -3.5430    1.8330    0.6800 C   0  0  0  0  0  0  0  0  0  0  0  0
   -4.2920    1.2940    1.6870 C   0  0  0  0  0  0  0  0  0  0  0  0
   -4.5480   -0.0580    1.6910 C   0  0  0  0  0  0  0  0  0  0  0  0
   -4.0500   -0.8730    0.6790 C   0  0  0  0  0  0  0  0  0  0  0  0
   -3.2790   -0.3540   -0.3670 C   0  0  0  0  0  0  0  0  0  0  0  0
   -3.0580    1.0060   -0.3150 C   0  0  0  0  0  0  0  0  0  0  0  0
   -2.7920   -1.2010   -1.3920 N   0  0  0  0  0  0  0  0  0  0  0  0
   -1.9750   -0.6740   -2.4230 C   0  0  0  0  0  0  0  0  0  0  0  0
   -0.5720   -0.3050   -2.0850 C   0  0  0  0  0  0  0  0  0  0  0  0
    0.2280   -1.4900   -1.5740 C   0  0  0  0  0  0  0  0  0  0  0  0
    1.5930   -1.1520   -1.2360 N   0  0  0  0  0  0  0  0  0  0  0  0
    1.8810   -0.2140   -0.2330 C   0  0  0  0  0  0  0  0  0  0  0  0
    0.8490    0.3030    0.3340 O   0  0  0  0  0  0  0  0  0  0  0  0
    3.1590    0.2340    0.2390 C   0  0  0  0  0  0  0  0  0  0  0  0
    3.2160    1.2980    1.1640 C   0  0  0  0  0  0  0  0  0  0  0  0
    4.3850    1.8340    1.5980 C   0  0  0  0  0  0  0  0  0  0  0  0
    4.4560    2.8750    2.5010 C   0  0  0  0  0  0  0  0  0  0  0  0
    5.6540    3.4080    2.9300 C   0  0  0  0  0  0  0  0  0  0  0  0
    5.6780    4.4420    3.8280 F   0  0  0  0  0  0  0  0  0  0  0  0
    6.7970    2.8930    2.4500 N   0  0  0  0  0  0  0  0  0  0  0  0
    6.7740    1.8750    1.5650 C   0  0  0  0  0  0  0  0  0  0  0  0
    5.5760    1.3410    1.1350 C   0  0  0  0  0  0  0  0  0  0  0  0
    5.5840    0.2990    0.2290 C   0  0  0  0  0  0  0  0  0  0  0  0
    4.3500   -0.2290   -0.1940 C   0  0  0  0  0  0  0  0  0  0  0  0
    4.4670   -1.2690   -1.0830 O   0  0  0  0  0  0  0  0  0  0  0  0
    4.6420   -2.6190   -0.6530 C   0  0  2  0  0  0  0  0  0  0  0  0
    4.7170   -3.4080   -1.7720 F   0  0  0  0  0  0  0  0  0  0  0  0
    3.6320   -2.9500    0.1960 F   0  0  0  0  0  0  0  0  0  0  0  0
    5.8650   -2.6410    0.0110 F   0  0  0  0  0  0  0  0  0  0  0  0
   -3.1110   -2.6060   -1.3320 C   0  0  0  0  0  0  0  0  0  0  0  0
   -2.6730   -3.4560   -2.2840 N   0  0  0  0  0  0  0  0  0  0  0  0
   -2.9370   -4.7500   -2.2770 N   0  0  0  0  0  0  0  0  0  0  0  0
   -3.6750   -5.2980   -1.2940 C   0  0  0  0  0  0  0  0  0  0  0  0
   -4.1220   -4.4680   -0.3350 N   0  0  0  0  0  0  0  0  0  0  0  0
   -3.8680   -3.1540   -0.3190 C   0  0  0  0  0  0  0  0  0  0  0  0
   -4.3340   -2.2660    0.6880 N   0  0  0  0  0  0  0  0  0  0  0  0
  1  2  1  0
  2  3  1  0
  3  4  2  0
  3  8  1  0
  4  5  1  0
  5  6  2  0
  6  7  1  0
  6 38  1  0
  7  8  2  0
  7  9  1  0
  9 10  1  0
  9 32  1  0
 10 11  1  0
 11 12  1  0
 12 13  1  0
 13 14  1  0
 14 15  2  0
 14 16  1  0
 16 17  2  0
 16 26  1  0
 17 18  1  0
 18 19  2  0
 18 24  1  0
 19 20  1  0
 20 21  1  0
 20 22  2  0
 22 23  1  0
 23 24  2  0
 24 25  1  0
 25 26  2  0
 26 27  1  0
 27 28  1  0
 28 29  1  6
 28 30  1  0
 28 31  1  0
 32 33  2  0
 32 37  1  0
 33 34  1  0
 34 35  2  0
 35 36  1  0
 36 37  2  0
 37 38  1  0
M  CHG  1   2   1
M  END
