
     RDKit          3D

 38 42  0  0  0  0  0  0  0  0999 V2000
    7.4750   -1.6940    1.8780 N   0  0  0  0  0  0  0  0  0  0  0  0
    6.3200   -1.4040    1.5630 C   0  0  0  0  0  0  0  0  0  0  0  0
    5.2760   -1.0420    2.5000 N   0  0  0  0  0  0  0  0  0  0  0  0
    4.0890   -0.7670    1.7970 C   0  0  0  0  0  0  0  0  0  0  0  0
    2.8240   -0.3760    2.2490 C   0  0  0  0  0  0  0  0  0  0  0  0
    1.7840   -0.1490    1.3600 C   0  0  0  0  0  0  0  0  0  0  0  0
    1.9670   -0.3030   -0.0020 C   0  0  0  0  0  0  0  0  0  0  0  0
    0.8660   -0.0360   -0.9570 C   0  0  0  0  0  0  0  0  0  0  0  0
   -0.2770    0.4870   -0.3150 O   0  0  0  0  0  0  0  0  0  0  0  0
   -1.3940    0.8290   -1.0710 C   0  0  0  0  0  0  0  0  0  0  0  0
   -1.2900    0.6350   -2.3370 O   0  0  0  0  0  0  0  0  0  0  0  0
   -2.6150    1.3730   -0.5080 C   0  0  0  0  0  0  0  0  0  0  0  0
   -3.5910    0.4160   -0.1800 C   0  0  0  0  0  0  0  0  0  0  0  0
   -3.4270   -0.9740   -0.4260 N   0  0  0  0  0  0  0  0  0  0  0  0
   -2.3440   -1.6930    0.1360 C   0  0  0  0  0  0  0  0  0  0  0  0
   -2.7800   -3.0520    0.6130 C   0  0  0  0  0  0  0  0  0  0  0  0
   -3.6410   -3.7190   -0.3400 N   0  0  0  0  0  0  0  0  0  0  0  0
   -4.8220   -2.9150   -0.6120 C   0  0  0  0  0  0  0  0  0  0  0  0
   -4.4010   -1.5970   -1.2690 C   0  0  0  0  0  0  0  0  0  0  0  0
   -4.7470    0.8720    0.3680 N   0  0  0  0  0  0  0  0  0  0  0  0
   -4.9300    2.1770    0.5780 C   0  0  0  0  0  0  0  0  0  0  0  0
   -5.9850    2.8650    1.1000 N   0  0  0  0  0  0  0  0  0  0  0  0
   -5.6770    4.1810    1.0960 C   0  0  0  0  0  0  0  0  0  0  0  0
   -4.4530    4.2510    0.5750 N   0  0  0  0  0  0  0  0  0  0  0  0
   -3.9850    3.0570    0.2560 N   0  0  0  0  0  0  0  0  0  0  0  0
   -2.7780    2.7100   -0.3020 C   0  0  0  0  0  0  0  0  0  0  0  0
   -1.8280    3.7470   -0.5960 C   0  0  0  0  0  0  0  0  0  0  0  0
   -0.6500    3.7060   -1.1170 C   0  0  0  0  0  0  0  0  0  0  0  0
    0.1090    5.0120   -1.2930 C   0  0  2  0  0  0  0  0  0  0  0  0
    1.0040    4.8950   -2.3390 F   0  0  0  0  0  0  0  0  0  0  0  0
    0.8540    5.2050   -0.1330 F   0  0  0  0  0  0  0  0  0  0  0  0
   -0.7970    6.0120   -1.5140 F   0  0  0  0  0  0  0  0  0  0  0  0
    3.2220   -0.6900   -0.4190 C   0  0  0  0  0  0  0  0  0  0  0  0
    4.2650   -0.9190    0.4520 C   0  0  0  0  0  0  0  0  0  0  0  0
    5.6810   -1.3290    0.2360 C   0  0  0  0  0  0  0  0  0  0  0  0
    6.1810   -1.5500   -0.9340 C   0  0  0  0  0  0  0  0  0  0  0  0
    7.5290   -1.9420   -1.3090 C   0  0  0  0  0  0  0  0  0  0  0  0
    8.4000   -2.1030   -0.2890 F   0  0  0  0  0  0  0  0  0  0  0  0
  1  2  2  0
  2  3  1  0
  2 35  1  0
  3  4  1  0
  4  5  2  0
  4 34  1  0
  5  6  1  0
  6  7  2  0
  7  8  1  0
  7 33  1  0
  8  9  1  0
  9 10  1  0
 10 11  2  0
 10 12  1  0
 12 13  1  0
 12 26  2  0
 13 14  1  0
 13 20  2  0
 14 15  1  0
 14 19  1  0
 15 16  1  0
 16 17  1  0
 17 18  1  0
 18 19  1  0
 20 21  1  0
 21 22  2  0
 21 25  1  0
 22 23  1  0
 23 24  2  0
 24 25  1  0
 25 26  1  0
 26 27  1  0
 27 28  2  3
 28 29  1  0
 29 30  1  6
 29 31  1  0
 29 32  1  0
 33 34  2  0
 34 35  1  0
 35 36  2  3
 36 37  1  0
 37 38  1  0
M  CHG  1  17   1
M  END
