
     RDKit          3D

 38 42  0  0  0  0  0  0  0  0999 V2000
    9.0320   -0.8490   -0.7000 C   0  0  0  0  0  0  0  0  0  0  0  0
    8.4510   -1.8620    0.2510 C   0  0  0  0  0  0  0  0  0  0  0  0
    7.1410   -1.3630    0.8040 C   0  0  0  0  0  0  0  0  0  0  0  0
    5.8910   -1.5720    0.2660 C   0  0  0  0  0  0  0  0  0  0  0  0
    4.9900   -0.9410    1.0950 C   0  0  0  0  0  0  0  0  0  0  0  0
    3.5460   -0.9390    0.8520 C   0  0  0  0  0  0  0  0  0  0  0  0
    2.8080   -2.1010    0.8130 C   0  0  0  0  0  0  0  0  0  0  0  0
    1.4290   -2.0500    0.5750 C   0  0  0  0  0  0  0  0  0  0  0  0
    0.8600   -0.8420    0.3880 C   0  0  0  0  0  0  0  0  0  0  0  0
   -0.5120   -0.6360    0.1330 N   0  0  0  0  0  0  0  0  0  0  0  0
   -1.5250   -1.6150    0.0210 C   0  0  0  0  0  0  0  0  0  0  0  0
   -1.1850   -2.8220    0.1670 O   0  0  0  0  0  0  0  0  0  0  0  0
   -2.8740   -1.2560   -0.2450 N   0  0  0  0  0  0  0  0  0  0  0  0
   -3.8450   -2.3210   -0.3600 C   0  0  0  0  0  0  0  0  0  0  0  0
   -4.8490   -1.8420   -1.4270 C   0  0  0  0  0  0  0  0  0  0  0  0
   -5.4240   -0.6470   -0.9260 N   0  0  0  0  0  0  0  0  0  0  0  0
   -6.7830   -0.4250   -1.2920 C   0  0  0  0  0  0  0  0  0  0  0  0
   -7.7550   -0.4810   -0.1340 C   0  0  0  0  0  0  0  0  0  0  0  0
   -7.4200    0.5250    0.9370 C   0  0  0  0  0  0  0  0  0  0  0  0
   -6.5150    1.5510    0.4560 N   0  0  0  0  0  0  0  0  0  0  0  0
   -5.1510    1.1560    0.5770 C   0  0  0  0  0  0  0  0  0  0  0  0
   -4.6100    0.4660   -0.6950 C   0  0  2  0  0  0  0  0  0  0  0  0
   -4.5980    1.4960   -1.8310 C   0  0  1  0  0  0  0  0  0  0  0  0
   -3.7390    2.5320   -1.4330 F   0  0  0  0  0  0  0  0  0  0  0  0
   -4.0350    0.9560   -2.9690 F   0  0  0  0  0  0  0  0  0  0  0  0
   -3.1970    0.1310   -0.3870 C   0  0  0  0  0  0  0  0  0  0  0  0
    1.6250    0.2830    0.4350 N   0  0  0  0  0  0  0  0  0  0  0  0
    2.9430    0.2890    0.6580 C   0  0  0  0  0  0  0  0  0  0  0  0
    3.7450    1.5020    0.7000 C   0  0  0  0  0  0  0  0  0  0  0  0
    4.7630    1.8970   -0.1420 C   0  0  0  0  0  0  0  0  0  0  0  0
    5.2480    3.1210    0.2750 C   0  0  0  0  0  0  0  0  0  0  0  0
    6.3490    3.8810   -0.3720 C   0  0  1  0  0  0  0  0  0  0  0  0
    5.9420    5.1470   -0.7510 F   0  0  0  0  0  0  0  0  0  0  0  0
    7.3930    4.0230    0.5360 F   0  0  0  0  0  0  0  0  0  0  0  0
    4.5220    3.4400    1.3490 N   0  0  0  0  0  0  0  0  0  0  0  0
    3.6230    2.4830    1.6130 N   0  0  0  0  0  0  0  0  0  0  0  0
    5.6710   -0.3990    2.0520 O   0  0  0  0  0  0  0  0  0  0  0  0
    6.9420   -0.6290    1.9100 N   0  0  0  0  0  0  0  0  0  0  0  0
  1  2  1  0
  2  3  1  0
  3  4  1  0
  3 38  2  0
  4  5  2  0
  5  6  1  0
  5 37  1  0
  6  7  2  0
  6 28  1  0
  7  8  1  0
  8  9  2  0
  9 10  1  0
  9 27  1  0
 10 11  1  0
 11 12  2  0
 11 13  1  0
 13 14  1  0
 13 26  1  0
 14 15  1  0
 15 16  1  0
 16 17  1  0
 16 22  1  0
 17 18  1  0
 18 19  1  0
 19 20  1  0
 20 21  1  0
 22 21  1  1
 22 23  1  0
 22 26  1  0
 23 24  1  1
 23 25  1  0
 27 28  2  0
 28 29  1  0
 29 30  2  0
 29 36  1  0
 30 31  1  0
 31 32  1  0
 31 35  2  0
 32 33  1  1
 32 34  1  0
 35 36  1  0
 37 38  1  0
M  CHG  1  20   1
M  END
