
     RDKit          3D

 13 13  0  0  0  0  0  0  0  0999 V2000
   -0.0300   -1.9010    0.1490 C   0  0  0  0  0  0  0  0  0  0  0  0
   -0.5440   -0.6420   -0.3780 N   0  0  0  0  0  0  0  0  0  0  0  0
    0.1240    0.4980    0.2010 C   0  0  0  0  0  0  0  0  0  0  0  0
    1.5830    0.4950   -0.0600 C   0  0  0  0  0  0  0  0  0  0  0  0
    2.3920    1.4690    0.3930 N   0  0  0  0  0  0  0  0  0  0  0  0
    3.6140    1.2130    0.0190 O   0  0  0  0  0  0  0  0  0  0  0  0
    3.6280    0.0980   -0.6680 C   0  0  0  0  0  0  0  0  0  0  0  0
    4.7740   -0.4540   -1.2100 O   0  0  0  0  0  0  0  0  0  0  0  0
    2.3600   -0.3540   -0.7190 N   0  0  0  0  0  0  0  0  0  0  0  0
   -1.9420   -0.5700    0.0550 C   0  0  0  0  0  0  0  0  0  0  0  0
   -2.7660    0.9680   -0.5230 P   0  0  0  0  0  0  0  0  0  0  0  0
   -2.2920    2.3230    0.4840 O   0  0  0  0  0  0  0  0  0  0  0  0
   -4.4900    0.7620   -0.2580 O   0  0  0  0  0  0  0  0  0  0  0  0
  1  2  1  0
  2  3  1  0
  2 10  1  0
  3  4  1  0
  4  5  2  0
  4  9  1  0
  5  6  1  0
  6  7  1  0
  7  8  1  0
  7  9  2  0
 10 11  1  0
 11 12  1  0
 11 13  1  0
M  END
