
     RDKit          3D

 13 13  0  0  0  0  0  0  0  0999 V2000
    3.3180    0.4570    0.9510 N   0  0  0  0  0  0  0  0  0  0  0  0
    2.0090    0.6650    0.4390 C   0  0  0  0  0  0  0  0  0  0  0  0
    1.8900    1.3680   -0.5850 O   0  0  0  0  0  0  0  0  0  0  0  0
    0.8770    0.0270    1.1640 C   0  0  0  0  0  0  0  0  0  0  0  0
   -0.3900    0.3010    0.5530 N   0  0  0  0  0  0  0  0  0  0  0  0
   -0.4990   -0.3580   -0.7230 C   0  0  2  0  0  0  0  0  0  0  0  0
   -1.7050    0.0620   -1.4800 C   0  0  0  0  0  0  0  0  0  0  0  0
   -1.8740    1.5190   -1.8130 C   0  0  0  0  0  0  0  0  0  0  0  0
   -1.0410    2.3780   -1.4760 O   0  0  0  0  0  0  0  0  0  0  0  0
   -2.5200   -0.8160   -1.8030 N   0  0  0  0  0  0  0  0  0  0  0  0
   -2.3470   -2.1030   -1.4970 O   0  0  0  0  0  0  0  0  0  0  0  0
   -0.8830   -2.1670   -0.5280 P   0  0  0  0  0  0  0  0  0  0  0  0
   -1.3980   -2.4720    1.1200 O   0  0  0  0  0  0  0  0  0  0  0  0
  1  2  1  0
  2  3  2  0
  2  4  1  0
  4  5  1  0
  6  5  1  1
  6  7  1  0
  6 12  1  0
  7  8  1  0
  7 10  2  0
  8  9  2  0
 10 11  1  0
 11 12  1  0
 12 13  1  0
M  END
