
     RDKit          3D

 12 12  0  0  0  0  0  0  0  0999 V2000
   -4.2010   -1.5780    0.0090 O   0  0  0  0  0  0  0  0  0  0  0  0
   -2.9150   -1.1790   -0.3430 C   0  0  0  0  0  0  0  0  0  0  0  0
   -2.5440    0.1010    0.3590 C   0  0  0  0  0  0  0  0  0  0  0  0
   -1.2300    0.5650    0.0380 N   0  0  0  0  0  0  0  0  0  0  0  0
   -0.8680    1.3950   -0.9640 C   0  0  0  0  0  0  0  0  0  0  0  0
    0.4650    1.5330   -0.8560 N   0  0  0  0  0  0  0  0  0  0  0  0
    0.9250    0.8100    0.1820 C   0  0  0  0  0  0  0  0  0  0  0  0
    2.3540    0.7070    0.6230 C   0  0  0  0  0  0  0  0  0  0  0  0
    3.1790   -0.7030   -0.2440 P   0  0  0  0  0  0  0  0  0  0  0  0
    4.6360   -1.1440    0.6200 O   0  0  0  0  0  0  0  0  0  0  0  0
    3.5710   -0.2750   -1.8780 O   0  0  0  0  0  0  0  0  0  0  0  0
   -0.1470    0.2200    0.7190 N   0  0  0  0  0  0  0  0  0  0  0  0
  1  2  1  0
  2  3  1  0
  3  4  1  0
  4  5  1  0
  4 12  1  0
  5  6  2  0
  6  7  1  0
  7  8  1  0
  7 12  2  0
  8  9  1  0
  9 10  1  0
  9 11  1  0
M  END
