
     RDKit          3D

 22 22  0  0  0  0  0  0  0  0999 V2000
    2.3320   -3.7810   -0.3860 O   0  0  0  0  0  0  0  0  0  0  0  0
    2.4860   -2.5990   -0.7820 C   0  0  0  0  0  0  0  0  0  0  0  0
    1.2060   -1.8710   -1.0750 C   0  0  0  0  0  0  0  0  0  0  0  0
    0.6120   -1.4690    0.0850 O   0  0  0  0  0  0  0  0  0  0  0  0
   -0.7400   -1.2360    0.0200 C   0  0  0  0  0  0  0  0  0  0  0  0
   -0.9430    0.2560   -0.2520 C   0  0  2  0  0  0  0  0  0  0  0  0
   -2.3840    0.5680   -0.4300 C   0  0  0  0  0  0  0  0  0  0  0  0
   -2.7480    1.1370   -1.5050 O   0  0  0  0  0  0  0  0  0  0  0  0
   -3.3690    0.2720    0.5230 N   0  0  0  0  0  0  0  0  0  0  0  0
   -4.7640    0.6140    0.2660 C   0  0  0  0  0  0  0  0  0  0  0  0
   -5.5150    0.2190    1.3510 O   0  0  0  0  0  0  0  0  0  0  0  0
   -5.1840    0.7720    2.4750 O   0  0  0  0  0  0  0  0  0  0  0  0
   -0.1750    0.6430   -1.3160 O   0  0  0  0  0  0  0  0  0  0  0  0
    0.2110    1.9560   -1.3480 C   0  0  0  0  0  0  0  0  0  0  0  0
    1.4080    2.2980   -0.5240 C   0  0  0  0  0  0  0  0  0  0  0  0
    2.3250    1.2670   -0.3950 O   0  0  0  0  0  0  0  0  0  0  0  0
    2.5100    1.0140    0.8720 O   0  0  0  0  0  0  0  0  0  0  0  0
    3.1340   -0.0300    1.4920 C   0  0  0  0  0  0  0  0  0  0  0  0
    2.6390   -0.4140    2.6070 O   0  0  0  0  0  0  0  0  0  0  0  0
    4.2760   -0.7500    1.0490 N   0  0  0  0  0  0  0  0  0  0  0  0
    4.4710   -1.2700   -0.2590 C   0  0  0  0  0  0  0  0  0  0  0  0
    3.7070   -2.0110   -0.9390 N   0  0  0  0  0  0  0  0  0  0  0  0
  1  2  2  0
  2  3  1  0
  2 22  1  0
  3  4  1  0
  4  5  1  0
  5  6  1  0
  6  7  1  6
  6 13  1  0
  7  8  2  0
  7  9  1  0
  9 10  1  0
 10 11  1  0
 11 12  1  0
 13 14  1  0
 14 15  1  0
 15 16  1  0
 16 17  1  0
 17 18  1  0
 18 19  2  0
 18 20  1  0
 20 21  1  0
 21 22  2  0
M  END
