
     RDKit          3D

 12 12  0  0  0  0  0  0  0  0999 V2000
   -4.2350    0.3970    0.2100 C   0  0  0  0  0  0  0  0  0  0  0  0
   -3.6270   -0.7530   -0.3520 O   0  0  0  0  0  0  0  0  0  0  0  0
   -2.5260   -1.2830    0.2720 N   0  0  0  0  0  0  0  0  0  0  0  0
   -1.3600   -0.7990    0.0920 C   0  0  0  0  0  0  0  0  0  0  0  0
   -0.9250    0.3490   -0.7520 C   0  0  0  0  0  0  0  0  0  0  0  0
    0.3040    0.7390   -0.0800 N   0  0  0  0  0  0  0  0  0  0  0  0
    0.7820   -0.4140    0.6050 C   0  0  0  0  0  0  0  0  0  0  0  0
    2.1780   -0.5350    1.1100 C   0  0  0  0  0  0  0  0  0  0  0  0
    3.3530   -0.3970   -0.2960 P   0  0  0  0  0  0  0  0  0  0  0  0
    4.9430   -0.8980    0.0800 O   0  0  0  0  0  0  0  0  0  0  0  0
    3.3100    1.1290   -1.0780 O   0  0  0  0  0  0  0  0  0  0  0  0
   -0.1720   -1.2920    0.7020 N   0  0  0  0  0  0  0  0  0  0  0  0
  1  2  1  0
  2  3  1  0
  3  4  2  3
  4  5  1  0
  4 12  1  0
  5  6  1  0
  6  7  1  0
  7  8  1  0
  7 12  2  0
  8  9  1  0
  9 10  1  0
  9 11  1  0
M  END
