
     RDKit          3D

 24 26  0  0  0  0  0  0  0  0999 V2000
   -2.3300   -0.6580    2.1600 C   0  0  0  0  0  0  0  0  0  0  0  0
   -2.2420   -1.7990    1.1690 C   0  0  0  0  0  0  0  0  0  0  0  0
   -2.5370   -1.3770   -0.2160 C   0  0  0  0  0  0  0  0  0  0  0  0
   -3.6410   -1.5550   -0.9520 N   0  0  0  0  0  0  0  0  0  0  0  0
   -3.4970   -1.0190   -2.1520 N   0  0  0  0  0  0  0  0  0  0  0  0
   -2.2810   -0.4700   -2.2300 C   0  0  0  0  0  0  0  0  0  0  0  0
   -1.7780    0.1350   -3.2170 O   0  0  0  0  0  0  0  0  0  0  0  0
   -1.6670   -0.6880   -1.0210 C   0  0  0  0  0  0  0  0  0  0  0  0
   -0.3530   -0.2720   -0.6780 N   0  0  0  0  0  0  0  0  0  0  0  0
    0.6720   -1.1230   -0.6650 C   0  0  0  0  0  0  0  0  0  0  0  0
    1.8020   -0.3880   -0.2860 C   0  0  0  0  0  0  0  0  0  0  0  0
    3.1310   -0.9360   -0.1420 C   0  0  0  0  0  0  0  0  0  0  0  0
    3.2570   -2.1890   -0.4020 O   0  0  0  0  0  0  0  0  0  0  0  0
    4.2910   -0.1400    0.2760 C   0  0  0  0  0  0  0  0  0  0  0  0
    5.4380   -1.0960    0.3230 C   0  0  0  0  0  0  0  0  0  0  0  0
    6.3320   -1.8180    0.3520 N   0  0  0  0  0  0  0  0  0  0  0  0
    1.3750    0.9040   -0.0870 C   0  0  0  0  0  0  0  0  0  0  0  0
    1.9870    2.0890    0.2890 C   0  0  0  0  0  0  0  0  0  0  0  0
    1.2810    3.2920    0.4140 C   0  0  0  0  0  0  0  0  0  0  0  0
    2.0690    4.7800    0.8900 Cl  0  0  0  0  0  0  0  0  0  0  0  0
   -0.0810    3.2910    0.1500 C   0  0  0  0  0  0  0  0  0  0  0  0
   -0.7110    2.1270   -0.2260 C   0  0  0  0  0  0  0  0  0  0  0  0
   -2.4200    2.0830   -0.5670 Cl  0  0  0  0  0  0  0  0  0  0  0  0
    0.0150    0.9520   -0.3410 C   0  0  0  0  0  0  0  0  0  0  0  0
  1  2  1  0
  2  3  1  0
  3  4  1  0
  3  8  2  0
  4  5  1  0
  5  6  1  0
  6  7  2  0
  6  8  1  0
  8  9  1  0
  9 10  1  0
  9 24  1  0
 10 11  2  0
 11 12  1  0
 11 17  1  0
 12 13  2  0
 12 14  1  0
 14 15  1  0
 15 16  3  0
 17 18  2  0
 17 24  1  0
 18 19  1  0
 19 20  1  0
 19 21  2  0
 21 22  1  0
 22 23  1  0
 22 24  2  0
M  END
