
     RDKit          3D

 13 13  0  0  0  0  0  0  0  0999 V2000
    4.2910    0.9760   -1.8740 O   0  0  0  0  0  0  0  0  0  0  0  0
    3.8170    0.9450   -0.4550 S   0  0  2  0  0  0  0  0  0  0  0  0
    4.6080   -0.0970    0.3190 O   0  0  0  0  0  0  0  0  0  0  0  0
    2.1380    0.4010   -0.4030 C   0  0  0  0  0  0  0  0  0  0  0  0
    1.4040    0.4340   -1.5700 C   0  0  0  0  0  0  0  0  0  0  0  0
    0.0890    0.0110   -1.5400 C   0  0  0  0  0  0  0  0  0  0  0  0
   -0.5260   -0.4470   -0.3880 C   0  0  0  0  0  0  0  0  0  0  0  0
   -1.8750   -0.8830   -0.4610 N   0  0  0  0  0  0  0  0  0  0  0  0
   -2.6930   -1.0300    0.7240 C   0  0  0  0  0  0  0  0  0  0  0  0
   -3.0650    0.3080    1.3130 C   0  0  0  0  0  0  0  0  0  0  0  0
   -1.9860    1.0540    1.6720 F   0  0  0  0  0  0  0  0  0  0  0  0
    0.2400   -0.4640    0.7520 C   0  0  0  0  0  0  0  0  0  0  0  0
    1.5650   -0.0470    0.7670 C   0  0  0  0  0  0  0  0  0  0  0  0
  1  2  2  0
  2  3  2  0
  2  4  1  6
  4  5  2  0
  4 13  1  0
  5  6  1  0
  6  7  2  0
  7  8  1  0
  7 12  1  0
  8  9  1  0
  9 10  1  0
 10 11  1  0
 12 13  2  0
M  END
