
     RDKit          3D

 12 12  0  0  0  0  0  0  0  0999 V2000
   -2.8490   -2.1070    0.4940 C   0  0  0  0  0  0  0  0  0  0  0  0
   -2.4860   -0.6960    0.0210 C   0  0  0  0  0  0  0  0  0  0  0  0
   -1.0100   -0.5650   -0.0000 C   0  0  0  0  0  0  0  0  0  0  0  0
    0.2120   -1.8030    0.4520 S   0  0  0  0  0  0  0  0  0  0  0  0
    1.6050   -0.7980   -0.0280 C   0  0  0  0  0  0  0  0  0  0  0  0
    2.9950   -1.3260   -0.1040 C   0  0  0  0  0  0  0  0  0  0  0  0
    3.5730   -1.0110    1.1970 O   0  0  0  0  0  0  0  0  0  0  0  0
    1.0600    0.3470   -0.4510 C   0  0  0  0  0  0  0  0  0  0  0  0
    1.9640    1.4080   -0.8690 O   0  0  0  0  0  0  0  0  0  0  0  0
   -0.2510    0.5210   -0.4620 C   0  0  0  0  0  0  0  0  0  0  0  0
   -0.9000    1.7940   -0.7400 N   0  0  0  0  0  0  0  0  0  0  0  0
   -0.3840    2.9580   -0.0440 C   0  0  0  0  0  0  0  0  0  0  0  0
  1  2  1  0
  2  3  1  0
  3  4  1  0
  3 10  2  0
  4  5  1  0
  5  6  1  0
  5  8  2  0
  6  7  1  0
  8  9  1  0
  8 10  1  0
 10 11  1  0
 11 12  1  0
M  END
