
     RDKit          3D

 13 13  0  0  0  0  0  0  0  0999 V2000
    1.2530   -2.7470   -1.5970 O   0  0  0  0  0  0  0  0  0  0  0  0
    1.2020   -1.5770   -1.1570 C   0  0  0  0  0  0  0  0  0  0  0  0
    0.0160   -0.8670   -1.2900 C   0  0  0  0  0  0  0  0  0  0  0  0
    0.0200    0.4180   -0.7860 C   0  0  0  0  0  0  0  0  0  0  0  0
   -1.5050    1.3670   -0.9430 S   0  0  0  0  0  0  0  0  0  0  0  0
   -2.5200    1.0880    0.5090 C   0  0  0  0  0  0  0  0  0  0  0  0
   -3.0100   -0.3490    0.5990 C   0  0  0  0  0  0  0  0  0  0  0  0
   -3.7770   -0.7140   -0.4870 O   0  0  0  0  0  0  0  0  0  0  0  0
    1.1300    0.9690   -0.1860 C   0  0  0  0  0  0  0  0  0  0  0  0
    2.2720    0.2120   -0.0870 C   0  0  0  0  0  0  0  0  0  0  0  0
    3.4740    0.8030    0.5600 C   0  0  0  0  0  0  0  0  0  0  0  0
    4.2450    1.4370   -0.3860 F   0  0  0  0  0  0  0  0  0  0  0  0
    2.2790   -1.0380   -0.5730 N   0  0  0  0  0  0  0  0  0  0  0  0
  1  2  2  0
  2  3  1  0
  2 13  1  0
  3  4  2  0
  4  5  1  0
  4  9  1  0
  5  6  1  0
  6  7  1  0
  7  8  1  0
  9 10  2  0
 10 11  1  0
 10 13  1  0
 11 12  1  0
M  END
