
     RDKit          3D

 13 13  0  0  0  0  0  0  0  0999 V2000
   -3.7570    0.5150   -0.4810 C   0  0  0  0  0  0  0  0  0  0  0  0
   -2.4430    0.7780   -1.1730 C   0  0  0  0  0  0  0  0  0  0  0  0
   -1.3520   -0.1350   -0.6590 C   0  0  0  0  0  0  0  0  0  0  0  0
   -1.2020    0.1050    0.7450 N   0  0  0  0  0  0  0  0  0  0  0  0
    0.0250   -0.8860    1.4540 S   0  0  2  0  0  0  0  0  0  0  0  0
   -0.2610   -2.3360    1.2870 O   0  0  0  0  0  0  0  0  0  0  0  0
    0.1620   -0.5710    2.8960 O   0  0  0  0  0  0  0  0  0  0  0  0
    1.5550   -0.4820    0.6740 C   0  0  0  0  0  0  0  0  0  0  0  0
    2.0680   -1.0410   -0.4070 C   0  0  0  0  0  0  0  0  0  0  0  0
    3.3670   -0.4380   -0.7610 C   0  0  0  0  0  0  0  0  0  0  0  0
    3.5620    0.5860    0.2870 C   0  0  0  0  0  0  0  0  0  0  0  0
    2.5140    0.5300    1.0810 C   0  0  0  0  0  0  0  0  0  0  0  0
    2.3130    1.3190    2.1770 F   0  0  0  0  0  0  0  0  0  0  0  0
  1  2  1  0
  2  3  1  0
  3  4  1  0
  5  4  1  6
  5  6  2  0
  5  7  2  0
  5  8  1  0
  8  9  2  0
  8 12  1  0
  9 10  1  0
 10 11  1  0
 11 12  2  0
 12 13  1  0
M  END
