
     RDKit          3D

 10 10  0  0  0  0  0  0  0  0999 V2000
    3.1310   -0.4990    0.8600 C   0  0  0  0  0  0  0  0  0  0  0  0
    1.8390    0.0510    0.3730 C   0  0  0  0  0  0  0  0  0  0  0  0
    1.5660    1.3830    0.0960 C   0  0  0  0  0  0  0  0  0  0  0  0
    0.2680    1.4100   -0.3180 C   0  0  0  0  0  0  0  0  0  0  0  0
   -0.1930    0.1070   -0.2780 C   0  0  0  0  0  0  0  0  0  0  0  0
   -1.5620   -0.3110   -0.6520 C   0  0  1  0  0  0  0  0  0  0  0  0
   -1.5260   -1.4480   -1.4520 O   0  0  0  0  0  0  0  0  0  0  0  0
   -2.3620   -0.5890    0.6220 C   0  0  0  0  0  0  0  0  0  0  0  0
   -2.4040    0.5420    1.4310 O   0  0  0  0  0  0  0  0  0  0  0  0
    0.7810   -0.6890    0.1430 O   0  0  0  0  0  0  0  0  0  0  0  0
  1  2  1  0
  2  3  2  0
  2 10  1  0
  3  4  1  0
  4  5  2  0
  5  6  1  0
  5 10  1  0
  6  7  1  6
  6  8  1  0
  8  9  1  0
M  END
