
     RDKit          3D

 10 10  0  0  0  0  0  0  0  0999 V2000
   -2.5540    0.5300    1.3720 O   0  0  0  0  0  0  0  0  0  0  0  0
   -2.8440   -0.0130    0.1450 C   0  0  0  0  0  0  0  0  0  0  0  0
   -1.8670    0.4540   -0.9330 C   0  0  0  0  0  0  0  0  0  0  0  0
   -0.4890    0.0410   -0.5490 C   0  0  0  0  0  0  0  0  0  0  0  0
    0.0850   -1.1810   -0.9150 C   0  0  0  0  0  0  0  0  0  0  0  0
    1.3480   -1.2000   -0.3830 C   0  0  0  0  0  0  0  0  0  0  0  0
    1.5180   -0.0140    0.2840 C   0  0  0  0  0  0  0  0  0  0  0  0
    2.7660    0.4010    1.0280 C   0  0  0  0  0  0  0  0  0  0  0  0
    3.5930    1.0690    0.1410 O   0  0  0  0  0  0  0  0  0  0  0  0
    0.4120    0.6780    0.1570 O   0  0  0  0  0  0  0  0  0  0  0  0
  1  2  1  0
  2  3  1  0
  3  4  1  0
  4  5  2  0
  4 10  1  0
  5  6  1  0
  6  7  2  0
  7  8  1  0
  7 10  1  0
  8  9  1  0
M  END
