
     RDKit          3D

 10 10  0  0  0  0  0  0  0  0999 V2000
   -1.8410    1.9230    0.9340 O   0  0  0  0  0  0  0  0  0  0  0  0
   -0.9090    1.6200   -0.0550 C   0  0  0  0  0  0  0  0  0  0  0  0
   -0.5090    0.1700   -0.0610 C   0  0  1  0  0  0  0  0  0  0  0  0
   -1.6660   -0.7560   -0.2960 C   0  0  0  0  0  0  0  0  0  0  0  0
   -2.6630   -0.6690    0.6440 O   0  0  0  0  0  0  0  0  0  0  0  0
    0.4420   -0.0080   -1.2510 C   0  0  0  0  0  0  0  0  0  0  0  0
    1.6870   -0.7730   -0.8080 C   0  0  0  0  0  0  0  0  0  0  0  0
    2.3550   -0.0780    0.3410 C   0  0  0  0  0  0  0  0  0  0  0  0
    1.4440    0.6630    1.1190 O   0  0  0  0  0  0  0  0  0  0  0  0
    0.2780   -0.1380    1.1720 C   0  0  0  0  0  0  0  0  0  0  0  0
  1  2  1  0
  3  2  1  1
  3  4  1  0
  3  6  1  0
  3 10  1  0
  4  5  1  0
  6  7  1  0
  7  8  1  0
  8  9  1  0
  9 10  1  0
M  END
