
     RDKit          3D

 38 42  0  0  0  0  0  0  0  0999 V2000
   -8.0300   -1.8510   -0.4640 C   0  0  0  0  0  0  0  0  0  0  0  0
   -6.5530   -1.9720   -0.2800 C   0  0  0  0  0  0  0  0  0  0  0  0
   -5.9270   -3.1900   -0.2660 C   0  0  0  0  0  0  0  0  0  0  0  0
   -4.5770   -3.3230   -0.0710 C   0  0  0  0  0  0  0  0  0  0  0  0
   -3.8690   -2.1260    0.1170 C   0  0  0  0  0  0  0  0  0  0  0  0
   -4.4590   -0.9110    0.1090 C   0  0  0  0  0  0  0  0  0  0  0  0
   -3.6550    0.3380    0.3360 C   0  0  0  0  0  0  0  0  0  0  0  0
   -2.4060    0.0770    0.6330 O   0  0  0  0  0  0  0  0  0  0  0  0
   -1.2420   -0.3560    0.2490 C   0  0  0  0  0  0  0  0  0  0  0  0
   -1.0690   -0.6720   -0.9690 O   0  0  0  0  0  0  0  0  0  0  0  0
   -0.0890   -0.4970    1.2330 C   0  0  0  0  0  0  0  0  0  0  0  0
    1.1170   -0.6400    0.7810 O   0  0  0  0  0  0  0  0  0  0  0  0
    1.9830   -1.1470   -0.0850 C   0  0  0  0  0  0  0  0  0  0  0  0
    1.5830   -1.8370   -1.0170 O   0  0  0  0  0  0  0  0  0  0  0  0
    3.4810   -0.8620    0.0670 C   0  0  0  0  0  0  0  0  0  0  0  0
    3.5980    0.5470   -0.1960 N   0  0  1  0  0  0  0  0  0  0  0  0
    3.1930    1.2180    1.1140 C   0  0  0  0  0  0  0  0  0  0  0  0
    4.8490    1.0750   -0.5220 C   0  0  0  0  0  0  0  0  0  0  0  0
    4.9740    2.4440   -0.7680 N   0  0  0  0  0  0  0  0  0  0  0  0
    6.2220    2.7040   -0.9840 N   0  0  0  0  0  0  0  0  0  0  0  0
    6.9370    1.6240   -0.8980 C   0  0  0  0  0  0  0  0  0  0  0  0
    6.0810    0.5710   -0.6090 N   0  0  0  0  0  0  0  0  0  0  0  0
    6.8460   -0.6180   -0.5000 C   0  0  0  0  0  0  0  0  0  0  0  0
    6.4840   -1.7830   -0.2540 O   0  0  0  0  0  0  0  0  0  0  0  0
    8.2620   -0.2450   -0.7440 C   0  0  0  0  0  0  0  0  0  0  0  0
    9.4580   -0.9490   -0.7550 C   0  0  0  0  0  0  0  0  0  0  0  0
   10.6620   -0.3250   -0.9920 C   0  0  0  0  0  0  0  0  0  0  0  0
   10.7180    1.0390   -1.2320 C   0  0  0  0  0  0  0  0  0  0  0  0
    9.5110    1.7350   -1.2230 C   0  0  0  0  0  0  0  0  0  0  0  0
    8.2990    1.1090   -0.9830 C   0  0  0  0  0  0  0  0  0  0  0  0
   -5.8320   -0.8100   -0.0930 C   0  0  0  0  0  0  0  0  0  0  0  0
   -6.5570    0.4570   -0.0650 C   0  0  0  0  0  0  0  0  0  0  0  0
   -6.6490    1.1880    1.1570 C   0  0  0  0  0  0  0  0  0  0  0  0
   -7.3530    2.3680    1.2000 C   0  0  0  0  0  0  0  0  0  0  0  0
   -7.9420    2.8000    0.0900 N   0  0  0  0  0  0  0  0  0  0  0  0
   -7.9020    2.1520   -1.1080 C   0  0  0  0  0  0  0  0  0  0  0  0
   -8.7400    2.7910   -2.5000 Cl  0  0  0  0  0  0  0  0  0  0  0  0
   -7.1840    0.9590   -1.1430 C   0  0  0  0  0  0  0  0  0  0  0  0
  1  2  1  0
  2  3  2  0
  2 31  1  0
  3  4  1  0
  4  5  2  0
  5  6  1  0
  6  7  1  0
  6 31  2  0
  7  8  1  0
  8  9  1  0
  9 10  2  0
  9 11  1  0
 11 12  1  0
 12 13  1  0
 13 14  2  0
 13 15  1  0
 15 16  1  0
 16 17  1  1
 16 18  1  0
 18 19  2  0
 18 22  1  0
 19 20  1  0
 20 21  2  0
 21 22  1  0
 21 30  1  0
 22 23  1  0
 23 24  2  0
 23 25  1  0
 25 26  2  0
 25 30  1  0
 26 27  1  0
 27 28  2  0
 28 29  1  0
 29 30  2  0
 31 32  1  0
 32 33  2  0
 32 38  1  0
 33 34  1  0
 34 35  2  0
 35 36  1  0
 36 37  1  0
 36 38  2  0
M  CHG  2  16   1  35   1
M  END
