
     RDKit          3D

 38 42  0  0  0  0  0  0  0  0999 V2000
    7.7210    2.5970   -0.4380 C   0  0  0  0  0  0  0  0  0  0  0  0
    7.9290    1.2860   -0.2150 C   0  0  0  0  0  0  0  0  0  0  0  0
    6.9100    0.5100    0.4650 C   0  0  0  0  0  0  0  0  0  0  0  0
    6.9490   -0.7210    0.7970 C   0  0  0  0  0  0  0  0  0  0  0  0
    7.9530   -1.7590    0.6350 C   0  0  0  0  0  0  0  0  0  0  0  0
    9.4380   -1.2530   -0.1390 Cl  0  0  0  0  0  0  0  0  0  0  0  0
    5.6610    1.3170    0.8050 C   0  0  0  0  0  0  0  0  0  0  0  0
    4.9740    1.5540   -0.5620 C   0  0  0  0  0  0  0  0  0  0  0  0
    4.4120    0.2380   -0.9320 N   0  0  0  0  0  0  0  0  0  0  0  0
    5.0240   -0.6890   -1.6000 C   0  0  0  0  0  0  0  0  0  0  0  0
    6.1570   -0.4990   -2.1090 O   0  0  0  0  0  0  0  0  0  0  0  0
    4.4180   -1.9180   -1.7740 N   0  0  0  0  0  0  0  0  0  0  0  0
    3.1960   -2.1960   -1.2790 C   0  0  0  0  0  0  0  0  0  0  0  0
    2.6190   -3.3870   -1.5000 N   0  0  0  0  0  0  0  0  0  0  0  0
    1.4010   -3.6470   -1.0580 C   0  0  0  0  0  0  0  0  0  0  0  0
    0.7410   -2.6570   -0.3610 C   0  0  0  0  0  0  0  0  0  0  0  0
    1.2590   -1.4130   -0.0970 C   0  0  0  0  0  0  0  0  0  0  0  0
    0.5750   -0.3150    0.6220 C   0  0  0  0  0  0  0  0  0  0  0  0
   -0.4860    0.2400   -0.2110 N   0  0  2  0  0  0  0  0  0  0  0  0
   -0.8550    1.6000    0.0890 C   0  0  0  0  0  0  0  0  0  0  0  0
   -2.2240    1.8150    0.6210 C   0  0  0  0  0  0  0  0  0  0  0  0
   -3.1510    1.8330   -0.5680 C   0  0  0  0  0  0  0  0  0  0  0  0
   -3.7030    0.4960   -0.8950 C   0  0  2  0  0  0  0  0  0  0  0  0
   -5.0490    0.3530   -0.3110 C   0  0  0  0  0  0  0  0  0  0  0  0
   -5.7880   -0.7580   -0.3380 N   0  0  0  0  0  0  0  0  0  0  0  0
   -6.9400   -0.5110    0.2870 C   0  0  0  0  0  0  0  0  0  0  0  0
   -6.8840    0.7940    0.6980 C   0  0  0  0  0  0  0  0  0  0  0  0
   -5.7500    1.2650    0.3250 O   0  0  0  0  0  0  0  0  0  0  0  0
   -7.9660    1.5180    1.4460 C   0  0  0  0  0  0  0  0  0  0  0  0
   -9.1700    1.3550    0.7440 O   0  0  0  0  0  0  0  0  0  0  0  0
   -9.1030    0.4200   -0.2630 C   0  0  0  0  0  0  0  0  0  0  0  0
   -9.2670   -0.8970    0.1950 O   0  0  0  0  0  0  0  0  0  0  0  0
   -8.0620   -1.4860    0.5060 C   0  0  0  0  0  0  0  0  0  0  0  0
   -2.8220   -0.6310   -0.2630 C   0  0  0  0  0  0  0  0  0  0  0  0
   -1.4470   -0.5280   -0.8190 C   0  0  0  0  0  0  0  0  0  0  0  0
    2.5400   -1.1870   -0.5690 C   0  0  0  0  0  0  0  0  0  0  0  0
    3.1550    0.0190   -0.3990 C   0  0  0  0  0  0  0  0  0  0  0  0
    2.5950    0.9340    0.2300 O   0  0  0  0  0  0  0  0  0  0  0  0
  1  2  2  0
  2  3  1  0
  3  4  2  3
  3  7  1  0
  4  5  1  0
  5  6  1  0
  7  8  1  0
  8  9  1  0
  9 10  1  0
  9 37  1  0
 10 11  2  0
 10 12  1  0
 12 13  1  0
 13 14  2  0
 13 36  1  0
 14 15  1  0
 15 16  2  0
 16 17  1  0
 17 18  1  0
 17 36  2  0
 19 18  1  1
 19 20  1  0
 19 35  1  0
 20 21  1  0
 21 22  1  0
 22 23  1  0
 23 24  1  1
 23 34  1  0
 24 25  2  0
 24 28  1  0
 25 26  1  0
 26 27  2  0
 26 33  1  0
 27 28  1  0
 27 29  1  0
 29 30  1  0
 30 31  1  0
 31 32  1  0
 32 33  1  0
 34 35  1  0
 36 37  1  0
 37 38  2  0
M  CHG  2  19   1  25   1
M  END
