
     RDKit          3D

 38 41  0  0  0  0  0  0  0  0999 V2000
    4.5830    0.3060    2.2290 C   0  0  0  0  0  0  0  0  0  0  0  0
    3.2910    0.7940    2.7730 C   0  0  1  0  0  0  0  0  0  0  0  0
    3.5950    1.9430    3.7240 C   0  0  0  0  0  0  0  0  0  0  0  0
    2.2740    1.2650    1.7970 C   0  0  0  0  0  0  0  0  0  0  0  0
    1.8520    0.2900    0.8420 N   0  0  0  0  0  0  0  0  0  0  0  0
    0.4640   -0.0100    1.0320 C   0  0  0  0  0  0  0  0  0  0  0  0
    0.1490   -1.4750    0.8200 C   0  0  1  0  0  0  0  0  0  0  0  0
    0.8770   -2.2160    1.7220 O   0  0  0  0  0  0  0  0  0  0  0  0
   -1.3110   -1.7070    1.0290 C   0  0  2  0  0  0  0  0  0  0  0  0
   -1.6400   -3.1790    0.8880 C   0  0  0  0  0  0  0  0  0  0  0  0
   -1.3050   -3.7250   -0.4430 C   0  0  0  0  0  0  0  0  0  0  0  0
   -0.0810   -4.2750   -0.6900 C   0  0  0  0  0  0  0  0  0  0  0  0
    0.2070   -4.7820   -1.9580 C   0  0  0  0  0  0  0  0  0  0  0  0
   -0.7450   -4.7230   -2.9510 C   0  0  0  0  0  0  0  0  0  0  0  0
   -1.9890   -4.1700   -2.7210 C   0  0  0  0  0  0  0  0  0  0  0  0
   -2.2400   -3.6800   -1.4580 C   0  0  0  0  0  0  0  0  0  0  0  0
   -2.1280   -0.9330    0.0950 N   0  0  0  0  0  0  0  0  0  0  0  0
   -3.0800    0.0150    0.5590 C   0  0  0  0  0  0  0  0  0  0  0  0
   -3.2590    0.2260    1.7920 O   0  0  0  0  0  0  0  0  0  0  0  0
   -3.8640    0.7580   -0.3140 O   0  0  0  0  0  0  0  0  0  0  0  0
   -4.8070    1.6940    0.0870 C   0  0  1  0  0  0  0  0  0  0  0  0
   -4.5580    3.0980   -0.4230 C   0  0  0  0  0  0  0  0  0  0  0  0
   -5.7740    3.7140   -0.0390 O   0  0  0  0  0  0  0  0  0  0  0  0
   -6.7800    2.8430   -0.4250 C   0  0  1  0  0  0  0  0  0  0  0  0
   -7.1480    3.1560   -1.7110 O   0  0  0  0  0  0  0  0  0  0  0  0
   -7.3590    1.9750   -2.4070 C   0  0  0  0  0  0  0  0  0  0  0  0
   -6.1710    1.1360   -1.9210 C   0  0  0  0  0  0  0  0  0  0  0  0
   -6.2010    1.4470   -0.4300 C   0  0  1  0  0  0  0  0  0  0  0  0
    2.2670    0.7220   -0.7330 S   0  0  1  0  0  0  0  0  0  0  0  0
    1.6970   -0.2290   -1.7630 O   0  0  0  0  0  0  0  0  0  0  0  0
    1.6780    2.0980   -1.0500 O   0  0  0  0  0  0  0  0  0  0  0  0
    3.9810    0.8670   -0.9510 C   0  0  0  0  0  0  0  0  0  0  0  0
    4.7870   -0.2200   -1.2990 C   0  0  0  0  0  0  0  0  0  0  0  0
    6.1370   -0.1070   -1.4910 C   0  0  0  0  0  0  0  0  0  0  0  0
    6.7620    1.1000   -1.3470 C   0  0  0  0  0  0  0  0  0  0  0  0
    8.1600    1.2520   -1.5390 N   0  0  0  0  0  0  0  0  0  0  0  0
    5.9920    2.1880   -1.0050 C   0  0  0  0  0  0  0  0  0  0  0  0
    4.6490    2.0840   -0.8120 C   0  0  0  0  0  0  0  0  0  0  0  0
  2  1  1  6
  2  3  1  0
  2  4  1  0
  4  5  1  0
  5  6  1  0
 29  5  1  1
  6  7  1  0
  7  8  1  1
  7  9  1  0
  9 10  1  6
  9 17  1  0
 10 11  1  0
 11 12  2  0
 11 16  1  0
 12 13  1  0
 13 14  2  0
 14 15  1  0
 15 16  2  0
 17 18  1  0
 18 19  2  0
 18 20  1  0
 21 20  1  6
 21 22  1  0
 21 28  1  0
 22 23  1  0
 24 23  1  6
 24 25  1  0
 24 28  1  0
 25 26  1  0
 26 27  1  0
 28 27  1  6
 29 30  2  0
 29 31  2  0
 29 32  1  0
 32 33  2  0
 32 38  1  0
 33 34  1  0
 34 35  2  0
 35 36  1  0
 35 37  1  0
 37 38  2  0
M  END
