
     RDKit          3D

 38 42  0  0  0  0  0  0  0  0999 V2000
    7.6390   -2.2400   -0.5130 C   0  0  0  0  0  0  0  0  0  0  0  0
    6.5080   -1.5180   -0.1530 O   0  0  0  0  0  0  0  0  0  0  0  0
    5.6670   -1.4170   -1.2490 C   0  0  2  0  0  0  0  0  0  0  0  0
    5.6120    0.0570   -1.6690 C   0  0  0  0  0  0  0  0  0  0  0  0
    4.2870   -1.9220   -1.0150 C   0  0  0  0  0  0  0  0  0  0  0  0
    3.5460   -1.3010   -0.0240 O   0  0  0  0  0  0  0  0  0  0  0  0
    3.7950   -1.2190    1.3170 C   0  0  0  0  0  0  0  0  0  0  0  0
    4.8250   -1.7690    1.7710 O   0  0  0  0  0  0  0  0  0  0  0  0
    2.9120   -0.5110    2.2840 C   0  0  0  0  0  0  0  0  0  0  0  0
    1.7620    0.0760    1.6190 N   0  0  0  0  0  0  0  0  0  0  0  0
    0.6680   -0.6260    1.4910 C   0  0  0  0  0  0  0  0  0  0  0  0
    0.5170   -1.8090    1.9090 O   0  0  0  0  0  0  0  0  0  0  0  0
   -0.4930   -0.0790    0.8380 C   0  0  0  0  0  0  0  0  0  0  0  0
   -1.6140   -0.9750    0.7750 C   0  0  0  0  0  0  0  0  0  0  0  0
   -2.8710   -0.8680    0.2730 N   0  0  2  0  0  0  0  0  0  0  0  0
   -3.8240   -0.3430    1.2580 C   0  0  0  0  0  0  0  0  0  0  0  0
   -5.2070   -0.2830    0.7290 C   0  0  0  0  0  0  0  0  0  0  0  0
   -5.6750   -1.4990    0.1290 N   0  0  0  0  0  0  0  0  0  0  0  0
   -6.3920   -2.3520    1.0450 C   0  0  0  0  0  0  0  0  0  0  0  0
   -5.8570   -3.6870    0.8630 N   0  0  0  0  0  0  0  0  0  0  0  0
   -5.2660   -3.6790   -0.4670 C   0  0  0  0  0  0  0  0  0  0  0  0
   -4.6750   -2.2830   -0.5180 C   0  0  1  0  0  0  0  0  0  0  0  0
   -4.5530   -1.7960   -1.9480 C   0  0  0  0  0  0  0  0  0  0  0  0
   -3.3460   -2.3290    0.1370 C   0  0  0  0  0  0  0  0  0  0  0  0
   -0.3450    1.2000    0.3800 C   0  0  0  0  0  0  0  0  0  0  0  0
   -1.4240    1.7960   -0.2660 C   0  0  0  0  0  0  0  0  0  0  0  0
   -1.3520    3.0770   -0.7550 C   0  0  0  0  0  0  0  0  0  0  0  0
   -0.1780    3.7420   -0.5820 C   0  0  0  0  0  0  0  0  0  0  0  0
   -0.1100    5.0230   -1.0730 C   0  0  0  0  0  0  0  0  0  0  0  0
    1.0470    5.7460   -0.9290 C   0  0  0  0  0  0  0  0  0  0  0  0
    1.1140    7.3730   -1.5600 Cl  0  0  0  0  0  0  0  0  0  0  0  0
    2.1150    5.1840   -0.3010 C   0  0  0  0  0  0  0  0  0  0  0  0
    3.3670    5.9350   -0.1330 C   0  0  0  0  0  0  0  0  0  0  0  0
    2.0750    3.8760    0.2110 C   0  0  0  0  0  0  0  0  0  0  0  0
    0.9180    3.1550    0.0670 C   0  0  0  0  0  0  0  0  0  0  0  0
    0.8270    1.8940    0.5410 N   0  0  0  0  0  0  0  0  0  0  0  0
    1.8760    1.3510    1.1510 C   0  0  0  0  0  0  0  0  0  0  0  0
    2.9730    1.9040    1.3390 O   0  0  0  0  0  0  0  0  0  0  0  0
  1  2  1  0
  2  3  1  0
  3  4  1  1
  3  5  1  0
  5  6  1  0
  6  7  1  0
  7  8  2  0
  7  9  1  0
  9 10  1  0
 10 11  1  0
 10 37  1  0
 11 12  2  0
 11 13  1  0
 13 14  1  0
 13 25  2  0
 15 14  1  1
 15 16  1  0
 15 24  1  0
 16 17  1  0
 17 18  1  0
 18 19  1  0
 18 22  1  0
 19 20  1  0
 20 21  1  0
 21 22  1  0
 22 23  1  6
 22 24  1  0
 25 26  1  0
 25 36  1  0
 26 27  2  0
 27 28  1  0
 28 29  2  0
 28 35  1  0
 29 30  1  0
 30 31  1  0
 30 32  2  0
 32 33  1  0
 32 34  1  0
 34 35  2  0
 35 36  1  0
 36 37  1  0
 37 38  2  0
M  CHG  2  15   1  20   1
M  END
