
     RDKit          3D

 46 52  0  0  0  0  0  0  0  0999 V2000
    7.8590   -2.7880    1.7720 C   0  0  0  0  0  0  0  0  0  0  0  0
    8.3600   -2.2280    0.4980 C   0  0  0  0  0  0  0  0  0  0  0  0
    9.5140   -2.7560   -0.0120 N   0  0  0  0  0  0  0  0  0  0  0  0
   10.0710   -2.3350   -1.1530 C   0  0  0  0  0  0  0  0  0  0  0  0
    9.4480   -1.3220   -1.8420 C   0  0  0  0  0  0  0  0  0  0  0  0
    8.2810   -0.7740   -1.3420 C   0  0  0  0  0  0  0  0  0  0  0  0
    7.7220   -1.2230   -0.1650 C   0  0  0  0  0  0  0  0  0  0  0  0
    6.5020   -0.5760    0.3050 C   0  0  0  0  0  0  0  0  0  0  0  0
    5.2490   -1.3230    0.2180 C   0  0  0  0  0  0  0  0  0  0  0  0
    5.0150   -2.2900    1.0240 O   0  0  0  0  0  0  0  0  0  0  0  0
    4.2660   -0.9960   -0.7550 N   0  0  0  0  0  0  0  0  0  0  0  0
    4.5830    0.0420   -1.7180 C   0  0  0  0  0  0  0  0  0  0  0  0
    3.5560   -0.1560   -2.8580 C   0  0  0  0  0  0  0  0  0  0  0  0
    2.2450    0.2110   -2.2710 C   0  0  2  0  0  0  0  0  0  0  0  0
    2.3620    1.4850   -1.6660 O   0  0  0  0  0  0  0  0  0  0  0  0
    1.8290   -0.8030   -1.1810 C   0  0  2  0  0  0  0  0  0  0  0  0
    1.1600   -0.1770   -0.2690 O   0  0  0  0  0  0  0  0  0  0  0  0
    0.4830    0.4520    0.6470 C   0  0  0  0  0  0  0  0  0  0  0  0
    1.1680    1.0200    1.7530 C   0  0  0  0  0  0  0  0  0  0  0  0
    0.5180    1.7030    2.7460 C   0  0  0  0  0  0  0  0  0  0  0  0
   -0.8440    1.8670    2.7120 C   0  0  0  0  0  0  0  0  0  0  0  0
   -1.5390    2.6160    3.7500 C   0  0  2  0  0  0  0  0  0  0  0  0
   -2.2130    1.6550    4.7480 C   0  0  0  0  0  0  0  0  0  0  0  0
   -2.5670    3.5850    3.2200 C   0  0  0  0  0  0  0  0  0  0  0  0
   -1.5280    1.3150    1.6360 C   0  0  0  0  0  0  0  0  0  0  0  0
   -0.9040    0.6360    0.6420 C   0  0  0  0  0  0  0  0  0  0  0  0
   -1.6680    0.0860   -0.5190 C   0  0  2  0  0  0  0  0  0  0  0  0
   -1.2280    0.7390   -1.8010 C   0  0  0  0  0  0  0  0  0  0  0  0
   -2.3390    1.6120   -2.1900 C   0  0  0  0  0  0  0  0  0  0  0  0
   -2.5340    2.5470   -3.2150 C   0  0  0  0  0  0  0  0  0  0  0  0
   -3.7580    3.1920   -3.3730 C   0  0  0  0  0  0  0  0  0  0  0  0
   -4.8140    2.9330   -2.5300 C   0  0  0  0  0  0  0  0  0  0  0  0
   -4.6150    2.0110   -1.5200 C   0  0  0  0  0  0  0  0  0  0  0  0
   -5.6160    1.6730   -0.6350 C   0  0  0  0  0  0  0  0  0  0  0  0
   -5.3750    0.7220    0.3640 C   0  0  0  0  0  0  0  0  0  0  0  0
   -6.4490    0.3690    1.3370 C   0  0  0  0  0  0  0  0  0  0  0  0
   -7.3980   -0.6330    0.7480 C   0  0  0  0  0  0  0  0  0  0  0  0
   -6.7440   -1.8670    0.3360 C   0  0  0  0  0  0  0  0  0  0  0  0
   -6.7530   -2.2980   -0.9310 C   0  0  0  0  0  0  0  0  0  0  0  0
   -6.0010   -3.5670   -0.9710 C   0  0  0  0  0  0  0  0  0  0  0  0
   -5.5730   -3.7980    0.4300 C   0  0  0  0  0  0  0  0  0  0  0  0
   -6.0110   -2.8100    1.1510 C   0  0  0  0  0  0  0  0  0  0  0  0
   -4.1440    0.1390    0.4560 C   0  0  0  0  0  0  0  0  0  0  0  0
   -3.1030    0.4480   -0.4090 C   0  0  0  0  0  0  0  0  0  0  0  0
   -3.3870    1.3750   -1.3720 C   0  0  0  0  0  0  0  0  0  0  0  0
    3.0070   -1.6640   -0.7610 C   0  0  0  0  0  0  0  0  0  0  0  0
  1  2  1  0
  2  3  2  0
  2  7  1  0
  3  4  1  0
  4  5  2  0
  5  6  1  0
  6  7  2  0
  7  8  1  0
  8  9  1  0
  9 10  2  0
  9 11  1  0
 11 12  1  0
 11 46  1  0
 12 13  1  0
 13 14  1  0
 14 15  1  1
 14 16  1  0
 16 17  1  1
 16 46  1  0
 17 18  1  0
 18 19  2  0
 18 26  1  0
 19 20  1  0
 20 21  2  0
 21 22  1  0
 21 25  1  0
 22 23  1  1
 22 24  1  0
 25 26  2  0
 27 26  1  1
 27 28  1  0
 27 44  1  0
 28 29  1  0
 29 30  1  0
 29 45  2  0
 30 31  2  0
 31 32  1  0
 32 33  2  0
 33 34  1  0
 33 45  1  0
 34 35  2  0
 35 36  1  0
 35 43  1  0
 36 37  1  0
 37 38  1  0
 38 39  2  0
 38 42  1  0
 39 40  1  0
 40 41  1  0
 41 42  2  0
 43 44  2  0
 44 45  1  0
M  END
