
     RDKit          3D

 46 52  0  0  0  0  0  0  0  0999 V2000
   -1.5730   -0.6460    5.9690 C   0  0  0  0  0  0  0  0  0  0  0  0
   -1.5240   -0.6910    4.4590 C   0  0  0  0  0  0  0  0  0  0  0  0
   -2.5390   -0.1600    3.7040 C   0  0  0  0  0  0  0  0  0  0  0  0
   -2.4590   -0.2230    2.3360 C   0  0  0  0  0  0  0  0  0  0  0  0
   -1.4140   -0.7900    1.6470 C   0  0  0  0  0  0  0  0  0  0  0  0
   -1.2710   -0.9090    0.2140 C   0  0  1  0  0  0  0  0  0  0  0  0
   -2.5940   -1.2860   -0.3550 C   0  0  0  0  0  0  0  0  0  0  0  0
   -2.3190   -2.1140   -1.4930 N   0  0  0  0  0  0  0  0  0  0  0  0
   -3.2130   -3.0530   -1.9560 C   0  0  0  0  0  0  0  0  0  0  0  0
   -4.3320   -3.1800   -1.3480 O   0  0  0  0  0  0  0  0  0  0  0  0
   -3.0270   -3.9580   -3.1090 C   0  0  1  0  0  0  0  0  0  0  0  0
   -3.8000   -5.2000   -3.2600 C   0  0  0  0  0  0  0  0  0  0  0  0
   -4.2090   -3.9790   -4.0510 C   0  0  0  0  0  0  0  0  0  0  0  0
   -1.0260   -1.8380   -2.1010 C   0  0  0  0  0  0  0  0  0  0  0  0
   -0.6370   -0.4390   -2.0170 C   0  0  0  0  0  0  0  0  0  0  0  0
   -0.5360    0.2200   -0.5810 C   0  0  1  0  0  0  0  0  0  0  0  0
   -1.4220    1.3480   -0.6360 C   0  0  0  0  0  0  0  0  0  0  0  0
   -1.1170    2.6500   -1.2100 C   0  0  0  0  0  0  0  0  0  0  0  0
   -0.6640    2.8490   -2.4970 C   0  0  0  0  0  0  0  0  0  0  0  0
   -0.2750    4.0760   -2.9620 C   0  0  0  0  0  0  0  0  0  0  0  0
    0.1230    4.1440   -4.1550 O   0  0  0  0  0  0  0  0  0  0  0  0
   -0.3210    5.1480   -2.1750 N   0  0  0  0  0  0  0  0  0  0  0  0
   -0.7610    5.0110   -0.9010 C   0  0  0  0  0  0  0  0  0  0  0  0
   -0.8510    6.1570   -0.1090 C   0  0  0  0  0  0  0  0  0  0  0  0
   -1.3380    6.0990    1.1740 C   0  0  0  0  0  0  0  0  0  0  0  0
   -1.7500    4.8990    1.7060 C   0  0  0  0  0  0  0  0  0  0  0  0
   -2.2740    4.8340    3.0620 C   0  0  0  0  0  0  0  0  0  0  0  0
   -2.3460    5.8880    3.7370 O   0  0  0  0  0  0  0  0  0  0  0  0
   -1.6440    3.7880    0.8940 C   0  0  0  0  0  0  0  0  0  0  0  0
   -1.1650    3.7760   -0.3950 C   0  0  0  0  0  0  0  0  0  0  0  0
    0.8230    0.1470   -0.1710 C   0  0  0  0  0  0  0  0  0  0  0  0
    1.6670   -0.7050   -0.9220 C   0  0  0  0  0  0  0  0  0  0  0  0
    2.9790   -0.9870   -0.5930 C   0  0  0  0  0  0  0  0  0  0  0  0
    3.7530   -1.8430   -1.3810 C   0  0  0  0  0  0  0  0  0  0  0  0
    3.1430   -2.4410   -2.5790 C   0  0  0  0  0  0  0  0  0  0  0  0
    5.0570   -2.0930   -1.0030 C   0  0  0  0  0  0  0  0  0  0  0  0
    5.8480   -3.0220   -1.8790 C   0  0  0  0  0  0  0  0  0  0  0  0
    5.6000   -1.5240    0.1170 C   0  0  0  0  0  0  0  0  0  0  0  0
    4.8270   -0.6700    0.9030 C   0  0  0  0  0  0  0  0  0  0  0  0
    5.4210   -0.0490    2.1150 C   0  0  0  0  0  0  0  0  0  0  0  0
    3.5230   -0.4190    0.5270 C   0  0  0  0  0  0  0  0  0  0  0  0
    2.7490    0.4100    1.2810 C   0  0  0  0  0  0  0  0  0  0  0  0
    1.4100    0.6920    0.9330 C   0  0  0  0  0  0  0  0  0  0  0  0
    0.6910    1.6780    1.6980 C   0  0  0  0  0  0  0  0  0  0  0  0
   -0.3980   -1.3220    2.4550 C   0  0  0  0  0  0  0  0  0  0  0  0
   -0.4600   -1.2700    3.8190 C   0  0  0  0  0  0  0  0  0  0  0  0
  1  2  1  0
  2  3  2  0
  2 46  1  0
  3  4  1  0
  4  5  2  0
  6  5  1  1
  5 45  1  0
  6  7  1  0
  6 16  1  0
  7  8  1  0
  8  9  1  0
  8 14  1  0
  9 10  2  0
 11  9  1  1
 11 12  1  0
 11 13  1  0
 12 13  1  0
 14 15  1  0
 15 16  1  0
 16 17  1  6
 16 31  1  0
 17 18  1  0
 18 19  2  0
 18 30  1  0
 19 20  1  0
 20 21  2  0
 20 22  1  0
 22 23  1  0
 23 24  2  0
 23 30  1  0
 24 25  1  0
 25 26  2  0
 26 27  1  0
 26 29  1  0
 27 28  2  0
 29 30  2  0
 31 32  2  0
 31 43  1  0
 32 33  1  0
 33 34  2  0
 33 41  1  0
 34 35  1  0
 34 36  1  0
 36 37  1  0
 36 38  2  0
 38 39  1  0
 39 40  1  0
 39 41  2  0
 41 42  1  0
 42 43  2  0
 43 44  1  0
 45 46  2  0
M  END
