
     RDKit          3D

 47 51  0  0  0  0  0  0  0  0999 V2000
   -5.8720   -0.4030    1.4140 C   0  0  0  0  0  0  0  0  0  0  0  0
   -5.3590   -1.3600    0.3720 C   0  0  2  0  0  0  0  0  0  0  0  0
   -4.9620   -2.7080    0.9350 C   0  0  0  0  0  0  0  0  0  0  0  0
   -4.3340   -0.7840   -0.5320 C   0  0  0  0  0  0  0  0  0  0  0  0
   -3.1200   -0.2880    0.1540 N   0  0  0  0  0  0  0  0  0  0  0  0
   -2.0580   -1.0010   -0.5440 C   0  0  0  0  0  0  0  0  0  0  0  0
   -0.6870   -0.9180   -0.0290 C   0  0  1  0  0  0  0  0  0  0  0  0
   -0.3900   -1.3680    1.1940 O   0  0  0  0  0  0  0  0  0  0  0  0
    0.2640   -1.2240   -1.1670 C   0  0  2  0  0  0  0  0  0  0  0  0
    0.1640   -2.5830   -1.7480 C   0  0  0  0  0  0  0  0  0  0  0  0
    0.4150   -3.7820   -0.9950 C   0  0  0  0  0  0  0  0  0  0  0  0
    1.6520   -4.4040   -1.1560 C   0  0  0  0  0  0  0  0  0  0  0  0
    2.0180   -5.5530   -0.5170 C   0  0  0  0  0  0  0  0  0  0  0  0
    1.0930   -6.1170    0.3340 C   0  0  0  0  0  0  0  0  0  0  0  0
   -0.1370   -5.5380    0.5220 C   0  0  0  0  0  0  0  0  0  0  0  0
   -0.4620   -4.3850   -0.1380 C   0  0  0  0  0  0  0  0  0  0  0  0
    1.5690   -0.6450   -1.0740 N   0  0  0  0  0  0  0  0  0  0  0  0
    2.6350   -1.0310   -0.2260 C   0  0  0  0  0  0  0  0  0  0  0  0
    2.4890   -1.9620    0.5660 O   0  0  0  0  0  0  0  0  0  0  0  0
    3.8990   -0.3070   -0.3340 C   0  0  2  0  0  0  0  0  0  0  0  0
    4.6670    0.0200    0.8810 C   0  0  0  0  0  0  0  0  0  0  0  0
    5.4430    1.1840    0.3990 N   0  0  0  0  0  0  0  0  0  0  0  0
    6.7960    1.5240    0.5950 C   0  0  0  0  0  0  0  0  0  0  0  0
    7.6170    0.8940    1.4980 C   0  0  0  0  0  0  0  0  0  0  0  0
    8.9410    1.2420    1.6610 C   0  0  0  0  0  0  0  0  0  0  0  0
    9.5110    2.2690    0.9020 C   0  0  0  0  0  0  0  0  0  0  0  0
    8.7060    2.9050    0.0010 C   0  0  0  0  0  0  0  0  0  0  0  0
    9.3240    4.0070   -0.8090 C   0  0  2  0  0  0  0  0  0  0  0  0
   10.0360    4.8810   -0.0130 F   0  0  0  0  0  0  0  0  0  0  0  0
    8.3850    4.7510   -1.4590 F   0  0  0  0  0  0  0  0  0  0  0  0
   10.1970    3.5090   -1.7380 F   0  0  0  0  0  0  0  0  0  0  0  0
    7.3950    2.5450   -0.1490 C   0  0  0  0  0  0  0  0  0  0  0  0
    4.4530    1.8950   -0.3740 C   0  0  0  0  0  0  0  0  0  0  0  0
    4.3530    3.1460   -0.4060 O   0  0  0  0  0  0  0  0  0  0  0  0
    3.6710    0.9230   -1.0320 O   0  0  0  0  0  0  0  0  0  0  0  0
   -3.0410    1.4010   -0.2970 S   0  0  2  0  0  0  0  0  0  0  0  0
   -2.9170    1.5320   -1.7920 O   0  0  0  0  0  0  0  0  0  0  0  0
   -1.8470    2.0550    0.3690 O   0  0  0  0  0  0  0  0  0  0  0  0
   -4.4400    2.3010    0.2070 C   0  0  0  0  0  0  0  0  0  0  0  0
   -4.6550    2.7440    1.4990 C   0  0  0  0  0  0  0  0  0  0  0  0
   -5.7700    3.4910    1.8290 C   0  0  0  0  0  0  0  0  0  0  0  0
   -6.7010    3.8130    0.8580 C   0  0  0  0  0  0  0  0  0  0  0  0
   -6.5210    3.3870   -0.4560 C   0  0  0  0  0  0  0  0  0  0  0  0
   -5.4030    2.6500   -0.7390 C   0  0  0  0  0  0  0  0  0  0  0  0
   -7.5970    3.8360   -1.2460 O   0  0  0  0  0  0  0  0  0  0  0  0
   -8.5100    4.4980   -0.3940 C   0  0  0  0  0  0  0  0  0  0  0  0
   -7.8880    4.5280    0.8670 O   0  0  0  0  0  0  0  0  0  0  0  0
  2  1  1  1
  2  3  1  0
  2  4  1  0
  4  5  1  0
  5  6  1  0
 36  5  1  6
  6  7  1  0
  7  8  1  1
  7  9  1  0
  9 10  1  1
  9 17  1  0
 10 11  1  0
 11 12  2  0
 11 16  1  0
 12 13  1  0
 13 14  2  0
 14 15  1  0
 15 16  2  0
 17 18  1  0
 18 19  2  0
 20 18  1  1
 20 21  1  0
 20 35  1  0
 21 22  1  0
 22 23  1  0
 22 33  1  0
 23 24  2  0
 23 32  1  0
 24 25  1  0
 25 26  2  0
 26 27  1  0
 27 28  1  0
 27 32  2  0
 28 29  1  1
 28 30  1  0
 28 31  1  0
 33 34  2  0
 33 35  1  0
 36 37  2  0
 36 38  2  0
 36 39  1  0
 39 40  2  0
 39 44  1  0
 40 41  1  0
 41 42  2  0
 42 43  1  0
 42 47  1  0
 43 44  2  0
 43 45  1  0
 45 46  1  0
 46 47  1  0
M  END
