
     RDKit          3D

 45 46  0  0  0  0  0  0  0  0999 V2000
    7.6740    4.9960    0.0620 C   0  0  0  0  0  0  0  0  0  0  0  0
    8.4470    3.7200    0.3330 C   0  0  0  0  0  0  0  0  0  0  0  0
    7.3970    2.5730    0.4290 C   0  0  1  0  0  0  0  0  0  0  0  0
    6.6950    2.5330   -0.8700 C   0  0  0  0  0  0  0  0  0  0  0  0
    5.6190    1.5460   -0.9860 C   0  0  0  0  0  0  0  0  0  0  0  0
    4.9950    1.4790   -2.1320 O   0  0  0  0  0  0  0  0  0  0  0  0
    5.1470    0.6620   -0.0650 O   0  0  0  0  0  0  0  0  0  0  0  0
    4.0730   -0.2360   -0.3290 C   0  0  1  0  0  0  0  0  0  0  0  0
    4.6900   -1.6630   -0.3550 C   0  0  0  0  0  0  0  0  0  0  0  0
    3.1550   -0.2080    0.8510 C   0  0  0  0  0  0  0  0  0  0  0  0
    1.9910   -1.0950    0.6360 N   0  0  0  0  0  0  0  0  0  0  0  0
    1.0820   -0.8420   -0.4080 C   0  0  0  0  0  0  0  0  0  0  0  0
    1.3300    0.1780   -1.1260 O   0  0  0  0  0  0  0  0  0  0  0  0
   -0.0350   -1.6190   -0.6890 N   0  0  0  0  0  0  0  0  0  0  0  0
   -0.8220   -1.0840   -1.8690 C   0  0  0  0  0  0  0  0  0  0  0  0
   -1.7730   -0.1480   -1.2110 C   0  0  0  0  0  0  0  0  0  0  0  0
   -3.0420   -0.4180   -1.3960 C   0  0  0  0  0  0  0  0  0  0  0  0
   -4.1510    0.3780   -0.8360 C   0  0  0  0  0  0  0  0  0  0  0  0
   -5.3130    0.2160   -1.4090 C   0  0  0  0  0  0  0  0  0  0  0  0
   -5.4560   -0.6730   -2.4900 N   0  0  0  0  0  0  0  0  0  0  0  0
   -5.8800   -0.0820   -3.7580 C   0  0  1  0  0  0  0  0  0  0  0  0
   -7.2280    0.5970   -3.5900 C   0  0  0  0  0  0  0  0  0  0  0  0
   -4.8650    0.9980   -4.1080 C   0  0  0  0  0  0  0  0  0  0  0  0
   -4.8170    1.9730   -3.1240 O   0  0  0  0  0  0  0  0  0  0  0  0
   -4.0640    1.3220    0.3050 C   0  0  0  0  0  0  0  0  0  0  0  0
   -5.1150    1.3490    1.1040 C   0  0  0  0  0  0  0  0  0  0  0  0
   -5.1330    2.2300    2.2460 C   0  0  0  0  0  0  0  0  0  0  0  0
   -6.1290    2.3260    3.0730 C   0  0  0  0  0  0  0  0  0  0  0  0
   -7.3920    1.6200    3.0580 C   0  0  0  0  0  0  0  0  0  0  0  0
   -7.6150    0.7240    2.0630 O   0  0  0  0  0  0  0  0  0  0  0  0
   -2.9120    2.1770    0.5340 C   0  0  0  0  0  0  0  0  0  0  0  0
   -1.6380    1.9360    0.1610 C   0  0  0  0  0  0  0  0  0  0  0  0
   -0.6830    2.9980    0.5400 C   0  0  0  0  0  0  0  0  0  0  0  0
   -1.1240    0.8610   -0.5070 O   0  0  0  0  0  0  0  0  0  0  0  0
   -0.5630   -2.7750   -0.0490 C   0  0  1  0  0  0  0  0  0  0  0  0
    0.2720   -4.0010   -0.0680 C   0  0  0  0  0  0  0  0  0  0  0  0
   -0.4710   -5.1470    0.5840 C   0  0  0  0  0  0  0  0  0  0  0  0
   -1.9390   -4.9300    0.7270 C   0  0  0  0  0  0  0  0  0  0  0  0
   -2.3530   -3.6370    1.3410 C   0  0  1  0  0  0  0  0  0  0  0  0
   -2.9110   -3.7640    2.7300 C   0  0  0  0  0  0  0  0  0  0  0  0
   -1.2460   -2.5670    1.2660 C   0  0  1  0  0  0  0  0  0  0  0  0
   -0.4070   -2.6190    2.4850 C   0  0  0  0  0  0  0  0  0  0  0  0
    8.1140    1.3170    0.7930 C   0  0  2  0  0  0  0  0  0  0  0  0
    9.1560    0.8760   -0.2130 C   0  0  0  0  0  0  0  0  0  0  0  0
    7.2700    0.2770    1.0570 O   0  0  0  0  0  0  0  0  0  0  0  0
  1  2  1  0
  3  2  1  6
  3  4  1  0
  3 43  1  0
  4  5  1  0
  5  6  2  0
  5  7  1  0
  7  8  1  0
  8  9  1  1
  8 10  1  0
 10 11  1  0
 11 12  1  0
 12 13  2  0
 12 14  1  0
 14 15  1  0
 35 14  1  1
 15 16  1  0
 16 17  2  0
 16 34  1  0
 17 18  1  0
 18 19  2  3
 18 25  1  0
 19 20  1  0
 20 21  1  0
 21 22  1  1
 21 23  1  0
 23 24  1  0
 25 26  2  3
 25 31  1  0
 26 27  1  0
 27 28  2  3
 28 29  1  0
 29 30  1  0
 31 32  2  0
 32 33  1  0
 32 34  1  0
 35 36  1  0
 35 41  1  0
 36 37  1  0
 37 38  1  0
 38 39  1  0
 39 40  1  1
 39 41  1  0
 41 42  1  1
 43 44  1  6
 43 45  1  0
M  END
