
     RDKit          3D

 45 48  0  0  0  0  0  0  0  0999 V2000
   -8.6270    4.7240    2.2350 C   0  0  0  0  0  0  0  0  0  0  0  0
   -7.6630    3.8980    1.4310 C   0  0  0  0  0  0  0  0  0  0  0  0
   -6.3770    3.8300    1.8700 C   0  0  0  0  0  0  0  0  0  0  0  0
   -5.4630    3.0560    1.1380 C   0  0  0  0  0  0  0  0  0  0  0  0
   -5.8440    2.3910    0.0180 C   0  0  0  0  0  0  0  0  0  0  0  0
   -4.8930    1.5930   -0.7400 C   0  0  0  0  0  0  0  0  0  0  0  0
   -3.6510    1.4660   -0.3210 C   0  0  0  0  0  0  0  0  0  0  0  0
   -2.6620    0.6660   -1.0580 C   0  0  0  0  0  0  0  0  0  0  0  0
   -3.2020   -0.4220   -1.8970 C   0  0  2  0  0  0  0  0  0  0  0  0
   -3.8560   -1.4530   -1.1850 O   0  0  0  0  0  0  0  0  0  0  0  0
   -2.2420   -0.9840   -2.8990 C   0  0  0  0  0  0  0  0  0  0  0  0
   -1.2830   -1.9120   -2.2000 N   0  0  0  0  0  0  0  0  0  0  0  0
   -1.7570   -3.2690   -2.2430 C   0  0  0  0  0  0  0  0  0  0  0  0
   -1.3430   -4.0100   -3.5160 C   0  0  0  0  0  0  0  0  0  0  0  0
   -2.0230   -5.3900   -3.3740 C   0  0  0  0  0  0  0  0  0  0  0  0
   -1.6040   -6.0310   -2.2370 O   0  0  0  0  0  0  0  0  0  0  0  0
   -0.1100   -1.4250   -1.6680 C   0  0  0  0  0  0  0  0  0  0  0  0
    0.0340   -0.1340   -2.0100 O   0  0  0  0  0  0  0  0  0  0  0  0
    0.9640   -1.9770   -0.8480 C   0  0  1  0  0  0  0  0  0  0  0  0
    1.9260   -0.8730   -0.6190 N   0  0  0  0  0  0  0  0  0  0  0  0
    3.3150   -0.8980   -0.5570 C   0  0  0  0  0  0  0  0  0  0  0  0
    3.9510   -1.9270   -0.6910 O   0  0  0  0  0  0  0  0  0  0  0  0
    4.0370    0.3990   -0.3110 C   0  0  0  0  0  0  0  0  0  0  0  0
    5.3540    0.2510    0.0670 O   0  0  0  0  0  0  0  0  0  0  0  0
    5.8190    1.5700    0.2610 C   0  0  0  0  0  0  0  0  0  0  0  0
    7.2380    1.5920    0.7780 C   0  0  1  0  0  0  0  0  0  0  0  0
    8.1100    0.9880   -0.1040 O   0  0  0  0  0  0  0  0  0  0  0  0
    7.6710    2.9700    1.0690 C   0  0  0  0  0  0  0  0  0  0  0  0
    8.1270    3.8480    0.1150 C   0  0  0  0  0  0  0  0  0  0  0  0
    8.4890    5.1340    0.4380 C   0  0  0  0  0  0  0  0  0  0  0  0
    8.4130    5.5940    1.7200 C   0  0  0  0  0  0  0  0  0  0  0  0
    7.9580    4.7390    2.7190 C   0  0  0  0  0  0  0  0  0  0  0  0
    7.5930    3.4420    2.3860 C   0  0  0  0  0  0  0  0  0  0  0  0
    0.5830   -2.5290    0.5110 C   0  0  2  0  0  0  0  0  0  0  0  0
    0.0750   -1.5980    1.5340 C   0  0  0  0  0  0  0  0  0  0  0  0
   -0.3990   -2.4110    2.7550 C   0  0  0  0  0  0  0  0  0  0  0  0
    0.6940   -3.2380    3.3780 C   0  0  0  0  0  0  0  0  0  0  0  0
    1.9250   -3.1590    2.4920 C   0  0  0  0  0  0  0  0  0  0  0  0
    1.5300   -3.5330    1.0650 C   0  0  1  0  0  0  0  0  0  0  0  0
    0.8360   -4.7900    1.2250 O   0  0  0  0  0  0  0  0  0  0  0  0
   -4.3480    0.1910   -2.6720 C   0  0  0  0  0  0  0  0  0  0  0  0
   -4.4530    0.0200   -3.8740 O   0  0  0  0  0  0  0  0  0  0  0  0
   -5.2760    0.9590   -1.9290 N   0  0  0  0  0  0  0  0  0  0  0  0
   -7.1460    2.4820   -0.3960 C   0  0  0  0  0  0  0  0  0  0  0  0
   -8.1130    3.2430    0.2990 C   0  0  0  0  0  0  0  0  0  0  0  0
  1  2  1  0
  2  3  2  0
  2 45  1  0
  3  4  1  0
  4  5  2  0
  5  6  1  0
  5 44  1  0
  6  7  2  0
  6 43  1  0
  7  8  1  0
  8  9  1  0
  9 10  1  1
  9 11  1  0
  9 41  1  0
 11 12  1  0
 12 13  1  0
 12 17  1  0
 13 14  1  0
 14 15  1  0
 15 16  1  0
 17 18  2  0
 17 19  1  0
 19 20  1  1
 19 34  1  0
 20 21  1  0
 21 22  2  0
 21 23  1  0
 23 24  1  0
 24 25  1  0
 25 26  1  0
 26 27  1  6
 26 28  1  0
 28 29  2  0
 28 33  1  0
 29 30  1  0
 30 31  2  0
 31 32  1  0
 32 33  2  0
 34 35  1  1
 34 39  1  0
 35 36  1  0
 36 37  1  0
 37 38  1  0
 38 39  1  0
 39 40  1  1
 41 42  2  0
 41 43  1  0
 44 45  2  0
M  END
