
     RDKit          3D

 46 49  0  0  0  0  0  0  0  0999 V2000
   11.0570    0.1430    0.7020 C   0  0  0  0  0  0  0  0  0  0  0  0
   10.4110    1.1170   -0.2590 C   0  0  0  0  0  0  0  0  0  0  0  0
    9.0200    0.9610   -0.3440 O   0  0  0  0  0  0  0  0  0  0  0  0
    8.2080    1.1450    0.7470 C   0  0  0  0  0  0  0  0  0  0  0  0
    8.7130    1.5100    1.9890 C   0  0  0  0  0  0  0  0  0  0  0  0
    7.8370    1.6830    3.0630 C   0  0  0  0  0  0  0  0  0  0  0  0
    6.4950    1.4880    2.8680 C   0  0  0  0  0  0  0  0  0  0  0  0
    5.9940    1.1210    1.6110 C   0  0  0  0  0  0  0  0  0  0  0  0
    6.8540    0.9520    0.5570 C   0  0  0  0  0  0  0  0  0  0  0  0
    6.3580    0.5910   -0.7860 C   0  0  0  0  0  0  0  0  0  0  0  0
    4.9630    0.4310   -0.7230 O   0  0  0  0  0  0  0  0  0  0  0  0
    4.2090    0.1220   -1.8550 C   0  0  0  0  0  0  0  0  0  0  0  0
    4.8210   -0.0200   -3.0600 C   0  0  0  0  0  0  0  0  0  0  0  0
    4.0800   -0.3260   -4.1840 C   0  0  0  0  0  0  0  0  0  0  0  0
    2.7140   -0.4790   -4.0340 C   0  0  0  0  0  0  0  0  0  0  0  0
    2.0470   -0.3470   -2.8350 C   0  0  0  0  0  0  0  0  0  0  0  0
    0.6490   -0.5180   -2.8320 N   0  0  0  0  0  0  0  0  0  0  0  0
   -0.0680   -1.0870   -1.7000 C   0  0  0  0  0  0  0  0  0  0  0  0
    0.6890   -1.4050   -0.7620 O   0  0  0  0  0  0  0  0  0  0  0  0
   -1.5310   -1.2270   -1.7670 C   0  0  0  0  0  0  0  0  0  0  0  0
   -2.2890   -1.6270   -0.5710 C   0  0  2  0  0  0  0  0  0  0  0  0
   -3.7470   -1.8440   -0.8400 C   0  0  2  0  0  0  0  0  0  0  0  0
   -4.3790   -1.1730   -1.9860 C   0  0  0  0  0  0  0  0  0  0  0  0
   -3.9470   -0.2950   -2.7230 O   0  0  0  0  0  0  0  0  0  0  0  0
   -5.7220   -1.6200   -2.2890 N   0  0  0  0  0  0  0  0  0  0  0  0
   -6.5400   -1.1000   -3.3280 C   0  0  0  0  0  0  0  0  0  0  0  0
   -6.9120    0.3310   -3.1050 C   0  0  0  0  0  0  0  0  0  0  0  0
   -5.8640    1.1950   -3.0360 O   0  0  0  0  0  0  0  0  0  0  0  0
   -4.6390   -1.7890    0.3290 C   0  0  0  0  0  0  0  0  0  0  0  0
   -4.2710   -0.9020    1.4460 C   0  0  1  0  0  0  0  0  0  0  0  0
   -4.1280   -1.8330    2.6810 C   0  0  0  0  0  0  0  0  0  0  0  0
   -2.9070   -2.6190    2.5810 C   0  0  0  0  0  0  0  0  0  0  0  0
   -1.7290   -2.0940    1.8370 C   0  0  1  0  0  0  0  0  0  0  0  0
   -1.0140   -3.3760    1.3670 C   0  0  0  0  0  0  0  0  0  0  0  0
   -1.9820   -1.0850    0.7680 C   0  0  1  0  0  0  0  0  0  0  0  0
   -0.8750   -0.2090    0.6580 O   0  0  0  0  0  0  0  0  0  0  0  0
   -3.0590   -0.0990    1.3700 C   0  0  2  0  0  0  0  0  0  0  0  0
   -2.4750    0.3720    2.6360 C   0  0  0  0  0  0  0  0  0  0  0  0
   -3.1460    1.3010    3.5500 C   0  0  0  0  0  0  0  0  0  0  0  0
   -3.3130    2.5920    3.0630 O   0  0  0  0  0  0  0  0  0  0  0  0
   -3.1190    1.0940    0.4510 C   0  0  0  0  0  0  0  0  0  0  0  0
   -4.2060    2.0480    0.6080 C   0  0  0  0  0  0  0  0  0  0  0  0
   -5.2700    1.8000    1.1810 O   0  0  0  0  0  0  0  0  0  0  0  0
   -4.0990    3.3870    0.0870 N   0  0  0  0  0  0  0  0  0  0  0  0
   -5.1640    4.3450    0.2340 C   0  0  0  0  0  0  0  0  0  0  0  0
    2.8230   -0.0430   -1.7480 C   0  0  0  0  0  0  0  0  0  0  0  0
  1  2  1  0
  2  3  1  0
  3  4  1  0
  4  5  2  0
  4  9  1  0
  5  6  1  0
  6  7  2  0
  7  8  1  0
  8  9  2  0
  9 10  1  0
 10 11  1  0
 11 12  1  0
 12 13  2  0
 12 46  1  0
 13 14  1  0
 14 15  2  0
 15 16  1  0
 16 17  1  0
 16 46  2  0
 17 18  1  0
 18 19  2  0
 18 20  1  0
 21 20  1  6
 21 22  1  0
 21 35  1  0
 22 23  1  6
 22 29  1  0
 23 24  2  0
 23 25  1  0
 25 26  1  0
 26 27  1  0
 27 28  1  0
 30 29  1  6
 30 31  1  0
 30 37  1  0
 31 32  1  0
 32 33  1  0
 33 34  1  6
 33 35  1  0
 35 36  1  6
 35 37  1  0
 37 38  1  1
 37 41  1  0
 38 39  1  0
 39 40  1  0
 41 42  1  0
 42 43  2  0
 42 44  1  0
 44 45  1  0
M  END
