
     RDKit          3D

 46 49  0  0  0  0  0  0  0  0999 V2000
   -0.2860    2.5780    1.2950 C   0  0  0  0  0  0  0  0  0  0  0  0
    0.3070    1.4390    0.5010 C   0  0  0  0  0  0  0  0  0  0  0  0
   -0.3990    0.3710    0.1600 C   0  0  0  0  0  0  0  0  0  0  0  0
   -1.8050    0.3280    0.5880 C   0  0  0  0  0  0  0  0  0  0  0  0
   -2.2780    1.2840    1.2380 O   0  0  0  0  0  0  0  0  0  0  0  0
   -2.6880   -0.7490    0.3060 N   0  0  0  0  0  0  0  0  0  0  0  0
   -4.0540   -0.8800    0.6630 C   0  0  0  0  0  0  0  0  0  0  0  0
   -4.7480    0.1650    1.2610 C   0  0  0  0  0  0  0  0  0  0  0  0
   -6.0900    0.0920    1.6000 C   0  0  0  0  0  0  0  0  0  0  0  0
   -6.8210    1.0900    2.1920 O   0  0  0  0  0  0  0  0  0  0  0  0
   -6.4000    2.3310    2.6050 C   0  0  1  0  0  0  0  0  0  0  0  0
   -7.0830    3.4560    1.9390 C   0  0  0  0  0  0  0  0  0  0  0  0
   -7.4970    3.5760    0.7580 O   0  0  0  0  0  0  0  0  0  0  0  0
   -7.2220    4.4620    2.8840 O   0  0  0  0  0  0  0  0  0  0  0  0
   -7.4540    3.8270    4.1590 C   0  0  0  0  0  0  0  0  0  0  0  0
   -6.6860    2.5340    4.0700 C   0  0  2  0  0  0  0  0  0  0  0  0
   -5.4110    2.7060    4.8710 C   0  0  0  0  0  0  0  0  0  0  0  0
   -6.6990   -1.1080    1.2990 C   0  0  0  0  0  0  0  0  0  0  0  0
   -6.0270   -2.1700    0.7000 C   0  0  0  0  0  0  0  0  0  0  0  0
   -4.7000   -2.1030    0.3630 C   0  0  0  0  0  0  0  0  0  0  0  0
   -3.9720   -3.1310   -0.2420 N   0  0  0  0  0  0  0  0  0  0  0  0
   -4.4930   -4.4220   -0.4960 C   0  0  0  0  0  0  0  0  0  0  0  0
   -5.6500   -4.7390   -0.1910 O   0  0  0  0  0  0  0  0  0  0  0  0
   -3.5930   -5.4640   -1.1710 C   0  0  0  0  0  0  0  0  0  0  0  0
   -4.4000   -6.7180   -1.2950 C   0  0  0  0  0  0  0  0  0  0  0  0
   -5.5230   -6.4380   -2.0710 O   0  0  0  0  0  0  0  0  0  0  0  0
    0.1670   -0.7470   -0.6260 C   0  0  2  0  0  0  0  0  0  0  0  0
   -0.6440   -0.9400   -1.9220 C   0  0  0  0  0  0  0  0  0  0  0  0
    0.0770   -2.0570    0.1920 C   0  0  0  0  0  0  0  0  0  0  0  0
    1.5800   -0.6230   -1.0290 C   0  0  0  0  0  0  0  0  0  0  0  0
    2.2950    0.6060   -0.6080 C   0  0  0  0  0  0  0  0  0  0  0  0
    3.7110    0.7690   -1.0000 C   0  0  0  0  0  0  0  0  0  0  0  0
    4.2080   -0.1590   -1.6860 O   0  0  0  0  0  0  0  0  0  0  0  0
    4.4570    1.8950   -0.6280 N   0  0  0  0  0  0  0  0  0  0  0  0
    5.8620    2.0490   -1.0310 C   0  0  0  0  0  0  0  0  0  0  0  0
    6.7530    1.0170   -0.4980 C   0  0  0  0  0  0  0  0  0  0  0  0
    6.3800    0.0190    0.3450 C   0  0  0  0  0  0  0  0  0  0  0  0
    7.3110   -0.9210    0.8030 C   0  0  0  0  0  0  0  0  0  0  0  0
    8.6210   -0.8430    0.4040 C   0  0  0  0  0  0  0  0  0  0  0  0
    8.9870    0.1720   -0.4480 C   0  0  0  0  0  0  0  0  0  0  0  0
    8.0980    1.1150   -0.9210 C   0  0  0  0  0  0  0  0  0  0  0  0
    8.4460    2.0870   -1.7320 O   0  0  0  0  0  0  0  0  0  0  0  0
    9.4910    2.6010   -2.4070 C   0  0  0  0  0  0  0  0  0  0  0  0
   10.0430    1.6370   -3.4310 C   0  0  0  0  0  0  0  0  0  0  0  0
   11.1160    2.2750   -4.0670 O   0  0  0  0  0  0  0  0  0  0  0  0
    1.6870    1.5100    0.0810 C   0  0  0  0  0  0  0  0  0  0  0  0
  1  2  1  0
  2  3  2  0
  2 46  1  0
  3  4  1  0
  3 27  1  0
  4  5  2  0
  4  6  1  0
  6  7  1  0
  7  8  2  0
  7 20  1  0
  8  9  1  0
  9 10  1  0
  9 18  2  0
 11 10  1  6
 11 12  1  0
 11 16  1  0
 12 13  2  0
 12 14  1  0
 14 15  1  0
 15 16  1  0
 16 17  1  1
 18 19  1  0
 19 20  2  0
 20 21  1  0
 21 22  1  0
 22 23  2  0
 22 24  1  0
 24 25  1  0
 25 26  1  0
 27 28  1  6
 27 29  1  0
 27 30  1  0
 30 31  1  0
 31 32  1  0
 31 46  2  0
 32 33  2  0
 32 34  1  0
 34 35  1  0
 35 36  1  0
 36 37  2  0
 36 41  1  0
 37 38  1  0
 38 39  2  0
 39 40  1  0
 40 41  2  0
 41 42  1  0
 42 43  1  0
 43 44  1  0
 44 45  1  0
M  END
