
     RDKit          3D

 46 49  0  0  0  0  0  0  0  0999 V2000
   -6.9770   -3.0260   -2.7480 C   0  0  0  0  0  0  0  0  0  0  0  0
   -6.5880   -1.8240   -3.2440 O   0  0  0  0  0  0  0  0  0  0  0  0
   -5.8090   -1.0880   -2.3850 C   0  0  0  0  0  0  0  0  0  0  0  0
   -4.5050   -1.7080   -1.9990 C   0  0  0  0  0  0  0  0  0  0  0  0
   -3.6760   -0.9030   -1.0380 C   0  0  0  0  0  0  0  0  0  0  0  0
   -4.2790   -0.5920    0.2510 C   0  0  0  0  0  0  0  0  0  0  0  0
   -4.2050    0.6200    0.7830 C   0  0  0  0  0  0  0  0  0  0  0  0
   -3.5270    1.7160    0.1350 C   0  0  0  0  0  0  0  0  0  0  0  0
   -2.2460    2.0320    0.6040 C   0  0  0  0  0  0  0  0  0  0  0  0
   -1.6590    1.2550    1.6870 C   0  0  0  0  0  0  0  0  0  0  0  0
   -2.2600    0.2170    2.0780 O   0  0  0  0  0  0  0  0  0  0  0  0
   -0.4470    1.5840    2.3480 N   0  0  0  0  0  0  0  0  0  0  0  0
    0.1340    0.8070    3.4300 C   0  0  0  0  0  0  0  0  0  0  0  0
    0.4990   -0.5860    3.0640 C   0  0  0  0  0  0  0  0  0  0  0  0
    1.3980   -0.8110    2.0810 O   0  0  0  0  0  0  0  0  0  0  0  0
    2.7180   -0.5320    1.9350 C   0  0  0  0  0  0  0  0  0  0  0  0
    3.3890    0.0660    2.9450 C   0  0  0  0  0  0  0  0  0  0  0  0
    4.7430    0.3630    2.8100 C   0  0  0  0  0  0  0  0  0  0  0  0
    5.3930    0.9660    3.8530 C   0  0  0  0  0  0  0  0  0  0  0  0
    6.7310    1.2690    3.7630 C   0  0  0  0  0  0  0  0  0  0  0  0
    7.3700    0.9420    2.5960 C   0  0  0  0  0  0  0  0  0  0  0  0
    6.6970    0.3250    1.5300 C   0  0  0  0  0  0  0  0  0  0  0  0
    5.3720    0.0180    1.5990 C   0  0  0  0  0  0  0  0  0  0  0  0
    4.7180   -0.5900    0.5590 C   0  0  0  0  0  0  0  0  0  0  0  0
    5.2890   -0.9770   -0.6830 C   0  0  0  0  0  0  0  0  0  0  0  0
    4.4520   -1.5940   -1.5000 O   0  0  0  0  0  0  0  0  0  0  0  0
    6.5350   -0.8760   -1.2930 N   0  0  0  0  0  0  0  0  0  0  0  0
    6.8100   -1.4180   -2.6370 C   0  0  1  0  0  0  0  0  0  0  0  0
    7.1060   -0.2480   -3.5510 C   0  0  0  0  0  0  0  0  0  0  0  0
    8.0220   -2.3160   -2.6010 C   0  0  0  0  0  0  0  0  0  0  0  0
    9.1550   -1.6130   -2.1740 O   0  0  0  0  0  0  0  0  0  0  0  0
    3.3530   -0.8790    0.7170 C   0  0  0  0  0  0  0  0  0  0  0  0
    2.5740   -1.4610   -0.1870 O   0  0  0  0  0  0  0  0  0  0  0  0
   -1.6140    3.0610    0.0340 N   0  0  0  0  0  0  0  0  0  0  0  0
   -2.1780    3.7980   -0.9750 C   0  0  0  0  0  0  0  0  0  0  0  0
   -1.5610    4.7540   -1.4890 O   0  0  0  0  0  0  0  0  0  0  0  0
   -3.4350    3.4860   -1.4310 C   0  0  0  0  0  0  0  0  0  0  0  0
   -4.0290    4.2480   -2.4380 C   0  0  0  0  0  0  0  0  0  0  0  0
   -5.3050    3.9590   -2.8830 C   0  0  0  0  0  0  0  0  0  0  0  0
   -6.0100    2.8990   -2.3250 C   0  0  0  0  0  0  0  0  0  0  0  0
   -5.3940    2.1710   -1.3360 C   0  0  0  0  0  0  0  0  0  0  0  0
   -4.1240    2.4300   -0.8700 C   0  0  0  0  0  0  0  0  0  0  0  0
   -4.9900   -1.6520    1.0080 C   0  0  0  0  0  0  0  0  0  0  0  0
   -5.0670   -2.7890    0.5260 O   0  0  0  0  0  0  0  0  0  0  0  0
   -5.5690   -1.3970    2.2410 O   0  0  0  0  0  0  0  0  0  0  0  0
   -6.2550   -2.3590    3.0060 C   0  0  0  0  0  0  0  0  0  0  0  0
  1  2  1  0
  2  3  1  0
  3  4  1  0
  4  5  1  0
  5  6  1  0
  6  7  2  3
  6 43  1  0
  7  8  1  0
  8  9  2  0
  8 42  1  0
  9 10  1  0
  9 34  1  0
 10 11  2  0
 10 12  1  0
 12 13  1  0
 13 14  1  0
 14 15  1  0
 15 16  1  0
 16 17  2  0
 16 32  1  0
 17 18  1  0
 18 19  2  0
 18 23  1  0
 19 20  1  0
 20 21  2  0
 21 22  1  0
 22 23  2  0
 23 24  1  0
 24 25  1  0
 24 32  2  0
 25 26  2  0
 25 27  1  0
 27 28  1  0
 28 29  1  6
 28 30  1  0
 30 31  1  0
 32 33  1  0
 34 35  1  0
 35 36  2  0
 35 37  1  0
 37 38  2  0
 37 42  1  0
 38 39  1  0
 39 40  2  0
 40 41  1  0
 41 42  2  0
 43 44  2  0
 43 45  1  0
 45 46  1  0
M  END
