
     RDKit          3D

 45 48  0  0  0  0  0  0  0  0999 V2000
    7.6360   -2.6770   -0.5460 C   0  0  0  0  0  0  0  0  0  0  0  0
    7.1110   -1.4530   -0.0740 O   0  0  0  0  0  0  0  0  0  0  0  0
    6.0840   -0.7740   -0.6690 C   0  0  0  0  0  0  0  0  0  0  0  0
    5.5770   -1.2780   -1.7040 O   0  0  0  0  0  0  0  0  0  0  0  0
    5.5400    0.5010   -0.1740 C   0  0  1  0  0  0  0  0  0  0  0  0
    4.8990    0.3380    1.1430 C   0  0  2  0  0  0  0  0  0  0  0  0
    4.2960    1.6400    1.6780 C   0  0  0  0  0  0  0  0  0  0  0  0
    6.0470    0.1160    2.1600 C   0  0  0  0  0  0  0  0  0  0  0  0
    4.0770   -0.7530    1.3550 O   0  0  0  0  0  0  0  0  0  0  0  0
    2.9100   -1.1080    0.7170 C   0  0  0  0  0  0  0  0  0  0  0  0
    2.5320   -0.3410   -0.1740 O   0  0  0  0  0  0  0  0  0  0  0  0
    2.1650   -2.3500    1.0990 C   0  0  1  0  0  0  0  0  0  0  0  0
    1.7580   -2.2970    2.5370 C   0  0  0  0  0  0  0  0  0  0  0  0
    0.2640   -2.2010    2.5980 C   0  0  0  0  0  0  0  0  0  0  0  0
   -0.1600   -1.1860    1.5480 C   0  0  0  0  0  0  0  0  0  0  0  0
   -0.1130   -1.8150    0.1470 C   0  0  1  0  0  0  0  0  0  0  0  0
    1.0880   -2.6960    0.1410 C   0  0  0  0  0  0  0  0  0  0  0  0
   -1.4190   -2.6230    0.0700 C   0  0  0  0  0  0  0  0  0  0  0  0
   -2.5410   -1.6830   -0.2990 C   0  0  2  0  0  0  0  0  0  0  0  0
   -3.8850   -2.3180   -0.0880 C   0  0  2  0  0  0  0  0  0  0  0  0
   -4.1050   -3.5520   -0.8900 C   0  0  0  0  0  0  0  0  0  0  0  0
   -4.9760   -1.3520   -0.3570 C   0  0  0  0  0  0  0  0  0  0  0  0
   -5.8060   -1.6540   -1.2440 O   0  0  0  0  0  0  0  0  0  0  0  0
   -5.1310   -0.1620    0.2990 O   0  0  0  0  0  0  0  0  0  0  0  0
   -6.1580    0.7820    0.0700 C   0  0  1  0  0  0  0  0  0  0  0  0
   -7.0330    0.9500    1.2830 C   0  0  0  0  0  0  0  0  0  0  0  0
   -6.5850    1.9070    2.3070 C   0  0  2  0  0  0  0  0  0  0  0  0
   -7.7570    2.7870    2.6990 C   0  0  0  0  0  0  0  0  0  0  0  0
   -5.4720    2.5930    1.9120 O   0  0  0  0  0  0  0  0  0  0  0  0
   -5.6200    3.1390    0.6790 C   0  0  1  0  0  0  0  0  0  0  0  0
   -4.4220    4.0790    0.4670 C   0  0  0  0  0  0  0  0  0  0  0  0
   -4.5100    4.6760   -0.7870 O   0  0  0  0  0  0  0  0  0  0  0  0
   -5.6250    2.1060   -0.4340 C   0  0  0  0  0  0  0  0  0  0  0  0
   -2.2840   -1.2660   -1.7300 C   0  0  0  0  0  0  0  0  0  0  0  0
   -0.8080   -0.9980   -1.9500 C   0  0  1  0  0  0  0  0  0  0  0  0
   -0.3350   -1.9650   -3.0070 C   0  0  0  0  0  0  0  0  0  0  0  0
   -0.7560    0.3630   -2.6110 C   0  0  0  0  0  0  0  0  0  0  0  0
   -1.3910    0.5610   -3.6880 O   0  0  0  0  0  0  0  0  0  0  0  0
   -0.0400    1.4200   -2.0910 O   0  0  0  0  0  0  0  0  0  0  0  0
   -0.0090    2.6760   -2.7260 C   0  0  0  0  0  0  0  0  0  0  0  0
   -0.0570   -0.9110   -0.8470 O   0  0  0  0  0  0  0  0  0  0  0  0
    6.7450    1.4400    0.0060 C   0  0  0  0  0  0  0  0  0  0  0  0
    7.0630    1.8470   -1.4180 C   0  0  0  0  0  0  0  0  0  0  0  0
    5.7220    2.0120   -2.0460 C   0  0  0  0  0  0  0  0  0  0  0  0
    4.7520    1.1740   -1.2400 C   0  0  0  0  0  0  0  0  0  0  0  0
  1  2  1  0
  2  3  1  0
  3  4  2  0
  5  3  1  6
  5  6  1  0
  5 42  1  0
  5 45  1  0
  6  7  1  1
  6  8  1  0
  6  9  1  0
  9 10  1  0
 10 11  2  0
 12 10  1  6
 12 13  1  0
 12 17  1  0
 13 14  1  0
 14 15  1  0
 16 15  1  1
 16 17  1  0
 16 18  1  0
 16 41  1  0
 19 18  1  6
 19 20  1  0
 19 34  1  0
 20 21  1  6
 20 22  1  0
 22 23  2  0
 22 24  1  0
 25 24  1  1
 25 26  1  0
 25 33  1  0
 26 27  1  0
 27 28  1  6
 27 29  1  0
 29 30  1  0
 30 31  1  6
 30 33  1  0
 31 32  1  0
 34 35  1  0
 35 36  1  6
 35 37  1  0
 35 41  1  0
 37 38  2  0
 37 39  1  0
 39 40  1  0
 42 43  1  0
 43 44  1  0
 44 45  1  0
M  END
