
     RDKit          3D

 46 50  0  0  0  0  0  0  0  0999 V2000
    6.2380   -1.5350    0.7380 C   0  0  0  0  0  0  0  0  0  0  0  0
    5.6130   -0.1640    0.7250 C   0  0  0  0  0  0  0  0  0  0  0  0
    4.0960   -0.2070    0.5600 C   0  0  2  0  0  0  0  0  0  0  0  0
    3.6520    1.0320    0.5530 O   0  0  0  0  0  0  0  0  0  0  0  0
    3.1910    1.7200   -0.5150 C   0  0  1  0  0  0  0  0  0  0  0  0
    4.2000    2.8710   -0.6740 C   0  0  0  0  0  0  0  0  0  0  0  0
    2.7740    1.0420   -1.7270 C   0  0  2  0  0  0  0  0  0  0  0  0
    3.6930    1.5980   -2.8460 C   0  0  0  0  0  0  0  0  0  0  0  0
    3.0320    2.7930   -3.1470 O   0  0  0  0  0  0  0  0  0  0  0  0
    1.7010    2.7570   -2.7560 C   0  0  0  0  0  0  0  0  0  0  0  0
    0.9520    3.7200   -2.7450 O   0  0  0  0  0  0  0  0  0  0  0  0
    1.4820    1.3450   -2.3910 C   0  0  2  0  0  0  0  0  0  0  0  0
    0.2110    0.7770   -2.1750 C   0  0  0  0  0  0  0  0  0  0  0  0
   -0.7960    0.8240   -1.1380 C   0  0  2  0  0  0  0  0  0  0  0  0
   -1.2930    2.2940   -1.2030 C   0  0  0  0  0  0  0  0  0  0  0  0
   -2.7570    2.3700   -0.7400 C   0  0  0  0  0  0  0  0  0  0  0  0
   -2.6240    2.1470    0.7390 C   0  0  1  0  0  0  0  0  0  0  0  0
   -4.0090    2.1530    1.3450 C   0  0  0  0  0  0  0  0  0  0  0  0
   -4.7150    3.4190    1.1290 C   0  0  0  0  0  0  0  0  0  0  0  0
   -5.1820    3.7000    0.0040 O   0  0  0  0  0  0  0  0  0  0  0  0
   -4.8810    4.3250    2.1470 O   0  0  0  0  0  0  0  0  0  0  0  0
   -5.5530    5.5740    2.0150 C   0  0  0  0  0  0  0  0  0  0  0  0
   -2.0690    0.7680    0.9270 C   0  0  0  0  0  0  0  0  0  0  0  0
   -0.7830    0.4280    0.2340 C   0  0  2  0  0  0  0  0  0  0  0  0
    0.1920    1.1010    1.0100 O   0  0  0  0  0  0  0  0  0  0  0  0
   -0.5210   -1.0730    0.6100 C   0  0  1  0  0  0  0  0  0  0  0  0
   -0.2910   -1.0350    2.1160 C   0  0  0  0  0  0  0  0  0  0  0  0
   -1.2960   -1.5010    3.0500 C   0  0  0  0  0  0  0  0  0  0  0  0
   -2.5950   -1.7260    2.5540 O   0  0  0  0  0  0  0  0  0  0  0  0
   -2.6510   -2.2220    1.2700 C   0  0  0  0  0  0  0  0  0  0  0  0
   -3.7610   -2.9990    0.9960 C   0  0  0  0  0  0  0  0  0  0  0  0
   -4.7440   -3.2440    1.9700 O   0  0  0  0  0  0  0  0  0  0  0  0
   -3.9500   -3.5610   -0.2360 C   0  0  0  0  0  0  0  0  0  0  0  0
   -3.0020   -3.3270   -1.1770 C   0  0  0  0  0  0  0  0  0  0  0  0
   -3.1210   -3.8680   -2.4650 O   0  0  0  0  0  0  0  0  0  0  0  0
   -4.1960   -4.6640   -2.8580 C   0  0  0  0  0  0  0  0  0  0  0  0
   -1.8810   -2.5400   -0.8910 C   0  0  0  0  0  0  0  0  0  0  0  0
   -1.0280   -2.4060   -1.9340 O   0  0  0  0  0  0  0  0  0  0  0  0
   -0.0350   -3.3570   -2.2960 C   0  0  0  0  0  0  0  0  0  0  0  0
   -1.6380   -1.9440    0.3270 C   0  0  0  0  0  0  0  0  0  0  0  0
    0.8470   -1.3800    0.1140 C   0  0  0  0  0  0  0  0  0  0  0  0
    1.6310   -2.3860    0.8650 C   0  0  0  0  0  0  0  0  0  0  0  0
    1.1270   -3.5040    1.0820 O   0  0  0  0  0  0  0  0  0  0  0  0
    2.9090   -2.1930    1.3640 O   0  0  0  0  0  0  0  0  0  0  0  0
    3.4590   -0.9400    1.7380 C   0  0  1  0  0  0  0  0  0  0  0  0
    4.3440   -1.0650    2.9330 C   0  0  0  0  0  0  0  0  0  0  0  0
  1  2  1  0
  3  2  1  1
  3  4  1  0
  3 45  1  0
  4  5  1  0
  5  6  1  6
  5  7  1  0
  7  8  1  6
  7 12  1  0
  8  9  1  0
  9 10  1  0
 10 11  2  0
 10 12  1  0
 12 13  1  1
 14 13  1  1
 14 15  1  0
 14 24  1  0
 15 16  1  0
 16 17  1  0
 17 18  1  1
 17 23  1  0
 18 19  1  0
 19 20  2  0
 19 21  1  0
 21 22  1  0
 23 24  1  0
 24 25  1  1
 24 26  1  0
 26 27  1  1
 26 40  1  0
 26 41  1  0
 27 28  1  0
 28 29  1  0
 29 30  1  0
 30 31  2  0
 30 40  1  0
 31 32  1  0
 31 33  1  0
 33 34  2  0
 34 35  1  0
 34 37  1  0
 35 36  1  0
 37 38  1  0
 37 40  2  0
 38 39  1  0
 41 42  1  0
 42 43  2  0
 42 44  1  0
 44 45  1  0
 45 46  1  1
M  END
