
     RDKit          3D

 46 49  0  0  0  0  0  0  0  0999 V2000
   -8.6290    4.8670    0.1460 C   0  0  0  0  0  0  0  0  0  0  0  0
   -8.2880    3.8860   -0.7810 O   0  0  0  0  0  0  0  0  0  0  0  0
   -7.0550    3.2650   -0.9050 C   0  0  0  0  0  0  0  0  0  0  0  0
   -5.9850    3.5700   -0.1150 C   0  0  0  0  0  0  0  0  0  0  0  0
   -4.7770    2.9150   -0.2770 C   0  0  0  0  0  0  0  0  0  0  0  0
   -4.6080    1.9510   -1.2170 C   0  0  0  0  0  0  0  0  0  0  0  0
   -3.1260    1.1130   -1.5200 S   0  0  1  0  0  0  0  0  0  0  0  0
   -3.3150    0.2010   -2.7230 O   0  0  0  0  0  0  0  0  0  0  0  0
   -2.0150    2.0340   -1.8960 O   0  0  0  0  0  0  0  0  0  0  0  0
   -2.7010    0.0510   -0.2110 N   0  0  0  0  0  0  0  0  0  0  0  0
   -3.7030   -0.9280    0.0140 C   0  0  0  0  0  0  0  0  0  0  0  0
   -3.9860   -1.3440    1.4090 C   0  0  1  0  0  0  0  0  0  0  0  0
   -4.4100   -0.3000    2.3720 C   0  0  0  0  0  0  0  0  0  0  0  0
   -5.2120   -2.2940    1.2740 C   0  0  0  0  0  0  0  0  0  0  0  0
   -1.3590   -0.3350   -0.2690 C   0  0  0  0  0  0  0  0  0  0  0  0
   -0.9560   -1.7640   -0.3960 C   0  0  1  0  0  0  0  0  0  0  0  0
   -1.6280   -2.3930   -1.4840 O   0  0  0  0  0  0  0  0  0  0  0  0
    0.5000   -1.7860   -0.9500 C   0  0  2  0  0  0  0  0  0  0  0  0
    0.9060   -3.1100   -1.4120 C   0  0  0  0  0  0  0  0  0  0  0  0
    1.0360   -4.2390   -0.5330 C   0  0  0  0  0  0  0  0  0  0  0  0
    0.0670   -5.0400   -0.0130 C   0  0  0  0  0  0  0  0  0  0  0  0
    0.3370   -6.1510    0.7580 C   0  0  0  0  0  0  0  0  0  0  0  0
    1.6300   -6.5100    1.0440 C   0  0  0  0  0  0  0  0  0  0  0  0
    2.6460   -5.7310    0.5410 C   0  0  0  0  0  0  0  0  0  0  0  0
    2.3690   -4.6250   -0.2250 C   0  0  0  0  0  0  0  0  0  0  0  0
    1.3820   -1.1290   -0.0030 N   0  0  0  0  0  0  0  0  0  0  0  0
    2.2610   -0.0970   -0.4430 C   0  0  0  0  0  0  0  0  0  0  0  0
    2.1870    0.1440   -1.7080 O   0  0  0  0  0  0  0  0  0  0  0  0
    3.1910    0.6730    0.3070 C   0  0  2  0  0  0  0  0  0  0  0  0
    4.6760    0.2690    0.0400 C   0  0  0  0  0  0  0  0  0  0  0  0
    5.2500    1.3730    0.8470 N   0  0  0  0  0  0  0  0  0  0  0  0
    6.3160    2.1830    0.4790 C   0  0  0  0  0  0  0  0  0  0  0  0
    6.1250    3.5130    0.0880 C   0  0  0  0  0  0  0  0  0  0  0  0
    7.1800    4.3270   -0.3140 C   0  0  0  0  0  0  0  0  0  0  0  0
    8.4730    3.8080   -0.3340 C   0  0  0  0  0  0  0  0  0  0  0  0
    8.6660    2.5080    0.0480 C   0  0  0  0  0  0  0  0  0  0  0  0
   10.0410    1.9720    0.0060 C   0  0  2  0  0  0  0  0  0  0  0  0
   10.8700    2.8420    0.6950 F   0  0  0  0  0  0  0  0  0  0  0  0
   10.5330    1.8840   -1.2690 F   0  0  0  0  0  0  0  0  0  0  0  0
   10.0880    0.7060    0.5540 F   0  0  0  0  0  0  0  0  0  0  0  0
    7.5900    1.6990    0.4510 C   0  0  0  0  0  0  0  0  0  0  0  0
    4.4010    1.3610    2.0150 C   0  0  0  0  0  0  0  0  0  0  0  0
    4.6770    1.9220    3.1040 O   0  0  0  0  0  0  0  0  0  0  0  0
    3.2290    0.6150    1.6980 O   0  0  0  0  0  0  0  0  0  0  0  0
   -5.7350    1.6430   -2.0330 C   0  0  0  0  0  0  0  0  0  0  0  0
   -6.9090    2.2730   -1.8860 C   0  0  0  0  0  0  0  0  0  0  0  0
  1  2  1  0
  2  3  1  0
  3  4  2  0
  3 46  1  0
  4  5  1  0
  5  6  2  0
  6  7  1  0
  6 45  1  0
  7  8  2  0
  7  9  2  0
  7 10  1  1
 10 11  1  0
 10 15  1  0
 11 12  1  0
 12 13  1  1
 12 14  1  0
 15 16  1  0
 16 17  1  6
 16 18  1  0
 18 19  1  1
 18 26  1  0
 19 20  1  0
 20 21  2  0
 20 25  1  0
 21 22  1  0
 22 23  2  0
 23 24  1  0
 24 25  2  0
 26 27  1  0
 27 28  2  0
 29 27  1  6
 29 30  1  0
 29 44  1  0
 30 31  1  0
 31 32  1  0
 31 42  1  0
 32 33  2  0
 32 41  1  0
 33 34  1  0
 34 35  2  0
 35 36  1  0
 36 37  1  0
 36 41  2  0
 37 38  1  1
 37 39  1  0
 37 40  1  0
 42 43  2  0
 42 44  1  0
 45 46  2  0
M  END
