
     RDKit          3D

 46 50  0  0  0  0  0  0  0  0999 V2000
   -5.4710   -4.0790   -3.0200 C   0  0  0  0  0  0  0  0  0  0  0  0
   -6.0390   -4.1730   -1.7890 O   0  0  0  0  0  0  0  0  0  0  0  0
   -6.2400   -2.9540   -1.1950 C   0  0  0  0  0  0  0  0  0  0  0  0
   -4.9670   -2.2890   -0.8980 C   0  0  0  0  0  0  0  0  0  0  0  0
   -3.8830   -2.8450   -1.1050 O   0  0  0  0  0  0  0  0  0  0  0  0
   -4.8910   -1.0040   -0.3680 O   0  0  0  0  0  0  0  0  0  0  0  0
   -3.6360   -0.3580   -0.0720 C   0  0  2  0  0  0  0  0  0  0  0  0
   -3.6260    0.1630    1.3040 C   0  0  0  0  0  0  0  0  0  0  0  0
   -3.0130   -0.1800    2.3880 C   0  0  0  0  0  0  0  0  0  0  0  0
   -2.0530   -1.2330    2.7530 C   0  0  0  0  0  0  0  0  0  0  0  0
   -1.8590   -2.3840    1.8670 C   0  0  0  0  0  0  0  0  0  0  0  0
   -0.7040   -2.3690    0.9320 C   0  0  0  0  0  0  0  0  0  0  0  0
    0.0940   -1.1210    0.8680 C   0  0  1  0  0  0  0  0  0  0  0  0
    1.3830   -1.1490    1.6020 C   0  0  1  0  0  0  0  0  0  0  0  0
    1.8830   -2.5350    1.9470 C   0  0  0  0  0  0  0  0  0  0  0  0
    2.5310   -0.4470    0.9120 C   0  0  0  0  0  0  0  0  0  0  0  0
    2.7540   -0.8490   -0.4980 C   0  0  1  0  0  0  0  0  0  0  0  0
    3.6090    0.2010   -1.1710 C   0  0  0  0  0  0  0  0  0  0  0  0
    5.0530   -0.1860   -0.7700 C   0  0  1  0  0  0  0  0  0  0  0  0
    5.4590    0.5750    0.2890 O   0  0  0  0  0  0  0  0  0  0  0  0
    6.4810    1.4310    0.1360 C   0  0  0  0  0  0  0  0  0  0  0  0
    7.8500    0.9870   -0.1740 C   0  0  0  0  0  0  0  0  0  0  0  0
    8.5470    0.1390    0.8330 C   0  0  1  0  0  0  0  0  0  0  0  0
    8.6540    0.7700    2.0750 O   0  0  0  0  0  0  0  0  0  0  0  0
    8.1210   -1.2690    0.9670 C   0  0  0  0  0  0  0  0  0  0  0  0
    8.0490   -1.9170   -0.2580 O   0  0  0  0  0  0  0  0  0  0  0  0
    4.8650   -1.6030   -0.3810 C   0  0  0  0  0  0  0  0  0  0  0  0
    3.5480   -1.9860   -0.6320 O   0  0  0  0  0  0  0  0  0  0  0  0
    1.4880   -1.0620   -1.2300 C   0  0  0  0  0  0  0  0  0  0  0  0
    0.2280   -0.6250   -0.5630 C   0  0  2  0  0  0  0  0  0  0  0  0
    0.0410    0.8970   -0.6470 C   0  0  0  0  0  0  0  0  0  0  0  0
   -0.9660    1.2880   -1.6610 C   0  0  0  0  0  0  0  0  0  0  0  0
   -0.5870    2.1930   -2.4700 O   0  0  0  0  0  0  0  0  0  0  0  0
   -2.1480    0.6880   -1.6550 O   0  0  0  0  0  0  0  0  0  0  0  0
   -3.3900    0.7610   -1.0980 C   0  0  2  0  0  0  0  0  0  0  0  0
   -3.8640    2.0810   -0.6190 C   0  0  0  0  0  0  0  0  0  0  0  0
   -3.0920    2.9210    0.1430 C   0  0  0  0  0  0  0  0  0  0  0  0
   -3.5820    4.1340    0.5560 C   0  0  0  0  0  0  0  0  0  0  0  0
   -4.8610    4.5840    0.2390 C   0  0  0  0  0  0  0  0  0  0  0  0
   -5.6380    3.7400   -0.5280 C   0  0  0  0  0  0  0  0  0  0  0  0
   -5.1320    2.5300   -0.9320 C   0  0  0  0  0  0  0  0  0  0  0  0
   -6.9310    4.1860   -0.8530 O   0  0  0  0  0  0  0  0  0  0  0  0
   -7.4010    5.4120   -0.4250 C   0  0  0  0  0  0  0  0  0  0  0  0
   -8.3780    5.9590   -0.9650 O   0  0  0  0  0  0  0  0  0  0  0  0
   -6.7130    6.0770    0.7060 C   0  0  0  0  0  0  0  0  0  0  0  0
   -5.3210    5.8230    0.6780 O   0  0  0  0  0  0  0  0  0  0  0  0
  1  2  1  0
  2  3  1  0
  3  4  1  0
  4  5  2  0
  4  6  1  0
  7  6  1  6
  7  8  1  0
  7 35  1  0
  8  9  2  0
  9 10  1  0
 10 11  1  0
 11 12  1  0
 13 12  1  6
 13 14  1  0
 13 30  1  0
 14 15  1  6
 14 16  1  0
 17 16  1  1
 17 18  1  0
 17 28  1  0
 17 29  1  0
 18 19  1  0
 19 20  1  1
 19 27  1  0
 20 21  1  0
 21 22  1  0
 22 23  1  0
 23 24  1  1
 23 25  1  0
 25 26  1  0
 27 28  1  0
 30 29  1  1
 30 31  1  0
 31 32  1  0
 32 33  2  0
 32 34  1  0
 34 35  1  0
 35 36  1  1
 36 37  2  0
 36 41  1  0
 37 38  1  0
 38 39  2  0
 39 40  1  0
 39 46  1  0
 40 41  2  0
 40 42  1  0
 42 43  1  0
 43 44  2  0
 43 45  1  0
 45 46  1  0
M  END
