
     RDKit          3D

 20 22  0  0  0  0  0  0  0  0999 V2000
    6.6760   -0.7510   -1.3390 C   0  0  0  0  0  0  0  0  0  0  0  0
    5.5800   -0.2340   -0.5890 O   0  0  0  0  0  0  0  0  0  0  0  0
    4.2690   -0.5380   -0.8610 C   0  0  0  0  0  0  0  0  0  0  0  0
    4.0080   -1.3080   -1.8140 O   0  0  0  0  0  0  0  0  0  0  0  0
    3.1570    0.0220   -0.0570 C   0  0  0  0  0  0  0  0  0  0  0  0
    3.4340    0.7870    0.8890 O   0  0  0  0  0  0  0  0  0  0  0  0
    1.8100   -0.2950   -0.3430 N   0  0  0  0  0  0  0  0  0  0  0  0
    0.6740    0.1710    0.3450 C   0  0  0  0  0  0  0  0  0  0  0  0
    0.6400    1.0140    1.4160 C   0  0  0  0  0  0  0  0  0  0  0  0
   -0.5430    1.4180    2.0290 C   0  0  0  0  0  0  0  0  0  0  0  0
   -1.7570    0.9660    1.5620 C   0  0  0  0  0  0  0  0  0  0  0  0
   -3.0120    1.1440    1.8960 O   0  0  0  0  0  0  0  0  0  0  0  0
   -3.8130    0.4680    1.1100 C   0  0  0  0  0  0  0  0  0  0  0  0
   -3.0770   -0.2170    0.1790 C   0  0  0  0  0  0  0  0  0  0  0  0
   -1.7510    0.1120    0.4810 C   0  0  0  0  0  0  0  0  0  0  0  0
   -0.5660   -0.2730   -0.1090 C   0  0  0  0  0  0  0  0  0  0  0  0
   -3.6050   -0.9780   -0.7380 C   0  0  0  0  0  0  0  0  0  0  0  0
   -5.0550   -1.1860   -0.8770 C   0  0  0  0  0  0  0  0  0  0  0  0
   -5.7430   -0.4670    0.0930 O   0  0  0  0  0  0  0  0  0  0  0  0
   -5.1200    0.3180    1.0330 C   0  0  0  0  0  0  0  0  0  0  0  0
  1  2  1  0
  2  3  1  0
  3  4  2  0
  3  5  1  0
  5  6  2  0
  5  7  1  0
  7  8  1  0
  8  9  2  0
  8 16  1  0
  9 10  1  0
 10 11  2  0
 11 12  1  0
 11 15  1  0
 12 13  1  0
 13 14  1  0
 13 20  2  0
 14 15  1  0
 14 17  2  0
 15 16  2  0
 17 18  1  0
 18 19  1  0
 19 20  1  0
M  END
