
     RDKit          3D

 20 22  0  0  0  0  0  0  0  0999 V2000
    2.5740   -0.3880   -2.2070 O   0  0  0  0  0  0  0  0  0  0  0  0
    2.5260   -0.1650   -0.9740 C   0  0  0  0  0  0  0  0  0  0  0  0
    1.2390    0.0190   -0.4460 O   0  0  0  0  0  0  0  0  0  0  0  0
    0.0900   -0.0490   -1.2700 C   0  0  2  0  0  0  0  0  0  0  0  0
   -0.6890    1.2190   -1.2900 C   0  0  0  0  0  0  0  0  0  0  0  0
   -1.1360    1.4730    0.1590 C   0  0  0  0  0  0  0  0  0  0  0  0
   -2.1670    0.4520    0.4080 C   0  0  0  0  0  0  0  0  0  0  0  0
   -1.9720   -0.8210   -0.0630 C   0  0  0  0  0  0  0  0  0  0  0  0
   -2.9540   -1.8020    0.1670 C   0  0  0  0  0  0  0  0  0  0  0  0
   -4.0980   -1.4910    0.8560 C   0  0  0  0  0  0  0  0  0  0  0  0
   -4.2640   -0.2380    1.3070 N   0  0  0  0  0  0  0  0  0  0  0  0
   -5.4170    0.0510    1.9950 O   0  0  0  0  0  0  0  0  0  0  0  0
   -3.3240    0.7280    1.0950 C   0  0  0  0  0  0  0  0  0  0  0  0
   -3.5050    2.0140    1.5630 O   0  0  0  0  0  0  0  0  0  0  0  0
   -0.7470   -1.1920   -0.8090 C   0  0  0  0  0  0  0  0  0  0  0  0
    3.7150   -0.1030   -0.1630 C   0  0  0  0  0  0  0  0  0  0  0  0
    3.7990    0.1340    1.1920 C   0  0  0  0  0  0  0  0  0  0  0  0
    5.1330    0.1020    1.5320 C   0  0  0  0  0  0  0  0  0  0  0  0
    5.8070   -0.1550    0.3530 C   0  0  0  0  0  0  0  0  0  0  0  0
    4.9350   -0.2680   -0.6140 O   0  0  0  0  0  0  0  0  0  0  0  0
  1  2  2  0
  2  3  1  0
  2 16  1  0
  4  3  1  1
  4  5  1  0
  4 15  1  0
  5  6  1  0
  6  7  1  0
  7  8  2  0
  7 13  1  0
  8  9  1  0
  8 15  1  0
  9 10  2  0
 10 11  1  0
 11 12  1  0
 11 13  2  0
 13 14  1  0
 16 17  2  0
 16 20  1  0
 17 18  1  0
 18 19  2  0
 19 20  1  0
M  CHG  2  11   1  12  -1
M  END
