
     RDKit          3D

 20 23  0  0  0  0  0  0  0  0999 V2000
    4.4000   -3.0260   -0.8540 O   0  0  0  0  0  0  0  0  0  0  0  0
    3.7260   -1.9880   -0.6440 C   0  0  0  0  0  0  0  0  0  0  0  0
    2.3890   -1.9330   -0.8050 N   0  0  0  0  0  0  0  0  0  0  0  0
    1.6820   -0.8170   -0.5770 C   0  0  0  0  0  0  0  0  0  0  0  0
    0.3020   -0.7520   -0.7410 C   0  0  0  0  0  0  0  0  0  0  0  0
   -0.4050    0.4070   -0.5000 C   0  0  0  0  0  0  0  0  0  0  0  0
   -1.8770    0.4570   -0.6810 C   0  0  0  0  0  0  0  0  0  0  0  0
   -2.5980    0.1090    0.5190 N   0  0  1  0  0  0  0  0  0  0  0  0
   -3.5430    1.1360    0.9080 C   0  0  0  0  0  0  0  0  0  0  0  0
   -4.8390    0.7980    0.2140 C   0  0  0  0  0  0  0  0  0  0  0  0
   -4.8030   -0.7250    0.2260 C   0  0  0  0  0  0  0  0  0  0  0  0
   -3.3650   -1.1180    0.3650 C   0  0  0  0  0  0  0  0  0  0  0  0
    0.2650    1.5380   -0.0850 C   0  0  0  0  0  0  0  0  0  0  0  0
    1.6330    1.4620    0.0750 C   0  0  0  0  0  0  0  0  0  0  0  0
    2.3570    0.3050   -0.1630 C   0  0  0  0  0  0  0  0  0  0  0  0
    3.6980    0.2590    0.0020 N   0  0  0  0  0  0  0  0  0  0  0  0
    4.5690    1.1890    0.3860 C   0  0  0  0  0  0  0  0  0  0  0  0
    5.8640    0.6740    0.4090 C   0  0  0  0  0  0  0  0  0  0  0  0
    5.7580   -0.6310    0.0180 C   0  0  0  0  0  0  0  0  0  0  0  0
    4.4070   -0.8580   -0.2270 C   0  0  0  0  0  0  0  0  0  0  0  0
  1  2  2  0
  2  3  1  0
  2 20  1  0
  3  4  1  0
  4  5  2  0
  4 15  1  0
  5  6  1  0
  6  7  1  0
  6 13  2  0
  8  7  1  6
  8  9  1  0
  8 12  1  0
  9 10  1  0
 10 11  1  0
 11 12  1  0
 13 14  1  0
 14 15  2  0
 15 16  1  0
 16 17  1  0
 16 20  1  0
 17 18  2  0
 18 19  1  0
 19 20  2  0
M  CHG  1   8   1
M  END
