
     RDKit          3D

 20 22  0  0  0  0  0  0  0  0999 V2000
    1.8260    1.6620    1.6550 O   0  0  0  0  0  0  0  0  0  0  0  0
    2.0200    0.7760    0.7410 C   0  0  0  0  0  0  0  0  0  0  0  0
    0.8280    0.1890    0.1760 C   0  0  0  0  0  0  0  0  0  0  0  0
    0.6950   -0.7730   -0.8010 C   0  0  0  0  0  0  0  0  0  0  0  0
   -0.5890   -1.0050   -1.0020 O   0  0  0  0  0  0  0  0  0  0  0  0
   -1.3170   -0.2560   -0.2180 C   0  0  0  0  0  0  0  0  0  0  0  0
   -2.7840   -0.2870   -0.2080 C   0  0  0  0  0  0  0  0  0  0  0  0
   -3.4640   -1.1470   -1.0670 C   0  0  0  0  0  0  0  0  0  0  0  0
   -4.8380   -1.1710   -1.0530 C   0  0  0  0  0  0  0  0  0  0  0  0
   -5.5930   -0.3690   -0.2140 C   0  0  0  0  0  0  0  0  0  0  0  0
   -4.9350    0.4880    0.6420 C   0  0  0  0  0  0  0  0  0  0  0  0
   -5.6500    1.3110    1.5020 O   0  0  0  0  0  0  0  0  0  0  0  0
   -3.5490    0.5010    0.6170 C   0  0  0  0  0  0  0  0  0  0  0  0
   -0.4680    0.4780    0.5080 N   0  0  0  0  0  0  0  0  0  0  0  0
   -0.8130    1.3980    1.4560 O   0  0  0  0  0  0  0  0  0  0  0  0
    3.3920    0.4870    0.4020 C   0  0  2  0  0  0  0  0  0  0  0  0
    3.8030    0.7430   -1.0300 C   0  0  0  0  0  0  0  0  0  0  0  0
    5.1500   -0.0030   -1.0000 C   0  0  0  0  0  0  0  0  0  0  0  0
    4.9380   -1.1210   -0.2430 O   0  0  0  0  0  0  0  0  0  0  0  0
    3.8730   -0.9130    0.5970 C   0  0  0  0  0  0  0  0  0  0  0  0
  1  2  2  0
  2  3  1  0
 16  2  1  6
  3  4  2  0
  3 14  1  0
  4  5  1  0
  5  6  1  0
  6  7  1  0
  6 14  2  0
  7  8  2  0
  7 13  1  0
  8  9  1  0
  9 10  2  0
 10 11  1  0
 11 12  1  0
 11 13  2  0
 14 15  1  0
 16 17  1  0
 16 20  1  0
 17 18  1  0
 18 19  1  0
 19 20  1  0
M  CHG  2  14   1  15  -1
M  END
