
     RDKit          3D

 20 22  0  0  0  0  0  0  0  0999 V2000
   -5.9180   -0.3180    1.0570 C   0  0  0  0  0  0  0  0  0  0  0  0
   -4.8050   -0.0220    0.2480 O   0  0  0  0  0  0  0  0  0  0  0  0
   -3.4910   -0.1050    0.6640 C   0  0  0  0  0  0  0  0  0  0  0  0
   -3.2650   -0.4690    1.8400 O   0  0  0  0  0  0  0  0  0  0  0  0
   -2.3770    0.2150   -0.2170 C   0  0  0  0  0  0  0  0  0  0  0  0
   -2.5570    0.6210   -1.5240 C   0  0  0  0  0  0  0  0  0  0  0  0
   -1.4930    0.9220   -2.3500 C   0  0  0  0  0  0  0  0  0  0  0  0
   -0.2030    0.8180   -1.8740 C   0  0  0  0  0  0  0  0  0  0  0  0
   -0.0410    0.4080   -0.5600 C   0  0  0  0  0  0  0  0  0  0  0  0
    1.3340    0.2950   -0.0440 C   0  0  0  0  0  0  0  0  0  0  0  0
    1.9410    1.3730    0.5580 C   0  0  0  0  0  0  0  0  0  0  0  0
    3.2460    1.2540    1.0440 C   0  0  0  0  0  0  0  0  0  0  0  0
    3.9240    0.0600    0.9210 C   0  0  0  0  0  0  0  0  0  0  0  0
    3.3280   -1.0250    0.3220 C   0  0  0  0  0  0  0  0  0  0  0  0
    2.0360   -0.8850   -0.1520 C   0  0  0  0  0  0  0  0  0  0  0  0
    4.2040   -2.1060    0.3170 O   0  0  0  0  0  0  0  0  0  0  0  0
    5.5120   -1.5470    0.5090 C   0  0  0  0  0  0  0  0  0  0  0  0
    5.2010   -0.3940    1.2850 O   0  0  0  0  0  0  0  0  0  0  0  0
   -1.1070    0.1240    0.2170 N   0  0  0  0  0  0  0  0  0  0  0  0
   -0.8890   -0.2780    1.5120 O   0  0  0  0  0  0  0  0  0  0  0  0
  1  2  1  0
  2  3  1  0
  3  4  2  0
  3  5  1  0
  5  6  2  0
  5 19  1  0
  6  7  1  0
  7  8  2  0
  8  9  1  0
  9 10  1  0
  9 19  2  0
 10 11  2  0
 10 15  1  0
 11 12  1  0
 12 13  2  0
 13 14  1  0
 13 18  1  0
 14 15  2  0
 14 16  1  0
 16 17  1  0
 17 18  1  0
 19 20  1  0
M  CHG  2  19   1  20  -1
M  END
