
     RDKit          3D

 13 13  0  0  0  0  0  0  0  0999 V2000
   -0.4550    1.7600   -0.9950 N   0  0  0  0  0  0  0  0  0  0  0  0
   -0.5890    0.9630    0.1980 C   0  0  2  0  0  0  0  0  0  0  0  0
    0.2220   -0.2830    0.0640 C   0  0  1  0  0  0  0  0  0  0  0  0
    1.4550   -0.0750    0.6770 O   0  0  0  0  0  0  0  0  0  0  0  0
    2.5210   -0.2170   -0.1770 C   0  0  0  0  0  0  0  0  0  0  0  0
    3.7860    0.0360    0.6230 C   0  0  0  0  0  0  0  0  0  0  0  0
    3.6980    1.3340    1.1220 O   0  0  0  0  0  0  0  0  0  0  0  0
   -0.4060   -1.4830    0.7490 C   0  0  0  0  0  0  0  0  0  0  0  0
   -1.4610   -2.1430   -0.0930 C   0  0  0  0  0  0  0  0  0  0  0  0
   -2.7700   -1.3930    0.1530 C   0  0  0  0  0  0  0  0  0  0  0  0
   -2.6100   -0.1370   -0.4260 O   0  0  0  0  0  0  0  0  0  0  0  0
   -2.0440    0.7060    0.5150 C   0  0  2  0  0  0  0  0  0  0  0  0
   -2.9260    2.2900    0.4700 S   0  0  0  0  0  0  0  0  0  0  0  0
  2  1  1  6
  2  3  1  0
  2 12  1  0
  3  4  1  1
  3  8  1  0
  4  5  1  0
  5  6  1  0
  6  7  1  0
  8  9  1  0
  9 10  1  0
 10 11  1  0
 11 12  1  0
 12 13  1  6
M  CHG  1   1   1
M  END
