
     RDKit          3D

 19 21  0  0  0  0  0  0  0  0999 V2000
   -3.5850   -1.9630   -0.4310 N   0  0  0  0  0  0  0  0  0  0  0  0
   -3.5060   -0.5500   -0.4740 C   0  0  0  0  0  0  0  0  0  0  0  0
   -4.6270    0.2360   -0.6510 C   0  0  0  0  0  0  0  0  0  0  0  0
   -4.5500    1.5790   -0.6910 N   0  0  0  0  0  0  0  0  0  0  0  0
   -3.3720    2.1810   -0.5580 C   0  0  0  0  0  0  0  0  0  0  0  0
   -2.2140    1.4050   -0.3770 C   0  0  0  0  0  0  0  0  0  0  0  0
   -2.2670    0.0430   -0.3320 C   0  0  0  0  0  0  0  0  0  0  0  0
   -1.1340   -0.7460   -0.1890 N   0  0  0  0  0  0  0  0  0  0  0  0
    0.1850   -0.3620    0.1380 C   0  0  0  0  0  0  0  0  0  0  0  0
    0.4400    0.6490    1.0310 C   0  0  0  0  0  0  0  0  0  0  0  0
    1.7710    0.9690    1.2550 C   0  0  0  0  0  0  0  0  0  0  0  0
    2.8180    0.3240    0.6290 C   0  0  0  0  0  0  0  0  0  0  0  0
    4.1080    0.6460    0.8570 N   0  0  0  0  0  0  0  0  0  0  0  0
    5.1410    0.0270    0.2550 C   0  0  0  0  0  0  0  0  0  0  0  0
    6.3500    0.3380    0.4770 O   0  0  0  0  0  0  0  0  0  0  0  0
    4.9360   -0.9960   -0.6500 C   0  0  0  0  0  0  0  0  0  0  0  0
    3.6180   -1.3370   -0.8930 C   0  0  0  0  0  0  0  0  0  0  0  0
    2.5700   -0.6960   -0.2710 C   0  0  0  0  0  0  0  0  0  0  0  0
    1.2520   -1.0150   -0.4950 C   0  0  0  0  0  0  0  0  0  0  0  0
  1  2  1  0
  2  3  2  0
  2  7  1  0
  3  4  1  0
  4  5  2  0
  5  6  1  0
  6  7  2  0
  7  8  1  0
  8  9  1  0
  9 10  2  0
  9 19  1  0
 10 11  1  0
 11 12  2  0
 12 13  1  0
 12 18  1  0
 13 14  1  0
 14 15  2  0
 14 16  1  0
 16 17  2  0
 17 18  1  0
 18 19  2  0
M  CHG  1   4   1
M  END
