
     RDKit          3D

 14 14  0  0  0  0  0  0  0  0999 V2000
    4.4030   -0.4120   -0.2740 C   0  0  0  0  0  0  0  0  0  0  0  0
    3.5430    0.3280   -1.0610 O   0  0  0  0  0  0  0  0  0  0  0  0
    2.5250    0.9280   -0.3720 C   0  0  0  0  0  0  0  0  0  0  0  0
    1.6340   -0.0430    0.3550 C   0  0  2  0  0  0  0  0  0  0  0  0
    1.0120   -0.9540   -0.4490 O   0  0  0  0  0  0  0  0  0  0  0  0
    0.0280   -0.3830   -1.1940 C   0  0  0  0  0  0  0  0  0  0  0  0
   -0.9840    0.2840   -0.2750 C   0  0  1  0  0  0  0  0  0  0  0  0
   -1.5630    1.4650   -0.9900 C   0  0  0  0  0  0  0  0  0  0  0  0
   -2.5360    2.1850   -0.2290 N   0  0  0  0  0  0  0  0  0  0  0  0
   -1.9930   -0.6810    0.2320 C   0  0  1  0  0  0  0  0  0  0  0  0
   -2.6770   -1.2370   -0.8200 O   0  0  0  0  0  0  0  0  0  0  0  0
   -1.2790   -1.7800    0.9970 C   0  0  0  0  0  0  0  0  0  0  0  0
   -2.2990   -2.6520    1.4440 O   0  0  0  0  0  0  0  0  0  0  0  0
    0.1700    0.8330    1.0490 S   0  0  0  0  0  0  0  0  0  0  0  0
  1  2  1  0
  2  3  1  0
  4  3  1  6
  4  5  1  0
  4 14  1  0
  5  6  1  0
  6  7  1  0
  7  8  1  6
  7 10  1  0
  7 14  1  0
  8  9  1  0
 10 11  1  6
 10 12  1  0
 12 13  1  0
M  CHG  1   9   1
M  END
