
     RDKit          3D

 14 14  0  0  0  0  0  0  0  0999 V2000
   -2.7030    1.6550   -0.1890 C   0  0  0  0  0  0  0  0  0  0  0  0
   -1.6940    0.7330    0.4460 C   0  0  2  0  0  0  0  0  0  0  0  0
   -2.4430   -0.2760    1.0960 O   0  0  0  0  0  0  0  0  0  0  0  0
   -0.9640    1.4550    1.3540 O   0  0  0  0  0  0  0  0  0  0  0  0
    0.1570    1.9200    0.6740 C   0  0  0  0  0  0  0  0  0  0  0  0
    0.5760    0.7700   -0.2300 C   0  0  1  0  0  0  0  0  0  0  0  0
    1.5370   -0.0320    0.4300 N   0  0  0  0  0  0  0  0  0  0  0  0
    2.8220   -0.2080   -0.1500 C   0  0  0  0  0  0  0  0  0  0  0  0
    3.1690    0.3180   -1.2420 O   0  0  0  0  0  0  0  0  0  0  0  0
    3.8270   -1.0510    0.5480 C   0  0  0  0  0  0  0  0  0  0  0  0
    5.0240   -1.1140   -0.1570 O   0  0  0  0  0  0  0  0  0  0  0  0
   -0.7320    0.1380   -0.5240 C   0  0  1  0  0  0  0  0  0  0  0  0
   -0.7740   -1.3480   -0.4020 C   0  0  0  0  0  0  0  0  0  0  0  0
   -2.0930   -1.8750   -0.6850 N   0  0  0  0  0  0  0  0  0  0  0  0
  2  1  1  6
  2  3  1  0
  2  4  1  0
  2 12  1  0
  4  5  1  0
  5  6  1  0
  6  7  1  1
  6 12  1  0
  7  8  1  0
  8  9  2  0
  8 10  1  0
 10 11  1  0
 12 13  1  1
 13 14  1  0
M  CHG  1  14   1
M  END
