
     RDKit          3D

 13 13  0  0  0  0  0  0  0  0999 V2000
    3.6430   -0.4840    0.9860 N   0  0  0  0  0  0  0  0  0  0  0  0
    3.2370    0.5910    0.1340 C   0  0  0  0  0  0  0  0  0  0  0  0
    1.7880    0.9310    0.1760 C   0  0  1  0  0  0  0  0  0  0  0  0
    1.5620    1.9810   -0.7050 O   0  0  0  0  0  0  0  0  0  0  0  0
    0.8750   -0.2130   -0.1370 C   0  0  1  0  0  0  0  0  0  0  0  0
   -0.5490    0.1920    0.2120 C   0  0  0  0  0  0  0  0  0  0  0  0
   -1.4970   -0.7730   -0.1800 N   0  0  0  0  0  0  0  0  0  0  0  0
   -2.8020   -0.7310    0.3240 C   0  0  0  0  0  0  0  0  0  0  0  0
   -3.5490    0.4620   -0.2230 C   0  0  0  0  0  0  0  0  0  0  0  0
   -2.9630    1.6770    0.1060 O   0  0  0  0  0  0  0  0  0  0  0  0
   -1.2660   -1.3960   -1.4390 C   0  0  0  0  0  0  0  0  0  0  0  0
   -0.0880   -0.8290   -2.1770 C   0  0  0  0  0  0  0  0  0  0  0  0
    1.0030   -0.7370   -1.3840 O   0  0  0  0  0  0  0  0  0  0  0  0
  1  2  1  0
  2  3  1  0
  3  4  1  6
  3  5  1  0
  5  6  1  6
  5 13  1  0
  6  7  1  0
  7  8  1  0
  7 11  1  0
  8  9  1  0
  9 10  1  0
 11 12  1  0
 12 13  1  0
M  CHG  1   1   1
M  END
