
     RDKit          3D

  6  5  0  0  0  0  0  0  0  0999 V2000
   -0.7980   -1.3650   -0.2600 C   0  0  0  0  0  0  0  0  0  0  0  0
    0.1830   -0.2760   -0.0220 C   0  0  0  0  0  0  0  0  0  0  0  0
   -0.2900    1.1040    0.2510 C   0  0  0  0  0  0  0  0  0  0  0  0
   -1.0500    1.5820   -0.8240 O   0  0  0  0  0  0  0  0  0  0  0  0
    1.4260   -0.5200   -0.0520 N   0  0  0  0  0  0  0  0  0  0  0  0
    2.4230    0.3710    0.1450 O   0  0  0  0  0  0  0  0  0  0  0  0
  1  2  1  0
  2  3  1  0
  2  5  2  3
  3  4  1  0
  5  6  1  0
M  END
