
     RDKit          3D

  6  5  0  0  0  0  0  0  0  0999 V2000
   -1.8910    0.4240    0.3700 C   0  0  0  0  0  0  0  0  0  0  0  0
   -0.7970   -0.1590   -0.4860 C   0  0  0  0  0  0  0  0  0  0  0  0
    0.4640    0.0600    0.1890 N   0  0  0  0  0  0  0  0  0  0  0  0
    1.7090   -0.3720   -0.3530 C   0  0  0  0  0  0  0  0  0  0  0  0
    1.6650   -0.9630   -1.4610 O   0  0  0  0  0  0  0  0  0  0  0  0
    2.9250   -0.1690    0.2830 O   0  0  0  0  0  0  0  0  0  0  0  0
  1  2  1  0
  2  3  1  0
  3  4  1  0
  4  5  2  0
  4  6  1  0
M  END
