
     RDKit          3D

  6  5  0  0  0  0  0  0  0  0999 V2000
    2.3540   -0.3610    0.0640 C   0  0  0  0  0  0  0  0  0  0  0  0
    1.0550   -0.7060   -0.3820 O   0  0  0  0  0  0  0  0  0  0  0  0
    0.0550    0.2520   -0.2480 C   0  0  0  0  0  0  0  0  0  0  0  0
   -1.1880   -0.0600    0.0470 C   0  0  0  0  0  0  0  0  0  0  0  0
   -2.1620    0.9560    0.1710 N   0  0  0  0  0  0  0  0  0  0  0  0
   -1.5210   -1.3820    0.2330 O   0  0  0  0  0  0  0  0  0  0  0  0
  1  2  1  0
  2  3  1  0
  3  4  2  3
  4  5  1  0
  4  6  1  0
M  END
