
     RDKit          3D

 11 11  0  0  0  0  0  0  0  0999 V2000
    3.1520    0.7370   -0.7420 C   0  0  0  0  0  0  0  0  0  0  0  0
    2.6250   -0.4950   -0.2810 N   0  0  0  0  0  0  0  0  0  0  0  0
    1.2450   -0.5170    0.0410 C   0  0  1  0  0  0  0  0  0  0  0  0
    0.9520    0.0130    1.4380 C   0  0  0  0  0  0  0  0  0  0  0  0
    0.3350    0.1520   -0.9160 C   0  0  0  0  0  0  0  0  0  0  0  0
   -1.0740    0.0410   -0.4400 C   0  0  0  0  0  0  0  0  0  0  0  0
   -1.8730   -1.0390   -0.7950 C   0  0  0  0  0  0  0  0  0  0  0  0
   -3.1770   -1.1440   -0.3600 C   0  0  0  0  0  0  0  0  0  0  0  0
   -3.7320   -0.1700    0.4480 C   0  0  0  0  0  0  0  0  0  0  0  0
   -2.9650    0.9160    0.8190 C   0  0  0  0  0  0  0  0  0  0  0  0
   -1.6710    0.9910    0.3690 C   0  0  0  0  0  0  0  0  0  0  0  0
  1  2  1  0
  2  3  1  0
  3  4  1  1
  3  5  1  0
  5  6  1  0
  6  7  2  0
  6 11  1  0
  7  8  1  0
  8  9  2  0
  9 10  1  0
 10 11  2  0
M  CHG  1   2   1
M  END
