
     RDKit          3D

  6  5  0  0  0  0  0  0  0  0999 V2000
   -2.4410    0.0030   -0.3510 C   0  0  0  0  0  0  0  0  0  0  0  0
   -1.2270   -0.5110    0.1620 O   0  0  0  0  0  0  0  0  0  0  0  0
   -0.0480    0.1390   -0.1590 C   0  0  0  0  0  0  0  0  0  0  0  0
   -0.1120    1.1470   -0.8850 O   0  0  0  0  0  0  0  0  0  0  0  0
    1.2610   -0.3840    0.3740 C   0  0  0  0  0  0  0  0  0  0  0  0
    2.3590    0.4230   -0.0690 N   0  0  0  0  0  0  0  0  0  0  0  0
  1  2  1  0
  2  3  1  0
  3  4  2  0
  3  5  1  0
  5  6  1  0
M  END
