
     RDKit          3D

 26 28  0  0  0  0  0  0  0  0999 V2000
    3.0870    2.7470    0.4850 N   0  0  0  0  0  0  0  0  0  0  0  0
    3.7470    1.8240    1.3400 C   0  0  0  0  0  0  0  0  0  0  0  0
    3.2010    1.4660    2.4460 O   0  0  0  0  0  0  0  0  0  0  0  0
    5.0580    1.2210    1.0720 C   0  0  0  0  0  0  0  0  0  0  0  0
    5.1570   -0.2380    1.2290 C   0  0  0  0  0  0  0  0  0  0  0  0
    4.4590   -1.1420    0.2940 C   0  0  1  0  0  0  0  0  0  0  0  0
    4.9380   -0.9150   -1.0940 N   0  0  0  0  0  0  0  0  0  0  0  0
    5.0670   -2.5410    0.6170 C   0  0  0  0  0  0  0  0  0  0  0  0
    3.8120   -3.5150   -0.3200 S   0  0  0  0  0  0  0  0  0  0  0  0
    2.4850   -2.3830    0.0310 C   0  0  0  0  0  0  0  0  0  0  0  0
    1.1630   -2.2890    0.0950 N   0  0  0  0  0  0  0  0  0  0  0  0
    0.8520   -1.0300    0.4630 C   0  0  0  0  0  0  0  0  0  0  0  0
   -0.5090   -0.5030    0.6520 C   0  0  0  0  0  0  0  0  0  0  0  0
   -0.7030    0.6930    0.9980 O   0  0  0  0  0  0  0  0  0  0  0  0
   -1.6270   -1.2880    0.4610 O   0  0  0  0  0  0  0  0  0  0  0  0
   -2.9550   -0.8500    0.6230 C   0  0  0  0  0  0  0  0  0  0  0  0
   -3.3520    0.2750   -0.2690 C   0  0  1  0  0  0  0  0  0  0  0  0
   -3.2470   -0.0330   -1.6780 N   0  0  0  0  0  0  0  0  0  0  0  0
   -4.7870    0.6600    0.0230 C   0  0  1  0  0  0  0  0  0  0  0  0
   -4.9060    0.9550    1.3820 O   0  0  0  0  0  0  0  0  0  0  0  0
   -5.2130    1.8600   -0.7960 C   0  0  0  0  0  0  0  0  0  0  0  0
   -6.5690    1.3930   -1.3090 C   0  0  0  0  0  0  0  0  0  0  0  0
   -6.4520    0.0210   -1.4820 O   0  0  0  0  0  0  0  0  0  0  0  0
   -5.7870   -0.3910   -0.3240 C   0  0  0  0  0  0  0  0  0  0  0  0
    2.0060   -0.4100    0.6060 N   0  0  0  0  0  0  0  0  0  0  0  0
    3.0630   -1.2080    0.3480 N   0  0  0  0  0  0  0  0  0  0  0  0
  1  2  1  0
  2  3  2  0
  2  4  1  0
  4  5  1  0
  5  6  1  0
  6  7  1  6
  6  8  1  0
  6 26  1  0
  8  9  1  0
  9 10  1  0
 10 11  2  0
 10 26  1  0
 11 12  1  0
 12 13  1  0
 12 25  2  0
 13 14  2  0
 13 15  1  0
 15 16  1  0
 16 17  1  0
 17 18  1  6
 17 19  1  0
 19 20  1  1
 19 21  1  0
 19 24  1  0
 21 22  1  0
 22 23  1  0
 23 24  1  0
 25 26  1  0
M  CHG  1   7   1
M  END
