
     RDKit          3D

 25 26  0  0  0  0  0  0  0  0999 V2000
    2.9320    2.4330   -0.9440 C   0  0  0  0  0  0  0  0  0  0  0  0
    4.3550    1.3440   -0.7630 S   0  0  0  0  0  0  0  0  0  0  0  0
    4.0520    0.0100    0.3850 C   0  0  0  0  0  0  0  0  0  0  0  0
    4.9470   -0.9240    0.5650 C   0  0  0  0  0  0  0  0  0  0  0  0
    4.8160   -2.0130    1.4680 N   0  0  0  0  0  0  0  0  0  0  0  0
    3.6300   -2.0400    2.2360 C   0  0  0  0  0  0  0  0  0  0  0  0
    3.3750   -2.9610    3.0640 O   0  0  0  0  0  0  0  0  0  0  0  0
    2.6860   -1.0010    2.0760 N   0  0  0  0  0  0  0  0  0  0  0  0
    2.6920   -0.1160    0.9700 C   0  0  2  0  0  0  0  0  0  0  0  0
    1.7360   -0.5520   -0.1560 C   0  0  0  0  0  0  0  0  0  0  0  0
    0.3350   -0.7070    0.2860 C   0  0  2  0  0  0  0  0  0  0  0  0
    0.0680   -1.7130    1.2860 N   0  0  0  0  0  0  0  0  0  0  0  0
   -0.6070   -0.8640   -0.8610 C   0  0  0  0  0  0  0  0  0  0  0  0
   -1.8670   -0.6070   -0.9100 C   0  0  0  0  0  0  0  0  0  0  0  0
   -2.5430   -0.8590   -2.1640 N   0  0  0  0  0  0  0  0  0  0  0  0
   -3.9510   -0.9530   -2.2850 C   0  0  0  0  0  0  0  0  0  0  0  0
   -4.5070   -1.1770   -3.3930 O   0  0  0  0  0  0  0  0  0  0  0  0
   -4.7500   -0.7900   -1.1260 N   0  0  0  0  0  0  0  0  0  0  0  0
   -4.1020   -0.5370    0.1060 C   0  0  0  0  0  0  0  0  0  0  0  0
   -4.7600   -0.6780    1.1650 O   0  0  0  0  0  0  0  0  0  0  0  0
   -2.6750   -0.1110    0.1880 C   0  0  2  0  0  0  0  0  0  0  0  0
   -2.6400    1.3360    0.5050 C   0  0  0  0  0  0  0  0  0  0  0  0
   -3.0330    2.2810   -0.5260 C   0  0  0  0  0  0  0  0  0  0  0  0
   -2.9990    3.6780   -0.1530 N   0  0  0  0  0  0  0  0  0  0  0  0
   -3.3980    2.0760   -1.6980 O   0  0  0  0  0  0  0  0  0  0  0  0
  1  2  1  0
  2  3  1  0
  3  4  2  0
  3  9  1  0
  4  5  1  0
  5  6  1  0
  6  7  2  0
  6  8  1  0
  8  9  1  0
  9 10  1  6
 10 11  1  0
 11 12  1  1
 11 13  1  0
 13 14  2  3
 14 15  1  0
 14 21  1  0
 15 16  1  0
 16 17  2  0
 16 18  1  0
 18 19  1  0
 19 20  2  0
 19 21  1  0
 21 22  1  6
 22 23  1  0
 23 24  1  0
 23 25  2  0
M  CHG  1  12   1
M  END
