
     RDKit          3D

 26 27  0  0  0  0  0  0  0  0999 V2000
    5.0990    0.8780    2.3310 C   0  0  0  0  0  0  0  0  0  0  0  0
    5.4590    0.4060    0.9600 C   0  0  0  0  0  0  0  0  0  0  0  0
    4.6670    0.7200   -0.0680 C   0  0  0  0  0  0  0  0  0  0  0  0
    3.5280    1.4690    0.1080 O   0  0  0  0  0  0  0  0  0  0  0  0
    2.2460    1.0700   -0.3280 C   0  0  0  0  0  0  0  0  0  0  0  0
    1.8230   -0.2260    0.3160 C   0  0  0  0  0  0  0  0  0  0  0  0
    0.5130   -0.6600   -0.1110 N   0  0  0  0  0  0  0  0  0  0  0  0
   -0.6510    0.1110    0.0950 C   0  0  0  0  0  0  0  0  0  0  0  0
   -0.5180    1.2320    0.6870 O   0  0  0  0  0  0  0  0  0  0  0  0
   -1.9460   -0.3050   -0.3220 N   0  0  0  0  0  0  0  0  0  0  0  0
   -3.0640    0.5390   -0.0710 C   0  0  2  0  0  0  0  0  0  0  0  0
   -4.2510   -0.0850    0.5960 C   0  0  2  0  0  0  0  0  0  0  0  0
   -3.9440   -1.4630    1.6380 S   0  0  2  0  0  0  0  0  0  0  0  0
   -3.1330   -0.8900    3.0580 N   0  0  0  0  0  0  0  0  0  0  0  0
   -3.2040   -2.5650    0.9660 O   0  0  0  0  0  0  0  0  0  0  0  0
   -5.2730   -2.0160    2.0790 O   0  0  0  0  0  0  0  0  0  0  0  0
   -4.7810   -0.4100   -0.7840 C   0  0  2  0  0  0  0  0  0  0  0  0
   -4.2760   -1.6610   -1.2960 N   0  0  0  0  0  0  0  0  0  0  0  0
   -3.9640    0.7670   -1.2750 C   0  0  1  0  0  0  0  0  0  0  0  0
   -4.6800    2.0920   -1.1160 C   0  0  0  0  0  0  0  0  0  0  0  0
   -3.3000    0.5660   -2.6070 C   0  0  0  0  0  0  0  0  0  0  0  0
    5.0540    0.2410   -1.3850 C   0  0  0  0  0  0  0  0  0  0  0  0
    4.3540    0.5020   -2.3880 O   0  0  0  0  0  0  0  0  0  0  0  0
    6.2480   -0.5380   -1.5430 N   0  0  0  0  0  0  0  0  0  0  0  0
    6.8320   -1.1850   -0.3920 C   0  0  0  0  0  0  0  0  0  0  0  0
    6.6340   -0.3640    0.7850 N   0  0  0  0  0  0  0  0  0  0  0  0
  1  2  1  0
  2  3  2  0
  2 26  1  0
  3  4  1  0
  3 22  1  0
  4  5  1  0
  5  6  1  0
  6  7  1  0
  7  8  1  0
  8  9  2  0
  8 10  1  0
 11 10  1  6
 11 12  1  0
 11 19  1  0
 12 13  1  1
 12 17  1  0
 13 14  1  1
 13 15  2  0
 13 16  2  0
 17 18  1  6
 17 19  1  0
 19 20  1  6
 19 21  1  0
 22 23  2  0
 22 24  1  0
 24 25  1  0
 25 26  1  0
M  CHG  1  14   1
M  END
