
     RDKit          3D

 26 27  0  0  0  0  0  0  0  0999 V2000
    8.9810   -0.6860    2.4040 C   0  0  0  0  0  0  0  0  0  0  0  0
    7.7480   -1.4320    2.2650 N   0  0  0  0  0  0  0  0  0  0  0  0
    6.5540   -0.7600    1.8520 C   0  0  0  0  0  0  0  0  0  0  0  0
    6.6160    0.4890    1.6170 O   0  0  0  0  0  0  0  0  0  0  0  0
    5.3570   -1.4950    1.7190 N   0  0  0  0  0  0  0  0  0  0  0  0
    4.1730   -0.8500    1.3130 N   0  0  0  0  0  0  0  0  0  0  0  0
    4.1780   -0.0520    0.1580 C   0  0  0  0  0  0  0  0  0  0  0  0
    5.1760    0.1420   -0.5640 O   0  0  0  0  0  0  0  0  0  0  0  0
    2.9480    0.5970   -0.2350 N   0  0  0  0  0  0  0  0  0  0  0  0
    2.7140    0.2380   -1.6130 C   0  0  0  0  0  0  0  0  0  0  0  0
    1.3890   -0.4330   -1.8140 C   0  0  1  0  0  0  0  0  0  0  0  0
    1.2340   -1.5670   -1.0250 O   0  0  0  0  0  0  0  0  0  0  0  0
    0.2610    0.5050   -1.8360 C   0  0  0  0  0  0  0  0  0  0  0  0
    0.0320    1.3270   -0.6130 C   0  0  0  0  0  0  0  0  0  0  0  0
   -1.4170    2.3740   -0.9010 S   0  0  2  0  0  0  0  0  0  0  0  0
   -1.0410    3.2630   -2.0530 O   0  0  0  0  0  0  0  0  0  0  0  0
   -1.6230    3.2730    0.2950 O   0  0  0  0  0  0  0  0  0  0  0  0
   -2.7810    1.4190   -1.2180 N   0  0  0  0  0  0  0  0  0  0  0  0
   -3.1790    0.5420   -0.1770 C   0  0  0  0  0  0  0  0  0  0  0  0
   -4.4000   -0.2390   -0.6050 C   0  0  2  0  0  0  0  0  0  0  0  0
   -5.5290    0.6300   -0.9210 N   0  0  0  0  0  0  0  0  0  0  0  0
   -6.6050    0.2110   -0.0630 C   0  0  2  0  0  0  0  0  0  0  0  0
   -6.1990    0.5730    1.3450 C   0  0  0  0  0  0  0  0  0  0  0  0
   -5.1740   -0.4900    1.7650 C   0  0  0  0  0  0  0  0  0  0  0  0
   -4.9100   -1.1800    0.4560 C   0  0  1  0  0  0  0  0  0  0  0  0
   -6.3700   -1.3100   -0.0370 C   0  0  0  0  0  0  0  0  0  0  0  0
  1  2  1  0
  2  3  1  0
  3  4  2  0
  3  5  1  0
  5  6  1  0
  6  7  1  0
  7  8  2  0
  7  9  1  0
  9 10  1  0
 10 11  1  0
 11 12  1  1
 11 13  1  0
 13 14  1  0
 15 14  1  1
 15 16  2  0
 15 17  2  0
 15 18  1  0
 18 19  1  0
 20 19  1  1
 20 21  1  0
 20 25  1  0
 21 22  1  0
 22 23  1  1
 22 26  1  0
 23 24  1  0
 25 24  1  1
 25 26  1  0
M  CHG  1   9   1
M  END
