
     RDKit          3D

 26 27  0  0  0  0  0  0  0  0999 V2000
   -2.5490   -3.3850   -1.0120 C   0  0  0  0  0  0  0  0  0  0  0  0
   -1.7300   -3.0780    0.2210 C   0  0  0  0  0  0  0  0  0  0  0  0
   -2.2970   -1.8510    0.8860 C   0  0  0  0  0  0  0  0  0  0  0  0
   -2.7780   -1.7930    2.1120 C   0  0  0  0  0  0  0  0  0  0  0  0
   -3.2380   -0.4510    2.4170 C   0  0  0  0  0  0  0  0  0  0  0  0
   -3.4940    0.0410    3.5390 O   0  0  0  0  0  0  0  0  0  0  0  0
   -3.3400    0.2210    1.0780 C   0  0  1  0  0  0  0  0  0  0  0  0
   -3.0440    1.6760    1.1960 C   0  0  0  0  0  0  0  0  0  0  0  0
   -3.1400    2.3570   -0.0910 C   0  0  0  0  0  0  0  0  0  0  0  0
   -2.8680    3.7410   -0.1950 N   0  0  0  0  0  0  0  0  0  0  0  0
   -3.4650    1.7250   -1.1170 O   0  0  0  0  0  0  0  0  0  0  0  0
   -2.4080   -0.5420    0.2990 N   0  0  0  0  0  0  0  0  0  0  0  0
   -1.6650   -0.2230   -0.8450 N   0  0  0  0  0  0  0  0  0  0  0  0
   -0.4330    0.4780   -0.8120 C   0  0  0  0  0  0  0  0  0  0  0  0
    0.0480    0.8480    0.2890 O   0  0  0  0  0  0  0  0  0  0  0  0
    0.3340    0.8040   -2.0420 C   0  0  0  0  0  0  0  0  0  0  0  0
    1.6010    1.5620   -1.7170 C   0  0  1  0  0  0  0  0  0  0  0  0
    1.2170    2.7370   -1.0730 O   0  0  0  0  0  0  0  0  0  0  0  0
    2.4890    0.7440   -0.8120 C   0  0  0  0  0  0  0  0  0  0  0  0
    2.8110    1.2070    0.3560 N   0  0  0  0  0  0  0  0  0  0  0  0
    3.8170    0.2580    1.3550 S   0  0  1  0  0  0  0  0  0  0  0  0
    4.6350    1.1950    2.2920 N   0  0  0  0  0  0  0  0  0  0  0  0
    3.0430   -0.5660    2.3610 O   0  0  0  0  0  0  0  0  0  0  0  0
    4.8470   -0.7270    0.3180 C   0  0  0  0  0  0  0  0  0  0  0  0
    4.1730   -1.1640   -0.9370 C   0  0  0  0  0  0  0  0  0  0  0  0
    2.9500   -0.4990   -1.2470 N   0  0  0  0  0  0  0  0  0  0  0  0
  1  2  1  0
  2  3  1  0
  3  4  2  0
  3 12  1  0
  4  5  1  0
  5  6  2  0
  5  7  1  0
  7  8  1  1
  7 12  1  0
  8  9  1  0
  9 10  1  0
  9 11  2  0
 12 13  1  0
 13 14  1  0
 14 15  2  0
 14 16  1  0
 16 17  1  0
 17 18  1  1
 17 19  1  0
 19 20  2  0
 19 26  1  0
 20 21  1  0
 21 22  2  0
 21 23  2  0
 21 24  1  6
 24 25  1  0
 25 26  1  0
M  CHG  1  22   1
M  END
