
     RDKit          3D

 31 33  0  0  0  0  0  0  0  0999 V2000
   -7.8340    1.3360    1.2930 N   0  0  0  0  0  0  0  0  0  0  0  0
   -6.4660    1.4890    0.9470 C   0  0  0  0  0  0  0  0  0  0  0  0
   -5.8740    2.6820    1.1210 N   0  0  0  0  0  0  0  0  0  0  0  0
   -4.5660    2.8810    0.8060 C   0  0  0  0  0  0  0  0  0  0  0  0
   -3.8540    1.8540    0.3070 N   0  0  0  0  0  0  0  0  0  0  0  0
   -4.3630    0.6400    0.1020 C   0  0  0  0  0  0  0  0  0  0  0  0
   -5.7020    0.4640    0.4330 C   0  0  0  0  0  0  0  0  0  0  0  0
   -5.9770   -0.8100    0.1450 N   0  0  0  0  0  0  0  0  0  0  0  0
   -4.8600   -1.3940   -0.3420 C   0  0  0  0  0  0  0  0  0  0  0  0
   -3.8480   -0.5080   -0.3750 N   0  0  0  0  0  0  0  0  0  0  0  0
   -2.5190   -0.7890   -0.8350 C   0  0  2  0  0  0  0  0  0  0  0  0
   -1.6870   -1.3260    0.1310 O   0  0  0  0  0  0  0  0  0  0  0  0
   -0.4550   -1.3760   -0.5230 C   0  0  2  0  0  0  0  0  0  0  0  0
    0.7050   -1.3930    0.4580 C   0  0  0  0  0  0  0  0  0  0  0  0
    1.8750   -1.4430   -0.2840 O   0  0  0  0  0  0  0  0  0  0  0  0
    3.2500   -1.4670    0.6820 P   0  0  1  0  0  0  0  0  0  0  0  0
    2.8210   -1.2470    2.1080 O   0  0  0  0  0  0  0  0  0  0  0  0
    4.1000   -2.9290    0.5010 O   0  0  0  0  0  0  0  0  0  0  0  0
    4.2690   -0.2160    0.1800 O   0  0  0  0  0  0  0  0  0  0  0  0
    5.8150   -0.7950   -0.1740 P   0  0  2  0  0  0  0  0  0  0  0  0
    5.6590   -1.8840   -1.2080 O   0  0  0  0  0  0  0  0  0  0  0  0
    6.5430   -1.4450    1.2040 O   0  0  0  0  0  0  0  0  0  0  0  0
    6.7420    0.4640   -0.7970 O   0  0  0  0  0  0  0  0  0  0  0  0
    6.5190    1.8130    0.1980 P   0  0  2  0  0  0  0  0  0  0  0  0
    5.0320    2.0690    0.2990 O   0  0  0  0  0  0  0  0  0  0  0  0
    7.2230    3.1890   -0.4910 O   0  0  0  0  0  0  0  0  0  0  0  0
    7.1480    1.5100    1.7320 O   0  0  0  0  0  0  0  0  0  0  0  0
   -0.3360   -0.1340   -1.3550 C   0  0  1  0  0  0  0  0  0  0  0  0
   -0.1800   -0.4960   -2.6960 O   0  0  0  0  0  0  0  0  0  0  0  0
   -1.7520    0.4500   -1.2420 C   0  0  1  0  0  0  0  0  0  0  0  0
   -2.1820    0.9970   -2.4260 O   0  0  0  0  0  0  0  0  0  0  0  0
  1  2  1  0
  2  3  2  0
  2  7  1  0
  3  4  1  0
  4  5  2  0
  5  6  1  0
  6  7  2  0
  6 10  1  0
  7  8  1  0
  8  9  2  0
  9 10  1  0
 11 10  1  1
 11 12  1  0
 11 30  1  0
 12 13  1  0
 13 14  1  1
 13 28  1  0
 14 15  1  0
 15 16  1  0
 16 17  2  0
 16 18  1  1
 16 19  1  0
 19 20  1  0
 20 21  2  0
 20 22  1  1
 20 23  1  0
 23 24  1  0
 24 25  2  0
 24 26  1  6
 24 27  1  0
 28 29  1  6
 28 30  1  0
 30 31  1  6
M  END
