
     RDKit          3D

 31 33  0  0  0  0  0  0  0  0999 V2000
   -1.0870   -4.0410    0.3610 O   0  0  0  0  0  0  0  0  0  0  0  0
   -1.7680   -2.9960    0.2750 C   0  0  0  0  0  0  0  0  0  0  0  0
   -1.1800   -1.7830    0.5550 O   0  0  0  0  0  0  0  0  0  0  0  0
   -1.9960   -0.6400    0.5010 C   0  0  1  0  0  0  0  0  0  0  0  0
   -2.7050   -0.3900    1.7760 C   0  0  0  0  0  0  0  0  0  0  0  0
   -2.5790   -1.1480    2.7680 O   0  0  0  0  0  0  0  0  0  0  0  0
   -3.5540    0.7020    1.9510 O   0  0  0  0  0  0  0  0  0  0  0  0
   -1.2020    0.5780    0.0940 C   0  0  0  0  0  0  0  0  0  0  0  0
   -0.0060    0.7580    0.4590 N   0  0  0  0  0  0  0  0  0  0  0  0
    0.8370    1.7740    0.1920 O   0  0  0  0  0  0  0  0  0  0  0  0
    2.2520    2.1420    1.1630 P   0  0  0  0  0  0  0  0  0  0  0  0
    2.7430    0.7800    2.1140 O   0  0  0  0  0  0  0  0  0  0  0  0
    3.5250    2.8680    0.2910 O   0  0  0  0  0  0  0  0  0  0  0  0
    4.3820    1.8290   -0.7600 P   0  0  0  0  0  0  0  0  0  0  0  0
    3.2810    0.7860   -1.5990 O   0  0  0  0  0  0  0  0  0  0  0  0
    5.6700    0.8800    0.0290 N   0  0  0  0  0  0  0  0  0  0  0  0
    6.3450   -0.2520   -0.5760 C   0  0  0  0  0  0  0  0  0  0  0  0
    6.5530   -1.1330    0.6590 C   0  0  0  0  0  0  0  0  0  0  0  0
    6.9480   -0.1610    1.6250 O   0  0  0  0  0  0  0  0  0  0  0  0
    6.2700    1.0100    1.3110 C   0  0  0  0  0  0  0  0  0  0  0  0
    6.1750    2.0530    2.0210 O   0  0  0  0  0  0  0  0  0  0  0  0
   -2.0980    1.3340   -0.7090 N   0  0  0  0  0  0  0  0  0  0  0  0
   -3.1070    0.6230   -1.0820 C   0  0  0  0  0  0  0  0  0  0  0  0
   -4.1540    1.1600   -1.9030 N   0  0  0  0  0  0  0  0  0  0  0  0
   -4.6260    2.8870   -1.9000 P   0  0  0  0  0  0  0  0  0  0  0  0
   -5.6880    3.1220   -0.5460 O   0  0  0  0  0  0  0  0  0  0  0  0
   -3.2010    3.8300   -1.6150 O   0  0  0  0  0  0  0  0  0  0  0  0
   -2.9790   -0.6740   -0.5560 N   0  0  0  0  0  0  0  0  0  0  0  0
   -3.6460   -1.8960   -0.9100 C   0  0  0  0  0  0  0  0  0  0  0  0
   -3.1810   -3.0850   -0.1210 C   0  0  1  0  0  0  0  0  0  0  0  0
   -3.4260   -4.2320   -0.8900 O   0  0  0  0  0  0  0  0  0  0  0  0
  1  2  2  0
  2  3  1  0
  2 30  1  0
  3  4  1  0
  4  5  1  1
  4  8  1  0
  4 28  1  0
  5  6  2  0
  5  7  1  0
  8  9  2  3
  8 22  1  0
  9 10  1  0
 10 11  1  0
 11 12  1  0
 11 13  1  0
 13 14  1  0
 14 15  1  0
 14 16  1  0
 16 17  1  0
 16 20  1  0
 17 18  1  0
 18 19  1  0
 19 20  1  0
 20 21  2  0
 22 23  2  0
 23 24  1  0
 23 28  1  0
 24 25  1  0
 25 26  1  0
 25 27  1  0
 28 29  1  0
 29 30  1  0
 30 31  1  6
M  END
