
     RDKit          3D

 44 47  0  0  0  0  0  0  0  0999 V2000
   -6.0610   -4.6500    2.6510 C   0  0  0  0  0  0  0  0  0  0  0  0
   -6.7310   -3.6280    1.8850 N   0  0  0  0  0  0  0  0  0  0  0  0
   -6.0680   -3.1050    0.7100 C   0  0  0  0  0  0  0  0  0  0  0  0
   -4.9390   -3.5830    0.4270 O   0  0  0  0  0  0  0  0  0  0  0  0
   -6.7520   -2.0480   -0.0780 C   0  0  2  0  0  0  0  0  0  0  0  0
   -5.8970   -1.6560   -1.1840 N   0  0  0  0  0  0  0  0  0  0  0  0
   -4.6130   -1.1600   -0.8560 C   0  0  0  0  0  0  0  0  0  0  0  0
   -4.2100   -1.0690    0.3370 O   0  0  0  0  0  0  0  0  0  0  0  0
   -3.7190   -0.7320   -1.9760 C   0  0  0  0  0  0  0  0  0  0  0  0
   -2.5280   -0.2130   -1.4620 O   0  0  0  0  0  0  0  0  0  0  0  0
   -2.5020    0.8990   -0.6500 C   0  0  0  0  0  0  0  0  0  0  0  0
   -3.6560    1.5620   -0.3430 C   0  0  0  0  0  0  0  0  0  0  0  0
   -3.6430    2.6880    0.4930 C   0  0  0  0  0  0  0  0  0  0  0  0
   -2.4390    3.1130    0.9980 C   0  0  0  0  0  0  0  0  0  0  0  0
   -1.2330    2.4660    0.7080 C   0  0  0  0  0  0  0  0  0  0  0  0
   -0.1040    2.9800    1.2770 O   0  0  0  0  0  0  0  0  0  0  0  0
    1.2180    2.6450    1.1820 C   0  0  0  0  0  0  0  0  0  0  0  0
    1.8220    2.8770   -0.1780 C   0  0  1  0  0  0  0  0  0  0  0  0
    1.5330    4.3840   -0.5470 C   0  0  0  0  0  0  0  0  0  0  0  0
    3.0920    2.5320   -0.3290 O   0  0  0  0  0  0  0  0  0  0  0  0
    4.3520    2.7900   -0.5990 C   0  0  0  0  0  0  0  0  0  0  0  0
    4.8000    4.1100   -0.7480 C   0  0  0  0  0  0  0  0  0  0  0  0
    6.1140    4.3290   -1.0280 C   0  0  0  0  0  0  0  0  0  0  0  0
    7.0360    3.3210   -1.1750 C   0  0  0  0  0  0  0  0  0  0  0  0
    8.3450    3.6430   -1.4560 O   0  0  0  0  0  0  0  0  0  0  0  0
    8.8070    4.9620   -1.6030 C   0  0  0  0  0  0  0  0  0  0  0  0
    6.5590    2.0350   -1.0230 C   0  0  0  0  0  0  0  0  0  0  0  0
    5.2800    1.7140   -0.7470 C   0  0  0  0  0  0  0  0  0  0  0  0
    4.7070    0.4350   -0.6220 N   0  0  0  0  0  0  0  0  0  0  0  0
    5.4040   -0.7770   -0.7780 C   0  0  0  0  0  0  0  0  0  0  0  0
    6.6140   -0.8040   -1.0330 O   0  0  0  0  0  0  0  0  0  0  0  0
    4.6390   -2.0740   -0.6300 C   0  0  1  0  0  0  0  0  0  0  0  0
    5.5260   -3.2760   -0.8670 C   0  0  0  0  0  0  0  0  0  0  0  0
    6.4610   -3.3690    0.2980 C   0  0  0  0  0  0  0  0  0  0  0  0
    5.6790   -3.3670    1.5690 C   0  0  2  0  0  0  0  0  0  0  0  0
    5.2650   -4.7250    2.0270 C   0  0  0  0  0  0  0  0  0  0  0  0
    4.2170   -2.3430    1.1120 S   0  0  0  0  0  0  0  0  0  0  0  0
   -1.3000    1.3780   -0.1080 C   0  0  0  0  0  0  0  0  0  0  0  0
   -6.9620   -0.8420    0.8040 C   0  0  0  0  0  0  0  0  0  0  0  0
   -8.3920   -0.4290    0.9290 C   0  0  0  0  0  0  0  0  0  0  0  0
   -8.9660   -0.3290   -0.3670 O   0  0  0  0  0  0  0  0  0  0  0  0
   -8.8790   -1.4500   -1.1780 C   0  0  0  0  0  0  0  0  0  0  0  0
   -9.4800   -1.5110   -2.2820 O   0  0  0  0  0  0  0  0  0  0  0  0
   -8.0410   -2.5730   -0.6770 C   0  0  0  0  0  0  0  0  0  0  0  0
  1  2  1  0
  2  3  1  0
  3  4  2  0
  3  5  1  0
  5  6  1  6
  5 39  1  0
  5 44  1  0
  6  7  1  0
  7  8  2  0
  7  9  1  0
  9 10  1  0
 10 11  1  0
 11 12  2  0
 11 38  1  0
 12 13  1  0
 13 14  2  0
 14 15  1  0
 15 16  1  0
 15 38  2  0
 16 17  1  0
 17 18  1  0
 18 19  1  1
 18 20  1  0
 20 21  1  0
 21 22  2  0
 21 28  1  0
 22 23  1  0
 23 24  2  0
 24 25  1  0
 24 27  1  0
 25 26  1  0
 27 28  2  0
 28 29  1  0
 29 30  1  0
 30 31  2  0
 32 30  1  1
 32 33  1  0
 32 37  1  0
 33 34  1  0
 34 35  1  0
 35 36  1  6
 35 37  1  0
 39 40  1  0
 40 41  1  0
 41 42  1  0
 42 43  2  0
 42 44  1  0
M  END
