
     RDKit          3D

 44 47  0  0  0  0  0  0  0  0999 V2000
    9.9400   -1.3890    1.4720 C   0  0  0  0  0  0  0  0  0  0  0  0
   11.1550   -0.9650    0.7080 C   0  0  0  0  0  0  0  0  0  0  0  0
   10.7980   -0.8050   -0.7520 C   0  0  0  0  0  0  0  0  0  0  0  0
    9.7260    0.2320   -0.9310 C   0  0  0  0  0  0  0  0  0  0  0  0
    8.3570    0.0590   -0.9370 C   0  0  0  0  0  0  0  0  0  0  0  0
    7.7620    1.2870   -1.1330 C   0  0  0  0  0  0  0  0  0  0  0  0
    6.3380    1.5920   -1.2130 C   0  0  0  0  0  0  0  0  0  0  0  0
    5.9620    2.7760   -1.3930 O   0  0  0  0  0  0  0  0  0  0  0  0
    5.3580    0.6190   -1.0970 O   0  0  0  0  0  0  0  0  0  0  0  0
    3.9650    0.9080   -1.1710 C   0  0  1  0  0  0  0  0  0  0  0  0
    3.4260    0.0960   -2.3340 C   0  0  0  0  0  0  0  0  0  0  0  0
    2.8210   -1.0940   -1.7260 C   0  0  0  0  0  0  0  0  0  0  0  0
    2.6100   -2.1780   -2.3320 O   0  0  0  0  0  0  0  0  0  0  0  0
    2.5240   -0.7980   -0.3530 N   0  0  0  0  0  0  0  0  0  0  0  0
    1.6970   -1.6040    0.4830 C   0  0  1  0  0  0  0  0  0  0  0  0
    2.3530   -2.0700    1.7380 C   0  0  0  0  0  0  0  0  0  0  0  0
    0.3940   -0.8770    0.7760 C   0  0  0  0  0  0  0  0  0  0  0  0
   -0.4010   -1.3930    1.5870 O   0  0  0  0  0  0  0  0  0  0  0  0
    0.1590    0.3230    0.1220 N   0  0  0  0  0  0  0  0  0  0  0  0
   -1.0010    1.1620    0.2300 C   0  0  2  0  0  0  0  0  0  0  0  0
   -0.6800    2.5600    0.5890 C   0  0  0  0  0  0  0  0  0  0  0  0
   -1.7930    3.3550    0.6310 O   0  0  0  0  0  0  0  0  0  0  0  0
   -1.5420    4.6690    0.9640 C   0  0  0  0  0  0  0  0  0  0  0  0
   -2.1510    0.5010    0.9210 C   0  0  1  0  0  0  0  0  0  0  0  0
   -3.3610    1.4150    1.0930 C   0  0  0  0  0  0  0  0  0  0  0  0
   -4.5210    0.6430    1.6240 C   0  0  0  0  0  0  0  0  0  0  0  0
   -4.4840   -0.8340    1.6030 C   0  0  0  0  0  0  0  0  0  0  0  0
   -3.6290   -1.4890    0.5870 C   0  0  1  0  0  0  0  0  0  0  0  0
   -4.3880   -2.5760   -0.5730 S   0  0  0  0  0  0  0  0  0  0  0  0
   -5.5940   -1.9590   -1.6980 C   0  0  0  0  0  0  0  0  0  0  0  0
   -6.8610   -1.6000   -1.0560 C   0  0  0  0  0  0  0  0  0  0  0  0
   -7.7680   -2.6000   -0.8140 C   0  0  0  0  0  0  0  0  0  0  0  0
   -8.9880   -2.3640   -0.2430 C   0  0  0  0  0  0  0  0  0  0  0  0
   -9.2970   -1.0610    0.0950 C   0  0  0  0  0  0  0  0  0  0  0  0
  -10.5310   -0.8150    0.6740 O   0  0  0  0  0  0  0  0  0  0  0  0
   -8.4150   -0.0310   -0.1320 C   0  0  0  0  0  0  0  0  0  0  0  0
   -8.7330    1.3780    0.2260 C   0  0  0  0  0  0  0  0  0  0  0  0
   -7.1720   -0.3150   -0.7210 C   0  0  0  0  0  0  0  0  0  0  0  0
   -2.6650   -0.5620   -0.0720 C   0  0  1  0  0  0  0  0  0  0  0  0
   -3.2770    0.1710   -1.1210 O   0  0  0  0  0  0  0  0  0  0  0  0
    3.2130    0.3840   -0.0240 C   0  0  0  0  0  0  0  0  0  0  0  0
    3.1780    0.9160    1.1210 O   0  0  0  0  0  0  0  0  0  0  0  0
    8.7870    2.1500   -1.2390 N   0  0  0  0  0  0  0  0  0  0  0  0
    9.9220    1.5210   -1.1190 O   0  0  0  0  0  0  0  0  0  0  0  0
  1  2  1  0
  2  3  1  0
  3  4  1  0
  4  5  2  0
  4 44  1  0
  5  6  1  0
  6  7  1  0
  6 43  2  0
  7  8  2  0
  7  9  1  0
 10  9  1  1
 10 11  1  0
 10 41  1  0
 11 12  1  0
 12 13  2  0
 12 14  1  0
 14 15  1  0
 14 41  1  0
 15 16  1  1
 15 17  1  0
 17 18  2  0
 17 19  1  0
 19 20  1  0
 20 21  1  1
 20 24  1  0
 21 22  1  0
 22 23  1  0
 24 25  1  6
 24 39  1  0
 25 26  1  0
 26 27  1  0
 27 28  1  0
 28 29  1  6
 28 39  1  0
 29 30  1  0
 30 31  1  0
 31 32  2  0
 31 38  1  0
 32 33  1  0
 33 34  2  0
 34 35  1  0
 34 36  1  0
 36 37  1  0
 36 38  2  0
 39 40  1  6
 41 42  2  0
 43 44  1  0
M  END
