
     RDKit          3D

 43 46  0  0  0  0  0  0  0  0999 V2000
   -1.7330    2.5290   -0.3600 C   0  0  0  0  0  0  0  0  0  0  0  0
   -1.7750    3.3780    0.7040 O   0  0  0  0  0  0  0  0  0  0  0  0
   -2.0040    2.8680    1.9490 C   0  0  0  0  0  0  0  0  0  0  0  0
   -3.0820    2.2200    2.2900 O   0  0  0  0  0  0  0  0  0  0  0  0
   -3.5380    1.0450    1.7390 N   0  0  0  0  0  0  0  0  0  0  0  0
   -4.9400    1.0800    1.4780 C   0  0  0  0  0  0  0  0  0  0  0  0
   -5.5410    1.5670    0.2400 C   0  0  1  0  0  0  0  0  0  0  0  0
   -5.2680    1.0010   -1.0880 C   0  0  0  0  0  0  0  0  0  0  0  0
   -6.5750    1.3430   -1.8870 C   0  0  0  0  0  0  0  0  0  0  0  0
   -7.5870    0.9320   -0.8760 C   0  0  0  0  0  0  0  0  0  0  0  0
   -7.0750    1.4130    0.4290 C   0  0  1  0  0  0  0  0  0  0  0  0
   -7.3090    0.5120    1.4720 O   0  0  0  0  0  0  0  0  0  0  0  0
   -2.6370    0.0080    1.5470 C   0  0  0  0  0  0  0  0  0  0  0  0
   -1.4170    0.3190    1.9240 O   0  0  0  0  0  0  0  0  0  0  0  0
   -2.8110   -1.3070    1.0260 C   0  0  0  0  0  0  0  0  0  0  0  0
   -4.0060   -1.8420    0.5900 C   0  0  0  0  0  0  0  0  0  0  0  0
   -4.1060   -3.1460    0.0990 C   0  0  0  0  0  0  0  0  0  0  0  0
   -5.3970   -3.7140   -0.3620 C   0  0  0  0  0  0  0  0  0  0  0  0
   -2.9720   -3.9140    0.0520 C   0  0  0  0  0  0  0  0  0  0  0  0
   -1.7600   -3.4040    0.4840 C   0  0  0  0  0  0  0  0  0  0  0  0
   -0.5250   -4.2340    0.4320 C   0  0  0  0  0  0  0  0  0  0  0  0
   -1.6690   -2.1260    0.9640 C   0  0  0  0  0  0  0  0  0  0  0  0
   -0.4320   -1.6710    1.4310 N   0  0  0  0  0  0  0  0  0  0  0  0
    0.5880   -1.0390    0.6690 C   0  0  0  0  0  0  0  0  0  0  0  0
    0.3710   -0.8600   -0.5450 O   0  0  0  0  0  0  0  0  0  0  0  0
    1.8370   -0.6350    1.3420 C   0  0  0  0  0  0  0  0  0  0  0  0
    1.7870   -0.3010    2.6750 C   0  0  0  0  0  0  0  0  0  0  0  0
    2.9930    0.0470    3.3020 C   0  0  0  0  0  0  0  0  0  0  0  0
    4.1480    0.0550    2.6370 N   0  0  0  0  0  0  0  0  0  0  0  0
    4.2470   -0.2710    1.3080 C   0  0  0  0  0  0  0  0  0  0  0  0
    5.4820   -0.2330    0.7170 O   0  0  0  0  0  0  0  0  0  0  0  0
    5.8550   -0.4950   -0.5920 C   0  0  2  0  0  0  0  0  0  0  0  0
    6.6090   -1.8420   -0.6490 C   0  0  0  0  0  0  0  0  0  0  0  0
    7.2020   -2.0190   -2.0010 C   0  0  0  0  0  0  0  0  0  0  0  0
    7.9840   -1.0140   -2.4140 C   0  0  0  0  0  0  0  0  0  0  0  0
    8.1340    0.1160   -1.4640 C   0  0  0  0  0  0  0  0  0  0  0  0
    6.7490    0.6280   -1.1080 C   0  0  1  0  0  0  0  0  0  0  0  0
    5.9370    1.4320   -2.4820 S   0  0  0  0  0  0  0  0  0  0  0  0
    6.9020    2.8110   -3.1620 C   0  0  0  0  0  0  0  0  0  0  0  0
    7.0020    3.9200   -2.1630 C   0  0  0  0  0  0  0  0  0  0  0  0
    6.2150    4.8760   -2.0880 O   0  0  0  0  0  0  0  0  0  0  0  0
    8.0770    3.8480   -1.2540 O   0  0  0  0  0  0  0  0  0  0  0  0
    3.0600   -0.6080    0.7050 C   0  0  0  0  0  0  0  0  0  0  0  0
  1  2  1  0
  2  3  1  0
  3  4  1  0
  4  5  1  0
  5  6  1  0
  5 13  1  0
  7  6  1  1
  7  8  1  0
  7 11  1  0
  8  9  1  0
  9 10  1  0
 10 11  1  0
 11 12  1  1
 13 14  2  0
 13 15  1  0
 15 16  2  0
 15 22  1  0
 16 17  1  0
 17 18  1  0
 17 19  2  0
 19 20  1  0
 20 21  1  0
 20 22  2  0
 22 23  1  0
 23 24  1  0
 24 25  2  0
 24 26  1  0
 26 27  2  0
 26 43  1  0
 27 28  1  0
 28 29  2  0
 29 30  1  0
 30 31  1  0
 30 43  2  0
 32 31  1  1
 32 33  1  0
 32 37  1  0
 33 34  1  0
 34 35  2  0
 35 36  1  0
 36 37  1  0
 37 38  1  6
 38 39  1  0
 39 40  1  0
 40 41  2  0
 40 42  1  0
M  END
