
     RDKit          3D

 44 48  0  0  0  0  0  0  0  0999 V2000
   -1.0010   -1.8080    0.1830 O   0  0  0  0  0  0  0  0  0  0  0  0
   -1.6530   -1.9040   -0.8770 C   0  0  0  0  0  0  0  0  0  0  0  0
   -1.2830   -1.1340   -2.0700 C   0  0  0  0  0  0  0  0  0  0  0  0
   -0.0340   -0.3350   -1.7960 C   0  0  0  0  0  0  0  0  0  0  0  0
   -0.2100    0.5970   -0.6430 C   0  0  0  0  0  0  0  0  0  0  0  0
    0.7660    0.6790    0.2040 N   0  0  0  0  0  0  0  0  0  0  0  0
    1.9710   -0.0380    0.1180 C   0  0  0  0  0  0  0  0  0  0  0  0
    2.0030   -1.2500    0.4050 O   0  0  0  0  0  0  0  0  0  0  0  0
    3.2170    0.6180   -0.3120 C   0  0  0  0  0  0  0  0  0  0  0  0
    3.1960    1.9620   -0.5980 C   0  0  0  0  0  0  0  0  0  0  0  0
    4.3750    2.5370   -1.0180 C   0  0  0  0  0  0  0  0  0  0  0  0
    5.4930    1.8100   -1.1400 N   0  0  0  0  0  0  0  0  0  0  0  0
    5.5650    0.4730   -0.8680 C   0  0  0  0  0  0  0  0  0  0  0  0
    6.8110   -0.1530   -1.0750 N   0  0  0  0  0  0  0  0  0  0  0  0
    7.1070   -1.5050   -0.8080 C   0  0  0  0  0  0  0  0  0  0  0  0
    6.2450   -2.2580   -0.3250 O   0  0  0  0  0  0  0  0  0  0  0  0
    8.3890   -2.0790   -1.0740 N   0  0  0  0  0  0  0  0  0  0  0  0
    8.7750   -3.4210   -0.8380 C   0  0  1  0  0  0  0  0  0  0  0  0
    9.5450   -4.2200   -1.8120 C   0  0  0  0  0  0  0  0  0  0  0  0
   10.2570   -3.6570   -0.6010 C   0  0  0  0  0  0  0  0  0  0  0  0
    4.4040   -0.1060   -0.4510 C   0  0  0  0  0  0  0  0  0  0  0  0
   -1.3710    1.3830   -0.5000 N   0  0  0  0  0  0  0  0  0  0  0  0
   -1.3120    2.6220    0.2180 C   0  0  0  0  0  0  0  0  0  0  0  0
   -2.6180    3.3310    0.2280 C   0  0  0  0  0  0  0  0  0  0  0  0
   -3.8280    2.9970   -0.3270 C   0  0  0  0  0  0  0  0  0  0  0  0
   -4.7080    3.9710   -0.0440 N   0  0  0  0  0  0  0  0  0  0  0  0
   -4.1280    4.9250    0.6700 N   0  0  0  0  0  0  0  0  0  0  0  0
   -4.7490    6.1150    1.1480 C   0  0  0  0  0  0  0  0  0  0  0  0
   -4.5860    6.5250    2.4550 C   0  0  0  0  0  0  0  0  0  0  0  0
   -5.1990    7.6770    2.9100 C   0  0  0  0  0  0  0  0  0  0  0  0
   -5.9560    8.4080    2.0920 N   0  0  0  0  0  0  0  0  0  0  0  0
   -6.1520    8.0590    0.8060 C   0  0  0  0  0  0  0  0  0  0  0  0
   -5.5490    6.9150    0.3400 C   0  0  0  0  0  0  0  0  0  0  0  0
   -2.8480    4.5480    0.8450 C   0  0  0  0  0  0  0  0  0  0  0  0
   -1.6660    5.4810    1.7290 Cl  0  0  0  0  0  0  0  0  0  0  0  0
   -2.7670   -2.7890   -0.8760 N   0  0  0  0  0  0  0  0  0  0  0  0
   -3.1680   -3.5350    0.2200 N   0  0  0  0  0  0  0  0  0  0  0  0
   -2.8690   -4.9460    0.2730 C   0  0  0  0  0  0  0  0  0  0  0  0
   -4.1930   -5.6560    0.5480 C   0  0  0  0  0  0  0  0  0  0  0  0
   -4.7340   -5.2520    1.8730 C   0  0  0  0  0  0  0  0  0  0  0  0
   -4.8130   -3.7910    2.1400 C   0  0  2  0  0  0  0  0  0  0  0  0
   -6.4970   -3.1910    1.7190 S   0  0  0  0  0  0  0  0  0  0  0  0
   -3.8810   -2.9830    1.3180 C   0  0  0  0  0  0  0  0  0  0  0  0
   -3.7190   -1.7820    1.6000 O   0  0  0  0  0  0  0  0  0  0  0  0
  1  2  2  0
  2  3  1  0
  2 36  1  0
  3  4  1  0
  4  5  1  0
  5  6  2  3
  5 22  1  0
  6  7  1  0
  7  8  2  0
  7  9  1  0
  9 10  2  0
  9 21  1  0
 10 11  1  0
 11 12  2  0
 12 13  1  0
 13 14  1  0
 13 21  2  0
 14 15  1  0
 15 16  2  0
 15 17  1  0
 18 17  1  6
 18 19  1  0
 18 20  1  0
 19 20  1  0
 22 23  1  0
 23 24  1  0
 24 25  1  0
 24 34  2  0
 25 26  2  0
 26 27  1  0
 27 28  1  0
 27 34  1  0
 28 29  2  0
 28 33  1  0
 29 30  1  0
 30 31  2  0
 31 32  1  0
 32 33  2  0
 34 35  1  0
 36 37  1  0
 37 38  1  0
 37 43  1  0
 38 39  1  0
 39 40  1  0
 40 41  1  0
 41 42  1  6
 41 43  1  0
 43 44  2  0
M  END
