
     RDKit          3D

 44 47  0  0  0  0  0  0  0  0999 V2000
   -4.6860    3.5610   -0.6080 C   0  0  0  0  0  0  0  0  0  0  0  0
   -4.4170    2.7680    0.5900 C   0  0  0  0  0  0  0  0  0  0  0  0
   -4.7930    1.3580    0.7190 C   0  0  2  0  0  0  0  0  0  0  0  0
   -4.3360    0.9450    2.1440 C   0  0  0  0  0  0  0  0  0  0  0  0
   -4.2320    0.3300   -0.2240 C   0  0  2  0  0  0  0  0  0  0  0  0
   -3.7370    0.7310   -1.5580 C   0  0  0  0  0  0  0  0  0  0  0  0
   -3.2640   -0.5360   -2.2380 C   0  0  0  0  0  0  0  0  0  0  0  0
   -3.2680   -1.6330   -1.6080 O   0  0  0  0  0  0  0  0  0  0  0  0
   -2.8110   -0.5470   -3.5910 N   0  0  0  0  0  0  0  0  0  0  0  0
   -2.3590   -1.7100   -4.2700 C   0  0  0  0  0  0  0  0  0  0  0  0
   -1.1160   -2.2310   -3.6190 C   0  0  0  0  0  0  0  0  0  0  0  0
   -0.6150   -3.3290   -4.0630 O   0  0  0  0  0  0  0  0  0  0  0  0
   -0.4470   -1.5930   -2.5490 N   0  0  0  0  0  0  0  0  0  0  0  0
    0.7180   -2.0890   -1.9190 C   0  0  0  0  0  0  0  0  0  0  0  0
    1.0930   -3.4030   -1.8780 C   0  0  0  0  0  0  0  0  0  0  0  0
    2.2630   -3.8330   -1.2740 C   0  0  0  0  0  0  0  0  0  0  0  0
    3.1240   -2.9260   -0.6710 C   0  0  0  0  0  0  0  0  0  0  0  0
    4.2990   -3.3510   -0.0180 N   0  0  0  0  0  0  0  0  0  0  0  0
    5.4570   -2.5840    0.1110 C   0  0  0  0  0  0  0  0  0  0  0  0
    5.5010   -1.4300   -0.3950 O   0  0  0  0  0  0  0  0  0  0  0  0
    6.6780   -3.0890    0.8420 C   0  0  0  0  0  0  0  0  0  0  0  0
    7.8410   -2.1620    0.7040 C   0  0  0  0  0  0  0  0  0  0  0  0
    7.6000   -0.8020    1.2330 C   0  0  0  0  0  0  0  0  0  0  0  0
    6.5290   -0.4470    1.7770 O   0  0  0  0  0  0  0  0  0  0  0  0
    8.6050    0.1740    1.1360 O   0  0  0  0  0  0  0  0  0  0  0  0
    8.4030    1.4780    1.6230 C   0  0  1  0  0  0  0  0  0  0  0  0
    9.4200    1.6520    2.7570 C   0  0  0  0  0  0  0  0  0  0  0  0
    8.7710    2.4860    0.5970 C   0  0  0  0  0  0  0  0  0  0  0  0
    8.1320    3.6190    0.2120 C   0  0  0  0  0  0  0  0  0  0  0  0
    8.8680    4.2140   -0.7760 C   0  0  0  0  0  0  0  0  0  0  0  0
    9.9750    3.3860   -0.9650 C   0  0  0  0  0  0  0  0  0  0  0  0
    9.8730    2.3740   -0.1270 O   0  0  0  0  0  0  0  0  0  0  0  0
    2.7560   -1.6080   -0.7060 C   0  0  0  0  0  0  0  0  0  0  0  0
    1.5680   -1.1840   -1.3220 C   0  0  0  0  0  0  0  0  0  0  0  0
   -5.6060   -0.3580   -0.3170 C   0  0  1  0  0  0  0  0  0  0  0  0
   -5.7530   -1.6260    0.4180 C   0  0  0  0  0  0  0  0  0  0  0  0
   -6.8100   -1.7160    1.4520 C   0  0  0  0  0  0  0  0  0  0  0  0
   -7.1010   -0.4810    2.2260 C   0  0  0  0  0  0  0  0  0  0  0  0
   -7.2350    0.6750    1.2830 C   0  0  1  0  0  0  0  0  0  0  0  0
   -7.7500    2.1320    2.1180 S   0  0  2  0  0  0  0  0  0  0  0  0
   -9.2430    2.0180    2.4000 O   0  0  0  0  0  0  0  0  0  0  0  0
   -7.5600    3.3780    1.2920 O   0  0  0  0  0  0  0  0  0  0  0  0
   -6.1380    0.8860    0.3210 C   0  0  1  0  0  0  0  0  0  0  0  0
   -6.6440    1.7050   -0.7270 O   0  0  0  0  0  0  0  0  0  0  0  0
  1  2  1  0
  2  3  1  0
  3  4  1  1
  3  5  1  0
  3 43  1  0
  5  6  1  6
  5 35  1  0
  6  7  1  0
  7  8  2  0
  7  9  1  0
  9 10  1  0
 10 11  1  0
 11 12  2  0
 11 13  1  0
 13 14  1  0
 14 15  2  0
 14 34  1  0
 15 16  1  0
 16 17  2  0
 17 18  1  0
 17 33  1  0
 18 19  1  0
 19 20  2  0
 19 21  1  0
 21 22  1  0
 22 23  1  0
 23 24  2  0
 23 25  1  0
 25 26  1  0
 26 27  1  1
 26 28  1  0
 28 29  2  0
 28 32  1  0
 29 30  1  0
 30 31  2  0
 31 32  1  0
 33 34  2  0
 35 36  1  1
 35 43  1  0
 36 37  1  0
 37 38  1  0
 39 38  1  1
 40 39  1  6
 39 43  1  0
 40 41  2  0
 40 42  2  0
 43 44  1  6
M  END
