
     RDKit          3D

 11 12  0  0  0  0  0  0  0  0999 V2000
   -1.0130    2.6230    0.2420 O   0  0  0  0  0  0  0  0  0  0  0  0
   -0.9880    1.2620    0.0720 C   0  0  0  0  0  0  0  0  0  0  0  0
   -2.1760    0.5660   -0.1200 C   0  0  0  0  0  0  0  0  0  0  0  0
   -2.2010   -0.8030   -0.2940 C   0  0  0  0  0  0  0  0  0  0  0  0
   -1.0030   -1.5160   -0.2790 C   0  0  0  0  0  0  0  0  0  0  0  0
    0.1890   -0.8390   -0.0890 C   0  0  0  0  0  0  0  0  0  0  0  0
    1.4060   -1.4850   -0.0640 C   0  0  0  0  0  0  0  0  0  0  0  0
    2.6010   -0.8360    0.1230 C   0  0  0  0  0  0  0  0  0  0  0  0
    2.5820    0.4960    0.2890 N   0  0  0  0  0  0  0  0  0  0  0  0
    1.4100    1.1740    0.2720 C   0  0  0  0  0  0  0  0  0  0  0  0
    0.2010    0.5360    0.0850 C   0  0  0  0  0  0  0  0  0  0  0  0
  1  2  1  0
  2  3  2  0
  2 11  1  0
  3  4  1  0
  4  5  2  0
  5  6  1  0
  6  7  2  0
  6 11  1  0
  7  8  1  0
  8  9  2  0
  9 10  1  0
 10 11  2  0
M  END
