
     RDKit          3D

 11 12  0  0  0  0  0  0  0  0999 V2000
    3.1610   -1.0150   -0.0360 C   0  0  0  0  0  0  0  0  0  0  0  0
    1.9580   -0.4750   -0.2910 C   0  0  0  0  0  0  0  0  0  0  0  0
    1.8280    0.7900   -1.0350 C   0  0  0  0  0  0  0  0  0  0  0  0
    0.6560    1.4960   -0.7140 O   0  0  0  0  0  0  0  0  0  0  0  0
   -0.5240    0.9080   -0.2900 C   0  0  0  0  0  0  0  0  0  0  0  0
   -1.7330    1.5720   -0.2860 C   0  0  0  0  0  0  0  0  0  0  0  0
   -2.8920    0.9730    0.1390 C   0  0  0  0  0  0  0  0  0  0  0  0
   -2.8460   -0.3350    0.5740 C   0  0  0  0  0  0  0  0  0  0  0  0
   -1.6420   -1.0120    0.5750 C   0  0  0  0  0  0  0  0  0  0  0  0
   -0.4630   -0.4200    0.1500 C   0  0  0  0  0  0  0  0  0  0  0  0
    0.7730   -1.1130    0.1510 N   0  0  0  0  0  0  0  0  0  0  0  0
  1  2  2  0
  2  3  1  0
  2 11  1  0
  3  4  1  0
  4  5  1  0
  5  6  2  0
  5 10  1  0
  6  7  1  0
  7  8  2  0
  8  9  1  0
  9 10  2  0
 10 11  1  0
M  END
