
     RDKit          3D

 11 11  0  0  0  0  0  0  0  0999 V2000
   -1.2680   -0.6060   -2.1520 C   0  0  0  0  0  0  0  0  0  0  0  0
   -1.1850   -0.2290   -0.9000 C   0  0  0  0  0  0  0  0  0  0  0  0
   -2.4280   -0.0340   -0.1720 N   0  0  0  0  0  0  0  0  0  0  0  0
   -3.1280   -1.2570    0.1510 C   0  0  0  0  0  0  0  0  0  0  0  0
    0.0700   -0.0170   -0.2250 C   0  0  0  0  0  0  0  0  0  0  0  0
    0.1090    0.3780    1.0540 C   0  0  0  0  0  0  0  0  0  0  0  0
    1.3540    0.6060    1.7800 C   0  0  0  0  0  0  0  0  0  0  0  0
    2.5150    1.0490    0.9660 C   0  0  0  0  0  0  0  0  0  0  0  0
    2.4910    0.7020   -0.4910 C   0  0  0  0  0  0  0  0  0  0  0  0
    1.3680   -0.2170   -0.8370 C   0  0  0  0  0  0  0  0  0  0  0  0
    1.5200   -1.1650   -1.6490 O   0  0  0  0  0  0  0  0  0  0  0  0
  1  2  2  0
  2  3  1  0
  2  5  1  0
  3  4  1  0
  5  6  2  0
  5 10  1  0
  6  7  1  0
  7  8  1  0
  8  9  1  0
  9 10  1  0
 10 11  2  0
M  END
