
     RDKit          3D

 11 12  0  0  0  0  0  0  0  0999 V2000
   -3.6450   -0.5840   -0.0470 C   0  0  0  0  0  0  0  0  0  0  0  0
   -2.8280    0.5220   -0.3490 O   0  0  0  0  0  0  0  0  0  0  0  0
   -1.4460    0.4150   -0.3490 C   0  0  0  0  0  0  0  0  0  0  0  0
   -0.7410   -0.7220   -0.0700 C   0  0  0  0  0  0  0  0  0  0  0  0
    0.6140   -0.4360   -0.1710 C   0  0  0  0  0  0  0  0  0  0  0  0
    1.7620   -1.2000    0.0030 C   0  0  0  0  0  0  0  0  0  0  0  0
    3.0160   -0.6520   -0.1640 C   0  0  0  0  0  0  0  0  0  0  0  0
    3.0650    0.6830   -0.5090 C   0  0  0  0  0  0  0  0  0  0  0  0
    1.9310    1.4500   -0.6850 C   0  0  0  0  0  0  0  0  0  0  0  0
    0.6780    0.8990   -0.5170 C   0  0  0  0  0  0  0  0  0  0  0  0
   -0.5770    1.4040   -0.6220 N   0  0  0  0  0  0  0  0  0  0  0  0
  1  2  1  0
  2  3  1  0
  3  4  2  0
  3 11  1  0
  4  5  1  0
  5  6  2  0
  5 10  1  0
  6  7  1  0
  7  8  2  0
  8  9  1  0
  9 10  2  0
 10 11  1  0
M  END
