
     RDKit          3D

 24 26  0  0  0  0  0  0  0  0999 V2000
    0.6460   -1.3070    0.0070 C   0  0  0  0  0  0  0  0  0  0  0  0
    1.3790   -0.1090   -0.2320 N   0  0  0  0  0  0  0  0  0  0  0  0
    2.6280    0.1460    0.2480 C   0  0  0  0  0  0  0  0  0  0  0  0
    3.5290   -0.6630    1.0720 C   0  0  0  0  0  0  0  0  0  0  0  0
    3.5020   -0.2280    2.4320 N   0  0  0  0  0  0  0  0  0  0  0  0
    2.4190   -0.3270    3.3250 C   0  0  0  0  0  0  0  0  0  0  0  0
    2.4170   -1.4050    4.2810 C   0  0  0  0  0  0  0  0  0  0  0  0
    1.1060   -1.5580    5.4190 Cl  0  0  0  0  0  0  0  0  0  0  0  0
    3.4030   -2.2820    4.3010 C   0  0  0  0  0  0  0  0  0  0  0  0
    3.4030   -3.2870    5.1910 F   0  0  0  0  0  0  0  0  0  0  0  0
    1.4190    0.5330    3.3200 C   0  0  0  0  0  0  0  0  0  0  0  0
    1.4260    1.5340    2.4380 F   0  0  0  0  0  0  0  0  0  0  0  0
    0.3970    0.4350    4.1870 F   0  0  0  0  0  0  0  0  0  0  0  0
    2.9790    1.3730   -0.1940 N   0  0  0  0  0  0  0  0  0  0  0  0
    1.9890    1.8080   -0.8930 N   0  0  0  0  0  0  0  0  0  0  0  0
    0.9580    0.9560   -0.9690 C   0  0  0  0  0  0  0  0  0  0  0  0
   -0.2820    1.1680   -1.7010 C   0  0  1  0  0  0  0  0  0  0  0  0
   -0.3590    0.3680   -2.9900 C   0  0  0  0  0  0  0  0  0  0  0  0
   -1.8650    0.3490   -3.1980 C   0  0  0  0  0  0  0  0  0  0  0  0
   -2.4340    0.3270   -1.8800 N   0  0  0  0  0  0  0  0  0  0  0  0
   -3.8040    0.7210   -1.8010 C   0  0  2  0  0  0  0  0  0  0  0  0
   -4.7700   -0.1520   -2.5510 C   0  0  0  0  0  0  0  0  0  0  0  0
   -4.5780    1.2780   -2.9070 C   0  0  0  0  0  0  0  0  0  0  0  0
   -1.5520    0.9770   -0.9620 C   0  0  0  0  0  0  0  0  0  0  0  0
  1  2  1  0
  2  3  1  0
  2 16  1  0
  3  4  1  0
  3 14  2  0
  4  5  1  0
  5  6  1  0
  6  7  1  0
  6 11  2  3
  7  8  1  0
  7  9  2  3
  9 10  1  0
 11 12  1  0
 11 13  1  0
 14 15  1  0
 15 16  2  0
 17 16  1  1
 17 18  1  0
 17 24  1  0
 18 19  1  0
 19 20  1  0
 21 20  1  6
 20 24  1  0
 21 22  1  0
 21 23  1  0
 22 23  1  0
M  END
