
     RDKit          3D

 11 11  0  0  0  0  0  0  0  0999 V2000
   -3.6090   -0.1190   -0.2500 C   0  0  0  0  0  0  0  0  0  0  0  0
   -2.6060   -0.9070    0.4250 N   0  0  0  0  0  0  0  0  0  0  0  0
   -1.2630   -0.4240    0.6300 C   0  0  0  0  0  0  0  0  0  0  0  0
   -0.3780   -0.4380   -0.3290 C   0  0  0  0  0  0  0  0  0  0  0  0
    1.0040    0.0050   -0.2980 C   0  0  0  0  0  0  0  0  0  0  0  0
    1.7470   -0.1140   -1.4570 N   0  0  0  0  0  0  0  0  0  0  0  0
    3.0190    0.2690   -1.5090 C   0  0  0  0  0  0  0  0  0  0  0  0
    3.6030    0.7950   -0.3790 C   0  0  0  0  0  0  0  0  0  0  0  0
    2.9260    0.9310    0.7640 N   0  0  0  0  0  0  0  0  0  0  0  0
    1.6090    0.5300    0.8070 C   0  0  0  0  0  0  0  0  0  0  0  0
    0.9060    0.6700    1.9900 O   0  0  0  0  0  0  0  0  0  0  0  0
  1  2  1  0
  2  3  1  0
  3  4  2  3
  4  5  1  0
  5  6  2  0
  5 10  1  0
  6  7  1  0
  7  8  2  0
  8  9  1  0
  9 10  2  0
 10 11  1  0
M  END
