
     RDKit          3D

 11 11  0  0  0  0  0  0  0  0999 V2000
    3.0280   -0.6180   -0.5690 C   0  0  0  0  0  0  0  0  0  0  0  0
    1.9220    0.3440   -0.4530 N   0  0  0  0  0  0  0  0  0  0  0  0
    2.2220    1.1710    0.6840 C   0  0  0  0  0  0  0  0  0  0  0  0
    0.7240   -0.4380   -0.2950 C   0  0  0  0  0  0  0  0  0  0  0  0
   -0.4890    0.4100   -0.1660 C   0  0  0  0  0  0  0  0  0  0  0  0
   -0.6100    1.7400   -0.1770 N   0  0  0  0  0  0  0  0  0  0  0  0
   -1.8840    2.0830   -0.0320 N   0  0  0  0  0  0  0  0  0  0  0  0
   -2.6210    0.9610    0.0780 C   0  0  0  0  0  0  0  0  0  0  0  0
   -1.7540   -0.1070   -0.0050 C   0  0  0  0  0  0  0  0  0  0  0  0
   -2.1120   -1.5600    0.0650 C   0  0  0  0  0  0  0  0  0  0  0  0
   -3.4760   -1.6740    0.2300 O   0  0  0  0  0  0  0  0  0  0  0  0
  1  2  1  0
  2  3  1  0
  2  4  1  0
  4  5  1  0
  5  6  2  0
  5  9  1  0
  6  7  1  0
  7  8  1  0
  8  9  2  0
  9 10  1  0
 10 11  1  0
M  END
