
     RDKit          3D

 11 11  0  0  0  0  0  0  0  0999 V2000
   -1.5640   -0.1060   -1.3790 C   0  0  0  0  0  0  0  0  0  0  0  0
   -0.9670    0.1810    0.0040 C   0  0  2  0  0  0  0  0  0  0  0  0
   -1.6200   -0.8700    0.9270 C   0  0  0  0  0  0  0  0  0  0  0  0
   -1.3870    1.4800    0.5100 C   0  0  0  0  0  0  0  0  0  0  0  0
   -0.6060    2.2930    0.9300 O   0  0  0  0  0  0  0  0  0  0  0  0
    0.4360   -0.0360   -0.0810 N   0  0  0  0  0  0  0  0  0  0  0  0
    1.0280   -1.3780   -0.3080 C   0  0  0  0  0  0  0  0  0  0  0  0
    2.1860   -1.2380    0.6920 C   0  0  0  0  0  0  0  0  0  0  0  0
    2.5910    0.1270    0.4350 N   0  0  0  0  0  0  0  0  0  0  0  0
    1.5720    0.8090   -0.0110 C   0  0  0  0  0  0  0  0  0  0  0  0
    1.6230    2.1730   -0.3670 N   0  0  0  0  0  0  0  0  0  0  0  0
  2  1  1  6
  2  3  1  0
  2  4  1  0
  2  6  1  0
  4  5  2  0
  6  7  1  0
  6 10  1  0
  7  8  1  0
  8  9  1  0
  9 10  2  0
 10 11  1  0
M  END
