
     RDKit          3D

 11 11  0  0  0  0  0  0  0  0999 V2000
    3.7950    0.2240   -0.2410 C   0  0  0  0  0  0  0  0  0  0  0  0
    2.8860   -0.6840   -0.7540 O   0  0  0  0  0  0  0  0  0  0  0  0
    1.8720   -0.8920    0.1730 C   0  0  0  0  0  0  0  0  0  0  0  0
    1.0920    0.2660    0.5450 C   0  0  0  0  0  0  0  0  0  0  0  0
   -0.2040    0.4540    0.4040 C   0  0  0  0  0  0  0  0  0  0  0  0
   -0.8190    1.6800    0.8340 N   0  0  0  0  0  0  0  0  0  0  0  0
   -2.0800    1.8370    0.6850 C   0  0  0  0  0  0  0  0  0  0  0  0
   -2.9210    0.8110    0.0890 C   0  0  0  0  0  0  0  0  0  0  0  0
   -2.4020   -0.3200   -0.3170 C   0  0  0  0  0  0  0  0  0  0  0  0
   -3.2470   -1.3290   -0.9060 N   0  0  0  0  0  0  0  0  0  0  0  0
   -1.0070   -0.5460   -0.1740 N   0  0  0  0  0  0  0  0  0  0  0  0
  1  2  1  0
  2  3  1  0
  3  4  1  0
  4  5  2  3
  5  6  1  0
  5 11  1  0
  6  7  2  0
  7  8  1  0
  8  9  2  0
  9 10  1  0
  9 11  1  0
M  END
