
     RDKit          3D

 24 26  0  0  0  0  0  0  0  0999 V2000
   -3.9580   -1.3540    1.4560 C   0  0  0  0  0  0  0  0  0  0  0  0
   -3.4520   -0.2070    0.5830 C   0  0  1  0  0  0  0  0  0  0  0  0
   -2.0380   -0.4490    0.1740 C   0  0  0  0  0  0  0  0  0  0  0  0
   -1.1040    0.3730    0.4920 N   0  0  0  0  0  0  0  0  0  0  0  0
    0.2710    0.2160    0.1420 C   0  0  0  0  0  0  0  0  0  0  0  0
    1.1140    1.0790    0.5090 O   0  0  0  0  0  0  0  0  0  0  0  0
    0.6930   -0.9360   -0.6300 C   0  0  0  0  0  0  0  0  0  0  0  0
    1.9140   -1.1760   -1.0440 C   0  0  0  0  0  0  0  0  0  0  0  0
    3.0370   -0.3020   -0.7930 C   0  0  0  0  0  0  0  0  0  0  0  0
    3.0380    0.9870   -1.2810 C   0  0  0  0  0  0  0  0  0  0  0  0
    4.0960    1.8300   -1.0250 C   0  0  0  0  0  0  0  0  0  0  0  0
    4.0580    3.1000   -1.5270 F   0  0  0  0  0  0  0  0  0  0  0  0
    5.1860    1.4490   -0.2870 C   0  0  0  0  0  0  0  0  0  0  0  0
    6.5170    2.5310    0.0280 Cl  0  0  0  0  0  0  0  0  0  0  0  0
    5.1590    0.1490    0.1900 C   0  0  0  0  0  0  0  0  0  0  0  0
    6.3260   -0.3090    0.9970 C   0  0  0  0  0  0  0  0  0  0  0  0
    6.2630    0.3610    2.6400 Cl  0  0  0  0  0  0  0  0  0  0  0  0
    4.1270   -0.7160   -0.0440 C   0  0  0  0  0  0  0  0  0  0  0  0
   -0.3690   -1.8640   -0.9880 N   0  0  0  0  0  0  0  0  0  0  0  0
   -1.6580   -1.5800   -0.5760 N   0  0  0  0  0  0  0  0  0  0  0  0
   -4.3710   -0.0690   -0.6000 C   0  0  0  0  0  0  0  0  0  0  0  0
   -5.2640    1.0820   -0.1170 C   0  0  0  0  0  0  0  0  0  0  0  0
   -4.2600    1.8920    0.6750 C   0  0  0  0  0  0  0  0  0  0  0  0
   -3.5360    0.9350    1.3340 O   0  0  0  0  0  0  0  0  0  0  0  0
  2  1  1  1
  2  3  1  0
  2 21  1  0
  2 24  1  0
  3  4  2  0
  3 20  1  0
  4  5  1  0
  5  6  2  0
  5  7  1  0
  7  8  2  3
  7 19  1  0
  8  9  1  0
  9 10  2  0
  9 18  1  0
 10 11  1  0
 11 12  1  0
 11 13  2  0
 13 14  1  0
 13 15  1  0
 15 16  1  0
 15 18  2  0
 16 17  1  0
 19 20  1  0
 21 22  1  0
 22 23  1  0
 23 24  1  0
M  END
