
     RDKit          3D

 24 26  0  0  0  0  0  0  0  0999 V2000
   -2.7270   -1.5870    2.4690 C   0  0  0  0  0  0  0  0  0  0  0  0
   -3.0520   -1.7720    0.9830 C   0  0  1  0  0  0  0  0  0  0  0  0
   -3.9260   -0.7490    0.5870 N   0  0  0  0  0  0  0  0  0  0  0  0
   -3.4560    0.3570   -0.1330 C   0  0  1  0  0  0  0  0  0  0  0  0
   -4.3340    0.4130   -1.7020 Cl  0  0  0  0  0  0  0  0  0  0  0  0
   -3.6790    1.7090    0.5140 C   0  0  0  0  0  0  0  0  0  0  0  0
   -2.8790    2.5650   -0.4820 C   0  0  0  0  0  0  0  0  0  0  0  0
   -1.6800    1.6650   -0.6400 C   0  0  0  0  0  0  0  0  0  0  0  0
   -2.0330    0.4070   -0.4360 C   0  0  0  0  0  0  0  0  0  0  0  0
   -1.2410   -0.7920   -0.4760 N   0  0  0  0  0  0  0  0  0  0  0  0
    0.0240   -0.7850   -1.1440 C   0  0  0  0  0  0  0  0  0  0  0  0
    1.1480   -0.4090   -0.2200 C   0  0  0  0  0  0  0  0  0  0  0  0
    0.9370   -0.1460    0.9740 O   0  0  0  0  0  0  0  0  0  0  0  0
    2.4390   -0.3690   -0.7620 N   0  0  0  0  0  0  0  0  0  0  0  0
    3.6210   -0.0400   -0.0640 C   0  0  0  0  0  0  0  0  0  0  0  0
    3.6830    0.2940    1.2700 C   0  0  0  0  0  0  0  0  0  0  0  0
    4.8860    0.6110    1.9100 C   0  0  0  0  0  0  0  0  0  0  0  0
    6.0460    0.5900    1.1850 C   0  0  0  0  0  0  0  0  0  0  0  0
    6.0310    0.2600   -0.1590 C   0  0  0  0  0  0  0  0  0  0  0  0
    7.1890    0.2490   -0.8390 F   0  0  0  0  0  0  0  0  0  0  0  0
    4.8420   -0.0460   -0.7600 C   0  0  0  0  0  0  0  0  0  0  0  0
    4.8610   -0.4600   -2.4680 Cl  0  0  0  0  0  0  0  0  0  0  0  0
   -1.8140   -1.9190    0.1810 C   0  0  0  0  0  0  0  0  0  0  0  0
   -1.2390   -3.0270    0.0550 O   0  0  0  0  0  0  0  0  0  0  0  0
  2  1  1  1
  2  3  1  0
  2 23  1  0
  3  4  1  0
  4  5  1  6
  4  6  1  0
  4  9  1  0
  6  7  1  0
  7  8  1  0
  8  9  2  0
  9 10  1  0
 10 11  1  0
 10 23  1  0
 11 12  1  0
 12 13  2  0
 12 14  1  0
 14 15  1  0
 15 16  2  0
 15 21  1  0
 16 17  1  0
 17 18  2  0
 18 19  1  0
 19 20  1  0
 19 21  2  0
 21 22  1  0
 23 24  2  0
M  END
