
     RDKit          3D

 24 26  0  0  0  0  0  0  0  0999 V2000
   -4.3600   -0.2530   -0.3680 O   0  0  0  0  0  0  0  0  0  0  0  0
   -3.8680   -1.3480   -0.0490 C   0  0  0  0  0  0  0  0  0  0  0  0
   -2.5120   -1.4290    0.3090 N   0  0  0  0  0  0  0  0  0  0  0  0
   -1.5630   -0.3830    0.3630 C   0  0  0  0  0  0  0  0  0  0  0  0
   -1.8550    0.8960    0.0550 C   0  0  0  0  0  0  0  0  0  0  0  0
   -0.8520    1.8510    0.1410 C   0  0  0  0  0  0  0  0  0  0  0  0
   -1.2170    3.1410   -0.1640 C   0  0  0  0  0  0  0  0  0  0  0  0
   -0.2960    4.1550   -0.0820 C   0  0  0  0  0  0  0  0  0  0  0  0
    0.9680    3.8040    0.3130 C   0  0  0  0  0  0  0  0  0  0  0  0
    1.3250    2.4990    0.6180 C   0  0  0  0  0  0  0  0  0  0  0  0
    2.9220    2.2600    1.1640 Cl  0  0  0  0  0  0  0  0  0  0  0  0
    0.4310    1.4870    0.5390 C   0  0  0  0  0  0  0  0  0  0  0  0
    0.7430    0.2210    0.8470 N   0  0  0  0  0  0  0  0  0  0  0  0
    2.0610   -0.2660    1.1560 C   0  0  0  0  0  0  0  0  0  0  0  0
    2.7160   -0.9250    0.0180 C   0  0  0  0  0  0  0  0  0  0  0  0
    3.3700   -0.3020   -1.0010 C   0  0  0  0  0  0  0  0  0  0  0  0
    3.8560   -1.2470   -1.8850 C   0  0  0  0  0  0  0  0  0  0  0  0
    3.4920   -2.4670   -1.4000 C   0  0  0  0  0  0  0  0  0  0  0  0
    2.8130   -2.2360   -0.2630 N   0  0  0  0  0  0  0  0  0  0  0  0
   -0.2710   -0.6620    0.7470 C   0  0  0  0  0  0  0  0  0  0  0  0
   -0.0210   -1.8840    1.0340 O   0  0  0  0  0  0  0  0  0  0  0  0
   -4.7520   -2.5730   -0.0550 C   0  0  1  0  0  0  0  0  0  0  0  0
   -4.8310   -3.1520    1.1740 F   0  0  0  0  0  0  0  0  0  0  0  0
   -6.3450   -2.0840   -0.6330 Cl  0  0  0  0  0  0  0  0  0  0  0  0
  1  2  2  0
  2  3  1  0
  2 22  1  0
  3  4  1  0
  4  5  2  0
  4 20  1  0
  5  6  1  0
  6  7  2  0
  6 12  1  0
  7  8  1  0
  8  9  2  0
  9 10  1  0
 10 11  1  0
 10 12  2  0
 12 13  1  0
 13 14  1  0
 13 20  1  0
 14 15  1  0
 15 16  2  0
 15 19  1  0
 16 17  1  0
 17 18  2  0
 18 19  1  0
 20 21  2  0
 22 23  1  1
 22 24  1  0
M  END
