
     RDKit          3D

 24 26  0  0  0  0  0  0  0  0999 V2000
   -3.1840   -1.9900   -1.2760 C   0  0  0  0  0  0  0  0  0  0  0  0
   -2.0350   -1.0190   -0.9770 C   0  0  2  0  0  0  0  0  0  0  0  0
   -0.8150   -1.8420   -1.0150 N   0  0  0  0  0  0  0  0  0  0  0  0
    0.4850   -1.3370   -0.8490 C   0  0  0  0  0  0  0  0  0  0  0  0
    0.7020   -0.0010   -0.6700 C   0  0  0  0  0  0  0  0  0  0  0  0
    1.9910    0.5030   -0.5100 C   0  0  0  0  0  0  0  0  0  0  0  0
    3.0730   -0.3480   -0.5310 C   0  0  0  0  0  0  0  0  0  0  0  0
    2.8770   -1.6980   -0.7100 C   0  0  0  0  0  0  0  0  0  0  0  0
    1.6040   -2.1680   -0.8650 C   0  0  0  0  0  0  0  0  0  0  0  0
    1.3470   -3.8830   -1.0930 Cl  0  0  0  0  0  0  0  0  0  0  0  0
    4.2650    0.4720   -0.3400 C   0  0  0  0  0  0  0  0  0  0  0  0
    5.4400    0.0170   -0.3060 O   0  0  0  0  0  0  0  0  0  0  0  0
    3.9000    1.8350   -0.2020 N   0  0  0  0  0  0  0  0  0  0  0  0
    4.8120    2.9410    0.0020 C   0  0  0  0  0  0  0  0  0  0  0  0
    2.4760    1.8800   -0.3050 C   0  0  0  0  0  0  0  0  0  0  0  0
    1.7830    2.9120   -0.2320 O   0  0  0  0  0  0  0  0  0  0  0  0
   -2.2500   -0.5400    0.3940 C   0  0  0  0  0  0  0  0  0  0  0  0
   -2.5620    0.6730    0.7760 C   0  0  0  0  0  0  0  0  0  0  0  0
   -2.8070    1.9340    0.0940 C   0  0  2  0  0  0  0  0  0  0  0  0
   -4.0770    2.4560    0.3930 F   0  0  0  0  0  0  0  0  0  0  0  0
   -2.5790    2.0400   -1.6160 Cl  0  0  0  0  0  0  0  0  0  0  0  0
   -2.6500    0.6030    2.2980 C   0  0  0  0  0  0  0  0  0  0  0  0
   -1.7060   -0.4620    2.5830 N   0  0  0  0  0  0  0  0  0  0  0  0
   -2.1710   -1.4540    1.6030 C   0  0  0  0  0  0  0  0  0  0  0  0
  2  1  1  1
  2  3  1  0
  2 17  1  0
  3  4  1  0
  4  5  2  0
  4  9  1  0
  5  6  1  0
  6  7  2  0
  6 15  1  0
  7  8  1  0
  7 11  1  0
  8  9  2  0
  9 10  1  0
 11 12  2  0
 11 13  1  0
 13 14  1  0
 13 15  1  0
 15 16  2  0
 17 18  2  0
 17 24  1  0
 18 19  1  0
 18 22  1  0
 19 20  1  6
 19 21  1  0
 22 23  1  0
 23 24  1  0
M  END
