
     RDKit          3D

 24 26  0  0  0  0  0  0  0  0999 V2000
    2.3240   -2.0200    1.1490 O   0  0  0  0  0  0  0  0  0  0  0  0
    1.9050   -1.1150    0.4000 C   0  0  0  0  0  0  0  0  0  0  0  0
    2.8200   -0.2690   -0.2550 N   0  0  0  0  0  0  0  0  0  0  0  0
    4.2180   -0.3100   -0.1790 C   0  0  0  0  0  0  0  0  0  0  0  0
    4.9760    0.7140   -0.7750 C   0  0  0  0  0  0  0  0  0  0  0  0
    6.3340    0.7190   -0.7390 C   0  0  0  0  0  0  0  0  0  0  0  0
    7.0080   -0.3100   -0.0990 C   0  0  0  0  0  0  0  0  0  0  0  0
    6.3130   -1.2910    0.4720 N   0  0  0  0  0  0  0  0  0  0  0  0
    4.9460   -1.2880    0.4310 C   0  0  0  0  0  0  0  0  0  0  0  0
    0.4300   -0.9500    0.2150 C   0  0  1  0  0  0  0  0  0  0  0  0
   -0.2910   -0.6780    1.5150 C   0  0  0  0  0  0  0  0  0  0  0  0
   -1.7240   -0.7800    1.1860 N   0  0  0  0  0  0  0  0  0  0  0  0
   -2.1700   -0.0030    0.0810 C   0  0  0  0  0  0  0  0  0  0  0  0
   -1.2240    0.4250   -0.8160 C   0  0  0  0  0  0  0  0  0  0  0  0
   -1.6420    1.1840   -1.8960 C   0  0  0  0  0  0  0  0  0  0  0  0
   -2.9600    1.5130   -2.0860 C   0  0  0  0  0  0  0  0  0  0  0  0
   -3.9020    1.0760   -1.1750 C   0  0  0  0  0  0  0  0  0  0  0  0
   -5.5520    1.5410   -1.4560 Cl  0  0  0  0  0  0  0  0  0  0  0  0
   -3.5410    0.3200   -0.0880 C   0  0  0  0  0  0  0  0  0  0  0  0
   -4.4270   -0.2020    0.9380 C   0  0  0  0  0  0  0  0  0  0  0  0
   -5.8900   -0.1230    0.7340 C   0  0  1  0  0  0  0  0  0  0  0  0
   -6.3480   -0.8030   -0.3840 F   0  0  0  0  0  0  0  0  0  0  0  0
   -6.6870   -0.9830    2.1220 Cl  0  0  0  0  0  0  0  0  0  0  0  0
    0.1390    0.1140   -0.6630 O   0  0  0  0  0  0  0  0  0  0  0  0
  1  2  2  0
  2  3  1  0
 10  2  1  1
  3  4  1  0
  4  5  2  0
  4  9  1  0
  5  6  1  0
  6  7  2  0
  7  8  1  0
  8  9  2  0
 10 11  1  0
 10 24  1  0
 11 12  1  0
 12 13  1  0
 13 14  2  0
 13 19  1  0
 14 15  1  0
 14 24  1  0
 15 16  2  0
 16 17  1  0
 17 18  1  0
 17 19  2  0
 19 20  1  0
 20 21  1  0
 21 22  1  6
 21 23  1  0
M  END
