
     RDKit          3D

 18 18  0  0  0  0  0  0  0  0999 V2000
   -3.2540   -1.2990   -1.5390 C   0  0  0  0  0  0  0  0  0  0  0  0
   -2.1570   -0.7630   -0.6220 C   0  0  2  0  0  0  0  0  0  0  0  0
   -1.6220   -1.9930    0.1250 C   0  0  0  0  0  0  0  0  0  0  0  0
   -1.1400   -2.8590   -0.8560 O   0  0  0  0  0  0  0  0  0  0  0  0
   -2.8210    0.1070    0.3930 C   0  0  0  0  0  0  0  0  0  0  0  0
   -1.8570    0.8670    1.2530 C   0  0  2  0  0  0  0  0  0  0  0  0
   -2.6570    1.8230    2.0380 N   0  0  0  0  0  0  0  0  0  0  0  0
   -3.5360    1.1270    2.7810 O   0  0  0  0  0  0  0  0  0  0  0  0
   -0.9380    1.6460    0.3990 C   0  0  0  0  0  0  0  0  0  0  0  0
   -0.2560    0.8970   -0.6930 C   0  0  1  0  0  0  0  0  0  0  0  0
    0.9290    0.3060   -0.1860 O   0  0  0  0  0  0  0  0  0  0  0  0
    2.1940    0.6590   -0.6230 C   0  0  0  0  0  0  0  0  0  0  0  0
    2.3370    1.5360   -1.5060 O   0  0  0  0  0  0  0  0  0  0  0  0
    3.3560    0.0500   -0.0960 N   0  0  0  0  0  0  0  0  0  0  0  0
    4.6480    0.4600   -0.5920 C   0  0  0  0  0  0  0  0  0  0  0  0
    5.7020   -0.3360    0.1280 C   0  0  0  0  0  0  0  0  0  0  0  0
    5.5950   -0.0750    1.4880 O   0  0  0  0  0  0  0  0  0  0  0  0
   -1.0510   -0.1470   -1.3810 C   0  0  0  0  0  0  0  0  0  0  0  0
  2  1  1  6
  2  3  1  0
  2  5  1  0
  2 18  1  0
  3  4  1  0
  5  6  1  0
  6  7  1  1
  6  9  1  0
  7  8  1  0
  9 10  1  0
 10 11  1  1
 10 18  1  0
 11 12  1  0
 12 13  2  0
 12 14  1  0
 14 15  1  0
 15 16  1  0
 16 17  1  0
M  END
