
     RDKit          3D

 18 18  0  0  0  0  0  0  0  0999 V2000
    5.6060    0.2240   -0.8330 C   0  0  0  0  0  0  0  0  0  0  0  0
    4.8960    0.9830    0.2520 C   0  0  0  0  0  0  0  0  0  0  0  0
    3.6980    0.3900    0.6800 O   0  0  0  0  0  0  0  0  0  0  0  0
    2.6170    0.1530   -0.1270 C   0  0  0  0  0  0  0  0  0  0  0  0
    2.7030    0.4880   -1.3380 O   0  0  0  0  0  0  0  0  0  0  0  0
    1.3340   -0.4750    0.3140 C   0  0  2  0  0  0  0  0  0  0  0  0
    1.4040   -0.8690    1.7130 N   0  0  0  0  0  0  0  0  0  0  0  0
    1.0970   -1.7280   -0.4930 C   0  0  0  0  0  0  0  0  0  0  0  0
    2.2060   -2.5590   -0.2310 O   0  0  0  0  0  0  0  0  0  0  0  0
    0.1940    0.4940    0.1860 C   0  0  0  0  0  0  0  0  0  0  0  0
   -1.0800   -0.1320    0.6320 C   0  0  0  0  0  0  0  0  0  0  0  0
   -2.2130    0.7750    0.5440 N   0  0  0  0  0  0  0  0  0  0  0  0
   -2.5680    1.0940   -0.8180 C   0  0  0  0  0  0  0  0  0  0  0  0
   -4.1010    1.0660   -0.8500 C   0  0  1  0  0  0  0  0  0  0  0  0
   -4.5980    0.8640   -2.1220 O   0  0  0  0  0  0  0  0  0  0  0  0
   -4.3280   -0.1540    0.0400 C   0  0  2  0  0  0  0  0  0  0  0  0
   -5.6290   -0.2440    0.4870 O   0  0  0  0  0  0  0  0  0  0  0  0
   -3.3440    0.1270    1.1550 C   0  0  0  0  0  0  0  0  0  0  0  0
  1  2  1  0
  2  3  1  0
  3  4  1  0
  4  5  2  0
  4  6  1  0
  6  7  1  1
  6  8  1  0
  6 10  1  0
  8  9  1  0
 10 11  1  0
 11 12  1  0
 12 13  1  0
 12 18  1  0
 13 14  1  0
 14 15  1  6
 14 16  1  0
 16 17  1  1
 16 18  1  0
M  END
