
     RDKit          3D

 18 18  0  0  0  0  0  0  0  0999 V2000
    5.1940    1.4070   -0.5020 C   0  0  0  0  0  0  0  0  0  0  0  0
    5.0680   -0.0850   -0.5330 C   0  0  0  0  0  0  0  0  0  0  0  0
    3.8420   -0.5010    0.2030 C   0  0  0  0  0  0  0  0  0  0  0  0
    2.5720    0.0510   -0.3520 C   0  0  0  0  0  0  0  0  0  0  0  0
    1.4350   -0.4420    0.4760 C   0  0  0  0  0  0  0  0  0  0  0  0
    1.6700   -1.2010    1.4620 O   0  0  0  0  0  0  0  0  0  0  0  0
    0.0920   -0.1140    0.2300 N   0  0  0  0  0  0  0  0  0  0  0  0
   -0.9560   -0.6290    1.0740 C   0  0  1  0  0  0  0  0  0  0  0  0
   -1.6750    0.4600    1.7810 C   0  0  0  0  0  0  0  0  0  0  0  0
   -1.2400    0.8680    2.9290 N   0  0  0  0  0  0  0  0  0  0  0  0
   -2.7850    0.9940    1.1780 O   0  0  0  0  0  0  0  0  0  0  0  0
   -3.0920    0.6620   -0.1700 C   0  0  2  0  0  0  0  0  0  0  0  0
   -4.4910    1.1610   -0.4320 C   0  0  0  0  0  0  0  0  0  0  0  0
   -4.9160    0.9000   -1.7240 O   0  0  0  0  0  0  0  0  0  0  0  0
   -2.9460   -0.7880   -0.4600 C   0  0  1  0  0  0  0  0  0  0  0  0
   -2.6250   -0.9140   -1.8300 O   0  0  0  0  0  0  0  0  0  0  0  0
   -1.9280   -1.5070    0.3360 C   0  0  2  0  0  0  0  0  0  0  0  0
   -2.5650   -2.3140    1.2780 O   0  0  0  0  0  0  0  0  0  0  0  0
  1  2  1  0
  2  3  1  0
  3  4  1  0
  4  5  1  0
  5  6  2  0
  5  7  1  0
  8  7  1  6
  8  9  1  0
  8 17  1  0
  9 10  2  0
  9 11  1  0
 11 12  1  0
 12 13  1  1
 12 15  1  0
 13 14  1  0
 15 16  1  6
 15 17  1  0
 17 18  1  1
M  END
