
     RDKit          3D

 18 18  0  0  0  0  0  0  0  0999 V2000
    0.3850   -0.1710   -1.2160 O   0  0  0  0  0  0  0  0  0  0  0  0
    0.3970    0.3850   -0.1170 C   0  0  0  0  0  0  0  0  0  0  0  0
   -0.7170    1.0470    0.3990 N   0  0  0  0  0  0  0  0  0  0  0  0
   -2.0210    1.1620   -0.1770 C   0  0  0  0  0  0  0  0  0  0  0  0
   -2.8610   -0.0310   -0.2810 C   0  0  2  0  0  0  0  0  0  0  0  0
   -3.1310   -0.5870    0.9880 O   0  0  0  0  0  0  0  0  0  0  0  0
   -2.3670   -1.1020   -1.1820 C   0  0  0  0  0  0  0  0  0  0  0  0
   -3.4110   -2.0770   -1.3870 O   0  0  0  0  0  0  0  0  0  0  0  0
   -4.2690    0.3460   -0.8180 C   0  0  0  0  0  0  0  0  0  0  0  0
   -4.9620    1.3140    0.0810 C   0  0  0  0  0  0  0  0  0  0  0  0
   -5.1070    0.7490    1.3490 O   0  0  0  0  0  0  0  0  0  0  0  0
    1.6520    0.2820    0.5650 N   0  0  0  0  0  0  0  0  0  0  0  0
    2.7930   -0.3760    0.0770 C   0  0  1  0  0  0  0  0  0  0  0  0
    3.8650    0.6740   -0.2000 C   0  0  0  0  0  0  0  0  0  0  0  0
    5.1400    0.1440    0.4150 C   0  0  0  0  0  0  0  0  0  0  0  0
    4.5720   -0.6450    1.6040 C   0  0  2  0  0  0  0  0  0  0  0  0
    5.5090   -1.5290    2.1100 O   0  0  0  0  0  0  0  0  0  0  0  0
    3.4600   -1.3980    0.8740 C   0  0  0  0  0  0  0  0  0  0  0  0
  1  2  2  0
  2  3  1  0
  2 12  1  0
  3  4  1  0
  4  5  1  0
  5  6  1  1
  5  7  1  0
  5  9  1  0
  7  8  1  0
  9 10  1  0
 10 11  1  0
 13 12  1  1
 13 14  1  0
 13 18  1  0
 14 15  1  0
 15 16  1  0
 16 17  1  6
 16 18  1  0
M  END
