
     RDKit          3D

 41 44  0  0  0  0  0  0  0  0999 V2000
   -0.6870   -3.0650   -4.4320 C   0  0  0  0  0  0  0  0  0  0  0  0
   -1.2390   -1.6630   -4.3400 C   0  0  2  0  0  0  0  0  0  0  0  0
   -0.0600   -0.7410   -4.0310 C   0  0  0  0  0  0  0  0  0  0  0  0
    0.3280   -0.8710   -2.6560 N   0  0  0  0  0  0  0  0  0  0  0  0
    1.6470   -0.9210   -2.2360 C   0  0  0  0  0  0  0  0  0  0  0  0
    1.8610   -1.1090   -0.9760 O   0  0  0  0  0  0  0  0  0  0  0  0
    2.8210   -0.7790   -3.0670 C   0  0  0  0  0  0  0  0  0  0  0  0
    3.7830   -1.9060   -2.8940 C   0  0  0  0  0  0  0  0  0  0  0  0
    4.2790   -2.0980   -1.5210 C   0  0  0  0  0  0  0  0  0  0  0  0
    4.9830   -0.9550   -0.9150 C   0  0  0  0  0  0  0  0  0  0  0  0
    5.1080    0.1830   -1.4080 O   0  0  0  0  0  0  0  0  0  0  0  0
    5.5660   -1.1670    0.3280 O   0  0  0  0  0  0  0  0  0  0  0  0
    6.2390   -0.1720    0.9800 C   0  0  0  0  0  0  0  0  0  0  0  0
    7.3370    0.4980    0.5310 C   0  0  0  0  0  0  0  0  0  0  0  0
    7.9840    1.5060    1.2610 C   0  0  0  0  0  0  0  0  0  0  0  0
    7.5250    1.8640    2.4820 C   0  0  0  0  0  0  0  0  0  0  0  0
    8.1020    2.8300    3.2510 O   0  0  0  0  0  0  0  0  0  0  0  0
    9.2080    3.6030    3.0160 C   0  0  0  0  0  0  0  0  0  0  0  0
   10.5240    2.9250    2.8730 C   0  0  0  0  0  0  0  0  0  0  0  0
   10.8240    2.2170    4.0550 O   0  0  0  0  0  0  0  0  0  0  0  0
    6.3820    1.1870    2.9720 C   0  0  0  0  0  0  0  0  0  0  0  0
    5.7690    0.2120    2.2480 C   0  0  0  0  0  0  0  0  0  0  0  0
   -0.7560   -0.9360   -1.6960 C   0  0  0  0  0  0  0  0  0  0  0  0
   -2.0240   -0.5530   -2.4890 C   0  0  2  0  0  0  0  0  0  0  0  0
   -3.1440   -0.3380   -1.5600 C   0  0  0  0  0  0  0  0  0  0  0  0
   -3.7810    0.8180   -1.2710 C   0  0  0  0  0  0  0  0  0  0  0  0
   -4.7760    0.7910   -0.3530 C   0  0  0  0  0  0  0  0  0  0  0  0
   -5.0950   -0.3890    0.2370 C   0  0  0  0  0  0  0  0  0  0  0  0
   -6.0750   -0.8020    1.2180 C   0  0  0  0  0  0  0  0  0  0  0  0
   -6.1060   -1.9770    1.6400 O   0  0  0  0  0  0  0  0  0  0  0  0
   -7.0470    0.1800    1.7130 C   0  0  1  0  0  0  0  0  0  0  0  0
   -7.9930    0.5310    0.5730 C   0  0  0  0  0  0  0  0  0  0  0  0
   -8.9130    1.5550    0.9460 N   0  0  0  0  0  0  0  0  0  0  0  0
   -9.8060    1.6350    2.0660 C   0  0  0  0  0  0  0  0  0  0  0  0
  -10.6810    2.5140    2.0430 O   0  0  0  0  0  0  0  0  0  0  0  0
   -9.7600    0.7360    3.2510 C   0  0  0  0  0  0  0  0  0  0  0  0
   -8.4290    0.6370    3.6220 O   0  0  0  0  0  0  0  0  0  0  0  0
   -7.8110   -0.3740    2.8760 C   0  0  2  0  0  0  0  0  0  0  0  0
   -6.8430   -1.0680    3.8130 C   0  0  0  0  0  0  0  0  0  0  0  0
   -3.9100   -1.5260   -0.5570 S   0  0  0  0  0  0  0  0  0  0  0  0
   -2.2390   -1.5500   -3.4040 O   0  0  0  0  0  0  0  0  0  0  0  0
  2  1  1  1
  2  3  1  0
  2 41  1  0
  3  4  1  0
  4  5  1  0
  4 23  1  0
  5  6  2  0
  5  7  1  0
  7  8  1  0
  8  9  1  0
  9 10  1  0
 10 11  2  0
 10 12  1  0
 12 13  1  0
 13 14  2  0
 13 22  1  0
 14 15  1  0
 15 16  2  0
 16 17  1  0
 16 21  1  0
 17 18  1  0
 18 19  1  0
 19 20  1  0
 21 22  2  0
 23 24  1  0
 24 25  1  1
 24 41  1  0
 25 26  2  0
 25 40  1  0
 26 27  1  0
 27 28  2  0
 28 29  1  0
 28 40  1  0
 29 30  2  0
 31 29  1  6
 31 32  1  0
 31 38  1  0
 32 33  1  0
 33 34  1  0
 34 35  2  0
 34 36  1  0
 36 37  1  0
 37 38  1  0
 38 39  1  1
M  END
