
     RDKit          3D

 41 44  0  0  0  0  0  0  0  0999 V2000
   11.0680    2.1520   -1.7280 C   0  0  0  0  0  0  0  0  0  0  0  0
   10.2060    2.9810   -1.0750 O   0  0  0  0  0  0  0  0  0  0  0  0
    8.9000    2.5570   -0.9520 C   0  0  0  0  0  0  0  0  0  0  0  0
    8.8390    1.2800   -0.1940 C   0  0  1  0  0  0  0  0  0  0  0  0
    9.3890    1.4570    1.0680 O   0  0  0  0  0  0  0  0  0  0  0  0
    7.4530    0.7260   -0.1080 C   0  0  0  0  0  0  0  0  0  0  0  0
    6.3700    1.1270   -0.5410 N   0  0  0  0  0  0  0  0  0  0  0  0
    5.1830    0.4470   -0.3440 C   0  0  1  0  0  0  0  0  0  0  0  0
    4.4860    0.2950   -1.6830 C   0  0  0  0  0  0  0  0  0  0  0  0
    3.0900   -0.1300   -1.4200 C   0  0  0  0  0  0  0  0  0  0  0  0
    2.1810    0.6410   -1.8220 O   0  0  0  0  0  0  0  0  0  0  0  0
    2.5990   -1.3150   -0.7590 N   0  0  0  0  0  0  0  0  0  0  0  0
    3.1320   -2.0830    0.2910 C   0  0  2  0  0  0  0  0  0  0  0  0
    2.3630   -2.2170    1.5700 C   0  0  0  0  0  0  0  0  0  0  0  0
    2.0540   -1.0070    2.3370 C   0  0  0  0  0  0  0  0  0  0  0  0
    1.1890    0.0560    1.8430 C   0  0  0  0  0  0  0  0  0  0  0  0
   -0.2310   -0.1590    1.5600 C   0  0  2  0  0  0  0  0  0  0  0  0
   -1.0600   -0.6200    2.7310 C   0  0  0  0  0  0  0  0  0  0  0  0
   -0.5860   -0.9360    0.3370 C   0  0  0  0  0  0  0  0  0  0  0  0
   -2.0760   -1.0330    0.2260 C   0  0  0  0  0  0  0  0  0  0  0  0
   -2.6550   -2.2190    0.2220 C   0  0  0  0  0  0  0  0  0  0  0  0
   -4.1010   -2.3270    0.1150 C   0  0  0  0  0  0  0  0  0  0  0  0
   -4.6570   -3.4570    0.1100 O   0  0  0  0  0  0  0  0  0  0  0  0
   -4.8860   -1.2060    0.0190 O   0  0  0  0  0  0  0  0  0  0  0  0
   -6.2930   -1.2870   -0.0860 C   0  0  0  0  0  0  0  0  0  0  0  0
   -6.8320    0.0900   -0.1700 C   0  0  0  0  0  0  0  0  0  0  0  0
   -5.9960    1.1680   -0.1380 C   0  0  0  0  0  0  0  0  0  0  0  0
   -6.4960    2.4400   -0.2130 C   0  0  0  0  0  0  0  0  0  0  0  0
   -7.8500    2.6350   -0.3220 C   0  0  0  0  0  0  0  0  0  0  0  0
   -8.6980    1.5520   -0.3550 C   0  0  0  0  0  0  0  0  0  0  0  0
   -8.2050    0.2640   -0.2800 C   0  0  0  0  0  0  0  0  0  0  0  0
   -9.0040   -0.8490   -0.3080 O   0  0  0  0  0  0  0  0  0  0  0  0
   -9.3400   -1.4740   -1.5010 C   0  0  0  0  0  0  0  0  0  0  0  0
  -10.2010   -2.6770   -1.5670 C   0  0  0  0  0  0  0  0  0  0  0  0
   -8.8710   -0.9650   -2.5620 O   0  0  0  0  0  0  0  0  0  0  0  0
   -8.0720    3.9880   -0.3790 O   0  0  0  0  0  0  0  0  0  0  0  0
   -6.8420    4.6200   -0.6790 C   0  0  0  0  0  0  0  0  0  0  0  0
   -5.8890    3.6930   -0.2040 O   0  0  0  0  0  0  0  0  0  0  0  0
    4.5860   -1.8360    0.5610 C   0  0  0  0  0  0  0  0  0  0  0  0
    5.3880   -0.8540    0.3170 C   0  0  0  0  0  0  0  0  0  0  0  0
    7.1100   -0.8160    0.7550 S   0  0  0  0  0  0  0  0  0  0  0  0
  1  2  1  0
  2  3  1  0
  3  4  1  0
  4  5  1  1
  4  6  1  0
  6  7  2  0
  6 41  1  0
  7  8  1  0
  8  9  1  6
  8 40  1  0
  9 10  1  0
 10 11  2  0
 10 12  1  0
 12 13  1  0
 13 14  1  1
 13 39  1  0
 14 15  1  0
 15 16  1  0
 16 17  1  0
 17 18  1  1
 17 19  1  0
 19 20  1  0
 20 21  2  3
 21 22  1  0
 22 23  2  0
 22 24  1  0
 24 25  1  0
 25 26  1  0
 26 27  2  0
 26 31  1  0
 27 28  1  0
 28 29  2  0
 28 38  1  0
 29 30  1  0
 29 36  1  0
 30 31  2  0
 31 32  1  0
 32 33  1  0
 33 34  1  0
 33 35  2  0
 36 37  1  0
 37 38  1  0
 39 40  2  0
 40 41  1  0
M  END
