
     RDKit          3D

 33 34  0  0  0  0  0  0  0  0999 V2000
    1.7240   -5.0150    2.8260 C   0  0  0  0  0  0  0  0  0  0  0  0
    1.7800   -3.8350    2.0340 O   0  0  0  0  0  0  0  0  0  0  0  0
    0.6400   -3.2030    1.5520 C   0  0  0  0  0  0  0  0  0  0  0  0
   -0.4740   -3.6860    1.8230 O   0  0  0  0  0  0  0  0  0  0  0  0
    0.8100   -1.9760    0.7340 C   0  0  1  0  0  0  0  0  0  0  0  0
    2.1250   -1.6330    0.5680 O   0  0  0  0  0  0  0  0  0  0  0  0
    2.2610   -0.6270   -0.3460 C   0  0  2  0  0  0  0  0  0  0  0  0
    3.4510    0.2090    0.0650 C   0  0  0  0  0  0  0  0  0  0  0  0
    4.0490   -0.1540    1.0980 O   0  0  0  0  0  0  0  0  0  0  0  0
    3.8730    1.2780   -0.6040 O   0  0  0  0  0  0  0  0  0  0  0  0
    4.8780    2.1820   -0.4720 C   0  0  0  0  0  0  0  0  0  0  0  0
    4.9740    2.9960    0.7710 C   0  0  0  0  0  0  0  0  0  0  0  0
    5.1960    2.3090    1.9260 O   0  0  0  0  0  0  0  0  0  0  0  0
    6.4960    1.7890    1.8870 C   0  0  1  0  0  0  0  0  0  0  0  0
    7.2150    2.5760    2.8440 O   0  0  0  0  0  0  0  0  0  0  0  0
    6.6040    0.5020    2.3280 O   0  0  0  0  0  0  0  0  0  0  0  0
    1.0280    0.2180   -0.5100 C   0  0  0  0  0  0  0  0  0  0  0  0
   -0.0550   -0.6160   -1.0890 C   0  0  2  0  0  0  0  0  0  0  0  0
   -1.3500   -0.2610   -0.6950 O   0  0  0  0  0  0  0  0  0  0  0  0
   -2.3510    0.0430   -1.6130 C   0  0  0  0  0  0  0  0  0  0  0  0
   -2.0000   -0.0280   -2.8190 O   0  0  0  0  0  0  0  0  0  0  0  0
   -3.7090    0.4150   -1.1700 C   0  0  1  0  0  0  0  0  0  0  0  0
   -4.5160    0.6680   -2.2590 O   0  0  0  0  0  0  0  0  0  0  0  0
   -4.2800   -0.6710   -0.2810 C   0  0  0  0  0  0  0  0  0  0  0  0
   -5.6990   -0.3820    0.0960 C   0  0  2  0  0  0  0  0  0  0  0  0
   -6.5420   -0.4060   -0.9950 O   0  0  0  0  0  0  0  0  0  0  0  0
   -5.7710    0.9400    0.8280 C   0  0  2  0  0  0  0  0  0  0  0  0
   -7.1210    1.2740    0.9510 O   0  0  0  0  0  0  0  0  0  0  0  0
   -5.0830    2.0460    0.0720 C   0  0  0  0  0  0  0  0  0  0  0  0
   -3.6770    1.6880   -0.3250 C   0  0  2  0  0  0  0  0  0  0  0  0
   -3.1520    2.7490   -1.0420 O   0  0  0  0  0  0  0  0  0  0  0  0
    0.1480   -2.0560   -0.6030 C   0  0  1  0  0  0  0  0  0  0  0  0
    0.8680   -2.7920   -1.5360 O   0  0  0  0  0  0  0  0  0  0  0  0
  1  2  1  0
  2  3  1  0
  3  4  2  0
  5  3  1  6
  5  6  1  0
  5 32  1  0
  6  7  1  0
  7  8  1  1
  7 17  1  0
  8  9  2  0
  8 10  1  0
 10 11  1  0
 11 12  1  0
 12 13  1  0
 13 14  1  0
 14 15  1  1
 14 16  1  0
 17 18  1  0
 18 19  1  1
 18 32  1  0
 19 20  1  0
 20 21  2  0
 20 22  1  0
 22 23  1  6
 22 24  1  0
 22 30  1  0
 24 25  1  0
 25 26  1  6
 25 27  1  0
 27 28  1  6
 27 29  1  0
 29 30  1  0
 30 31  1  6
 32 33  1  6
M  END
