
     RDKit          3D

 35 37  0  0  0  0  0  0  0  0999 V2000
   -7.9000    1.8900    1.6050 C   0  0  0  0  0  0  0  0  0  0  0  0
   -7.3040    1.7550    0.4330 C   0  0  0  0  0  0  0  0  0  0  0  0
   -5.8550    1.7370    0.3570 C   0  0  0  0  0  0  0  0  0  0  0  0
   -5.2640    1.6030   -0.7960 C   0  0  0  0  0  0  0  0  0  0  0  0
   -5.0620    1.8900    1.5950 C   0  0  2  0  0  0  0  0  0  0  0  0
   -5.3290    3.1680    2.1480 O   0  0  0  0  0  0  0  0  0  0  0  0
   -3.5710    1.7340    1.3830 C   0  0  0  0  0  0  0  0  0  0  0  0
   -3.3220    0.4110    0.8580 N   0  0  0  0  0  0  0  0  0  0  0  0
   -2.0500   -0.0910    0.5390 C   0  0  0  0  0  0  0  0  0  0  0  0
   -1.0470    0.6420    0.7130 O   0  0  0  0  0  0  0  0  0  0  0  0
   -1.8050   -1.4640   -0.0050 C   0  0  2  0  0  0  0  0  0  0  0  0
   -0.4600   -1.7140   -0.2370 O   0  0  0  0  0  0  0  0  0  0  0  0
    0.2780   -2.7610    0.2600 C   0  0  0  0  0  0  0  0  0  0  0  0
   -0.3140   -3.5850    1.0030 O   0  0  0  0  0  0  0  0  0  0  0  0
    1.6860   -2.9730   -0.0180 C   0  0  0  0  0  0  0  0  0  0  0  0
    2.3600   -4.0440    0.5150 C   0  0  0  0  0  0  0  0  0  0  0  0
    3.7190   -4.2050    0.2180 C   0  0  0  0  0  0  0  0  0  0  0  0
    4.3870   -3.3090   -0.5980 C   0  0  0  0  0  0  0  0  0  0  0  0
    3.6980   -2.2310   -1.1310 C   0  0  0  0  0  0  0  0  0  0  0  0
    2.3690   -2.0780   -0.8370 C   0  0  0  0  0  0  0  0  0  0  0  0
    1.6510   -1.0330   -1.3400 O   0  0  0  0  0  0  0  0  0  0  0  0
    2.2210   -0.0500   -2.1760 C   0  0  0  0  0  0  0  0  0  0  0  0
    3.3110    0.7170   -1.5580 C   0  0  0  0  0  0  0  0  0  0  0  0
    4.1510    1.4600   -2.3460 C   0  0  0  0  0  0  0  0  0  0  0  0
    5.1650    2.1850   -1.7650 C   0  0  0  0  0  0  0  0  0  0  0  0
    5.3920    2.2050   -0.3780 C   0  0  0  0  0  0  0  0  0  0  0  0
    4.5700    1.4780    0.3900 C   0  0  0  0  0  0  0  0  0  0  0  0
    3.5310    0.7350   -0.2000 C   0  0  0  0  0  0  0  0  0  0  0  0
    4.8260    1.5150    1.8210 C   0  0  0  0  0  0  0  0  0  0  0  0
    4.3260    0.8140    2.8010 C   0  0  0  0  0  0  0  0  0  0  0  0
    6.0560    2.8120    1.9980 S   0  0  0  0  0  0  0  0  0  0  0  0
    6.4140    2.9270    0.2720 N   0  0  0  0  0  0  0  0  0  0  0  0
   -2.5350   -1.5290   -1.2910 C   0  0  0  0  0  0  0  0  0  0  0  0
   -1.8070   -1.8140   -2.4730 N   0  0  0  0  0  0  0  0  0  0  0  0
   -3.7740   -1.3440   -1.4030 O   0  0  0  0  0  0  0  0  0  0  0  0
  1  2  2  0
  2  3  1  0
  3  4  2  0
  3  5  1  0
  5  6  1  6
  5  7  1  0
  7  8  1  0
  8  9  1  0
  9 10  2  0
  9 11  1  0
 11 12  1  6
 11 33  1  0
 12 13  1  0
 13 14  2  0
 13 15  1  0
 15 16  2  0
 15 20  1  0
 16 17  1  0
 17 18  2  0
 18 19  1  0
 19 20  2  0
 20 21  1  0
 21 22  1  0
 22 23  1  0
 23 24  2  0
 23 28  1  0
 24 25  1  0
 25 26  2  0
 26 27  1  0
 26 32  1  0
 27 28  2  0
 27 29  1  0
 29 30  2  0
 29 31  1  0
 31 32  1  0
 33 34  1  0
 33 35  2  0
M  END
