
     RDKit          3D

 33 33  0  0  0  0  0  0  0  0999 V2000
    1.6010   -3.6190   -1.7520 C   0  0  0  0  0  0  0  0  0  0  0  0
    1.8880   -2.3060   -1.3990 O   0  0  0  0  0  0  0  0  0  0  0  0
    0.7340   -1.5660   -1.2260 C   0  0  0  0  0  0  0  0  0  0  0  0
   -0.1380   -1.9330   -0.0790 C   0  0  2  0  0  0  0  0  0  0  0  0
   -1.4020   -1.1110   -0.0020 C   0  0  0  0  0  0  0  0  0  0  0  0
   -1.3700    0.2530   -0.5300 C   0  0  1  0  0  0  0  0  0  0  0  0
   -2.6550    0.9750   -0.1990 C   0  0  0  0  0  0  0  0  0  0  0  0
   -3.8820    0.3330   -0.7710 C   0  0  2  0  0  0  0  0  0  0  0  0
   -3.8010    0.2350   -2.1710 O   0  0  0  0  0  0  0  0  0  0  0  0
   -5.0980    1.2880   -0.5860 C   0  0  0  0  0  0  0  0  0  0  0  0
   -6.2400    0.7230   -1.1400 O   0  0  0  0  0  0  0  0  0  0  0  0
   -4.2400   -0.8380   -0.1440 O   0  0  0  0  0  0  0  0  0  0  0  0
   -4.5600   -0.8930    1.1920 C   0  0  0  0  0  0  0  0  0  0  0  0
   -4.5510    0.1100    1.9520 O   0  0  0  0  0  0  0  0  0  0  0  0
   -4.9250   -2.0900    1.8180 O   0  0  0  0  0  0  0  0  0  0  0  0
   -0.2780    1.0270   -0.1300 O   0  0  0  0  0  0  0  0  0  0  0  0
   -0.4570    2.3660   -0.3570 C   0  0  0  0  0  0  0  0  0  0  0  0
    0.8320    3.1320   -0.2460 C   0  0  2  0  0  0  0  0  0  0  0  0
    0.4820    4.4830   -0.5070 O   0  0  0  0  0  0  0  0  0  0  0  0
    1.8760    2.7600   -1.2400 C   0  0  1  0  0  0  0  0  0  0  0  0
    1.9200    3.6940   -2.3030 O   0  0  0  0  0  0  0  0  0  0  0  0
    3.1750    2.8150   -0.6840 O   0  0  0  0  0  0  0  0  0  0  0  0
    3.3060    2.0130    0.4220 C   0  0  2  0  0  0  0  0  0  0  0  0
    3.5810    2.7430    1.5710 O   0  0  0  0  0  0  0  0  0  0  0  0
    4.2860    0.8650    0.2380 C   0  0  2  0  0  0  0  0  0  0  0  0
    4.4070    0.5700   -1.1160 O   0  0  0  0  0  0  0  0  0  0  0  0
    3.7670   -0.3690    0.9960 C   0  0  0  0  0  0  0  0  0  0  0  0
    2.5130   -0.7160    0.5610 O   0  0  0  0  0  0  0  0  0  0  0  0
    1.5710   -0.9300    1.5440 C   0  0  0  0  0  0  0  0  0  0  0  0
    0.5580   -1.9740    1.2680 C   0  0  1  0  0  0  0  0  0  0  0  0
   -0.4420   -1.7700    2.2780 O   0  0  0  0  0  0  0  0  0  0  0  0
    1.1470   -3.3070    1.6230 C   0  0  0  0  0  0  0  0  0  0  0  0
    0.2040   -4.3320    1.6060 O   0  0  0  0  0  0  0  0  0  0  0  0
  1  2  1  0
  2  3  1  0
  4  3  1  6
  4  5  1  0
  4 30  1  0
  5  6  1  0
  6  7  1  1
  6 16  1  0
  7  8  1  0
  8  9  1  6
  8 10  1  0
  8 12  1  0
 10 11  1  0
 12 13  1  0
 13 14  2  0
 13 15  1  0
 16 17  1  0
 17 18  1  0
 18 19  1  6
 18 20  1  0
 20 21  1  6
 20 22  1  0
 22 23  1  0
 23 24  1  1
 23 25  1  0
 25 26  1  6
 25 27  1  0
 27 28  1  0
 28 29  1  0
 29 30  1  0
 30 31  1  1
 30 32  1  0
 32 33  1  0
M  END
