
     RDKit          3D

 33 34  0  0  0  0  0  0  0  0999 V2000
    3.6090    0.8220    1.3310 O   0  0  0  0  0  0  0  0  0  0  0  0
    3.5100    1.0000    0.0940 C   0  0  0  0  0  0  0  0  0  0  0  0
    2.3960    0.5880   -0.5310 O   0  0  0  0  0  0  0  0  0  0  0  0
    1.2500   -0.0430   -0.1140 C   0  0  0  0  0  0  0  0  0  0  0  0
    1.4450   -1.4280    0.3530 C   0  0  1  0  0  0  0  0  0  0  0  0
    2.0760   -2.1430   -0.7050 O   0  0  0  0  0  0  0  0  0  0  0  0
    2.1650   -1.6960    1.6060 C   0  0  0  0  0  0  0  0  0  0  0  0
    1.6350   -3.0110    2.2210 C   0  0  0  0  0  0  0  0  0  0  0  0
    1.3880   -3.9660    1.2770 O   0  0  0  0  0  0  0  0  0  0  0  0
    0.4510   -3.6330    0.3380 C   0  0  0  0  0  0  0  0  0  0  0  0
    0.0820   -2.1580    0.4970 C   0  0  2  0  0  0  0  0  0  0  0  0
   -0.7620   -1.7330   -0.4750 O   0  0  0  0  0  0  0  0  0  0  0  0
   -1.9880   -1.2240   -0.0570 C   0  0  2  0  0  0  0  0  0  0  0  0
   -3.0190   -2.1820   -0.6960 C   0  0  0  0  0  0  0  0  0  0  0  0
   -2.8970   -2.1620   -2.0780 O   0  0  0  0  0  0  0  0  0  0  0  0
   -2.2990    0.0200   -0.5180 O   0  0  0  0  0  0  0  0  0  0  0  0
   -2.6990    0.9650    0.3730 C   0  0  2  0  0  0  0  0  0  0  0  0
   -1.7670    1.2700    1.3780 O   0  0  0  0  0  0  0  0  0  0  0  0
   -4.0370    0.6100    0.9480 C   0  0  0  0  0  0  0  0  0  0  0  0
   -5.0990    0.7240   -0.1140 C   0  0  1  0  0  0  0  0  0  0  0  0
   -6.4280    0.1950    0.3210 C   0  0  0  0  0  0  0  0  0  0  0  0
   -7.3200    0.3840   -0.7460 O   0  0  0  0  0  0  0  0  0  0  0  0
   -5.1910    2.0970   -0.4310 O   0  0  0  0  0  0  0  0  0  0  0  0
   -4.0640    2.3530   -1.2260 C   0  0  0  0  0  0  0  0  0  0  0  0
   -2.8020    2.2800   -0.4290 C   0  0  1  0  0  0  0  0  0  0  0  0
   -2.6450    3.3480    0.4430 O   0  0  0  0  0  0  0  0  0  0  0  0
    4.6630    1.6680   -0.5930 C   0  0  1  0  0  0  0  0  0  0  0  0
    5.6670    1.9790    0.3020 O   0  0  0  0  0  0  0  0  0  0  0  0
    6.0030    3.3340    0.2670 C   0  0  0  0  0  0  0  0  0  0  0  0
    7.0170    3.6120    1.1800 O   0  0  0  0  0  0  0  0  0  0  0  0
    5.2270    0.6150   -1.5530 C   0  0  1  0  0  0  0  0  0  0  0  0
    6.3380    1.1000   -2.2390 O   0  0  0  0  0  0  0  0  0  0  0  0
    5.6510   -0.4790   -0.7910 O   0  0  0  0  0  0  0  0  0  0  0  0
  1  2  2  0
  2  3  1  0
  2 27  1  0
  3  4  1  0
  4  5  1  0
  5  6  1  6
  5  7  1  0
  5 11  1  0
  7  8  1  0
  8  9  1  0
  9 10  1  0
 10 11  1  0
 11 12  1  6
 12 13  1  0
 13 14  1  6
 13 16  1  0
 14 15  1  0
 16 17  1  0
 17 18  1  1
 17 19  1  0
 17 25  1  0
 19 20  1  0
 20 21  1  1
 20 23  1  0
 21 22  1  0
 23 24  1  0
 24 25  1  0
 25 26  1  1
 27 28  1  1
 27 31  1  0
 28 29  1  0
 29 30  1  0
 31 32  1  1
 31 33  1  0
M  END
