
     RDKit          3D

 33 33  0  0  0  0  0  0  0  0999 V2000
   -3.0530    0.7600   -3.7010 C   0  0  0  0  0  0  0  0  0  0  0  0
   -2.4960    0.2730   -2.5100 O   0  0  0  0  0  0  0  0  0  0  0  0
   -2.8780    0.6600   -1.2430 C   0  0  0  0  0  0  0  0  0  0  0  0
   -3.7970    1.5150   -1.2150 O   0  0  0  0  0  0  0  0  0  0  0  0
   -2.3290    0.1810    0.0300 C   0  0  2  0  0  0  0  0  0  0  0  0
   -3.1310    0.6960    1.1960 C   0  0  0  0  0  0  0  0  0  0  0  0
   -3.2250    2.1460    1.4050 C   0  0  0  0  0  0  0  0  0  0  0  0
   -4.0980    2.3230    2.6730 C   0  0  2  0  0  0  0  0  0  0  0  0
   -5.3200    1.7330    2.3670 O   0  0  0  0  0  0  0  0  0  0  0  0
   -4.2890    3.6900    2.8710 O   0  0  0  0  0  0  0  0  0  0  0  0
   -0.8640    0.3120    0.2480 C   0  0  2  0  0  0  0  0  0  0  0  0
   -0.3400    1.5820    0.2080 O   0  0  0  0  0  0  0  0  0  0  0  0
    0.0500   -0.7310   -0.2430 C   0  0  2  0  0  0  0  0  0  0  0  0
   -0.5180   -2.1440    0.0110 C   0  0  0  0  0  0  0  0  0  0  0  0
   -0.7340   -2.4080    1.4730 C   0  0  2  0  0  0  0  0  0  0  0  0
    0.5430   -2.2780    2.0740 O   0  0  0  0  0  0  0  0  0  0  0  0
   -1.0790   -3.7790    1.5910 O   0  0  0  0  0  0  0  0  0  0  0  0
   -2.2250   -4.1120    2.2750 C   0  0  0  0  0  0  0  0  0  0  0  0
   -2.9350   -3.1910    2.7780 O   0  0  0  0  0  0  0  0  0  0  0  0
   -2.6190   -5.4140    2.4280 O   0  0  0  0  0  0  0  0  0  0  0  0
    1.1480   -0.7400    0.6150 O   0  0  0  0  0  0  0  0  0  0  0  0
    2.2440    0.0230    0.2730 C   0  0  1  0  0  0  0  0  0  0  0  0
    3.2430   -0.4910    1.1550 O   0  0  0  0  0  0  0  0  0  0  0  0
    2.7460   -0.1840   -1.0980 C   0  0  1  0  0  0  0  0  0  0  0  0
    2.3800    0.9830   -1.8730 O   0  0  0  0  0  0  0  0  0  0  0  0
    4.1770   -0.3690   -1.3480 C   0  0  0  0  0  0  0  0  0  0  0  0
    5.0650    0.7560   -1.0320 C   0  0  2  0  0  0  0  0  0  0  0  0
    6.4240    0.3600   -1.3660 O   0  0  0  0  0  0  0  0  0  0  0  0
    5.1620    1.3260    0.3240 C   0  0  0  0  0  0  0  0  0  0  0  0
    6.1180    2.4230    0.2660 O   0  0  0  0  0  0  0  0  0  0  0  0
    1.8820   -1.2810   -1.7360 C   0  0  0  0  0  0  0  0  0  0  0  0
    0.4520   -0.7370   -1.6740 C   0  0  2  0  0  0  0  0  0  0  0  0
    0.4620    0.4280   -2.3610 O   0  0  0  0  0  0  0  0  0  0  0  0
  1  2  1  0
  2  3  1  0
  3  4  2  0
  3  5  1  0
  5  6  1  1
  5 11  1  0
  6  7  1  0
  7  8  1  0
  8  9  1  6
  8 10  1  0
 11 12  1  6
 11 13  1  0
 13 14  1  1
 13 21  1  0
 13 32  1  0
 14 15  1  0
 15 16  1  1
 15 17  1  0
 17 18  1  0
 18 19  2  0
 18 20  1  0
 21 22  1  0
 22 23  1  1
 22 24  1  0
 24 25  1  6
 24 26  1  0
 24 31  1  0
 26 27  1  0
 27 28  1  1
 27 29  1  0
 29 30  1  0
 31 32  1  0
 32 33  1  1
M  END
