
     RDKit          3D

 36 38  0  0  0  0  0  0  0  0999 V2000
    0.7020    3.9500   -4.9560 C   0  0  0  0  0  0  0  0  0  0  0  0
   -0.1270    3.1620   -3.9650 C   0  0  0  0  0  0  0  0  0  0  0  0
    0.7620    2.2290   -3.1530 C   0  0  0  0  0  0  0  0  0  0  0  0
   -0.0750    1.4780   -2.1980 C   0  0  0  0  0  0  0  0  0  0  0  0
    0.0620    1.5620   -0.8560 C   0  0  0  0  0  0  0  0  0  0  0  0
    1.0650    2.4130   -0.2980 C   0  0  0  0  0  0  0  0  0  0  0  0
    2.0400    2.3820    0.5470 C   0  0  0  0  0  0  0  0  0  0  0  0
    2.6240    1.3360    1.4070 C   0  0  0  0  0  0  0  0  0  0  0  0
    3.2990    0.3030    0.8610 C   0  0  0  0  0  0  0  0  0  0  0  0
    3.8660   -0.7640    2.3170 S   0  0  0  0  0  0  0  0  0  0  0  0
    3.0800    0.3890    3.4980 C   0  0  0  0  0  0  0  0  0  0  0  0
    3.1560    0.1170    4.9870 C   0  0  0  0  0  0  0  0  0  0  0  0
    2.5600    1.3040    2.7880 C   0  0  0  0  0  0  0  0  0  0  0  0
    1.9300    2.3250    3.5740 F   0  0  0  0  0  0  0  0  0  0  0  0
    3.6440   -0.0200   -0.4630 N   0  0  0  0  0  0  0  0  0  0  0  0
    2.9110   -0.4670   -1.5640 C   0  0  0  0  0  0  0  0  0  0  0  0
    3.1650    0.1700   -2.6490 O   0  0  0  0  0  0  0  0  0  0  0  0
    1.9300   -1.5410   -1.6000 C   0  0  0  0  0  0  0  0  0  0  0  0
    0.8970   -1.5330   -0.5130 C   0  0  0  0  0  0  0  0  0  0  0  0
   -0.4980   -1.5000   -1.0850 C   0  0  0  0  0  0  0  0  0  0  0  0
   -0.8440   -2.7160   -1.8590 C   0  0  0  0  0  0  0  0  0  0  0  0
   -0.7940   -3.9510   -0.9440 C   0  0  0  0  0  0  0  0  0  0  0  0
   -1.1660   -5.1360   -1.8090 C   0  0  0  0  0  0  0  0  0  0  0  0
   -1.3030   -0.4790   -0.9070 C   0  0  0  0  0  0  0  0  0  0  0  0
   -2.6670   -0.3430   -1.4150 C   0  0  0  0  0  0  0  0  0  0  0  0
   -3.3890   -1.1930   -2.0560 O   0  0  0  0  0  0  0  0  0  0  0  0
   -3.2020    0.9260   -1.1240 N   0  0  0  0  0  0  0  0  0  0  0  0
   -2.2230    1.6200   -0.4390 C   0  0  0  0  0  0  0  0  0  0  0  0
   -2.2920    2.8340   -0.0660 O   0  0  0  0  0  0  0  0  0  0  0  0
   -0.9970    0.7460   -0.1630 C   0  0  2  0  0  0  0  0  0  0  0  0
   -0.9650    0.7420    1.2930 C   0  0  0  0  0  0  0  0  0  0  0  0
   -2.0470   -0.0730    1.8830 C   0  0  0  0  0  0  0  0  0  0  0  0
   -2.8730   -0.6900    1.1910 O   0  0  0  0  0  0  0  0  0  0  0  0
   -2.2010   -0.1960    3.3110 N   0  0  0  0  0  0  0  0  0  0  0  0
   -3.2620   -0.9950    3.8850 C   0  0  0  0  0  0  0  0  0  0  0  0
   -3.1650   -0.9280    5.3890 C   0  0  0  0  0  0  0  0  0  0  0  0
  1  2  1  0
  2  3  1  0
  3  4  1  0
  4  5  2  3
  5  6  1  0
  5 30  1  0
  6  7  2  0
  7  8  1  0
  8  9  2  0
  8 13  1  0
  9 10  1  0
  9 15  1  0
 10 11  1  0
 11 12  1  0
 11 13  2  0
 13 14  1  0
 15 16  1  0
 16 17  2  0
 16 18  1  0
 18 19  1  0
 19 20  1  0
 20 21  1  0
 20 24  2  0
 21 22  1  0
 22 23  1  0
 24 25  1  0
 24 30  1  0
 25 26  2  0
 25 27  1  0
 27 28  1  0
 28 29  2  0
 28 30  1  0
 30 31  1  1
 31 32  1  0
 32 33  2  0
 32 34  1  0
 34 35  1  0
 35 36  1  0
M  END
