
     RDKit          3D

 36 38  0  0  0  0  0  0  0  0999 V2000
   -7.9560   -2.5020   -1.2450 C   0  0  0  0  0  0  0  0  0  0  0  0
   -7.2940   -2.2290    0.0700 C   0  0  0  0  0  0  0  0  0  0  0  0
   -6.0470   -1.3960   -0.0830 C   0  0  0  0  0  0  0  0  0  0  0  0
   -5.7710   -1.0400   -1.2420 O   0  0  0  0  0  0  0  0  0  0  0  0
   -5.3020   -1.0860    1.0590 N   0  0  0  0  0  0  0  0  0  0  0  0
   -4.1210   -0.3130    1.0390 C   0  0  0  0  0  0  0  0  0  0  0  0
   -3.5830    0.2540   -0.0830 C   0  0  0  0  0  0  0  0  0  0  0  0
   -2.4000    1.0250   -0.0670 C   0  0  0  0  0  0  0  0  0  0  0  0
   -1.8560    1.6200   -1.2850 C   0  0  2  0  0  0  0  0  0  0  0  0
   -2.8510    1.3630   -2.4230 C   0  0  0  0  0  0  0  0  0  0  0  0
   -2.0960    2.1840   -3.8820 S   0  0  0  0  0  0  0  0  0  0  0  0
   -0.4890    2.7910   -3.3560 C   0  0  0  0  0  0  0  0  0  0  0  0
    0.3000    1.7750   -2.5510 C   0  0  2  0  0  0  0  0  0  0  0  0
    1.1100    0.9410   -3.3850 N   0  0  0  0  0  0  0  0  0  0  0  0
    2.1160    1.6900   -4.1160 C   0  0  0  0  0  0  0  0  0  0  0  0
    1.6960   -0.1220   -2.6260 C   0  0  0  0  0  0  0  0  0  0  0  0
    2.7580    0.3850   -1.6730 C   0  0  0  0  0  0  0  0  0  0  0  0
    3.0450    1.5940   -1.6170 O   0  0  0  0  0  0  0  0  0  0  0  0
    3.4310   -0.5410   -0.8350 N   0  0  0  0  0  0  0  0  0  0  0  0
    4.4330   -0.2290    0.0910 C   0  0  0  0  0  0  0  0  0  0  0  0
    4.9810    0.9980    0.3040 C   0  0  0  0  0  0  0  0  0  0  0  0
    5.9770    1.2260    1.2500 C   0  0  0  0  0  0  0  0  0  0  0  0
    6.4560    0.2050    2.0200 C   0  0  0  0  0  0  0  0  0  0  0  0
    7.4280    0.3620    2.9610 F   0  0  0  0  0  0  0  0  0  0  0  0
    5.9140   -1.0580    1.8230 C   0  0  0  0  0  0  0  0  0  0  0  0
    6.3930   -2.1740    2.6220 C   0  0  0  0  0  0  0  0  0  0  0  0
    5.8960   -3.3050    2.4440 O   0  0  0  0  0  0  0  0  0  0  0  0
    7.3770   -2.0060    3.5650 O   0  0  0  0  0  0  0  0  0  0  0  0
    7.8730   -3.0500    4.3610 C   0  0  0  0  0  0  0  0  0  0  0  0
    4.9400   -1.2610    0.8930 C   0  0  0  0  0  0  0  0  0  0  0  0
   -0.5860    0.9140   -1.6950 C   0  0  0  0  0  0  0  0  0  0  0  0
   -1.7720    1.2040    1.1400 C   0  0  0  0  0  0  0  0  0  0  0  0
   -0.5280    2.0100    1.2030 C   0  0  0  0  0  0  0  0  0  0  0  0
   -2.2880    0.6430    2.3050 C   0  0  0  0  0  0  0  0  0  0  0  0
   -3.4400   -0.1000    2.2480 C   0  0  0  0  0  0  0  0  0  0  0  0
   -4.0280   -0.7150    3.4690 C   0  0  0  0  0  0  0  0  0  0  0  0
  1  2  1  0
  2  3  1  0
  3  4  2  0
  3  5  1  0
  5  6  1  0
  6  7  2  0
  6 35  1  0
  7  8  1  0
  9  8  1  1
  8 32  2  0
  9 10  1  0
  9 31  1  0
 10 11  1  0
 11 12  1  0
 12 13  1  0
 13 14  1  6
 13 31  1  0
 14 15  1  0
 14 16  1  0
 16 17  1  0
 17 18  2  0
 17 19  1  0
 19 20  1  0
 20 21  2  0
 20 30  1  0
 21 22  1  0
 22 23  2  0
 23 24  1  0
 23 25  1  0
 25 26  1  0
 25 30  2  0
 26 27  2  0
 26 28  1  0
 28 29  1  0
 32 33  1  0
 32 34  1  0
 34 35  2  0
 35 36  1  0
M  END
