
     RDKit          3D

 36 37  0  0  0  0  0  0  0  0999 V2000
   -0.6370   -4.2730    0.3590 C   0  0  0  0  0  0  0  0  0  0  0  0
   -0.3930   -3.3830    1.4910 C   0  0  0  0  0  0  0  0  0  0  0  0
   -0.5950   -3.8170    2.6660 O   0  0  0  0  0  0  0  0  0  0  0  0
    0.0890   -1.9680    1.3870 C   0  0  0  0  0  0  0  0  0  0  0  0
    0.3070   -1.2860    2.5020 C   0  0  0  0  0  0  0  0  0  0  0  0
    0.7580    0.0240    2.7380 N   0  0  0  0  0  0  0  0  0  0  0  0
    1.9670    0.6640    2.2690 C   0  0  0  0  0  0  0  0  0  0  0  0
    2.9010    1.0050    3.1410 O   0  0  0  0  0  0  0  0  0  0  0  0
    2.3460    1.0220    0.8990 C   0  0  0  0  0  0  0  0  0  0  0  0
    3.5650    0.4240    0.3630 C   0  0  0  0  0  0  0  0  0  0  0  0
    4.1980   -0.4110    1.0600 O   0  0  0  0  0  0  0  0  0  0  0  0
    4.1340    0.6960   -0.9100 N   0  0  0  0  0  0  0  0  0  0  0  0
    5.3840    0.0070   -1.2820 C   0  0  1  0  0  0  0  0  0  0  0  0
    5.3040   -0.6740   -2.6060 C   0  0  0  0  0  0  0  0  0  0  0  0
    6.5360    0.9860   -1.2660 C   0  0  1  0  0  0  0  0  0  0  0  0
    7.9380    0.4640   -1.6030 C   0  0  0  0  0  0  0  0  0  0  0  0
    7.2350    1.3330   -2.5620 C   0  0  0  0  0  0  0  0  0  0  0  0
    1.6610    1.9210    0.1690 C   0  0  0  0  0  0  0  0  0  0  0  0
    0.4920    2.6650    0.5760 C   0  0  0  0  0  0  0  0  0  0  0  0
   -0.7390    2.3640    0.7630 C   0  0  0  0  0  0  0  0  0  0  0  0
   -1.5270    1.1520    0.6460 C   0  0  0  0  0  0  0  0  0  0  0  0
   -2.3470    0.7840    1.6160 C   0  0  0  0  0  0  0  0  0  0  0  0
   -2.4860    1.8100    3.0970 S   0  0  0  0  0  0  0  0  0  0  0  0
   -3.7560    3.0450    2.8650 C   0  0  0  0  0  0  0  0  0  0  0  0
   -5.1500    2.4480    2.7910 C   0  0  0  0  0  0  0  0  0  0  0  0
   -5.4990    1.7060    4.0580 C   0  0  0  0  0  0  0  0  0  0  0  0
   -5.4660    2.5390    5.1440 F   0  0  0  0  0  0  0  0  0  0  0  0
   -1.5360    0.3150   -0.6220 C   0  0  2  0  0  0  0  0  0  0  0  0
   -2.8150   -0.4070   -0.7250 C   0  0  0  0  0  0  0  0  0  0  0  0
   -3.1550   -1.1870   -1.9260 C   0  0  1  0  0  0  0  0  0  0  0  0
   -3.1770   -0.3020   -3.1830 C   0  0  0  0  0  0  0  0  0  0  0  0
   -2.4700   -2.4370   -2.2650 C   0  0  0  0  0  0  0  0  0  0  0  0
   -4.6710   -1.5750   -1.7870 C   0  0  0  0  0  0  0  0  0  0  0  0
   -0.3100   -0.3880   -0.6520 N   0  0  0  0  0  0  0  0  0  0  0  0
    0.2310   -1.4800    0.0370 C   0  0  0  0  0  0  0  0  0  0  0  0
    1.0310   -2.1970   -0.7220 O   0  0  0  0  0  0  0  0  0  0  0  0
  1  2  1  0
  2  3  2  0
  2  4  1  0
  4  5  2  0
  4 35  1  0
  5  6  1  0
  6  7  1  0
  7  8  2  0
  7  9  1  0
  9 10  1  0
  9 18  2  0
 10 11  2  0
 10 12  1  0
 12 13  1  0
 13 14  1  6
 13 15  1  0
 15 16  1  1
 15 17  1  0
 16 17  1  0
 18 19  1  0
 19 20  2  0
 20 21  1  0
 21 22  2  3
 21 28  1  0
 22 23  1  0
 23 24  1  0
 24 25  1  0
 25 26  1  0
 26 27  1  0
 28 29  1  1
 28 34  1  0
 29 30  1  0
 30 31  1  6
 30 32  1  0
 30 33  1  0
 34 35  1  0
 35 36  2  0
M  END
