
     RDKit          3D

 36 39  0  0  0  0  0  0  0  0999 V2000
   -4.5180   -3.1220    2.5450 C   0  0  0  0  0  0  0  0  0  0  0  0
   -3.9920   -2.6790    1.2560 C   0  0  0  0  0  0  0  0  0  0  0  0
   -3.8890   -3.2140    0.0850 C   0  0  0  0  0  0  0  0  0  0  0  0
   -3.3030   -2.4250   -0.9210 C   0  0  0  0  0  0  0  0  0  0  0  0
   -2.7510   -0.7790   -0.5340 S   0  0  0  0  0  0  0  0  0  0  0  0
   -1.0450   -0.7810    0.0130 C   0  0  0  0  0  0  0  0  0  0  0  0
   -0.3690   -1.9240    0.0860 N   0  0  0  0  0  0  0  0  0  0  0  0
    0.9020   -1.9240    0.4930 C   0  0  0  0  0  0  0  0  0  0  0  0
    1.4890   -3.0570    0.5390 O   0  0  0  0  0  0  0  0  0  0  0  0
    1.5730   -0.7680    0.8540 C   0  0  0  0  0  0  0  0  0  0  0  0
    2.9590   -0.8440    1.2890 C   0  0  0  0  0  0  0  0  0  0  0  0
    3.5350   -1.9550    1.3340 O   0  0  0  0  0  0  0  0  0  0  0  0
    3.6960    0.2630    1.6650 O   0  0  0  0  0  0  0  0  0  0  0  0
    5.0350    0.2090    2.0870 C   0  0  0  0  0  0  0  0  0  0  0  0
    5.9560   -0.3600    1.0420 C   0  0  1  0  0  0  0  0  0  0  0  0
    6.1320    0.5790   -0.1360 C   0  0  0  0  0  0  0  0  0  0  0  0
    7.4650    0.0740   -0.7020 C   0  0  0  0  0  0  0  0  0  0  0  0
    8.1040   -0.5890    0.5040 C   0  0  0  0  0  0  0  0  0  0  0  0
    7.2490   -0.3610    1.5790 O   0  0  0  0  0  0  0  0  0  0  0  0
    0.8800    0.4180    0.7810 C   0  0  0  0  0  0  0  0  0  0  0  0
   -0.4310    0.3940    0.3580 C   0  0  0  0  0  0  0  0  0  0  0  0
   -1.1280    1.6350    0.2900 N   0  0  0  0  0  0  0  0  0  0  0  0
   -0.4920    2.8760    0.6500 C   0  0  0  0  0  0  0  0  0  0  0  0
   -1.5070    4.0070    0.4680 C   0  0  1  0  0  0  0  0  0  0  0  0
   -0.7850    5.2800    0.8580 C   0  0  0  0  0  0  0  0  0  0  0  0
   -1.5880    6.4420    0.2860 C   0  0  0  0  0  0  0  0  0  0  0  0
   -1.3920    6.5130   -1.1500 N   0  0  0  0  0  0  0  0  0  0  0  0
   -1.1880    5.1990   -1.7280 C   0  0  0  0  0  0  0  0  0  0  0  0
   -1.9380    4.1300   -0.9630 C   0  0  0  0  0  0  0  0  0  0  0  0
   -3.1540   -2.9180   -2.2010 C   0  0  0  0  0  0  0  0  0  0  0  0
   -3.5630   -4.1760   -2.5460 C   0  0  0  0  0  0  0  0  0  0  0  0
   -3.3930   -4.6860   -3.9280 C   0  0  0  0  0  0  0  0  0  0  0  0
   -4.1380   -4.9610   -1.5760 C   0  0  0  0  0  0  0  0  0  0  0  0
   -4.3000   -4.4720   -0.2520 C   0  0  0  0  0  0  0  0  0  0  0  0
   -4.8610   -5.3150    0.5820 C   0  0  0  0  0  0  0  0  0  0  0  0
   -5.2290   -6.5680    0.0950 F   0  0  0  0  0  0  0  0  0  0  0  0
  1  2  1  0
  2  3  2  3
  3  4  1  0
  3 34  1  0
  4  5  1  0
  4 30  2  0
  5  6  1  0
  6  7  1  0
  6 21  2  0
  7  8  1  0
  8  9  2  0
  8 10  1  0
 10 11  1  0
 10 20  2  0
 11 12  2  0
 11 13  1  0
 13 14  1  0
 15 14  1  1
 15 16  1  0
 15 19  1  0
 16 17  1  0
 17 18  1  0
 18 19  1  0
 20 21  1  0
 21 22  1  0
 22 23  1  0
 24 23  1  6
 24 25  1  0
 24 29  1  0
 25 26  1  0
 26 27  1  0
 27 28  1  0
 28 29  1  0
 30 31  1  0
 31 32  1  0
 31 33  2  0
 33 34  1  0
 34 35  2  3
 35 36  1  0
M  END
