
     RDKit          3D

 35 37  0  0  0  0  0  0  0  0999 V2000
    3.7240    6.9280    0.7750 C   0  0  0  0  0  0  0  0  0  0  0  0
    2.7040    6.2180    1.6360 C   0  0  0  0  0  0  0  0  0  0  0  0
    2.2000    5.0950    1.2710 C   0  0  0  0  0  0  0  0  0  0  0  0
    2.5990    4.4180   -0.0260 C   0  0  0  0  0  0  0  0  0  0  0  0
    2.5980    2.9270    0.5070 C   0  0  0  0  0  0  0  0  0  0  0  0
    1.2100    2.9580    0.9890 N   0  0  0  0  0  0  0  0  0  0  0  0
    0.0930    2.2240    0.7270 C   0  0  0  0  0  0  0  0  0  0  0  0
   -1.0030    2.8260    1.2640 O   0  0  0  0  0  0  0  0  0  0  0  0
   -0.2710    1.0240    0.0140 C   0  0  0  0  0  0  0  0  0  0  0  0
    0.5520    0.0680   -0.2270 C   0  0  0  0  0  0  0  0  0  0  0  0
    1.8610   -0.0650    0.1680 N   0  0  0  0  0  0  0  0  0  0  0  0
    2.5290   -1.2750   -0.3310 C   0  0  0  0  0  0  0  0  0  0  0  0
    2.0590   -1.9190   -1.2010 O   0  0  0  0  0  0  0  0  0  0  0  0
    3.7780   -1.4700    0.4860 N   0  0  0  0  0  0  0  0  0  0  0  0
    4.2300   -2.9710   -0.2630 C   0  0  0  0  0  0  0  0  0  0  0  0
    3.5550   -3.2760   -1.1490 O   0  0  0  0  0  0  0  0  0  0  0  0
    5.3800   -3.5870    0.3740 C   0  0  2  0  0  0  0  0  0  0  0  0
    6.0810   -2.7780    1.4180 C   0  0  0  0  0  0  0  0  0  0  0  0
    6.4160   -3.9340   -0.7000 C   0  0  0  0  0  0  0  0  0  0  0  0
   -0.1370   -1.1840   -1.4140 S   0  0  0  0  0  0  0  0  0  0  0  0
   -1.7990   -1.4550   -0.6390 C   0  0  0  0  0  0  0  0  0  0  0  0
   -2.2090   -2.8270   -0.6090 C   0  0  0  0  0  0  0  0  0  0  0  0
   -1.4320   -3.5530    0.4750 C   0  0  0  0  0  0  0  0  0  0  0  0
   -2.3710   -0.3880   -0.2350 C   0  0  0  0  0  0  0  0  0  0  0  0
   -3.6890   -0.4250    0.3920 C   0  0  0  0  0  0  0  0  0  0  0  0
   -4.1830    0.6620    0.7570 O   0  0  0  0  0  0  0  0  0  0  0  0
   -4.5140   -1.6250    0.6360 C   0  0  0  0  0  0  0  0  0  0  0  0
   -5.4980   -1.7580   -0.4930 C   0  0  0  0  0  0  0  0  0  0  0  0
   -6.3590   -2.9730   -0.4480 C   0  0  1  0  0  0  0  0  0  0  0  0
   -7.2850   -3.3430    0.6230 C   0  0  0  0  0  0  0  0  0  0  0  0
   -7.8560   -2.7020   -0.6110 C   0  0  0  0  0  0  0  0  0  0  0  0
   -1.7270    0.9350   -0.4010 C   0  0  2  0  0  0  0  0  0  0  0  0
   -1.9060    1.3810   -1.8080 C   0  0  0  0  0  0  0  0  0  0  0  0
   -1.4850    2.8130   -2.0180 C   0  0  0  0  0  0  0  0  0  0  0  0
    1.2230    4.1890    1.8760 C   0  0  0  0  0  0  0  0  0  0  0  0
  1  2  1  0
  2  3  2  3
  3  4  1  0
  3 35  1  0
  4  5  1  0
  5  6  1  0
  6  7  1  0
  6 35  1  0
  7  8  2  0
  7  9  1  0
  9 10  2  0
  9 32  1  0
 10 11  1  0
 10 20  1  0
 11 12  1  0
 12 13  2  0
 12 14  1  0
 14 15  1  0
 15 16  2  0
 15 17  1  0
 17 18  1  1
 17 19  1  0
 20 21  1  0
 21 22  1  0
 21 24  2  0
 22 23  1  0
 24 25  1  0
 24 32  1  0
 25 26  2  0
 25 27  1  0
 27 28  1  0
 29 28  1  1
 29 30  1  0
 29 31  1  0
 30 31  1  0
 32 33  1  6
 33 34  1  0
M  END
