
     RDKit          3D

 36 40  0  0  0  0  0  0  0  0999 V2000
   -3.5930    4.1180    1.3430 C   0  0  0  0  0  0  0  0  0  0  0  0
   -3.0250    2.8140    1.0490 N   0  0  0  0  0  0  0  0  0  0  0  0
   -3.0730    2.0400    2.2680 C   0  0  1  0  0  0  0  0  0  0  0  0
   -4.4970    1.9870    2.7770 C   0  0  0  0  0  0  0  0  0  0  0  0
   -2.6410    0.6300    2.0450 C   0  0  0  0  0  0  0  0  0  0  0  0
   -2.6520   -0.1200    3.0520 O   0  0  0  0  0  0  0  0  0  0  0  0
   -2.2440    0.1510    0.8030 N   0  0  0  0  0  0  0  0  0  0  0  0
   -1.8170   -1.2770    0.6220 C   0  0  2  0  0  0  0  0  0  0  0  0
   -0.4010   -1.3070    0.3490 C   0  0  0  0  0  0  0  0  0  0  0  0
    0.2850   -0.4230    1.0710 O   0  0  0  0  0  0  0  0  0  0  0  0
    0.4180   -2.0410   -0.4900 N   0  0  0  0  0  0  0  0  0  0  0  0
    0.2170   -3.0460   -1.5370 C   0  0  0  0  0  0  0  0  0  0  0  0
    1.1290   -2.5030   -2.6540 C   0  0  0  0  0  0  0  0  0  0  0  0
    2.0800   -1.5390   -1.9510 C   0  0  0  0  0  0  0  0  0  0  0  0
    1.9060   -2.0020   -0.5290 C   0  0  1  0  0  0  0  0  0  0  0  0
    2.5550   -1.1040    0.3790 C   0  0  0  0  0  0  0  0  0  0  0  0
    3.2750   -0.0470    0.2650 N   0  0  0  0  0  0  0  0  0  0  0  0
    3.8150    0.5930    1.2520 C   0  0  0  0  0  0  0  0  0  0  0  0
    4.6220    1.7670    1.1870 C   0  0  0  0  0  0  0  0  0  0  0  0
    4.9190    2.3780   -0.0870 C   0  0  0  0  0  0  0  0  0  0  0  0
    4.8350    3.7370   -0.2750 C   0  0  0  0  0  0  0  0  0  0  0  0
    5.1240    4.3190   -1.5090 C   0  0  0  0  0  0  0  0  0  0  0  0
    5.5000    3.5220   -2.5580 C   0  0  0  0  0  0  0  0  0  0  0  0
    5.5910    2.1680   -2.3970 C   0  0  0  0  0  0  0  0  0  0  0  0
    5.2990    1.5980   -1.1550 C   0  0  0  0  0  0  0  0  0  0  0  0
    5.1200    2.3240    2.3260 C   0  0  0  0  0  0  0  0  0  0  0  0
    4.9060    1.8340    3.5860 C   0  0  0  0  0  0  0  0  0  0  0  0
    4.1140    0.6770    3.6840 C   0  0  0  0  0  0  0  0  0  0  0  0
    3.6180    0.1260    2.5220 C   0  0  0  0  0  0  0  0  0  0  0  0
    2.5790   -1.3240    2.1700 S   0  0  0  0  0  0  0  0  0  0  0  0
   -2.8080   -2.0060   -0.1750 C   0  0  1  0  0  0  0  0  0  0  0  0
   -3.0500   -1.5540   -1.5680 C   0  0  0  0  0  0  0  0  0  0  0  0
   -3.8780   -2.4480   -2.4070 C   0  0  0  0  0  0  0  0  0  0  0  0
   -3.8520   -3.9010   -2.0490 C   0  0  0  0  0  0  0  0  0  0  0  0
   -4.1340   -3.9920   -0.5640 C   0  0  0  0  0  0  0  0  0  0  0  0
   -2.8460   -3.4740    0.1110 C   0  0  0  0  0  0  0  0  0  0  0  0
  1  2  1  0
  2  3  1  0
  3  4  1  6
  3  5  1  0
  5  6  2  0
  5  7  1  0
  8  7  1  6
  8  9  1  0
  8 31  1  0
  9 10  2  0
  9 11  1  0
 11 12  1  0
 11 15  1  0
 12 13  1  0
 13 14  1  0
 14 15  1  0
 15 16  1  1
 16 17  2  0
 16 30  1  0
 17 18  1  0
 18 19  2  0
 18 29  1  0
 19 20  1  0
 19 26  1  0
 20 21  2  0
 20 25  1  0
 21 22  1  0
 22 23  2  0
 23 24  1  0
 24 25  2  0
 26 27  2  0
 27 28  1  0
 28 29  2  0
 29 30  1  0
 31 32  1  6
 31 36  1  0
 32 33  1  0
 33 34  1  0
 34 35  1  0
 35 36  1  0
M  CHG  1   2   1
M  END
