
     RDKit          3D

 36 38  0  0  0  0  0  0  0  0999 V2000
   11.3780    0.4030    0.3860 C   0  0  0  0  0  0  0  0  0  0  0  0
   10.1990   -0.4390    0.8430 C   0  0  0  0  0  0  0  0  0  0  0  0
    9.1000   -0.2720   -0.1010 N   0  0  0  0  0  0  0  0  0  0  0  0
    8.0710    0.5850    0.4190 C   0  0  0  0  0  0  0  0  0  0  0  0
    6.7570    0.0720   -0.0170 C   0  0  0  0  0  0  0  0  0  0  0  0
    6.0660   -0.8440    0.7480 C   0  0  0  0  0  0  0  0  0  0  0  0
    4.8430   -1.3280    0.3500 C   0  0  0  0  0  0  0  0  0  0  0  0
    4.2410   -0.9210   -0.8420 C   0  0  0  0  0  0  0  0  0  0  0  0
    2.9120   -1.4740   -1.1990 C   0  0  0  0  0  0  0  0  0  0  0  0
    1.7860   -0.5840   -0.9110 C   0  0  0  0  0  0  0  0  0  0  0  0
    1.6780    0.9900   -1.6580 Cl  0  0  0  0  0  0  0  0  0  0  0  0
    0.8740   -0.9970   -0.0870 N   0  0  0  0  0  0  0  0  0  0  0  0
   -0.2170   -0.1150    0.1830 C   0  0  0  0  0  0  0  0  0  0  0  0
   -0.0110    1.1510    0.6910 C   0  0  0  0  0  0  0  0  0  0  0  0
   -1.0650    1.9980    0.9490 C   0  0  0  0  0  0  0  0  0  0  0  0
   -2.3550    1.5710    0.6940 C   0  0  0  0  0  0  0  0  0  0  0  0
   -3.4070    2.4380    0.9600 O   0  0  0  0  0  0  0  0  0  0  0  0
   -3.1980    3.7190    1.4730 C   0  0  0  0  0  0  0  0  0  0  0  0
   -2.6100    0.3100    0.1860 C   0  0  0  0  0  0  0  0  0  0  0  0
   -3.9520   -0.1160   -0.0720 N   0  0  0  0  0  0  0  0  0  0  0  0
   -4.7830   -0.1750    0.9710 C   0  0  0  0  0  0  0  0  0  0  0  0
   -4.4100    0.1260    2.1270 O   0  0  0  0  0  0  0  0  0  0  0  0
   -6.1370   -0.5850    0.8280 C   0  0  0  0  0  0  0  0  0  0  0  0
   -6.8990   -0.6020    1.9880 N   0  0  2  0  0  0  0  0  0  0  0  0
   -8.2370   -1.0520    1.9990 C   0  0  0  0  0  0  0  0  0  0  0  0
   -6.7750    0.6820    2.7170 C   0  0  0  0  0  0  0  0  0  0  0  0
   -6.5080   -0.9040   -0.4450 C   0  0  0  0  0  0  0  0  0  0  0  0
   -7.8770   -1.3280   -0.7920 C   0  0  0  0  0  0  0  0  0  0  0  0
   -5.6400   -0.8340   -1.4800 N   0  0  0  0  0  0  0  0  0  0  0  0
   -6.0500   -1.1790   -2.8080 C   0  0  0  0  0  0  0  0  0  0  0  0
   -4.3690   -0.4430   -1.3070 C   0  0  0  0  0  0  0  0  0  0  0  0
   -3.5570   -0.3750   -2.2690 O   0  0  0  0  0  0  0  0  0  0  0  0
   -1.5220   -0.4980   -0.0550 C   0  0  0  0  0  0  0  0  0  0  0  0
    4.9320   -0.0080   -1.6050 C   0  0  0  0  0  0  0  0  0  0  0  0
    4.2610    0.5420   -3.1260 Cl  0  0  0  0  0  0  0  0  0  0  0  0
    6.1570    0.4670   -1.1890 C   0  0  0  0  0  0  0  0  0  0  0  0
  1  2  1  0
  2  3  1  0
  3  4  1  0
  4  5  1  0
  5  6  2  0
  5 36  1  0
  6  7  1  0
  7  8  2  0
  8  9  1  0
  8 34  1  0
  9 10  1  0
 10 11  1  0
 10 12  2  3
 12 13  1  0
 13 14  2  0
 13 33  1  0
 14 15  1  0
 15 16  2  0
 16 17  1  0
 16 19  1  0
 17 18  1  0
 19 20  1  0
 19 33  2  0
 20 21  1  0
 20 31  1  0
 21 22  2  0
 21 23  1  0
 23 24  1  0
 23 27  2  0
 24 25  1  6
 24 26  1  0
 27 28  1  0
 27 29  1  0
 29 30  1  0
 29 31  1  0
 31 32  2  0
 34 35  1  0
 34 36  2  0
M  CHG  2   3   1  24   1
M  END
