
     RDKit          3D

 35 38  0  0  0  0  0  0  0  0999 V2000
   -5.7260   -1.9580   -1.2720 C   0  0  0  0  0  0  0  0  0  0  0  0
   -6.4380   -0.7800   -0.6790 C   0  0  2  0  0  0  0  0  0  0  0  0
   -6.6380    0.3610   -1.6150 C   0  0  0  0  0  0  0  0  0  0  0  0
   -7.5890    1.3390   -0.9100 C   0  0  0  0  0  0  0  0  0  0  0  0
   -7.7560    1.0320    0.4250 O   0  0  0  0  0  0  0  0  0  0  0  0
   -6.5750    0.8330    1.1250 C   0  0  2  0  0  0  0  0  0  0  0  0
   -5.8700    2.1560    1.2320 C   0  0  0  0  0  0  0  0  0  0  0  0
   -4.6690    2.1160    1.9100 O   0  0  0  0  0  0  0  0  0  0  0  0
   -5.7390   -0.2690    0.5820 C   0  0  2  0  0  0  0  0  0  0  0  0
   -4.3570    0.0860    0.3360 N   0  0  0  0  0  0  0  0  0  0  0  0
   -3.2790   -0.7750    0.7630 C   0  0  0  0  0  0  0  0  0  0  0  0
   -3.6110   -1.8180    1.3330 O   0  0  0  0  0  0  0  0  0  0  0  0
   -1.9310   -0.4380    0.5400 N   0  0  0  0  0  0  0  0  0  0  0  0
   -0.8180   -1.2140    0.9130 C   0  0  0  0  0  0  0  0  0  0  0  0
   -0.8810   -2.3870    1.6280 C   0  0  0  0  0  0  0  0  0  0  0  0
    0.2590   -3.1020    2.0240 C   0  0  0  0  0  0  0  0  0  0  0  0
    1.4830   -2.5940    1.6760 C   0  0  0  0  0  0  0  0  0  0  0  0
    1.5870   -1.4060    0.9500 C   0  0  0  0  0  0  0  0  0  0  0  0
    0.4550   -0.7280    0.5730 C   0  0  0  0  0  0  0  0  0  0  0  0
    0.5150    0.5090   -0.2410 C   0  0  0  0  0  0  0  0  0  0  0  0
    1.8180    0.4190   -1.0600 C   0  0  0  0  0  0  0  0  0  0  0  0
    2.9090    0.3450   -0.0530 N   0  0  0  0  0  0  0  0  0  0  0  0
    3.6900    1.4720    0.0890 C   0  0  0  0  0  0  0  0  0  0  0  0
    3.3430    2.4950   -0.6450 O   0  0  0  0  0  0  0  0  0  0  0  0
    4.8470    1.6510    0.9600 C   0  0  0  0  0  0  0  0  0  0  0  0
    5.5720    0.2280    1.7180 S   0  0  0  0  0  0  0  0  0  0  0  0
    6.4090   -0.8820    0.5510 C   0  0  0  0  0  0  0  0  0  0  0  0
    7.6110   -0.2090   -0.0350 C   0  0  0  0  0  0  0  0  0  0  0  0
    7.5350    0.5230   -1.1760 C   0  0  0  0  0  0  0  0  0  0  0  0
    8.6610    1.1500   -1.7040 C   0  0  0  0  0  0  0  0  0  0  0  0
    9.8640    1.0250   -1.0610 C   0  0  0  0  0  0  0  0  0  0  0  0
   11.0100    1.6030   -1.5020 F   0  0  0  0  0  0  0  0  0  0  0  0
    9.9230    0.2740    0.1020 C   0  0  0  0  0  0  0  0  0  0  0  0
    8.8240   -0.3130    0.5790 N   0  0  0  0  0  0  0  0  0  0  0  0
    2.9790   -0.8840    0.6590 C   0  0  0  0  0  0  0  0  0  0  0  0
  2  1  1  6
  2  3  1  0
  2  9  1  0
  3  4  1  0
  4  5  1  0
  5  6  1  0
  6  7  1  6
  6  9  1  0
  7  8  1  0
  9 10  1  6
 10 11  1  0
 11 12  2  0
 11 13  1  0
 13 14  1  0
 14 15  2  0
 14 19  1  0
 15 16  1  0
 16 17  2  0
 17 18  1  0
 18 19  2  0
 18 35  1  0
 19 20  1  0
 20 21  1  0
 21 22  1  0
 22 23  1  0
 22 35  1  0
 23 24  2  0
 23 25  1  0
 25 26  1  0
 26 27  1  0
 27 28  1  0
 28 29  2  0
 28 34  1  0
 29 30  1  0
 30 31  2  0
 31 32  1  0
 31 33  1  0
 33 34  2  0
M  END
