
     RDKit          3D

 36 39  0  0  0  0  0  0  0  0999 V2000
   -1.9210    3.8740    1.5610 C   0  0  0  0  0  0  0  0  0  0  0  0
   -1.1980    3.3520    0.4630 O   0  0  0  0  0  0  0  0  0  0  0  0
    0.0610    3.8830    0.2170 C   0  0  0  0  0  0  0  0  0  0  0  0
    0.5980    4.8430    0.9640 N   0  0  0  0  0  0  0  0  0  0  0  0
    1.8010    5.3820    0.7640 C   0  0  0  0  0  0  0  0  0  0  0  0
    2.5690    4.9220   -0.2980 C   0  0  0  0  0  0  0  0  0  0  0  0
    4.1540    5.6000   -0.5960 Cl  0  0  0  0  0  0  0  0  0  0  0  0
    2.0710    3.9290   -1.1110 C   0  0  0  0  0  0  0  0  0  0  0  0
    0.8160    3.4000   -0.8640 C   0  0  0  0  0  0  0  0  0  0  0  0
    0.2120    2.3620   -1.6740 C   0  0  0  0  0  0  0  0  0  0  0  0
   -0.4840    2.7320   -2.6710 O   0  0  0  0  0  0  0  0  0  0  0  0
    0.3540    0.9900   -1.4140 N   0  0  0  0  0  0  0  0  0  0  0  0
    1.1630    0.5600   -0.2900 C   0  0  0  0  0  0  0  0  0  0  0  0
    2.5750    0.3250   -0.6940 C   0  0  0  0  0  0  0  0  0  0  0  0
    3.3880   -0.1090    0.4400 N   0  0  0  0  0  0  0  0  0  0  0  0
    3.5000   -1.5280    0.4450 C   0  0  0  0  0  0  0  0  0  0  0  0
    4.8310   -2.1290    0.4910 C   0  0  0  0  0  0  0  0  0  0  0  0
    5.9840   -1.4100    0.5290 C   0  0  0  0  0  0  0  0  0  0  0  0
    7.2000   -2.1040    0.5690 C   0  0  0  0  0  0  0  0  0  0  0  0
    7.2140   -3.4400    0.5710 N   0  0  0  0  0  0  0  0  0  0  0  0
    6.1050   -4.1670    0.5350 C   0  0  0  0  0  0  0  0  0  0  0  0
    4.8960   -3.5220    0.4950 C   0  0  0  0  0  0  0  0  0  0  0  0
    3.4040   -4.4350    0.4460 Cl  0  0  0  0  0  0  0  0  0  0  0  0
   -0.3330    0.0250   -2.2630 C   0  0  0  0  0  0  0  0  0  0  0  0
   -1.6130   -0.3660   -1.6430 C   0  0  0  0  0  0  0  0  0  0  0  0
   -1.6570   -1.4500   -0.8190 C   0  0  0  0  0  0  0  0  0  0  0  0
   -2.8590   -1.8280   -0.2170 C   0  0  0  0  0  0  0  0  0  0  0  0
   -4.0090   -1.1070   -0.4520 C   0  0  0  0  0  0  0  0  0  0  0  0
   -5.2180   -1.5110    0.1750 N   0  0  0  0  0  0  0  0  0  0  0  0
   -5.5040   -2.8910    0.5910 C   0  0  0  0  0  0  0  0  0  0  0  0
   -7.0230   -2.9020    0.6020 C   0  0  0  0  0  0  0  0  0  0  0  0
   -7.2990   -1.5470    1.2160 C   0  0  0  0  0  0  0  0  0  0  0  0
   -6.3260   -0.6830    0.5010 C   0  0  0  0  0  0  0  0  0  0  0  0
   -6.4140    0.5380    0.2150 O   0  0  0  0  0  0  0  0  0  0  0  0
   -3.9700   -0.0210   -1.2760 C   0  0  0  0  0  0  0  0  0  0  0  0
   -2.7550    0.3500   -1.8770 C   0  0  0  0  0  0  0  0  0  0  0  0
  1  2  1  0
  2  3  1  0
  3  4  2  0
  3  9  1  0
  4  5  1  0
  5  6  2  0
  6  7  1  0
  6  8  1  0
  8  9  2  0
  9 10  1  0
 10 11  2  0
 10 12  1  0
 12 13  1  0
 12 24  1  0
 13 14  1  0
 14 15  1  0
 15 16  1  0
 16 17  1  0
 17 18  2  0
 17 22  1  0
 18 19  1  0
 19 20  2  0
 20 21  1  0
 21 22  2  0
 22 23  1  0
 24 25  1  0
 25 26  2  0
 25 36  1  0
 26 27  1  0
 27 28  2  0
 28 29  1  0
 28 35  1  0
 29 30  1  0
 29 33  1  0
 30 31  1  0
 31 32  1  0
 32 33  1  0
 33 34  2  0
 35 36  2  0
M  CHG  2  15   1  20   1
M  END
