
     RDKit          3D

 36 39  0  0  0  0  0  0  0  0999 V2000
   -5.2600   -2.3860    0.6590 C   0  0  0  0  0  0  0  0  0  0  0  0
   -6.0040   -1.5740   -0.3640 C   0  0  0  0  0  0  0  0  0  0  0  0
   -5.5300   -0.2110   -0.4600 N   0  0  0  0  0  0  0  0  0  0  0  0
   -6.0590    0.8860    0.3290 C   0  0  0  0  0  0  0  0  0  0  0  0
   -4.9570    1.4900    1.1480 C   0  0  0  0  0  0  0  0  0  0  0  0
   -3.6090    1.3820    0.4960 C   0  0  0  0  0  0  0  0  0  0  0  0
   -3.7410    1.3840   -1.0310 C   0  0  1  0  0  0  0  0  0  0  0  0
   -2.1610    1.5540   -1.8410 S   0  0  0  0  0  0  0  0  0  0  0  0
   -1.1780    0.1020   -1.5030 C   0  0  0  0  0  0  0  0  0  0  0  0
   -1.1570   -1.0470   -2.2440 N   0  0  0  0  0  0  0  0  0  0  0  0
   -0.2860   -1.9230   -1.6830 C   0  0  0  0  0  0  0  0  0  0  0  0
    0.2430   -1.3030   -0.5710 C   0  0  0  0  0  0  0  0  0  0  0  0
    1.2430   -1.8450    0.3850 C   0  0  0  0  0  0  0  0  0  0  0  0
    1.1750   -1.5890    1.5920 O   0  0  0  0  0  0  0  0  0  0  0  0
    2.2900   -2.6690   -0.0960 N   0  0  0  0  0  0  0  0  0  0  0  0
    3.3170   -3.2650    0.6600 C   0  0  0  0  0  0  0  0  0  0  0  0
    3.5010   -3.1610    2.0040 C   0  0  0  0  0  0  0  0  0  0  0  0
    4.5410   -3.7760    2.7090 C   0  0  0  0  0  0  0  0  0  0  0  0
    5.4320   -4.5340    1.9810 C   0  0  0  0  0  0  0  0  0  0  0  0
    5.2700   -4.6580    0.6110 C   0  0  0  0  0  0  0  0  0  0  0  0
    6.1640   -5.4120   -0.0830 F   0  0  0  0  0  0  0  0  0  0  0  0
    4.2380   -4.0410   -0.0520 C   0  0  0  0  0  0  0  0  0  0  0  0
    4.1240   -4.2190   -1.5350 C   0  0  0  0  0  0  0  0  0  0  0  0
   -0.3020   -0.0510   -0.4510 C   0  0  0  0  0  0  0  0  0  0  0  0
    0.0240    0.9030    0.6110 C   0  0  0  0  0  0  0  0  0  0  0  0
   -0.6380    0.9140    1.6990 O   0  0  0  0  0  0  0  0  0  0  0  0
    1.0620    1.8430    0.5010 N   0  0  0  0  0  0  0  0  0  0  0  0
    1.3240    2.7450    1.5810 C   0  0  0  0  0  0  0  0  0  0  0  0
    2.5950    3.4980    1.2580 C   0  0  0  0  0  0  0  0  0  0  0  0
    2.3160    4.2900   -0.0130 C   0  0  1  0  0  0  0  0  0  0  0  0
    3.3660    5.3200   -0.2770 C   0  0  0  0  0  0  0  0  0  0  0  0
    2.0990    3.3390   -1.1420 C   0  0  2  0  0  0  0  0  0  0  0  0
    1.0340    3.7530   -1.9750 O   0  0  0  0  0  0  0  0  0  0  0  0
    1.8700    1.9160   -0.6860 C   0  0  0  0  0  0  0  0  0  0  0  0
   -4.4770    0.1390   -1.3720 C   0  0  0  0  0  0  0  0  0  0  0  0
   -4.2380   -0.5790   -2.3610 O   0  0  0  0  0  0  0  0  0  0  0  0
  1  2  1  0
  2  3  1  0
  3  4  1  0
  3 35  1  0
  4  5  1  0
  5  6  1  0
  6  7  1  0
  7  8  1  6
  7 35  1  0
  8  9  1  0
  9 10  1  0
  9 24  2  0
 10 11  1  0
 11 12  2  0
 12 13  1  0
 12 24  1  0
 13 14  2  0
 13 15  1  0
 15 16  1  0
 16 17  2  0
 16 22  1  0
 17 18  1  0
 18 19  2  0
 19 20  1  0
 20 21  1  0
 20 22  2  0
 22 23  1  0
 24 25  1  0
 25 26  2  0
 25 27  1  0
 27 28  1  0
 27 34  1  0
 28 29  1  0
 29 30  1  0
 30 31  1  6
 30 32  1  0
 32 33  1  1
 32 34  1  0
 35 36  2  0
M  END
