
     RDKit          3D

 14 15  0  0  0  0  0  0  0  0999 V2000
    4.4410   -0.3450   -1.0730 O   0  0  0  0  0  0  0  0  0  0  0  0
    4.1020    0.0950    0.2180 C   0  0  0  0  0  0  0  0  0  0  0  0
    2.8430    0.7740    0.2470 N   0  0  0  0  0  0  0  0  0  0  0  0
    1.7290    0.2380   -0.0520 C   0  0  0  0  0  0  0  0  0  0  0  0
    1.5590   -1.1690   -0.4770 C   0  0  0  0  0  0  0  0  0  0  0  0
    0.1790   -1.3610   -0.2390 O   0  0  0  0  0  0  0  0  0  0  0  0
   -0.5170   -0.1660   -0.1800 C   0  0  0  0  0  0  0  0  0  0  0  0
   -1.9870    0.0130   -0.2310 C   0  0  0  0  0  0  0  0  0  0  0  0
   -2.8950   -0.9370   -0.3420 C   0  0  0  0  0  0  0  0  0  0  0  0
   -4.1850   -0.3790   -0.3570 N   0  0  0  0  0  0  0  0  0  0  0  0
   -4.0390    0.9880    0.1050 C   0  0  0  0  0  0  0  0  0  0  0  0
   -2.6680    1.2200   -0.1710 O   0  0  0  0  0  0  0  0  0  0  0  0
    0.3840    0.7950   -0.0690 C   0  0  0  0  0  0  0  0  0  0  0  0
    0.0790    2.1470    0.0190 O   0  0  0  0  0  0  0  0  0  0  0  0
  1  2  1  0
  2  3  1  0
  3  4  2  3
  4  5  1  0
  4 13  1  0
  5  6  1  0
  6  7  1  0
  7  8  1  0
  7 13  2  0
  8  9  2  0
  8 12  1  0
  9 10  1  0
 10 11  1  0
 11 12  1  0
 13 14  1  0
M  END
