
     RDKit          3D

 15 16  0  0  0  0  0  0  0  0999 V2000
    3.0790    0.4240   -1.6550 N   0  0  0  0  0  0  0  0  0  0  0  0
    3.1520   -0.6320   -0.6890 C   0  0  0  0  0  0  0  0  0  0  0  0
    2.5700   -0.1510    0.6200 C   0  0  0  0  0  0  0  0  0  0  0  0
    1.1320    0.2640    0.4930 C   0  0  2  0  0  0  0  0  0  0  0  0
    0.6440    0.7210    1.8220 C   0  0  0  0  0  0  0  0  0  0  0  0
   -0.7020    0.3070    2.1450 N   0  0  0  0  0  0  0  0  0  0  0  0
   -1.6550    0.2130    1.0580 C   0  0  0  0  0  0  0  0  0  0  0  0
   -2.8560    0.6460    1.2160 N   0  0  0  0  0  0  0  0  0  0  0  0
   -4.0180    0.5570   -0.0380 S   0  0  2  0  0  0  0  0  0  0  0  0
   -4.4040    1.9990   -0.3670 O   0  0  0  0  0  0  0  0  0  0  0  0
   -5.2470   -0.2030    0.3920 O   0  0  0  0  0  0  0  0  0  0  0  0
   -3.2790   -0.1820   -1.4480 C   0  0  0  0  0  0  0  0  0  0  0  0
   -1.8740   -0.5480   -1.2430 C   0  0  0  0  0  0  0  0  0  0  0  0
   -1.1710   -0.3790   -0.1660 C   0  0  0  0  0  0  0  0  0  0  0  0
    0.2770   -0.8220   -0.1170 C   0  0  0  0  0  0  0  0  0  0  0  0
  1  2  1  0
  2  3  1  0
  4  3  1  1
  4  5  1  0
  4 15  1  0
  5  6  1  0
  6  7  1  0
  7  8  2  0
  7 14  1  0
  8  9  1  0
  9 10  2  0
  9 11  2  0
  9 12  1  6
 12 13  1  0
 13 14  2  0
 14 15  1  0
M  END
