
     RDKit          3D

 15 16  0  0  0  0  0  0  0  0999 V2000
    0.3120   -0.1520   -1.1850 O   0  0  0  0  0  0  0  0  0  0  0  0
   -0.5670    0.0290   -0.3040 C   0  0  0  0  0  0  0  0  0  0  0  0
   -0.1570    0.6070    0.9320 N   0  0  0  0  0  0  0  0  0  0  0  0
    1.1650    0.9700    1.1820 N   0  0  0  0  0  0  0  0  0  0  0  0
    2.2840    0.3310    0.5880 C   0  0  0  0  0  0  0  0  0  0  0  0
    2.8630    0.7100   -0.5320 C   0  0  0  0  0  0  0  0  0  0  0  0
    4.0270    0.0280   -1.1300 C   0  0  0  0  0  0  0  0  0  0  0  0
    4.4440   -1.0510   -0.3750 O   0  0  0  0  0  0  0  0  0  0  0  0
    3.8430   -1.4440    0.7890 C   0  0  0  0  0  0  0  0  0  0  0  0
    2.8110   -0.7990    1.2670 N   0  0  0  0  0  0  0  0  0  0  0  0
   -1.9890   -0.3540   -0.5570 C   0  0  2  0  0  0  0  0  0  0  0  0
   -2.8250    0.8650   -0.4110 C   0  0  0  0  0  0  0  0  0  0  0  0
   -4.2690    0.4750   -0.2790 C   0  0  0  0  0  0  0  0  0  0  0  0
   -4.1000   -0.9190    0.8940 S   0  0  0  0  0  0  0  0  0  0  0  0
   -2.3830   -1.3840    0.4380 C   0  0  0  0  0  0  0  0  0  0  0  0
  1  2  2  0
  2  3  1  0
 11  2  1  1
  3  4  1  0
  4  5  1  0
  5  6  2  0
  5 10  1  0
  6  7  1  0
  7  8  1  0
  8  9  1  0
  9 10  2  0
 11 12  1  0
 11 15  1  0
 12 13  1  0
 13 14  1  0
 14 15  1  0
M  END
