
     RDKit          3D

 15 16  0  0  0  0  0  0  0  0999 V2000
   -3.2720    0.2380    0.8100 C   0  0  0  0  0  0  0  0  0  0  0  0
   -2.2140    0.1080   -0.2610 C   0  0  2  0  0  0  0  0  0  0  0  0
   -2.2770    1.3260   -1.1400 C   0  0  0  0  0  0  0  0  0  0  0  0
   -2.3640   -1.1780   -1.0470 C   0  0  0  0  0  0  0  0  0  0  0  0
   -1.0190   -1.8900   -0.9440 C   0  0  0  0  0  0  0  0  0  0  0  0
   -0.0840   -0.7440   -0.7380 C   0  0  2  0  0  0  0  0  0  0  0  0
    1.2250   -1.1280   -0.3260 N   0  0  0  0  0  0  0  0  0  0  0  0
    2.2520   -0.1350   -0.0840 C   0  0  0  0  0  0  0  0  0  0  0  0
    1.9730    1.1140   -0.0870 N   0  0  0  0  0  0  0  0  0  0  0  0
    3.4490    1.9450    0.2340 S   0  0  1  0  0  0  0  0  0  0  0  0
    3.7030    3.0050   -0.7730 O   0  0  0  0  0  0  0  0  0  0  0  0
    3.5500    2.4130    1.6400 O   0  0  0  0  0  0  0  0  0  0  0  0
    4.5220    0.5900   -0.0610 N   0  0  0  0  0  0  0  0  0  0  0  0
    3.6310   -0.4960    0.1740 C   0  0  0  0  0  0  0  0  0  0  0  0
   -0.8200    0.0510    0.3490 C   0  0  0  0  0  0  0  0  0  0  0  0
  2  1  1  1
  2  3  1  0
  2  4  1  0
  2 15  1  0
  4  5  1  0
  5  6  1  0
  6  7  1  1
  6 15  1  0
  7  8  1  0
  8  9  2  0
  8 14  1  0
  9 10  1  0
 10 11  2  0
 10 12  2  0
 10 13  1  1
 13 14  1  0
M  END
