
     RDKit          3D

 22 24  0  0  0  0  0  0  0  0999 V2000
   -5.1000   -0.5040    1.0270 C   0  0  0  0  0  0  0  0  0  0  0  0
   -3.7000   -0.2020    0.6360 C   0  0  0  0  0  0  0  0  0  0  0  0
   -2.5790   -0.4710    1.4310 C   0  0  0  0  0  0  0  0  0  0  0  0
   -1.4880   -0.0510    0.7260 C   0  0  0  0  0  0  0  0  0  0  0  0
   -0.1260   -0.1220    1.1370 N   0  0  0  0  0  0  0  0  0  0  0  0
    0.3390   -0.6450    2.3600 C   0  0  0  0  0  0  0  0  0  0  0  0
   -0.5240   -1.0910    3.1770 O   0  0  0  0  0  0  0  0  0  0  0  0
    1.7500   -0.7240    2.7870 C   0  0  0  0  0  0  0  0  0  0  0  0
    2.6910   -0.3240    1.8550 O   0  0  0  0  0  0  0  0  0  0  0  0
    2.9400   -0.8960    0.6280 C   0  0  0  0  0  0  0  0  0  0  0  0
    2.2600   -1.8940    0.2900 O   0  0  0  0  0  0  0  0  0  0  0  0
    3.9490   -0.4070   -0.3010 C   0  0  0  0  0  0  0  0  0  0  0  0
    4.2160   -0.9540   -1.5220 C   0  0  0  0  0  0  0  0  0  0  0  0
    5.2130   -0.2500   -2.1210 C   0  0  0  0  0  0  0  0  0  0  0  0
    5.5560    0.7280   -1.2680 N   0  0  0  0  0  0  0  0  0  0  0  0
    4.8100    0.6610   -0.1560 C   0  0  0  0  0  0  0  0  0  0  0  0
   -1.9730    0.4570   -0.4670 C   0  0  0  0  0  0  0  0  0  0  0  0
   -1.2430    1.0020   -1.5130 C   0  0  0  0  0  0  0  0  0  0  0  0
   -1.9180    1.4580   -2.6280 C   0  0  0  0  0  0  0  0  0  0  0  0
   -3.2880    1.3530   -2.6590 C   0  0  0  0  0  0  0  0  0  0  0  0
   -3.9780    0.8040   -1.5980 C   0  0  0  0  0  0  0  0  0  0  0  0
   -3.3080    0.3570   -0.5020 N   0  0  0  0  0  0  0  0  0  0  0  0
  1  2  1  0
  2  3  2  0
  2 22  1  0
  3  4  1  0
  4  5  1  0
  4 17  2  0
  5  6  1  0
  6  7  2  0
  6  8  1  0
  8  9  1  0
  9 10  1  0
 10 11  2  0
 10 12  1  0
 12 13  1  0
 12 16  2  0
 13 14  2  0
 14 15  1  0
 15 16  1  0
 17 18  1  0
 17 22  1  0
 18 19  2  0
 19 20  1  0
 20 21  2  0
 21 22  1  0
M  END
