
     RDKit          3D

 22 24  0  0  0  0  0  0  0  0999 V2000
    2.9710    1.7820    2.0660 C   0  0  0  0  0  0  0  0  0  0  0  0
    3.7790    1.3400    1.1870 C   0  0  0  0  0  0  0  0  0  0  0  0
    3.5550    0.4950    0.0550 C   0  0  0  0  0  0  0  0  0  0  0  0
    4.6680    0.1980   -0.6490 C   0  0  0  0  0  0  0  0  0  0  0  0
    4.7150   -0.6380   -1.8420 C   0  0  0  0  0  0  0  0  0  0  0  0
    2.3180   -0.1040   -0.3750 C   0  0  0  0  0  0  0  0  0  0  0  0
    1.0610    0.2740   -0.0530 C   0  0  0  0  0  0  0  0  0  0  0  0
   -0.1100   -0.4350   -0.4440 C   0  0  0  0  0  0  0  0  0  0  0  0
   -1.3820    0.1610   -0.0780 C   0  0  0  0  0  0  0  0  0  0  0  0
   -1.5590    1.5150    0.1410 N   0  0  0  0  0  0  0  0  0  0  0  0
   -2.7920    1.7650    0.5080 C   0  0  0  0  0  0  0  0  0  0  0  0
   -3.2520    2.9290    0.7790 O   0  0  0  0  0  0  0  0  0  0  0  0
   -3.4780    0.5910    0.5470 N   0  0  0  0  0  0  0  0  0  0  0  0
   -2.6070   -0.3820    0.1900 C   0  0  0  0  0  0  0  0  0  0  0  0
   -3.1220   -1.7380    0.2250 C   0  0  0  0  0  0  0  0  0  0  0  0
   -2.3890   -2.6900   -0.0770 O   0  0  0  0  0  0  0  0  0  0  0  0
   -4.4480   -1.9290    0.6090 O   0  0  0  0  0  0  0  0  0  0  0  0
   -5.4210   -0.9070    0.5480 C   0  0  0  0  0  0  0  0  0  0  0  0
   -4.8520    0.4280    0.8960 C   0  0  0  0  0  0  0  0  0  0  0  0
    0.1170   -1.5440   -1.1860 C   0  0  0  0  0  0  0  0  0  0  0  0
    1.3990   -1.9690   -1.5420 C   0  0  0  0  0  0  0  0  0  0  0  0
    2.4250   -1.2540   -1.1350 N   0  0  0  0  0  0  0  0  0  0  0  0
  1  2  2  0
  2  3  1  0
  3  4  2  3
  3  6  1  0
  4  5  1  0
  6  7  2  0
  6 22  1  0
  7  8  1  0
  8  9  1  0
  8 20  2  0
  9 10  1  0
  9 14  2  0
 10 11  1  0
 11 12  2  0
 11 13  1  0
 13 14  1  0
 13 19  1  0
 14 15  1  0
 15 16  2  0
 15 17  1  0
 17 18  1  0
 18 19  1  0
 20 21  1  0
 21 22  2  0
M  END
