
     RDKit          3D

 22 24  0  0  0  0  0  0  0  0999 V2000
    6.0050   -1.1360    0.0030 C   0  0  0  0  0  0  0  0  0  0  0  0
    5.9490   -0.2550    1.1460 N   0  0  0  0  0  0  0  0  0  0  0  0
    4.9430    0.4760    1.4400 C   0  0  0  0  0  0  0  0  0  0  0  0
    4.9970    1.3010    2.5820 N   0  0  0  0  0  0  0  0  0  0  0  0
    3.7730    0.4410    0.5940 C   0  0  0  0  0  0  0  0  0  0  0  0
    2.6630    1.1660    0.8100 N   0  0  0  0  0  0  0  0  0  0  0  0
    1.7450    0.9190   -0.1470 C   0  0  0  0  0  0  0  0  0  0  0  0
    0.4820    1.3930   -0.3730 C   0  0  0  0  0  0  0  0  0  0  0  0
   -0.2340    0.9490   -1.4550 C   0  0  0  0  0  0  0  0  0  0  0  0
   -1.5080    1.4470   -1.6560 O   0  0  0  0  0  0  0  0  0  0  0  0
   -2.5560    0.7520   -1.0600 C   0  0  0  0  0  0  0  0  0  0  0  0
   -3.1390   -0.2530   -1.7970 C   0  0  0  0  0  0  0  0  0  0  0  0
   -4.1840   -0.9930   -1.2840 C   0  0  0  0  0  0  0  0  0  0  0  0
   -4.6310   -0.7040   -0.0170 C   0  0  0  0  0  0  0  0  0  0  0  0
   -5.6830   -1.4360    0.5210 O   0  0  0  0  0  0  0  0  0  0  0  0
   -6.1940   -1.1960    1.8120 C   0  0  0  0  0  0  0  0  0  0  0  0
   -4.0420    0.3090    0.7230 C   0  0  0  0  0  0  0  0  0  0  0  0
   -2.9980    1.0500    0.2130 C   0  0  0  0  0  0  0  0  0  0  0  0
    0.3380    0.0290   -2.2980 C   0  0  0  0  0  0  0  0  0  0  0  0
    1.6150   -0.4490   -2.0680 C   0  0  0  0  0  0  0  0  0  0  0  0
    2.3480   -0.0080   -0.9780 C   0  0  0  0  0  0  0  0  0  0  0  0
    3.5420   -0.2540   -0.4940 O   0  0  0  0  0  0  0  0  0  0  0  0
  1  2  1  0
  2  3  2  3
  3  4  1  0
  3  5  1  0
  5  6  2  0
  5 22  1  0
  6  7  1  0
  7  8  2  0
  7 21  1  0
  8  9  1  0
  9 10  1  0
  9 19  2  0
 10 11  1  0
 11 12  2  0
 11 18  1  0
 12 13  1  0
 13 14  2  0
 14 15  1  0
 14 17  1  0
 15 16  1  0
 17 18  2  0
 19 20  1  0
 20 21  2  0
 21 22  1  0
M  END
