
     RDKit          3D

 22 24  0  0  0  0  0  0  0  0999 V2000
    0.8680   -0.1520    2.4710 O   0  0  0  0  0  0  0  0  0  0  0  0
    0.9710   -0.1890    1.2270 C   0  0  0  0  0  0  0  0  0  0  0  0
   -0.2410   -0.2850    0.3850 C   0  0  0  0  0  0  0  0  0  0  0  0
   -1.4410   -0.3200    1.3040 C   0  0  0  0  0  0  0  0  0  0  0  0
   -2.6700   -0.4080    0.4730 C   0  0  0  0  0  0  0  0  0  0  0  0
   -3.5200    0.5300    0.5700 N   0  0  0  0  0  0  0  0  0  0  0  0
   -4.7270    0.5800   -0.1520 C   0  0  0  0  0  0  0  0  0  0  0  0
   -5.6560    1.5790   -0.0640 C   0  0  0  0  0  0  0  0  0  0  0  0
   -6.8240    1.5890   -0.7900 C   0  0  0  0  0  0  0  0  0  0  0  0
   -7.0620    0.5670   -1.6240 N   0  0  0  0  0  0  0  0  0  0  0  0
   -6.1620   -0.4290   -1.7280 C   0  0  0  0  0  0  0  0  0  0  0  0
   -4.9890   -0.4720   -1.0220 C   0  0  0  0  0  0  0  0  0  0  0  0
   -4.0670   -1.4760   -1.1160 O   0  0  0  0  0  0  0  0  0  0  0  0
   -2.8490   -1.5570   -0.4180 C   0  0  0  0  0  0  0  0  0  0  0  0
    2.2520   -0.1400    0.6210 N   0  0  0  0  0  0  0  0  0  0  0  0
    3.4690   -0.0450    1.4270 C   0  0  0  0  0  0  0  0  0  0  0  0
    4.6150   -0.0140    0.4820 C   0  0  0  0  0  0  0  0  0  0  0  0
    5.6010   -0.8860    0.4310 C   0  0  0  0  0  0  0  0  0  0  0  0
    6.5140   -0.4710   -0.6530 C   0  0  0  0  0  0  0  0  0  0  0  0
    5.8920    0.7510   -1.1920 C   0  0  0  0  0  0  0  0  0  0  0  0
    4.7830    1.0150   -0.5270 C   0  0  0  0  0  0  0  0  0  0  0  0
    3.9570    2.1080   -0.7940 O   0  0  0  0  0  0  0  0  0  0  0  0
  1  2  2  0
  2  3  1  0
  2 15  1  0
  3  4  1  0
  4  5  1  0
  5  6  2  0
  5 14  1  0
  6  7  1  0
  7  8  2  0
  7 12  1  0
  8  9  1  0
  9 10  2  0
 10 11  1  0
 11 12  2  0
 12 13  1  0
 13 14  1  0
 15 16  1  0
 16 17  1  0
 17 18  2  0
 17 21  1  0
 18 19  1  0
 19 20  1  0
 20 21  2  0
 21 22  1  0
M  END
