
     RDKit          3D

 24 25  0  0  0  0  0  0  0  0999 V2000
   -7.0930    0.5100   -1.3720 C   0  0  0  0  0  0  0  0  0  0  0  0
   -5.7670    0.3180   -0.6290 C   0  0  0  0  0  0  0  0  0  0  0  0
   -5.1120    1.6660   -0.5960 C   0  0  0  0  0  0  0  0  0  0  0  0
   -3.7790    1.6870    0.1040 C   0  0  0  0  0  0  0  0  0  0  0  0
   -2.7560    0.8370   -0.5230 C   0  0  0  0  0  0  0  0  0  0  0  0
   -3.0610    0.2680   -1.6100 O   0  0  0  0  0  0  0  0  0  0  0  0
   -1.4310    0.6430    0.0620 N   0  0  0  0  0  0  0  0  0  0  0  0
   -1.1310    1.2770    1.2940 C   0  0  0  0  0  0  0  0  0  0  0  0
   -1.5050    0.5130    2.5340 C   0  0  0  0  0  0  0  0  0  0  0  0
   -0.8750   -0.8300    2.6560 C   0  0  0  0  0  0  0  0  0  0  0  0
   -1.1700   -1.6940    1.6020 O   0  0  0  0  0  0  0  0  0  0  0  0
   -0.5580   -0.0990   -0.7150 C   0  0  0  0  0  0  0  0  0  0  0  0
   -1.0020   -0.7020   -1.7850 O   0  0  0  0  0  0  0  0  0  0  0  0
    0.8470   -0.2820   -0.4670 C   0  0  0  0  0  0  0  0  0  0  0  0
    1.7780   -1.0110   -1.1110 C   0  0  0  0  0  0  0  0  0  0  0  0
    3.0580   -0.9870   -0.7170 C   0  0  0  0  0  0  0  0  0  0  0  0
    3.3810   -0.2060    0.3480 C   0  0  0  0  0  0  0  0  0  0  0  0
    1.8190    0.5410    0.8350 S   0  0  0  0  0  0  0  0  0  0  0  0
    4.6300    0.0910    1.0740 C   0  0  0  0  0  0  0  0  0  0  0  0
    5.6560    0.5820    0.0820 C   0  0  0  0  0  0  0  0  0  0  0  0
    6.1900   -0.6690   -0.6280 C   0  0  0  0  0  0  0  0  0  0  0  0
    5.2980   -0.9060   -1.8060 C   0  0  0  0  0  0  0  0  0  0  0  0
    4.1260   -1.8080   -1.4380 C   0  0  1  0  0  0  0  0  0  0  0  0
    4.5590   -2.8520   -0.6580 O   0  0  0  0  0  0  0  0  0  0  0  0
  1  2  1  0
  2  3  1  0
  3  4  1  0
  4  5  1  0
  5  6  2  0
  5  7  1  0
  7  8  1  0
  7 12  1  0
  8  9  1  0
  9 10  1  0
 10 11  1  0
 12 13  2  0
 12 14  1  0
 14 15  2  0
 14 18  1  0
 15 16  1  0
 16 17  2  0
 16 23  1  0
 17 18  1  0
 17 19  1  0
 19 20  1  0
 20 21  1  0
 21 22  1  0
 22 23  1  0
 23 24  1  1
M  END
