
     RDKit          3D

 24 25  0  0  0  0  0  0  0  0999 V2000
   -4.1900    1.6570    1.2390 C   0  0  0  0  0  0  0  0  0  0  0  0
   -2.8960    0.8670    1.0830 C   0  0  1  0  0  0  0  0  0  0  0  0
   -2.0930    0.9940    2.3490 C   0  0  0  0  0  0  0  0  0  0  0  0
   -0.8230    0.2670    2.3040 C   0  0  0  0  0  0  0  0  0  0  0  0
    0.1610    0.6560    1.2700 C   0  0  0  0  0  0  0  0  0  0  0  0
   -0.1680    1.6310    0.5550 O   0  0  0  0  0  0  0  0  0  0  0  0
    1.3590   -0.0580    1.1510 N   0  0  0  0  0  0  0  0  0  0  0  0
    2.3420    0.2390    0.1950 C   0  0  0  0  0  0  0  0  0  0  0  0
    2.1510    1.0230   -0.9110 C   0  0  0  0  0  0  0  0  0  0  0  0
    3.1930    1.2930   -1.8130 C   0  0  0  0  0  0  0  0  0  0  0  0
    4.4310    0.7700   -1.5960 C   0  0  0  0  0  0  0  0  0  0  0  0
    5.4780    1.0040   -2.4460 O   0  0  0  0  0  0  0  0  0  0  0  0
    4.6400   -0.0280   -0.4780 C   0  0  0  0  0  0  0  0  0  0  0  0
    6.2350   -0.6940   -0.2160 S   0  0  1  0  0  0  0  0  0  0  0  0
    6.7270   -1.7240   -1.5500 C   0  0  0  0  0  0  0  0  0  0  0  0
    7.2080    0.4390   -0.0430 O   0  0  0  0  0  0  0  0  0  0  0  0
    6.2080   -1.5030    1.0440 O   0  0  0  0  0  0  0  0  0  0  0  0
    3.6280   -0.2940    0.4040 C   0  0  0  0  0  0  0  0  0  0  0  0
   -3.2140   -0.6060    0.8360 C   0  0  0  0  0  0  0  0  0  0  0  0
   -4.0340   -0.7520   -0.4090 C   0  0  0  0  0  0  0  0  0  0  0  0
   -5.2470   -1.2750   -0.4790 C   0  0  0  0  0  0  0  0  0  0  0  0
   -5.7170   -1.2400   -1.8730 C   0  0  0  0  0  0  0  0  0  0  0  0
   -4.6070   -0.6230   -2.6050 C   0  0  0  0  0  0  0  0  0  0  0  0
   -3.6480   -0.3510   -1.7370 C   0  0  0  0  0  0  0  0  0  0  0  0
  2  1  1  1
  2  3  1  0
  2 19  1  0
  3  4  1  0
  4  5  1  0
  5  6  2  0
  5  7  1  0
  7  8  1  0
  8  9  2  0
  8 18  1  0
  9 10  1  0
 10 11  2  0
 11 12  1  0
 11 13  1  0
 13 14  1  0
 13 18  2  0
 14 15  1  6
 14 16  2  0
 14 17  2  0
 19 20  1  0
 20 21  2  0
 20 24  1  0
 21 22  1  0
 22 23  1  0
 23 24  2  0
M  END
