
     RDKit          3D

 24 25  0  0  0  0  0  0  0  0999 V2000
   -4.1420    3.4980   -0.7130 C   0  0  0  0  0  0  0  0  0  0  0  0
   -4.5810    2.0930   -0.4550 C   0  0  0  0  0  0  0  0  0  0  0  0
   -3.2930    1.1760   -0.3660 C   0  0  0  0  0  0  0  0  0  0  0  0
   -3.7510   -0.1760   -0.1160 C   0  0  0  0  0  0  0  0  0  0  0  0
   -2.8840   -1.3290    0.0830 C   0  0  0  0  0  0  0  0  0  0  0  0
   -1.5860   -1.3840    0.2180 C   0  0  0  0  0  0  0  0  0  0  0  0
   -0.8140   -0.1020    0.1740 C   0  0  0  0  0  0  0  0  0  0  0  0
   -0.8220   -2.6280    0.3900 C   0  0  0  0  0  0  0  0  0  0  0  0
    0.6040   -2.7290    0.5900 C   0  0  0  0  0  0  0  0  0  0  0  0
    1.1180   -3.9130    0.7090 O   0  0  0  0  0  0  0  0  0  0  0  0
    1.5320   -1.7350    0.6800 O   0  0  0  0  0  0  0  0  0  0  0  0
    2.9080   -1.9260    0.8790 C   0  0  0  0  0  0  0  0  0  0  0  0
    3.6620   -0.6210    0.9320 C   0  0  0  0  0  0  0  0  0  0  0  0
    3.4820    0.0750   -0.2980 O   0  0  0  0  0  0  0  0  0  0  0  0
    4.1260    1.3360   -0.4270 C   0  0  0  0  0  0  0  0  0  0  0  0
    3.5670    2.3710    0.1140 C   0  0  0  0  0  0  0  0  0  0  0  0
    3.9770    3.7690    0.1520 C   0  0  0  0  0  0  0  0  0  0  0  0
    5.5240    4.0170   -0.7180 S   0  0  0  0  0  0  0  0  0  0  0  0
    6.0760    2.4670   -1.3590 C   0  0  0  0  0  0  0  0  0  0  0  0
    5.3740    1.3840   -1.1600 C   0  0  0  0  0  0  0  0  0  0  0  0
   -1.4930   -3.8010    0.4040 C   0  0  0  0  0  0  0  0  0  0  0  0
   -0.8160   -5.0550    0.5680 N   0  0  0  0  0  0  0  0  0  0  0  0
   -2.8510   -3.7480    0.2540 O   0  0  0  0  0  0  0  0  0  0  0  0
   -3.6510   -2.6510    0.1540 C   0  0  0  0  0  0  0  0  0  0  0  0
  1  2  1  0
  2  3  1  0
  3  4  1  0
  4  5  1  0
  5  6  2  0
  5 24  1  0
  6  7  1  0
  6  8  1  0
  8  9  1  0
  8 21  2  0
  9 10  2  0
  9 11  1  0
 11 12  1  0
 12 13  1  0
 13 14  1  0
 14 15  1  0
 15 16  2  0
 15 20  1  0
 16 17  1  0
 17 18  1  0
 18 19  1  0
 19 20  2  0
 21 22  1  0
 21 23  1  0
 23 24  1  0
M  END
