
     RDKit          3D

 24 25  0  0  0  0  0  0  0  0999 V2000
   -0.9370    3.4670    2.1760 C   0  0  0  0  0  0  0  0  0  0  0  0
   -1.1440    3.2080    0.7000 C   0  0  0  0  0  0  0  0  0  0  0  0
   -1.1930    1.8590    0.3720 O   0  0  0  0  0  0  0  0  0  0  0  0
   -0.1840    0.9490    0.5890 C   0  0  0  0  0  0  0  0  0  0  0  0
    0.8480    1.4210    1.1290 O   0  0  0  0  0  0  0  0  0  0  0  0
   -0.3030   -0.4980    0.2110 C   0  0  0  0  0  0  0  0  0  0  0  0
   -1.4320   -0.9430   -0.3640 C   0  0  0  0  0  0  0  0  0  0  0  0
   -2.6440   -0.2710   -0.7220 N   0  0  0  0  0  0  0  0  0  0  0  0
   -3.6800   -1.0500   -1.3320 C   0  0  0  0  0  0  0  0  0  0  0  0
   -3.5200   -2.2630   -1.5370 O   0  0  0  0  0  0  0  0  0  0  0  0
   -4.9760   -0.4230   -1.7360 C   0  0  2  0  0  0  0  0  0  0  0  0
   -5.6670    0.1060   -0.5170 C   0  0  0  0  0  0  0  0  0  0  0  0
   -5.7760   -1.4140   -2.2910 O   0  0  0  0  0  0  0  0  0  0  0  0
   -1.1630   -2.6950   -0.6460 S   0  0  0  0  0  0  0  0  0  0  0  0
    0.5190   -2.6670    0.0670 C   0  0  0  0  0  0  0  0  0  0  0  0
    1.4060   -3.8530    0.1710 C   0  0  0  0  0  0  0  0  0  0  0  0
    0.7150   -1.3560    0.4450 C   0  0  0  0  0  0  0  0  0  0  0  0
    2.0590   -0.9940    1.0840 C   0  0  0  0  0  0  0  0  0  0  0  0
    2.8870   -0.3050    0.0580 C   0  0  0  0  0  0  0  0  0  0  0  0
    2.5380   -0.0620   -1.1870 C   0  0  0  0  0  0  0  0  0  0  0  0
    3.6630    0.6350   -1.8300 C   0  0  0  0  0  0  0  0  0  0  0  0
    4.7100    0.7600   -0.7760 C   0  0  0  0  0  0  0  0  0  0  0  0
    4.2350    0.2090    0.3010 C   0  0  0  0  0  0  0  0  0  0  0  0
    4.9790    0.1260    1.5920 C   0  0  0  0  0  0  0  0  0  0  0  0
  1  2  1  0
  2  3  1  0
  3  4  1  0
  4  5  2  0
  4  6  1  0
  6  7  2  0
  6 17  1  0
  7  8  1  0
  7 14  1  0
  8  9  1  0
  9 10  2  0
  9 11  1  0
 11 12  1  1
 11 13  1  0
 14 15  1  0
 15 16  1  0
 15 17  2  0
 17 18  1  0
 18 19  1  0
 19 20  2  0
 19 23  1  0
 20 21  1  0
 21 22  1  0
 22 23  2  0
 23 24  1  0
M  END
