
     RDKit          3D

 24 25  0  0  0  0  0  0  0  0999 V2000
   -4.8990    1.6700   -1.4060 C   0  0  0  0  0  0  0  0  0  0  0  0
   -3.5070    1.3990   -0.9800 C   0  0  0  0  0  0  0  0  0  0  0  0
   -3.1260    0.1120   -0.6130 C   0  0  0  0  0  0  0  0  0  0  0  0
   -1.8410   -0.1770   -0.2110 C   0  0  0  0  0  0  0  0  0  0  0  0
   -1.3630   -1.3860    0.1680 O   0  0  0  0  0  0  0  0  0  0  0  0
   -1.9030   -2.6310    0.3060 C   0  0  0  0  0  0  0  0  0  0  0  0
   -2.9820   -2.7340    1.3270 C   0  0  0  0  0  0  0  0  0  0  0  0
   -2.4970   -2.3560    2.6760 C   0  0  0  0  0  0  0  0  0  0  0  0
   -1.3510   -2.0190    2.8310 O   0  0  0  0  0  0  0  0  0  0  0  0
   -0.9280    0.8940   -0.1890 C   0  0  0  0  0  0  0  0  0  0  0  0
    0.3890    0.6340    0.2150 O   0  0  0  0  0  0  0  0  0  0  0  0
    1.3490    0.2700   -0.7150 C   0  0  0  0  0  0  0  0  0  0  0  0
    0.9600    0.1940   -1.9070 O   0  0  0  0  0  0  0  0  0  0  0  0
    2.7480   -0.0140   -0.3440 C   0  0  0  0  0  0  0  0  0  0  0  0
    3.5530   -0.3480   -1.3320 C   0  0  0  0  0  0  0  0  0  0  0  0
    3.0660   -0.4210   -2.6650 N   0  0  0  0  0  0  0  0  0  0  0  0
    4.9910   -0.6740   -1.1950 C   0  0  0  0  0  0  0  0  0  0  0  0
    5.6510   -0.3140    0.4520 S   0  0  0  0  0  0  0  0  0  0  0  0
    4.2390   -0.6910    1.5630 C   0  0  1  0  0  0  0  0  0  0  0  0
    4.5500   -0.3630    2.9760 C   0  0  0  0  0  0  0  0  0  0  0  0
    3.0860    0.1070    1.0670 C   0  0  0  0  0  0  0  0  0  0  0  0
   -1.2900    2.1710   -0.5490 C   0  0  0  0  0  0  0  0  0  0  0  0
   -2.5870    2.4190   -0.9460 C   0  0  0  0  0  0  0  0  0  0  0  0
   -3.0140    3.7800   -1.3400 C   0  0  0  0  0  0  0  0  0  0  0  0
  1  2  1  0
  2  3  2  0
  2 23  1  0
  3  4  1  0
  4  5  1  0
  4 10  2  0
  5  6  1  0
  6  7  1  0
  7  8  1  0
  8  9  2  0
 10 11  1  0
 10 22  1  0
 11 12  1  0
 12 13  2  0
 12 14  1  0
 14 15  2  0
 14 21  1  0
 15 16  1  0
 15 17  1  0
 17 18  1  0
 18 19  1  0
 19 20  1  1
 19 21  1  0
 22 23  2  0
 23 24  1  0
M  END
