
     RDKit          3D

 24 25  0  0  0  0  0  0  0  0999 V2000
    9.0990   -0.1980    0.3100 C   0  0  0  0  0  0  0  0  0  0  0  0
    8.0590    0.1160   -0.5660 O   0  0  0  0  0  0  0  0  0  0  0  0
    7.0640   -0.7340   -0.4640 O   0  0  0  0  0  0  0  0  0  0  0  0
    5.8210   -0.0760   -0.5410 C   0  0  0  0  0  0  0  0  0  0  0  0
    4.7240   -1.0990   -0.4170 C   0  0  0  0  0  0  0  0  0  0  0  0
    3.4540   -0.4610   -0.4910 O   0  0  0  0  0  0  0  0  0  0  0  0
    2.2930   -1.2120   -0.3990 C   0  0  0  0  0  0  0  0  0  0  0  0
    2.4120   -2.4550   -0.2500 O   0  0  0  0  0  0  0  0  0  0  0  0
    0.9800   -0.5700   -0.4730 C   0  0  0  0  0  0  0  0  0  0  0  0
   -0.1950   -1.2720   -0.3860 C   0  0  0  0  0  0  0  0  0  0  0  0
   -1.4350   -0.6710   -0.4560 C   0  0  0  0  0  0  0  0  0  0  0  0
   -1.5080    0.6860   -0.6200 C   0  0  0  0  0  0  0  0  0  0  0  0
   -2.7810    1.4450   -0.7100 C   0  0  2  0  0  0  0  0  0  0  0  0
   -2.7210    2.6380    0.1150 N   0  0  0  0  0  0  0  0  0  0  0  0
   -3.9690    0.6380   -0.4680 C   0  0  0  0  0  0  0  0  0  0  0  0
   -4.8320    0.3330   -1.5000 C   0  0  0  0  0  0  0  0  0  0  0  0
   -5.9670   -0.4300   -1.3230 C   0  0  0  0  0  0  0  0  0  0  0  0
   -6.2220   -0.8910   -0.0490 C   0  0  0  0  0  0  0  0  0  0  0  0
   -7.6710   -1.8850    0.2640 S   0  0  0  0  0  0  0  0  0  0  0  0
   -5.3490   -0.5810    0.9880 C   0  0  0  0  0  0  0  0  0  0  0  0
   -4.2140    0.1830    0.8040 C   0  0  0  0  0  0  0  0  0  0  0  0
   -3.3640    0.4490    1.9750 C   0  0  0  0  0  0  0  0  0  0  0  0
   -0.3360    1.4070   -0.7100 C   0  0  0  0  0  0  0  0  0  0  0  0
    0.9050    0.7930   -0.6380 C   0  0  0  0  0  0  0  0  0  0  0  0
  1  2  1  0
  2  3  1  0
  3  4  1  0
  4  5  1  0
  5  6  1  0
  6  7  1  0
  7  8  2  0
  7  9  1  0
  9 10  2  0
  9 24  1  0
 10 11  1  0
 11 12  2  0
 12 13  1  0
 12 23  1  0
 13 14  1  1
 13 15  1  0
 15 16  2  0
 15 21  1  0
 16 17  1  0
 17 18  2  0
 18 19  1  0
 18 20  1  0
 20 21  2  0
 21 22  1  0
 23 24  2  0
M  END
