
     RDKit          3D

 27 28  0  0  0  0  0  0  0  0999 V2000
   -3.0440    1.5820   -2.1200 O   0  0  0  0  0  0  0  0  0  0  0  0
   -3.8650    0.9270   -1.4400 C   0  0  0  0  0  0  0  0  0  0  0  0
   -4.8590    0.2330   -2.1010 O   0  0  0  0  0  0  0  0  0  0  0  0
   -6.1730    0.3080   -1.5820 C   0  0  0  0  0  0  0  0  0  0  0  0
   -6.1880    0.4850   -0.2070 O   0  0  0  0  0  0  0  0  0  0  0  0
   -5.0270   -0.0820    0.3830 C   0  0  0  0  0  0  0  0  0  0  0  0
   -3.8810    0.8200    0.0190 C   0  0  1  0  0  0  0  0  0  0  0  0
   -2.6320    0.7100    0.7400 C   0  0  1  0  0  0  0  0  0  0  0  0
   -2.9140    0.6190    2.1260 O   0  0  0  0  0  0  0  0  0  0  0  0
   -1.5340   -0.1800    0.4460 C   0  0  1  0  0  0  0  0  0  0  0  0
   -1.3950   -1.5020    1.1080 C   0  0  0  0  0  0  0  0  0  0  0  0
   -2.5030   -2.4920    0.9240 C   0  0  0  0  0  0  0  0  0  0  0  0
   -2.1090   -3.6690    1.6060 O   0  0  0  0  0  0  0  0  0  0  0  0
   -1.1230   -0.2750   -0.8990 O   0  0  0  0  0  0  0  0  0  0  0  0
    0.1400    0.2450   -1.1190 C   0  0  2  0  0  0  0  0  0  0  0  0
    0.1440    1.2070   -2.2640 C   0  0  0  0  0  0  0  0  0  0  0  0
    1.4100    1.0610   -2.8560 O   0  0  0  0  0  0  0  0  0  0  0  0
    1.8580   -0.1940   -2.4960 C   0  0  1  0  0  0  0  0  0  0  0  0
    3.2560   -0.0930   -1.9520 C   0  0  0  0  0  0  0  0  0  0  0  0
    3.2690    0.7250   -0.8480 O   0  0  0  0  0  0  0  0  0  0  0  0
    4.5050    0.8820   -0.2730 C   0  0  1  0  0  0  0  0  0  0  0  0
    4.9750    2.1820   -0.2990 O   0  0  0  0  0  0  0  0  0  0  0  0
    4.5680    0.2920    1.1300 C   0  0  1  0  0  0  0  0  0  0  0  0
    4.2840   -1.0750    1.0410 O   0  0  0  0  0  0  0  0  0  0  0  0
    6.0040    0.3880    1.6390 C   0  0  0  0  0  0  0  0  0  0  0  0
    6.1530   -0.2070    2.8670 O   0  0  0  0  0  0  0  0  0  0  0  0
    0.9690   -0.7690   -1.6220 O   0  0  0  0  0  0  0  0  0  0  0  0
  1  2  2  0
  2  3  1  0
  2  7  1  0
  3  4  1  0
  4  5  1  0
  5  6  1  0
  7  6  1  6
  7  8  1  0
  8  9  1  1
  8 10  1  0
 10 11  1  6
 10 14  1  0
 11 12  1  0
 12 13  1  0
 15 14  1  6
 15 16  1  0
 15 27  1  0
 16 17  1  0
 17 18  1  0
 18 19  1  1
 18 27  1  0
 19 20  1  0
 20 21  1  0
 21 22  1  1
 21 23  1  0
 23 24  1  6
 23 25  1  0
 25 26  1  0
M  END
