
     RDKit          3D

 37 41  0  0  0  0  0  0  0  0999 V2000
   -7.3870    1.2960    1.2400 C   0  0  0  0  0  0  0  0  0  0  0  0
   -7.2680    2.0250   -0.0040 N   0  0  1  0  0  0  0  0  0  0  0  0
   -5.8840    2.2030   -0.3030 C   0  0  0  0  0  0  0  0  0  0  0  0
   -5.4470    1.1510   -1.2990 C   0  0  0  0  0  0  0  0  0  0  0  0
   -6.0980   -0.0830   -1.0300 N   0  0  0  0  0  0  0  0  0  0  0  0
   -5.4370   -1.2790   -1.3830 C   0  0  0  0  0  0  0  0  0  0  0  0
   -4.2230   -1.5930   -0.5690 C   0  0  0  0  0  0  0  0  0  0  0  0
   -4.2500   -2.7360    0.1150 C   0  0  0  0  0  0  0  0  0  0  0  0
   -3.2870   -3.3720    0.9980 C   0  0  0  0  0  0  0  0  0  0  0  0
   -3.6350   -4.6340    1.5890 C   0  0  0  0  0  0  0  0  0  0  0  0
   -3.9090   -5.6800    2.0610 N   0  0  0  0  0  0  0  0  0  0  0  0
   -2.0910   -2.8750    1.3100 C   0  0  0  0  0  0  0  0  0  0  0  0
   -1.4560   -1.6830    0.9100 N   0  0  0  0  0  0  0  0  0  0  0  0
   -0.1540   -1.4920    1.4660 C   0  0  0  0  0  0  0  0  0  0  0  0
    0.5060   -0.4370    1.1590 N   0  0  0  0  0  0  0  0  0  0  0  0
    0.0580    0.5800    0.3010 C   0  0  0  0  0  0  0  0  0  0  0  0
    0.8350    1.7230    0.0080 N   0  0  0  0  0  0  0  0  0  0  0  0
    1.6630    1.7710   -1.1590 C   0  0  0  0  0  0  0  0  0  0  0  0
    2.9950    1.1750   -1.0300 C   0  0  0  0  0  0  0  0  0  0  0  0
    3.4660    0.6950    0.1550 C   0  0  0  0  0  0  0  0  0  0  0  0
    4.7610    0.1710    0.2200 C   0  0  0  0  0  0  0  0  0  0  0  0
    5.5530    0.1380   -0.8890 C   0  0  0  0  0  0  0  0  0  0  0  0
    6.9230   -0.4000   -0.8810 C   0  0  0  0  0  0  0  0  0  0  0  0
    7.3050   -0.8810    0.4450 N   0  0  1  0  0  0  0  0  0  0  0  0
    8.5260   -1.6640    0.2650 C   0  0  0  0  0  0  0  0  0  0  0  0
    7.5550    0.2740    1.3030 C   0  0  2  0  0  0  0  0  0  0  0  0
    8.9320    0.4790    1.8650 C   0  0  0  0  0  0  0  0  0  0  0  0
    7.7960   -0.0030    2.7510 C   0  0  0  0  0  0  0  0  0  0  0  0
    5.0520    0.6330   -2.0790 C   0  0  0  0  0  0  0  0  0  0  0  0
    5.8110    0.6190   -3.2080 F   0  0  0  0  0  0  0  0  0  0  0  0
    3.7890    1.1510   -2.1750 C   0  0  0  0  0  0  0  0  0  0  0  0
    3.2800    1.6410   -3.3340 F   0  0  0  0  0  0  0  0  0  0  0  0
   -1.1670    0.4630   -0.2610 C   0  0  0  0  0  0  0  0  0  0  0  0
   -2.0040   -0.7020    0.0230 C   0  0  0  0  0  0  0  0  0  0  0  0
   -3.1440   -0.6740   -0.5790 N   0  0  0  0  0  0  0  0  0  0  0  0
   -7.5150   -0.0540   -1.2740 C   0  0  0  0  0  0  0  0  0  0  0  0
   -8.0000    1.3710   -1.0720 C   0  0  0  0  0  0  0  0  0  0  0  0
  2  1  1  1
  2  3  1  0
  2 37  1  0
  3  4  1  0
  4  5  1  0
  5  6  1  0
  5 36  1  0
  6  7  1  0
  7  8  2  0
  7 35  1  0
  8  9  1  0
  9 10  1  0
  9 12  2  0
 10 11  3  0
 12 13  1  0
 13 14  1  0
 13 34  1  0
 14 15  2  0
 15 16  1  0
 16 17  1  0
 16 33  2  0
 17 18  1  0
 18 19  1  0
 19 20  2  0
 19 31  1  0
 20 21  1  0
 21 22  2  0
 22 23  1  0
 22 29  1  0
 23 24  1  0
 24 25  1  6
 24 26  1  0
 26 27  1  6
 26 28  1  0
 27 28  1  0
 29 30  1  0
 29 31  2  0
 31 32  1  0
 33 34  1  0
 34 35  2  0
 36 37  1  0
M  CHG  2   2   1  24   1
M  END
