
     RDKit          3D

 37 40  0  0  0  0  0  0  0  0999 V2000
    0.5790   -0.8460    2.0680 N   0  0  0  0  0  0  0  0  0  0  0  0
    1.8890   -0.7600    1.5590 C   0  0  0  0  0  0  0  0  0  0  0  0
    2.8310   -0.6210    2.4100 O   0  0  0  0  0  0  0  0  0  0  0  0
    2.1740   -0.8230    0.1500 C   0  0  0  0  0  0  0  0  0  0  0  0
    3.4580   -0.7380   -0.3470 C   0  0  0  0  0  0  0  0  0  0  0  0
    4.5490   -0.5850    0.5210 N   0  0  0  0  0  0  0  0  0  0  0  0
    5.8220   -0.5840   -0.2250 C   0  0  0  0  0  0  0  0  0  0  0  0
    6.2680    0.8160   -0.3180 C   0  0  0  0  0  0  0  0  0  0  0  0
    7.3710    1.3620    0.1250 C   0  0  0  0  0  0  0  0  0  0  0  0
    7.5460    2.7530   -0.1030 C   0  0  0  0  0  0  0  0  0  0  0  0
    8.3380    3.5100    0.5610 O   0  0  0  0  0  0  0  0  0  0  0  0
    6.7300    3.3240   -1.2030 C   0  0  0  0  0  0  0  0  0  0  0  0
    5.3370    2.1170   -1.1110 S   0  0  0  0  0  0  0  0  0  0  0  0
    3.6960   -0.8000   -1.6620 N   0  0  0  0  0  0  0  0  0  0  0  0
    2.7040   -0.9450   -2.5160 N   0  0  0  0  0  0  0  0  0  0  0  0
    1.4450   -1.0320   -2.0920 C   0  0  0  0  0  0  0  0  0  0  0  0
    0.5040   -1.1690   -2.9170 O   0  0  0  0  0  0  0  0  0  0  0  0
    1.1240   -0.9750   -0.7370 C   0  0  0  0  0  0  0  0  0  0  0  0
   -0.2440   -1.0730   -0.3490 N   0  0  0  0  0  0  0  0  0  0  0  0
   -1.0950    0.0280   -0.2180 C   0  0  0  0  0  0  0  0  0  0  0  0
   -0.4820    1.1520   -0.4660 O   0  0  0  0  0  0  0  0  0  0  0  0
   -2.4720    0.1550    0.1180 C   0  0  0  0  0  0  0  0  0  0  0  0
   -3.4730   -0.5920    0.3390 C   0  0  0  0  0  0  0  0  0  0  0  0
   -4.8070    0.0950    0.7090 C   0  0  0  0  0  0  0  0  0  0  0  0
   -4.6340    1.5510    0.6720 C   0  0  0  0  0  0  0  0  0  0  0  0
   -4.2660    2.2850    1.8080 C   0  0  0  0  0  0  0  0  0  0  0  0
   -4.1140    3.6460    1.7910 C   0  0  0  0  0  0  0  0  0  0  0  0
   -4.3240    4.3190    0.6430 N   0  0  0  0  0  0  0  0  0  0  0  0
   -4.6790    3.6590   -0.4750 C   0  0  0  0  0  0  0  0  0  0  0  0
   -4.8380    2.2960   -0.4850 C   0  0  0  0  0  0  0  0  0  0  0  0
   -3.6680   -1.9840    0.0850 C   0  0  0  0  0  0  0  0  0  0  0  0
   -3.0060   -2.7020   -0.8550 C   0  0  0  0  0  0  0  0  0  0  0  0
   -3.1590   -4.0660   -1.0410 C   0  0  0  0  0  0  0  0  0  0  0  0
   -4.0330   -4.7610   -0.2360 C   0  0  0  0  0  0  0  0  0  0  0  0
   -4.7270   -4.0720    0.7290 C   0  0  0  0  0  0  0  0  0  0  0  0
   -5.5880   -4.7660    1.5170 F   0  0  0  0  0  0  0  0  0  0  0  0
   -4.5510   -2.7200    0.8880 C   0  0  0  0  0  0  0  0  0  0  0  0
  1  2  1  0
  2  3  2  0
  2  4  1  0
  4  5  1  0
  4 18  2  0
  5  6  1  0
  5 14  2  0
  6  7  1  0
  7  8  1  0
  8  9  2  0
  8 13  1  0
  9 10  1  0
 10 11  2  0
 10 12  1  0
 12 13  1  0
 14 15  1  0
 15 16  1  0
 16 17  2  0
 16 18  1  0
 18 19  1  0
 19 20  1  0
 20 21  2  0
 20 22  1  0
 22 23  2  3
 23 24  1  0
 23 31  1  0
 24 25  1  0
 25 26  2  0
 25 30  1  0
 26 27  1  0
 27 28  2  0
 28 29  1  0
 29 30  2  0
 31 32  2  0
 31 37  1  0
 32 33  1  0
 33 34  2  0
 34 35  1  0
 35 36  1  0
 35 37  2  0
M  CHG  2   6   1  28   1
M  END
