
     RDKit          3D

 37 39  0  0  0  0  0  0  0  0999 V2000
    8.0940   -2.4710    1.9080 C   0  0  0  0  0  0  0  0  0  0  0  0
    8.4190   -1.2710    1.4760 C   0  0  0  0  0  0  0  0  0  0  0  0
    9.8570   -0.9500    1.4770 N   0  0  0  0  0  0  0  0  0  0  0  0
    7.4290   -0.2440    1.1540 C   0  0  0  0  0  0  0  0  0  0  0  0
    6.0380   -0.6850    1.5820 C   0  0  0  0  0  0  0  0  0  0  0  0
    5.0060    0.3860    1.4410 C   0  0  0  0  0  0  0  0  0  0  0  0
    4.6870    0.8500    0.1200 N   0  0  0  0  0  0  0  0  0  0  0  0
    5.3320    1.7880   -0.6090 C   0  0  0  0  0  0  0  0  0  0  0  0
    6.7210    2.6250   -0.3000 S   0  0  0  0  0  0  0  0  0  0  0  0
    4.5970    1.9360   -1.6990 O   0  0  0  0  0  0  0  0  0  0  0  0
    3.5440    1.1620   -1.6950 C   0  0  0  0  0  0  0  0  0  0  0  0
    2.4920    0.9690   -2.5640 C   0  0  0  0  0  0  0  0  0  0  0  0
    1.4890    0.0800   -2.2740 C   0  0  0  0  0  0  0  0  0  0  0  0
    0.3630   -0.1590   -3.2150 C   0  0  0  0  0  0  0  0  0  0  0  0
    0.4860    0.6580   -4.3870 N   0  0  0  0  0  0  0  0  0  0  0  0
    1.4820   -0.6600   -1.1000 C   0  0  0  0  0  0  0  0  0  0  0  0
    0.2580   -1.4070   -0.7380 C   0  0  0  0  0  0  0  0  0  0  0  0
    0.0910   -2.6200   -0.7290 O   0  0  0  0  0  0  0  0  0  0  0  0
   -0.7970   -0.4720   -0.3520 N   0  0  0  0  0  0  0  0  0  0  0  0
   -2.0050   -0.8680    0.0140 N   0  0  0  0  0  0  0  0  0  0  0  0
   -2.9570    0.2460    0.3760 C   0  0  0  0  0  0  0  0  0  0  0  0
   -2.5190    1.3710    0.3470 O   0  0  0  0  0  0  0  0  0  0  0  0
   -4.1580   -0.3500    0.6480 N   0  0  0  0  0  0  0  0  0  0  0  0
   -5.0110    1.1120    1.0210 C   0  0  0  0  0  0  0  0  0  0  0  0
   -4.3680    2.0840    0.9010 O   0  0  0  0  0  0  0  0  0  0  0  0
   -6.3400    0.8680    1.4350 C   0  0  0  0  0  0  0  0  0  0  0  0
   -6.7050    1.3750    2.6670 C   0  0  0  0  0  0  0  0  0  0  0  0
   -5.7570    2.0090    3.4170 F   0  0  0  0  0  0  0  0  0  0  0  0
   -7.9990    1.2190    3.1270 C   0  0  0  0  0  0  0  0  0  0  0  0
   -8.8840    0.5750    2.3620 C   0  0  0  0  0  0  0  0  0  0  0  0
   -8.5630    0.0420    1.0890 C   0  0  0  0  0  0  0  0  0  0  0  0
   -9.5180   -0.4930    0.4970 C   0  0  0  0  0  0  0  0  0  0  0  0
   -7.2610    0.1890    0.6070 C   0  0  0  0  0  0  0  0  0  0  0  0
   -6.8870   -0.1470   -0.5850 C   0  0  0  0  0  0  0  0  0  0  0  0
   -7.4330   -0.8180   -1.7210 C   0  0  0  0  0  0  0  0  0  0  0  0
    2.5390   -0.4740   -0.2370 C   0  0  0  0  0  0  0  0  0  0  0  0
    3.5640    0.4370   -0.5360 C   0  0  0  0  0  0  0  0  0  0  0  0
  1  2  2  0
  2  3  1  0
  2  4  1  0
  4  5  1  0
  5  6  1  0
  6  7  1  0
  7  8  1  0
  7 37  1  0
  8  9  2  0
  8 10  1  0
 10 11  1  0
 11 12  2  0
 11 37  1  0
 12 13  1  0
 13 14  1  0
 13 16  2  0
 14 15  1  0
 16 17  1  0
 16 36  1  0
 17 18  2  0
 17 19  1  0
 19 20  1  0
 20 21  1  0
 21 22  2  0
 21 23  1  0
 23 24  1  0
 24 25  2  0
 24 26  1  0
 26 27  2  0
 26 33  1  0
 27 28  1  0
 27 29  1  0
 29 30  2  0
 30 31  1  0
 31 32  2  0
 31 33  1  0
 33 34  2  3
 34 35  1  0
 36 37  2  0
M  CHG  2   3   1  15   1
M  END
