
     RDKit          3D

 21 22  0  0  0  0  0  0  0  0999 V2000
    0.6780   -3.8090   -2.7620 N   0  0  0  0  0  0  0  0  0  0  0  0
    0.8460   -2.8910   -2.0750 C   0  0  0  0  0  0  0  0  0  0  0  0
    1.0780   -1.7590   -1.2290 C   0  0  0  0  0  0  0  0  0  0  0  0
    2.3200   -1.2510   -0.9590 C   0  0  0  0  0  0  0  0  0  0  0  0
    2.5450   -0.1620   -0.1460 C   0  0  0  0  0  0  0  0  0  0  0  0
    3.8610    0.3270    0.1030 N   0  0  0  0  0  0  0  0  0  0  0  0
    4.1240    1.4610    0.9460 C   0  0  0  0  0  0  0  0  0  0  0  0
    5.6130    1.7200    1.0030 C   0  0  0  0  0  0  0  0  0  0  0  0
    6.2980    0.5450    1.5470 N   0  0  0  0  0  0  0  0  0  0  0  0
    1.4470    0.3990    0.3890 N   0  0  0  0  0  0  0  0  0  0  0  0
    0.1980   -0.0690    0.1500 C   0  0  0  0  0  0  0  0  0  0  0  0
   -0.0390   -1.1530   -0.6590 C   0  0  0  0  0  0  0  0  0  0  0  0
   -1.3100   -1.6940   -0.9070 N   0  0  0  0  0  0  0  0  0  0  0  0
   -2.5420   -1.0930   -0.5650 C   0  0  0  0  0  0  0  0  0  0  0  0
   -3.5990   -1.8880   -0.0880 C   0  0  0  0  0  0  0  0  0  0  0  0
   -4.7930   -1.3210    0.2030 C   0  0  0  0  0  0  0  0  0  0  0  0
   -4.9750    0.0430    0.0310 C   0  0  0  0  0  0  0  0  0  0  0  0
   -6.2490    0.5980    0.3500 N   0  0  0  0  0  0  0  0  0  0  0  0
   -3.9520    0.8290   -0.4340 C   0  0  0  0  0  0  0  0  0  0  0  0
   -4.1580    2.2290   -0.6040 N   0  0  0  0  0  0  0  0  0  0  0  0
   -2.7190    0.2580   -0.7370 C   0  0  0  0  0  0  0  0  0  0  0  0
  1  2  3  0
  2  3  1  0
  3  4  2  0
  3 12  1  0
  4  5  1  0
  5  6  1  0
  5 10  2  0
  6  7  1  0
  7  8  1  0
  8  9  1  0
 10 11  1  0
 11 12  2  0
 12 13  1  0
 13 14  1  0
 14 15  2  0
 14 21  1  0
 15 16  1  0
 16 17  2  0
 17 18  1  0
 17 19  1  0
 19 20  1  0
 19 21  2  0
M  CHG  2   9   1  18   1
M  END
