
     RDKit          3D

 21 22  0  0  0  0  0  0  0  0999 V2000
   -5.9970    1.5660   -0.9970 C   0  0  0  0  0  0  0  0  0  0  0  0
   -4.6080    1.3090   -0.5890 C   0  0  0  0  0  0  0  0  0  0  0  0
   -4.2020    0.1270   -0.3340 N   0  0  0  0  0  0  0  0  0  0  0  0
   -2.8500   -0.1240    0.0630 C   0  0  0  0  0  0  0  0  0  0  0  0
   -1.8060    0.3240   -0.7810 N   0  0  0  0  0  0  0  0  0  0  0  0
   -0.6460    0.9030   -0.2200 C   0  0  0  0  0  0  0  0  0  0  0  0
    0.5580    0.3790   -0.3440 C   0  0  0  0  0  0  0  0  0  0  0  0
    1.6600    1.0360    0.2550 N   0  0  0  0  0  0  0  0  0  0  0  0
    2.9600    0.4490    0.1080 C   0  0  0  0  0  0  0  0  0  0  0  0
    4.0590    1.0700    0.6840 C   0  0  0  0  0  0  0  0  0  0  0  0
    5.3190    0.5190    0.5520 C   0  0  0  0  0  0  0  0  0  0  0  0
    6.4200    1.1820    1.1560 N   0  0  0  0  0  0  0  0  0  0  0  0
    5.4750   -0.6550   -0.1580 C   0  0  0  0  0  0  0  0  0  0  0  0
    4.4080   -1.3010   -0.7460 C   0  0  0  0  0  0  0  0  0  0  0  0
    3.1420   -0.7220   -0.5970 C   0  0  0  0  0  0  0  0  0  0  0  0
    2.0050   -1.3400   -1.1790 N   0  0  0  0  0  0  0  0  0  0  0  0
    0.7980   -0.8630   -1.0840 C   0  0  0  0  0  0  0  0  0  0  0  0
   -0.2940   -1.5300   -1.6880 N   0  0  0  0  0  0  0  0  0  0  0  0
   -2.6330   -0.7600    1.1980 C   0  0  0  0  0  0  0  0  0  0  0  0
   -3.7890   -1.1900    2.0150 C   0  0  0  0  0  0  0  0  0  0  0  0
   -1.2850   -1.0070    1.5890 N   0  0  0  0  0  0  0  0  0  0  0  0
  1  2  1  0
  2  3  2  3
  3  4  1  0
  4  5  1  0
  4 19  2  3
  5  6  1  0
  6  7  2  3
  7  8  1  0
  7 17  1  0
  8  9  1  0
  9 10  2  0
  9 15  1  0
 10 11  1  0
 11 12  1  0
 11 13  2  0
 13 14  1  0
 14 15  2  0
 15 16  1  0
 16 17  2  0
 17 18  1  0
 19 20  1  0
 19 21  1  0
M  CHG  1  16   1
M  END
