
     RDKit          3D

 21 22  0  0  0  0  0  0  0  0999 V2000
   -6.1630    0.9260    1.1110 N   0  0  0  0  0  0  0  0  0  0  0  0
   -5.5120   -0.1110    0.3660 C   0  0  0  0  0  0  0  0  0  0  0  0
   -5.9550   -1.3090    0.3740 N   0  0  0  0  0  0  0  0  0  0  0  0
   -4.3330    0.2510   -0.4050 C   0  0  0  0  0  0  0  0  0  0  0  0
   -3.6590   -0.6640   -1.1550 C   0  0  0  0  0  0  0  0  0  0  0  0
   -2.5410   -0.2900   -1.8770 C   0  0  0  0  0  0  0  0  0  0  0  0
   -2.0870    0.9910   -1.8580 C   0  0  0  0  0  0  0  0  0  0  0  0
   -0.9400    1.4000   -2.6000 N   0  0  0  0  0  0  0  0  0  0  0  0
    0.1950    0.9590   -2.3010 N   0  0  0  0  0  0  0  0  0  0  0  0
    0.4730    0.0710   -1.2750 N   0  0  0  0  0  0  0  0  0  0  0  0
    1.7750   -0.0880   -0.7200 C   0  0  0  0  0  0  0  0  0  0  0  0
    2.7210   -0.8890   -1.3250 C   0  0  0  0  0  0  0  0  0  0  0  0
    4.0020   -1.0500   -0.7760 C   0  0  0  0  0  0  0  0  0  0  0  0
    4.3630   -0.4200    0.3780 C   0  0  0  0  0  0  0  0  0  0  0  0
    5.7030   -0.5630    0.9790 C   0  0  0  0  0  0  0  0  0  0  0  0
    6.0120    0.1120    2.1930 N   0  0  0  0  0  0  0  0  0  0  0  0
    6.6310   -1.2740    0.4690 N   0  0  0  0  0  0  0  0  0  0  0  0
    3.4100    0.3920    0.9960 C   0  0  0  0  0  0  0  0  0  0  0  0
    2.1540    0.5450    0.4510 C   0  0  0  0  0  0  0  0  0  0  0  0
   -2.7720    1.9200   -1.0960 C   0  0  0  0  0  0  0  0  0  0  0  0
   -3.8810    1.5740   -0.3720 C   0  0  0  0  0  0  0  0  0  0  0  0
  1  2  1  0
  2  3  2  0
  2  4  1  0
  4  5  2  0
  4 21  1  0
  5  6  1  0
  6  7  2  0
  7  8  1  0
  7 20  1  0
  8  9  2  3
  9 10  1  0
 10 11  1  0
 11 12  2  0
 11 19  1  0
 12 13  1  0
 13 14  2  0
 14 15  1  0
 14 18  1  0
 15 16  1  0
 15 17  2  0
 18 19  2  0
 20 21  2  0
M  CHG  2   3   1  17   1
M  END
