
     RDKit          3D

 21 22  0  0  0  0  0  0  0  0999 V2000
    4.6060   -1.2900   -2.2580 C   0  0  0  0  0  0  0  0  0  0  0  0
    4.7490   -0.3670   -1.3510 C   0  0  0  0  0  0  0  0  0  0  0  0
    6.0070   -0.1340   -0.7370 N   0  0  0  0  0  0  0  0  0  0  0  0
    3.6690    0.4490   -0.9580 N   0  0  0  0  0  0  0  0  0  0  0  0
    3.0920    0.5200    0.3550 C   0  0  0  0  0  0  0  0  0  0  0  0
    2.3110   -0.7090    0.7460 C   0  0  0  0  0  0  0  0  0  0  0  0
    1.8230   -0.4650    2.1750 C   0  0  0  0  0  0  0  0  0  0  0  0
    1.0090    0.7530    2.3160 C   0  0  0  0  0  0  0  0  0  0  0  0
   -0.2330    0.7370    1.5210 C   0  0  0  0  0  0  0  0  0  0  0  0
   -1.0190    1.8520    1.4380 N   0  0  0  0  0  0  0  0  0  0  0  0
   -2.1700    1.8450    0.7380 C   0  0  0  0  0  0  0  0  0  0  0  0
   -2.9950    3.0230    0.6800 N   0  0  0  0  0  0  0  0  0  0  0  0
   -2.6010    0.7200    0.0760 C   0  0  0  0  0  0  0  0  0  0  0  0
   -1.8080   -0.4020    0.1680 C   0  0  0  0  0  0  0  0  0  0  0  0
   -0.6460   -0.3710    0.8820 N   0  0  0  0  0  0  0  0  0  0  0  0
   -2.3390   -1.6350   -0.3990 C   0  0  0  0  0  0  0  0  0  0  0  0
   -3.5260   -1.7390   -0.9710 C   0  0  0  0  0  0  0  0  0  0  0  0
   -3.9950   -2.9800   -1.5210 N   0  0  0  0  0  0  0  0  0  0  0  0
   -4.5150   -0.6140   -1.0130 C   0  0  0  0  0  0  0  0  0  0  0  0
   -3.7830    0.6650   -0.7820 C   0  0  0  0  0  0  0  0  0  0  0  0
   -4.1530    1.7510   -1.3620 N   0  0  0  0  0  0  0  0  0  0  0  0
  1  2  2  0
  2  3  1  0
  2  4  1  0
  4  5  1  0
  5  6  1  0
  6  7  1  0
  7  8  1  0
  8  9  1  0
  9 10  2  0
  9 15  1  0
 10 11  1  0
 11 12  1  0
 11 13  2  0
 13 14  1  0
 13 20  1  0
 14 15  2  0
 14 16  1  0
 16 17  2  0
 17 18  1  0
 17 19  1  0
 19 20  1  0
 20 21  2  0
M  CHG  1  21   1
M  END
