
     RDKit          3D

 21 22  0  0  0  0  0  0  0  0999 V2000
    6.0040    0.7600    0.3290 C   0  0  0  0  0  0  0  0  0  0  0  0
    5.5300   -0.4490    0.1900 C   0  0  0  0  0  0  0  0  0  0  0  0
    4.3310   -0.8240   -0.5760 C   0  0  0  0  0  0  0  0  0  0  0  0
    3.4610    0.2750   -1.0570 C   0  0  0  0  0  0  0  0  0  0  0  0
    2.7860    1.1010   -0.0190 C   0  0  0  0  0  0  0  0  0  0  0  0
    1.9130    0.3110    0.8350 N   0  0  0  0  0  0  0  0  0  0  0  0
    2.2300   -0.3050    1.9850 C   0  0  0  0  0  0  0  0  0  0  0  0
    1.0980   -0.9340    2.4550 C   0  0  0  0  0  0  0  0  0  0  0  0
    0.1240   -0.6890    1.5880 N   0  0  0  0  0  0  0  0  0  0  0  0
    0.6190    0.0740    0.5940 C   0  0  0  0  0  0  0  0  0  0  0  0
   -0.1570    0.5340   -0.5260 N   0  0  0  0  0  0  0  0  0  0  0  0
   -1.5070    0.2140   -0.6610 C   0  0  0  0  0  0  0  0  0  0  0  0
   -1.9130   -0.6480   -1.5580 C   0  0  0  0  0  0  0  0  0  0  0  0
   -3.3210   -0.9760   -1.6910 C   0  0  0  0  0  0  0  0  0  0  0  0
   -3.7010   -1.8460   -2.6020 N   0  0  0  0  0  0  0  0  0  0  0  0
   -4.3520   -0.3710   -0.8440 C   0  0  1  0  0  0  0  0  0  0  0  0
   -5.0520   -1.4510   -0.1210 N   0  0  0  0  0  0  0  0  0  0  0  0
   -3.8030    0.5800    0.1290 C   0  0  0  0  0  0  0  0  0  0  0  0
   -4.7070    1.2560    1.0360 N   0  0  0  0  0  0  0  0  0  0  0  0
   -2.5100    0.8270    0.1920 C   0  0  0  0  0  0  0  0  0  0  0  0
   -2.1170    1.7850    1.1980 N   0  0  0  0  0  0  0  0  0  0  0  0
  1  2  2  0
  2  3  1  0
  3  4  1  0
  4  5  1  0
  5  6  1  0
  6  7  1  0
  6 10  1  0
  7  8  2  0
  8  9  1  0
  9 10  2  0
 10 11  1  0
 11 12  1  0
 12 13  2  0
 12 20  1  0
 13 14  1  0
 14 15  2  0
 14 16  1  0
 16 17  1  1
 16 18  1  0
 18 19  1  0
 18 20  2  0
 20 21  1  0
M  CHG  1  17   1
M  END
