
     RDKit          3D

 21 21  0  0  0  0  0  0  0  0999 V2000
   -3.5000   -3.9460   -0.5250 C   0  0  0  0  0  0  0  0  0  0  0  0
   -2.3570   -3.3460   -1.2580 C   0  0  0  0  0  0  0  0  0  0  0  0
   -1.9480   -2.1040   -1.1000 C   0  0  0  0  0  0  0  0  0  0  0  0
   -0.8100   -1.7240   -1.9190 C   0  0  0  0  0  0  0  0  0  0  0  0
    0.2590   -0.8840   -1.4090 C   0  0  0  0  0  0  0  0  0  0  0  0
    0.0680   -0.1580   -0.1280 C   0  0  0  0  0  0  0  0  0  0  0  0
    1.0210   -0.0750    0.5990 N   0  0  0  0  0  0  0  0  0  0  0  0
    2.1150   -0.0500    1.2970 N   0  0  0  0  0  0  0  0  0  0  0  0
    3.4080   -0.5300    0.8370 C   0  0  0  0  0  0  0  0  0  0  0  0
    4.1960   -1.4010    1.6370 N   0  0  0  0  0  0  0  0  0  0  0  0
    3.8280   -0.1490   -0.3030 N   0  0  0  0  0  0  0  0  0  0  0  0
    3.2460    0.7000   -1.2620 C   0  0  0  0  0  0  0  0  0  0  0  0
    4.2410    1.6460   -1.8080 N   0  0  0  0  0  0  0  0  0  0  0  0
   -1.1610    0.4570    0.3840 C   0  0  0  0  0  0  0  0  0  0  0  0
   -1.1550    1.7680    0.9750 C   0  0  0  0  0  0  0  0  0  0  0  0
   -0.0860    2.5200    1.0560 C   0  0  0  0  0  0  0  0  0  0  0  0
   -0.1750    3.8530    1.6850 C   0  0  0  0  0  0  0  0  0  0  0  0
    0.8810    4.5630    1.7480 N   0  0  0  0  0  0  0  0  0  0  0  0
   -2.3780   -0.1280    0.3740 C   0  0  0  0  0  0  0  0  0  0  0  0
   -3.5050    0.6630    0.9450 C   0  0  0  0  0  0  0  0  0  0  0  0
   -2.7530   -1.4170   -0.1370 N   0  0  0  0  0  0  0  0  0  0  0  0
  1  2  1  0
  2  3  2  3
  3  4  1  0
  3 21  1  0
  4  5  1  0
  5  6  1  0
  6  7  2  3
  6 14  1  0
  7  8  1  0
  8  9  1  0
  9 10  1  0
  9 11  2  3
 11 12  1  0
 12 13  1  0
 14 15  1  0
 14 19  2  0
 15 16  2  3
 16 17  1  0
 17 18  2  0
 19 20  1  0
 19 21  1  0
M  CHG  1  18   1
M  END
