
     RDKit          3D

 20 20  0  0  0  0  0  0  0  0999 V2000
   -3.9720   -0.8660   -1.1490 N   0  0  0  0  0  0  0  0  0  0  0  0
   -3.3970   -0.8980    0.1650 C   0  0  1  0  0  0  0  0  0  0  0  0
   -2.9680   -2.3350    0.4360 C   0  0  0  0  0  0  0  0  0  0  0  0
   -2.3960   -2.3960    1.7280 O   0  0  0  0  0  0  0  0  0  0  0  0
   -2.2660    0.0670    0.3580 C   0  0  1  0  0  0  0  0  0  0  0  0
   -1.2050   -0.1770   -0.5250 O   0  0  0  0  0  0  0  0  0  0  0  0
    0.0840   -0.5080   -0.1060 C   0  0  0  0  0  0  0  0  0  0  0  0
    0.2450   -0.5760    1.1360 O   0  0  0  0  0  0  0  0  0  0  0  0
    1.1420   -0.7520   -0.9850 N   0  0  0  0  0  0  0  0  0  0  0  0
    2.4670   -1.0840   -0.6090 C   0  0  0  0  0  0  0  0  0  0  0  0
    3.2170   -0.0740    0.2000 C   0  0  1  0  0  0  0  0  0  0  0  0
    2.6480    0.2290    1.4040 O   0  0  0  0  0  0  0  0  0  0  0  0
    4.5950   -0.6600    0.4900 C   0  0  0  0  0  0  0  0  0  0  0  0
    5.4740    0.0410   -0.5060 C   0  0  0  0  0  0  0  0  0  0  0  0
    4.9280    1.3330   -0.4930 O   0  0  0  0  0  0  0  0  0  0  0  0
    3.5620    1.1630   -0.6100 C   0  0  0  0  0  0  0  0  0  0  0  0
   -2.8230    1.4650    0.2370 C   0  0  2  0  0  0  0  0  0  0  0  0
   -3.3150    1.7540   -1.0170 O   0  0  0  0  0  0  0  0  0  0  0  0
   -1.8500    2.5220    0.6990 C   0  0  0  0  0  0  0  0  0  0  0  0
   -2.5720    3.7360    0.7230 O   0  0  0  0  0  0  0  0  0  0  0  0
  2  1  1  6
  2  3  1  0
  2  5  1  0
  3  4  1  0
  5  6  1  6
  5 17  1  0
  6  7  1  0
  7  8  2  0
  7  9  1  0
  9 10  1  0
 10 11  1  0
 11 12  1  1
 11 13  1  0
 11 16  1  0
 13 14  1  0
 14 15  1  0
 15 16  1  0
 17 18  1  6
 17 19  1  0
 19 20  1  0
M  CHG  1   1   1
M  END
