
     RDKit          3D

 20 20  0  0  0  0  0  0  0  0999 V2000
   -3.0320   -3.5160   -0.3670 N   0  0  0  0  0  0  0  0  0  0  0  0
   -2.9610   -2.1470    0.1690 C   0  0  0  0  0  0  0  0  0  0  0  0
   -1.6970   -1.5100   -0.3250 C   0  0  2  0  0  0  0  0  0  0  0  0
   -0.6380   -2.3110    0.1530 O   0  0  0  0  0  0  0  0  0  0  0  0
   -1.4680   -0.1370    0.2890 C   0  0  1  0  0  0  0  0  0  0  0  0
   -0.2380    0.3120   -0.1350 O   0  0  0  0  0  0  0  0  0  0  0  0
    0.6540    0.5360    0.9060 C   0  0  0  0  0  0  0  0  0  0  0  0
    1.9540    1.0260    0.2530 C   0  0  2  0  0  0  0  0  0  0  0  0
    2.4660   -0.0190   -0.6800 C   0  0  0  0  0  0  0  0  0  0  0  0
    3.9020   -0.3740   -0.4770 C   0  0  0  0  0  0  0  0  0  0  0  0
    4.2550   -0.6560    0.8130 O   0  0  0  0  0  0  0  0  0  0  0  0
    3.5660    0.0200    1.7810 C   0  0  0  0  0  0  0  0  0  0  0  0
    3.0040    1.3180    1.2980 C   0  0  1  0  0  0  0  0  0  0  0  0
    4.0170    2.0510    0.6470 O   0  0  0  0  0  0  0  0  0  0  0  0
   -2.4860    0.8360   -0.1300 C   0  0  0  0  0  0  0  0  0  0  0  0
   -3.6830    0.6350    0.1530 O   0  0  0  0  0  0  0  0  0  0  0  0
   -2.1210    1.9890   -0.8460 N   0  0  0  0  0  0  0  0  0  0  0  0
   -3.1360    2.9210   -1.2410 C   0  0  0  0  0  0  0  0  0  0  0  0
   -4.3220    2.6690   -0.9300 O   0  0  0  0  0  0  0  0  0  0  0  0
   -2.8220    4.0710   -1.9480 O   0  0  0  0  0  0  0  0  0  0  0  0
  1  2  1  0
  2  3  1  0
  3  4  1  1
  3  5  1  0
  5  6  1  6
  5 15  1  0
  6  7  1  0
  8  7  1  1
  8  9  1  0
  8 13  1  0
  9 10  1  0
 10 11  1  0
 11 12  1  0
 12 13  1  0
 13 14  1  6
 15 16  2  0
 15 17  1  0
 17 18  1  0
 18 19  2  0
 18 20  1  0
M  CHG  1   1   1
M  END
