
     RDKit          3D

 25 26  0  0  0  0  0  0  0  0999 V2000
    6.8460   -2.7870    3.9840 N   0  0  0  0  0  0  0  0  0  0  0  0
    5.5470   -3.3660    4.1010 C   0  0  0  0  0  0  0  0  0  0  0  0
    5.4240   -4.5490    4.5490 N   0  0  0  0  0  0  0  0  0  0  0  0
    4.3590   -2.6050    3.6930 C   0  0  0  0  0  0  0  0  0  0  0  0
    3.0790   -3.0800    3.7390 C   0  0  0  0  0  0  0  0  0  0  0  0
    1.9590   -2.3340    3.3500 C   0  0  0  0  0  0  0  0  0  0  0  0
    2.1460   -1.0610    2.8960 C   0  0  0  0  0  0  0  0  0  0  0  0
    1.1280   -0.2600    2.4900 O   0  0  0  0  0  0  0  0  0  0  0  0
   -0.1950   -0.5860    2.4230 C   0  0  0  0  0  0  0  0  0  0  0  0
   -0.4840   -1.6240    1.3880 C   0  0  0  0  0  0  0  0  0  0  0  0
   -0.1200   -1.1230   -0.0130 C   0  0  0  0  0  0  0  0  0  0  0  0
   -0.8840    0.1270   -0.4020 C   0  0  0  0  0  0  0  0  0  0  0  0
   -2.3450   -0.1450   -0.3950 C   0  0  0  0  0  0  0  0  0  0  0  0
   -3.1220    0.9300   -0.7350 O   0  0  0  0  0  0  0  0  0  0  0  0
   -3.2350    1.6360   -1.8890 C   0  0  0  0  0  0  0  0  0  0  0  0
   -4.1320    2.7280   -1.8720 C   0  0  0  0  0  0  0  0  0  0  0  0
   -4.3000    3.4820   -2.9980 C   0  0  0  0  0  0  0  0  0  0  0  0
   -3.6240    3.2260   -4.1750 C   0  0  0  0  0  0  0  0  0  0  0  0
   -3.7880    4.0210   -5.3700 C   0  0  0  0  0  0  0  0  0  0  0  0
   -3.0460    3.6910   -6.5290 N   0  0  0  0  0  0  0  0  0  0  0  0
   -4.5830    5.0110   -5.3820 N   0  0  0  0  0  0  0  0  0  0  0  0
   -2.7490    2.1570   -4.1840 C   0  0  0  0  0  0  0  0  0  0  0  0
   -2.5610    1.3790   -3.0630 C   0  0  0  0  0  0  0  0  0  0  0  0
    3.4610   -0.5400    2.8370 C   0  0  0  0  0  0  0  0  0  0  0  0
    4.5160   -1.2960    3.2240 C   0  0  0  0  0  0  0  0  0  0  0  0
  1  2  1  0
  2  3  2  0
  2  4  1  0
  4  5  2  0
  4 25  1  0
  5  6  1  0
  6  7  2  0
  7  8  1  0
  7 24  1  0
  8  9  1  0
  9 10  1  0
 10 11  1  0
 11 12  1  0
 12 13  1  0
 13 14  1  0
 14 15  1  0
 15 16  2  0
 15 23  1  0
 16 17  1  0
 17 18  2  0
 18 19  1  0
 18 22  1  0
 19 20  1  0
 19 21  2  0
 22 23  2  0
 24 25  2  0
M  CHG  2   3   1  21   1
M  END
