
     RDKit          3D

 19 19  0  0  0  0  0  0  0  0999 V2000
    4.0910   -1.9390   -0.5150 N   0  0  0  0  0  0  0  0  0  0  0  0
    3.2310   -0.8640   -0.5410 O   0  0  0  0  0  0  0  0  0  0  0  0
    3.7200    0.3980   -0.2830 C   0  0  0  0  0  0  0  0  0  0  0  0
    4.9750    0.5370   -0.0240 O   0  0  0  0  0  0  0  0  0  0  0  0
    2.8300    1.5750   -0.3040 C   0  0  0  0  0  0  0  0  0  0  0  0
    1.5330    1.2540   -0.5100 O   0  0  0  0  0  0  0  0  0  0  0  0
    0.8690    0.5040    0.4000 C   0  0  0  0  0  0  0  0  0  0  0  0
   -0.5700    0.3430   -0.1290 C   0  0  1  0  0  0  0  0  0  0  0  0
   -1.2430    1.6600   -0.2900 C   0  0  2  0  0  0  0  0  0  0  0  0
   -0.5770    2.5500   -1.2110 N   0  0  0  0  0  0  0  0  0  0  0  0
   -1.4070    2.3600    1.0330 C   0  0  0  0  0  0  0  0  0  0  0  0
   -2.1870    3.5120    0.7760 O   0  0  0  0  0  0  0  0  0  0  0  0
   -0.5140   -0.4550   -1.3840 C   0  0  0  0  0  0  0  0  0  0  0  0
   -0.8860   -1.8770   -1.0340 C   0  0  0  0  0  0  0  0  0  0  0  0
   -1.3800   -1.8770    0.3880 C   0  0  2  0  0  0  0  0  0  0  0  0
   -0.5280   -2.6710    1.1410 O   0  0  0  0  0  0  0  0  0  0  0  0
   -2.7780   -2.4770    0.4990 C   0  0  0  0  0  0  0  0  0  0  0  0
   -2.8130   -3.7720    0.0220 O   0  0  0  0  0  0  0  0  0  0  0  0
   -1.3520   -0.4650    0.8840 C   0  0  0  0  0  0  0  0  0  0  0  0
  1  2  1  0
  2  3  1  0
  3  4  2  0
  3  5  1  0
  5  6  1  0
  6  7  1  0
  8  7  1  1
  8  9  1  0
  8 13  1  0
  8 19  1  0
  9 10  1  6
  9 11  1  0
 11 12  1  0
 13 14  1  0
 14 15  1  0
 15 16  1  1
 15 17  1  0
 15 19  1  0
 17 18  1  0
M  CHG  1  10   1
M  END
