
     RDKit          3D

 21 24  0  0  0  0  0  0  0  0999 V2000
    5.2990    3.1600   -0.6500 C   0  0  0  0  0  0  0  0  0  0  0  0
    3.9420    2.5300   -0.6380 C   0  0  0  0  0  0  0  0  0  0  0  0
    3.8400    1.1740   -0.8120 C   0  0  0  0  0  0  0  0  0  0  0  0
    2.5990    0.5760   -0.8040 C   0  0  0  0  0  0  0  0  0  0  0  0
    1.4420    1.3440   -0.6180 C   0  0  0  0  0  0  0  0  0  0  0  0
    0.1290    0.7060   -0.5900 C   0  0  0  0  0  0  0  0  0  0  0  0
   -0.1740   -0.2100    0.3980 C   0  0  0  0  0  0  0  0  0  0  0  0
   -1.3920   -0.8490    0.4630 C   0  0  0  0  0  0  0  0  0  0  0  0
   -2.3090   -0.5350   -0.5120 C   0  0  0  0  0  0  0  0  0  0  0  0
   -2.0500    0.3510   -1.4890 N   0  0  0  0  0  0  0  0  0  0  0  0
   -0.8400    0.9800   -1.5450 C   0  0  0  0  0  0  0  0  0  0  0  0
   -0.5560    1.8100   -2.4350 O   0  0  0  0  0  0  0  0  0  0  0  0
   -3.5400   -1.3110   -0.2810 C   0  0  0  0  0  0  0  0  0  0  0  0
   -3.3010   -2.1440    0.9310 C   0  0  0  0  0  0  0  0  0  0  0  0
   -3.8620   -3.0360    1.7350 C   0  0  0  0  0  0  0  0  0  0  0  0
   -2.8910   -3.3980    2.7850 C   0  0  0  0  0  0  0  0  0  0  0  0
   -1.7110   -2.5650    2.4720 C   0  0  0  0  0  0  0  0  0  0  0  0
   -1.9510   -1.8470    1.3920 C   0  0  0  0  0  0  0  0  0  0  0  0
    1.6400    2.6970   -0.4510 C   0  0  0  0  0  0  0  0  0  0  0  0
    0.6350    3.4360   -0.2800 O   0  0  0  0  0  0  0  0  0  0  0  0
    2.8470    3.2240   -0.4670 O   0  0  0  0  0  0  0  0  0  0  0  0
  1  2  1  0
  2  3  2  0
  2 21  1  0
  3  4  1  0
  4  5  2  0
  5  6  1  0
  5 19  1  0
  6  7  2  0
  6 11  1  0
  7  8  1  0
  8  9  2  0
  8 18  1  0
  9 10  1  0
  9 13  1  0
 10 11  1  0
 11 12  2  0
 13 14  1  0
 14 15  2  0
 14 18  1  0
 15 16  1  0
 16 17  1  0
 17 18  2  0
 19 20  2  0
 19 21  1  0
M  END
