
     RDKit          3D

 25 27  0  0  0  0  0  0  0  0999 V2000
   -2.5620   -3.1260   -1.6270 C   0  0  0  0  0  0  0  0  0  0  0  0
   -2.0350   -1.8610   -0.9770 C   0  0  0  0  0  0  0  0  0  0  0  0
   -2.6720   -0.7270   -1.0310 C   0  0  0  0  0  0  0  0  0  0  0  0
   -3.9020   -0.9230   -1.8060 O   0  0  0  0  0  0  0  0  0  0  0  0
   -2.4560    0.5690   -0.5250 C   0  0  0  0  0  0  0  0  0  0  0  0
   -3.3690    1.5070   -0.9460 C   0  0  0  0  0  0  0  0  0  0  0  0
   -3.3300    2.9110   -0.6160 C   0  0  0  0  0  0  0  0  0  0  0  0
   -4.5840    4.0130   -1.1510 Cl  0  0  0  0  0  0  0  0  0  0  0  0
   -2.3250    3.3570    0.1020 C   0  0  0  0  0  0  0  0  0  0  0  0
   -1.2910    2.3990    0.5000 C   0  0  0  0  0  0  0  0  0  0  0  0
    0.0150    2.4790    0.6460 C   0  0  0  0  0  0  0  0  0  0  0  0
    0.7760    3.6220    0.4100 O   0  0  0  0  0  0  0  0  0  0  0  0
    0.4960    1.1580    1.1170 C   0  0  0  0  0  0  0  0  0  0  0  0
   -0.5550    0.3140    1.2270 C   0  0  0  0  0  0  0  0  0  0  0  0
   -0.1990   -1.0210    1.7440 C   0  0  0  0  0  0  0  0  0  0  0  0
   -1.1340   -1.8650    1.9060 O   0  0  0  0  0  0  0  0  0  0  0  0
    1.1040   -1.3620    2.0650 O   0  0  0  0  0  0  0  0  0  0  0  0
    2.1670   -0.5870    1.5330 C   0  0  1  0  0  0  0  0  0  0  0  0
    3.3620   -0.5930    2.4750 C   0  0  0  0  0  0  0  0  0  0  0  0
    2.5360   -1.1870    0.2070 C   0  0  0  0  0  0  0  0  0  0  0  0
    3.6470   -0.4530   -0.4480 C   0  0  0  0  0  0  0  0  0  0  0  0
    4.2040   -0.8410   -1.7680 C   0  0  0  0  0  0  0  0  0  0  0  0
    4.1170    0.5070    0.1280 O   0  0  0  0  0  0  0  0  0  0  0  0
    1.7570    0.7630    1.4160 O   0  0  0  0  0  0  0  0  0  0  0  0
   -1.7010    0.9790    0.6700 C   0  0  2  0  0  0  0  0  0  0  0  0
  1  2  1  0
  2  3  2  3
  3  4  1  0
  3  5  1  0
  5  6  2  0
 25  5  1  6
  6  7  1  0
  7  8  1  0
  7  9  2  0
  9 10  1  0
 10 11  2  0
 10 25  1  0
 11 12  1  0
 11 13  1  0
 13 14  2  0
 13 24  1  0
 14 15  1  0
 14 25  1  0
 15 16  2  0
 15 17  1  0
 17 18  1  0
 18 19  1  1
 18 20  1  0
 18 24  1  0
 20 21  1  0
 21 22  1  0
 21 23  2  0
M  END
