
     RDKit          3D

 25 26  0  0  0  0  0  0  0  0999 V2000
    5.5270    0.5690   -1.4030 C   0  0  0  0  0  0  0  0  0  0  0  0
    4.9640   -0.3460   -0.6530 C   0  0  0  0  0  0  0  0  0  0  0  0
    5.7840   -1.8850   -0.5250 Cl  0  0  0  0  0  0  0  0  0  0  0  0
    3.6770   -0.0620    0.0500 C   0  0  0  0  0  0  0  0  0  0  0  0
    3.2260   -1.0760    0.7790 C   0  0  0  0  0  0  0  0  0  0  0  0
    2.0330   -1.1650    1.5810 C   0  0  0  0  0  0  0  0  0  0  0  0
    0.7920   -1.3860    1.2380 C   0  0  0  0  0  0  0  0  0  0  0  0
    0.2440   -1.6170   -0.1100 C   0  0  0  0  0  0  0  0  0  0  0  0
   -0.8520   -2.6970   -0.0120 C   0  0  0  0  0  0  0  0  0  0  0  0
   -1.6640   -2.7450   -1.2450 C   0  0  0  0  0  0  0  0  0  0  0  0
   -1.4670   -3.7540   -2.0120 O   0  0  0  0  0  0  0  0  0  0  0  0
   -2.6470   -1.7500   -1.6400 C   0  0  0  0  0  0  0  0  0  0  0  0
   -3.1840   -0.8290   -0.8940 C   0  0  0  0  0  0  0  0  0  0  0  0
   -4.2010    0.2620   -1.1450 C   0  0  0  0  0  0  0  0  0  0  0  0
   -3.6780    1.3390   -0.2170 C   0  0  0  0  0  0  0  0  0  0  0  0
   -3.2790    0.5290    0.9780 C   0  0  1  0  0  0  0  0  0  0  0  0
   -2.8400   -0.7030    0.4440 O   0  0  0  0  0  0  0  0  0  0  0  0
   -2.1850    1.0980    1.7830 C   0  0  0  0  0  0  0  0  0  0  0  0
   -2.4740    1.3730    2.9740 O   0  0  0  0  0  0  0  0  0  0  0  0
   -0.9650    1.3080    1.2750 O   0  0  0  0  0  0  0  0  0  0  0  0
   -0.4450    2.0840    0.2660 C   0  0  0  0  0  0  0  0  0  0  0  0
    1.0360    2.3230    0.5550 C   0  0  1  0  0  0  0  0  0  0  0  0
    1.3630    1.9770    1.8510 O   0  0  0  0  0  0  0  0  0  0  0  0
    1.8510    1.6060   -0.4960 C   0  0  0  0  0  0  0  0  0  0  0  0
    3.0880    1.1540   -0.0940 O   0  0  0  0  0  0  0  0  0  0  0  0
  1  2  2  0
  2  3  1  0
  2  4  1  0
  4  5  2  0
  4 25  1  0
  5  6  1  0
  6  7  2  0
  7  8  1  0
  8  9  1  0
  9 10  1  0
 10 11  2  0
 10 12  1  0
 12 13  2  0
 13 14  1  0
 13 17  1  0
 14 15  1  0
 16 15  1  6
 16 17  1  0
 16 18  1  0
 18 19  2  0
 18 20  1  0
 20 21  1  0
 21 22  1  0
 22 23  1  1
 22 24  1  0
 24 25  1  0
M  END
