
     RDKit          3D

 25 27  0  0  0  0  0  0  0  0999 V2000
    2.1050   -1.4780   -1.0500 C   0  0  0  0  0  0  0  0  0  0  0  0
    1.9330   -0.8180    0.3120 C   0  0  1  0  0  0  0  0  0  0  0  0
    3.2560   -1.1250    1.0310 C   0  0  0  0  0  0  0  0  0  0  0  0
    4.2540   -0.0020    0.9020 C   0  0  0  0  0  0  0  0  0  0  0  0
    3.6360    1.1830    1.5560 C   0  0  0  0  0  0  0  0  0  0  0  0
    4.5470    2.1230    2.7140 Cl  0  0  0  0  0  0  0  0  0  0  0  0
    2.3910    1.4630    1.2100 C   0  0  0  0  0  0  0  0  0  0  0  0
    1.6470    0.6390    0.2200 C   0  0  1  0  0  0  0  0  0  0  0  0
    1.7420    1.1930   -1.1480 C   0  0  0  0  0  0  0  0  0  0  0  0
    2.7140    0.9960   -1.9260 O   0  0  0  0  0  0  0  0  0  0  0  0
    0.7260    1.9890   -1.6670 O   0  0  0  0  0  0  0  0  0  0  0  0
   -0.2380    2.6320   -0.8960 C   0  0  0  0  0  0  0  0  0  0  0  0
   -1.5960    2.0600   -0.9660 C   0  0  0  0  0  0  0  0  0  0  0  0
   -2.1240    1.8950   -2.0560 O   0  0  0  0  0  0  0  0  0  0  0  0
   -2.3800    1.6620    0.2350 C   0  0  0  0  0  0  0  0  0  0  0  0
   -3.1370    0.4040    0.0400 C   0  0  0  0  0  0  0  0  0  0  0  0
   -4.4500    0.4400    0.2150 C   0  0  0  0  0  0  0  0  0  0  0  0
   -5.2820   -0.6490    0.0680 O   0  0  0  0  0  0  0  0  0  0  0  0
   -4.8200   -1.9100   -0.2740 C   0  0  0  0  0  0  0  0  0  0  0  0
   -3.3630   -1.9070   -0.4590 C   0  0  0  0  0  0  0  0  0  0  0  0
   -2.5650   -0.8600   -0.3220 C   0  0  0  0  0  0  0  0  0  0  0  0
   -1.0960   -1.0940   -0.5670 C   0  0  0  0  0  0  0  0  0  0  0  0
   -0.4850   -1.2520    0.6650 O   0  0  0  0  0  0  0  0  0  0  0  0
    0.8170   -1.5430    0.9720 C   0  0  0  0  0  0  0  0  0  0  0  0
    1.0670   -2.4290    1.8170 O   0  0  0  0  0  0  0  0  0  0  0  0
  2  1  1  6
  2  3  1  0
  2  8  1  0
  2 24  1  0
  3  4  1  0
  4  5  1  0
  5  6  1  0
  5  7  2  0
  8  7  1  1
  8  9  1  0
  9 10  2  0
  9 11  1  0
 11 12  1  0
 12 13  1  0
 13 14  2  0
 13 15  1  0
 15 16  1  0
 16 17  2  0
 16 21  1  0
 17 18  1  0
 18 19  1  0
 19 20  1  0
 20 21  2  0
 21 22  1  0
 22 23  1  0
 23 24  1  0
 24 25  2  0
M  END
