
     RDKit          3D

 25 27  0  0  0  0  0  0  0  0999 V2000
    2.8100   -2.7500    0.0360 C   0  0  0  0  0  0  0  0  0  0  0  0
    2.1730   -1.3590   -0.2800 C   0  0  1  0  0  0  0  0  0  0  0  0
    0.8070   -1.6630   -0.7050 C   0  0  0  0  0  0  0  0  0  0  0  0
    0.6400   -2.7740   -1.3480 O   0  0  0  0  0  0  0  0  0  0  0  0
   -0.4350   -0.9210   -0.5280 C   0  0  0  0  0  0  0  0  0  0  0  0
   -0.6960    0.3700   -0.8500 C   0  0  0  0  0  0  0  0  0  0  0  0
   -1.9610    0.9170   -0.5730 C   0  0  0  0  0  0  0  0  0  0  0  0
   -2.9480    0.1710    0.0190 C   0  0  0  0  0  0  0  0  0  0  0  0
   -2.7190   -1.1420    0.3550 C   0  0  0  0  0  0  0  0  0  0  0  0
   -1.4780   -1.6560    0.0770 C   0  0  0  0  0  0  0  0  0  0  0  0
   -1.2920   -3.0090    0.4360 O   0  0  0  0  0  0  0  0  0  0  0  0
   -3.7310   -1.8740    0.9490 O   0  0  0  0  0  0  0  0  0  0  0  0
   -4.8510   -1.2900    1.5510 C   0  0  0  0  0  0  0  0  0  0  0  0
   -4.9060    0.1950    1.4120 C   0  0  0  0  0  0  0  0  0  0  0  0
   -4.2140    0.7000    0.3030 O   0  0  0  0  0  0  0  0  0  0  0  0
    0.2040    1.3330   -1.5400 C   0  0  2  0  0  0  0  0  0  0  0  0
    1.2640    0.7870   -2.1820 O   0  0  0  0  0  0  0  0  0  0  0  0
    0.4970    2.5670   -0.7140 C   0  0  0  0  0  0  0  0  0  0  0  0
    1.2330    3.4920   -1.4590 O   0  0  0  0  0  0  0  0  0  0  0  0
    2.5300    3.6100   -0.8900 C   0  0  0  0  0  0  0  0  0  0  0  0
    2.9090    2.4360   -0.2330 C   0  0  0  0  0  0  0  0  0  0  0  0
    3.1930    1.4940    0.2920 C   0  0  0  0  0  0  0  0  0  0  0  0
    3.5290    0.2920    0.9650 C   0  0  0  0  0  0  0  0  0  0  0  0
    2.2840   -0.6240    1.0360 C   0  0  2  0  0  0  0  0  0  0  0  0
    2.5260   -1.7130    2.4200 Cl  0  0  0  0  0  0  0  0  0  0  0  0
  2  1  1  1
  2  3  1  0
  2 24  1  0
  3  4  2  0
  3  5  1  0
  5  6  2  0
  5 10  1  0
  6  7  1  0
  6 16  1  0
  7  8  2  0
  8  9  1  0
  8 15  1  0
  9 10  2  0
  9 12  1  0
 10 11  1  0
 12 13  1  0
 13 14  1  0
 14 15  1  0
 16 17  1  1
 16 18  1  0
 18 19  1  0
 19 20  1  0
 20 21  1  0
 21 22  3  0
 22 23  1  0
 23 24  1  0
 24 25  1  1
M  END
