
     RDKit          3D

 25 27  0  0  0  0  0  0  0  0999 V2000
   -1.2830   -2.8770   -1.5590 C   0  0  0  0  0  0  0  0  0  0  0  0
   -1.0300   -1.4370   -1.0760 C   0  0  0  0  0  0  0  0  0  0  0  0
   -2.0320   -0.8590   -0.4740 C   0  0  0  0  0  0  0  0  0  0  0  0
   -3.4280   -1.4710   -0.1880 C   0  0  0  0  0  0  0  0  0  0  0  0
   -3.7330   -1.0100    1.2050 C   0  0  0  0  0  0  0  0  0  0  0  0
   -2.8970    0.2280    1.3910 C   0  0  2  0  0  0  0  0  0  0  0  0
   -3.6350    1.3490    1.7520 O   0  0  0  0  0  0  0  0  0  0  0  0
   -2.2630    0.4870    0.0300 C   0  0  1  0  0  0  0  0  0  0  0  0
   -1.2470    1.4940    0.1360 C   0  0  0  0  0  0  0  0  0  0  0  0
   -0.7830    1.7520    1.2280 O   0  0  0  0  0  0  0  0  0  0  0  0
   -0.8000    2.1940   -1.0780 C   0  0  0  0  0  0  0  0  0  0  0  0
    0.5900    2.6350   -1.2260 C   0  0  2  0  0  0  0  0  0  0  0  0
    1.0210    2.3610   -2.5420 O   0  0  0  0  0  0  0  0  0  0  0  0
    1.4970    2.1020   -0.2070 C   0  0  0  0  0  0  0  0  0  0  0  0
    2.7330    1.5420   -0.7670 O   0  0  0  0  0  0  0  0  0  0  0  0
    3.2920    0.4120   -0.1010 C   0  0  0  0  0  0  0  0  0  0  0  0
    4.5950    0.3890    0.2980 C   0  0  0  0  0  0  0  0  0  0  0  0
    5.1870   -0.6700    0.9540 C   0  0  0  0  0  0  0  0  0  0  0  0
    4.3680   -1.7450    1.1980 C   0  0  0  0  0  0  0  0  0  0  0  0
    5.0890   -3.1160    2.0370 Cl  0  0  0  0  0  0  0  0  0  0  0  0
    3.0480   -1.7360    0.7990 C   0  0  0  0  0  0  0  0  0  0  0  0
    2.4480   -0.6850    0.1410 C   0  0  0  0  0  0  0  0  0  0  0  0
    1.1470   -0.6730   -0.2650 O   0  0  0  0  0  0  0  0  0  0  0  0
    0.3280   -0.8780   -1.3040 C   0  0  0  0  0  0  0  0  0  0  0  0
    0.4880   -0.6750   -2.5780 O   0  0  0  0  0  0  0  0  0  0  0  0
  1  2  1  0
  2  3  2  0
  2 24  1  0
  3  4  1  0
  3  8  1  0
  4  5  1  0
  5  6  1  0
  6  7  1  6
  6  8  1  0
  8  9  1  1
  9 10  2  0
  9 11  1  0
 11 12  1  0
 12 13  1  6
 12 14  1  0
 14 15  1  0
 15 16  1  0
 16 17  2  0
 16 22  1  0
 17 18  1  0
 18 19  2  0
 19 20  1  0
 19 21  1  0
 21 22  2  0
 22 23  1  0
 23 24  1  0
 24 25  2  0
M  END
