
     RDKit          3D

  9  9  0  0  0  0  0  0  0  0999 V2000
    2.4210   -0.7910   -0.4080 N   0  0  0  0  0  0  0  0  0  0  0  0
    1.5850    0.2740    0.0600 C   0  0  0  0  0  0  0  0  0  0  0  0
    2.1160    1.3590    0.4910 N   0  0  0  0  0  0  0  0  0  0  0  0
    0.1430    0.0670    0.0240 C   0  0  0  0  0  0  0  0  0  0  0  0
   -0.3950   -1.1240   -0.4510 C   0  0  0  0  0  0  0  0  0  0  0  0
   -1.7500   -1.3480   -0.4980 C   0  0  0  0  0  0  0  0  0  0  0  0
   -2.6560   -0.3960   -0.0740 C   0  0  0  0  0  0  0  0  0  0  0  0
   -2.1200    0.7830    0.3950 C   0  0  0  0  0  0  0  0  0  0  0  0
   -0.7580    1.0190    0.4470 C   0  0  0  0  0  0  0  0  0  0  0  0
  1  2  1  0
  2  3  2  0
  2  4  1  0
  4  5  2  0
  4  9  1  0
  5  6  1  0
  6  7  2  0
  7  8  1  0
  8  9  2  0
M  CHG  1   3   1
M  END
