
     RDKit          3D

  9  9  0  0  0  0  0  0  0  0999 V2000
   -2.8460    0.2310    0.3520 C   0  0  0  0  0  0  0  0  0  0  0  0
   -2.0340   -0.5580   -0.5500 N   0  0  0  0  0  0  0  0  0  0  0  0
   -0.6510   -0.3290   -0.3090 C   0  0  0  0  0  0  0  0  0  0  0  0
   -0.0290    0.7920   -0.8300 C   0  0  0  0  0  0  0  0  0  0  0  0
    1.3130    1.0610   -0.6250 C   0  0  0  0  0  0  0  0  0  0  0  0
    2.0530    0.1680    0.1320 C   0  0  0  0  0  0  0  0  0  0  0  0
    3.4290    0.4650    0.3300 N   0  0  0  0  0  0  0  0  0  0  0  0
    1.4740   -0.9630    0.6710 C   0  0  0  0  0  0  0  0  0  0  0  0
    0.1280   -1.1900    0.4390 C   0  0  0  0  0  0  0  0  0  0  0  0
  1  2  1  0
  2  3  1  0
  3  4  2  0
  3  9  1  0
  4  5  1  0
  5  6  2  0
  6  7  1  0
  6  8  1  0
  8  9  2  0
M  CHG  1   2   1
M  END
