
     RDKit          3D

 36 39  0  0  0  0  0  0  0  0999 V2000
    9.1450   -1.1490    2.5500 N   0  0  0  0  0  0  0  0  0  0  0  0
    8.3770   -0.9290    1.3370 C   0  0  0  0  0  0  0  0  0  0  0  0
    9.1010   -0.7130    0.2000 N   0  0  0  0  0  0  0  0  0  0  0  0
    8.3860   -0.4090   -0.9400 C   0  0  0  0  0  0  0  0  0  0  0  0
    7.0980   -0.3350   -0.8870 N   0  0  0  0  0  0  0  0  0  0  0  0
    6.3110   -0.5220    0.1660 C   0  0  0  0  0  0  0  0  0  0  0  0
    7.0300   -0.8410    1.3520 C   0  0  0  0  0  0  0  0  0  0  0  0
    6.0480   -0.9690    2.2580 N   0  0  0  0  0  0  0  0  0  0  0  0
    4.8540   -0.7660    1.7630 C   0  0  0  0  0  0  0  0  0  0  0  0
    5.0140   -0.4730    0.4340 N   0  0  0  0  0  0  0  0  0  0  0  0
    4.0300    0.0250   -0.4670 C   0  0  2  0  0  0  0  0  0  0  0  0
    2.7450   -0.1920   -0.0600 O   0  0  0  0  0  0  0  0  0  0  0  0
    2.1290    0.8110   -0.9570 C   0  0  2  0  0  0  0  0  0  0  0  0
    0.7080    0.7950   -0.5470 C   0  0  0  0  0  0  0  0  0  0  0  0
    0.2350   -0.5390   -0.5920 O   0  0  0  0  0  0  0  0  0  0  0  0
   -1.2120   -0.4890    0.3170 P   0  0  2  0  0  0  0  0  0  0  0  0
   -0.6740    0.0010    1.7080 O   0  0  0  0  0  0  0  0  0  0  0  0
   -1.8590   -2.0060    0.5560 O   0  0  0  0  0  0  0  0  0  0  0  0
   -2.2680    0.6930   -0.2010 O   0  0  0  0  0  0  0  0  0  0  0  0
   -2.9870    1.3810    1.2200 P   0  0  2  0  0  0  0  0  0  0  0  0
   -2.4550    2.7080    1.4720 O   0  0  0  0  0  0  0  0  0  0  0  0
   -2.4710    0.2570    2.4970 O   0  0  0  0  0  0  0  0  0  0  0  0
   -4.6080    1.1170    1.1550 O   0  0  0  0  0  0  0  0  0  0  0  0
   -5.1560    1.0270   -0.1400 C   0  0  0  0  0  0  0  0  0  0  0  0
   -5.8160   -0.3760   -0.0410 C   0  0  1  0  0  0  0  0  0  0  0  0
   -6.3890   -0.5360    1.1750 O   0  0  0  0  0  0  0  0  0  0  0  0
   -7.7350   -0.5800    1.0730 C   0  0  1  0  0  0  0  0  0  0  0  0
   -8.3490    0.4310    1.8480 O   0  0  0  0  0  0  0  0  0  0  0  0
   -8.1010   -0.4940   -0.3840 C   0  0  2  0  0  0  0  0  0  0  0  0
   -8.9300   -1.5250   -0.7770 O   0  0  0  0  0  0  0  0  0  0  0  0
   -6.7770   -0.6130   -1.1230 C   0  0  2  0  0  0  0  0  0  0  0  0
   -6.6750   -1.9370   -1.5860 O   0  0  0  0  0  0  0  0  0  0  0  0
    2.6030    0.3860   -2.2600 C   0  0  1  0  0  0  0  0  0  0  0  0
    2.7860    1.4690   -3.1550 O   0  0  0  0  0  0  0  0  0  0  0  0
    4.0260   -0.1980   -1.9140 C   0  0  1  0  0  0  0  0  0  0  0  0
    4.9450    0.7370   -2.4680 O   0  0  0  0  0  0  0  0  0  0  0  0
  1  2  1  0
  2  3  2  0
  2  7  1  0
  3  4  1  0
  4  5  2  0
  5  6  1  0
  6  7  2  0
  6 10  1  0
  7  8  1  0
  8  9  2  0
  9 10  1  0
 11 10  1  1
 11 12  1  0
 11 35  1  0
 12 13  1  0
 13 14  1  6
 13 33  1  0
 14 15  1  0
 15 16  1  0
 16 17  2  0
 16 18  1  1
 16 19  1  0
 19 20  1  0
 20 21  2  0
 20 22  1  1
 20 23  1  0
 23 24  1  0
 25 24  1  1
 25 26  1  0
 25 31  1  0
 26 27  1  0
 27 28  1  1
 27 29  1  0
 29 30  1  6
 29 31  1  0
 31 32  1  1
 33 34  1  6
 33 35  1  0
 35 36  1  6
M  END
