
     RDKit          3D

 12 12  0  0  0  0  0  0  0  0999 V2000
    3.2010    0.7700   -0.0820 N   0  0  0  0  0  0  0  0  0  0  0  0
    1.7890    0.6180   -0.0090 C   0  0  0  0  0  0  0  0  0  0  0  0
    1.1510    1.6500    0.4220 N   0  0  0  0  0  0  0  0  0  0  0  0
   -0.1840    2.0600    0.6910 C   0  0  0  0  0  0  0  0  0  0  0  0
   -1.3700    1.4750    0.6400 C   0  0  0  0  0  0  0  0  0  0  0  0
   -1.8060    0.1230    0.2730 C   0  0  0  0  0  0  0  0  0  0  0  0
   -1.2460   -0.9830   -0.1740 C   0  0  0  0  0  0  0  0  0  0  0  0
   -2.1980   -2.0190   -0.3560 N   0  0  0  0  0  0  0  0  0  0  0  0
   -2.3550   -2.7980    0.6080 O   0  0  0  0  0  0  0  0  0  0  0  0
   -2.9250   -2.1960   -1.4970 O   0  0  0  0  0  0  0  0  0  0  0  0
    0.1280   -1.3200   -0.5040 C   0  0  0  0  0  0  0  0  0  0  0  0
    1.3230   -0.7050   -0.4450 C   0  0  0  0  0  0  0  0  0  0  0  0
  1  2  1  0
  2  3  2  0
  2 12  1  0
  3  4  1  0
  4  5  2  0
  5  6  1  0
  6  7  2  0
  7  8  1  0
  7 11  1  0
  8  9  2  0
  8 10  1  0
 11 12  2  0
M  CHG  2   8   1  10  -1
M  END
