
     RDKit          3D

 12 13  0  0  0  0  0  0  0  0999 V2000
    3.7030    0.4940   -0.0490 O   0  0  0  0  0  0  0  0  0  0  0  0
    2.8690   -0.4370    0.0240 N   0  0  0  0  0  0  0  0  0  0  0  0
    3.2370   -1.7490    0.1220 O   0  0  0  0  0  0  0  0  0  0  0  0
    1.4920   -0.0800    0.0010 C   0  0  0  0  0  0  0  0  0  0  0  0
    1.0660    1.2250   -0.0960 C   0  0  0  0  0  0  0  0  0  0  0  0
   -0.2450    1.6190   -0.1220 C   0  0  0  0  0  0  0  0  0  0  0  0
   -1.2140    0.6180   -0.0430 C   0  0  0  0  0  0  0  0  0  0  0  0
   -2.5890    0.6300   -0.0400 C   0  0  0  0  0  0  0  0  0  0  0  0
   -2.9890   -0.6440    0.0580 N   0  0  0  0  0  0  0  0  0  0  0  0
   -1.9420   -1.4470    0.1160 N   0  0  0  0  0  0  0  0  0  0  0  0
   -0.8220   -0.6940    0.0550 C   0  0  0  0  0  0  0  0  0  0  0  0
    0.5300   -1.0600    0.0790 C   0  0  0  0  0  0  0  0  0  0  0  0
  1  2  2  0
  2  3  1  0
  2  4  1  0
  4  5  2  0
  4 12  1  0
  5  6  1  0
  6  7  2  0
  7  8  1  0
  7 11  1  0
  8  9  2  0
  9 10  1  0
 10 11  1  0
 11 12  2  0
M  CHG  2   2   1   3  -1
M  END
