
     RDKit          3D

 12 12  0  0  0  0  0  0  0  0999 V2000
    3.2090    0.4490   -0.1270 C   0  0  0  0  0  0  0  0  0  0  0  0
    1.8930    0.4050   -0.1840 C   0  0  0  0  0  0  0  0  0  0  0  0
    1.2830   -0.9200   -0.4460 C   0  0  0  0  0  0  0  0  0  0  0  0
    0.2300   -1.2460    0.5870 C   0  0  0  0  0  0  0  0  0  0  0  0
   -1.0360   -0.5030    0.2440 C   0  0  0  0  0  0  0  0  0  0  0  0
   -2.1780   -1.3170    0.1370 N   0  0  0  0  0  0  0  0  0  0  0  0
   -1.1620    0.8020    0.0430 C   0  0  0  0  0  0  0  0  0  0  0  0
   -2.4530    1.2630   -0.2670 N   0  0  0  0  0  0  0  0  0  0  0  0
   -2.9280    1.0260   -1.3760 O   0  0  0  0  0  0  0  0  0  0  0  0
   -3.1680    1.9630    0.6490 O   0  0  0  0  0  0  0  0  0  0  0  0
   -0.1090    1.8000    0.1080 C   0  0  0  0  0  0  0  0  0  0  0  0
    1.1870    1.6250    0.0110 N   0  0  0  0  0  0  0  0  0  0  0  0
  1  2  2  0
  2  3  1  0
  2 12  1  0
  3  4  1  0
  4  5  1  0
  5  6  1  0
  5  7  2  0
  7  8  1  0
  7 11  1  0
  8  9  2  0
  8 10  1  0
 11 12  2  0
M  CHG  2   8   1  10  -1
M  END
