
     RDKit          3D

 26 28  0  0  0  0  0  0  0  0999 V2000
    1.8040    1.7730    1.7890 C   0  0  0  0  0  0  0  0  0  0  0  0
    1.8420    0.9540    0.7190 C   0  0  0  0  0  0  0  0  0  0  0  0
    3.0520    0.9040   -0.0240 C   0  0  0  0  0  0  0  0  0  0  0  0
    4.2610    1.1480    0.5630 C   0  0  0  0  0  0  0  0  0  0  0  0
    5.4560    1.1490   -0.1400 C   0  0  0  0  0  0  0  0  0  0  0  0
    5.4420    0.8940   -1.4910 C   0  0  0  0  0  0  0  0  0  0  0  0
    6.6920    0.8840   -2.2820 C   0  0  0  0  0  0  0  0  0  0  0  0
    6.6240    0.6490   -3.4950 O   0  0  0  0  0  0  0  0  0  0  0  0
    7.9050    1.1340   -1.6630 O   0  0  0  0  0  0  0  0  0  0  0  0
    4.2340    0.6450   -2.0980 C   0  0  0  0  0  0  0  0  0  0  0  0
    3.0480    0.6500   -1.3730 C   0  0  0  0  0  0  0  0  0  0  0  0
    0.6060    0.2240    0.4420 C   0  0  0  0  0  0  0  0  0  0  0  0
   -0.5880    0.8830    0.6800 C   0  0  0  0  0  0  0  0  0  0  0  0
   -1.8340    0.3090    0.4870 C   0  0  0  0  0  0  0  0  0  0  0  0
   -1.8440   -0.9860    0.0330 C   0  0  0  0  0  0  0  0  0  0  0  0
   -0.6410   -1.6550   -0.2080 C   0  0  0  0  0  0  0  0  0  0  0  0
    0.6000   -1.0650   -0.0090 C   0  0  0  0  0  0  0  0  0  0  0  0
    1.8360   -1.8620   -0.2550 C   0  0  0  0  0  0  0  0  0  0  0  0
   -3.0810   -1.7680   -0.2330 C   0  0  1  0  0  0  0  0  0  0  0  0
   -2.8170   -2.6400   -1.4380 C   0  0  0  0  0  0  0  0  0  0  0  0
   -3.3140   -2.6380    0.9920 C   0  0  0  0  0  0  0  0  0  0  0  0
   -4.2040   -0.8150   -0.4700 C   0  0  0  0  0  0  0  0  0  0  0  0
   -4.2900    0.2040    0.6410 C   0  0  0  0  0  0  0  0  0  0  0  0
   -3.0860    1.0570    0.7570 C   0  0  1  0  0  0  0  0  0  0  0  0
   -3.0240    1.5680    2.2030 C   0  0  0  0  0  0  0  0  0  0  0  0
   -3.2140    2.2850   -0.1140 C   0  0  0  0  0  0  0  0  0  0  0  0
  1  2  2  0
  2  3  1  0
  2 12  1  0
  3  4  2  0
  3 11  1  0
  4  5  1  0
  5  6  2  0
  6  7  1  0
  6 10  1  0
  7  8  2  0
  7  9  1  0
 10 11  2  0
 12 13  2  0
 12 17  1  0
 13 14  1  0
 14 15  2  0
 14 24  1  0
 15 16  1  0
 15 19  1  0
 16 17  2  0
 17 18  1  0
 19 20  1  6
 19 21  1  0
 19 22  1  0
 22 23  1  0
 23 24  1  0
 24 25  1  1
 24 26  1  0
M  END
