
     RDKit          3D

 26 28  0  0  0  0  0  0  0  0999 V2000
   -0.9740    1.0950    2.1750 C   0  0  0  0  0  0  0  0  0  0  0  0
   -2.2540    1.3930    1.5290 C   0  0  0  0  0  0  0  0  0  0  0  0
   -3.0440    2.3910    1.8860 C   0  0  0  0  0  0  0  0  0  0  0  0
   -4.2310    2.6320    1.2530 O   0  0  0  0  0  0  0  0  0  0  0  0
   -4.7780    1.9290    0.2120 C   0  0  0  0  0  0  0  0  0  0  0  0
   -3.8940    0.7860   -0.2170 C   0  0  0  0  0  0  0  0  0  0  0  0
   -2.7700    0.5840    0.4060 C   0  0  0  0  0  0  0  0  0  0  0  0
   -1.9220   -0.5840   -0.0350 C   0  0  2  0  0  0  0  0  0  0  0  0
   -1.1440   -0.1790   -1.2410 C   0  0  0  0  0  0  0  0  0  0  0  0
   -0.2200   -1.2140   -1.8060 C   0  0  2  0  0  0  0  0  0  0  0  0
    0.5230   -0.6260   -3.0310 C   0  0  0  0  0  0  0  0  0  0  0  0
   -0.9000   -2.3580   -2.2920 O   0  0  0  0  0  0  0  0  0  0  0  0
    0.8100   -1.7340   -0.8540 C   0  0  0  0  0  0  0  0  0  0  0  0
    1.7440   -0.7390   -0.3190 C   0  0  0  0  0  0  0  0  0  0  0  0
    1.6600    0.4580   -0.7260 O   0  0  0  0  0  0  0  0  0  0  0  0
    2.7440   -1.0380    0.6370 N   0  0  0  0  0  0  0  0  0  0  0  0
    3.6340   -0.0500    1.1350 C   0  0  2  0  0  0  0  0  0  0  0  0
    2.9330    1.0970    1.8280 C   0  0  0  0  0  0  0  0  0  0  0  0
    2.2080    0.5680    2.9110 O   0  0  0  0  0  0  0  0  0  0  0  0
    4.5240    0.4520    0.0510 C   0  0  0  0  0  0  0  0  0  0  0  0
    5.4040    1.5390    0.6660 C   0  0  0  0  0  0  0  0  0  0  0  0
    5.7970    0.7430    2.2760 S   0  0  0  0  0  0  0  0  0  0  0  0
    4.5890   -0.6400    2.1830 C   0  0  0  0  0  0  0  0  0  0  0  0
   -2.8530   -1.7210   -0.3200 C   0  0  0  0  0  0  0  0  0  0  0  0
   -3.9190   -1.4080   -1.3020 C   0  0  0  0  0  0  0  0  0  0  0  0
   -4.4120   -0.0120   -1.3660 C   0  0  0  0  0  0  0  0  0  0  0  0
  1  2  1  0
  2  3  2  0
  2  7  1  0
  3  4  1  0
  4  5  1  0
  5  6  1  0
  6  7  2  0
  6 26  1  0
  7  8  1  0
  8  9  1  6
  8 24  1  0
  9 10  1  0
 10 11  1  6
 10 12  1  0
 10 13  1  0
 13 14  1  0
 14 15  2  0
 14 16  1  0
 16 17  1  0
 17 18  1  1
 17 20  1  0
 17 23  1  0
 18 19  1  0
 20 21  1  0
 21 22  1  0
 22 23  1  0
 24 25  1  0
 25 26  1  0
M  END
