
     RDKit          3D

 25 28  0  0  0  0  0  0  0  0999 V2000
    4.1560   -1.4140    1.9000 C   0  0  0  0  0  0  0  0  0  0  0  0
    4.1200   -0.8760    0.4860 C   0  0  0  0  0  0  0  0  0  0  0  0
    2.9930   -0.5310   -0.0620 C   0  0  0  0  0  0  0  0  0  0  0  0
    1.6580   -0.5820    0.5060 C   0  0  0  0  0  0  0  0  0  0  0  0
    1.5240   -1.0090    1.6800 O   0  0  0  0  0  0  0  0  0  0  0  0
    0.5560   -0.1570   -0.2640 N   0  0  0  0  0  0  0  0  0  0  0  0
   -0.7790   -0.1920    0.2630 C   0  0  1  0  0  0  0  0  0  0  0  0
   -1.3510    1.1920    0.1970 C   0  0  0  0  0  0  0  0  0  0  0  0
   -2.5240    1.2920   -0.7500 C   0  0  0  0  0  0  0  0  0  0  0  0
   -3.6280    0.3320   -0.3680 C   0  0  2  0  0  0  0  0  0  0  0  0
   -4.6580    0.3310   -1.4860 C   0  0  0  0  0  0  0  0  0  0  0  0
   -6.0170    0.0360   -0.8370 C   0  0  0  0  0  0  0  0  0  0  0  0
   -6.4570    1.2060   -0.2170 O   0  0  0  0  0  0  0  0  0  0  0  0
   -5.3940    1.8600    0.3920 C   0  0  0  0  0  0  0  0  0  0  0  0
   -4.3170    0.8920    0.8580 C   0  0  0  0  0  0  0  0  0  0  0  0
   -3.0850   -1.0490   -0.1530 C   0  0  2  0  0  0  0  0  0  0  0  0
   -3.2840   -1.5470    1.2620 C   0  0  0  0  0  0  0  0  0  0  0  0
   -1.6290   -1.1730   -0.5160 C   0  0  1  0  0  0  0  0  0  0  0  0
   -1.4270   -1.1100   -1.8730 O   0  0  0  0  0  0  0  0  0  0  0  0
    3.3650    0.0420   -1.7110 S   0  0  0  0  0  0  0  0  0  0  0  0
    5.1190   -0.4970   -1.7000 C   0  0  1  0  0  0  0  0  0  0  0  0
    5.9330    0.7560   -2.0030 C   0  0  0  0  0  0  0  0  0  0  0  0
    6.0400    1.4690   -0.6480 C   0  0  0  0  0  0  0  0  0  0  0  0
    6.2760    0.3170    0.2740 C   0  0  0  0  0  0  0  0  0  0  0  0
    5.3360   -0.7390   -0.2710 C   0  0  1  0  0  0  0  0  0  0  0  0
  1  2  1  0
  2  3  2  0
  2 25  1  0
  3  4  1  0
  3 20  1  0
  4  5  2  0
  4  6  1  0
  7  6  1  6
  7  8  1  0
  7 18  1  0
  8  9  1  0
 10  9  1  6
 10 11  1  0
 10 15  1  0
 10 16  1  0
 11 12  1  0
 12 13  1  0
 13 14  1  0
 14 15  1  0
 16 17  1  1
 16 18  1  0
 18 19  1  6
 20 21  1  0
 21 22  1  1
 21 25  1  0
 22 23  1  0
 23 24  1  0
 25 24  1  1
M  END
