
     RDKit          3D

 26 29  0  0  0  0  0  0  0  0999 V2000
    6.7200    2.0460   -0.2770 C   0  0  0  0  0  0  0  0  0  0  0  0
    5.3870    0.9780   -0.8690 S   0  0  0  0  0  0  0  0  0  0  0  0
    5.0290   -0.3630    0.2720 C   0  0  1  0  0  0  0  0  0  0  0  0
    4.4660    0.0880    1.5800 C   0  0  1  0  0  0  0  0  0  0  0  0
    4.7620    1.4580    1.7100 O   0  0  0  0  0  0  0  0  0  0  0  0
    3.0070   -0.0160    1.3860 C   0  0  0  0  0  0  0  0  0  0  0  0
    1.9340    0.5130    2.1160 C   0  0  0  0  0  0  0  0  0  0  0  0
    0.6340    0.2640    1.7190 C   0  0  0  0  0  0  0  0  0  0  0  0
    0.3360   -0.5000    0.6070 C   0  0  0  0  0  0  0  0  0  0  0  0
    1.3650   -1.0180   -0.1060 C   0  0  0  0  0  0  0  0  0  0  0  0
    2.6930   -0.7640    0.2990 C   0  0  0  0  0  0  0  0  0  0  0  0
    3.9650   -1.2410   -0.3500 C   0  0  2  0  0  0  0  0  0  0  0  0
    4.2390   -2.5550   -0.0300 O   0  0  0  0  0  0  0  0  0  0  0  0
    1.2060   -1.9000   -1.3220 C   0  0  0  0  0  0  0  0  0  0  0  0
   -0.2520   -2.3360   -1.4170 C   0  0  0  0  0  0  0  0  0  0  0  0
   -1.1250   -1.1150   -1.2240 C   0  0  0  0  0  0  0  0  0  0  0  0
   -1.0690   -0.7250    0.2390 C   0  0  2  0  0  0  0  0  0  0  0  0
   -1.9020    0.4970    0.4570 C   0  0  0  0  0  0  0  0  0  0  0  0
   -1.2920    1.5760    0.6270 O   0  0  0  0  0  0  0  0  0  0  0  0
   -3.3130    0.5080    0.4850 N   0  0  0  0  0  0  0  0  0  0  0  0
   -4.1290   -0.6780    0.3260 C   0  0  0  0  0  0  0  0  0  0  0  0
   -5.0060   -0.4100   -0.8900 C   0  0  0  0  0  0  0  0  0  0  0  0
   -5.8140    0.8370   -0.7310 C   0  0  0  0  0  0  0  0  0  0  0  0
   -5.5210    1.4790    0.6010 C   0  0  2  0  0  0  0  0  0  0  0  0
   -6.2400    2.6820    0.7450 O   0  0  0  0  0  0  0  0  0  0  0  0
   -4.0330    1.7490    0.6790 C   0  0  0  0  0  0  0  0  0  0  0  0
  1  2  1  0
  3  2  1  6
  3  4  1  0
  3 12  1  0
  4  5  1  6
  4  6  1  0
  6  7  2  0
  6 11  1  0
  7  8  1  0
  8  9  2  0
  9 10  1  0
  9 17  1  0
 10 11  2  0
 10 14  1  0
 11 12  1  0
 12 13  1  1
 14 15  1  0
 15 16  1  0
 16 17  1  0
 17 18  1  6
 18 19  2  0
 18 20  1  0
 20 21  1  0
 20 26  1  0
 21 22  1  0
 22 23  1  0
 23 24  1  0
 24 25  1  6
 24 26  1  0
M  END
