
     RDKit          3D

 11 11  0  0  0  0  0  0  0  0999 V2000
   -0.4200   -2.6530    0.1830 N   0  0  0  0  0  0  0  0  0  0  0  0
   -0.6940   -1.2600    0.1100 C   0  0  0  0  0  0  0  0  0  0  0  0
   -1.9480   -0.9140   -0.0750 N   0  0  0  0  0  0  0  0  0  0  0  0
   -2.4280    0.4620   -0.1770 C   0  0  0  0  0  0  0  0  0  0  0  0
   -1.6500    1.1110   -1.2110 N   0  0  0  0  0  0  0  0  0  0  0  0
   -0.4730    1.6640   -0.7000 O   0  0  0  0  0  0  0  0  0  0  0  0
    0.5310    0.8670   -0.1140 C   0  0  0  0  0  0  0  0  0  0  0  0
    1.7720    1.5240    0.1120 N   0  0  0  0  0  0  0  0  0  0  0  0
    2.4570    1.9900   -0.9260 O   0  0  0  0  0  0  0  0  0  0  0  0
    0.4750   -0.4040    0.2520 C   0  0  0  0  0  0  0  0  0  0  0  0
    1.6100   -1.0250    0.8290 N   0  0  0  0  0  0  0  0  0  0  0  0
  1  2  1  0
  2  3  2  0
  2 10  1  0
  3  4  1  0
  4  5  1  0
  5  6  1  0
  6  7  1  0
  7  8  1  0
  7 10  2  0
  8  9  1  0
 10 11  1  0
M  END
