
     RDKit          3D

 11 11  0  0  0  0  0  0  0  0999 V2000
    4.1620    0.5040    1.0220 N   0  0  0  0  0  0  0  0  0  0  0  0
    3.1240   -0.2280    0.9600 C   0  0  0  0  0  0  0  0  0  0  0  0
    1.9040    0.1210    0.2460 C   0  0  0  0  0  0  0  0  0  0  0  0
    1.8720    1.2460   -0.3640 N   0  0  0  0  0  0  0  0  0  0  0  0
    0.7680   -0.8330    0.2600 C   0  0  0  0  0  0  0  0  0  0  0  0
   -0.3640   -0.3330   -0.4940 N   0  0  0  0  0  0  0  0  0  0  0  0
   -1.4690   -1.2500   -0.4890 C   0  0  0  0  0  0  0  0  0  0  0  0
   -2.2450   -1.0030    0.7960 C   0  0  0  0  0  0  0  0  0  0  0  0
   -2.8860    0.2010    0.6730 O   0  0  0  0  0  0  0  0  0  0  0  0
   -2.2640    1.1040   -0.1480 C   0  0  0  0  0  0  0  0  0  0  0  0
   -0.7410    1.0060   -0.1110 C   0  0  0  0  0  0  0  0  0  0  0  0
  1  2  2  0
  2  3  1  0
  3  4  2  0
  3  5  1  0
  5  6  1  0
  6  7  1  0
  6 11  1  0
  7  8  1  0
  8  9  1  0
  9 10  1  0
 10 11  1  0
M  END
