
     RDKit          3D

 10 10  0  0  0  0  0  0  0  0999 V2000
   -3.0950   -0.7050    0.1650 N   0  0  0  0  0  0  0  0  0  0  0  0
   -1.7180   -0.7960    0.0100 N   0  0  0  0  0  0  0  0  0  0  0  0
   -0.9710    0.2510    0.0540 C   0  0  0  0  0  0  0  0  0  0  0  0
   -1.5560    1.4890    0.2610 O   0  0  0  0  0  0  0  0  0  0  0  0
    0.4800    0.1100   -0.1140 C   0  0  0  0  0  0  0  0  0  0  0  0
    1.4240    1.1120   -0.0960 C   0  0  0  0  0  0  0  0  0  0  0  0
    2.6180    0.5250   -0.2900 N   0  0  0  0  0  0  0  0  0  0  0  0
    2.4740   -0.8030   -0.4300 C   0  0  0  0  0  0  0  0  0  0  0  0
    3.4000   -1.6560   -0.6280 O   0  0  0  0  0  0  0  0  0  0  0  0
    1.1450   -1.0360   -0.3180 N   0  0  0  0  0  0  0  0  0  0  0  0
  1  2  1  0
  2  3  2  3
  3  4  1  0
  3  5  1  0
  5  6  2  0
  5 10  1  0
  6  7  1  0
  7  8  1  0
  8  9  2  0
  8 10  1  0
M  END
