
     RDKit          3D

 10 10  0  0  0  0  0  0  0  0999 V2000
    1.6960   -1.2560    0.2390 N   0  0  0  0  0  0  0  0  0  0  0  0
    1.2560    0.0440   -0.1290 C   0  0  0  0  0  0  0  0  0  0  0  0
    2.1270    0.8410   -0.6440 N   0  0  0  0  0  0  0  0  0  0  0  0
    3.4180    0.4980   -0.8440 O   0  0  0  0  0  0  0  0  0  0  0  0
   -0.1300    0.4610    0.0670 C   0  0  0  0  0  0  0  0  0  0  0  0
   -1.1300   -0.2330    0.5760 C   0  0  0  0  0  0  0  0  0  0  0  0
   -2.3130    0.6440    0.5520 C   0  0  2  0  0  0  0  0  0  0  0  0
   -3.2630    0.0510   -0.2700 O   0  0  0  0  0  0  0  0  0  0  0  0
   -1.8440    1.8680   -0.0180 N   0  0  0  0  0  0  0  0  0  0  0  0
   -0.6280    1.7280   -0.2740 N   0  0  0  0  0  0  0  0  0  0  0  0
  1  2  1  0
  2  3  2  3
  2  5  1  0
  3  4  1  0
  5  6  2  0
  5 10  1  0
  6  7  1  0
  7  8  1  6
  7  9  1  0
  9 10  2  0
M  END
