
     RDKit          3D

 11 11  0  0  0  0  0  0  0  0999 V2000
    2.8580   -0.2600    0.3080 N   0  0  0  0  0  0  0  0  0  0  0  0
    1.4620   -0.0210    0.1240 C   0  0  0  0  0  0  0  0  0  0  0  0
    0.5790   -1.0210    0.0520 N   0  0  0  0  0  0  0  0  0  0  0  0
   -0.7460   -0.8420   -0.1210 C   0  0  0  0  0  0  0  0  0  0  0  0
   -1.6760   -1.9030   -0.1970 N   0  0  0  0  0  0  0  0  0  0  0  0
   -1.1730    0.4820   -0.2270 C   0  0  0  0  0  0  0  0  0  0  0  0
   -2.5450    0.7190   -0.4090 N   0  0  0  0  0  0  0  0  0  0  0  0
   -3.4200    0.6550    0.4480 O   0  0  0  0  0  0  0  0  0  0  0  0
   -0.2530    1.5040   -0.1510 C   0  0  0  0  0  0  0  0  0  0  0  0
   -0.6290    2.6990   -0.2450 O   0  0  0  0  0  0  0  0  0  0  0  0
    1.0560    1.2630    0.0230 N   0  0  0  0  0  0  0  0  0  0  0  0
  1  2  1  0
  2  3  2  0
  2 11  1  0
  3  4  1  0
  4  5  1  0
  4  6  2  0
  6  7  1  0
  6  9  1  0
  7  8  2  0
  9 10  2  0
  9 11  1  0
M  END
