
     RDKit          3D

 11 11  0  0  0  0  0  0  0  0999 V2000
    3.3390    0.2800    0.0800 N   0  0  0  0  0  0  0  0  0  0  0  0
    2.1150   -0.3610    0.2220 N   0  0  0  0  0  0  0  0  0  0  0  0
    0.8640    0.2530   -0.0520 C   0  0  0  0  0  0  0  0  0  0  0  0
    0.8610    1.4390   -0.4440 O   0  0  0  0  0  0  0  0  0  0  0  0
   -0.4100   -0.4320    0.1010 C   0  0  0  0  0  0  0  0  0  0  0  0
   -1.6010    0.0850   -0.1370 C   0  0  0  0  0  0  0  0  0  0  0  0
   -1.9140    1.3930   -0.5870 N   0  0  0  0  0  0  0  0  0  0  0  0
   -2.6240   -0.9450    0.1440 C   0  0  0  0  0  0  0  0  0  0  0  0
   -3.8710   -0.8450    0.0400 O   0  0  0  0  0  0  0  0  0  0  0  0
   -1.8380   -2.0680    0.5600 N   0  0  0  0  0  0  0  0  0  0  0  0
   -0.5940   -1.7550    0.5280 N   0  0  0  0  0  0  0  0  0  0  0  0
  1  2  1  0
  2  3  1  0
  3  4  2  0
  3  5  1  0
  5  6  2  0
  5 11  1  0
  6  7  1  0
  6  8  1  0
  8  9  2  0
  8 10  1  0
 10 11  2  0
M  END
