
     RDKit          3D

 24 25  0  0  0  0  0  0  0  0999 V2000
    1.6370   -0.0580    1.8840 N   0  0  0  0  0  0  0  0  0  0  0  0
    1.0050   -0.1000    0.5950 C   0  0  2  0  0  0  0  0  0  0  0  0
    1.8160   -0.8990   -0.3950 C   0  0  0  0  0  0  0  0  0  0  0  0
    3.0600   -0.2790   -0.5040 O   0  0  0  0  0  0  0  0  0  0  0  0
    3.8980   -0.9430   -1.4040 C   0  0  0  0  0  0  0  0  0  0  0  0
    5.2080   -0.1660   -1.4250 C   0  0  2  0  0  0  0  0  0  0  0  0
    6.1290   -0.7380   -2.2940 O   0  0  0  0  0  0  0  0  0  0  0  0
    5.7560   -0.1300    0.0020 C   0  0  0  0  0  0  0  0  0  0  0  0
    6.9270    0.6270    0.0150 O   0  0  0  0  0  0  0  0  0  0  0  0
    7.3820    0.6460    1.2500 O   0  0  0  0  0  0  0  0  0  0  0  0
    0.6340    1.2600    0.0610 C   0  0  0  0  0  0  0  0  0  0  0  0
   -0.7560    1.2930   -0.0500 O   0  0  0  0  0  0  0  0  0  0  0  0
   -1.1680    0.5410    1.0050 C   0  0  1  0  0  0  0  0  0  0  0  0
   -2.6020    0.3700    1.2330 C   0  0  1  0  0  0  0  0  0  0  0  0
   -2.7970   -0.4370    2.3570 O   0  0  0  0  0  0  0  0  0  0  0  0
   -3.1920    1.6190    1.4000 O   0  0  0  0  0  0  0  0  0  0  0  0
   -3.3340    2.1290    0.1160 C   0  0  0  0  0  0  0  0  0  0  0  0
   -3.3890    0.9950   -0.8530 C   0  0  0  0  0  0  0  0  0  0  0  0
   -3.4050   -0.1940    0.1110 C   0  0  1  0  0  0  0  0  0  0  0  0
   -2.9300   -1.3360   -0.4530 O   0  0  0  0  0  0  0  0  0  0  0  0
   -4.8390   -0.3220    0.6060 C   0  0  0  0  0  0  0  0  0  0  0  0
   -5.7710   -0.8810   -0.4140 C   0  0  0  0  0  0  0  0  0  0  0  0
   -7.0470   -0.9450    0.1710 O   0  0  0  0  0  0  0  0  0  0  0  0
   -0.3800   -0.7340    0.8100 C   0  0  0  0  0  0  0  0  0  0  0  0
  2  1  1  1
  2  3  1  0
  2 11  1  0
  2 24  1  0
  3  4  1  0
  4  5  1  0
  5  6  1  0
  6  7  1  6
  6  8  1  0
  8  9  1  0
  9 10  1  0
 11 12  1  0
 12 13  1  0
 13 14  1  0
 13 24  1  6
 14 15  1  1
 14 16  1  0
 14 19  1  0
 16 17  1  0
 17 18  1  0
 18 19  1  0
 19 20  1  6
 19 21  1  0
 21 22  1  0
 22 23  1  0
M  CHG  1   1   1
M  END
