
     RDKit          3D

 20 21  0  0  0  0  0  0  0  0999 V2000
   -3.1540   -2.7980    0.6000 C   0  0  0  0  0  0  0  0  0  0  0  0
   -2.4890   -1.6880    0.3550 C   0  0  0  0  0  0  0  0  0  0  0  0
   -1.1640   -1.5490    0.7840 O   0  0  0  0  0  0  0  0  0  0  0  0
   -0.4290   -0.3990    0.5470 C   0  0  0  0  0  0  0  0  0  0  0  0
   -1.0220    0.6410   -0.1320 C   0  0  0  0  0  0  0  0  0  0  0  0
   -0.2870    1.7830   -0.3650 C   0  0  0  0  0  0  0  0  0  0  0  0
    1.0080    1.9530    0.0390 C   0  0  0  0  0  0  0  0  0  0  0  0
    1.7910    3.2070   -0.2260 C   0  0  0  0  0  0  0  0  0  0  0  0
    1.0400    4.1340   -0.9150 O   0  0  0  0  0  0  0  0  0  0  0  0
    1.6090    0.8890    0.7320 C   0  0  0  0  0  0  0  0  0  0  0  0
    2.9090    1.1000    1.1290 O   0  0  0  0  0  0  0  0  0  0  0  0
    3.9760    0.8190    0.2720 C   0  0  0  0  0  0  0  0  0  0  0  0
    0.8980   -0.2620    0.9780 C   0  0  0  0  0  0  0  0  0  0  0  0
    1.4100   -1.3320    1.6470 O   0  0  0  0  0  0  0  0  0  0  0  0
    1.8460   -2.5010    1.0810 C   0  0  0  0  0  0  0  0  0  0  0  0
    2.9630   -2.4180    0.0780 C   0  0  0  0  0  0  0  0  0  0  0  0
   -2.4150    0.4960   -0.5830 C   0  0  0  0  0  0  0  0  0  0  0  0
   -3.0120    1.5740   -1.2810 N   0  0  0  0  0  0  0  0  0  0  0  0
   -3.1300   -0.5870   -0.3690 C   0  0  0  0  0  0  0  0  0  0  0  0
   -4.5390   -0.7470   -0.8200 C   0  0  0  0  0  0  0  0  0  0  0  0
  1  2  2  0
  2  3  1  0
  2 19  1  0
  3  4  1  0
  4  5  2  0
  4 13  1  0
  5  6  1  0
  5 17  1  0
  6  7  2  0
  7  8  1  0
  7 10  1  0
  8  9  1  0
 10 11  1  0
 10 13  2  0
 11 12  1  0
 13 14  1  0
 14 15  1  0
 15 16  1  0
 17 18  1  0
 17 19  2  0
 19 20  1  0
M  END
