
     RDKit          3D

 24 25  0  0  0  0  0  0  0  0999 V2000
    6.5660    0.0510   -0.8720 O   0  0  0  0  0  0  0  0  0  0  0  0
    6.4460   -0.1120    0.5080 C   0  0  0  0  0  0  0  0  0  0  0  0
    4.9980    0.0280    0.8660 C   0  0  2  0  0  0  0  0  0  0  0  0
    4.7370   -0.1130    2.2100 O   0  0  0  0  0  0  0  0  0  0  0  0
    4.1360   -0.9640    0.1160 C   0  0  0  0  0  0  0  0  0  0  0  0
    3.1230   -0.2650   -0.4900 O   0  0  0  0  0  0  0  0  0  0  0  0
    2.9640    0.9410    0.1820 C   0  0  2  0  0  0  0  0  0  0  0  0
    2.2020    1.8700   -0.6950 C   0  0  0  0  0  0  0  0  0  0  0  0
    0.9680    1.3200   -0.9950 O   0  0  0  0  0  0  0  0  0  0  0  0
    0.1580    1.0630    0.0810 C   0  0  0  0  0  0  0  0  0  0  0  0
   -1.1880    0.4680   -0.3690 C   0  0  1  0  0  0  0  0  0  0  0  0
   -0.8560   -0.8880   -0.9740 C   0  0  0  0  0  0  0  0  0  0  0  0
   -0.8070   -1.8410    0.0950 N   0  0  0  0  0  0  0  0  0  0  0  0
   -2.0600   -2.4590    0.3860 C   0  0  0  0  0  0  0  0  0  0  0  0
   -3.2610   -1.6150    0.0390 C   0  0  0  0  0  0  0  0  0  0  0  0
   -3.1930   -0.2270    0.5570 C   0  0  2  0  0  0  0  0  0  0  0  0
   -4.0170    0.6750   -0.3310 C   0  0  0  0  0  0  0  0  0  0  0  0
   -5.4700    0.2560   -0.3690 C   0  0  1  0  0  0  0  0  0  0  0  0
   -5.6580   -1.0210   -0.8470 O   0  0  0  0  0  0  0  0  0  0  0  0
   -5.9040    0.2390    0.9780 O   0  0  0  0  0  0  0  0  0  0  0  0
   -6.2440    1.1140   -1.1280 O   0  0  0  0  0  0  0  0  0  0  0  0
   -6.2360    2.3490   -0.6850 O   0  0  0  0  0  0  0  0  0  0  0  0
   -1.9190    0.2490    0.7720 O   0  0  0  0  0  0  0  0  0  0  0  0
    4.4190    1.3530    0.3520 C   0  0  0  0  0  0  0  0  0  0  0  0
  1  2  1  0
  2  3  1  0
  3  4  1  1
  3  5  1  0
  3 24  1  0
  5  6  1  0
  6  7  1  0
  7  8  1  6
  7 24  1  0
  8  9  1  0
  9 10  1  0
 11 10  1  1
 11 12  1  0
 11 23  1  0
 12 13  1  0
 13 14  1  0
 14 15  1  0
 15 16  1  0
 16 17  1  6
 16 23  1  0
 17 18  1  0
 18 19  1  6
 18 20  1  0
 18 21  1  0
 21 22  1  0
M  CHG  1  13   1
M  END
