
     RDKit          3D

 25 26  0  0  0  0  0  0  0  0999 V2000
   -6.4380   -1.3420   -1.0120 O   0  0  0  0  0  0  0  0  0  0  0  0
   -5.6400   -1.4930   -0.0600 C   0  0  0  0  0  0  0  0  0  0  0  0
   -5.9970   -2.2990    0.9940 O   0  0  0  0  0  0  0  0  0  0  0  0
   -4.3430   -0.8020   -0.0950 C   0  0  2  0  0  0  0  0  0  0  0  0
   -3.6360   -1.1160    1.0550 O   0  0  0  0  0  0  0  0  0  0  0  0
   -2.8320   -0.0350    1.2860 C   0  0  1  0  0  0  0  0  0  0  0  0
   -1.3790   -0.4160    1.1020 C   0  0  1  0  0  0  0  0  0  0  0  0
   -1.0530   -1.4260    1.9990 O   0  0  0  0  0  0  0  0  0  0  0  0
   -1.0770   -0.9080   -0.2710 C   0  0  0  0  0  0  0  0  0  0  0  0
    0.3240   -1.2370   -0.3730 N   0  0  0  0  0  0  0  0  0  0  0  0
    1.2100   -0.3500    0.3200 C   0  0  2  0  0  0  0  0  0  0  0  0
    1.0390    1.0470   -0.2290 C   0  0  0  0  0  0  0  0  0  0  0  0
    2.1970    1.2360   -1.1900 C   0  0  0  0  0  0  0  0  0  0  0  0
    3.3350    0.5170   -0.4510 C   0  0  1  0  0  0  0  0  0  0  0  0
    3.7250    1.2130    0.6610 O   0  0  0  0  0  0  0  0  0  0  0  0
    5.0180    1.6570    0.6850 C   0  0  0  0  0  0  0  0  0  0  0  0
    6.0880    0.6300    0.6110 C   0  0  0  0  0  0  0  0  0  0  0  0
    6.0660   -0.2730    1.6410 O   0  0  0  0  0  0  0  0  0  0  0  0
    2.6400   -0.7510   -0.0510 C   0  0  1  0  0  0  0  0  0  0  0  0
    3.2690   -1.3180    1.0320 O   0  0  0  0  0  0  0  0  0  0  0  0
   -3.2340    1.0360    0.5320 O   0  0  0  0  0  0  0  0  0  0  0  0
   -4.4830    0.7000   -0.0040 C   0  0  1  0  0  0  0  0  0  0  0  0
   -4.6440    1.3390   -1.3130 C   0  0  0  0  0  0  0  0  0  0  0  0
   -5.6730    1.2150   -2.0320 O   0  0  0  0  0  0  0  0  0  0  0  0
   -3.6320    2.1350   -1.8330 O   0  0  0  0  0  0  0  0  0  0  0  0
  1  2  2  0
  2  3  1  0
  4  2  1  1
  4  5  1  0
  4 22  1  0
  6  5  1  6
  6  7  1  0
  6 21  1  0
  7  8  1  1
  7  9  1  0
  9 10  1  0
 11 10  1  6
 11 12  1  0
 11 19  1  0
 12 13  1  0
 13 14  1  0
 14 15  1  1
 14 19  1  0
 15 16  1  0
 16 17  1  0
 17 18  1  0
 19 20  1  1
 21 22  1  0
 22 23  1  6
 23 24  2  0
 23 25  1  0
M  CHG  1  10   1
M  END
