
     RDKit          3D

 33 35  0  0  0  0  0  0  0  0999 V2000
   -4.2060    3.1900    4.0880 C   0  0  0  0  0  0  0  0  0  0  0  0
   -4.1840    2.3410    2.8350 C   0  0  0  0  0  0  0  0  0  0  0  0
   -2.8520    2.3100    2.3230 N   0  0  0  0  0  0  0  0  0  0  0  0
   -2.7200    2.7430    0.9770 C   0  0  0  0  0  0  0  0  0  0  0  0
   -3.2120    1.8750   -0.1050 C   0  0  0  0  0  0  0  0  0  0  0  0
   -2.5990    0.5560   -0.2000 N   0  0  0  0  0  0  0  0  0  0  0  0
   -3.2930   -0.5170    0.4320 C   0  0  0  0  0  0  0  0  0  0  0  0
   -4.3920   -1.1520   -0.3340 C   0  0  1  0  0  0  0  0  0  0  0  0
   -4.1390   -1.6700   -1.6830 C   0  0  0  0  0  0  0  0  0  0  0  0
   -4.2620   -3.1770   -1.5350 C   0  0  0  0  0  0  0  0  0  0  0  0
   -4.3360   -3.3520   -0.0430 C   0  0  0  0  0  0  0  0  0  0  0  0
   -4.9160   -2.1840    0.4440 O   0  0  0  0  0  0  0  0  0  0  0  0
   -1.4170    0.4140   -0.9550 C   0  0  0  0  0  0  0  0  0  0  0  0
   -0.9560    1.4570   -1.5450 O   0  0  0  0  0  0  0  0  0  0  0  0
   -0.6300   -0.7900   -1.1530 C   0  0  0  0  0  0  0  0  0  0  0  0
   -0.9360   -1.9810   -0.6190 N   0  0  0  0  0  0  0  0  0  0  0  0
   -0.0470   -2.8680   -0.9940 N   0  0  0  0  0  0  0  0  0  0  0  0
    0.8760   -2.2790   -1.7910 C   0  0  0  0  0  0  0  0  0  0  0  0
    0.5240   -0.9550   -1.9050 C   0  0  0  0  0  0  0  0  0  0  0  0
    1.2740    0.0180   -2.6990 C   0  0  0  0  0  0  0  0  0  0  0  0
    2.1490    0.9750   -1.9930 C   0  0  0  0  0  0  0  0  0  0  0  0
    2.0640    1.0310   -0.5660 N   0  0  0  0  0  0  0  0  0  0  0  0
    2.9460    1.6890    0.3390 C   0  0  0  0  0  0  0  0  0  0  0  0
    2.4720    2.6580    1.0780 O   0  0  0  0  0  0  0  0  0  0  0  0
    4.3600    1.4170    0.5610 C   0  0  0  0  0  0  0  0  0  0  0  0
    5.3350    2.5510    0.3120 C   0  0  0  0  0  0  0  0  0  0  0  0
    5.0120    3.6950    1.1070 N   0  0  0  0  0  0  0  0  0  0  0  0
    4.8600    0.2570    1.0130 C   0  0  0  0  0  0  0  0  0  0  0  0
    4.0910   -0.9480    1.3720 C   0  0  0  0  0  0  0  0  0  0  0  0
    4.3850   -2.1020    0.4370 C   0  0  0  0  0  0  0  0  0  0  0  0
    3.3590   -2.0090   -0.6580 C   0  0  0  0  0  0  0  0  0  0  0  0
    3.1270   -3.2970   -1.4150 C   0  0  0  0  0  0  0  0  0  0  0  0
    2.0390   -2.9260   -2.4430 C   0  0  0  0  0  0  0  0  0  0  0  0
  1  2  1  0
  2  3  1  0
  3  4  1  0
  4  5  1  0
  5  6  1  0
  6  7  1  0
  6 13  1  0
  8  7  1  1
  8  9  1  0
  8 12  1  0
  9 10  1  0
 10 11  1  0
 11 12  1  0
 13 14  2  0
 13 15  1  0
 15 16  2  0
 15 19  1  0
 16 17  1  0
 17 18  1  0
 18 19  2  0
 18 33  1  0
 19 20  1  0
 20 21  1  0
 21 22  1  0
 22 23  1  0
 23 24  2  0
 23 25  1  0
 25 26  1  0
 25 28  2  0
 26 27  1  0
 28 29  1  0
 29 30  1  0
 30 31  1  0
 31 32  1  0
 32 33  1  0
M  CHG  2   3   1  27   1
M  END
