
     RDKit          3D

 33 35  0  0  0  0  0  0  0  0999 V2000
    5.0090    2.6640    1.3400 C   0  0  0  0  0  0  0  0  0  0  0  0
    4.4290    1.6820    0.4440 N   0  0  2  0  0  0  0  0  0  0  0  0
    4.1590    2.3100   -0.8200 C   0  0  0  0  0  0  0  0  0  0  0  0
    4.2200    1.3580   -1.9960 C   0  0  0  0  0  0  0  0  0  0  0  0
    2.9330    0.6340   -2.1750 C   0  0  0  0  0  0  0  0  0  0  0  0
    2.2530   -0.2450   -1.3990 C   0  0  0  0  0  0  0  0  0  0  0  0
    1.0430   -0.5930   -2.1520 C   0  0  0  0  0  0  0  0  0  0  0  0
    0.2900   -1.7890   -1.6430 C   0  0  2  0  0  0  0  0  0  0  0  0
   -0.8840   -1.2810   -0.9000 C   0  0  0  0  0  0  0  0  0  0  0  0
   -0.8050   -1.3790    0.3560 O   0  0  0  0  0  0  0  0  0  0  0  0
   -2.0530   -0.7010   -1.4600 N   0  0  0  0  0  0  0  0  0  0  0  0
   -2.2500   -0.7030   -2.8750 C   0  0  0  0  0  0  0  0  0  0  0  0
   -2.9910   -1.8780   -3.4380 C   0  0  0  0  0  0  0  0  0  0  0  0
   -2.4150   -3.1120   -3.2220 O   0  0  0  0  0  0  0  0  0  0  0  0
   -2.9900   -0.0780   -0.5650 C   0  0  1  0  0  0  0  0  0  0  0  0
   -4.1530    0.5290   -1.3020 C   0  0  0  0  0  0  0  0  0  0  0  0
   -3.5560   -1.0490    0.4460 C   0  0  0  0  0  0  0  0  0  0  0  0
   -2.3500    1.0490    0.2560 C   0  0  0  0  0  0  0  0  0  0  0  0
   -3.4070    1.5850    1.1090 N   0  0  0  0  0  0  0  0  0  0  0  0
   -3.1240    2.6660    2.0030 C   0  0  0  0  0  0  0  0  0  0  0  0
   -1.9560    3.0990    2.0000 O   0  0  0  0  0  0  0  0  0  0  0  0
   -4.2040    3.1890    2.8530 C   0  0  0  0  0  0  0  0  0  0  0  0
   -5.4520    2.4920    2.6490 N   0  0  0  0  0  0  0  0  0  0  0  0
    1.0880   -2.6830   -0.7740 C   0  0  0  0  0  0  0  0  0  0  0  0
    1.9660   -1.9720    0.2220 C   0  0  0  0  0  0  0  0  0  0  0  0
    2.2530   -2.5960    1.5000 C   0  0  0  0  0  0  0  0  0  0  0  0
    1.2790   -3.0170    2.3820 C   0  0  0  0  0  0  0  0  0  0  0  0
    1.9080   -3.5920    3.4210 N   0  0  0  0  0  0  0  0  0  0  0  0
    3.2020   -3.5630    3.2560 N   0  0  0  0  0  0  0  0  0  0  0  0
    3.4370   -2.9540    2.0770 C   0  0  0  0  0  0  0  0  0  0  0  0
    2.5040   -0.8250   -0.0880 C   0  0  0  0  0  0  0  0  0  0  0  0
    3.2770   -0.3820    1.0910 C   0  0  0  0  0  0  0  0  0  0  0  0
    3.2280    1.1670    1.0960 C   0  0  0  0  0  0  0  0  0  0  0  0
  2  1  1  1
  2  3  1  0
  2 33  1  0
  3  4  1  0
  4  5  1  0
  5  6  2  0
  6  7  1  0
  6 31  1  0
  7  8  1  0
  8  9  1  1
  8 24  1  0
  9 10  2  0
  9 11  1  0
 11 12  1  0
 11 15  1  0
 12 13  1  0
 13 14  1  0
 15 16  1  6
 15 17  1  0
 15 18  1  0
 18 19  1  0
 19 20  1  0
 20 21  2  0
 20 22  1  0
 22 23  1  0
 24 25  1  0
 25 26  1  0
 25 31  2  0
 26 27  1  0
 26 30  2  0
 27 28  2  0
 28 29  1  0
 29 30  1  0
 31 32  1  0
 32 33  1  0
M  CHG  2   2   1  23   1
M  END
