
     RDKit          3D

 32 35  0  0  0  0  0  0  0  0999 V2000
    7.2710    3.1940   -0.9890 C   0  0  0  0  0  0  0  0  0  0  0  0
    7.3030    1.8710   -0.4510 O   0  0  0  0  0  0  0  0  0  0  0  0
    6.6060    0.8340   -1.0320 C   0  0  0  0  0  0  0  0  0  0  0  0
    5.9300    1.0500   -2.0520 O   0  0  0  0  0  0  0  0  0  0  0  0
    6.6630   -0.5100   -0.4520 C   0  0  2  0  0  0  0  0  0  0  0  0
    5.8170   -1.5050   -1.1940 C   0  0  0  0  0  0  0  0  0  0  0  0
    4.3330   -1.2080   -0.8280 C   0  0  0  0  0  0  0  0  0  0  0  0
    4.1400   -1.4190    0.5710 N   0  0  0  0  0  0  0  0  0  0  0  0
    2.9840   -1.3760    1.3140 C   0  0  0  0  0  0  0  0  0  0  0  0
    3.1510   -1.6350    2.5860 O   0  0  0  0  0  0  0  0  0  0  0  0
    1.6570   -1.0940    0.9000 C   0  0  0  0  0  0  0  0  0  0  0  0
    1.2920   -0.7370   -0.3470 C   0  0  0  0  0  0  0  0  0  0  0  0
   -0.0420   -0.4980   -0.6810 C   0  0  0  0  0  0  0  0  0  0  0  0
   -1.0620   -0.6110    0.2390 C   0  0  0  0  0  0  0  0  0  0  0  0
   -2.4190   -0.3680   -0.1050 N   0  0  0  0  0  0  0  0  0  0  0  0
   -3.4250   -0.5380    0.9130 C   0  0  0  0  0  0  0  0  0  0  0  0
   -4.7850   -0.2570    0.4240 C   0  0  0  0  0  0  0  0  0  0  0  0
   -5.4860   -1.2750   -0.2040 C   0  0  0  0  0  0  0  0  0  0  0  0
   -6.7210   -1.1180   -0.6820 N   0  0  0  0  0  0  0  0  0  0  0  0
   -7.3390    0.0750   -0.5610 C   0  0  0  0  0  0  0  0  0  0  0  0
   -8.5800    0.2880   -1.0250 N   0  0  0  0  0  0  0  0  0  0  0  0
   -9.2230    1.4570   -0.9240 C   0  0  0  0  0  0  0  0  0  0  0  0
  -10.5530    1.6300   -1.4400 N   0  0  0  0  0  0  0  0  0  0  0  0
   -8.5850    2.4740   -0.3230 N   0  0  0  0  0  0  0  0  0  0  0  0
   -7.3280    2.3160    0.1650 C   0  0  0  0  0  0  0  0  0  0  0  0
   -6.6670    3.3920    0.7960 N   0  0  0  0  0  0  0  0  0  0  0  0
   -6.6670    1.1100    0.0600 C   0  0  0  0  0  0  0  0  0  0  0  0
   -5.4050    0.9290    0.5420 N   0  0  0  0  0  0  0  0  0  0  0  0
   -0.6920   -0.9750    1.5140 C   0  0  0  0  0  0  0  0  0  0  0  0
    0.6210   -1.2090    1.8370 C   0  0  0  0  0  0  0  0  0  0  0  0
    5.4200   -1.7210    1.2920 C   0  0  0  0  0  0  0  0  0  0  0  0
    6.3460   -0.5480    1.0030 C   0  0  0  0  0  0  0  0  0  0  0  0
  1  2  1  0
  2  3  1  0
  3  4  2  0
  5  3  1  6
  5  6  1  0
  5 32  1  0
  6  7  1  0
  7  8  1  0
  8  9  1  0
  8 31  1  0
  9 10  2  0
  9 11  1  0
 11 12  2  0
 11 30  1  0
 12 13  1  0
 13 14  2  0
 14 15  1  0
 14 29  1  0
 15 16  1  0
 16 17  1  0
 17 18  2  0
 17 28  1  0
 18 19  1  0
 19 20  2  0
 20 21  1  0
 20 27  1  0
 21 22  2  0
 22 23  1  0
 22 24  1  0
 24 25  2  0
 25 26  1  0
 25 27  1  0
 27 28  2  0
 29 30  2  0
 31 32  1  0
M  END
