
     RDKit          3D

 33 35  0  0  0  0  0  0  0  0999 V2000
    7.8210    2.7540    0.0090 C   0  0  0  0  0  0  0  0  0  0  0  0
    6.5810    1.9230    0.1260 C   0  0  0  0  0  0  0  0  0  0  0  0
    5.5560    2.3430    0.8830 N   0  0  0  0  0  0  0  0  0  0  0  0
    4.4120    1.6570    1.0390 C   0  0  0  0  0  0  0  0  0  0  0  0
    3.4620    2.0810    1.7620 O   0  0  0  0  0  0  0  0  0  0  0  0
    4.2500    0.4400    0.3920 C   0  0  0  0  0  0  0  0  0  0  0  0
    2.9710   -0.3360    0.5450 C   0  0  0  0  0  0  0  0  0  0  0  0
    3.0480   -1.5610   -0.1810 N   0  0  0  0  0  0  0  0  0  0  0  0
    1.9840   -2.4900   -0.0010 C   0  0  1  0  0  0  0  0  0  0  0  0
    1.0490   -2.2670    1.1170 C   0  0  0  0  0  0  0  0  0  0  0  0
   -0.0490   -1.2630    0.9500 C   0  0  0  0  0  0  0  0  0  0  0  0
   -0.5550   -1.2170   -0.3920 N   0  0  0  0  0  0  0  0  0  0  0  0
   -1.3090   -0.1650   -0.9750 C   0  0  0  0  0  0  0  0  0  0  0  0
   -1.6600   -0.3120   -2.2110 O   0  0  0  0  0  0  0  0  0  0  0  0
   -1.7360    1.0760   -0.3330 C   0  0  1  0  0  0  0  0  0  0  0  0
   -0.6550    1.9240    0.2480 C   0  0  0  0  0  0  0  0  0  0  0  0
   -2.3930    1.8750   -1.3100 O   0  0  0  0  0  0  0  0  0  0  0  0
   -2.8540    0.8410    0.7010 C   0  0  0  0  0  0  0  0  0  0  0  0
   -4.0480    0.2250    0.0130 C   0  0  0  0  0  0  0  0  0  0  0  0
   -5.1450   -0.0270    0.9030 N   0  0  0  0  0  0  0  0  0  0  0  0
   -5.7800    1.1390    1.4080 C   0  0  0  0  0  0  0  0  0  0  0  0
   -7.2800    0.9730    1.3670 C   0  0  0  0  0  0  0  0  0  0  0  0
   -7.6550    0.7030   -0.0480 C   0  0  0  0  0  0  0  0  0  0  0  0
   -7.0120   -0.3050   -0.6280 C   0  0  0  0  0  0  0  0  0  0  0  0
   -7.2260   -0.7210   -1.9710 N   0  0  0  0  0  0  0  0  0  0  0  0
   -6.0120   -0.9850    0.2780 C   0  0  0  0  0  0  0  0  0  0  0  0
   -0.2370   -2.4050   -1.1990 C   0  0  0  0  0  0  0  0  0  0  0  0
    1.2370   -2.5970   -1.3090 C   0  0  0  0  0  0  0  0  0  0  0  0
    5.2770   -0.0130   -0.3860 C   0  0  0  0  0  0  0  0  0  0  0  0
    6.4560    0.7210   -0.5300 C   0  0  0  0  0  0  0  0  0  0  0  0
    7.5250    0.1780   -1.3870 C   0  0  0  0  0  0  0  0  0  0  0  0
    8.6340   -0.4110   -0.6410 C   0  0  0  0  0  0  0  0  0  0  0  0
    9.5030   -0.8830   -0.0720 N   0  0  0  0  0  0  0  0  0  0  0  0
  1  2  1  0
  2  3  1  0
  2 30  2  0
  3  4  1  0
  4  5  2  0
  4  6  1  0
  6  7  1  0
  6 29  2  0
  7  8  1  0
  9  8  1  6
  9 10  1  0
  9 28  1  0
 10 11  1  0
 11 12  1  0
 12 13  1  0
 12 27  1  0
 13 14  2  0
 13 15  1  0
 15 16  1  1
 15 17  1  0
 15 18  1  0
 18 19  1  0
 19 20  1  0
 20 21  1  0
 20 26  1  0
 21 22  1  0
 22 23  1  0
 23 24  2  0
 24 25  1  0
 24 26  1  0
 27 28  1  0
 29 30  1  0
 30 31  1  0
 31 32  1  0
 32 33  3  0
M  CHG  2   8   1  25   1
M  END
