
     RDKit          3D

 33 35  0  0  0  0  0  0  0  0999 V2000
    5.4390    3.1320    2.5970 C   0  0  0  0  0  0  0  0  0  0  0  0
    5.1360    2.1240    1.6810 O   0  0  0  0  0  0  0  0  0  0  0  0
    3.9070    1.8600    1.1480 C   0  0  0  0  0  0  0  0  0  0  0  0
    2.8170    2.6290    1.5090 C   0  0  0  0  0  0  0  0  0  0  0  0
    1.5920    2.3330    0.9510 C   0  0  0  0  0  0  0  0  0  0  0  0
    1.3870    1.3160    0.0530 C   0  0  0  0  0  0  0  0  0  0  0  0
    0.1230    1.0020   -0.5210 N   0  0  0  0  0  0  0  0  0  0  0  0
   -0.8880    0.3870    0.1130 C   0  0  0  0  0  0  0  0  0  0  0  0
   -1.9520    0.2290   -0.7690 C   0  0  0  0  0  0  0  0  0  0  0  0
   -3.1760   -0.5050   -0.4990 C   0  0  0  0  0  0  0  0  0  0  0  0
   -4.3660   -0.0360   -0.3620 C   0  0  0  0  0  0  0  0  0  0  0  0
   -4.8500    1.2910   -0.3980 N   0  0  0  0  0  0  0  0  0  0  0  0
   -4.2540    2.5210   -0.5590 C   0  0  0  0  0  0  0  0  0  0  0  0
   -5.0240    3.7480   -0.5770 N   0  0  0  0  0  0  0  0  0  0  0  0
   -3.0410    2.6300   -0.6970 O   0  0  0  0  0  0  0  0  0  0  0  0
   -5.5280   -0.9970   -0.3020 C   0  0  0  0  0  0  0  0  0  0  0  0
   -5.4900   -2.3640   -0.4340 N   0  0  0  0  0  0  0  0  0  0  0  0
   -6.6680   -0.4230   -0.1100 O   0  0  0  0  0  0  0  0  0  0  0  0
   -2.9300   -1.9630   -0.2080 C   0  0  0  0  0  0  0  0  0  0  0  0
   -3.2740   -2.5630    0.9680 C   0  0  0  0  0  0  0  0  0  0  0  0
   -2.9900   -3.9000    1.2000 C   0  0  0  0  0  0  0  0  0  0  0  0
   -2.3720   -4.6100    0.2630 N   0  0  0  0  0  0  0  0  0  0  0  0
   -2.0150   -4.0650   -0.9080 C   0  0  0  0  0  0  0  0  0  0  0  0
   -2.2940   -2.7210   -1.1550 C   0  0  0  0  0  0  0  0  0  0  0  0
   -1.4990    0.7850   -1.9350 N   0  0  0  0  0  0  0  0  0  0  0  0
   -0.2600    1.2400   -1.7650 N   0  0  0  0  0  0  0  0  0  0  0  0
    2.5140    0.5550   -0.2920 C   0  0  0  0  0  0  0  0  0  0  0  0
    3.7470    0.8350    0.2550 C   0  0  0  0  0  0  0  0  0  0  0  0
    4.8420    0.0670   -0.1040 O   0  0  0  0  0  0  0  0  0  0  0  0
    4.7030   -1.0050   -1.0290 C   0  0  0  0  0  0  0  0  0  0  0  0
    5.9710   -1.6920   -1.2740 C   0  0  0  0  0  0  0  0  0  0  0  0
    7.1990   -1.3650   -0.6760 N   0  0  0  0  0  0  0  0  0  0  0  0
    5.9440   -2.6580   -2.0950 O   0  0  0  0  0  0  0  0  0  0  0  0
  1  2  1  0
  2  3  1  0
  3  4  2  0
  3 28  1  0
  4  5  1  0
  5  6  2  0
  6  7  1  0
  6 27  1  0
  7  8  1  0
  7 26  1  0
  8  9  2  0
  9 10  1  0
  9 25  1  0
 10 11  2  3
 10 19  1  0
 11 12  1  0
 11 16  1  0
 12 13  1  0
 13 14  1  0
 13 15  2  0
 16 17  1  0
 16 18  2  0
 19 20  2  0
 19 24  1  0
 20 21  1  0
 21 22  2  0
 22 23  1  0
 23 24  2  0
 25 26  2  0
 27 28  2  0
 28 29  1  0
 29 30  1  0
 30 31  1  0
 31 32  1  0
 31 33  2  0
M  END
