
     RDKit          3D

 33 35  0  0  0  0  0  0  0  0999 V2000
    3.2030   -0.9560   -2.0340 C   0  0  0  0  0  0  0  0  0  0  0  0
    2.9660   -1.9970   -0.9260 C   0  0  0  0  0  0  0  0  0  0  0  0
    3.9580   -1.8040    0.1490 C   0  0  0  0  0  0  0  0  0  0  0  0
    5.0410   -2.5210    0.3680 N   0  0  0  0  0  0  0  0  0  0  0  0
    5.7510   -2.0820    1.4140 C   0  0  0  0  0  0  0  0  0  0  0  0
    7.0070   -2.6300    1.9470 C   0  0  0  0  0  0  0  0  0  0  0  0
    5.0810   -0.9810    1.9300 C   0  0  0  0  0  0  0  0  0  0  0  0
    5.4790   -0.1760    3.1080 C   0  0  0  0  0  0  0  0  0  0  0  0
    6.6110    0.7640    2.8650 C   0  0  0  0  0  0  0  0  0  0  0  0
    3.9720   -0.8180    1.1360 C   0  0  0  0  0  0  0  0  0  0  0  0
    2.8990    0.1350    1.1710 C   0  0  0  0  0  0  0  0  0  0  0  0
    1.6880   -0.0530    0.9590 O   0  0  0  0  0  0  0  0  0  0  0  0
    3.2190    1.4780    1.4630 N   0  0  0  0  0  0  0  0  0  0  0  0
    2.1060    2.3130    1.4880 C   0  0  0  0  0  0  0  0  0  0  0  0
    2.3880    3.5330    1.4480 N   0  0  0  0  0  0  0  0  0  0  0  0
    1.1110    4.3220    1.4620 C   0  0  0  0  0  0  0  0  0  0  0  0
    0.1020    3.6080    0.5980 C   0  0  0  0  0  0  0  0  0  0  0  0
   -1.0900    3.9350    0.7840 O   0  0  0  0  0  0  0  0  0  0  0  0
    0.4630    2.6770   -0.3220 O   0  0  0  0  0  0  0  0  0  0  0  0
   -0.5310    2.0280   -1.1070 C   0  0  0  0  0  0  0  0  0  0  0  0
   -1.4780    1.2420   -0.2420 C   0  0  0  0  0  0  0  0  0  0  0  0
   -2.4670    0.6010   -1.0940 N   0  0  0  0  0  0  0  0  0  0  0  0
   -1.8820   -0.4230   -1.8800 C   0  0  0  0  0  0  0  0  0  0  0  0
   -2.9400   -1.1750   -2.6370 C   0  0  2  0  0  0  0  0  0  0  0  0
   -3.5990   -0.2090   -3.5830 C   0  0  0  0  0  0  0  0  0  0  0  0
   -3.9040   -1.7750   -1.6480 C   0  0  2  0  0  0  0  0  0  0  0  0
   -4.8140   -2.6580   -2.3030 N   0  0  0  0  0  0  0  0  0  0  0  0
   -4.5900   -0.6620   -0.8820 C   0  0  1  0  0  0  0  0  0  0  0  0
   -5.4710   -1.2140    0.2130 C   0  0  0  0  0  0  0  0  0  0  0  0
   -5.9890   -0.1050    0.9940 N   0  0  0  0  0  0  0  0  0  0  0  0
   -5.7310    1.1780    0.3610 C   0  0  0  0  0  0  0  0  0  0  0  0
   -4.2590    1.4620    0.2410 C   0  0  0  0  0  0  0  0  0  0  0  0
   -3.5550    0.2050   -0.2580 C   0  0  2  0  0  0  0  0  0  0  0  0
  1  2  1  0
  2  3  1  0
  3  4  1  0
  3 10  2  0
  4  5  1  0
  5  6  1  0
  5  7  2  0
  7  8  1  0
  7 10  1  0
  8  9  1  0
 10 11  1  0
 11 12  2  0
 11 13  1  0
 13 14  1  0
 14 15  2  3
 15 16  1  0
 16 17  1  0
 17 18  2  0
 17 19  1  0
 19 20  1  0
 20 21  1  0
 21 22  1  0
 22 23  1  0
 22 33  1  0
 23 24  1  0
 24 25  1  6
 24 26  1  0
 26 27  1  6
 26 28  1  0
 28 29  1  1
 28 33  1  0
 29 30  1  0
 30 31  1  0
 31 32  1  0
 33 32  1  6
M  CHG  2  27   1  30   1
M  END
