
     RDKit          3D

 33 35  0  0  0  0  0  0  0  0999 V2000
    2.9140    2.8370    1.8970 C   0  0  0  0  0  0  0  0  0  0  0  0
    2.8220    1.7590    0.8750 C   0  0  0  0  0  0  0  0  0  0  0  0
    1.7570    1.7350   -0.0300 C   0  0  0  0  0  0  0  0  0  0  0  0
    1.6480    0.7490   -0.9850 C   0  0  0  0  0  0  0  0  0  0  0  0
    0.5090    0.7350   -1.9350 C   0  0  2  0  0  0  0  0  0  0  0  0
    0.1890    1.9650   -2.4260 O   0  0  0  0  0  0  0  0  0  0  0  0
   -0.6330   -0.1170   -1.4580 C   0  0  0  0  0  0  0  0  0  0  0  0
   -1.2600    0.2550   -0.1830 C   0  0  2  0  0  0  0  0  0  0  0  0
   -2.3650   -0.7850    0.0930 C   0  0  0  0  0  0  0  0  0  0  0  0
   -3.6090   -0.4610    0.1260 C   0  0  0  0  0  0  0  0  0  0  0  0
   -4.7590   -1.2760    0.3620 C   0  0  0  0  0  0  0  0  0  0  0  0
   -6.0750   -0.6300    0.3340 N   0  0  0  0  0  0  0  0  0  0  0  0
   -4.8410   -2.4960    0.5980 O   0  0  0  0  0  0  0  0  0  0  0  0
   -1.9290   -2.1680    0.2870 C   0  0  0  0  0  0  0  0  0  0  0  0
   -0.6030   -2.5720    0.4920 C   0  0  0  0  0  0  0  0  0  0  0  0
   -0.6090   -3.9620    0.6250 C   0  0  0  0  0  0  0  0  0  0  0  0
   -1.9290   -4.3180    0.4960 C   0  0  0  0  0  0  0  0  0  0  0  0
   -2.6220   -3.2420    0.3050 O   0  0  0  0  0  0  0  0  0  0  0  0
   -1.8660    1.5440   -0.1370 N   0  0  0  0  0  0  0  0  0  0  0  0
   -1.6520    2.3200    1.0430 C   0  0  0  0  0  0  0  0  0  0  0  0
   -0.8710    1.7930    2.0890 N   0  0  0  0  0  0  0  0  0  0  0  0
   -2.1490    3.4550    1.1570 O   0  0  0  0  0  0  0  0  0  0  0  0
   -2.6120    2.1690   -1.1560 C   0  0  0  0  0  0  0  0  0  0  0  0
   -3.1480    3.4580   -0.9410 N   0  0  0  0  0  0  0  0  0  0  0  0
   -2.8270    1.6350   -2.2560 O   0  0  0  0  0  0  0  0  0  0  0  0
    2.6180   -0.1830   -0.9970 N   0  0  0  0  0  0  0  0  0  0  0  0
    3.6630   -0.2030   -0.1470 C   0  0  0  0  0  0  0  0  0  0  0  0
    4.6870   -1.2390   -0.2060 C   0  0  0  0  0  0  0  0  0  0  0  0
    4.7970   -2.3110   -1.0560 C   0  0  0  0  0  0  0  0  0  0  0  0
    5.9410   -3.0390   -0.7440 C   0  0  0  0  0  0  0  0  0  0  0  0
    6.4920   -2.3680    0.3000 N   0  0  0  0  0  0  0  0  0  0  0  0
    5.7480   -1.3100    0.6120 N   0  0  0  0  0  0  0  0  0  0  0  0
    3.7260    0.7810    0.7670 N   0  0  0  0  0  0  0  0  0  0  0  0
  1  2  1  0
  2  3  2  0
  2 33  1  0
  3  4  1  0
  4  5  1  0
  4 26  2  0
  5  6  1  1
  5  7  1  0
  8  7  1  6
  8  9  1  0
  8 19  1  0
  9 10  2  3
  9 14  1  0
 10 11  1  0
 11 12  1  0
 11 13  2  0
 14 15  2  0
 14 18  1  0
 15 16  1  0
 16 17  2  0
 17 18  1  0
 19 20  1  0
 19 23  1  0
 20 21  1  0
 20 22  2  0
 23 24  1  0
 23 25  2  0
 26 27  1  0
 27 28  1  0
 27 33  2  0
 28 29  2  0
 28 32  1  0
 29 30  1  0
 30 31  2  0
 31 32  1  0
M  END
