
     RDKit          3D

 42 45  0  0  0  0  0  0  0  0999 V2000
   12.6760    2.0480    1.4350 C   0  0  0  0  0  0  0  0  0  0  0  0
   12.6670    0.9460    0.6130 O   0  0  0  0  0  0  0  0  0  0  0  0
   11.6610    0.0390    0.8880 C   0  0  0  0  0  0  0  0  0  0  0  0
   10.3000    0.6540    0.7460 C   0  0  2  0  0  0  0  0  0  0  0  0
    9.2050   -0.3650    1.0930 C   0  0  0  0  0  0  0  0  0  0  0  0
    7.9470    0.2580    0.7450 N   0  0  0  0  0  0  0  0  0  0  0  0
    6.7190   -0.4390    0.7020 C   0  0  0  0  0  0  0  0  0  0  0  0
    6.7090   -1.6780    0.9820 O   0  0  0  0  0  0  0  0  0  0  0  0
    5.4380    0.1960    0.3460 C   0  0  0  0  0  0  0  0  0  0  0  0
    4.2900   -0.7930    0.3870 C   0  0  0  0  0  0  0  0  0  0  0  0
    2.9860   -0.1210    0.0160 C   0  0  0  0  0  0  0  0  0  0  0  0
    1.9100   -1.1860    0.0870 C   0  0  1  0  0  0  0  0  0  0  0  0
    0.5500   -0.6510   -0.2620 C   0  0  0  0  0  0  0  0  0  0  0  0
   -0.1020   -1.5650   -1.2480 C   0  0  1  0  0  0  0  0  0  0  0  0
   -1.3970   -0.9870   -1.7600 C   0  0  0  0  0  0  0  0  0  0  0  0
   -1.8180    0.1270   -1.3490 O   0  0  0  0  0  0  0  0  0  0  0  0
   -2.1660   -1.6510   -2.6910 O   0  0  0  0  0  0  0  0  0  0  0  0
   -3.3690   -1.2240   -3.2350 C   0  0  0  0  0  0  0  0  0  0  0  0
   -4.4340   -1.0250   -2.1790 C   0  0  0  0  0  0  0  0  0  0  0  0
   -4.0770   -1.2630   -1.0190 O   0  0  0  0  0  0  0  0  0  0  0  0
   -5.7230   -0.6040   -2.4980 N   0  0  0  0  0  0  0  0  0  0  0  0
   -6.8330   -0.3110   -1.6840 C   0  0  0  0  0  0  0  0  0  0  0  0
   -8.5060   -0.6250   -2.3820 S   0  0  0  0  0  0  0  0  0  0  0  0
   -9.3730   -0.0580   -0.9280 C   0  0  0  0  0  0  0  0  0  0  0  0
   -8.3940    0.3180   -0.0550 C   0  0  0  0  0  0  0  0  0  0  0  0
   -7.1030    0.1850   -0.4640 C   0  0  0  0  0  0  0  0  0  0  0  0
   -5.9950    0.8260    0.3370 C   0  0  0  0  0  0  0  0  0  0  0  0
   -4.8440    0.9840   -0.0870 O   0  0  0  0  0  0  0  0  0  0  0  0
   -6.1910    1.2930    1.6320 O   0  0  0  0  0  0  0  0  0  0  0  0
   -5.1830    1.8880    2.3930 C   0  0  0  0  0  0  0  0  0  0  0  0
   -8.5930    0.8720    1.3420 C   0  0  0  0  0  0  0  0  0  0  0  0
  -10.0570    0.8190    1.7330 C   0  0  0  0  0  0  0  0  0  0  0  0
  -10.5110   -0.5990    1.9780 C   0  0  0  0  0  0  0  0  0  0  0  0
  -11.8380   -0.7500    1.2880 C   0  0  0  0  0  0  0  0  0  0  0  0
  -11.8100   -0.3980   -0.1440 C   0  0  0  0  0  0  0  0  0  0  0  0
  -10.8430   -0.1300   -0.9990 C   0  0  0  0  0  0  0  0  0  0  0  0
    0.8170   -1.6670   -2.4660 C   0  0  0  0  0  0  0  0  0  0  0  0
    2.2150   -2.0730   -2.0150 C   0  0  0  0  0  0  0  0  0  0  0  0
    2.2380   -2.3030   -0.6380 O   0  0  0  0  0  0  0  0  0  0  0  0
    7.9530    1.6700    0.4270 C   0  0  0  0  0  0  0  0  0  0  0  0
    8.9530    1.8650   -0.6980 C   0  0  0  0  0  0  0  0  0  0  0  0
   10.0970    1.1260   -0.5350 O   0  0  0  0  0  0  0  0  0  0  0  0
  1  2  1  0
  2  3  1  0
  4  3  1  6
  4  5  1  0
  4 42  1  0
  5  6  1  0
  6  7  1  0
  6 40  1  0
  7  8  2  0
  7  9  1  0
  9 10  1  0
 10 11  1  0
 12 11  1  6
 12 13  1  0
 12 39  1  0
 13 14  1  0
 14 15  1  6
 14 37  1  0
 15 16  2  0
 15 17  1  0
 17 18  1  0
 18 19  1  0
 19 20  2  0
 19 21  1  0
 21 22  1  0
 22 23  1  0
 22 26  2  0
 23 24  1  0
 24 25  2  0
 24 36  1  0
 25 26  1  0
 25 31  1  0
 26 27  1  0
 27 28  2  0
 27 29  1  0
 29 30  1  0
 31 32  1  0
 32 33  1  0
 33 34  1  0
 34 35  1  0
 35 36  2  0
 37 38  1  0
 38 39  1  0
 40 41  1  0
 41 42  1  0
M  END
