
     RDKit          3D

 42 45  0  0  0  0  0  0  0  0999 V2000
   -6.0850   -4.4530   -0.7750 C   0  0  0  0  0  0  0  0  0  0  0  0
   -4.8630   -3.9210   -0.3560 O   0  0  0  0  0  0  0  0  0  0  0  0
   -4.3830   -2.6910   -0.7540 C   0  0  0  0  0  0  0  0  0  0  0  0
   -5.0710   -2.0000   -1.5250 O   0  0  0  0  0  0  0  0  0  0  0  0
   -3.0660   -2.2880   -0.2190 C   0  0  1  0  0  0  0  0  0  0  0  0
   -2.0080   -3.3360   -0.5260 C   0  0  0  0  0  0  0  0  0  0  0  0
   -2.6550   -0.9890   -0.5460 O   0  0  0  0  0  0  0  0  0  0  0  0
   -2.3890   -0.1010    0.5010 C   0  0  0  0  0  0  0  0  0  0  0  0
   -2.5530   -0.5080    1.6490 O   0  0  0  0  0  0  0  0  0  0  0  0
   -1.9070    1.3220    0.2180 C   0  0  1  0  0  0  0  0  0  0  0  0
   -2.5400    2.3250    0.9900 C   0  0  0  0  0  0  0  0  0  0  0  0
   -0.4170    1.1130    0.0590 C   0  0  0  0  0  0  0  0  0  0  0  0
    0.3070    0.4660    1.2680 C   0  0  2  0  0  0  0  0  0  0  0  0
    0.3330    1.4390    2.3490 C   0  0  0  0  0  0  0  0  0  0  0  0
    0.7500    1.0860    3.7360 C   0  0  0  0  0  0  0  0  0  0  0  0
    1.0490   -0.0660    4.2340 C   0  0  0  0  0  0  0  0  0  0  0  0
    1.3900    0.0900    5.6320 N   0  0  0  0  0  0  0  0  0  0  0  0
    0.8620    1.3890    6.0670 C   0  0  0  0  0  0  0  0  0  0  0  0
    0.8670    2.1210    4.7830 C   0  0  0  0  0  0  0  0  0  0  0  0
    0.9550    3.3730    4.5620 O   0  0  0  0  0  0  0  0  0  0  0  0
    1.5570    0.1840    0.6580 O   0  0  0  0  0  0  0  0  0  0  0  0
    2.1020   -1.0290    0.4670 C   0  0  0  0  0  0  0  0  0  0  0  0
    1.6290   -2.1490    1.0690 C   0  0  0  0  0  0  0  0  0  0  0  0
    2.1920   -3.4140    0.8710 C   0  0  0  0  0  0  0  0  0  0  0  0
    3.2670   -3.5140    0.0310 C   0  0  0  0  0  0  0  0  0  0  0  0
    3.7740   -2.4050   -0.5950 C   0  0  0  0  0  0  0  0  0  0  0  0
    4.8290   -2.5430   -1.4970 C   0  0  0  0  0  0  0  0  0  0  0  0
    5.3340   -1.4930   -2.2010 C   0  0  0  0  0  0  0  0  0  0  0  0
    6.4870   -1.6650   -3.1350 C   0  0  0  0  0  0  0  0  0  0  0  0
    4.7950   -0.2430   -2.0210 C   0  0  0  0  0  0  0  0  0  0  0  0
    5.3050    0.9280   -2.7690 C   0  0  0  0  0  0  0  0  0  0  0  0
    3.7330   -0.0870   -1.1160 C   0  0  0  0  0  0  0  0  0  0  0  0
    3.2070   -1.1670   -0.3880 C   0  0  0  0  0  0  0  0  0  0  0  0
   -2.2360    1.5520   -1.2130 O   0  0  0  0  0  0  0  0  0  0  0  0
   -2.1190    2.9210   -1.5450 C   0  0  0  0  0  0  0  0  0  0  0  0
   -1.7970    3.7960   -0.6970 O   0  0  0  0  0  0  0  0  0  0  0  0
   -2.3910    3.4050   -2.9490 C   0  0  2  0  0  0  0  0  0  0  0  0
   -1.9120    4.9350   -2.9410 C   0  0  0  0  0  0  0  0  0  0  0  0
   -2.9820    5.4510   -1.4910 S   0  0  0  0  0  0  0  0  0  0  0  0
   -4.3240    4.3170   -1.8620 C   0  0  0  0  0  0  0  0  0  0  0  0
   -5.3830    4.2110   -1.2210 O   0  0  0  0  0  0  0  0  0  0  0  0
   -3.8480    3.6370   -3.0070 N   0  0  0  0  0  0  0  0  0  0  0  0
  1  2  1  0
  2  3  1  0
  3  4  2  0
  3  5  1  0
  5  6  1  6
  5  7  1  0
  7  8  1  0
  8  9  2  0
  8 10  1  0
 10 11  1  1
 10 12  1  0
 10 34  1  0
 13 12  1  6
 13 14  1  0
 13 21  1  0
 14 15  1  0
 15 16  2  0
 15 19  1  0
 16 17  1  0
 17 18  1  0
 18 19  1  0
 19 20  2  0
 21 22  1  0
 22 23  2  0
 22 33  1  0
 23 24  1  0
 24 25  2  0
 25 26  1  0
 26 27  2  0
 26 33  1  0
 27 28  1  0
 28 29  1  0
 28 30  2  0
 30 31  1  0
 30 32  1  0
 32 33  2  0
 34 35  1  0
 35 36  2  0
 37 35  1  1
 37 38  1  0
 37 42  1  0
 38 39  1  0
 39 40  1  0
 40 41  2  0
 40 42  1  0
M  END
