
     RDKit          3D

 42 45  0  0  0  0  0  0  0  0999 V2000
   -3.6500   -4.1000    1.7850 C   0  0  0  0  0  0  0  0  0  0  0  0
   -3.0260   -2.8460    1.7150 O   0  0  0  0  0  0  0  0  0  0  0  0
   -1.9440   -2.5710    0.8740 C   0  0  0  0  0  0  0  0  0  0  0  0
   -1.5050   -3.4600    0.1520 O   0  0  0  0  0  0  0  0  0  0  0  0
   -1.4350   -1.1690    0.9660 C   0  0  2  0  0  0  0  0  0  0  0  0
   -0.2960   -1.1100    0.0360 N   0  0  0  0  0  0  0  0  0  0  0  0
    0.7950   -1.9830    0.2220 C   0  0  0  0  0  0  0  0  0  0  0  0
    0.8150   -2.7970    1.1590 O   0  0  0  0  0  0  0  0  0  0  0  0
    1.9490   -1.9560   -0.6990 C   0  0  0  0  0  0  0  0  0  0  0  0
    2.0690   -1.1530   -1.7730 N   0  0  0  0  0  0  0  0  0  0  0  0
    3.2300   -1.3940   -2.4510 C   0  0  0  0  0  0  0  0  0  0  0  0
    3.5860   -0.6540   -3.6660 C   0  0  0  0  0  0  0  0  0  0  0  0
    4.4680    0.5180   -3.5460 C   0  0  0  0  0  0  0  0  0  0  0  0
    4.0720    1.5940   -2.6380 C   0  0  0  0  0  0  0  0  0  0  0  0
    3.1640    1.4370   -1.8040 O   0  0  0  0  0  0  0  0  0  0  0  0
    4.7110    2.8200   -2.6920 O   0  0  0  0  0  0  0  0  0  0  0  0
    4.3630    3.8810   -1.7920 C   0  0  0  0  0  0  0  0  0  0  0  0
    4.6970    3.4390   -0.3650 C   0  0  0  0  0  0  0  0  0  0  0  0
    6.4850    3.0740   -0.2850 S   0  0  0  0  0  0  0  0  0  0  0  0
    7.1580    3.8040   -1.4590 O   0  0  0  0  0  0  0  0  0  0  0  0
    3.8670   -2.3950   -1.7690 C   0  0  0  0  0  0  0  0  0  0  0  0
    3.0700   -2.7370   -0.6870 C   0  0  0  0  0  0  0  0  0  0  0  0
    3.4100   -3.7690    0.3280 C   0  0  1  0  0  0  0  0  0  0  0  0
    4.5320   -4.6250   -0.2420 C   0  0  0  0  0  0  0  0  0  0  0  0
    4.9200   -5.7220    0.6950 C   0  0  0  0  0  0  0  0  0  0  0  0
    4.8300   -5.3000    2.0020 O   0  0  0  0  0  0  0  0  0  0  0  0
    5.1090   -3.9440    2.0850 C   0  0  0  0  0  0  0  0  0  0  0  0
    3.9040   -3.1210    1.6290 C   0  0  0  0  0  0  0  0  0  0  0  0
   -0.9580   -0.7830    2.3120 C   0  0  0  0  0  0  0  0  0  0  0  0
   -2.0340   -0.6470    3.3500 C   0  0  0  0  0  0  0  0  0  0  0  0
   -3.1990    0.0850    2.8170 C   0  0  0  0  0  0  0  0  0  0  0  0
   -2.9430    0.7460    1.5050 C   0  0  2  0  0  0  0  0  0  0  0  0
   -4.0730    1.4760    1.0550 O   0  0  0  0  0  0  0  0  0  0  0  0
   -4.1610    2.8030    0.7890 C   0  0  0  0  0  0  0  0  0  0  0  0
   -3.1450    3.5310    0.9450 O   0  0  0  0  0  0  0  0  0  0  0  0
   -5.4050    3.4690    0.3140 C   0  0  2  0  0  0  0  0  0  0  0  0
   -6.4850    3.3170    1.3300 C   0  0  0  0  0  0  0  0  0  0  0  0
   -5.9160    2.8860   -0.9890 C   0  0  0  0  0  0  0  0  0  0  0  0
   -7.0390    3.8860   -1.2940 C   0  0  0  0  0  0  0  0  0  0  0  0
   -6.5390    5.2110   -0.7580 C   0  0  0  0  0  0  0  0  0  0  0  0
   -5.2220    4.9040   -0.0480 C   0  0  0  0  0  0  0  0  0  0  0  0
   -2.5290   -0.2690    0.4830 C   0  0  0  0  0  0  0  0  0  0  0  0
  1  2  1  0
  2  3  1  0
  3  4  2  0
  3  5  1  0
  5  6  1  6
  5 29  1  0
  5 42  1  0
  6  7  1  0
  7  8  2  0
  7  9  1  0
  9 10  1  0
  9 22  2  0
 10 11  1  0
 11 12  1  0
 11 21  2  0
 12 13  1  0
 13 14  1  0
 14 15  2  0
 14 16  1  0
 16 17  1  0
 17 18  1  0
 18 19  1  0
 19 20  2  0
 21 22  1  0
 23 22  1  6
 23 24  1  0
 23 28  1  0
 24 25  1  0
 25 26  1  0
 26 27  1  0
 27 28  1  0
 29 30  1  0
 30 31  1  0
 31 32  1  0
 32 33  1  6
 32 42  1  0
 33 34  1  0
 34 35  2  0
 34 36  1  0
 36 37  1  1
 36 38  1  0
 36 41  1  0
 38 39  1  0
 39 40  1  0
 40 41  1  0
M  END
