
     RDKit          3D

 42 45  0  0  0  0  0  0  0  0999 V2000
    9.7280    0.5240    3.4320 C   0  0  0  0  0  0  0  0  0  0  0  0
    9.5010    1.1220    2.2160 O   0  0  0  0  0  0  0  0  0  0  0  0
    9.5510    0.2210    1.1630 C   0  0  0  0  0  0  0  0  0  0  0  0
    8.5170   -0.8680    1.2940 C   0  0  0  0  0  0  0  0  0  0  0  0
    8.5370   -1.7770    0.2500 O   0  0  0  0  0  0  0  0  0  0  0  0
    8.2880   -1.2240   -0.9920 C   0  0  0  0  0  0  0  0  0  0  0  0
    6.9280   -0.5440   -1.0060 C   0  0  0  0  0  0  0  0  0  0  0  0
    6.6820    0.0320   -2.4160 C   0  0  2  0  0  0  0  0  0  0  0  0
    7.7330    1.0140   -2.7880 C   0  0  0  0  0  0  0  0  0  0  0  0
    5.3530    0.7300   -2.2970 C   0  0  0  0  0  0  0  0  0  0  0  0
    5.1720    2.1000   -2.1200 C   0  0  0  0  0  0  0  0  0  0  0  0
    3.8120    2.2910   -2.0620 C   0  0  0  0  0  0  0  0  0  0  0  0
    3.2060    1.0460   -2.2030 C   0  0  0  0  0  0  0  0  0  0  0  0
    1.7610    0.7900   -2.1970 C   0  0  0  0  0  0  0  0  0  0  0  0
    0.9360    1.7050   -2.0890 O   0  0  0  0  0  0  0  0  0  0  0  0
    1.3320   -0.5150   -2.3140 O   0  0  0  0  0  0  0  0  0  0  0  0
   -0.0270   -0.8730   -2.3030 C   0  0  0  0  0  0  0  0  0  0  0  0
   -0.6580   -0.4660   -0.9990 C   0  0  0  0  0  0  0  0  0  0  0  0
    0.0650    0.0540    0.0460 C   0  0  0  0  0  0  0  0  0  0  0  0
   -0.8730    0.2910    1.0300 C   0  0  0  0  0  0  0  0  0  0  0  0
   -2.1510   -0.0950    0.5570 C   0  0  0  0  0  0  0  0  0  0  0  0
   -3.3200    0.0340    1.3590 C   0  0  0  0  0  0  0  0  0  0  0  0
   -3.0910    0.6000    2.5440 O   0  0  0  0  0  0  0  0  0  0  0  0
   -4.6780   -0.2910    1.2170 N   0  0  0  0  0  0  0  0  0  0  0  0
   -5.5370    0.0860    2.3880 C   0  0  0  0  0  0  0  0  0  0  0  0
   -6.8610    0.6090    2.1180 C   0  0  2  0  0  0  0  0  0  0  0  0
   -7.9950   -0.3360    2.5410 C   0  0  0  0  0  0  0  0  0  0  0  0
   -7.1700    1.1800    0.7750 C   0  0  1  0  0  0  0  0  0  0  0  0
   -6.7770    2.6040    0.6590 C   0  0  0  0  0  0  0  0  0  0  0  0
   -5.9580    2.9380   -0.2200 O   0  0  0  0  0  0  0  0  0  0  0  0
   -7.3170    3.5690    1.5300 N   0  0  0  0  0  0  0  0  0  0  0  0
   -6.9630    4.9630    1.4420 C   0  0  0  0  0  0  0  0  0  0  0  0
   -6.1470    5.3450    0.5600 O   0  0  0  0  0  0  0  0  0  0  0  0
   -6.5640    0.1960   -0.5830 S   0  0  0  0  0  0  0  0  0  0  0  0
   -5.2900   -0.9530    0.1270 C   0  0  1  0  0  0  0  0  0  0  0  0
   -4.5060   -1.4000   -1.0430 C   0  0  0  0  0  0  0  0  0  0  0  0
   -5.5620   -2.1360   -1.9530 C   0  0  0  0  0  0  0  0  0  0  0  0
   -5.6520   -3.5450   -1.3890 C   0  0  0  0  0  0  0  0  0  0  0  0
   -5.4510   -3.4740    0.1210 C   0  0  0  0  0  0  0  0  0  0  0  0
   -6.0420   -2.1830    0.6630 C   0  0  0  0  0  0  0  0  0  0  0  0
   -1.8930   -0.5220   -0.6430 O   0  0  0  0  0  0  0  0  0  0  0  0
    4.1720    0.1890   -2.3360 O   0  0  0  0  0  0  0  0  0  0  0  0
  1  2  1  0
  2  3  1  0
  3  4  1  0
  4  5  1  0
  5  6  1  0
  6  7  1  0
  7  8  1  0
  8  9  1  1
  8 10  1  0
 10 11  2  0
 10 42  1  0
 11 12  1  0
 12 13  2  0
 13 14  1  0
 13 42  1  0
 14 15  2  0
 14 16  1  0
 16 17  1  0
 17 18  1  0
 18 19  2  0
 18 41  1  0
 19 20  1  0
 20 21  2  0
 21 22  1  0
 21 41  1  0
 22 23  2  0
 22 24  1  0
 24 25  1  0
 24 35  1  0
 25 26  1  0
 26 27  1  6
 26 28  1  0
 28 29  1  1
 28 34  1  0
 29 30  2  0
 29 31  1  0
 31 32  1  0
 32 33  2  0
 34 35  1  0
 35 36  1  6
 35 40  1  0
 36 37  1  0
 37 38  1  0
 38 39  1  0
 39 40  1  0
M  END
