
     RDKit          3D

 43 45  0  0  0  0  0  0  0  0999 V2000
    4.9560   -1.3440    0.9890 C   0  0  0  0  0  0  0  0  0  0  0  0
    4.2810   -0.1870    1.6810 C   0  0  2  0  0  0  0  0  0  0  0  0
    4.6720   -0.2520    3.1440 C   0  0  0  0  0  0  0  0  0  0  0  0
    2.9010   -0.1990    1.6010 O   0  0  0  0  0  0  0  0  0  0  0  0
    2.1720   -0.1620    0.4010 C   0  0  0  0  0  0  0  0  0  0  0  0
    2.8610   -0.1170   -0.6190 O   0  0  0  0  0  0  0  0  0  0  0  0
    0.7480   -0.1810    0.4980 C   0  0  2  0  0  0  0  0  0  0  0  0
    0.3270   -1.5110    1.1190 C   0  0  0  0  0  0  0  0  0  0  0  0
    0.2190   -2.6140    0.1440 C   0  0  0  0  0  0  0  0  0  0  0  0
    0.4060   -2.2390   -1.2560 N   0  0  0  0  0  0  0  0  0  0  0  0
    0.2660   -0.9150   -1.7580 C   0  0  0  0  0  0  0  0  0  0  0  0
   -0.1300    0.0350   -0.6990 C   0  0  2  0  0  0  0  0  0  0  0  0
   -0.0990    1.4580   -1.1940 C   0  0  0  0  0  0  0  0  0  0  0  0
   -1.0180    2.2660   -0.8390 O   0  0  0  0  0  0  0  0  0  0  0  0
    0.8790    1.9980   -2.0350 N   0  0  0  0  0  0  0  0  0  0  0  0
    0.8240    3.3790   -2.4440 C   0  0  0  0  0  0  0  0  0  0  0  0
    0.8770    4.3520   -1.2990 C   0  0  0  0  0  0  0  0  0  0  0  0
    2.0420    4.2280   -0.5500 O   0  0  0  0  0  0  0  0  0  0  0  0
   -1.5330   -0.1260   -0.1660 C   0  0  0  0  0  0  0  0  0  0  0  0
   -1.6000    0.6300    1.0810 N   0  0  0  0  0  0  0  0  0  0  0  0
   -2.5100    1.3940    1.4530 C   0  0  0  0  0  0  0  0  0  0  0  0
   -3.6190    1.6100    0.6580 O   0  0  0  0  0  0  0  0  0  0  0  0
   -2.4120    2.0850    2.7610 C   0  0  0  0  0  0  0  0  0  0  0  0
   -3.5200    1.7180    3.6210 N   0  0  0  0  0  0  0  0  0  0  0  0
   -3.6510    2.2420    4.9140 C   0  0  0  0  0  0  0  0  0  0  0  0
   -2.8050    3.0520    5.3700 O   0  0  0  0  0  0  0  0  0  0  0  0
   -4.7360    1.8510    5.6920 O   0  0  0  0  0  0  0  0  0  0  0  0
   -2.5240   -0.6950   -0.5370 N   0  0  0  0  0  0  0  0  0  0  0  0
   -3.1730   -1.4800   -1.4570 C   0  0  0  0  0  0  0  0  0  0  0  0
   -4.5680   -1.5850   -1.5690 C   0  0  0  0  0  0  0  0  0  0  0  0
   -5.1540   -2.3790   -2.5110 C   0  0  0  0  0  0  0  0  0  0  0  0
   -4.3540   -3.0940   -3.3740 C   0  0  0  0  0  0  0  0  0  0  0  0
   -2.9660   -2.9800   -3.2520 C   0  0  0  0  0  0  0  0  0  0  0  0
   -2.4860   -2.1940   -2.3170 N   0  0  0  0  0  0  0  0  0  0  0  0
   -2.0870   -3.7360   -4.1760 C   0  0  0  0  0  0  0  0  0  0  0  0
   -2.5920   -3.9570   -5.3320 O   0  0  0  0  0  0  0  0  0  0  0  0
   -0.8540   -4.1450   -3.7960 O   0  0  0  0  0  0  0  0  0  0  0  0
    0.2100   -3.4750   -3.3610 O   0  0  0  0  0  0  0  0  0  0  0  0
    0.7520   -3.3440   -2.1250 C   0  0  0  0  0  0  0  0  0  0  0  0
    1.6000   -4.1900   -1.6600 O   0  0  0  0  0  0  0  0  0  0  0  0
    4.8780    1.0610    1.1080 C   0  0  0  0  0  0  0  0  0  0  0  0
    4.1360    1.9540    0.6250 O   0  0  0  0  0  0  0  0  0  0  0  0
    6.2460    1.2700    1.0910 O   0  0  0  0  0  0  0  0  0  0  0  0
  2  1  1  6
  2  3  1  0
  2  4  1  0
  2 41  1  0
  4  5  1  0
  5  6  2  0
  7  5  1  6
  7  8  1  0
  7 12  1  0
  8  9  1  0
  9 10  1  0
 10 11  1  0
 10 39  1  0
 11 12  1  0
 12 13  1  6
 12 19  1  0
 13 14  2  0
 13 15  1  0
 15 16  1  0
 16 17  1  0
 17 18  1  0
 19 20  1  0
 19 28  2  0
 20 21  2  3
 21 22  1  0
 21 23  1  0
 23 24  1  0
 24 25  1  0
 25 26  2  0
 25 27  1  0
 28 29  1  0
 29 30  2  0
 29 34  1  0
 30 31  1  0
 31 32  2  0
 32 33  1  0
 33 34  2  0
 33 35  1  0
 35 36  2  0
 35 37  1  0
 37 38  1  0
 38 39  1  0
 39 40  2  0
 41 42  2  0
 41 43  1  0
M  END
