
     RDKit          3D

 44 48  0  0  0  0  0  0  0  0999 V2000
    1.9450   -0.4780   -2.3690 C   0  0  0  0  0  0  0  0  0  0  0  0
    2.7150   -0.2850   -1.0830 C   0  0  1  0  0  0  0  0  0  0  0  0
    4.2070   -0.3260   -1.4670 C   0  0  0  0  0  0  0  0  0  0  0  0
    4.9550   -0.0380   -0.2750 O   0  0  0  0  0  0  0  0  0  0  0  0
    6.3310    0.0040   -0.2720 C   0  0  0  0  0  0  0  0  0  0  0  0
    6.9360   -0.2180   -1.3510 O   0  0  0  0  0  0  0  0  0  0  0  0
    7.0810    0.2830    0.8740 O   0  0  0  0  0  0  0  0  0  0  0  0
    2.5010    1.1630   -0.6810 C   0  0  0  0  0  0  0  0  0  0  0  0
    1.0470    1.5520   -0.7200 C   0  0  0  0  0  0  0  0  0  0  0  0
    0.7450    2.4380    0.3310 N   0  0  0  0  0  0  0  0  0  0  0  0
    1.5710    3.6180    0.3190 C   0  0  0  0  0  0  0  0  0  0  0  0
    1.4240    4.5030    1.2130 O   0  0  0  0  0  0  0  0  0  0  0  0
    2.5370    3.8390   -0.6400 O   0  0  0  0  0  0  0  0  0  0  0  0
   -0.2480    2.3600    1.3620 C   0  0  2  0  0  0  0  0  0  0  0  0
   -0.3850    1.1660    2.2110 C   0  0  0  0  0  0  0  0  0  0  0  0
    0.5460    0.0430    1.9800 C   0  0  0  0  0  0  0  0  0  0  0  0
    0.5720   -0.9320    2.9920 O   0  0  0  0  0  0  0  0  0  0  0  0
    0.2340   -2.2920    2.7660 C   0  0  0  0  0  0  0  0  0  0  0  0
    0.8670   -3.1260    3.4920 O   0  0  0  0  0  0  0  0  0  0  0  0
   -0.7350   -2.7930    1.8200 C   0  0  0  0  0  0  0  0  0  0  0  0
   -0.6670   -2.7180    0.4980 C   0  0  0  0  0  0  0  0  0  0  0  0
    0.4760   -2.7540   -0.3520 N   0  0  0  0  0  0  0  0  0  0  0  0
    1.8360   -2.4790   -0.1920 C   0  0  0  0  0  0  0  0  0  0  0  0
    2.6140   -3.5430   -0.1070 O   0  0  0  0  0  0  0  0  0  0  0  0
    2.4690   -1.2290   -0.1130 O   0  0  0  0  0  0  0  0  0  0  0  0
   -2.0890   -2.6930    0.0950 C   0  0  2  0  0  0  0  0  0  0  0  0
   -2.6080   -1.2970    0.4580 C   0  0  0  0  0  0  0  0  0  0  0  0
   -3.1730   -1.2570    1.5860 O   0  0  0  0  0  0  0  0  0  0  0  0
   -2.4520   -0.2960   -0.3500 O   0  0  0  0  0  0  0  0  0  0  0  0
   -2.9850    0.4960   -1.3110 C   0  0  1  0  0  0  0  0  0  0  0  0
   -2.8500   -0.1610   -2.6490 C   0  0  0  0  0  0  0  0  0  0  0  0
   -4.4810    0.8000   -1.1330 C   0  0  0  0  0  0  0  0  0  0  0  0
   -4.7160    2.0790   -0.6100 O   0  0  0  0  0  0  0  0  0  0  0  0
   -3.8340    2.6010    0.3160 C   0  0  0  0  0  0  0  0  0  0  0  0
   -4.1880    3.1530    1.3910 O   0  0  0  0  0  0  0  0  0  0  0  0
   -2.3830    2.4830   -0.0200 N   0  0  0  0  0  0  0  0  0  0  0  0
   -1.5290    3.0390    0.9510 C   0  0  0  0  0  0  0  0  0  0  0  0
   -2.2440    1.8410   -1.2480 C   0  0  0  0  0  0  0  0  0  0  0  0
   -1.6600    2.0940   -2.3230 O   0  0  0  0  0  0  0  0  0  0  0  0
   -2.6940   -3.6260    1.0710 N   0  0  0  0  0  0  0  0  0  0  0  0
   -3.7900   -4.4060    1.2530 C   0  0  0  0  0  0  0  0  0  0  0  0
   -3.8080   -4.6770    2.5920 N   0  0  0  0  0  0  0  0  0  0  0  0
   -2.7500   -4.0750    3.1640 N   0  0  0  0  0  0  0  0  0  0  0  0
   -2.0480   -3.4200    2.1850 C   0  0  0  0  0  0  0  0  0  0  0  0
  2  1  1  6
  2  3  1  0
  2  8  1  0
  2 25  1  0
  3  4  1  0
  4  5  1  0
  5  6  2  0
  5  7  1  0
  8  9  1  0
  9 10  1  0
 10 11  1  0
 10 14  1  0
 11 12  2  0
 11 13  1  0
 14 15  1  0
 14 37  1  6
 15 16  1  0
 16 17  1  0
 17 18  1  0
 18 19  2  0
 18 20  1  0
 20 21  2  0
 20 44  1  0
 21 22  1  0
 21 26  1  0
 22 23  1  0
 23 24  2  0
 23 25  1  0
 26 27  1  0
 26 40  1  1
 27 28  2  0
 27 29  1  0
 29 30  1  0
 30 31  1  6
 30 32  1  0
 30 38  1  0
 32 33  1  0
 33 34  1  0
 34 35  2  0
 34 36  1  0
 36 37  1  0
 36 38  1  0
 38 39  2  0
 40 41  1  0
 40 44  1  0
 41 42  2  0
 42 43  1  0
 43 44  2  0
M  END
