
     RDKit          3D

 43 47  0  0  0  0  0  0  0  0999 V2000
   -1.5110   -4.7490   -2.9030 O   0  0  0  0  0  0  0  0  0  0  0  0
   -0.4580   -4.0580   -2.5560 C   0  0  0  0  0  0  0  0  0  0  0  0
   -0.6340   -3.4930   -1.2610 N   0  0  0  0  0  0  0  0  0  0  0  0
   -0.3030   -2.1450   -0.9000 C   0  0  0  0  0  0  0  0  0  0  0  0
   -1.1690   -1.4810    0.1170 C   0  0  1  0  0  0  0  0  0  0  0  0
   -2.3260   -0.7940   -0.5660 C   0  0  0  0  0  0  0  0  0  0  0  0
   -3.2750   -0.2340    0.2770 O   0  0  0  0  0  0  0  0  0  0  0  0
   -4.3580    0.4080   -0.3060 C   0  0  0  0  0  0  0  0  0  0  0  0
   -4.4580    0.4700   -1.5530 O   0  0  0  0  0  0  0  0  0  0  0  0
   -5.4350    1.0450    0.4930 C   0  0  2  0  0  0  0  0  0  0  0  0
   -5.4440    2.5410    0.2820 C   0  0  0  0  0  0  0  0  0  0  0  0
   -5.4850    3.0870    1.5640 O   0  0  0  0  0  0  0  0  0  0  0  0
   -5.9810    2.0490    2.3220 C   0  0  0  0  0  0  0  0  0  0  0  0
   -5.2530    0.9350    1.8500 O   0  0  0  0  0  0  0  0  0  0  0  0
   -1.8330   -2.4800    1.0790 C   0  0  0  0  0  0  0  0  0  0  0  0
   -2.7700   -1.7430    1.8070 O   0  0  0  0  0  0  0  0  0  0  0  0
   -2.1440   -0.8680    2.6560 C   0  0  0  0  0  0  0  0  0  0  0  0
   -1.2420    0.1060    1.9710 C   0  0  0  0  0  0  0  0  0  0  0  0
   -0.4010   -0.5820    0.9550 N   0  0  0  0  0  0  0  0  0  0  0  0
    0.9830   -0.3350    0.9230 C   0  0  0  0  0  0  0  0  0  0  0  0
    1.4710   -0.2750    2.1360 O   0  0  0  0  0  0  0  0  0  0  0  0
    1.9500   -0.1380   -0.1380 C   0  0  2  0  0  0  0  0  0  0  0  0
    2.8930    0.9880    0.2810 C   0  0  0  0  0  0  0  0  0  0  0  0
    2.3520    2.0220    1.0210 C   0  0  0  0  0  0  0  0  0  0  0  0
    3.1920    3.0500    1.4070 C   0  0  0  0  0  0  0  0  0  0  0  0
    4.5400    3.0780    1.0810 C   0  0  0  0  0  0  0  0  0  0  0  0
    5.3540    4.1480    1.4970 O   0  0  0  0  0  0  0  0  0  0  0  0
    5.9480    4.0110    2.6730 O   0  0  0  0  0  0  0  0  0  0  0  0
    5.8760    2.8080    3.1710 O   0  0  0  0  0  0  0  0  0  0  0  0
    7.0230    2.1660    3.1120 O   0  0  0  0  0  0  0  0  0  0  0  0
    5.0430    2.0360    0.3460 C   0  0  0  0  0  0  0  0  0  0  0  0
    4.2130    1.0080   -0.0430 C   0  0  0  0  0  0  0  0  0  0  0  0
    1.4850    0.2910   -1.4230 N   0  0  0  0  0  0  0  0  0  0  0  0
    0.5740    1.2630   -1.6200 C   0  0  0  0  0  0  0  0  0  0  0  0
    0.4010    1.3830   -2.9770 C   0  0  0  0  0  0  0  0  0  0  0  0
    1.2040    0.4890   -3.5310 N   0  0  0  0  0  0  0  0  0  0  0  0
    1.8930   -0.2070   -2.6090 C   0  0  0  0  0  0  0  0  0  0  0  0
    2.8430   -1.2310   -2.8620 N   0  0  0  0  0  0  0  0  0  0  0  0
    2.8180   -2.6210   -2.6370 C   0  0  0  0  0  0  0  0  0  0  0  0
    3.7170   -3.0010   -1.7550 O   0  0  0  0  0  0  0  0  0  0  0  0
    2.0550   -3.7370   -3.1350 C   0  0  0  0  0  0  0  0  0  0  0  0
    2.7830   -4.8270   -3.4260 O   0  0  0  0  0  0  0  0  0  0  0  0
    0.6810   -3.9160   -3.3810 N   0  0  0  0  0  0  0  0  0  0  0  0
  1  2  2  0
  2  3  1  0
  2 43  1  0
  3  4  1  0
  4  5  1  0
  5  6  1  6
  5 15  1  0
  5 19  1  0
  6  7  1  0
  7  8  1  0
  8  9  2  0
 10  8  1  6
 10 11  1  0
 10 14  1  0
 11 12  1  0
 12 13  1  0
 13 14  1  0
 15 16  1  0
 16 17  1  0
 17 18  1  0
 18 19  1  0
 19 20  1  0
 20 21  2  0
 20 22  1  0
 22 23  1  1
 22 33  1  0
 23 24  2  0
 23 32  1  0
 24 25  1  0
 25 26  2  0
 26 27  1  0
 26 31  1  0
 27 28  1  0
 28 29  1  0
 29 30  1  0
 31 32  2  0
 33 34  1  0
 33 37  1  0
 34 35  2  0
 35 36  1  0
 36 37  2  0
 37 38  1  0
 38 39  1  0
 39 40  2  0
 39 41  1  0
 41 42  2  0
 41 43  1  0
M  END
