
     RDKit          3D

 43 46  0  0  0  0  0  0  0  0999 V2000
    6.6820   -2.2390    2.3380 C   0  0  0  0  0  0  0  0  0  0  0  0
    5.4370   -2.1900    1.6480 O   0  0  0  0  0  0  0  0  0  0  0  0
    5.3060   -1.5490    0.4360 C   0  0  0  0  0  0  0  0  0  0  0  0
    6.3710   -0.9200   -0.1660 C   0  0  0  0  0  0  0  0  0  0  0  0
    6.1810   -0.3030   -1.3640 C   0  0  0  0  0  0  0  0  0  0  0  0
    4.9440   -0.3030   -1.9700 C   0  0  0  0  0  0  0  0  0  0  0  0
    3.8440   -0.9260   -1.3950 C   0  0  0  0  0  0  0  0  0  0  0  0
    2.5470   -0.9380   -2.0390 C   0  0  0  0  0  0  0  0  0  0  0  0
    1.5750    0.1060   -1.6500 C   0  0  2  0  0  0  0  0  0  0  0  0
    2.1980    1.4770   -1.9740 C   0  0  0  0  0  0  0  0  0  0  0  0
    1.7270    2.2770   -2.8280 N   0  0  0  0  0  0  0  0  0  0  0  0
    0.5830    2.1800   -3.6640 C   0  0  0  0  0  0  0  0  0  0  0  0
   -0.5120    2.5390   -3.2040 N   0  0  0  0  0  0  0  0  0  0  0  0
   -1.5750    2.9480   -2.5880 C   0  0  0  0  0  0  0  0  0  0  0  0
   -2.0680    4.1600   -2.8470 O   0  0  0  0  0  0  0  0  0  0  0  0
   -2.4180    2.3610   -1.6100 O   0  0  0  0  0  0  0  0  0  0  0  0
   -1.8970    1.4960   -0.6200 C   0  0  0  0  0  0  0  0  0  0  0  0
   -2.9280    0.7550    0.2020 C   0  0  1  0  0  0  0  0  0  0  0  0
   -4.1580    1.2660   -0.1560 O   0  0  0  0  0  0  0  0  0  0  0  0
   -5.2700    0.8580    0.4630 C   0  0  0  0  0  0  0  0  0  0  0  0
   -5.7710   -0.5260    0.3410 C   0  0  0  0  0  0  0  0  0  0  0  0
   -6.0800   -0.8290   -0.9740 O   0  0  0  0  0  0  0  0  0  0  0  0
   -6.5110   -2.0460   -1.0750 O   0  0  0  0  0  0  0  0  0  0  0  0
   -7.7690   -2.2320   -0.8360 O   0  0  0  0  0  0  0  0  0  0  0  0
   -2.9080   -0.6160   -0.0140 O   0  0  0  0  0  0  0  0  0  0  0  0
   -3.0680   -1.1220   -1.2690 C   0  0  0  0  0  0  0  0  0  0  0  0
   -3.2360   -0.3250   -2.2270 O   0  0  0  0  0  0  0  0  0  0  0  0
   -3.0490   -2.4740   -1.5090 O   0  0  0  0  0  0  0  0  0  0  0  0
   -2.6470    1.0870    1.6570 C   0  0  0  0  0  0  0  0  0  0  0  0
   -3.0890    2.3060    1.8660 O   0  0  0  0  0  0  0  0  0  0  0  0
   -2.0630    0.3960    2.7140 N   0  0  0  0  0  0  0  0  0  0  0  0
   -2.9630    0.0280    3.8390 C   0  0  0  0  0  0  0  0  0  0  0  0
   -0.6700    0.0240    2.9150 C   0  0  0  0  0  0  0  0  0  0  0  0
   -0.3010   -0.4200    4.0520 O   0  0  0  0  0  0  0  0  0  0  0  0
    0.4150    0.1180    1.8960 C   0  0  0  0  0  0  0  0  0  0  0  0
    0.4070   -0.2830    0.6450 C   0  0  0  0  0  0  0  0  0  0  0  0
    1.4090    0.1980   -0.2310 N   0  0  0  0  0  0  0  0  0  0  0  0
    2.4800    1.0910    0.1780 C   0  0  0  0  0  0  0  0  0  0  0  0
    3.2040    1.3980   -0.9130 N   0  0  0  0  0  0  0  0  0  0  0  0
    2.5440    1.5160    1.5340 N   0  0  0  0  0  0  0  0  0  0  0  0
    1.5130    1.0270    2.3710 C   0  0  0  0  0  0  0  0  0  0  0  0
    1.5660    1.4080    3.5950 O   0  0  0  0  0  0  0  0  0  0  0  0
    4.0700   -1.5490   -0.1700 C   0  0  0  0  0  0  0  0  0  0  0  0
  1  2  1  0
  2  3  1  0
  3  4  2  0
  3 43  1  0
  4  5  1  0
  5  6  2  0
  6  7  1  0
  7  8  1  0
  7 43  2  0
  9  8  1  1
  9 10  1  0
  9 37  1  0
 10 11  2  0
 10 39  1  0
 11 12  1  0
 12 13  2  0
 13 14  1  0
 14 15  2  0
 14 16  1  0
 16 17  1  0
 17 18  1  0
 18 19  1  6
 18 25  1  0
 18 29  1  0
 19 20  1  0
 20 21  1  0
 21 22  1  0
 22 23  1  0
 23 24  1  0
 25 26  1  0
 26 27  2  0
 26 28  1  0
 29 30  2  0
 29 31  1  0
 31 32  1  0
 31 33  1  0
 33 34  2  0
 33 35  1  0
 35 36  2  0
 35 41  1  0
 36 37  1  0
 37 38  1  0
 38 39  2  0
 38 40  1  0
 40 41  1  0
 41 42  2  0
M  END
