
     RDKit          3D

 29 32  0  0  0  0  0  0  0  0999 V2000
   -3.5770    3.1370    1.3870 C   0  0  0  0  0  0  0  0  0  0  0  0
   -4.3680    1.8620    1.3260 C   0  0  0  0  0  0  0  0  0  0  0  0
   -5.6640    1.7940    1.7710 C   0  0  0  0  0  0  0  0  0  0  0  0
   -6.4090    0.6420    1.7250 C   0  0  0  0  0  0  0  0  0  0  0  0
   -5.8530   -0.5130    1.2130 C   0  0  0  0  0  0  0  0  0  0  0  0
   -6.3200   -1.7610    1.0380 N   0  0  0  0  0  0  0  0  0  0  0  0
   -5.3890   -2.5370    0.4940 C   0  0  0  0  0  0  0  0  0  0  0  0
   -5.4990   -3.9940    0.1330 C   0  0  0  0  0  0  0  0  0  0  0  0
   -4.2810   -1.7350    0.3180 N   0  0  0  0  0  0  0  0  0  0  0  0
   -3.0970   -2.2350   -0.2430 C   0  0  0  0  0  0  0  0  0  0  0  0
   -3.0420   -3.4630   -0.6150 O   0  0  0  0  0  0  0  0  0  0  0  0
   -1.8850   -1.4310   -0.4390 C   0  0  0  0  0  0  0  0  0  0  0  0
   -0.8590   -2.2930   -1.0700 N   0  0  1  0  0  0  0  0  0  0  0  0
   -0.4430   -1.8130   -2.3550 C   0  0  0  0  0  0  0  0  0  0  0  0
    0.2020   -2.5730   -0.1450 C   0  0  0  0  0  0  0  0  0  0  0  0
    1.1680   -1.5010    0.1080 C   0  0  0  0  0  0  0  0  0  0  0  0
    2.0980   -1.7340    0.9100 O   0  0  0  0  0  0  0  0  0  0  0  0
    1.1410   -0.2340   -0.4740 N   0  0  0  0  0  0  0  0  0  0  0  0
    2.0160    0.6650    0.3100 C   0  0  2  0  0  0  0  0  0  0  0  0
    1.7420    2.0740   -0.0920 C   0  0  0  0  0  0  0  0  0  0  0  0
    2.8990    2.4380   -0.9960 C   0  0  0  0  0  0  0  0  0  0  0  0
    4.0590    1.7540   -0.2700 C   0  0  2  0  0  0  0  0  0  0  0  0
    5.2410    1.7790   -1.0690 N   0  0  0  0  0  0  0  0  0  0  0  0
    6.4460    1.9930   -0.3030 C   0  0  1  0  0  0  0  0  0  0  0  0
    6.5920    1.4370    1.0630 C   0  0  0  0  0  0  0  0  0  0  0  0
    7.2680    0.7380   -0.0660 C   0  0  0  0  0  0  0  0  0  0  0  0
    3.4520    0.3520   -0.1330 C   0  0  0  0  0  0  0  0  0  0  0  0
   -4.5460   -0.4840    0.7540 C   0  0  0  0  0  0  0  0  0  0  0  0
   -3.8190    0.6910    0.8130 C   0  0  0  0  0  0  0  0  0  0  0  0
  1  2  1  0
  2  3  2  0
  2 29  1  0
  3  4  1  0
  4  5  2  0
  5  6  1  0
  5 28  1  0
  6  7  2  0
  7  8  1  0
  7  9  1  0
  9 10  1  0
  9 28  1  0
 10 11  2  0
 10 12  1  0
 12 13  1  0
 13 14  1  6
 13 15  1  0
 15 16  1  0
 16 17  2  0
 16 18  1  0
 19 18  1  6
 19 20  1  0
 19 27  1  0
 20 21  1  0
 21 22  1  0
 22 23  1  6
 22 27  1  0
 24 23  1  6
 24 25  1  0
 24 26  1  0
 25 26  1  0
 28 29  2  0
M  CHG  3  13   1  18   1  23   1
M  END
