
     RDKit          3D

 29 32  0  0  0  0  0  0  0  0999 V2000
    1.8120   -4.2670   -0.4790 C   0  0  0  0  0  0  0  0  0  0  0  0
    1.3890   -2.8500   -0.1850 C   0  0  0  0  0  0  0  0  0  0  0  0
    1.4870   -2.4750    0.9690 O   0  0  0  0  0  0  0  0  0  0  0  0
    0.8850   -1.9850   -1.2690 C   0  0  0  0  0  0  0  0  0  0  0  0
    0.4280   -0.6930   -0.8580 N   0  0  0  0  0  0  0  0  0  0  0  0
    1.3700    0.4080   -0.7760 C   0  0  0  0  0  0  0  0  0  0  0  0
    0.9410    1.5330   -0.4230 O   0  0  0  0  0  0  0  0  0  0  0  0
    2.7270    0.2690   -1.0700 N   0  0  0  0  0  0  0  0  0  0  0  0
    3.7310    1.2610   -1.0270 C   0  0  0  0  0  0  0  0  0  0  0  0
    3.5760    2.5250   -0.6960 C   0  0  0  0  0  0  0  0  0  0  0  0
    4.8300    3.3650   -0.7380 C   0  0  0  0  0  0  0  0  0  0  0  0
    5.8550    2.6530    0.0980 C   0  0  0  0  0  0  0  0  0  0  0  0
    5.9670    1.2490   -0.2470 N   0  0  1  0  0  0  0  0  0  0  0  0
    5.5230    0.4480    0.8760 C   0  0  2  0  0  0  0  0  0  0  0  0
    6.2510    0.4900    2.1670 C   0  0  0  0  0  0  0  0  0  0  0  0
    6.4760   -0.6790    1.2350 C   0  0  0  0  0  0  0  0  0  0  0  0
    5.1600    0.9020   -1.3880 C   0  0  0  0  0  0  0  0  0  0  0  0
   -0.9630   -0.4350   -0.5350 C   0  0  1  0  0  0  0  0  0  0  0  0
   -1.8790   -0.6280   -1.7180 C   0  0  0  0  0  0  0  0  0  0  0  0
   -3.2010   -1.2700   -1.2720 C   0  0  0  0  0  0  0  0  0  0  0  0
   -3.6360   -0.4900   -0.0460 C   0  0  1  0  0  0  0  0  0  0  0  0
   -5.0240   -0.7630    0.1740 N   0  0  0  0  0  0  0  0  0  0  0  0
   -5.6210   -0.0560    1.2530 C   0  0  1  0  0  0  0  0  0  0  0  0
   -5.2120    1.3630    1.4050 C   0  0  0  0  0  0  0  0  0  0  0  0
   -6.0320    2.0670    0.3490 C   0  0  0  0  0  0  0  0  0  0  0  0
   -7.3000    1.4140    0.4310 N   0  0  0  0  0  0  0  0  0  0  0  0
   -7.1150    0.0880    0.9290 C   0  0  0  0  0  0  0  0  0  0  0  0
   -2.7780   -0.9940    1.1010 C   0  0  0  0  0  0  0  0  0  0  0  0
   -1.3510   -1.2390    0.6540 C   0  0  0  0  0  0  0  0  0  0  0  0
  1  2  1  0
  2  3  2  0
  2  4  1  0
  4  5  1  0
  5  6  1  0
 18  5  1  6
  6  7  2  0
  6  8  1  0
  8  9  1  0
  9 10  2  0
  9 17  1  0
 10 11  1  0
 11 12  1  0
 13 12  1  1
 13 14  1  0
 13 17  1  0
 14 15  1  1
 14 16  1  0
 15 16  1  0
 18 19  1  0
 18 29  1  0
 19 20  1  0
 20 21  1  0
 21 22  1  1
 21 28  1  0
 23 22  1  6
 23 24  1  0
 23 27  1  0
 24 25  1  0
 25 26  1  0
 26 27  1  0
 28 29  1  0
M  CHG  3  13   1  22   1  26   1
M  END
