
     RDKit          3D

 29 31  0  0  0  0  0  0  0  0999 V2000
    6.6640    5.3340    0.0910 C   0  0  0  0  0  0  0  0  0  0  0  0
    5.7920    4.2770   -0.0830 O   0  0  0  0  0  0  0  0  0  0  0  0
    6.5340    2.8050    0.2480 S   0  0  2  0  0  0  0  0  0  0  0  0
    7.3930    2.9330    1.4910 O   0  0  0  0  0  0  0  0  0  0  0  0
    7.4380    2.4430   -0.8650 O   0  0  0  0  0  0  0  0  0  0  0  0
    5.3810    1.5230    0.5190 C   0  0  0  0  0  0  0  0  0  0  0  0
    4.8140    0.7690   -0.4700 C   0  0  0  0  0  0  0  0  0  0  0  0
    3.8930   -0.2650   -0.2210 C   0  0  0  0  0  0  0  0  0  0  0  0
    3.5310   -0.5470    1.0680 C   0  0  0  0  0  0  0  0  0  0  0  0
    2.6120   -1.5510    1.4050 N   0  0  0  0  0  0  0  0  0  0  0  0
    1.6620   -2.2840    0.6930 C   0  0  2  0  0  0  0  0  0  0  0  0
    2.1490   -3.2060   -0.3640 C   0  0  0  0  0  0  0  0  0  0  0  0
    0.9830   -4.1070   -0.8320 C   0  0  0  0  0  0  0  0  0  0  0  0
   -0.1080   -3.3370   -1.1990 O   0  0  0  0  0  0  0  0  0  0  0  0
   -0.5640   -2.4490   -0.2610 C   0  0  2  0  0  0  0  0  0  0  0  0
   -1.0890   -3.2100    0.9180 C   0  0  0  0  0  0  0  0  0  0  0  0
   -1.4200   -2.1850    1.9900 C   0  0  0  0  0  0  0  0  0  0  0  0
   -2.5670   -1.3760    1.4750 C   0  0  0  0  0  0  0  0  0  0  0  0
   -2.3230   -0.7150    0.1370 C   0  0  2  0  0  0  0  0  0  0  0  0
   -3.6860   -0.2250   -0.2940 C   0  0  0  0  0  0  0  0  0  0  0  0
   -3.7400    0.4430   -1.5440 N   0  0  0  0  0  0  0  0  0  0  0  0
   -5.0920    0.8710   -1.8140 C   0  0  0  0  0  0  0  0  0  0  0  0
   -5.5600    1.9810   -0.9020 C   0  0  1  0  0  0  0  0  0  0  0  0
   -4.6300    3.1620   -1.1100 C   0  0  0  0  0  0  0  0  0  0  0  0
   -6.9870    2.3450   -1.2910 C   0  0  0  0  0  0  0  0  0  0  0  0
   -1.7290   -1.6670   -0.8450 C   0  0  0  0  0  0  0  0  0  0  0  0
    0.5390   -1.4670    0.0650 C   0  0  0  0  0  0  0  0  0  0  0  0
    4.1120    0.2310    2.0820 C   0  0  0  0  0  0  0  0  0  0  0  0
    5.0130    1.2470    1.8440 C   0  0  0  0  0  0  0  0  0  0  0  0
  1  2  1  0
  3  2  1  6
  3  4  2  0
  3  5  2  0
  3  6  1  0
  6  7  2  0
  6 29  1  0
  7  8  1  0
  8  9  2  0
  9 10  1  0
  9 28  1  0
 11 10  1  6
 11 12  1  0
 11 27  1  0
 12 13  1  0
 13 14  1  0
 14 15  1  0
 15 16  1  1
 15 26  1  0
 15 27  1  0
 16 17  1  0
 17 18  1  0
 18 19  1  0
 19 20  1  6
 19 26  1  0
 20 21  1  0
 21 22  1  0
 22 23  1  0
 23 24  1  6
 23 25  1  0
 28 29  2  0
M  END
