
     RDKit          3D

 29 31  0  0  0  0  0  0  0  0999 V2000
    7.2970   -0.3840   -0.2780 C   0  0  0  0  0  0  0  0  0  0  0  0
    6.5620   -1.5170   -0.9810 C   0  0  0  0  0  0  0  0  0  0  0  0
    5.2150   -1.3060   -0.8150 O   0  0  0  0  0  0  0  0  0  0  0  0
    4.9340   -1.3040    0.5510 C   0  0  0  0  0  0  0  0  0  0  0  0
    3.4160   -1.0650    0.6610 C   0  0  1  0  0  0  0  0  0  0  0  0
    3.0410   -1.0470    2.0080 O   0  0  0  0  0  0  0  0  0  0  0  0
    3.2000    0.3320    0.1410 C   0  0  0  0  0  0  0  0  0  0  0  0
    1.7930    0.6660    0.3090 N   0  0  0  0  0  0  0  0  0  0  0  0
    0.8270   -0.0980   -0.3540 C   0  0  0  0  0  0  0  0  0  0  0  0
    1.1670   -1.0520   -1.0840 O   0  0  0  0  0  0  0  0  0  0  0  0
   -0.5790    0.1960   -0.2120 C   0  0  0  0  0  0  0  0  0  0  0  0
   -0.9780    1.4010    0.3110 C   0  0  0  0  0  0  0  0  0  0  0  0
   -2.3150    1.7120    0.4680 C   0  0  0  0  0  0  0  0  0  0  0  0
   -3.2590    0.7870    0.0870 C   0  0  0  0  0  0  0  0  0  0  0  0
   -2.8720   -0.4690   -0.4570 C   0  0  0  0  0  0  0  0  0  0  0  0
   -3.7840   -1.3250   -0.8090 C   0  0  0  0  0  0  0  0  0  0  0  0
   -3.6940   -2.6260   -1.3670 C   0  0  0  0  0  0  0  0  0  0  0  0
   -2.5290   -3.4050   -1.7210 C   0  0  0  0  0  0  0  0  0  0  0  0
   -4.8860   -3.2510   -1.6140 C   0  0  0  0  0  0  0  0  0  0  0  0
   -4.9550   -4.8850   -2.3130 S   0  0  0  0  0  0  0  0  0  0  0  0
   -1.5360   -0.7400   -0.5960 C   0  0  0  0  0  0  0  0  0  0  0  0
   -4.5220    1.1200    0.2510 C   0  0  0  0  0  0  0  0  0  0  0  0
   -5.0150    2.4020    0.8080 C   0  0  0  0  0  0  0  0  0  0  0  0
   -3.9650    3.3500    1.1970 C   0  0  0  0  0  0  0  0  0  0  0  0
   -3.9960    4.5650    1.7190 O   0  0  0  0  0  0  0  0  0  0  0  0
   -2.8060    5.0160    1.8920 N   0  0  0  0  0  0  0  0  0  0  0  0
   -1.8860    4.0850    1.4770 C   0  0  0  0  0  0  0  0  0  0  0  0
   -0.4240    4.2770    1.5360 C   0  0  0  0  0  0  0  0  0  0  0  0
   -2.6560    3.0310    1.0380 C   0  0  0  0  0  0  0  0  0  0  0  0
  1  2  1  0
  2  3  1  0
  3  4  1  0
  4  5  1  0
  5  6  1  1
  5  7  1  0
  7  8  1  0
  8  9  1  0
  9 10  2  0
  9 11  1  0
 11 12  1  0
 11 21  2  0
 12 13  2  0
 13 14  1  0
 13 29  1  0
 14 15  1  0
 14 22  2  0
 15 16  2  3
 15 21  1  0
 16 17  1  0
 17 18  1  0
 17 19  2  3
 19 20  1  0
 22 23  1  0
 23 24  1  0
 24 25  1  0
 24 29  2  0
 25 26  1  0
 26 27  2  0
 27 28  1  0
 27 29  1  0
M  END
