
     RDKit          3D

 29 32  0  0  0  0  0  0  0  0999 V2000
   -4.8920    2.3030    2.1130 C   0  0  0  0  0  0  0  0  0  0  0  0
   -4.6300    2.0070    0.6870 C   0  0  2  0  0  0  0  0  0  0  0  0
   -5.7920    2.4290   -0.1850 C   0  0  0  0  0  0  0  0  0  0  0  0
   -6.8600    1.3900   -0.3010 C   0  0  0  0  0  0  0  0  0  0  0  0
   -6.7650    0.3020    0.7140 C   0  0  0  0  0  0  0  0  0  0  0  0
   -5.4290   -0.3880    0.7850 C   0  0  0  0  0  0  0  0  0  0  0  0
   -4.3530    0.5470    0.3840 C   0  0  2  0  0  0  0  0  0  0  0  0
   -3.0320    0.1590    0.8450 N   0  0  0  0  0  0  0  0  0  0  0  0
   -1.9550   -0.1950   -0.0030 C   0  0  0  0  0  0  0  0  0  0  0  0
   -2.1480   -0.1730   -1.2260 O   0  0  0  0  0  0  0  0  0  0  0  0
   -0.6150   -0.5850    0.5860 C   0  0  0  0  0  0  0  0  0  0  0  0
    0.3420   -0.8920   -0.4220 N   0  0  1  0  0  0  0  0  0  0  0  0
    1.2270    0.2160   -0.5440 C   0  0  0  0  0  0  0  0  0  0  0  0
    2.6330   -0.0620   -0.7910 C   0  0  0  0  0  0  0  0  0  0  0  0
    3.5700    0.9980   -0.5960 N   0  0  0  0  0  0  0  0  0  0  0  0
    4.9260    0.8280   -1.0600 C   0  0  0  0  0  0  0  0  0  0  0  0
    5.8150    1.9520   -0.7930 C   0  0  0  0  0  0  0  0  0  0  0  0
    5.5450    3.0790   -0.1920 C   0  0  0  0  0  0  0  0  0  0  0  0
    6.7180    3.9010   -0.1470 N   0  0  0  0  0  0  0  0  0  0  0  0
    7.7330    3.1690   -0.7790 C   0  0  0  0  0  0  0  0  0  0  0  0
    7.2290    2.0150   -1.1710 C   0  0  0  0  0  0  0  0  0  0  0  0
    3.0420   -1.1960   -1.1570 N   0  0  0  0  0  0  0  0  0  0  0  0
    2.0890   -2.2670   -1.3410 C   0  0  0  0  0  0  0  0  0  0  0  0
    0.9720   -2.1850   -0.3140 C   0  0  1  0  0  0  0  0  0  0  0  0
    1.5600   -2.4210    1.0390 C   0  0  0  0  0  0  0  0  0  0  0  0
    2.1910   -3.7970    1.1290 C   0  0  0  0  0  0  0  0  0  0  0  0
    1.3080   -4.7940    0.7470 O   0  0  0  0  0  0  0  0  0  0  0  0
    0.7230   -4.6100   -0.4810 C   0  0  0  0  0  0  0  0  0  0  0  0
    0.0130   -3.2840   -0.6430 C   0  0  0  0  0  0  0  0  0  0  0  0
  2  1  1  1
  2  3  1  0
  2  7  1  0
  3  4  1  0
  4  5  1  0
  5  6  1  0
  6  7  1  0
  7  8  1  1
  8  9  1  0
  9 10  2  0
  9 11  1  0
 12 11  1  1
 12 13  1  0
 12 24  1  0
 13 14  1  0
 14 15  1  0
 14 22  2  0
 15 16  1  0
 16 17  1  0
 17 18  2  0
 17 21  1  0
 18 19  1  0
 19 20  1  0
 20 21  2  0
 22 23  1  0
 24 23  1  6
 24 25  1  0
 24 29  1  0
 25 26  1  0
 26 27  1  0
 27 28  1  0
 28 29  1  0
M  CHG  3  12   1  19   1  22   1
M  END
