
     RDKit          3D

 29 32  0  0  0  0  0  0  0  0999 V2000
   -0.3720   -2.0630   -0.6710 C   0  0  0  0  0  0  0  0  0  0  0  0
    0.0030   -1.1540    0.3940 N   0  0  1  0  0  0  0  0  0  0  0  0
    1.4190   -1.0040    0.5300 C   0  0  1  0  0  0  0  0  0  0  0  0
    2.2080   -1.5060   -0.6440 C   0  0  0  0  0  0  0  0  0  0  0  0
    3.6120   -1.2850   -0.3560 N   0  0  0  0  0  0  0  0  0  0  0  0
    4.3800   -0.9880   -1.5510 C   0  0  0  0  0  0  0  0  0  0  0  0
    5.4870   -0.0470   -1.1950 C   0  0  0  0  0  0  0  0  0  0  0  0
    5.4810    1.3190   -1.1960 C   0  0  0  0  0  0  0  0  0  0  0  0
    6.6940    1.7420   -0.8060 N   0  0  0  0  0  0  0  0  0  0  0  0
    7.4710    0.6860   -0.5580 C   0  0  0  0  0  0  0  0  0  0  0  0
    8.8920    0.6920   -0.1010 C   0  0  1  0  0  0  0  0  0  0  0  0
    9.2370   -0.4070    0.9090 C   0  0  0  0  0  0  0  0  0  0  0  0
    9.7760   -0.4560   -0.5030 C   0  0  0  0  0  0  0  0  0  0  0  0
    6.7120   -0.4230   -0.8020 N   0  0  0  0  0  0  0  0  0  0  0  0
    1.6970    0.4630    0.7960 C   0  0  0  0  0  0  0  0  0  0  0  0
    0.3000    1.0110    1.1150 C   0  0  0  0  0  0  0  0  0  0  0  0
   -0.5490    0.1660    0.1870 C   0  0  2  0  0  0  0  0  0  0  0  0
   -1.9660    0.2430    0.6460 C   0  0  0  0  0  0  0  0  0  0  0  0
   -2.4790   -0.7820    1.1270 O   0  0  0  0  0  0  0  0  0  0  0  0
   -2.7380    1.4160    0.5580 N   0  0  0  0  0  0  0  0  0  0  0  0
   -4.1010    1.4790    1.0020 C   0  0  0  0  0  0  0  0  0  0  0  0
   -5.0190    0.5280    0.3010 C   0  0  2  0  0  0  0  0  0  0  0  0
   -5.0970    0.7370   -1.1740 C   0  0  0  0  0  0  0  0  0  0  0  0
   -6.3870    0.0630   -1.6590 C   0  0  0  0  0  0  0  0  0  0  0  0
   -6.7980   -0.9360   -0.7950 O   0  0  0  0  0  0  0  0  0  0  0  0
   -7.2340   -0.4700    0.4250 C   0  0  1  0  0  0  0  0  0  0  0  0
   -8.6930   -0.1400    0.4740 C   0  0  0  0  0  0  0  0  0  0  0  0
   -6.9840   -1.5590    1.4750 C   0  0  0  0  0  0  0  0  0  0  0  0
   -6.4130    0.7360    0.8760 C   0  0  0  0  0  0  0  0  0  0  0  0
  2  1  1  6
  2  3  1  0
  2 17  1  0
  3  4  1  6
  3 15  1  0
  4  5  1  0
  5  6  1  0
  6  7  1  0
  7  8  2  0
  7 14  1  0
  8  9  1  0
  9 10  2  0
 11 10  1  6
 10 14  1  0
 11 12  1  0
 11 13  1  0
 12 13  1  0
 15 16  1  0
 16 17  1  0
 17 18  1  1
 18 19  2  0
 18 20  1  0
 20 21  1  0
 22 21  1  1
 22 23  1  0
 22 29  1  0
 23 24  1  0
 24 25  1  0
 25 26  1  0
 26 27  1  6
 26 28  1  0
 26 29  1  0
M  CHG  3   2   1   5   1   9   1
M  END
