
     RDKit          3D

 30 34  0  0  0  0  0  0  0  0999 V2000
    0.9660    2.1790   -0.0110 C   0  0  0  0  0  0  0  0  0  0  0  0
    0.1950    0.9960    0.5070 C   0  0  2  0  0  0  0  0  0  0  0  0
    0.6500    0.6960    1.8890 C   0  0  0  0  0  0  0  0  0  0  0  0
    2.1080    0.3600    1.9060 C   0  0  0  0  0  0  0  0  0  0  0  0
    2.6040   -0.5170    0.8200 C   0  0  2  0  0  0  0  0  0  0  0  0
    4.0590   -0.4580    0.6840 C   0  0  0  0  0  0  0  0  0  0  0  0
    4.8520    0.0160    1.7120 C   0  0  0  0  0  0  0  0  0  0  0  0
    6.2280    0.0660    1.5690 C   0  0  0  0  0  0  0  0  0  0  0  0
    6.8040   -0.3550    0.4060 C   0  0  0  0  0  0  0  0  0  0  0  0
    8.1860   -0.2940    0.2880 O   0  0  0  0  0  0  0  0  0  0  0  0
    6.0040   -0.8210   -0.6010 C   0  0  0  0  0  0  0  0  0  0  0  0
    4.6320   -0.8890   -0.5040 C   0  0  0  0  0  0  0  0  0  0  0  0
    3.8800   -1.4070   -1.6500 C   0  0  0  0  0  0  0  0  0  0  0  0
    2.3890   -1.3540   -1.4550 C   0  0  0  0  0  0  0  0  0  0  0  0
    1.9580   -0.2440   -0.5480 C   0  0  1  0  0  0  0  0  0  0  0  0
    0.5040   -0.2580   -0.3060 C   0  0  2  0  0  0  0  0  0  0  0  0
   -0.4210   -0.1340   -1.4510 C   0  0  0  0  0  0  0  0  0  0  0  0
   -1.7220    0.0770   -0.6460 C   0  0  2  0  0  0  0  0  0  0  0  0
   -2.8810    0.3800   -1.5100 C   0  0  0  0  0  0  0  0  0  0  0  0
   -4.1680    0.5730   -0.8120 C   0  0  0  0  0  0  0  0  0  0  0  0
   -4.6220    1.8090   -0.4670 C   0  0  0  0  0  0  0  0  0  0  0  0
   -5.8190    1.9370    0.1970 C   0  0  0  0  0  0  0  0  0  0  0  0
   -6.5680    0.8390    0.5190 C   0  0  0  0  0  0  0  0  0  0  0  0
   -6.1470   -0.4310    0.1890 C   0  0  0  0  0  0  0  0  0  0  0  0
   -6.9780   -1.5630    0.5520 C   0  0  0  0  0  0  0  0  0  0  0  0
   -6.6440   -2.9040    0.2640 N   0  0  0  0  0  0  0  0  0  0  0  0
   -8.0820   -1.3900    1.1690 O   0  0  0  0  0  0  0  0  0  0  0  0
   -4.9570   -0.5290   -0.4680 C   0  0  0  0  0  0  0  0  0  0  0  0
   -1.2860    1.1510    0.3160 C   0  0  2  0  0  0  0  0  0  0  0  0
   -1.4730    2.3840   -0.2970 O   0  0  0  0  0  0  0  0  0  0  0  0
  2  1  1  6
  2  3  1  0
  2 16  1  0
  2 29  1  0
  3  4  1  0
  5  4  1  1
  5  6  1  0
  5 15  1  0
  6  7  2  0
  6 12  1  0
  7  8  1  0
  8  9  2  0
  9 10  1  0
  9 11  1  0
 11 12  2  0
 12 13  1  0
 13 14  1  0
 15 14  1  6
 15 16  1  0
 16 17  1  6
 17 18  1  0
 18 19  1  6
 18 29  1  0
 19 20  1  0
 20 21  2  0
 20 28  1  0
 21 22  1  0
 22 23  2  0
 23 24  1  0
 24 25  1  0
 24 28  2  0
 25 26  1  0
 25 27  2  0
 29 30  1  6
M  END
