
     RDKit          3D

 29 32  0  0  0  0  0  0  0  0999 V2000
    5.8040    3.3740    1.5920 C   0  0  0  0  0  0  0  0  0  0  0  0
    5.9570    2.2800    0.5960 C   0  0  0  0  0  0  0  0  0  0  0  0
    6.9750    2.2220   -0.3070 C   0  0  0  0  0  0  0  0  0  0  0  0
    7.0800    1.1950   -1.2100 C   0  0  0  0  0  0  0  0  0  0  0  0
    6.1340    0.1900   -1.2110 C   0  0  0  0  0  0  0  0  0  0  0  0
    5.9900   -0.9010   -1.9540 N   0  0  0  0  0  0  0  0  0  0  0  0
    4.8840   -1.5440   -1.5330 C   0  0  0  0  0  0  0  0  0  0  0  0
    4.4210   -2.8020   -2.1550 C   0  0  0  0  0  0  0  0  0  0  0  0
    4.3220   -0.8770   -0.5310 N   0  0  0  0  0  0  0  0  0  0  0  0
    3.1700   -1.1650    0.2240 C   0  0  0  0  0  0  0  0  0  0  0  0
    2.7960   -0.3580    1.1420 O   0  0  0  0  0  0  0  0  0  0  0  0
    2.3320   -2.3640    0.0370 C   0  0  0  0  0  0  0  0  0  0  0  0
    1.2120   -2.2810    0.9760 N   0  0  1  0  0  0  0  0  0  0  0  0
    1.7540   -2.3230    2.2980 C   0  0  0  0  0  0  0  0  0  0  0  0
    0.4490   -1.0850    0.7930 C   0  0  0  0  0  0  0  0  0  0  0  0
   -0.9520   -1.4400    0.4680 C   0  0  0  0  0  0  0  0  0  0  0  0
   -1.2540   -2.6160    0.4020 O   0  0  0  0  0  0  0  0  0  0  0  0
   -1.9370   -0.4370    0.2340 N   0  0  0  0  0  0  0  0  0  0  0  0
   -3.0630   -1.0470   -0.4250 C   0  0  2  0  0  0  0  0  0  0  0  0
   -3.3330   -0.3530   -1.7410 C   0  0  0  0  0  0  0  0  0  0  0  0
   -4.0460    0.9050   -1.2920 C   0  0  0  0  0  0  0  0  0  0  0  0
   -5.0150    0.3540   -0.2690 C   0  0  2  0  0  0  0  0  0  0  0  0
   -5.4930    1.3470    0.6490 N   0  0  0  0  0  0  0  0  0  0  0  0
   -6.5050    2.1290   -0.0430 C   0  0  1  0  0  0  0  0  0  0  0  0
   -7.9230    1.5970    0.0520 C   0  0  0  0  0  0  0  0  0  0  0  0
   -7.5200    2.9030    0.6960 C   0  0  0  0  0  0  0  0  0  0  0  0
   -4.3000   -0.7900    0.4040 C   0  0  0  0  0  0  0  0  0  0  0  0
    5.0980    0.2320   -0.3050 C   0  0  0  0  0  0  0  0  0  0  0  0
    5.0090    1.2750    0.5960 C   0  0  0  0  0  0  0  0  0  0  0  0
  1  2  1  0
  2  3  2  0
  2 29  1  0
  3  4  1  0
  4  5  2  0
  5  6  1  0
  5 28  1  0
  6  7  2  0
  7  8  1  0
  7  9  1  0
  9 10  1  0
  9 28  1  0
 10 11  2  0
 10 12  1  0
 12 13  1  0
 13 14  1  1
 13 15  1  0
 15 16  1  0
 16 17  2  0
 16 18  1  0
 19 18  1  1
 19 20  1  0
 19 27  1  0
 20 21  1  0
 21 22  1  0
 22 23  1  1
 22 27  1  0
 24 23  1  1
 24 25  1  0
 24 26  1  0
 25 26  1  0
 28 29  2  0
M  CHG  3  13   1  18   1  23   1
M  END
