
     RDKit          3D

 29 32  0  0  0  0  0  0  0  0999 V2000
    5.9040   -0.0140    1.0820 C   0  0  0  0  0  0  0  0  0  0  0  0
    5.1630   -0.0300   -0.2170 C   0  0  2  0  0  0  0  0  0  0  0  0
    6.1220    0.4470   -1.3010 C   0  0  0  0  0  0  0  0  0  0  0  0
    6.0650    1.9240   -1.5180 C   0  0  0  0  0  0  0  0  0  0  0  0
    5.6530    2.7000   -0.3090 C   0  0  0  0  0  0  0  0  0  0  0  0
    4.2910    2.2550    0.1140 C   0  0  0  0  0  0  0  0  0  0  0  0
    3.9550    0.8430   -0.2650 C   0  0  2  0  0  0  0  0  0  0  0  0
    2.8470    0.4310    0.5120 N   0  0  0  0  0  0  0  0  0  0  0  0
    1.5680    0.0420    0.0560 C   0  0  0  0  0  0  0  0  0  0  0  0
    1.3740    0.0540   -1.1680 O   0  0  0  0  0  0  0  0  0  0  0  0
    0.4660   -0.3720    0.9450 C   0  0  0  0  0  0  0  0  0  0  0  0
   -0.7560   -0.7380    0.3610 N   0  0  1  0  0  0  0  0  0  0  0  0
   -1.2790    0.3620   -0.4420 C   0  0  0  0  0  0  0  0  0  0  0  0
   -2.7710    0.1010   -0.5000 C   0  0  0  0  0  0  0  0  0  0  0  0
   -3.7330    1.0280   -0.0860 N   0  0  0  0  0  0  0  0  0  0  0  0
   -5.1310    0.6660   -0.1340 C   0  0  0  0  0  0  0  0  0  0  0  0
   -6.0060    1.7550    0.3360 C   0  0  0  0  0  0  0  0  0  0  0  0
   -6.9450    2.3340   -0.3850 C   0  0  0  0  0  0  0  0  0  0  0  0
   -7.6000    3.3370    0.3570 N   0  0  0  0  0  0  0  0  0  0  0  0
   -6.9810    3.3400    1.6290 C   0  0  0  0  0  0  0  0  0  0  0  0
   -6.0420    2.4160    1.6330 C   0  0  0  0  0  0  0  0  0  0  0  0
   -3.0650   -1.0640   -0.9700 N   0  0  0  0  0  0  0  0  0  0  0  0
   -1.9520   -1.9030   -1.3540 C   0  0  0  0  0  0  0  0  0  0  0  0
   -0.9140   -2.0060   -0.2480 C   0  0  1  0  0  0  0  0  0  0  0  0
    0.2820   -2.6550   -0.8520 C   0  0  0  0  0  0  0  0  0  0  0  0
    0.0110   -4.1680   -0.9550 C   0  0  0  0  0  0  0  0  0  0  0  0
   -0.0240   -4.7870    0.2670 O   0  0  0  0  0  0  0  0  0  0  0  0
   -0.4320   -3.9470    1.2950 C   0  0  0  0  0  0  0  0  0  0  0  0
   -1.4990   -3.0360    0.7350 C   0  0  0  0  0  0  0  0  0  0  0  0
  2  1  1  1
  2  3  1  0
  2  7  1  0
  3  4  1  0
  4  5  1  0
  5  6  1  0
  6  7  1  0
  7  8  1  1
  8  9  1  0
  9 10  2  0
  9 11  1  0
 12 11  1  6
 12 13  1  0
 12 24  1  0
 13 14  1  0
 14 15  1  0
 14 22  2  0
 15 16  1  0
 16 17  1  0
 17 18  2  0
 17 21  1  0
 18 19  1  0
 19 20  1  0
 20 21  2  0
 22 23  1  0
 24 23  1  6
 24 25  1  0
 24 29  1  0
 25 26  1  0
 26 27  1  0
 27 28  1  0
 28 29  1  0
M  CHG  3  12   1  19   1  22   1
M  END
