
     RDKit          3D

 29 32  0  0  0  0  0  0  0  0999 V2000
    8.5830   -0.5330   -0.0790 C   0  0  0  0  0  0  0  0  0  0  0  0
    7.1520   -0.4410   -0.1700 N   0  0  1  0  0  0  0  0  0  0  0  0
    6.5170   -0.5180    1.1420 C   0  0  0  0  0  0  0  0  0  0  0  0
    5.0930   -1.0120    0.8870 C   0  0  0  0  0  0  0  0  0  0  0  0
    4.4520   -0.0690   -0.0860 C   0  0  1  0  0  0  0  0  0  0  0  0
    3.2040    0.4030    0.5100 N   0  0  0  0  0  0  0  0  0  0  0  0
    2.1230   -0.2920   -0.1270 C   0  0  0  0  0  0  0  0  0  0  0  0
    0.8160    0.2770    0.4290 C   0  0  1  0  0  0  0  0  0  0  0  0
    0.7670    1.7570    0.1140 C   0  0  0  0  0  0  0  0  0  0  0  0
   -0.6720    2.2160    0.1680 C   0  0  0  0  0  0  0  0  0  0  0  0
   -1.4200    1.2590    1.0710 C   0  0  0  0  0  0  0  0  0  0  0  0
   -1.6560   -0.0150    0.2510 C   0  0  2  0  0  0  0  0  0  0  0  0
   -2.1920   -1.0660    1.0570 N   0  0  0  0  0  0  0  0  0  0  0  0
   -3.3830   -1.6810    0.4760 C   0  0  2  0  0  0  0  0  0  0  0  0
   -3.2560   -1.8860   -0.9940 C   0  0  0  0  0  0  0  0  0  0  0  0
   -4.2980   -1.2280   -1.8340 C   0  0  0  0  0  0  0  0  0  0  0  0
   -5.6640   -1.5040   -1.1920 C   0  0  0  0  0  0  0  0  0  0  0  0
   -5.6510   -0.7500    0.0860 C   0  0  0  0  0  0  0  0  0  0  0  0
   -4.5340   -0.8470    0.8850 C   0  0  0  0  0  0  0  0  0  0  0  0
   -4.7590   -0.0640    2.0050 C   0  0  0  0  0  0  0  0  0  0  0  0
   -5.9860    0.4530    1.8180 N   0  0  0  0  0  0  0  0  0  0  0  0
   -6.5250    0.0620    0.6980 N   0  0  0  0  0  0  0  0  0  0  0  0
   -7.8520    0.4330    0.1790 C   0  0  0  0  0  0  0  0  0  0  0  0
   -7.7470    1.6480   -0.6460 C   0  0  0  0  0  0  0  0  0  0  0  0
   -8.7630    2.1270   -1.1800 O   0  0  0  0  0  0  0  0  0  0  0  0
   -6.5250    2.2520   -0.8270 O   0  0  0  0  0  0  0  0  0  0  0  0
   -0.3070   -0.4570   -0.2730 C   0  0  0  0  0  0  0  0  0  0  0  0
    5.2970    1.1470   -0.3680 C   0  0  0  0  0  0  0  0  0  0  0  0
    6.7020    0.8080   -0.7660 C   0  0  0  0  0  0  0  0  0  0  0  0
  2  1  1  1
  2  3  1  0
  2 29  1  0
  3  4  1  0
  4  5  1  0
  5  6  1  1
  5 28  1  0
  6  7  1  0
  8  7  1  6
  8  9  1  0
  8 27  1  0
  9 10  1  0
 10 11  1  0
 11 12  1  0
 12 13  1  1
 12 27  1  0
 14 13  1  6
 14 15  1  0
 14 19  1  0
 15 16  1  0
 16 17  1  0
 17 18  1  0
 18 19  2  0
 18 22  1  0
 19 20  1  0
 20 21  2  0
 21 22  1  0
 22 23  1  0
 23 24  1  0
 24 25  2  0
 24 26  1  0
 28 29  1  0
M  CHG  3   2   1   6   1  13   1
M  END
