
     RDKit          3D

 18 19  0  0  0  0  0  0  0  0999 V2000
    6.0420   -1.2740   -0.3690 C   0  0  0  0  0  0  0  0  0  0  0  0
    4.6400   -1.6260   -0.7100 C   0  0  0  0  0  0  0  0  0  0  0  0
    3.6620   -0.8300   -0.2480 C   0  0  0  0  0  0  0  0  0  0  0  0
    2.2950   -1.1670   -0.5760 C   0  0  0  0  0  0  0  0  0  0  0  0
    1.2620   -0.4410   -0.1650 C   0  0  0  0  0  0  0  0  0  0  0  0
   -0.1250   -0.8120   -0.5190 C   0  0  0  0  0  0  0  0  0  0  0  0
   -0.8010    0.2220   -1.2710 N   0  0  0  0  0  0  0  0  0  0  0  0
   -2.1170   -0.0230   -1.6580 N   0  0  0  0  0  0  0  0  0  0  0  0
   -3.1230    0.1160   -0.8640 C   0  0  0  0  0  0  0  0  0  0  0  0
   -3.0100    0.5510    0.5520 C   0  0  0  0  0  0  0  0  0  0  0  0
   -4.3680    1.1040    0.9480 C   0  0  0  0  0  0  0  0  0  0  0  0
   -4.9550    1.8250   -0.0750 O   0  0  0  0  0  0  0  0  0  0  0  0
   -5.3160    1.0740   -1.1660 C   0  0  0  0  0  0  0  0  0  0  0  0
   -4.4940   -0.1670   -1.3620 C   0  0  0  0  0  0  0  0  0  0  0  0
    1.5870    0.6910    0.6210 N   0  0  0  0  0  0  0  0  0  0  0  0
    2.7600    1.0690    0.9630 C   0  0  0  0  0  0  0  0  0  0  0  0
    2.9390    2.5280    1.9590 Cl  0  0  0  0  0  0  0  0  0  0  0  0
    3.9690    0.3440    0.5660 C   0  0  0  0  0  0  0  0  0  0  0  0
  1  2  1  0
  2  3  2  3
  3  4  1  0
  3 18  1  0
  4  5  2  0
  5  6  1  0
  5 15  1  0
  6  7  1  0
  7  8  1  0
  8  9  2  3
  9 10  1  0
  9 14  1  0
 10 11  1  0
 11 12  1  0
 12 13  1  0
 13 14  1  0
 15 16  2  0
 16 17  1  0
 16 18  1  0
M  CHG  1  15   1
M  END
