
     RDKit          3D

 18 20  0  0  0  0  0  0  0  0999 V2000
   -2.4320    2.3410    0.3180 C   0  0  0  0  0  0  0  0  0  0  0  0
   -1.5180    1.4530    0.5960 C   0  0  0  0  0  0  0  0  0  0  0  0
   -0.2690    1.9950    1.0700 N   0  0  0  0  0  0  0  0  0  0  0  0
    0.6920    0.9290    1.2280 C   0  0  0  0  0  0  0  0  0  0  0  0
    1.4910    0.6390   -0.0250 C   0  0  1  0  0  0  0  0  0  0  0  0
    2.9470    0.5690    0.3870 C   0  0  0  0  0  0  0  0  0  0  0  0
    3.7270    0.2020   -0.8710 C   0  0  0  0  0  0  0  0  0  0  0  0
    3.4270   -1.2510   -1.1610 C   0  0  0  0  0  0  0  0  0  0  0  0
    1.9990   -1.5260   -1.0520 N   0  0  0  0  0  0  0  0  0  0  0  0
    1.1590   -0.7150   -0.5630 C   0  0  0  0  0  0  0  0  0  0  0  0
   -0.1340   -1.4260   -0.6610 C   0  0  0  0  0  0  0  0  0  0  0  0
   -0.1050   -2.5540   -1.1770 O   0  0  0  0  0  0  0  0  0  0  0  0
   -1.4760   -1.0850   -0.2740 N   0  0  0  0  0  0  0  0  0  0  0  0
   -2.5510   -2.0300   -0.5200 C   0  0  0  0  0  0  0  0  0  0  0  0
   -3.5960   -1.6090    0.4970 C   0  0  0  0  0  0  0  0  0  0  0  0
   -3.2330   -0.1930    0.8180 C   0  0  0  0  0  0  0  0  0  0  0  0
   -4.2460    0.9390    1.6960 Cl  0  0  0  0  0  0  0  0  0  0  0  0
   -2.0220    0.0850    0.3590 C   0  0  0  0  0  0  0  0  0  0  0  0
  1  2  2  0
  2  3  1  0
  2 18  1  0
  3  4  1  0
  5  4  1  1
  5  6  1  0
  5 10  1  0
  6  7  1  0
  7  8  1  0
  8  9  1  0
  9 10  2  0
 10 11  1  0
 11 12  2  0
 11 13  1  0
 13 14  1  0
 13 18  1  0
 14 15  1  0
 15 16  1  0
 16 17  1  0
 16 18  2  0
M  CHG  1   3   1
M  END
