
     RDKit          3D

 18 20  0  0  0  0  0  0  0  0999 V2000
   -4.6300   -0.9740    0.6300 C   0  0  0  0  0  0  0  0  0  0  0  0
   -3.8280   -0.0010   -0.1970 C   0  0  2  0  0  0  0  0  0  0  0  0
   -4.1030    1.4350    0.1360 C   0  0  0  0  0  0  0  0  0  0  0  0
   -4.0090   -0.2000   -1.7050 C   0  0  1  0  0  0  0  0  0  0  0  0
   -4.9600    1.0760   -2.4870 Cl  0  0  0  0  0  0  0  0  0  0  0  0
   -2.4990    0.0610   -1.8170 C   0  0  0  0  0  0  0  0  0  0  0  0
   -2.4100   -0.4060   -0.3810 C   0  0  1  0  0  0  0  0  0  0  0  0
   -1.4130    0.2150    0.4230 N   0  0  0  0  0  0  0  0  0  0  0  0
   -0.2260    0.5810   -0.3260 C   0  0  0  0  0  0  0  0  0  0  0  0
    1.0040    0.0410    0.3040 C   0  0  0  0  0  0  0  0  0  0  0  0
    1.0010   -0.6940    1.4290 N   0  0  0  0  0  0  0  0  0  0  0  0
    2.2450   -0.9980    1.6960 O   0  0  0  0  0  0  0  0  0  0  0  0
    3.0440   -0.4880    0.7890 C   0  0  0  0  0  0  0  0  0  0  0  0
    4.5100   -0.6190    0.7580 C   0  0  1  0  0  0  0  0  0  0  0  0
    5.1080   -0.9500   -0.5940 C   0  0  0  0  0  0  0  0  0  0  0  0
    6.2440    0.0150   -0.2410 C   0  0  0  0  0  0  0  0  0  0  0  0
    5.2510    0.7220    0.6710 C   0  0  0  0  0  0  0  0  0  0  0  0
    2.2800    0.1630   -0.0850 N   0  0  0  0  0  0  0  0  0  0  0  0
  2  1  1  1
  2  3  1  0
  2  4  1  0
  2  7  1  0
  4  5  1  6
  4  6  1  0
  6  7  1  0
  7  8  1  1
  8  9  1  0
  9 10  1  0
 10 11  2  0
 10 18  1  0
 11 12  1  0
 12 13  1  0
 14 13  1  6
 13 18  2  0
 14 15  1  0
 14 17  1  0
 15 16  1  0
 16 17  1  0
M  CHG  1   8   1
M  END
