
     RDKit          3D

 18 20  0  0  0  0  0  0  0  0999 V2000
    4.4690    0.5400   -1.5340 C   0  0  0  0  0  0  0  0  0  0  0  0
    3.6430   -0.0670   -0.4850 N   0  0  2  0  0  0  0  0  0  0  0  0
    2.4830   -0.6610   -1.1200 C   0  0  0  0  0  0  0  0  0  0  0  0
    1.3910   -0.4670   -0.1160 C   0  0  0  0  0  0  0  0  0  0  0  0
    0.2020   -1.0710    0.0490 N   0  0  0  0  0  0  0  0  0  0  0  0
   -0.6480   -0.7360    1.0430 C   0  0  0  0  0  0  0  0  0  0  0  0
   -1.9610   -1.4080    1.2190 C   0  0  0  0  0  0  0  0  0  0  0  0
   -3.0330   -0.6920    0.4450 C   0  0  0  0  0  0  0  0  0  0  0  0
   -2.8880    0.3860   -0.3020 C   0  0  0  0  0  0  0  0  0  0  0  0
   -4.1790    0.8080   -0.9150 C   0  0  0  0  0  0  0  0  0  0  0  0
   -5.1130   -0.2240   -0.3880 C   0  0  0  0  0  0  0  0  0  0  0  0
   -4.4370   -1.0610    0.3790 C   0  0  0  0  0  0  0  0  0  0  0  0
   -5.1720   -2.4200    1.1900 Cl  0  0  0  0  0  0  0  0  0  0  0  0
   -0.2410    0.2410    1.8680 N   0  0  0  0  0  0  0  0  0  0  0  0
    0.9270    0.8790    1.7570 C   0  0  0  0  0  0  0  0  0  0  0  0
    1.3140    1.7930    2.5230 O   0  0  0  0  0  0  0  0  0  0  0  0
    1.8090    0.5360    0.7300 C   0  0  0  0  0  0  0  0  0  0  0  0
    3.1470    1.0260    0.3230 C   0  0  0  0  0  0  0  0  0  0  0  0
  2  1  1  6
  2  3  1  0
  2 18  1  0
  3  4  1  0
  4  5  1  0
  4 17  2  0
  5  6  2  0
  6  7  1  0
  6 14  1  0
  7  8  1  0
  8  9  2  0
  8 12  1  0
  9 10  1  0
 10 11  1  0
 11 12  2  0
 12 13  1  0
 14 15  1  0
 15 16  2  0
 15 17  1  0
 17 18  1  0
M  CHG  1   2   1
M  END
