
     RDKit          3D

 11 11  0  0  0  0  0  0  0  0999 V2000
    2.2140    1.4530    0.6060 C   0  0  0  0  0  0  0  0  0  0  0  0
    1.5240    0.2460    0.6230 O   0  0  0  0  0  0  0  0  0  0  0  0
    2.1210   -0.7060   -0.1940 C   0  0  0  0  0  0  0  0  0  0  0  0
    1.3620   -1.9830   -0.1540 C   0  0  0  0  0  0  0  0  0  0  0  0
    1.6990   -2.9880   -0.8030 O   0  0  0  0  0  0  0  0  0  0  0  0
    0.1920   -2.0750    0.6600 N   0  0  0  0  0  0  0  0  0  0  0  0
   -0.7920   -1.3070    0.3610 C   0  0  0  0  0  0  0  0  0  0  0  0
   -2.3720   -1.2000    1.1910 S   0  0  0  0  0  0  0  0  0  0  0  0
   -2.9350    0.4470    0.6800 C   0  0  0  0  0  0  0  0  0  0  0  0
   -2.5380    0.6280   -0.7470 C   0  0  0  0  0  0  0  0  0  0  0  0
   -0.9110   -0.0990   -0.9670 S   0  0  0  0  0  0  0  0  0  0  0  0
  1  2  1  0
  2  3  1  0
  3  4  1  0
  4  5  2  0
  4  6  1  0
  6  7  2  3
  7  8  1  0
  7 11  1  0
  8  9  1  0
  9 10  1  0
 10 11  1  0
M  END
