
     RDKit          3D

 30 33  0  0  0  0  0  0  0  0999 V2000
   -2.6980    1.0990   -2.3570 O   0  0  0  0  0  0  0  0  0  0  0  0
   -3.1220    0.3020   -1.4210 C   0  0  0  0  0  0  0  0  0  0  0  0
   -4.2520    0.8140   -0.6800 C   0  0  0  0  0  0  0  0  0  0  0  0
   -4.7260    0.3140    0.5100 C   0  0  0  0  0  0  0  0  0  0  0  0
   -5.8080    0.8860    1.1990 C   0  0  0  0  0  0  0  0  0  0  0  0
   -6.3630    0.1970    2.7080 Cl  0  0  0  0  0  0  0  0  0  0  0  0
   -6.4540    1.9920    0.7110 C   0  0  0  0  0  0  0  0  0  0  0  0
   -7.5320    2.5770    1.3830 O   0  0  0  0  0  0  0  0  0  0  0  0
   -5.9960    2.5070   -0.4740 C   0  0  0  0  0  0  0  0  0  0  0  0
   -4.9360    1.9450   -1.1480 C   0  0  0  0  0  0  0  0  0  0  0  0
   -4.4950    2.4950   -2.3550 O   0  0  0  0  0  0  0  0  0  0  0  0
   -2.4420   -0.9220   -1.2590 N   0  0  0  0  0  0  0  0  0  0  0  0
   -2.7250   -1.9760   -0.3650 C   0  0  0  0  0  0  0  0  0  0  0  0
   -1.9310   -3.1770   -0.9050 C   0  0  0  0  0  0  0  0  0  0  0  0
   -1.5210   -2.7200   -2.3120 C   0  0  0  0  0  0  0  0  0  0  0  0
   -1.2590   -1.2400   -2.0340 C   0  0  2  0  0  0  0  0  0  0  0  0
   -0.0150   -1.0010   -1.2900 C   0  0  0  0  0  0  0  0  0  0  0  0
    0.0940    0.1650   -0.5500 C   0  0  0  0  0  0  0  0  0  0  0  0
    1.2280    0.4910    0.1870 C   0  0  0  0  0  0  0  0  0  0  0  0
    2.3010   -0.3580    0.1990 C   0  0  0  0  0  0  0  0  0  0  0  0
    3.5490   -0.0830    0.9580 C   0  0  0  0  0  0  0  0  0  0  0  0
    4.5100    0.6610    0.2020 N   0  0  1  0  0  0  0  0  0  0  0  0
    5.0720    1.7440    0.9720 C   0  0  0  0  0  0  0  0  0  0  0  0
    6.5480    1.5430    1.0480 C   0  0  0  0  0  0  0  0  0  0  0  0
    6.6930    0.0470    0.8400 C   0  0  2  0  0  0  0  0  0  0  0  0
    6.4130   -0.6030    2.0340 F   0  0  0  0  0  0  0  0  0  0  0  0
    7.9240   -0.2890    0.3490 F   0  0  0  0  0  0  0  0  0  0  0  0
    5.5980   -0.2190   -0.1720 C   0  0  0  0  0  0  0  0  0  0  0  0
    2.2320   -1.5290   -0.5260 C   0  0  0  0  0  0  0  0  0  0  0  0
    1.0790   -1.8350   -1.2590 C   0  0  0  0  0  0  0  0  0  0  0  0
  1  2  2  0
  2  3  1  0
  2 12  1  0
  3  4  2  0
  3 10  1  0
  4  5  1  0
  5  6  1  0
  5  7  2  0
  7  8  1  0
  7  9  1  0
  9 10  2  0
 10 11  1  0
 12 13  1  0
 12 16  1  0
 13 14  1  0
 14 15  1  0
 15 16  1  0
 16 17  1  1
 17 18  2  0
 17 30  1  0
 18 19  1  0
 19 20  2  0
 20 21  1  0
 20 29  1  0
 22 21  1  1
 22 23  1  0
 22 28  1  0
 23 24  1  0
 24 25  1  0
 25 26  1  1
 25 27  1  0
 25 28  1  0
 29 30  2  0
M  CHG  1  22   1
M  END
