
     RDKit          3D

 31 34  0  0  0  0  0  0  0  0999 V2000
    6.3880   -4.4130   -0.3960 C   0  0  0  0  0  0  0  0  0  0  0  0
    5.8890   -3.3530   -1.7800 S   0  0  0  0  0  0  0  0  0  0  0  0
    4.4060   -2.4330   -1.3160 C   0  0  0  0  0  0  0  0  0  0  0  0
    3.1490   -2.9470   -1.5600 C   0  0  0  0  0  0  0  0  0  0  0  0
    2.0100   -2.2510   -1.2080 C   0  0  0  0  0  0  0  0  0  0  0  0
    2.1410   -1.0200   -0.6020 C   0  0  0  0  0  0  0  0  0  0  0  0
    1.0240   -0.3140   -0.2450 O   0  0  0  0  0  0  0  0  0  0  0  0
   -0.2740   -0.8220   -0.4860 C   0  0  0  0  0  0  0  0  0  0  0  0
   -1.2870    0.0120   -0.0680 O   0  0  0  0  0  0  0  0  0  0  0  0
   -2.6320   -0.1630   -0.1440 C   0  0  0  0  0  0  0  0  0  0  0  0
   -3.1320   -1.3190   -0.7100 C   0  0  0  0  0  0  0  0  0  0  0  0
   -4.4910   -1.5600   -0.8190 C   0  0  0  0  0  0  0  0  0  0  0  0
   -5.1750   -3.1630   -1.6040 Br  0  0  0  0  0  0  0  0  0  0  0  0
   -5.4060   -0.6370   -0.3570 C   0  0  0  0  0  0  0  0  0  0  0  0
   -6.8480   -0.8300   -0.4410 C   0  0  0  0  0  0  0  0  0  0  0  0
   -7.4410   -1.3970    0.5110 O   0  0  0  0  0  0  0  0  0  0  0  0
   -7.6180   -0.4210   -1.5200 O   0  0  0  0  0  0  0  0  0  0  0  0
   -4.9280    0.5190    0.2100 C   0  0  0  0  0  0  0  0  0  0  0  0
   -3.5570    0.7510    0.3140 C   0  0  0  0  0  0  0  0  0  0  0  0
   -3.0740    1.9060    0.8800 O   0  0  0  0  0  0  0  0  0  0  0  0
   -3.9040    2.9080    1.3800 C   0  0  0  0  0  0  0  0  0  0  0  0
   -5.3400    2.6330    1.2550 C   0  0  0  0  0  0  0  0  0  0  0  0
   -5.8550    1.5370    0.7190 C   0  0  0  0  0  0  0  0  0  0  0  0
    3.3760   -0.4630   -0.3370 C   0  0  0  0  0  0  0  0  0  0  0  0
    3.4940    0.8350    0.3030 C   0  0  0  0  0  0  0  0  0  0  0  0
    4.3660    1.1130    1.3320 C   0  0  0  0  0  0  0  0  0  0  0  0
    4.2200    2.4210    1.6960 N   0  0  0  0  0  0  0  0  0  0  0  0
    3.2780    2.9950    0.9300 C   0  0  0  0  0  0  0  0  0  0  0  0
    2.8320    4.4050    1.0180 C   0  0  0  0  0  0  0  0  0  0  0  0
    2.8290    2.0190    0.0700 C   0  0  0  0  0  0  0  0  0  0  0  0
    4.4850   -1.2050   -0.7110 C   0  0  0  0  0  0  0  0  0  0  0  0
  1  2  1  0
  2  3  1  0
  3  4  2  0
  3 31  1  0
  4  5  1  0
  5  6  2  0
  6  7  1  0
  6 24  1  0
  7  8  1  0
  8  9  1  0
  9 10  1  0
 10 11  2  0
 10 19  1  0
 11 12  1  0
 12 13  1  0
 12 14  2  0
 14 15  1  0
 14 18  1  0
 15 16  2  0
 15 17  1  0
 18 19  2  0
 18 23  1  0
 19 20  1  0
 20 21  1  0
 21 22  1  0
 22 23  2  0
 24 25  1  0
 24 31  2  0
 25 26  2  0
 25 30  1  0
 26 27  1  0
 27 28  1  0
 28 29  1  0
 28 30  2  0
M  END
