
     RDKit          3D

 31 33  0  0  0  0  0  0  0  0999 V2000
    5.1150   -0.4370   -2.3850 C   0  0  0  0  0  0  0  0  0  0  0  0
    5.4810   -0.0200   -1.2170 C   0  0  0  0  0  0  0  0  0  0  0  0
    6.7720    0.8300   -1.2960 C   0  0  0  0  0  0  0  0  0  0  0  0
    4.9810   -0.2820    0.1010 C   0  0  0  0  0  0  0  0  0  0  0  0
    5.6050    0.4640    1.0810 C   0  0  0  0  0  0  0  0  0  0  0  0
    5.3720    0.4620    2.4990 C   0  0  0  0  0  0  0  0  0  0  0  0
    7.0430   -0.0000    3.4650 Br  0  0  0  0  0  0  0  0  0  0  0  0
    3.8680   -1.0840    0.4950 C   0  0  0  0  0  0  0  0  0  0  0  0
    3.0330   -1.9650    0.1690 C   0  0  0  0  0  0  0  0  0  0  0  0
    2.0270   -2.2870    1.3100 C   0  0  0  0  0  0  0  0  0  0  0  0
    0.6620   -2.3600    0.7850 C   0  0  0  0  0  0  0  0  0  0  0  0
   -0.1520   -3.0000    1.5540 O   0  0  0  0  0  0  0  0  0  0  0  0
   -0.0310   -1.8860   -0.4040 C   0  0  0  0  0  0  0  0  0  0  0  0
   -1.3200   -1.4680   -0.0950 C   0  0  0  0  0  0  0  0  0  0  0  0
   -2.1310   -0.9910   -1.1350 C   0  0  0  0  0  0  0  0  0  0  0  0
   -3.3390   -0.5840   -0.9440 O   0  0  0  0  0  0  0  0  0  0  0  0
   -4.5050   -0.2370   -0.4820 C   0  0  0  0  0  0  0  0  0  0  0  0
   -4.3690    0.8880    0.5620 C   0  0  1  0  0  0  0  0  0  0  0  0
   -3.5730    0.4680    1.6130 O   0  0  0  0  0  0  0  0  0  0  0  0
   -3.8240    2.1480   -0.0350 C   0  0  0  0  0  0  0  0  0  0  0  0
   -4.8950    2.9920   -0.6910 C   0  0  0  0  0  0  0  0  0  0  0  0
   -5.7350    3.5910    0.4180 C   0  0  0  0  0  0  0  0  0  0  0  0
   -5.9760    2.5830    1.5100 C   0  0  0  0  0  0  0  0  0  0  0  0
   -5.7640    1.1640    1.0910 C   0  0  0  0  0  0  0  0  0  0  0  0
   -1.6200   -0.9490   -2.4540 C   0  0  0  0  0  0  0  0  0  0  0  0
   -0.3510   -1.3680   -2.7130 C   0  0  0  0  0  0  0  0  0  0  0  0
    0.4490   -1.8380   -1.6930 C   0  0  0  0  0  0  0  0  0  0  0  0
    1.7360   -2.2310   -2.2540 N   0  0  0  0  0  0  0  0  0  0  0  0
    2.9330   -2.9720   -1.2450 S   0  0  2  0  0  0  0  0  0  0  0  0
    2.2490   -4.3220   -0.8270 O   0  0  0  0  0  0  0  0  0  0  0  0
    4.1770   -3.3520   -1.8930 O   0  0  0  0  0  0  0  0  0  0  0  0
  1  2  2  0
  2  3  1  0
  2  4  1  0
  4  5  2  3
  4  8  1  0
  5  6  1  0
  6  7  1  0
  8  9  2  3
  9 10  1  0
  9 29  1  0
 10 11  1  0
 11 12  2  0
 11 13  1  0
 13 14  2  0
 13 27  1  0
 14 15  1  0
 15 16  1  0
 15 25  2  0
 16 17  1  0
 17 18  1  0
 18 19  1  1
 18 20  1  0
 18 24  1  0
 20 21  1  0
 21 22  1  0
 22 23  1  0
 23 24  1  0
 25 26  1  0
 26 27  2  0
 27 28  1  0
 29 28  1  6
 29 30  2  0
 29 31  2  0
M  END
