
     RDKit          3D

 29 32  0  0  0  0  0  0  0  0999 V2000
   -2.2860   -4.0890   -1.4740 C   0  0  0  0  0  0  0  0  0  0  0  0
   -1.2830   -2.9750   -1.4040 C   0  0  0  0  0  0  0  0  0  0  0  0
   -1.6480   -1.6830   -1.1600 C   0  0  0  0  0  0  0  0  0  0  0  0
   -0.7290   -0.6220   -1.0890 C   0  0  0  0  0  0  0  0  0  0  0  0
   -1.2330    0.6940   -0.8410 C   0  0  0  0  0  0  0  0  0  0  0  0
   -0.4530    1.7020   -0.9120 O   0  0  0  0  0  0  0  0  0  0  0  0
   -2.5980    1.0680   -0.4960 C   0  0  0  0  0  0  0  0  0  0  0  0
   -3.1370    2.2390   -1.0140 C   0  0  0  0  0  0  0  0  0  0  0  0
   -4.3940    2.6890   -0.6720 C   0  0  0  0  0  0  0  0  0  0  0  0
   -5.1710    1.9580    0.2230 C   0  0  0  0  0  0  0  0  0  0  0  0
   -4.6640    0.7930    0.7530 C   0  0  0  0  0  0  0  0  0  0  0  0
   -3.3790    0.3630    0.3850 C   0  0  0  0  0  0  0  0  0  0  0  0
   -5.6660    0.2160    1.6590 C   0  0  0  0  0  0  0  0  0  0  0  0
   -6.7280    1.0170    1.6610 C   0  0  0  0  0  0  0  0  0  0  0  0
   -6.5270    2.1780    0.7730 C   0  0  0  0  0  0  0  0  0  0  0  0
    0.6070   -0.8940   -1.2780 C   0  0  0  0  0  0  0  0  0  0  0  0
    1.5890    0.1130   -1.2920 N   0  0  0  0  0  0  0  0  0  0  0  0
    2.9880   -0.1420   -1.1400 C   0  0  0  0  0  0  0  0  0  0  0  0
    3.4410   -1.2580   -0.9610 O   0  0  0  0  0  0  0  0  0  0  0  0
    3.9450    0.9410   -1.1910 N   0  0  0  0  0  0  0  0  0  0  0  0
    5.3640    0.6460   -1.0160 C   0  0  0  0  0  0  0  0  0  0  0  0
    5.6980    0.4270    0.4040 C   0  0  0  0  0  0  0  0  0  0  0  0
    5.8980   -0.8460    0.8740 C   0  0  0  0  0  0  0  0  0  0  0  0
    6.2090   -1.0560    2.2240 C   0  0  0  0  0  0  0  0  0  0  0  0
    6.3180   -0.0330    3.0770 N   0  0  0  0  0  0  0  0  0  0  0  0
    6.1290    1.2240    2.6510 C   0  0  0  0  0  0  0  0  0  0  0  0
    5.8180    1.4560    1.3070 C   0  0  0  0  0  0  0  0  0  0  0  0
    0.9270   -2.2150   -1.5220 C   0  0  0  0  0  0  0  0  0  0  0  0
    0.0160   -3.2190   -1.5820 N   0  0  0  0  0  0  0  0  0  0  0  0
  1  2  1  0
  2  3  2  0
  2 29  1  0
  3  4  1  0
  4  5  1  0
  4 16  2  0
  5  6  2  0
  5  7  1  0
  7  8  2  0
  7 12  1  0
  8  9  1  0
  9 10  2  0
 10 11  1  0
 10 15  1  0
 11 12  2  0
 11 13  1  0
 13 14  2  0
 14 15  1  0
 16 17  1  0
 16 28  1  0
 17 18  1  0
 18 19  2  0
 18 20  1  0
 20 21  1  0
 21 22  1  0
 22 23  2  0
 22 27  1  0
 23 24  1  0
 24 25  2  0
 25 26  1  0
 26 27  2  0
 28 29  2  0
M  END
