
     RDKit          3D

 31 33  0  0  0  0  0  0  0  0999 V2000
    6.6390    1.7250   -0.3570 C   0  0  0  0  0  0  0  0  0  0  0  0
    6.2630    0.2890   -0.1820 C   0  0  0  0  0  0  0  0  0  0  0  0
    4.9260   -0.0580   -0.2710 C   0  0  0  0  0  0  0  0  0  0  0  0
    4.5560   -1.3450   -0.1190 C   0  0  0  0  0  0  0  0  0  0  0  0
    3.2210   -1.7730   -0.2190 N   0  0  0  0  0  0  0  0  0  0  0  0
    2.1550   -1.0090   -0.7610 C   0  0  0  0  0  0  0  0  0  0  0  0
    2.2970    0.1300   -1.2110 O   0  0  0  0  0  0  0  0  0  0  0  0
    0.7920   -1.6230   -0.7870 C   0  0  0  0  0  0  0  0  0  0  0  0
   -0.1340   -1.1880    0.6780 S   0  0  0  0  0  0  0  0  0  0  0  0
   -0.5590    0.5210    0.8040 C   0  0  0  0  0  0  0  0  0  0  0  0
   -1.6680    1.1130    0.5080 C   0  0  0  0  0  0  0  0  0  0  0  0
   -2.8330    0.4010   -0.0130 C   0  0  0  0  0  0  0  0  0  0  0  0
   -3.9080    1.1190   -0.5380 C   0  0  0  0  0  0  0  0  0  0  0  0
   -5.0190    0.4100   -0.9750 C   0  0  0  0  0  0  0  0  0  0  0  0
   -5.1340   -0.9410   -0.9270 C   0  0  0  0  0  0  0  0  0  0  0  0
   -4.0770   -1.6520   -0.4090 C   0  0  0  0  0  0  0  0  0  0  0  0
   -2.9500   -0.9660    0.0370 C   0  0  0  0  0  0  0  0  0  0  0  0
   -4.0980   -3.0330   -0.3170 O   0  0  0  0  0  0  0  0  0  0  0  0
   -5.1840   -3.7500   -0.8520 C   0  0  0  0  0  0  0  0  0  0  0  0
   -6.4360   -2.9360   -0.7710 C   0  0  0  0  0  0  0  0  0  0  0  0
   -6.2440   -1.6450   -1.3650 O   0  0  0  0  0  0  0  0  0  0  0  0
   -1.7030    2.5900    0.7530 C   0  0  1  0  0  0  0  0  0  0  0  0
   -0.3580    3.0600    1.3790 C   0  0  0  0  0  0  0  0  0  0  0  0
   -1.7950    3.3650   -0.5310 C   0  0  0  0  0  0  0  0  0  0  0  0
   -2.7260    3.0420    1.7270 C   0  0  0  0  0  0  0  0  0  0  0  0
   -2.5500    2.4750    2.9980 O   0  0  0  0  0  0  0  0  0  0  0  0
    5.5150   -2.3390    0.1290 C   0  0  0  0  0  0  0  0  0  0  0  0
    6.8370   -2.0160    0.2190 C   0  0  0  0  0  0  0  0  0  0  0  0
    7.8040   -2.9860    0.4640 O   0  0  0  0  0  0  0  0  0  0  0  0
    7.2120   -0.6810    0.0610 C   0  0  0  0  0  0  0  0  0  0  0  0
    9.0410   -0.2150    0.1830 Br  0  0  0  0  0  0  0  0  0  0  0  0
  1  2  1  0
  2  3  2  0
  2 30  1  0
  3  4  1  0
  4  5  1  0
  4 27  2  0
  5  6  1  0
  6  7  2  0
  6  8  1  0
  8  9  1  0
  9 10  1  0
 10 11  2  3
 11 12  1  0
 11 22  1  0
 12 13  2  0
 12 17  1  0
 13 14  1  0
 14 15  2  0
 15 16  1  0
 15 21  1  0
 16 17  2  0
 16 18  1  0
 18 19  1  0
 19 20  1  0
 20 21  1  0
 22 23  1  1
 22 24  1  0
 22 25  1  0
 25 26  1  0
 27 28  1  0
 28 29  1  0
 28 30  2  0
 30 31  1  0
M  END
