
     RDKit          3D

 37 41  0  0  0  0  0  0  0  0999 V2000
   -7.0510   -0.1350   -0.2530 C   0  0  0  0  0  0  0  0  0  0  0  0
   -6.2030    0.8620    0.4140 C   0  0  1  0  0  0  0  0  0  0  0  0
   -6.9620    1.4030    1.4830 O   0  0  0  0  0  0  0  0  0  0  0  0
   -4.9130    0.4730    1.0000 C   0  0  0  0  0  0  0  0  0  0  0  0
   -3.8740   -0.0970    0.0420 C   0  0  2  0  0  0  0  0  0  0  0  0
   -4.3130   -1.4720   -0.3130 C   0  0  0  0  0  0  0  0  0  0  0  0
   -2.6120   -0.2120    0.8250 C   0  0  0  0  0  0  0  0  0  0  0  0
   -2.5280    0.1530    2.1490 C   0  0  0  0  0  0  0  0  0  0  0  0
   -1.3200    0.0180    2.8110 C   0  0  0  0  0  0  0  0  0  0  0  0
   -0.1960   -0.4630    2.2160 C   0  0  0  0  0  0  0  0  0  0  0  0
   -0.2590   -0.8400    0.8760 C   0  0  0  0  0  0  0  0  0  0  0  0
   -1.4500   -0.7130    0.2000 C   0  0  0  0  0  0  0  0  0  0  0  0
   -1.5470   -1.0650   -1.2120 N   0  0  0  0  0  0  0  0  0  0  0  0
   -0.3220   -1.5290   -1.7830 C   0  0  0  0  0  0  0  0  0  0  0  0
   -0.3350   -2.3180   -2.7320 O   0  0  0  0  0  0  0  0  0  0  0  0
    0.9800   -1.0380   -1.2070 C   0  0  0  0  0  0  0  0  0  0  0  0
    0.9110   -1.3810    0.2560 C   0  0  1  0  0  0  0  0  0  0  0  0
    2.1670   -1.4930    0.9560 C   0  0  0  0  0  0  0  0  0  0  0  0
    2.3100   -2.3080    2.0770 C   0  0  0  0  0  0  0  0  0  0  0  0
    3.4710   -2.4560    2.7830 C   0  0  0  0  0  0  0  0  0  0  0  0
    4.6060   -1.7530    2.3760 C   0  0  0  0  0  0  0  0  0  0  0  0
    4.4890   -0.9400    1.2690 C   0  0  0  0  0  0  0  0  0  0  0  0
    3.2960   -0.8180    0.5820 C   0  0  0  0  0  0  0  0  0  0  0  0
    3.2230   -0.0010   -0.5100 O   0  0  0  0  0  0  0  0  0  0  0  0
    4.2410    0.7480   -1.0270 C   0  0  0  0  0  0  0  0  0  0  0  0
    4.4580    2.0540   -0.5900 C   0  0  0  0  0  0  0  0  0  0  0  0
    5.4740    2.8100   -1.1020 C   0  0  0  0  0  0  0  0  0  0  0  0
    6.3180    2.2920   -2.0750 C   0  0  0  0  0  0  0  0  0  0  0  0
    7.4030    3.0850   -2.6260 C   0  0  0  0  0  0  0  0  0  0  0  0
    7.5670    4.2670   -2.2020 O   0  0  0  0  0  0  0  0  0  0  0  0
    6.0960    1.0090   -2.4970 C   0  0  0  0  0  0  0  0  0  0  0  0
    6.8780    0.4100   -3.4550 O   0  0  0  0  0  0  0  0  0  0  0  0
    5.0620    0.2310   -1.9800 C   0  0  0  0  0  0  0  0  0  0  0  0
   -3.7920    0.8920   -1.0910 C   0  0  0  0  0  0  0  0  0  0  0  0
   -4.6530    2.0990   -0.8780 C   0  0  0  0  0  0  0  0  0  0  0  0
   -4.2050    3.2470   -1.0780 O   0  0  0  0  0  0  0  0  0  0  0  0
   -5.9730    1.9630   -0.4540 O   0  0  0  0  0  0  0  0  0  0  0  0
  2  1  1  6
  2  3  1  0
  2  4  1  0
  2 37  1  0
  4  5  1  0
  5  6  1  6
  5  7  1  0
  5 34  1  0
  7  8  2  0
  7 12  1  0
  8  9  1  0
  9 10  2  0
 10 11  1  0
 11 12  2  0
 11 17  1  0
 12 13  1  0
 13 14  1  0
 14 15  2  0
 14 16  1  0
 16 17  1  0
 17 18  1  1
 18 19  2  0
 18 23  1  0
 19 20  1  0
 20 21  2  0
 21 22  1  0
 22 23  2  0
 23 24  1  0
 24 25  1  0
 25 26  2  0
 25 33  1  0
 26 27  1  0
 27 28  2  0
 28 29  1  0
 28 31  1  0
 29 30  2  0
 31 32  1  0
 31 33  2  0
 34 35  1  0
 35 36  2  0
 35 37  1  0
M  END
