
     RDKit          3D

 38 41  0  0  0  0  0  0  0  0999 V2000
   -0.5380   -0.7980    4.7900 N   0  0  0  0  0  0  0  0  0  0  0  0
   -0.5800   -0.8410    3.3760 C   0  0  0  0  0  0  0  0  0  0  0  0
    0.4130   -1.3270    2.6080 N   0  0  0  0  0  0  0  0  0  0  0  0
    0.3280   -1.3470    1.2670 C   0  0  0  0  0  0  0  0  0  0  0  0
    1.3210   -1.8370    0.4380 O   0  0  0  0  0  0  0  0  0  0  0  0
    2.5210   -2.3610    0.9660 C   0  0  2  0  0  0  0  0  0  0  0  0
    3.6280   -1.5400    0.4710 C   0  0  0  0  0  0  0  0  0  0  0  0
    3.6910   -1.1700   -0.8580 C   0  0  0  0  0  0  0  0  0  0  0  0
    4.7210   -0.3970   -1.3510 C   0  0  0  0  0  0  0  0  0  0  0  0
    5.7400    0.0410   -0.5280 C   0  0  0  0  0  0  0  0  0  0  0  0
    6.8270    0.8600   -1.0630 C   0  0  0  0  0  0  0  0  0  0  0  0
    6.6110    1.7430   -2.1120 C   0  0  0  0  0  0  0  0  0  0  0  0
    7.6280    2.5180   -2.6220 C   0  0  0  0  0  0  0  0  0  0  0  0
    8.8990    2.4380   -2.0990 C   0  0  0  0  0  0  0  0  0  0  0  0
    9.1340    1.5670   -1.0570 C   0  0  0  0  0  0  0  0  0  0  0  0
   10.3980    1.5150   -0.5690 F   0  0  0  0  0  0  0  0  0  0  0  0
    8.1080    0.7970   -0.5560 C   0  0  0  0  0  0  0  0  0  0  0  0
    5.6760   -0.3300    0.8000 C   0  0  0  0  0  0  0  0  0  0  0  0
    4.6440   -1.1050    1.2970 C   0  0  0  0  0  0  0  0  0  0  0  0
    2.6890   -3.8280    0.6250 C   0  0  2  0  0  0  0  0  0  0  0  0
    3.8710   -4.2760    1.1680 F   0  0  0  0  0  0  0  0  0  0  0  0
    2.7270   -4.0340   -0.7370 F   0  0  0  0  0  0  0  0  0  0  0  0
    1.6420   -4.5650    1.1400 F   0  0  0  0  0  0  0  0  0  0  0  0
   -0.8380   -0.8410    0.6770 C   0  0  0  0  0  0  0  0  0  0  0  0
   -1.8480   -0.3450    1.4600 C   0  0  0  0  0  0  0  0  0  0  0  0
   -3.0560    0.1790    0.8440 C   0  0  0  0  0  0  0  0  0  0  0  0
   -4.0820    0.6840    1.6500 C   0  0  0  0  0  0  0  0  0  0  0  0
   -5.2340    1.1860    1.0980 C   0  0  0  0  0  0  0  0  0  0  0  0
   -5.4400    1.2190   -0.2630 C   0  0  0  0  0  0  0  0  0  0  0  0
   -6.7010    1.7700   -0.8140 C   0  0  0  0  0  0  0  0  0  0  0  0
   -7.7600    0.7040   -0.9640 C   0  0  2  0  0  0  0  0  0  0  0  0
   -7.3290   -0.3530   -1.8570 N   0  0  0  0  0  0  0  0  0  0  0  0
   -9.0710    1.2480   -1.3180 C   0  0  0  0  0  0  0  0  0  0  0  0
   -9.7180    0.8140   -2.3000 O   0  0  0  0  0  0  0  0  0  0  0  0
   -9.6370    2.2660   -0.5700 O   0  0  0  0  0  0  0  0  0  0  0  0
   -4.4310    0.7230   -1.0520 C   0  0  0  0  0  0  0  0  0  0  0  0
   -3.2610    0.2130   -0.5120 C   0  0  0  0  0  0  0  0  0  0  0  0
   -1.7040   -0.3540    2.7760 N   0  0  0  0  0  0  0  0  0  0  0  0
  1  2  1  0
  2  3  2  0
  2 38  1  0
  3  4  1  0
  4  5  1  0
  4 24  2  0
  6  5  1  6
  6  7  1  0
  6 20  1  0
  7  8  2  0
  7 19  1  0
  8  9  1  0
  9 10  2  0
 10 11  1  0
 10 18  1  0
 11 12  2  0
 11 17  1  0
 12 13  1  0
 13 14  2  0
 14 15  1  0
 15 16  1  0
 15 17  2  0
 18 19  2  0
 20 21  1  1
 20 22  1  0
 20 23  1  0
 24 25  1  0
 25 26  1  0
 25 38  2  0
 26 27  2  0
 26 37  1  0
 27 28  1  0
 28 29  2  0
 29 30  1  0
 29 36  1  0
 30 31  1  0
 31 32  1  6
 31 33  1  0
 33 34  2  0
 33 35  1  0
 36 37  2  0
M  CHG  1  32   1
M  END
