
     RDKit          3D

 37 41  0  0  0  0  0  0  0  0999 V2000
   -0.4330   -1.2530    1.1510 O   0  0  0  0  0  0  0  0  0  0  0  0
   -0.6890   -0.1600    0.5610 C   0  0  0  0  0  0  0  0  0  0  0  0
   -2.0230    0.1300    0.2510 O   0  0  0  0  0  0  0  0  0  0  0  0
   -3.0050   -0.8010    0.6060 C   0  0  2  0  0  0  0  0  0  0  0  0
   -3.6760   -1.2720   -0.6560 C   0  0  0  0  0  0  0  0  0  0  0  0
   -3.9290   -2.6040   -0.8710 C   0  0  0  0  0  0  0  0  0  0  0  0
   -4.5510   -2.9870   -2.0520 C   0  0  0  0  0  0  0  0  0  0  0  0
   -4.8950   -2.0280   -2.9710 C   0  0  0  0  0  0  0  0  0  0  0  0
   -4.6490   -0.6710   -2.7760 C   0  0  0  0  0  0  0  0  0  0  0  0
   -4.0280   -0.3190   -1.5890 C   0  0  0  0  0  0  0  0  0  0  0  0
   -4.0240   -0.2010    1.4980 C   0  0  0  0  0  0  0  0  0  0  0  0
   -5.3560   -0.4420    1.2600 C   0  0  0  0  0  0  0  0  0  0  0  0
   -6.3150    0.1070    2.0760 C   0  0  0  0  0  0  0  0  0  0  0  0
   -5.9900    0.9110    3.1540 C   0  0  0  0  0  0  0  0  0  0  0  0
   -4.6460    1.1360    3.3700 C   0  0  0  0  0  0  0  0  0  0  0  0
   -3.6720    0.5920    2.5590 C   0  0  0  0  0  0  0  0  0  0  0  0
    0.3850    0.7460    0.2300 C   0  0  0  0  0  0  0  0  0  0  0  0
    0.0700    1.8840   -0.3900 C   0  0  0  0  0  0  0  0  0  0  0  0
    1.0940    2.8270   -0.7460 C   0  0  0  0  0  0  0  0  0  0  0  0
    0.8180    4.0330   -1.3960 C   0  0  0  0  0  0  0  0  0  0  0  0
    1.8200    4.9210   -1.7270 C   0  0  0  0  0  0  0  0  0  0  0  0
    3.1380    4.6420   -1.4240 C   0  0  0  0  0  0  0  0  0  0  0  0
    4.1350    5.5510   -1.7670 O   0  0  0  0  0  0  0  0  0  0  0  0
    3.3990    3.4580   -0.7880 C   0  0  0  0  0  0  0  0  0  0  0  0
    2.4100    2.5560   -0.4470 C   0  0  0  0  0  0  0  0  0  0  0  0
    2.6950    1.3800    0.1880 O   0  0  0  0  0  0  0  0  0  0  0  0
    1.7810    0.4020    0.5760 C   0  0  2  0  0  0  0  0  0  0  0  0
    2.1310   -0.9210    0.1220 N   0  0  0  0  0  0  0  0  0  0  0  0
    3.4190   -1.4820    0.3300 C   0  0  0  0  0  0  0  0  0  0  0  0
    4.2110   -0.8800    1.2030 C   0  0  0  0  0  0  0  0  0  0  0  0
    5.5940   -1.2450    1.6130 C   0  0  0  0  0  0  0  0  0  0  0  0
    6.4510   -1.4740    0.3860 C   0  0  0  0  0  0  0  0  0  0  0  0
    6.1500   -2.7130   -0.2330 O   0  0  0  0  0  0  0  0  0  0  0  0
    4.9420   -3.2310   -0.6990 C   0  0  0  0  0  0  0  0  0  0  0  0
    4.9360   -4.3640   -1.4630 O   0  0  0  0  0  0  0  0  0  0  0  0
    3.7560   -2.6740   -0.4400 C   0  0  0  0  0  0  0  0  0  0  0  0
    2.6260   -3.3040   -0.9750 O   0  0  0  0  0  0  0  0  0  0  0  0
  1  2  2  0
  2  3  1  0
  2 17  1  0
  4  3  1  6
  4  5  1  0
  4 11  1  0
  5  6  2  0
  5 10  1  0
  6  7  1  0
  7  8  2  0
  8  9  1  0
  9 10  2  0
 11 12  2  0
 11 16  1  0
 12 13  1  0
 13 14  2  0
 14 15  1  0
 15 16  2  0
 17 18  2  0
 17 27  1  0
 18 19  1  0
 19 20  2  0
 19 25  1  0
 20 21  1  0
 21 22  2  0
 22 23  1  0
 22 24  1  0
 24 25  2  0
 25 26  1  0
 26 27  1  0
 27 28  1  6
 28 29  1  0
 29 30  2  0
 29 36  1  0
 30 31  1  0
 31 32  1  0
 32 33  1  0
 33 34  1  0
 34 35  1  0
 34 36  2  0
 36 37  1  0
M  END
