
     RDKit          3D

 32 34  0  0  0  0  0  0  0  0999 V2000
    6.0500   -2.6550    3.1440 C   0  0  0  0  0  0  0  0  0  0  0  0
    4.7590   -2.9780    2.6030 O   0  0  0  0  0  0  0  0  0  0  0  0
    4.1630   -2.0630    1.7420 C   0  0  0  0  0  0  0  0  0  0  0  0
    4.7830   -0.8750    1.4130 C   0  0  0  0  0  0  0  0  0  0  0  0
    4.2080    0.0300    0.5710 C   0  0  0  0  0  0  0  0  0  0  0  0
    2.9520   -0.2290    0.0070 C   0  0  0  0  0  0  0  0  0  0  0  0
    2.3380    0.7830   -0.8890 C   0  0  0  0  0  0  0  0  0  0  0  0
    1.1920    1.3190   -0.5050 O   0  0  0  0  0  0  0  0  0  0  0  0
   -0.1020    1.1930   -0.2680 C   0  0  0  0  0  0  0  0  0  0  0  0
   -0.8740    0.0500   -0.5050 C   0  0  0  0  0  0  0  0  0  0  0  0
   -2.2210   -0.0090   -0.2220 C   0  0  0  0  0  0  0  0  0  0  0  0
   -2.9550   -1.2550   -0.5430 C   0  0  0  0  0  0  0  0  0  0  0  0
   -3.8230   -1.8600    0.2220 C   0  0  0  0  0  0  0  0  0  0  0  0
   -4.1940   -1.3260    1.5930 C   0  0  0  0  0  0  0  0  0  0  0  0
   -4.3920   -3.0910   -0.3770 C   0  0  0  0  0  0  0  0  0  0  0  0
   -4.0350   -2.9290   -1.8270 C   0  0  2  0  0  0  0  0  0  0  0  0
   -3.7320   -4.2220   -2.3760 N   0  0  0  0  0  0  0  0  0  0  0  0
   -2.8150   -2.0200   -1.8220 C   0  0  0  0  0  0  0  0  0  0  0  0
   -2.8120    1.1060    0.3110 C   0  0  0  0  0  0  0  0  0  0  0  0
   -2.1070    2.2610    0.5660 C   0  0  0  0  0  0  0  0  0  0  0  0
   -0.7760    2.3130    0.2840 C   0  0  0  0  0  0  0  0  0  0  0  0
   -0.0540    3.4900    0.5430 O   0  0  0  0  0  0  0  0  0  0  0  0
   -0.1630    4.5910   -0.2980 C   0  0  0  0  0  0  0  0  0  0  0  0
   -0.9250    4.4880   -1.2860 O   0  0  0  0  0  0  0  0  0  0  0  0
    0.5850    5.8510   -0.0540 C   0  0  0  0  0  0  0  0  0  0  0  0
    0.2510    6.8220   -1.0630 N   0  0  0  0  0  0  0  0  0  0  0  0
    0.8370    8.1070   -1.0360 C   0  0  0  0  0  0  0  0  0  0  0  0
    1.6510    8.3330   -0.0890 O   0  0  0  0  0  0  0  0  0  0  0  0
    2.3340   -1.3950    0.3220 C   0  0  0  0  0  0  0  0  0  0  0  0
    2.9440   -2.3160    1.1970 C   0  0  0  0  0  0  0  0  0  0  0  0
    2.2330   -3.4860    1.4720 O   0  0  0  0  0  0  0  0  0  0  0  0
    0.9590   -3.7300    0.9020 C   0  0  0  0  0  0  0  0  0  0  0  0
  1  2  1  0
  2  3  1  0
  3  4  2  0
  3 30  1  0
  4  5  1  0
  5  6  2  0
  6  7  1  0
  6 29  1  0
  7  8  1  0
  8  9  1  0
  9 10  2  0
  9 21  1  0
 10 11  1  0
 11 12  1  0
 11 19  2  0
 12 13  2  0
 12 18  1  0
 13 14  1  0
 13 15  1  0
 15 16  1  0
 16 17  1  1
 16 18  1  0
 19 20  1  0
 20 21  2  0
 21 22  1  0
 22 23  1  0
 23 24  2  0
 23 25  1  0
 25 26  1  0
 26 27  1  0
 27 28  2  0
 29 30  2  0
 30 31  1  0
 31 32  1  0
M  END
