
     RDKit          3D

 32 34  0  0  0  0  0  0  0  0999 V2000
    5.2250    3.4730    2.3680 C   0  0  0  0  0  0  0  0  0  0  0  0
    5.9820    2.1960    2.0980 C   0  0  0  0  0  0  0  0  0  0  0  0
    5.3360    1.3840    0.9980 C   0  0  0  0  0  0  0  0  0  0  0  0
    4.0290    1.0270    1.3350 O   0  0  0  0  0  0  0  0  0  0  0  0
    3.4870    0.3030    0.2940 N   0  0  0  0  0  0  0  0  0  0  0  0
    3.2580   -1.0870    0.4280 C   0  0  0  0  0  0  0  0  0  0  0  0
    3.5890   -1.6180    1.5500 O   0  0  0  0  0  0  0  0  0  0  0  0
    2.6670   -1.9140   -0.6460 C   0  0  2  0  0  0  0  0  0  0  0  0
    1.2110   -2.1680   -0.5110 C   0  0  0  0  0  0  0  0  0  0  0  0
    0.3080   -1.0430   -0.4810 C   0  0  0  0  0  0  0  0  0  0  0  0
    0.7030    0.1350   -0.5450 O   0  0  0  0  0  0  0  0  0  0  0  0
   -1.1350   -1.2860   -0.3700 C   0  0  0  0  0  0  0  0  0  0  0  0
   -1.6060   -2.5810   -0.3340 C   0  0  0  0  0  0  0  0  0  0  0  0
   -2.9500   -2.8170   -0.2340 C   0  0  0  0  0  0  0  0  0  0  0  0
   -3.3920   -3.9800   -0.2010 O   0  0  0  0  0  0  0  0  0  0  0  0
   -3.8110   -1.6970   -0.1690 C   0  0  0  0  0  0  0  0  0  0  0  0
   -5.2350   -2.0180    0.0050 C   0  0  0  0  0  0  0  0  0  0  0  0
   -3.3490   -0.4240   -0.2070 C   0  0  0  0  0  0  0  0  0  0  0  0
   -4.1780    0.7670   -0.0650 C   0  0  0  0  0  0  0  0  0  0  0  0
   -5.5030    0.8880   -0.3630 C   0  0  0  0  0  0  0  0  0  0  0  0
   -6.2850    2.0070   -0.1340 C   0  0  0  0  0  0  0  0  0  0  0  0
   -5.7040    3.1020    0.4370 C   0  0  0  0  0  0  0  0  0  0  0  0
   -6.4740    4.2220    0.6730 O   0  0  0  0  0  0  0  0  0  0  0  0
   -7.8340    4.3160    0.3650 C   0  0  0  0  0  0  0  0  0  0  0  0
   -4.3620    3.0410    0.7590 C   0  0  0  0  0  0  0  0  0  0  0  0
   -3.6120    1.9170    0.5220 C   0  0  0  0  0  0  0  0  0  0  0  0
   -1.9850   -0.2550   -0.3090 N   0  0  0  0  0  0  0  0  0  0  0  0
    3.4460   -3.2580   -0.5740 C   0  0  0  0  0  0  0  0  0  0  0  0
    4.6220   -3.0950   -1.4850 C   0  0  0  0  0  0  0  0  0  0  0  0
    4.6060   -1.6250   -1.9140 C   0  0  0  0  0  0  0  0  0  0  0  0
    3.0920   -1.3980   -1.9770 C   0  0  1  0  0  0  0  0  0  0  0  0
    2.6470   -2.1950   -3.0320 O   0  0  0  0  0  0  0  0  0  0  0  0
  1  2  1  0
  2  3  1  0
  3  4  1  0
  4  5  1  0
  5  6  1  0
  6  7  2  0
  6  8  1  0
  8  9  1  6
  8 28  1  0
  8 31  1  0
  9 10  1  0
 10 11  2  0
 10 12  1  0
 12 13  2  0
 12 27  1  0
 13 14  1  0
 14 15  2  0
 14 16  1  0
 16 17  1  0
 16 18  2  0
 18 19  1  0
 18 27  1  0
 19 20  2  0
 19 26  1  0
 20 21  1  0
 21 22  2  0
 22 23  1  0
 22 25  1  0
 23 24  1  0
 25 26  2  0
 28 29  1  0
 29 30  1  0
 30 31  1  0
 31 32  1  6
M  END
