
     RDKit          3D

 32 34  0  0  0  0  0  0  0  0999 V2000
   -7.3460    3.0970   -0.4170 C   0  0  0  0  0  0  0  0  0  0  0  0
   -6.1210    2.7200   -1.2540 C   0  0  0  0  0  0  0  0  0  0  0  0
   -4.9520    3.5620   -0.7250 C   0  0  0  0  0  0  0  0  0  0  0  0
   -4.7460    3.2320    0.7220 C   0  0  0  0  0  0  0  0  0  0  0  0
   -4.4500    1.9090    0.9110 O   0  0  0  0  0  0  0  0  0  0  0  0
   -3.3840    1.1760    0.5350 C   0  0  0  0  0  0  0  0  0  0  0  0
   -2.2900    1.6420   -0.1220 C   0  0  0  0  0  0  0  0  0  0  0  0
   -1.2240    0.7950   -0.4790 C   0  0  0  0  0  0  0  0  0  0  0  0
   -1.2490   -0.5420   -0.1730 C   0  0  0  0  0  0  0  0  0  0  0  0
   -0.2910   -1.4430   -0.4630 O   0  0  0  0  0  0  0  0  0  0  0  0
    0.9230   -1.3900   -1.0810 C   0  0  0  0  0  0  0  0  0  0  0  0
    1.9840   -0.5370   -0.4940 C   0  0  0  0  0  0  0  0  0  0  0  0
    3.2520   -0.5740   -1.2700 C   0  0  0  0  0  0  0  0  0  0  0  0
    3.2700   -1.3020   -2.2960 O   0  0  0  0  0  0  0  0  0  0  0  0
    4.4030    0.1460   -0.9220 N   0  0  0  0  0  0  0  0  0  0  0  0
    5.6330    0.1030   -1.6830 C   0  0  1  0  0  0  0  0  0  0  0  0
    6.1170    1.4840   -2.0340 C   0  0  0  0  0  0  0  0  0  0  0  0
    6.9160    1.9570   -1.0940 C   0  0  0  0  0  0  0  0  0  0  0  0
    7.0400    0.9390   -0.0300 C   0  0  2  0  0  0  0  0  0  0  0  0
    8.3860    0.9020    0.5710 C   0  0  0  0  0  0  0  0  0  0  0  0
    8.9020    2.0520    1.2060 N   0  0  0  0  0  0  0  0  0  0  0  0
    9.0840   -0.1360    0.5300 O   0  0  0  0  0  0  0  0  0  0  0  0
    6.7310   -0.3580   -0.7070 C   0  0  0  0  0  0  0  0  0  0  0  0
   -2.3750   -0.9860    0.4970 C   0  0  0  0  0  0  0  0  0  0  0  0
   -2.4730   -2.3450    0.8440 O   0  0  0  0  0  0  0  0  0  0  0  0
   -3.5670   -2.8780    1.5180 C   0  0  0  0  0  0  0  0  0  0  0  0
   -3.3520   -4.3280    1.7260 C   0  0  0  0  0  0  0  0  0  0  0  0
   -2.2470   -5.0420    1.3230 C   0  0  0  0  0  0  0  0  0  0  0  0
   -2.4790   -6.3580    1.7280 C   0  0  0  0  0  0  0  0  0  0  0  0
   -3.6980   -6.3610    2.3480 C   0  0  0  0  0  0  0  0  0  0  0  0
   -4.1730   -5.1300    2.3190 O   0  0  0  0  0  0  0  0  0  0  0  0
   -3.4100   -0.1780    0.8460 C   0  0  0  0  0  0  0  0  0  0  0  0
  1  2  1  0
  2  3  1  0
  3  4  1  0
  4  5  1  0
  5  6  1  0
  6  7  2  0
  6 32  1  0
  7  8  1  0
  8  9  2  0
  9 10  1  0
  9 24  1  0
 10 11  1  0
 11 12  1  0
 12 13  1  0
 13 14  2  0
 13 15  1  0
 16 15  1  1
 16 17  1  0
 16 23  1  0
 17 18  2  0
 18 19  1  0
 19 20  1  6
 19 23  1  0
 20 21  1  0
 20 22  2  0
 24 25  1  0
 24 32  2  0
 25 26  1  0
 26 27  1  0
 27 28  2  0
 27 31  1  0
 28 29  1  0
 29 30  2  0
 30 31  1  0
M  END
