
     RDKit          3D

 32 33  0  0  0  0  0  0  0  0999 V2000
   -4.9730   -0.1610    3.5750 C   0  0  0  0  0  0  0  0  0  0  0  0
   -4.1990   -0.3610    2.3200 O   0  0  0  0  0  0  0  0  0  0  0  0
   -4.3560    0.5440    1.3260 C   0  0  0  0  0  0  0  0  0  0  0  0
   -5.1170    1.7340    1.3650 C   0  0  0  0  0  0  0  0  0  0  0  0
   -5.0030    2.3360    0.2140 C   0  0  0  0  0  0  0  0  0  0  0  0
   -5.5690    3.6570   -0.3230 C   0  0  0  0  0  0  0  0  0  0  0  0
   -4.2100    1.6090   -0.6180 O   0  0  0  0  0  0  0  0  0  0  0  0
   -3.8350    0.4900    0.1440 C   0  0  0  0  0  0  0  0  0  0  0  0
   -2.8970   -0.5150   -0.5850 C   0  0  2  0  0  0  0  0  0  0  0  0
   -3.4480   -1.8090   -0.8930 C   0  0  0  0  0  0  0  0  0  0  0  0
   -3.8170   -2.7950    0.1400 C   0  0  0  0  0  0  0  0  0  0  0  0
   -2.5790   -3.2610    0.7330 O   0  0  0  0  0  0  0  0  0  0  0  0
   -1.5610   -0.1980   -0.2420 N   0  0  0  0  0  0  0  0  0  0  0  0
   -0.6820   -0.6610    0.7970 C   0  0  0  0  0  0  0  0  0  0  0  0
    0.5870    0.2230    0.7370 C   0  0  0  0  0  0  0  0  0  0  0  0
    0.5200    0.8230   -0.5670 C   0  0  1  0  0  0  0  0  0  0  0  0
    0.6100    2.3840   -0.2230 C   0  0  0  0  0  0  0  0  0  0  0  0
    0.6130    3.1400   -1.3590 O   0  0  0  0  0  0  0  0  0  0  0  0
    1.4570    0.5320   -1.6320 C   0  0  0  0  0  0  0  0  0  0  0  0
    2.9420    0.8990   -1.5560 C   0  0  0  0  0  0  0  0  0  0  0  0
    3.3830    0.2120   -2.8750 C   0  0  0  0  0  0  0  0  0  0  0  0
    4.3710   -0.6480   -2.7560 C   0  0  0  0  0  0  0  0  0  0  0  0
    5.0300   -0.9550   -1.6520 C   0  0  0  0  0  0  0  0  0  0  0  0
    5.8490   -1.6180   -0.8750 C   0  0  0  0  0  0  0  0  0  0  0  0
    6.6780   -2.3480   -0.1990 C   0  0  0  0  0  0  0  0  0  0  0  0
    7.1890   -1.7780    1.0000 C   0  0  0  0  0  0  0  0  0  0  0  0
    6.6570   -0.3960    1.1870 C   0  0  0  0  0  0  0  0  0  0  0  0
    6.2270    0.7710    1.3360 N   0  0  0  0  0  0  0  0  0  0  0  0
    8.1270   -2.3100    1.8010 C   0  0  0  0  0  0  0  0  0  0  0  0
    8.6160   -1.7630    2.8410 O   0  0  0  0  0  0  0  0  0  0  0  0
   -0.7960    0.6750   -1.0860 C   0  0  0  0  0  0  0  0  0  0  0  0
   -1.1530    1.2830   -2.1640 O   0  0  0  0  0  0  0  0  0  0  0  0
  1  2  1  0
  2  3  1  0
  3  4  1  0
  3  8  2  0
  4  5  2  0
  5  6  1  0
  5  7  1  0
  7  8  1  0
  8  9  1  0
  9 10  1  1
  9 13  1  0
 10 11  1  0
 11 12  1  0
 13 14  1  0
 13 31  1  0
 14 15  1  0
 15 16  1  0
 16 17  1  1
 16 19  1  0
 16 31  1  0
 17 18  1  0
 19 20  1  0
 20 21  1  0
 21 22  2  3
 22 23  1  0
 23 24  2  3
 24 25  1  0
 25 26  2  3
 26 27  1  0
 26 29  1  0
 27 28  3  0
 29 30  2  0
 31 32  2  0
M  END
