
     RDKit          3D

 33 36  0  0  0  0  0  0  0  0999 V2000
   -4.2710   -3.1020    0.3070 C   0  0  0  0  0  0  0  0  0  0  0  0
   -5.3960   -2.3660   -0.3390 C   0  0  0  0  0  0  0  0  0  0  0  0
   -6.2470   -2.9800   -1.1870 C   0  0  0  0  0  0  0  0  0  0  0  0
   -7.2990   -2.3170   -1.8070 C   0  0  0  0  0  0  0  0  0  0  0  0
   -7.4190   -0.9800   -1.4960 C   0  0  0  0  0  0  0  0  0  0  0  0
   -6.5670   -0.3110   -0.6280 C   0  0  0  0  0  0  0  0  0  0  0  0
   -5.5400   -1.0210   -0.0440 C   0  0  0  0  0  0  0  0  0  0  0  0
   -4.6460   -0.3940    0.9260 C   0  0  0  0  0  0  0  0  0  0  0  0
   -4.6370   -0.8710    2.2470 C   0  0  0  0  0  0  0  0  0  0  0  0
   -3.8520   -0.2710    3.2120 C   0  0  0  0  0  0  0  0  0  0  0  0
   -3.0640    0.8110    2.8890 C   0  0  0  0  0  0  0  0  0  0  0  0
   -3.0600    1.2930    1.5940 C   0  0  0  0  0  0  0  0  0  0  0  0
   -3.8630    0.6760    0.6090 C   0  0  0  0  0  0  0  0  0  0  0  0
   -3.8260    1.1850   -0.7830 C   0  0  0  0  0  0  0  0  0  0  0  0
   -2.8750    2.2820   -0.9060 N   0  0  0  0  0  0  0  0  0  0  0  0
   -1.4870    2.0210   -0.8330 C   0  0  0  0  0  0  0  0  0  0  0  0
   -0.9620    0.7640   -0.6630 C   0  0  0  0  0  0  0  0  0  0  0  0
    0.3500    0.5030   -0.6000 N   0  0  0  0  0  0  0  0  0  0  0  0
    1.2390    1.5340   -0.7080 C   0  0  0  0  0  0  0  0  0  0  0  0
    2.6760    1.2570   -0.6470 C   0  0  0  0  0  0  0  0  0  0  0  0
    3.6440    2.2260   -0.7420 C   0  0  0  0  0  0  0  0  0  0  0  0
    5.0100    1.9280   -0.6880 C   0  0  0  0  0  0  0  0  0  0  0  0
    5.4330    0.6150   -0.5320 C   0  0  0  0  0  0  0  0  0  0  0  0
    6.8380    0.2210   -0.4810 C   0  0  0  0  0  0  0  0  0  0  0  0
    7.4660    0.2300    0.8870 C   0  0  2  0  0  0  0  0  0  0  0  0
    8.8420   -0.1950    0.7050 N   0  0  0  0  0  0  0  0  0  0  0  0
    6.7950   -0.7050    1.8090 C   0  0  0  0  0  0  0  0  0  0  0  0
    5.5850   -0.5710    2.1590 O   0  0  0  0  0  0  0  0  0  0  0  0
    7.5070   -1.7760    2.3210 O   0  0  0  0  0  0  0  0  0  0  0  0
    4.4570   -0.3510   -0.4370 C   0  0  0  0  0  0  0  0  0  0  0  0
    3.1150   -0.0630   -0.4900 C   0  0  0  0  0  0  0  0  0  0  0  0
    0.7260    2.7920   -0.8770 C   0  0  0  0  0  0  0  0  0  0  0  0
   -0.6050    3.0510   -0.9410 N   0  0  0  0  0  0  0  0  0  0  0  0
  1  2  1  0
  2  3  2  0
  2  7  1  0
  3  4  1  0
  4  5  2  0
  5  6  1  0
  6  7  2  0
  7  8  1  0
  8  9  2  0
  8 13  1  0
  9 10  1  0
 10 11  2  0
 11 12  1  0
 12 13  2  0
 13 14  1  0
 14 15  1  0
 15 16  1  0
 16 17  2  0
 16 33  1  0
 17 18  1  0
 18 19  2  0
 19 20  1  0
 19 32  1  0
 20 21  2  0
 20 31  1  0
 21 22  1  0
 22 23  2  0
 23 24  1  0
 23 30  1  0
 24 25  1  0
 25 26  1  6
 25 27  1  0
 27 28  2  0
 27 29  1  0
 30 31  2  0
 32 33  2  0
M  CHG  1  26   1
M  END
