
     RDKit          3D

 31 33  0  0  0  0  0  0  0  0999 V2000
    1.0010   -0.3190    0.3470 O   0  0  0  0  0  0  0  0  0  0  0  0
    1.1700   -0.3940   -0.8950 C   0  0  0  0  0  0  0  0  0  0  0  0
   -0.0110   -0.3320   -1.7730 C   0  0  0  0  0  0  0  0  0  0  0  0
   -1.2450   -0.1880   -1.0160 N   0  0  0  0  0  0  0  0  0  0  0  0
   -1.5260    1.0340   -0.2950 C   0  0  0  0  0  0  0  0  0  0  0  0
   -2.9650    1.3820   -0.1790 C   0  0  1  0  0  0  0  0  0  0  0  0
   -3.2370    2.9440   -1.1840 P   0  0  0  0  0  0  0  0  0  0  0  0
   -2.5340    4.2840   -0.3280 O   0  0  0  0  0  0  0  0  0  0  0  0
   -2.4600    2.8320   -2.7240 O   0  0  0  0  0  0  0  0  0  0  0  0
   -3.8900    0.4010   -0.6310 N   0  0  0  0  0  0  0  0  0  0  0  0
   -3.5400   -0.9500   -0.3180 C   0  0  1  0  0  0  0  0  0  0  0  0
   -3.6030   -1.3700    1.4570 P   0  0  0  0  0  0  0  0  0  0  0  0
   -2.1190   -1.1910    2.2960 O   0  0  0  0  0  0  0  0  0  0  0  0
   -5.3180   -0.5300    2.4960 P   0  0  0  0  0  0  0  0  0  0  0  0
   -6.7030   -1.5580    2.3170 O   0  0  0  0  0  0  0  0  0  0  0  0
   -5.6510    1.1010    2.0840 O   0  0  0  0  0  0  0  0  0  0  0  0
   -4.3250   -1.8610   -1.0240 O   0  0  0  0  0  0  0  0  0  0  0  0
   -3.5030   -2.9450   -0.9720 O   0  0  0  0  0  0  0  0  0  0  0  0
   -2.2530   -2.4320   -1.3230 N   0  0  0  0  0  0  0  0  0  0  0  0
   -2.2180   -1.2120   -0.9440 C   0  0  0  0  0  0  0  0  0  0  0  0
    2.4990   -0.5340   -1.3710 N   0  0  0  0  0  0  0  0  0  0  0  0
    3.6260   -0.5960   -0.5110 C   0  0  0  0  0  0  0  0  0  0  0  0
    4.8920   -0.7310   -0.9300 N   0  0  0  0  0  0  0  0  0  0  0  0
    5.7240   -0.7570    0.1470 C   0  0  0  0  0  0  0  0  0  0  0  0
    7.1750   -0.8900    0.1380 C   0  0  0  0  0  0  0  0  0  0  0  0
    7.7580   -0.9950   -0.9720 O   0  0  0  0  0  0  0  0  0  0  0  0
    7.8780   -0.9000    1.3170 O   0  0  0  0  0  0  0  0  0  0  0  0
    9.2260   -1.0280    1.2370 O   0  0  0  0  0  0  0  0  0  0  0  0
    9.6310   -0.1620    0.3580 O   0  0  0  0  0  0  0  0  0  0  0  0
    4.8880   -0.6310    1.2310 C   0  0  0  0  0  0  0  0  0  0  0  0
    3.6590   -0.5390    0.7980 O   0  0  0  0  0  0  0  0  0  0  0  0
  1  2  2  0
  2  3  1  0
  2 21  1  0
  3  4  1  0
  4  5  1  0
  4 20  1  0
  5  6  1  0
  6  7  1  6
  6 10  1  0
  7  8  1  0
  7  9  1  0
 10 11  1  0
 11 12  1  1
 11 17  1  0
 11 20  1  0
 12 13  1  0
 12 14  1  0
 14 15  1  0
 14 16  1  0
 17 18  1  0
 18 19  1  0
 19 20  2  0
 21 22  1  0
 22 23  2  0
 22 31  1  0
 23 24  1  0
 24 25  1  0
 24 30  2  0
 25 26  2  0
 25 27  1  0
 27 28  1  0
 28 29  1  0
 30 31  1  0
M  END
