
     RDKit          3D

 19 21  0  0  0  0  0  0  0  0999 V2000
    6.1190    1.4570    0.7570 C   0  0  0  0  0  0  0  0  0  0  0  0
    5.0760    0.5650    0.1870 C   0  0  0  0  0  0  0  0  0  0  0  0
    5.3040   -0.7130    0.0950 C   0  0  0  0  0  0  0  0  0  0  0  0
    4.5620   -1.8450   -0.3840 C   0  0  0  0  0  0  0  0  0  0  0  0
    3.2630   -1.9820   -0.5320 C   0  0  0  0  0  0  0  0  0  0  0  0
    2.1700   -1.0610   -0.2690 C   0  0  0  0  0  0  0  0  0  0  0  0
    0.9450   -1.6900   -0.1070 C   0  0  0  0  0  0  0  0  0  0  0  0
   -0.2360   -1.0320    0.1490 C   0  0  0  0  0  0  0  0  0  0  0  0
   -0.2030    0.3420    0.2520 C   0  0  0  0  0  0  0  0  0  0  0  0
   -1.3800    1.1030    0.5050 N   0  0  0  0  0  0  0  0  0  0  0  0
   -2.6740    0.5170    0.4910 C   0  0  2  0  0  0  0  0  0  0  0  0
   -3.1490   -0.0010   -0.8290 C   0  0  0  0  0  0  0  0  0  0  0  0
   -4.3430   -0.9030   -0.5270 C   0  0  0  0  0  0  0  0  0  0  0  0
   -5.3780   -0.1850    0.1740 N   0  0  0  0  0  0  0  0  0  0  0  0
   -4.9500    0.5410    1.3190 C   0  0  0  0  0  0  0  0  0  0  0  0
   -3.7570    1.4550    1.0010 C   0  0  0  0  0  0  0  0  0  0  0  0
    1.0270    0.9960    0.0930 C   0  0  0  0  0  0  0  0  0  0  0  0
    2.2010    0.3210   -0.1630 C   0  0  0  0  0  0  0  0  0  0  0  0
    3.5880    1.4230   -0.3130 S   0  0  0  0  0  0  0  0  0  0  0  0
  1  2  1  0
  2  3  2  0
  2 19  1  0
  3  4  1  0
  4  5  2  0
  5  6  1  0
  6  7  2  0
  6 18  1  0
  7  8  1  0
  8  9  2  0
  9 10  1  0
  9 17  1  0
 11 10  1  6
 11 12  1  0
 11 16  1  0
 12 13  1  0
 13 14  1  0
 14 15  1  0
 15 16  1  0
 17 18  2  0
 18 19  1  0
M  END
