
     RDKit          3D

 19 21  0  0  0  0  0  0  0  0999 V2000
   -1.4290   -2.3100   -1.0850 S   0  0  0  0  0  0  0  0  0  0  0  0
   -0.6670   -0.9380   -0.4400 C   0  0  0  0  0  0  0  0  0  0  0  0
    0.7150   -1.0850   -0.2720 N   0  0  0  0  0  0  0  0  0  0  0  0
    1.6650   -0.2080    0.2700 C   0  0  0  0  0  0  0  0  0  0  0  0
    1.3370    0.6940    1.2550 C   0  0  0  0  0  0  0  0  0  0  0  0
    2.2970    1.4830    1.8520 C   0  0  0  0  0  0  0  0  0  0  0  0
    3.5940    1.3370    1.4310 C   0  0  0  0  0  0  0  0  0  0  0  0
    3.9460    0.4390    0.4460 C   0  0  0  0  0  0  0  0  0  0  0  0
    5.2730    0.3210    0.0360 C   0  0  0  0  0  0  0  0  0  0  0  0
    5.6230   -0.5640   -0.9470 C   0  0  0  0  0  0  0  0  0  0  0  0
    4.6860   -1.3570   -1.5560 C   0  0  0  0  0  0  0  0  0  0  0  0
    3.3570   -1.2460   -1.1530 C   0  0  0  0  0  0  0  0  0  0  0  0
    2.9940   -0.3560   -0.1600 C   0  0  0  0  0  0  0  0  0  0  0  0
   -1.4670    0.1680   -0.1540 N   0  0  0  0  0  0  0  0  0  0  0  0
   -2.8950    0.0950   -0.3810 C   0  0  2  0  0  0  0  0  0  0  0  0
   -3.5860    1.4060   -0.0500 C   0  0  0  0  0  0  0  0  0  0  0  0
   -5.0270    0.9930    0.0260 C   0  0  0  0  0  0  0  0  0  0  0  0
   -5.0480   -0.5040    0.2160 C   0  0  0  0  0  0  0  0  0  0  0  0
   -3.5960   -0.8180    0.6120 C   0  0  0  0  0  0  0  0  0  0  0  0
  1  2  2  0
  2  3  1  0
  2 14  1  0
  3  4  1  0
  4  5  2  0
  4 13  1  0
  5  6  1  0
  6  7  2  0
  7  8  1  0
  8  9  2  0
  8 13  1  0
  9 10  1  0
 10 11  2  0
 11 12  1  0
 12 13  2  0
 15 14  1  1
 15 16  1  0
 15 19  1  0
 16 17  1  0
 17 18  1  0
 18 19  1  0
M  END
