
     RDKit          3D

 18 19  0  0  0  0  0  0  0  0999 V2000
   -3.7130   -0.0290   -2.3300 C   0  0  0  0  0  0  0  0  0  0  0  0
   -3.0630    0.0620   -0.9910 C   0  0  0  0  0  0  0  0  0  0  0  0
   -3.7870   -0.1190    0.1700 C   0  0  0  0  0  0  0  0  0  0  0  0
   -3.1770   -0.0330    1.4260 C   0  0  0  0  0  0  0  0  0  0  0  0
   -3.9720   -0.2310    2.6780 C   0  0  0  0  0  0  0  0  0  0  0  0
   -1.8270    0.2370    1.5010 C   0  0  0  0  0  0  0  0  0  0  0  0
   -1.1610    0.3320    2.8250 C   0  0  0  0  0  0  0  0  0  0  0  0
   -1.0810    0.4210    0.3590 C   0  0  0  0  0  0  0  0  0  0  0  0
    0.3010    0.6960    0.4870 N   0  0  0  0  0  0  0  0  0  0  0  0
    1.1530    0.9010   -0.6290 C   0  0  0  0  0  0  0  0  0  0  0  0
    2.3530    0.3950   -0.7110 C   0  0  0  0  0  0  0  0  0  0  0  0
    2.8980   -0.4270    0.3610 C   0  0  0  0  0  0  0  0  0  0  0  0
    4.0920   -0.9750    0.3620 C   0  0  0  0  0  0  0  0  0  0  0  0
    5.0420   -0.8430   -0.7020 C   0  0  0  0  0  0  0  0  0  0  0  0
    4.9050   -0.1810   -1.8240 C   0  0  0  0  0  0  0  0  0  0  0  0
    5.8940   -0.1080   -2.8110 N   0  0  0  0  0  0  0  0  0  0  0  0
    3.3780    0.6890   -2.1410 S   0  0  0  0  0  0  0  0  0  0  0  0
   -1.7150    0.3300   -0.8670 C   0  0  0  0  0  0  0  0  0  0  0  0
  1  2  1  0
  2  3  2  0
  2 18  1  0
  3  4  1  0
  4  5  1  0
  4  6  2  0
  6  7  1  0
  6  8  1  0
  8  9  1  0
  8 18  2  0
  9 10  1  0
 10 11  2  3
 11 12  1  0
 11 17  1  0
 12 13  2  0
 13 14  1  0
 14 15  2  0
 15 16  1  0
 15 17  1  0
M  END
