
     RDKit          3D

 19 21  0  0  0  0  0  0  0  0999 V2000
    6.5870   -1.3630   -1.1660 N   0  0  0  0  0  0  0  0  0  0  0  0
    5.1700   -2.3470   -1.5200 S   0  0  0  0  0  0  0  0  0  0  0  0
    3.7110   -1.5580   -0.8580 C   0  0  0  0  0  0  0  0  0  0  0  0
    3.8250   -0.3580   -0.1930 C   0  0  0  0  0  0  0  0  0  0  0  0
    2.6920    0.2540    0.3210 C   0  0  0  0  0  0  0  0  0  0  0  0
    1.4290   -0.2960    0.1920 C   0  0  0  0  0  0  0  0  0  0  0  0
    0.2370    0.3500    0.7340 C   0  0  0  0  0  0  0  0  0  0  0  0
    0.2520    1.1220    1.8790 C   0  0  0  0  0  0  0  0  0  0  0  0
   -0.8720    1.7340    2.3930 C   0  0  0  0  0  0  0  0  0  0  0  0
   -2.0710    1.5560    1.7160 C   0  0  0  0  0  0  0  0  0  0  0  0
   -2.1470    0.7960    0.5670 C   0  0  0  0  0  0  0  0  0  0  0  0
   -3.4300    0.6140   -0.1460 C   0  0  0  0  0  0  0  0  0  0  0  0
   -4.4660    1.5210   -0.2250 C   0  0  0  0  0  0  0  0  0  0  0  0
   -5.4700    0.9540   -0.9820 C   0  0  0  0  0  0  0  0  0  0  0  0
   -5.0560   -0.2750   -1.3580 N   0  0  0  0  0  0  0  0  0  0  0  0
   -3.8250   -0.4860   -0.8560 C   0  0  0  0  0  0  0  0  0  0  0  0
   -0.9860    0.2060    0.0980 C   0  0  0  0  0  0  0  0  0  0  0  0
    1.3420   -1.5030   -0.4810 C   0  0  0  0  0  0  0  0  0  0  0  0
    2.4660   -2.1350   -1.0050 C   0  0  0  0  0  0  0  0  0  0  0  0
  1  2  1  0
  2  3  1  0
  3  4  2  0
  3 19  1  0
  4  5  1  0
  5  6  2  0
  6  7  1  0
  6 18  1  0
  7  8  2  0
  7 17  1  0
  8  9  1  0
  9 10  2  0
 10 11  1  0
 11 12  1  0
 11 17  2  0
 12 13  1  0
 12 16  2  0
 13 14  2  0
 14 15  1  0
 15 16  1  0
 18 19  2  0
M  END
