
     RDKit          3D

 19 21  0  0  0  0  0  0  0  0999 V2000
    3.9420   -3.1270    0.9830 C   0  0  0  0  0  0  0  0  0  0  0  0
    3.2420   -2.1690    1.5820 C   0  0  0  0  0  0  0  0  0  0  0  0
    1.8140   -2.4420    1.9940 C   0  0  0  0  0  0  0  0  0  0  0  0
    0.9900   -1.4650    1.3180 N   0  0  0  0  0  0  0  0  0  0  0  0
    0.8190   -1.4160   -0.1000 C   0  0  0  0  0  0  0  0  0  0  0  0
    1.4230   -2.3630   -0.8230 N   0  0  0  0  0  0  0  0  0  0  0  0
    1.3680   -2.4940   -2.1350 C   0  0  0  0  0  0  0  0  0  0  0  0
    2.0280   -3.5300   -2.9500 C   0  0  0  0  0  0  0  0  0  0  0  0
    0.5920   -1.5250   -2.7860 C   0  0  0  0  0  0  0  0  0  0  0  0
   -0.0580   -0.5120   -2.0580 C   0  0  0  0  0  0  0  0  0  0  0  0
   -1.0640    0.8160   -2.4760 S   0  0  0  0  0  0  0  0  0  0  0  0
   -1.3300    1.4380   -0.8760 C   0  0  0  0  0  0  0  0  0  0  0  0
   -2.1530    2.6310   -0.5450 C   0  0  2  0  0  0  0  0  0  0  0  0
   -1.3730    3.7090    0.1480 C   0  0  0  0  0  0  0  0  0  0  0  0
   -2.3020    4.2100    1.2280 C   0  0  0  0  0  0  0  0  0  0  0  0
   -3.2120    3.0840    1.6070 C   0  0  0  0  0  0  0  0  0  0  0  0
   -3.2410    2.1990    0.4080 C   0  0  0  0  0  0  0  0  0  0  0  0
   -0.6280    0.5880   -0.1040 C   0  0  0  0  0  0  0  0  0  0  0  0
    0.0330   -0.4220   -0.6890 C   0  0  0  0  0  0  0  0  0  0  0  0
  1  2  2  0
  2  3  1  0
  3  4  1  0
  4  5  1  0
  5  6  2  0
  5 19  1  0
  6  7  1  0
  7  8  1  0
  7  9  2  0
  9 10  1  0
 10 11  1  0
 10 19  2  0
 11 12  1  0
 13 12  1  1
 12 18  2  0
 13 14  1  0
 13 17  1  0
 14 15  1  0
 15 16  1  0
 16 17  1  0
 18 19  1  0
M  END
