
     RDKit          3D

 19 21  0  0  0  0  0  0  0  0999 V2000
    0.3510   -3.5230   -1.1070 S   0  0  0  0  0  0  0  0  0  0  0  0
    0.8270   -2.0240   -0.5960 C   0  0  0  0  0  0  0  0  0  0  0  0
    2.2410   -1.9010   -0.4620 N   0  0  0  0  0  0  0  0  0  0  0  0
    2.9070   -0.7100   -0.0730 C   0  0  0  0  0  0  0  0  0  0  0  0
    2.6740    0.5080   -0.6370 C   0  0  0  0  0  0  0  0  0  0  0  0
    3.3420    1.6510   -0.1880 C   0  0  0  0  0  0  0  0  0  0  0  0
    4.2580    1.5930    0.8370 C   0  0  0  0  0  0  0  0  0  0  0  0
    4.5080    0.3770    1.4170 C   0  0  0  0  0  0  0  0  0  0  0  0
    3.8480   -0.7410    0.9710 C   0  0  0  0  0  0  0  0  0  0  0  0
   -0.0630   -0.9870   -0.3230 N   0  0  0  0  0  0  0  0  0  0  0  0
   -1.4540   -0.9190   -0.4110 C   0  0  0  0  0  0  0  0  0  0  0  0
   -2.2700   -1.9460   -0.8150 C   0  0  0  0  0  0  0  0  0  0  0  0
   -3.6590   -1.8280   -0.8870 C   0  0  0  0  0  0  0  0  0  0  0  0
   -4.2620   -0.6570   -0.5490 C   0  0  0  0  0  0  0  0  0  0  0  0
   -3.4600    0.4190   -0.1290 C   0  0  0  0  0  0  0  0  0  0  0  0
   -2.1050    0.2820   -0.0660 C   0  0  0  0  0  0  0  0  0  0  0  0
   -1.5450    1.4220    0.3540 C   0  0  0  0  0  0  0  0  0  0  0  0
   -2.6280    2.3940    0.5890 C   0  0  0  0  0  0  0  0  0  0  0  0
   -3.8380    1.6310    0.2400 C   0  0  0  0  0  0  0  0  0  0  0  0
  1  2  2  0
  2  3  1  0
  2 10  1  0
  3  4  1  0
  4  5  2  0
  4  9  1  0
  5  6  1  0
  6  7  2  0
  7  8  1  0
  8  9  2  0
 10 11  1  0
 11 12  2  0
 11 16  1  0
 12 13  1  0
 13 14  2  0
 14 15  1  0
 15 16  1  0
 15 19  2  0
 16 17  2  0
 17 18  1  0
 18 19  1  0
M  END
