
     RDKit          3D

 23 23  0  0  0  0  0  0  0  0999 V2000
    3.5960   -1.2400    2.5690 C   0  0  0  0  0  0  0  0  0  0  0  0
    2.5060   -0.9670    1.7090 O   0  0  0  0  0  0  0  0  0  0  0  0
    2.7600   -0.4570    0.4430 C   0  0  0  0  0  0  0  0  0  0  0  0
    4.0510   -0.2160    0.0220 C   0  0  0  0  0  0  0  0  0  0  0  0
    4.2490    0.3000   -1.2690 C   0  0  0  0  0  0  0  0  0  0  0  0
    5.5640    0.5440   -1.6950 N   0  0  0  0  0  0  0  0  0  0  0  0
    6.6150    0.2480   -0.7800 N   0  0  0  0  0  0  0  0  0  0  0  0
    7.3550    1.1650   -0.4070 O   0  0  0  0  0  0  0  0  0  0  0  0
    3.1780    0.5590   -2.0890 C   0  0  0  0  0  0  0  0  0  0  0  0
    3.3610    1.0650   -3.3550 O   0  0  0  0  0  0  0  0  0  0  0  0
    1.8680    0.3060   -1.6400 C   0  0  0  0  0  0  0  0  0  0  0  0
    1.6740   -0.2020   -0.3700 C   0  0  0  0  0  0  0  0  0  0  0  0
    0.4190   -0.4620    0.1050 O   0  0  0  0  0  0  0  0  0  0  0  0
   -0.7830   -0.2680   -0.5710 C   0  0  0  0  0  0  0  0  0  0  0  0
   -1.9080   -0.6940    0.3500 C   0  0  2  0  0  0  0  0  0  0  0  0
   -1.8000    0.0420    1.6310 C   0  0  0  0  0  0  0  0  0  0  0  0
   -1.6690   -2.0610    0.6320 O   0  0  0  0  0  0  0  0  0  0  0  0
   -3.2340   -0.6190   -0.3290 C   0  0  0  0  0  0  0  0  0  0  0  0
   -3.6660    0.6770   -0.7000 N   0  0  0  0  0  0  0  0  0  0  0  0
   -4.5680    1.1950    0.3020 C   0  0  0  0  0  0  0  0  0  0  0  0
   -5.9850    0.9330   -0.0710 C   0  0  0  0  0  0  0  0  0  0  0  0
   -6.2760    0.2520   -1.2840 N   0  0  0  0  0  0  0  0  0  0  0  0
   -6.9510    1.2900    0.6450 O   0  0  0  0  0  0  0  0  0  0  0  0
  1  2  1  0
  2  3  1  0
  3  4  2  0
  3 12  1  0
  4  5  1  0
  5  6  1  0
  5  9  2  0
  6  7  1  0
  7  8  2  0
  9 10  1  0
  9 11  1  0
 11 12  2  0
 12 13  1  0
 13 14  1  0
 14 15  1  0
 15 16  1  1
 15 17  1  0
 15 18  1  0
 18 19  1  0
 19 20  1  0
 20 21  1  0
 21 22  1  0
 21 23  2  0
M  CHG  2   7   1  19   1
M  END
