
     RDKit          3D

 23 23  0  0  0  0  0  0  0  0999 V2000
    7.6440    0.7020   -1.3760 N   0  0  0  0  0  0  0  0  0  0  0  0
    6.8890    0.1190   -0.4430 O   0  0  0  0  0  0  0  0  0  0  0  0
    6.1260    0.9940    0.3060 C   0  0  2  0  0  0  0  0  0  0  0  0
    6.5030    0.9480    1.7810 C   0  0  0  0  0  0  0  0  0  0  0  0
    7.8230    1.2880    1.9800 O   0  0  0  0  0  0  0  0  0  0  0  0
    4.6680    0.6650    0.2080 C   0  0  0  0  0  0  0  0  0  0  0  0
    3.8360    1.3620    0.8280 O   0  0  0  0  0  0  0  0  0  0  0  0
    4.2220   -0.3820   -0.5470 O   0  0  0  0  0  0  0  0  0  0  0  0
    2.8750   -0.7780   -0.7070 C   0  0  0  0  0  0  0  0  0  0  0  0
    2.2450   -1.1570    0.5900 C   0  0  0  0  0  0  0  0  0  0  0  0
    0.8720   -1.5610    0.4150 N   0  0  0  0  0  0  0  0  0  0  0  0
   -0.0670   -0.6420   -0.1160 C   0  0  0  0  0  0  0  0  0  0  0  0
    0.3020    0.4970   -0.4170 O   0  0  0  0  0  0  0  0  0  0  0  0
   -1.4150   -0.9780   -0.3160 N   0  0  0  0  0  0  0  0  0  0  0  0
   -2.4360   -0.0880   -0.8550 C   0  0  1  0  0  0  0  0  0  0  0  0
   -3.0190   -0.6650   -2.0900 C   0  0  0  0  0  0  0  0  0  0  0  0
   -4.0230    0.0560   -2.7680 N   0  0  0  0  0  0  0  0  0  0  0  0
   -3.4220    0.0830    0.2970 C   0  0  1  0  0  0  0  0  0  0  0  0
   -4.3760    1.1930    0.1110 C   0  0  0  0  0  0  0  0  0  0  0  0
   -5.8210    0.7790    0.4340 C   0  0  0  0  0  0  0  0  0  0  0  0
   -5.6950    0.0350    1.7710 C   0  0  0  0  0  0  0  0  0  0  0  0
   -4.9410   -1.2200    1.5000 C   0  0  0  0  0  0  0  0  0  0  0  0
   -3.9300   -1.1560    0.5980 O   0  0  0  0  0  0  0  0  0  0  0  0
  1  2  1  0
  2  3  1  0
  3  4  1  1
  3  6  1  0
  4  5  1  0
  6  7  2  0
  6  8  1  0
  8  9  1  0
  9 10  1  0
 10 11  1  0
 11 12  1  0
 12 13  2  0
 12 14  1  0
 14 15  1  0
 15 16  1  6
 15 18  1  0
 16 17  1  0
 18 19  1  6
 18 23  1  0
 19 20  1  0
 20 21  1  0
 21 22  1  0
 22 23  1  0
M  CHG  1  17   1
M  END
