
     RDKit          3D

 15 15  0  0  0  0  0  0  0  0999 V2000
    3.3200   -1.9190    0.1550 N   0  0  0  0  0  0  0  0  0  0  0  0
    2.7210   -0.5440   -0.7020 S   0  0  2  0  0  0  0  0  0  0  0  0
    2.7410   -0.7450   -2.1700 O   0  0  0  0  0  0  0  0  0  0  0  0
    3.6350    0.6260   -0.3880 O   0  0  0  0  0  0  0  0  0  0  0  0
    1.1270   -0.1620   -0.0650 C   0  0  2  0  0  0  0  0  0  0  0  0
    0.2230   -1.1830   -0.1650 O   0  0  0  0  0  0  0  0  0  0  0  0
   -0.8780   -0.9490    0.6100 C   0  0  2  0  0  0  0  0  0  0  0  0
   -2.0830   -1.5490   -0.1290 C   0  0  0  0  0  0  0  0  0  0  0  0
   -2.2540   -0.9730   -1.3660 O   0  0  0  0  0  0  0  0  0  0  0  0
   -1.1070    0.4270    1.0620 C   0  0  2  0  0  0  0  0  0  0  0  0
   -2.5040    0.6390    1.1470 O   0  0  0  0  0  0  0  0  0  0  0  0
   -0.5380    1.5290    0.2530 C   0  0  2  0  0  0  0  0  0  0  0  0
   -1.5120    2.3130   -0.3920 O   0  0  0  0  0  0  0  0  0  0  0  0
    0.4930    1.0290   -0.7650 C   0  0  1  0  0  0  0  0  0  0  0  0
    1.4290    2.0040   -1.0660 O   0  0  0  0  0  0  0  0  0  0  0  0
  2  1  1  1
  2  3  2  0
  2  4  2  0
  2  5  1  0
  5  6  1  6
  5 14  1  0
  6  7  1  0
  7  8  1  6
  7 10  1  0
  8  9  1  0
 10 11  1  6
 10 12  1  0
 12 13  1  6
 12 14  1  0
 14 15  1  1
M  END
