
     RDKit          3D

 19 21  0  0  0  0  0  0  0  0999 V2000
    4.3960    1.5400   -0.6470 C   0  0  0  0  0  0  0  0  0  0  0  0
    3.7260    0.5980    0.3270 C   0  0  2  0  0  0  0  0  0  0  0  0
    4.2410   -0.8010    0.2150 C   0  0  0  0  0  0  0  0  0  0  0  0
    2.2290    0.6260    0.0710 C   0  0  0  0  0  0  0  0  0  0  0  0
    1.5670   -0.3230    1.0540 C   0  0  0  0  0  0  0  0  0  0  0  0
    0.0970   -0.2900    0.7960 C   0  0  0  0  0  0  0  0  0  0  0  0
   -0.6680    0.6380    1.4830 C   0  0  0  0  0  0  0  0  0  0  0  0
   -2.0430    0.6920    1.2630 C   0  0  0  0  0  0  0  0  0  0  0  0
   -2.5650   -0.1830    0.3710 C   0  0  0  0  0  0  0  0  0  0  0  0
   -3.9150   -0.0530    0.2250 C   0  0  0  0  0  0  0  0  0  0  0  0
   -4.5560   -0.8960   -0.6610 C   0  0  0  0  0  0  0  0  0  0  0  0
   -3.7750   -1.8150   -1.3370 C   0  0  0  0  0  0  0  0  0  0  0  0
   -4.3240   -2.6030   -2.1550 O   0  0  0  0  0  0  0  0  0  0  0  0
   -2.4490   -1.9240   -1.1760 N   0  0  0  0  0  0  0  0  0  0  0  0
   -1.8180   -1.1060   -0.3150 C   0  0  0  0  0  0  0  0  0  0  0  0
   -0.4430   -1.1780   -0.1110 C   0  0  0  0  0  0  0  0  0  0  0  0
   -4.3670    1.0360    1.1180 C   0  0  0  0  0  0  0  0  0  0  0  0
   -3.1290    1.5050    1.7830 C   0  0  0  0  0  0  0  0  0  0  0  0
   -3.0020    2.4290    2.6410 O   0  0  0  0  0  0  0  0  0  0  0  0
  2  1  1  6
  2  3  1  0
  2  4  1  0
  4  5  1  0
  5  6  1  0
  6  7  2  0
  6 16  1  0
  7  8  1  0
  8  9  2  0
  8 18  1  0
  9 10  1  0
  9 15  1  0
 10 11  2  0
 10 17  1  0
 11 12  1  0
 12 13  2  0
 12 14  1  0
 14 15  1  0
 15 16  2  0
 17 18  1  0
 18 19  2  0
M  END
