
     RDKit          3D

 18 20  0  0  0  0  0  0  0  0999 V2000
    6.4150    1.3760   -0.9340 C   0  0  0  0  0  0  0  0  0  0  0  0
    5.9010    0.8340    0.3910 C   0  0  0  0  0  0  0  0  0  0  0  0
    4.6230    0.1150    0.1260 C   0  0  0  0  0  0  0  0  0  0  0  0
    4.5100   -1.2140   -0.1820 C   0  0  0  0  0  0  0  0  0  0  0  0
    3.1650   -1.4690   -0.3480 C   0  0  0  0  0  0  0  0  0  0  0  0
    2.5330   -0.2660   -0.1280 C   0  0  0  0  0  0  0  0  0  0  0  0
    1.0770   -0.0750   -0.2020 C   0  0  0  0  0  0  0  0  0  0  0  0
    0.3800    1.1070    0.0080 C   0  0  0  0  0  0  0  0  0  0  0  0
   -0.9660    0.8570   -0.1570 C   0  0  0  0  0  0  0  0  0  0  0  0
   -1.0450   -0.4840   -0.4650 C   0  0  0  0  0  0  0  0  0  0  0  0
   -2.2880   -1.2750   -0.7430 C   0  0  0  0  0  0  0  0  0  0  0  0
   -3.4550   -0.3310   -0.6250 C   0  0  1  0  0  0  0  0  0  0  0  0
   -4.7710   -0.9860   -0.8790 C   0  0  0  0  0  0  0  0  0  0  0  0
   -5.7530   -0.1730   -0.0330 C   0  0  0  0  0  0  0  0  0  0  0  0
   -4.8810    0.8930    0.5950 C   0  0  0  0  0  0  0  0  0  0  0  0
   -3.6120    0.1720    0.7280 N   0  0  0  0  0  0  0  0  0  0  0  0
    0.1820   -0.9800   -0.4780 O   0  0  0  0  0  0  0  0  0  0  0  0
    3.4200    0.6570    0.1510 O   0  0  0  0  0  0  0  0  0  0  0  0
  1  2  1  0
  2  3  1  0
  3  4  2  0
  3 18  1  0
  4  5  1  0
  5  6  2  0
  6  7  1  0
  6 18  1  0
  7  8  2  0
  7 17  1  0
  8  9  1  0
  9 10  2  0
 10 11  1  0
 10 17  1  0
 12 11  1  1
 12 13  1  0
 12 16  1  0
 13 14  1  0
 14 15  1  0
 15 16  1  0
M  END
