
     RDKit          3D

 19 21  0  0  0  0  0  0  0  0999 V2000
   -4.8030    0.5010    1.3670 C   0  0  0  0  0  0  0  0  0  0  0  0
   -4.2140    0.9720    0.0600 C   0  0  0  0  0  0  0  0  0  0  0  0
   -3.0270    0.1360   -0.2600 C   0  0  0  0  0  0  0  0  0  0  0  0
   -2.9740   -1.1270   -0.7740 C   0  0  0  0  0  0  0  0  0  0  0  0
   -4.1280   -1.9750   -1.1710 C   0  0  0  0  0  0  0  0  0  0  0  0
   -1.6910   -1.4790   -0.8740 N   0  0  0  0  0  0  0  0  0  0  0  0
   -0.9030   -0.4840   -0.4400 C   0  0  0  0  0  0  0  0  0  0  0  0
    0.4660   -0.4190   -0.3650 C   0  0  0  0  0  0  0  0  0  0  0  0
    1.0540    0.7360    0.1260 C   0  0  0  0  0  0  0  0  0  0  0  0
    2.4220    0.7860    0.1960 O   0  0  0  0  0  0  0  0  0  0  0  0
    3.2260   -0.2940   -0.2120 C   0  0  0  0  0  0  0  0  0  0  0  0
    4.6510    0.0660   -0.0110 C   0  0  0  0  0  0  0  0  0  0  0  0
    5.7310   -0.7850   -0.1980 C   0  0  0  0  0  0  0  0  0  0  0  0
    6.8650   -0.0510    0.0950 C   0  0  0  0  0  0  0  0  0  0  0  0
    6.4290    1.2000    0.4440 C   0  0  0  0  0  0  0  0  0  0  0  0
    5.1220    1.2290    0.3690 O   0  0  0  0  0  0  0  0  0  0  0  0
    0.2310    1.7680    0.5190 C   0  0  0  0  0  0  0  0  0  0  0  0
   -1.1370    1.6930    0.4400 C   0  0  0  0  0  0  0  0  0  0  0  0
   -1.7280    0.5430   -0.0490 C   0  0  0  0  0  0  0  0  0  0  0  0
  1  2  1  0
  2  3  1  0
  3  4  2  0
  3 19  1  0
  4  5  1  0
  4  6  1  0
  6  7  1  0
  7  8  2  0
  7 19  1  0
  8  9  1  0
  9 10  1  0
  9 17  2  0
 10 11  1  0
 11 12  1  0
 12 13  2  0
 12 16  1  0
 13 14  1  0
 14 15  2  0
 15 16  1  0
 17 18  1  0
 18 19  2  0
M  END
