
     RDKit          3D

  9  8  0  0  0  0  0  0  0  0999 V2000
   -3.5130   -0.9050    0.7200 O   0  0  0  0  0  0  0  0  0  0  0  0
   -2.4050   -0.3160    0.1010 C   0  0  0  0  0  0  0  0  0  0  0  0
   -1.2260   -0.6640    0.7970 O   0  0  0  0  0  0  0  0  0  0  0  0
   -0.1860   -0.0390    0.1140 C   0  0  0  0  0  0  0  0  0  0  0  0
    1.0460   -0.2990    0.6980 O   0  0  0  0  0  0  0  0  0  0  0  0
    2.0550    0.3290    0.0060 C   0  0  1  0  0  0  0  0  0  0  0  0
    2.7710    1.2160    0.8390 O   0  0  0  0  0  0  0  0  0  0  0  0
    2.9620   -0.5950   -0.5240 O   0  0  0  0  0  0  0  0  0  0  0  0
    3.0320   -0.4990   -2.2220 Cl  0  0  0  0  0  0  0  0  0  0  0  0
  1  2  1  0
  2  3  1  0
  3  4  1  0
  4  5  1  0
  5  6  1  0
  6  7  1  1
  6  8  1  0
  8  9  1  0
M  END
