
     RDKit          3D

  9  8  0  0  0  0  0  0  0  0999 V2000
    1.4250    1.3760   -0.5160 O   0  0  0  0  0  0  0  0  0  0  0  0
    2.0150    0.1680   -0.1920 C   0  0  0  0  0  0  0  0  0  0  0  0
    0.9260   -0.9010   -0.1890 C   0  0  1  0  0  0  0  0  0  0  0  0
    1.6530   -2.5010    0.0970 Cl  0  0  0  0  0  0  0  0  0  0  0  0
   -0.0620   -0.6130    0.7330 O   0  0  0  0  0  0  0  0  0  0  0  0
   -1.2730   -0.4190    0.0900 C   0  0  1  0  0  0  0  0  0  0  0  0
   -2.1470   -1.4260    0.5500 O   0  0  0  0  0  0  0  0  0  0  0  0
   -1.8200    0.7910    0.4880 O   0  0  0  0  0  0  0  0  0  0  0  0
   -2.1550    1.5570   -0.5140 O   0  0  0  0  0  0  0  0  0  0  0  0
  1  2  1  0
  2  3  1  0
  3  4  1  1
  3  5  1  0
  5  6  1  0
  6  7  1  1
  6  8  1  0
  8  9  1  0
M  END
