
     RDKit          3D

 26 27  0  0  0  0  0  0  0  0999 V2000
    5.6210    0.8660    1.5840 N   0  0  0  0  0  0  0  0  0  0  0  0
    4.9680    0.0340    0.2090 S   0  0  2  0  0  0  0  0  0  0  0  0
    5.9260   -1.0990   -0.0900 O   0  0  0  0  0  0  0  0  0  0  0  0
    4.9570    0.9490   -0.9640 O   0  0  0  0  0  0  0  0  0  0  0  0
    3.3710   -0.5900    0.6060 C   0  0  2  0  0  0  0  0  0  0  0  0
    2.8300   -1.2930   -0.4310 O   0  0  0  0  0  0  0  0  0  0  0  0
    1.5340   -1.6780   -0.3270 C   0  0  2  0  0  0  0  0  0  0  0  0
    0.9900   -1.8540   -1.7310 C   0  0  0  0  0  0  0  0  0  0  0  0
    1.7420   -2.8410   -2.4150 O   0  0  0  0  0  0  0  0  0  0  0  0
    0.6080   -0.8660    0.4620 C   0  0  2  0  0  0  0  0  0  0  0  0
    0.0460    0.1750   -0.2330 O   0  0  0  0  0  0  0  0  0  0  0  0
   -1.3110    0.2690   -0.1810 C   0  0  1  0  0  0  0  0  0  0  0  0
   -1.7670    1.4130    0.4730 O   0  0  0  0  0  0  0  0  0  0  0  0
   -3.1080    1.3790    0.7330 C   0  0  2  0  0  0  0  0  0  0  0  0
   -3.4660    0.5420    1.9390 C   0  0  0  0  0  0  0  0  0  0  0  0
   -2.8570    1.0200    3.1010 O   0  0  0  0  0  0  0  0  0  0  0  0
   -3.9620    0.9480   -0.4290 C   0  0  2  0  0  0  0  0  0  0  0  0
   -4.4960   -0.3330   -0.2030 O   0  0  0  0  0  0  0  0  0  0  0  0
   -3.1810    0.9240   -1.7100 C   0  0  2  0  0  0  0  0  0  0  0  0
   -3.9230    0.3040   -2.7130 O   0  0  0  0  0  0  0  0  0  0  0  0
   -1.8940    0.1230   -1.5510 C   0  0  1  0  0  0  0  0  0  0  0  0
   -1.0440    0.5950   -2.5640 O   0  0  0  0  0  0  0  0  0  0  0  0
    1.2750   -0.1940    1.6810 C   0  0  2  0  0  0  0  0  0  0  0  0
    0.3960    0.7050    2.2530 O   0  0  0  0  0  0  0  0  0  0  0  0
    2.4800    0.5150    1.0660 C   0  0  1  0  0  0  0  0  0  0  0  0
    3.0730    1.3910    1.9410 O   0  0  0  0  0  0  0  0  0  0  0  0
  2  1  1  1
  2  3  2  0
  2  4  2  0
  2  5  1  0
  5  6  1  6
  5 25  1  0
  6  7  1  0
  7  8  1  6
  7 10  1  0
  8  9  1  0
 10 11  1  6
 10 23  1  0
 12 11  1  6
 12 13  1  0
 12 21  1  0
 13 14  1  0
 14 15  1  1
 14 17  1  0
 15 16  1  0
 17 18  1  1
 17 19  1  0
 19 20  1  6
 19 21  1  0
 21 22  1  6
 23 24  1  6
 23 25  1  0
 25 26  1  1
M  END
