
     RDKit          3D

  9  8  0  0  0  0  0  0  0  0999 V2000
   -1.6140   -0.5320   -1.4110 O   0  0  0  0  0  0  0  0  0  0  0  0
   -1.3460   -0.3960   -0.0400 C   0  0  1  0  0  0  0  0  0  0  0  0
   -1.7190    0.9080    0.3080 O   0  0  0  0  0  0  0  0  0  0  0  0
   -2.0950   -1.2940    0.6960 O   0  0  0  0  0  0  0  0  0  0  0  0
    0.0330   -0.5310    0.1840 O   0  0  0  0  0  0  0  0  0  0  0  0
    0.6130    0.5170   -0.5150 C   0  0  0  0  0  0  0  0  0  0  0  0
    2.0840    0.6680   -0.2700 C   0  0  0  0  0  0  0  0  0  0  0  0
    2.8200   -0.4560   -0.6160 O   0  0  0  0  0  0  0  0  0  0  0  0
    3.0700   -1.5190    0.6760 Cl  0  0  0  0  0  0  0  0  0  0  0  0
  2  1  1  6
  2  3  1  0
  2  4  1  0
  2  5  1  0
  5  6  1  0
  6  7  1  0
  7  8  1  0
  8  9  1  0
M  END
