
     RDKit          3D

  9  8  0  0  0  0  0  0  0  0999 V2000
    2.2060    0.5660    0.5460 O   0  0  0  0  0  0  0  0  0  0  0  0
    1.6080   -0.3690   -0.3230 C   0  0  0  0  0  0  0  0  0  0  0  0
    0.4620   -1.0090    0.3850 C   0  0  0  0  0  0  0  0  0  0  0  0
   -0.5340   -0.1820    0.8080 O   0  0  0  0  0  0  0  0  0  0  0  0
   -1.1980    0.5480   -0.1310 C   0  0  2  0  0  0  0  0  0  0  0  0
   -0.3450    1.3990   -0.8250 O   0  0  0  0  0  0  0  0  0  0  0  0
   -2.2050    1.2960    0.5160 O   0  0  0  0  0  0  0  0  0  0  0  0
   -1.8530   -0.2260   -1.0860 O   0  0  0  0  0  0  0  0  0  0  0  0
   -2.9990   -1.2280   -0.3430 Cl  0  0  0  0  0  0  0  0  0  0  0  0
  1  2  1  0
  2  3  1  0
  3  4  1  0
  4  5  1  0
  5  6  1  6
  5  7  1  0
  5  8  1  0
  8  9  1  0
M  END
