
     RDKit          3D

 12 12  0  0  0  0  0  0  0  0999 V2000
    0.4940    2.9210    0.1970 C   0  0  0  0  0  0  0  0  0  0  0  0
    0.4360    1.7240    0.8370 O   0  0  0  0  0  0  0  0  0  0  0  0
    0.7090    0.5990    0.1100 C   0  0  1  0  0  0  0  0  0  0  0  0
    1.9790   -0.0300    0.6370 C   0  0  0  0  0  0  0  0  0  0  0  0
    2.2830   -1.2040   -0.2630 C   0  0  0  0  0  0  0  0  0  0  0  0
    1.1920   -2.2330   -0.2450 C   0  0  0  0  0  0  0  0  0  0  0  0
   -0.0900   -1.7780    0.3490 C   0  0  0  0  0  0  0  0  0  0  0  0
   -0.4470   -0.3320    0.1320 C   0  0  2  0  0  0  0  0  0  0  0  0
   -1.2950   -0.2870   -1.1010 C   0  0  0  0  0  0  0  0  0  0  0  0
   -1.9110    0.9190   -1.4620 N   0  0  0  0  0  0  0  0  0  0  0  0
   -1.3320    0.0920    1.2920 C   0  0  0  0  0  0  0  0  0  0  0  0
   -2.4220   -0.7990    1.2920 O   0  0  0  0  0  0  0  0  0  0  0  0
  1  2  1  0
  3  2  1  1
  3  4  1  0
  3  8  1  0
  4  5  1  0
  5  6  1  0
  6  7  1  0
  7  8  1  0
  8  9  1  6
  8 11  1  0
  9 10  1  0
 11 12  1  0
M  CHG  1  10   1
M  END
