
     RDKit          3D

 19 20  0  0  0  0  0  0  0  0999 V2000
   -2.1410    1.9770    1.1090 C   0  0  0  0  0  0  0  0  0  0  0  0
   -2.9290    0.8880    0.5250 C   0  0  0  0  0  0  0  0  0  0  0  0
   -2.3720   -0.1530   -0.0590 C   0  0  0  0  0  0  0  0  0  0  0  0
   -0.9340   -0.2800   -0.1530 C   0  0  0  0  0  0  0  0  0  0  0  0
   -0.1170   -0.0140    0.9230 C   0  0  0  0  0  0  0  0  0  0  0  0
    1.2520   -0.1460    0.7340 C   0  0  0  0  0  0  0  0  0  0  0  0
    1.8070   -0.5250   -0.4600 C   0  0  0  0  0  0  0  0  0  0  0  0
    3.2760   -0.6630   -0.6490 C   0  0  0  0  0  0  0  0  0  0  0  0
    3.8980   -0.3350    0.5930 O   0  0  0  0  0  0  0  0  0  0  0  0
    5.2850   -0.3890    0.6740 C   0  0  0  0  0  0  0  0  0  0  0  0
    6.0030   -0.0830    1.8620 N   0  0  0  0  0  0  0  0  0  0  0  0
    5.9170   -0.7280   -0.3660 O   0  0  0  0  0  0  0  0  0  0  0  0
    0.9890   -0.7940   -1.5430 C   0  0  0  0  0  0  0  0  0  0  0  0
    1.5530   -1.1720   -2.7300 O   0  0  0  0  0  0  0  0  0  0  0  0
   -0.3810   -0.6620   -1.3580 C   0  0  0  0  0  0  0  0  0  0  0  0
   -3.2500   -1.1180   -0.5760 O   0  0  0  0  0  0  0  0  0  0  0  0
   -4.4580   -0.6920   -1.1230 C   0  0  0  0  0  0  0  0  0  0  0  0
   -4.9850    0.4570   -0.6170 O   0  0  0  0  0  0  0  0  0  0  0  0
   -4.4340    0.8810    0.5610 C   0  0  0  0  0  0  0  0  0  0  0  0
  1  2  1  0
  2  3  2  0
  2 19  1  0
  3  4  1  0
  3 16  1  0
  4  5  2  0
  4 15  1  0
  5  6  1  0
  6  7  2  0
  7  8  1  0
  7 13  1  0
  8  9  1  0
  9 10  1  0
 10 11  1  0
 10 12  2  0
 13 14  1  0
 13 15  2  0
 16 17  1  0
 17 18  1  0
 18 19  1  0
M  END
