
     RDKit          3D

 12 12  0  0  0  0  0  0  0  0999 V2000
    4.0640    0.8240    0.7320 C   0  0  0  0  0  0  0  0  0  0  0  0
    2.7200    1.0000    0.1180 C   0  0  0  0  0  0  0  0  0  0  0  0
    1.9830   -0.0480   -0.1360 C   0  0  0  0  0  0  0  0  0  0  0  0
    2.4050   -1.3850    0.1500 N   0  0  0  0  0  0  0  0  0  0  0  0
    0.6400    0.1360   -0.7500 C   0  0  0  0  0  0  0  0  0  0  0  0
   -0.4570   -0.4200    0.1540 C   0  0  0  0  0  0  0  0  0  0  0  0
   -1.7800   -0.1960   -0.5370 C   0  0  1  0  0  0  0  0  0  0  0  0
   -2.8900   -0.7420    0.3460 C   0  0  0  0  0  0  0  0  0  0  0  0
   -4.0460    0.1470   -0.0340 C   0  0  0  0  0  0  0  0  0  0  0  0
   -3.3570    1.4570   -0.2430 C   0  0  0  0  0  0  0  0  0  0  0  0
   -3.8480    2.6080   -0.1350 O   0  0  0  0  0  0  0  0  0  0  0  0
   -2.0390    1.1840   -0.5890 O   0  0  0  0  0  0  0  0  0  0  0  0
  1  2  1  0
  2  3  2  3
  3  4  1  0
  3  5  1  0
  5  6  1  0
  7  6  1  1
  7  8  1  0
  7 12  1  0
  8  9  1  0
  9 10  1  0
 10 11  2  0
 10 12  1  0
M  CHG  1   4   1
M  END
