
     RDKit          3D

 19 20  0  0  0  0  0  0  0  0999 V2000
    6.0170    0.7650   -0.1110 C   0  0  0  0  0  0  0  0  0  0  0  0
    4.7120    0.2470   -0.2710 O   0  0  0  0  0  0  0  0  0  0  0  0
    3.5700    0.9080    0.1450 C   0  0  0  0  0  0  0  0  0  0  0  0
    3.7520    2.0360    0.6920 O   0  0  0  0  0  0  0  0  0  0  0  0
    2.2330    0.3500   -0.0320 C   0  0  0  0  0  0  0  0  0  0  0  0
    1.1130    1.0290    0.3890 C   0  0  0  0  0  0  0  0  0  0  0  0
   -0.1650    0.4910    0.2180 C   0  0  0  0  0  0  0  0  0  0  0  0
   -0.2870   -0.7370   -0.3840 C   0  0  0  0  0  0  0  0  0  0  0  0
   -1.5850   -1.3090   -0.5710 N   0  0  0  0  0  0  0  0  0  0  0  0
   -2.7420   -0.5980   -0.1300 C   0  0  0  0  0  0  0  0  0  0  0  0
   -3.1770   -0.7150    1.0990 C   0  0  0  0  0  0  0  0  0  0  0  0
   -4.3460   -0.0280    1.6320 C   0  0  0  0  0  0  0  0  0  0  0  0
   -4.9640    0.7750    0.6930 O   0  0  0  0  0  0  0  0  0  0  0  0
   -4.5410    0.9220   -0.5970 C   0  0  0  0  0  0  0  0  0  0  0  0
   -3.4840    0.2810   -1.0230 C   0  0  0  0  0  0  0  0  0  0  0  0
   -3.0880    0.4550   -2.3290 O   0  0  0  0  0  0  0  0  0  0  0  0
    0.8130   -1.4460   -0.8190 C   0  0  0  0  0  0  0  0  0  0  0  0
    2.0590   -0.8770   -0.6300 C   0  0  0  0  0  0  0  0  0  0  0  0
    3.1820   -1.5750   -1.0620 O   0  0  0  0  0  0  0  0  0  0  0  0
  1  2  1  0
  2  3  1  0
  3  4  2  0
  3  5  1  0
  5  6  2  0
  5 18  1  0
  6  7  1  0
  7  8  2  0
  8  9  1  0
  8 17  1  0
  9 10  1  0
 10 11  2  0
 10 15  1  0
 11 12  1  0
 12 13  1  0
 13 14  1  0
 14 15  2  0
 15 16  1  0
 17 18  2  0
 18 19  1  0
M  END
