
     RDKit          3D

 12 12  0  0  0  0  0  0  0  0999 V2000
   -2.9230   -1.1090    0.6110 C   0  0  0  0  0  0  0  0  0  0  0  0
   -1.5840   -0.9460   -0.0240 C   0  0  0  0  0  0  0  0  0  0  0  0
   -1.0310    0.4680    0.1090 C   0  0  2  0  0  0  0  0  0  0  0  0
   -0.8730    0.8660    1.4680 N   0  0  0  0  0  0  0  0  0  0  0  0
   -2.0680    1.3860   -0.5260 C   0  0  0  0  0  0  0  0  0  0  0  0
   -3.2900    1.3250    0.0940 O   0  0  0  0  0  0  0  0  0  0  0  0
    0.2030    0.5920   -0.7270 C   0  0  0  0  0  0  0  0  0  0  0  0
    1.3140   -0.3320   -0.3740 C   0  0  1  0  0  0  0  0  0  0  0  0
    2.4600   -0.0490   -1.3300 C   0  0  0  0  0  0  0  0  0  0  0  0
    3.6730   -0.5340   -0.5770 C   0  0  0  0  0  0  0  0  0  0  0  0
    3.0420   -0.9450    0.7580 C   0  0  0  0  0  0  0  0  0  0  0  0
    1.8880   -0.1310    0.8470 O   0  0  0  0  0  0  0  0  0  0  0  0
  1  2  1  0
  2  3  1  0
  3  4  1  1
  3  5  1  0
  3  7  1  0
  5  6  1  0
  8  7  1  6
  8  9  1  0
  8 12  1  0
  9 10  1  0
 10 11  1  0
 11 12  1  0
M  CHG  1   4   1
M  END
