
     RDKit          3D

 12 12  0  0  0  0  0  0  0  0999 V2000
    3.7770    0.3250    0.2060 N   0  0  0  0  0  0  0  0  0  0  0  0
    2.5510   -0.4450    0.3040 C   0  0  0  0  0  0  0  0  0  0  0  0
    1.3660    0.4400    0.0150 C   0  0  0  0  0  0  0  0  0  0  0  0
    0.0600   -0.2700    0.0940 C   0  0  2  0  0  0  0  0  0  0  0  0
   -0.0840   -0.7790    1.3920 O   0  0  0  0  0  0  0  0  0  0  0  0
   -0.0330   -1.4540   -0.8360 C   0  0  0  0  0  0  0  0  0  0  0  0
   -1.4710   -1.8370   -1.0370 C   0  0  0  0  0  0  0  0  0  0  0  0
   -2.3620   -1.4060    0.1130 C   0  0  0  0  0  0  0  0  0  0  0  0
   -2.4040    0.1030    0.2460 C   0  0  0  0  0  0  0  0  0  0  0  0
   -1.0810    0.6720   -0.2080 C   0  0  1  0  0  0  0  0  0  0  0  0
   -0.9050    2.0180    0.4510 C   0  0  0  0  0  0  0  0  0  0  0  0
   -1.9750    2.8620    0.1530 O   0  0  0  0  0  0  0  0  0  0  0  0
  1  2  1  0
  2  3  1  0
  3  4  1  0
  4  5  1  1
  4  6  1  0
  4 10  1  0
  6  7  1  0
  7  8  1  0
  8  9  1  0
  9 10  1  0
 10 11  1  1
 11 12  1  0
M  CHG  1   1   1
M  END
