
     RDKit          3D

 40 43  0  0  0  0  0  0  0  0999 V2000
    4.4420    1.7270   -1.7650 C   0  0  0  0  0  0  0  0  0  0  0  0
    5.1760    0.9310   -0.7190 C   0  0  0  0  0  0  0  0  0  0  0  0
    4.5620    0.9930    0.6500 C   0  0  1  0  0  0  0  0  0  0  0  0
    4.5800    2.4840    1.0450 C   0  0  0  0  0  0  0  0  0  0  0  0
    3.0780    0.6290    0.6530 C   0  0  0  0  0  0  0  0  0  0  0  0
    2.8670   -0.8510    0.6470 C   0  0  2  0  0  0  0  0  0  0  0  0
    3.4470   -1.3160   -0.5410 O   0  0  0  0  0  0  0  0  0  0  0  0
    1.5540   -1.3800    0.9830 C   0  0  0  0  0  0  0  0  0  0  0  0
    0.3220   -1.0610    0.2090 C   0  0  1  0  0  0  0  0  0  0  0  0
   -0.7000   -1.7950    0.8700 O   0  0  0  0  0  0  0  0  0  0  0  0
   -0.1420    0.3600    0.2670 C   0  0  0  0  0  0  0  0  0  0  0  0
   -1.4310    0.6310    0.9670 C   0  0  0  0  0  0  0  0  0  0  0  0
   -1.9380   -0.2840    1.6670 O   0  0  0  0  0  0  0  0  0  0  0  0
   -2.0510    1.8090    0.8760 O   0  0  0  0  0  0  0  0  0  0  0  0
   -2.5920    2.6890    0.0020 C   0  0  0  0  0  0  0  0  0  0  0  0
   -1.8090    3.7480   -0.4970 C   0  0  0  0  0  0  0  0  0  0  0  0
   -2.2960    4.6670   -1.3790 C   0  0  0  0  0  0  0  0  0  0  0  0
   -3.5940    4.5650   -1.7990 C   0  0  0  0  0  0  0  0  0  0  0  0
   -4.3830    3.5480   -1.3310 C   0  0  0  0  0  0  0  0  0  0  0  0
   -3.9420    2.5880   -0.4370 C   0  0  0  0  0  0  0  0  0  0  0  0
   -4.6790    1.6030    0.0350 O   0  0  0  0  0  0  0  0  0  0  0  0
   -5.1420    0.3210   -0.0590 C   0  0  0  0  0  0  0  0  0  0  0  0
   -6.4520    0.0920    0.0470 O   0  0  0  0  0  0  0  0  0  0  0  0
   -4.3510   -0.9440   -0.2730 C   0  0  0  0  0  0  0  0  0  0  0  0
   -3.2630   -1.2280   -1.0680 C   0  0  0  0  0  0  0  0  0  0  0  0
   -2.8070   -0.3710   -2.1990 N   0  0  0  0  0  0  0  0  0  0  0  0
   -2.6750   -2.4810   -0.8590 C   0  0  0  0  0  0  0  0  0  0  0  0
   -3.2020   -3.3730    0.0910 C   0  0  0  0  0  0  0  0  0  0  0  0
   -4.2890   -3.1270    0.8900 C   0  0  0  0  0  0  0  0  0  0  0  0
   -4.7670   -4.0960    1.8350 C   0  0  0  0  0  0  0  0  0  0  0  0
   -5.7310   -3.9400    2.5740 O   0  0  0  0  0  0  0  0  0  0  0  0
   -4.8390   -1.8950    0.6790 C   0  0  0  0  0  0  0  0  0  0  0  0
   -5.9600   -1.5560    1.4570 O   0  0  0  0  0  0  0  0  0  0  0  0
   -1.5540   -3.1090   -1.4290 O   0  0  0  0  0  0  0  0  0  0  0  0
   -0.2150   -2.8440   -1.5430 C   0  0  0  0  0  0  0  0  0  0  0  0
    0.5990   -3.7220   -1.9520 O   0  0  0  0  0  0  0  0  0  0  0  0
    0.3540   -1.5460   -1.2070 C   0  0  0  0  0  0  0  0  0  0  0  0
    3.8300   -1.4560    1.7270 C   0  0  0  0  0  0  0  0  0  0  0  0
    5.2390   -1.0190    1.4030 C   0  0  0  0  0  0  0  0  0  0  0  0
    5.3030    0.3490    1.5940 O   0  0  0  0  0  0  0  0  0  0  0  0
  1  2  1  0
  2  3  1  0
  3  4  1  1
  3  5  1  0
  3 40  1  0
  5  6  1  0
  6  7  1  6
  6  8  1  0
  6 38  1  0
  8  9  1  0
  9 10  1  1
  9 11  1  0
  9 37  1  0
 11 12  1  0
 12 13  2  0
 12 14  1  0
 14 15  1  0
 15 16  2  0
 15 20  1  0
 16 17  1  0
 17 18  2  0
 18 19  1  0
 19 20  2  0
 20 21  1  0
 21 22  1  0
 22 23  2  0
 22 24  1  0
 24 25  2  0
 24 32  1  0
 25 26  1  0
 25 27  1  0
 27 28  2  0
 27 34  1  0
 28 29  1  0
 29 30  1  0
 29 32  2  0
 30 31  2  0
 32 33  1  0
 34 35  1  0
 35 36  2  0
 35 37  1  0
 38 39  1  0
 39 40  1  0
M  END
