
     RDKit          3D

 41 44  0  0  0  0  0  0  0  0999 V2000
    5.9130   -1.5700    1.9270 C   0  0  0  0  0  0  0  0  0  0  0  0
    6.0380   -0.7620    0.9050 C   0  0  0  0  0  0  0  0  0  0  0  0
    7.3180   -0.3540    0.5700 O   0  0  0  0  0  0  0  0  0  0  0  0
    4.8610   -0.3060    0.1410 C   0  0  0  0  0  0  0  0  0  0  0  0
    4.9560    0.5180   -0.8930 C   0  0  0  0  0  0  0  0  0  0  0  0
    4.3450    1.8160   -1.1080 C   0  0  0  0  0  0  0  0  0  0  0  0
    4.9730    2.5840   -2.1720 O   0  0  0  0  0  0  0  0  0  0  0  0
    3.3500    2.4050   -0.5210 C   0  0  0  0  0  0  0  0  0  0  0  0
    1.8850    2.2140   -0.6210 C   0  0  0  0  0  0  0  0  0  0  0  0
    1.1970    3.4890   -1.1340 C   0  0  1  0  0  0  0  0  0  0  0  0
   -0.0260    3.1500   -1.9410 C   0  0  0  0  0  0  0  0  0  0  0  0
    1.0100    4.5170   -0.1150 C   0  0  0  0  0  0  0  0  0  0  0  0
    1.7830    5.5490   -0.1590 O   0  0  0  0  0  0  0  0  0  0  0  0
    0.0280    4.4840    0.9480 N   0  0  0  0  0  0  0  0  0  0  0  0
   -1.1840    3.6450    0.8110 C   0  0  0  0  0  0  0  0  0  0  0  0
   -2.3420    4.1160    0.2200 C   0  0  0  0  0  0  0  0  0  0  0  0
   -3.4950    3.3020    0.1080 C   0  0  0  0  0  0  0  0  0  0  0  0
   -3.5280    2.0220    0.5680 C   0  0  0  0  0  0  0  0  0  0  0  0
   -2.3910    1.5380    1.1560 C   0  0  0  0  0  0  0  0  0  0  0  0
   -2.1950    0.2250    1.7180 O   0  0  0  0  0  0  0  0  0  0  0  0
   -1.2310    2.3420    1.2740 C   0  0  0  0  0  0  0  0  0  0  0  0
   -4.6790    1.2500    0.4410 O   0  0  0  0  0  0  0  0  0  0  0  0
   -5.1820    0.5320   -0.6320 C   0  0  0  0  0  0  0  0  0  0  0  0
   -4.7060   -0.8890   -0.7440 C   0  0  0  0  0  0  0  0  0  0  0  0
   -5.4880   -1.7630    0.0200 O   0  0  0  0  0  0  0  0  0  0  0  0
   -5.5140   -3.1350   -0.0270 C   0  0  0  0  0  0  0  0  0  0  0  0
   -6.5690   -3.8030    0.0060 O   0  0  0  0  0  0  0  0  0  0  0  0
   -4.2450   -3.9490   -0.1240 C   0  0  2  0  0  0  0  0  0  0  0  0
   -3.5360   -3.9150    1.2410 C   0  0  0  0  0  0  0  0  0  0  0  0
   -2.6840   -2.7540    1.2270 O   0  0  0  0  0  0  0  0  0  0  0  0
   -1.5890   -2.8780    0.3280 C   0  0  0  0  0  0  0  0  0  0  0  0
   -0.2490   -2.6590    0.6880 C   0  0  0  0  0  0  0  0  0  0  0  0
    0.6930   -2.8210   -0.3070 C   0  0  0  0  0  0  0  0  0  0  0  0
    0.2850   -3.1840   -1.5810 C   0  0  0  0  0  0  0  0  0  0  0  0
   -1.0800   -3.3970   -1.9110 C   0  0  0  0  0  0  0  0  0  0  0  0
   -2.0170   -3.2390   -0.9400 C   0  0  0  0  0  0  0  0  0  0  0  0
   -3.3900   -3.4010   -1.0850 O   0  0  0  0  0  0  0  0  0  0  0  0
    2.1410   -2.5550   -0.0530 C   0  0  2  0  0  0  0  0  0  0  0  0
    2.6670   -3.0360    1.1640 O   0  0  0  0  0  0  0  0  0  0  0  0
    2.4950   -1.0820   -0.1030 C   0  0  0  0  0  0  0  0  0  0  0  0
    3.6360   -0.8300    0.6100 O   0  0  0  0  0  0  0  0  0  0  0  0
  1  2  2  0
  2  3  1  0
  2  4  1  0
  4  5  2  0
  4 41  1  0
  5  6  1  0
  6  7  1  0
  6  8  2  0
  8  9  1  0
  9 10  1  0
 10 11  1  1
 10 12  1  0
 12 13  2  0
 12 14  1  0
 14 15  1  0
 15 16  2  0
 15 21  1  0
 16 17  1  0
 17 18  2  0
 18 19  1  0
 18 22  1  0
 19 20  1  0
 19 21  2  0
 22 23  1  0
 23 24  1  0
 24 25  1  0
 25 26  1  0
 26 27  2  0
 26 28  1  0
 28 29  1  0
 28 37  1  6
 29 30  1  0
 30 31  1  0
 31 32  1  0
 31 36  2  0
 32 33  2  0
 33 34  1  0
 33 38  1  0
 34 35  2  0
 35 36  1  0
 36 37  1  0
 38 39  1  1
 38 40  1  0
 40 41  1  0
M  END
