
     RDKit          3D

 40 43  0  0  0  0  0  0  0  0999 V2000
   -7.9990   -1.5710    1.0940 C   0  0  0  0  0  0  0  0  0  0  0  0
   -7.1580   -2.0680   -0.0380 C   0  0  2  0  0  0  0  0  0  0  0  0
   -7.2940   -3.4340   -0.2750 O   0  0  0  0  0  0  0  0  0  0  0  0
   -5.7310   -1.7010    0.1620 C   0  0  0  0  0  0  0  0  0  0  0  0
   -4.8700   -2.4200    0.9490 C   0  0  0  0  0  0  0  0  0  0  0  0
   -3.5560   -2.0090    1.0820 C   0  0  0  0  0  0  0  0  0  0  0  0
   -3.0380   -0.8780    0.4480 C   0  0  0  0  0  0  0  0  0  0  0  0
   -3.9030   -0.1490   -0.3440 C   0  0  0  0  0  0  0  0  0  0  0  0
   -5.2120   -0.5830   -0.4600 C   0  0  0  0  0  0  0  0  0  0  0  0
   -3.5140    1.0890   -1.0540 C   0  0  0  0  0  0  0  0  0  0  0  0
   -3.9100    1.1920   -2.2510 O   0  0  0  0  0  0  0  0  0  0  0  0
   -2.7780    2.0940   -0.5120 O   0  0  0  0  0  0  0  0  0  0  0  0
   -2.8380    2.6170    0.7860 C   0  0  0  0  0  0  0  0  0  0  0  0
   -2.2120    3.9680    0.9150 C   0  0  0  0  0  0  0  0  0  0  0  0
   -0.9390    3.8750    1.4520 O   0  0  0  0  0  0  0  0  0  0  0  0
   -0.1190    4.7320    0.7180 C   0  0  0  0  0  0  0  0  0  0  0  0
    0.8440    3.8530   -0.0510 C   0  0  2  0  0  0  0  0  0  0  0  0
    2.0860    4.6260   -0.4110 C   0  0  0  0  0  0  0  0  0  0  0  0
    0.2890    3.3690   -1.2290 O   0  0  0  0  0  0  0  0  0  0  0  0
    1.2470    2.6330    0.7810 C   0  0  0  0  0  0  0  0  0  0  0  0
    2.2900    1.9040   -0.0000 C   0  0  0  0  0  0  0  0  0  0  0  0
    3.0240    0.9830    0.8140 O   0  0  0  0  0  0  0  0  0  0  0  0
    3.6790   -0.1540    0.2780 C   0  0  0  0  0  0  0  0  0  0  0  0
    4.9750   -0.3270    0.4450 C   0  0  0  0  0  0  0  0  0  0  0  0
    5.7380   -1.4840   -0.0800 C   0  0  0  0  0  0  0  0  0  0  0  0
    7.0210   -1.5760    0.1630 C   0  0  0  0  0  0  0  0  0  0  0  0
    7.8340   -2.6630   -0.3060 C   0  0  0  0  0  0  0  0  0  0  0  0
    9.2490   -2.7360   -0.0260 N   0  0  0  0  0  0  0  0  0  0  0  0
    7.3940   -3.6180   -0.9810 O   0  0  0  0  0  0  0  0  0  0  0  0
    5.0200   -2.4800   -0.8490 C   0  0  2  0  0  0  0  0  0  0  0  0
    5.4680   -2.4840   -2.1960 O   0  0  0  0  0  0  0  0  0  0  0  0
    3.5570   -2.1910   -0.9690 C   0  0  0  0  0  0  0  0  0  0  0  0
    2.9300   -1.1520   -0.4720 C   0  0  0  0  0  0  0  0  0  0  0  0
    1.5650   -0.9760   -0.6390 O   0  0  0  0  0  0  0  0  0  0  0  0
    0.6020   -0.8540    0.3950 C   0  0  2  0  0  0  0  0  0  0  0  0
    0.0990   -2.2540    0.6890 C   0  0  0  0  0  0  0  0  0  0  0  0
   -0.4980   -2.6410   -0.6480 C   0  0  0  0  0  0  0  0  0  0  0  0
   -0.6720   -1.3570   -1.4310 C   0  0  0  0  0  0  0  0  0  0  0  0
   -0.6840   -0.3330   -0.2830 C   0  0  1  0  0  0  0  0  0  0  0  0
   -1.7110   -0.5400    0.6300 O   0  0  0  0  0  0  0  0  0  0  0  0
  2  1  1  1
  2  3  1  0
  2  4  1  0
  4  5  2  0
  4  9  1  0
  5  6  1  0
  6  7  2  0
  7  8  1  0
  7 40  1  0
  8  9  2  0
  8 10  1  0
 10 11  2  0
 10 12  1  0
 12 13  1  0
 13 14  1  0
 14 15  1  0
 15 16  1  0
 16 17  1  0
 17 18  1  6
 17 19  1  0
 17 20  1  0
 20 21  1  0
 21 22  1  0
 22 23  1  0
 23 24  2  0
 23 33  1  0
 24 25  1  0
 25 26  2  3
 25 30  1  0
 26 27  1  0
 27 28  1  0
 27 29  2  0
 30 31  1  6
 30 32  1  0
 32 33  2  0
 33 34  1  0
 34 35  1  0
 35 36  1  6
 35 39  1  0
 36 37  1  0
 37 38  1  0
 39 38  1  6
 39 40  1  0
M  END
