
     RDKit          3D

 41 43  0  0  0  0  0  0  0  0999 V2000
   -0.3060   -3.7060   -1.1330 C   0  0  0  0  0  0  0  0  0  0  0  0
   -1.7250   -3.3930   -1.3650 C   0  0  2  0  0  0  0  0  0  0  0  0
   -1.9050   -3.5290   -2.8840 C   0  0  0  0  0  0  0  0  0  0  0  0
   -2.2070   -2.0170   -0.8690 C   0  0  0  0  0  0  0  0  0  0  0  0
   -2.6150   -1.1350   -1.8000 C   0  0  0  0  0  0  0  0  0  0  0  0
   -3.1350    0.1730   -1.9540 C   0  0  0  0  0  0  0  0  0  0  0  0
   -2.7960    1.4240   -1.8260 C   0  0  0  0  0  0  0  0  0  0  0  0
   -3.8740    2.4430   -2.1750 C   0  0  2  0  0  0  0  0  0  0  0  0
   -3.2120    3.3020   -3.0970 O   0  0  0  0  0  0  0  0  0  0  0  0
   -4.3410    3.2930   -1.0680 C   0  0  0  0  0  0  0  0  0  0  0  0
   -5.0140    2.5670   -0.0900 O   0  0  0  0  0  0  0  0  0  0  0  0
   -1.5230    2.0300   -1.4140 C   0  0  0  0  0  0  0  0  0  0  0  0
   -0.9370    1.9220   -0.2380 C   0  0  0  0  0  0  0  0  0  0  0  0
   -1.4740    1.1940    0.8060 O   0  0  0  0  0  0  0  0  0  0  0  0
   -1.5120    1.5400    2.1560 C   0  0  0  0  0  0  0  0  0  0  0  0
   -0.5210    0.7310    2.9360 C   0  0  0  0  0  0  0  0  0  0  0  0
   -0.4670    0.9680    4.1630 O   0  0  0  0  0  0  0  0  0  0  0  0
    0.2790   -0.2000    2.3840 O   0  0  0  0  0  0  0  0  0  0  0  0
   -0.0090   -1.3930    1.7100 C   0  0  2  0  0  0  0  0  0  0  0  0
   -1.4870   -1.6130    1.5870 C   0  0  0  0  0  0  0  0  0  0  0  0
   -2.2380   -1.8470    0.5710 C   0  0  0  0  0  0  0  0  0  0  0  0
    0.4590   -2.4850    2.6670 C   0  0  0  0  0  0  0  0  0  0  0  0
    1.6650   -3.2230    2.3370 C   0  0  0  0  0  0  0  0  0  0  0  0
    1.4040   -4.4910    2.0730 O   0  0  0  0  0  0  0  0  0  0  0  0
    3.0690   -2.9230    2.2340 C   0  0  0  0  0  0  0  0  0  0  0  0
    3.7780   -2.3300    1.2840 C   0  0  0  0  0  0  0  0  0  0  0  0
    5.1940   -2.2420    1.6040 O   0  0  0  0  0  0  0  0  0  0  0  0
    3.4200   -1.7720    0.0210 C   0  0  0  0  0  0  0  0  0  0  0  0
    2.9150   -0.6100   -0.3680 C   0  0  0  0  0  0  0  0  0  0  0  0
    2.6400   -0.3290   -1.8150 C   0  0  0  0  0  0  0  0  0  0  0  0
    2.1050    0.8910   -2.2250 N   0  0  0  0  0  0  0  0  0  0  0  0
    2.9160   -1.2520   -2.6370 O   0  0  0  0  0  0  0  0  0  0  0  0
    2.6130    0.4250    0.5480 O   0  0  0  0  0  0  0  0  0  0  0  0
    3.4230    0.8660    1.6130 C   0  0  0  0  0  0  0  0  0  0  0  0
    3.4440    2.3960    1.6640 C   0  0  1  0  0  0  0  0  0  0  0  0
    4.6040    2.9010    1.0940 O   0  0  0  0  0  0  0  0  0  0  0  0
    2.3130    2.8840    0.7780 C   0  0  0  0  0  0  0  0  0  0  0  0
    2.1070    3.9650   -0.0290 C   0  0  0  0  0  0  0  0  0  0  0  0
    0.8480    3.8000   -0.5570 C   0  0  0  0  0  0  0  0  0  0  0  0
    0.3650    2.6230   -0.0350 C   0  0  0  0  0  0  0  0  0  0  0  0
    1.2700    2.1400    0.7360 O   0  0  0  0  0  0  0  0  0  0  0  0
  2  1  1  6
  2  3  1  0
  2  4  1  0
  4  5  2  0
  4 21  1  0
  5  6  1  0
  6  7  2  0
  7  8  1  0
  7 12  1  0
  8  9  1  6
  8 10  1  0
 10 11  1  0
 12 13  2  0
 13 14  1  0
 13 40  1  0
 14 15  1  0
 15 16  1  0
 16 17  2  0
 16 18  1  0
 18 19  1  0
 19 20  1  0
 19 22  1  1
 20 21  2  0
 22 23  1  0
 23 24  2  0
 23 25  1  0
 25 26  2  0
 26 27  1  0
 26 28  1  0
 28 29  2  0
 29 30  1  0
 29 33  1  0
 30 31  1  0
 30 32  2  0
 33 34  1  0
 34 35  1  0
 35 36  1  6
 35 37  1  0
 37 38  2  0
 37 41  1  0
 38 39  1  0
 39 40  2  0
 40 41  1  0
M  END
