
     RDKit          3D

 41 45  0  0  0  0  0  0  0  0999 V2000
   -0.4800   -2.4360    0.8630 C   0  0  0  0  0  0  0  0  0  0  0  0
   -0.3950   -1.1370    0.1010 C   0  0  1  0  0  0  0  0  0  0  0  0
   -1.7470   -0.6260   -0.1750 C   0  0  0  0  0  0  0  0  0  0  0  0
   -2.0930   -0.5290   -1.3820 O   0  0  0  0  0  0  0  0  0  0  0  0
   -2.6720   -0.2430    0.7520 O   0  0  0  0  0  0  0  0  0  0  0  0
   -3.9340    0.2330    0.4670 C   0  0  0  0  0  0  0  0  0  0  0  0
   -4.0730    1.6050    0.2670 C   0  0  0  0  0  0  0  0  0  0  0  0
   -2.9240    2.4420    0.3690 N   0  0  0  0  0  0  0  0  0  0  0  0
   -5.2710    2.1730   -0.0220 C   0  0  0  0  0  0  0  0  0  0  0  0
   -6.4470    1.3790   -0.1340 C   0  0  0  0  0  0  0  0  0  0  0  0
   -7.6800    2.0490   -0.4410 C   0  0  0  0  0  0  0  0  0  0  0  0
   -8.7630    1.6820   -1.1460 C   0  0  0  0  0  0  0  0  0  0  0  0
   -9.6870    2.7400   -1.1420 C   0  0  0  0  0  0  0  0  0  0  0  0
   -9.0760    3.7230   -0.4040 C   0  0  0  0  0  0  0  0  0  0  0  0
   -7.9170    3.2860   -0.0160 O   0  0  0  0  0  0  0  0  0  0  0  0
   -6.3270    0.0540    0.0640 C   0  0  0  0  0  0  0  0  0  0  0  0
   -5.0500   -0.5130    0.3620 C   0  0  0  0  0  0  0  0  0  0  0  0
   -4.9990   -1.8860    0.5410 O   0  0  0  0  0  0  0  0  0  0  0  0
   -5.7050   -2.7110   -0.4170 C   0  0  0  0  0  0  0  0  0  0  0  0
   -7.0120   -2.0530   -0.8400 C   0  0  0  0  0  0  0  0  0  0  0  0
   -7.3830   -0.9710    0.1600 C   0  0  2  0  0  0  0  0  0  0  0  0
   -8.6670   -0.6630    0.1430 O   0  0  0  0  0  0  0  0  0  0  0  0
    0.5240   -0.1250    0.7080 C   0  0  0  0  0  0  0  0  0  0  0  0
    1.8900   -0.7190    0.4020 C   0  0  2  0  0  0  0  0  0  0  0  0
    1.6470   -1.6360   -0.6690 C   0  0  0  0  0  0  0  0  0  0  0  0
    2.3500   -2.5310   -1.2560 O   0  0  0  0  0  0  0  0  0  0  0  0
    0.3120   -1.4360   -1.1120 O   0  0  0  0  0  0  0  0  0  0  0  0
    2.4860   -1.2150    1.7050 C   0  0  2  0  0  0  0  0  0  0  0  0
    1.5690   -1.4290    2.7300 O   0  0  0  0  0  0  0  0  0  0  0  0
    3.0390    0.2210    1.8420 C   0  0  0  0  0  0  0  0  0  0  0  0
    3.0160    0.2910    0.3220 C   0  0  2  0  0  0  0  0  0  0  0  0
    2.3790    1.6450   -0.1020 C   0  0  0  0  0  0  0  0  0  0  0  0
    4.0920    0.0910   -0.3910 O   0  0  0  0  0  0  0  0  0  0  0  0
    5.0600   -0.7770   -0.3650 C   0  0  0  0  0  0  0  0  0  0  0  0
    5.9960   -0.8640    0.8140 C   0  0  1  0  0  0  0  0  0  0  0  0
    6.9690   -1.8730    0.6210 O   0  0  0  0  0  0  0  0  0  0  0  0
    6.6860    0.4000    1.1590 C   0  0  0  0  0  0  0  0  0  0  0  0
    7.5300    0.9960    0.0880 C   0  0  0  0  0  0  0  0  0  0  0  0
    8.6540    0.1270   -0.3820 C   0  0  0  0  0  0  0  0  0  0  0  0
    9.4730    0.8610   -1.4620 C   0  0  0  0  0  0  0  0  0  0  0  0
   10.5000    0.0250   -1.8680 O   0  0  0  0  0  0  0  0  0  0  0  0
  2  1  1  1
  2  3  1  0
  2 23  1  0
  2 27  1  0
  3  4  2  0
  3  5  1  0
  5  6  1  0
  6  7  2  0
  6 17  1  0
  7  8  1  0
  7  9  1  0
  9 10  2  0
 10 11  1  0
 10 16  1  0
 11 12  2  0
 11 15  1  0
 12 13  1  0
 13 14  2  0
 14 15  1  0
 16 17  2  0
 16 21  1  0
 17 18  1  0
 18 19  1  0
 19 20  1  0
 20 21  1  0
 21 22  1  6
 24 23  1  1
 24 25  1  0
 24 28  1  0
 24 31  1  0
 25 26  2  0
 25 27  1  0
 28 29  1  1
 28 30  1  0
 30 31  1  0
 31 32  1  1
 31 33  1  0
 33 34  1  0
 34 35  1  0
 35 36  1  6
 35 37  1  0
 37 38  1  0
 38 39  1  0
 39 40  1  0
 40 41  1  0
M  END
