
     RDKit          3D

 40 43  0  0  0  0  0  0  0  0999 V2000
   -6.6220   -1.2020   -1.0330 C   0  0  0  0  0  0  0  0  0  0  0  0
   -5.2640   -0.6000   -1.3140 C   0  0  0  0  0  0  0  0  0  0  0  0
   -4.4120   -0.6090   -0.0450 C   0  0  1  0  0  0  0  0  0  0  0  0
   -4.2670   -2.0470    0.3840 C   0  0  0  0  0  0  0  0  0  0  0  0
   -3.0390    0.0120   -0.3610 C   0  0  0  0  0  0  0  0  0  0  0  0
   -2.4750    0.7020    0.8310 C   0  0  2  0  0  0  0  0  0  0  0  0
   -3.0580    1.9820    1.0040 O   0  0  0  0  0  0  0  0  0  0  0  0
   -1.0340    0.6980    0.9920 C   0  0  0  0  0  0  0  0  0  0  0  0
   -0.0870    1.3030    0.0310 C   0  0  1  0  0  0  0  0  0  0  0  0
    1.1950    1.0600    0.6460 O   0  0  0  0  0  0  0  0  0  0  0  0
   -0.0100    0.7200   -1.3350 C   0  0  0  0  0  0  0  0  0  0  0  0
    0.6650   -0.6080   -1.4260 C   0  0  0  0  0  0  0  0  0  0  0  0
    0.3590   -1.2070   -2.5320 O   0  0  0  0  0  0  0  0  0  0  0  0
    1.4400   -0.9650   -0.4180 O   0  0  0  0  0  0  0  0  0  0  0  0
    2.1080   -2.0380    0.1410 C   0  0  0  0  0  0  0  0  0  0  0  0
    1.4870   -2.6690    1.2360 C   0  0  0  0  0  0  0  0  0  0  0  0
    2.0000   -3.7600    1.9020 C   0  0  0  0  0  0  0  0  0  0  0  0
    3.1910   -4.2810    1.4890 C   0  0  0  0  0  0  0  0  0  0  0  0
    3.8010   -3.6830    0.4390 C   0  0  0  0  0  0  0  0  0  0  0  0
    3.3240   -2.5690   -0.2710 C   0  0  0  0  0  0  0  0  0  0  0  0
    4.0630   -2.0220   -1.3400 O   0  0  0  0  0  0  0  0  0  0  0  0
    4.8410   -0.8450   -1.4110 C   0  0  0  0  0  0  0  0  0  0  0  0
    6.0730   -0.9740   -1.6790 O   0  0  0  0  0  0  0  0  0  0  0  0
    4.3950    0.5690   -1.2040 C   0  0  0  0  0  0  0  0  0  0  0  0
    3.3220    1.3100   -1.7230 C   0  0  0  0  0  0  0  0  0  0  0  0
    2.8460    1.1210   -3.1280 N   0  0  0  0  0  0  0  0  0  0  0  0
    2.9620    2.4460   -1.0010 C   0  0  0  0  0  0  0  0  0  0  0  0
    3.6880    2.8240    0.1600 C   0  0  0  0  0  0  0  0  0  0  0  0
    4.7450    2.1330    0.6600 C   0  0  0  0  0  0  0  0  0  0  0  0
    5.4550    2.5790    1.8490 C   0  0  0  0  0  0  0  0  0  0  0  0
    5.0730    3.6270    2.4200 O   0  0  0  0  0  0  0  0  0  0  0  0
    5.0750    1.0100   -0.0370 C   0  0  0  0  0  0  0  0  0  0  0  0
    6.1670    0.3150    0.4940 O   0  0  0  0  0  0  0  0  0  0  0  0
    1.9270    3.3830   -1.1450 O   0  0  0  0  0  0  0  0  0  0  0  0
    0.5500    3.2860   -1.2250 C   0  0  0  0  0  0  0  0  0  0  0  0
   -0.1530    3.5970   -2.2480 O   0  0  0  0  0  0  0  0  0  0  0  0
   -0.1710    2.7950   -0.0570 C   0  0  0  0  0  0  0  0  0  0  0  0
   -3.0260   -0.0710    2.0540 C   0  0  0  0  0  0  0  0  0  0  0  0
   -4.5030   -0.0080    2.1240 C   0  0  0  0  0  0  0  0  0  0  0  0
   -5.1110    0.0890    0.9010 O   0  0  0  0  0  0  0  0  0  0  0  0
  1  2  1  0
  2  3  1  0
  3  4  1  1
  3  5  1  0
  3 40  1  0
  5  6  1  0
  6  7  1  1
  6  8  1  0
  6 38  1  0
  8  9  1  0
  9 10  1  1
  9 11  1  0
  9 37  1  0
 11 12  1  0
 12 13  2  0
 12 14  1  0
 14 15  1  0
 15 16  2  0
 15 20  1  0
 16 17  1  0
 17 18  2  0
 18 19  1  0
 19 20  2  0
 20 21  1  0
 21 22  1  0
 22 23  2  0
 22 24  1  0
 24 25  2  0
 24 32  1  0
 25 26  1  0
 25 27  1  0
 27 28  2  0
 27 34  1  0
 28 29  1  0
 29 30  1  0
 29 32  2  0
 30 31  2  0
 32 33  1  0
 34 35  1  0
 35 36  2  0
 35 37  1  0
 38 39  1  0
 39 40  1  0
M  END
