
     RDKit          3D

 45 49  0  0  0  0  0  0  0  0999 V2000
   -6.7040    5.3510   -3.2360 C   0  0  0  0  0  0  0  0  0  0  0  0
   -6.7530    4.3770   -2.1940 O   0  0  0  0  0  0  0  0  0  0  0  0
   -6.2190    3.1190   -2.3350 C   0  0  0  0  0  0  0  0  0  0  0  0
   -5.6660    2.8240   -3.4250 O   0  0  0  0  0  0  0  0  0  0  0  0
   -6.2670    2.1320   -1.2860 N   0  0  0  0  0  0  0  0  0  0  0  0
   -5.7130    0.8450   -1.4540 C   0  0  0  0  0  0  0  0  0  0  0  0
   -5.1720    0.6060   -2.5650 O   0  0  0  0  0  0  0  0  0  0  0  0
   -5.7150   -0.2360   -0.4430 C   0  0  2  0  0  0  0  0  0  0  0  0
   -5.0340   -1.5100   -0.9330 C   0  0  0  0  0  0  0  0  0  0  0  0
   -6.0760   -2.3980   -1.5720 C   0  0  0  0  0  0  0  0  0  0  0  0
   -7.1790   -2.6860   -0.5900 C   0  0  0  0  0  0  0  0  0  0  0  0
   -7.1140   -1.8780    0.5350 O   0  0  0  0  0  0  0  0  0  0  0  0
   -7.0080   -0.5210    0.2350 C   0  0  1  0  0  0  0  0  0  0  0  0
   -6.5170    0.2040    1.4540 C   0  0  0  0  0  0  0  0  0  0  0  0
   -5.1530    0.2550    0.8550 C   0  0  1  0  0  0  0  0  0  0  0  0
   -4.2340   -0.6940    1.3730 O   0  0  0  0  0  0  0  0  0  0  0  0
   -2.9960   -0.4030    1.8780 C   0  0  0  0  0  0  0  0  0  0  0  0
   -2.6330    0.7990    1.8920 O   0  0  0  0  0  0  0  0  0  0  0  0
   -2.0750   -1.4600    2.4060 C   0  0  0  0  0  0  0  0  0  0  0  0
   -0.8350   -0.7860    2.9300 C   0  0  0  0  0  0  0  0  0  0  0  0
    0.1330   -1.7600    3.4620 C   0  0  0  0  0  0  0  0  0  0  0  0
    0.7400   -2.7400    2.4950 C   0  0  0  0  0  0  0  0  0  0  0  0
    1.5030   -2.0810    1.4630 N   0  0  0  0  0  0  0  0  0  0  0  0
    0.8540   -1.7250    0.2370 C   0  0  0  0  0  0  0  0  0  0  0  0
    0.0060   -2.6040   -0.1350 O   0  0  0  0  0  0  0  0  0  0  0  0
    0.9500   -0.5830   -0.6740 C   0  0  0  0  0  0  0  0  0  0  0  0
    2.6320    0.0220   -0.8760 S   0  0  0  0  0  0  0  0  0  0  0  0
    3.2850    0.5710    0.7370 C   0  0  2  0  0  0  0  0  0  0  0  0
    4.4770    1.4300    0.4980 C   0  0  0  0  0  0  0  0  0  0  0  0
    4.5920    2.4870    1.1260 O   0  0  0  0  0  0  0  0  0  0  0  0
    5.4560    1.0330   -0.4410 N   0  0  0  0  0  0  0  0  0  0  0  0
    6.6230    1.7130   -0.7840 C   0  0  0  0  0  0  0  0  0  0  0  0
    7.0280    2.8720   -0.1860 C   0  0  0  0  0  0  0  0  0  0  0  0
    8.2100    3.5210   -0.5520 C   0  0  0  0  0  0  0  0  0  0  0  0
    9.0060    2.9920   -1.5440 C   0  0  0  0  0  0  0  0  0  0  0  0
    8.6240    1.8240   -2.1650 C   0  0  0  0  0  0  0  0  0  0  0  0
    7.4430    1.2110   -1.7740 C   0  0  0  0  0  0  0  0  0  0  0  0
    7.1170    0.0310   -2.4440 O   0  0  0  0  0  0  0  0  0  0  0  0
    7.8960   -0.5310   -3.4520 C   0  0  0  0  0  0  0  0  0  0  0  0
    3.6660   -0.6590    1.4770 C   0  0  0  0  0  0  0  0  0  0  0  0
    4.9820   -0.5780    1.9100 C   0  0  0  0  0  0  0  0  0  0  0  0
    5.4780   -1.6450    2.6300 C   0  0  0  0  0  0  0  0  0  0  0  0
    4.7300   -2.7530    2.9230 C   0  0  0  0  0  0  0  0  0  0  0  0
    3.4280   -2.8040    2.4800 C   0  0  0  0  0  0  0  0  0  0  0  0
    2.8830   -1.7770    1.7620 C   0  0  0  0  0  0  0  0  0  0  0  0
  1  2  1  0
  2  3  1  0
  3  4  2  0
  3  5  1  0
  5  6  1  0
  6  7  2  0
  8  6  1  6
  8  9  1  0
  8 13  1  0
  8 15  1  0
  9 10  1  0
 10 11  1  0
 11 12  1  0
 12 13  1  0
 13 14  1  1
 14 15  1  0
 15 16  1  1
 16 17  1  0
 17 18  2  0
 17 19  1  0
 19 20  1  0
 20 21  1  0
 21 22  1  0
 22 23  1  0
 23 24  1  0
 23 45  1  0
 24 25  2  0
 24 26  1  0
 26 27  1  0
 27 28  1  0
 28 29  1  6
 28 40  1  0
 29 30  2  0
 29 31  1  0
 31 32  1  0
 32 33  2  0
 32 37  1  0
 33 34  1  0
 34 35  2  0
 35 36  1  0
 36 37  2  0
 37 38  1  0
 38 39  1  0
 40 41  2  0
 40 45  1  0
 41 42  1  0
 42 43  2  0
 43 44  1  0
 44 45  2  0
M  END
