
     RDKit          3D

 46 50  0  0  0  0  0  0  0  0999 V2000
   -4.6820   -4.2400   -1.4860 C   0  0  0  0  0  0  0  0  0  0  0  0
   -3.8970   -3.5870   -0.5260 O   0  0  0  0  0  0  0  0  0  0  0  0
   -4.4460   -2.7500    0.4600 C   0  0  0  0  0  0  0  0  0  0  0  0
   -5.6650   -2.5710    0.4960 O   0  0  0  0  0  0  0  0  0  0  0  0
   -3.4550   -2.1280    1.4130 C   0  0  1  0  0  0  0  0  0  0  0  0
   -2.7800   -3.3120    2.0820 C   0  0  0  0  0  0  0  0  0  0  0  0
   -2.5200   -1.3570    0.5870 C   0  0  0  0  0  0  0  0  0  0  0  0
   -1.2740   -1.8860    0.3430 C   0  0  0  0  0  0  0  0  0  0  0  0
   -0.3270   -1.2670   -0.4250 C   0  0  0  0  0  0  0  0  0  0  0  0
   -0.5960   -0.0710   -0.9900 C   0  0  0  0  0  0  0  0  0  0  0  0
    0.2960    0.6560   -1.7950 N   0  0  0  0  0  0  0  0  0  0  0  0
   -0.2010    1.3670   -2.9450 C   0  0  0  0  0  0  0  0  0  0  0  0
    1.6750    0.6880   -1.4790 C   0  0  0  0  0  0  0  0  0  0  0  0
    2.0800    0.0650   -0.4630 O   0  0  0  0  0  0  0  0  0  0  0  0
    2.6610    1.4330   -2.3050 C   0  0  0  0  0  0  0  0  0  0  0  0
    3.9450    1.2130   -1.7600 O   0  0  0  0  0  0  0  0  0  0  0  0
    4.4650   -0.0660   -1.6970 C   0  0  0  0  0  0  0  0  0  0  0  0
    3.7620   -1.0110   -2.1420 O   0  0  0  0  0  0  0  0  0  0  0  0
    5.7870   -0.3310   -1.1360 C   0  0  0  0  0  0  0  0  0  0  0  0
    6.2750   -1.6180   -1.0870 C   0  0  0  0  0  0  0  0  0  0  0  0
    7.5160   -1.9060   -0.5660 C   0  0  0  0  0  0  0  0  0  0  0  0
    8.3450   -0.9020   -0.0580 C   0  0  0  0  0  0  0  0  0  0  0  0
    9.6590   -1.2270    0.4790 C   0  0  0  0  0  0  0  0  0  0  0  0
   10.0220   -2.4440    0.4210 O   0  0  0  0  0  0  0  0  0  0  0  0
   10.5970   -0.2720    1.0780 C   0  0  1  0  0  0  0  0  0  0  0  0
   10.1270    0.2610    2.4160 C   0  0  0  0  0  0  0  0  0  0  0  0
   11.3090    0.3470    3.1650 O   0  0  0  0  0  0  0  0  0  0  0  0
   12.3540    0.0690    2.2890 C   0  0  0  0  0  0  0  0  0  0  0  0
   11.8170   -0.8870    1.3970 O   0  0  0  0  0  0  0  0  0  0  0  0
    7.8520    0.3820   -0.1090 C   0  0  0  0  0  0  0  0  0  0  0  0
    6.5940    0.6660   -0.6390 C   0  0  0  0  0  0  0  0  0  0  0  0
   -1.8640    0.5030   -0.7620 C   0  0  0  0  0  0  0  0  0  0  0  0
   -2.8070   -0.1170    0.0050 C   0  0  0  0  0  0  0  0  0  0  0  0
   -4.0740    0.4480    0.2620 N   0  0  0  0  0  0  0  0  0  0  0  0
   -4.6100    1.6390   -0.2530 C   0  0  0  0  0  0  0  0  0  0  0  0
   -3.9760    2.3620   -1.0430 O   0  0  0  0  0  0  0  0  0  0  0  0
   -5.9620    2.0490    0.1500 C   0  0  0  0  0  0  0  0  0  0  0  0
   -6.8490    1.4780    0.9710 C   0  0  0  0  0  0  0  0  0  0  0  0
   -8.0460    2.0790    1.1700 C   0  0  0  0  0  0  0  0  0  0  0  0
   -8.2930    3.2400    0.5240 C   0  0  0  0  0  0  0  0  0  0  0  0
   -6.7510    3.4840   -0.4060 S   0  0  0  0  0  0  0  0  0  0  0  0
   -9.5160    4.0730    0.5790 C   0  0  0  0  0  0  0  0  0  0  0  0
  -10.7150    3.2650    1.0190 C   0  0  0  0  0  0  0  0  0  0  0  0
  -10.3410    2.3870    2.1110 N   0  0  0  0  0  0  0  0  0  0  0  0
   -9.1770    1.6200    2.0380 C   0  0  0  0  0  0  0  0  0  0  0  0
   -9.1200    0.5640    2.7090 O   0  0  0  0  0  0  0  0  0  0  0  0
  1  2  1  0
  2  3  1  0
  3  4  2  0
  3  5  1  0
  5  6  1  6
  5  7  1  0
  7  8  2  0
  7 33  1  0
  8  9  1  0
  9 10  2  0
 10 11  1  0
 10 32  1  0
 11 12  1  0
 11 13  1  0
 13 14  2  0
 13 15  1  0
 15 16  1  0
 16 17  1  0
 17 18  2  0
 17 19  1  0
 19 20  2  0
 19 31  1  0
 20 21  1  0
 21 22  2  0
 22 23  1  0
 22 30  1  0
 23 24  2  0
 25 23  1  1
 25 26  1  0
 25 29  1  0
 26 27  1  0
 27 28  1  0
 28 29  1  0
 30 31  2  0
 32 33  2  0
 33 34  1  0
 34 35  1  0
 35 36  2  0
 35 37  1  0
 37 38  2  0
 37 41  1  0
 38 39  1  0
 39 40  2  0
 39 45  1  0
 40 41  1  0
 40 42  1  0
 42 43  1  0
 43 44  1  0
 44 45  1  0
 45 46  2  0
M  END
