
     RDKit          3D

 45 49  0  0  0  0  0  0  0  0999 V2000
   -5.2650   -6.8230    1.4500 C   0  0  0  0  0  0  0  0  0  0  0  0
   -4.4920   -5.8130    0.8360 O   0  0  0  0  0  0  0  0  0  0  0  0
   -4.9310   -4.4880    0.9200 C   0  0  0  0  0  0  0  0  0  0  0  0
   -5.9910   -4.2950    1.5410 O   0  0  0  0  0  0  0  0  0  0  0  0
   -4.2230   -3.4240    0.3370 N   0  0  0  0  0  0  0  0  0  0  0  0
   -4.5970   -2.0580    0.3660 C   0  0  0  0  0  0  0  0  0  0  0  0
   -3.6820   -1.0760   -0.0170 C   0  0  0  0  0  0  0  0  0  0  0  0
   -3.9570    0.2510   -0.0390 C   0  0  0  0  0  0  0  0  0  0  0  0
   -3.0840    1.2960   -0.4100 N   0  0  0  0  0  0  0  0  0  0  0  0
   -1.7480    1.1610   -0.8270 C   0  0  0  0  0  0  0  0  0  0  0  0
   -1.2520   -0.0160   -0.8730 O   0  0  0  0  0  0  0  0  0  0  0  0
   -0.8580    2.3160   -1.2210 C   0  0  1  0  0  0  0  0  0  0  0  0
   -1.5940    3.5450   -1.2750 C   0  0  0  0  0  0  0  0  0  0  0  0
   -2.6960    3.3970   -2.3240 C   0  0  0  0  0  0  0  0  0  0  0  0
   -3.6490    4.5000   -2.5700 C   0  0  0  0  0  0  0  0  0  0  0  0
   -2.7880    2.3660   -2.9590 O   0  0  0  0  0  0  0  0  0  0  0  0
    0.3820    2.1460   -0.5070 N   0  0  0  0  0  0  0  0  0  0  0  0
    1.4610    1.7130   -1.2960 C   0  0  0  0  0  0  0  0  0  0  0  0
    1.2650    1.6590   -2.5960 O   0  0  0  0  0  0  0  0  0  0  0  0
    2.7670    1.3190   -0.8520 C   0  0  0  0  0  0  0  0  0  0  0  0
    3.1410    0.8270    0.3640 C   0  0  0  0  0  0  0  0  0  0  0  0
    4.4710    0.5650    0.7190 C   0  0  0  0  0  0  0  0  0  0  0  0
    5.5040    0.7900   -0.1560 C   0  0  0  0  0  0  0  0  0  0  0  0
    6.9200    0.5140    0.2200 C   0  0  0  0  0  0  0  0  0  0  0  0
    7.4020   -1.1770   -0.1980 S   0  0  0  0  0  0  0  0  0  0  0  0
    6.4950   -2.3860    0.8080 C   0  0  0  0  0  0  0  0  0  0  0  0
    6.8950   -3.7690    0.4090 C   0  0  0  0  0  0  0  0  0  0  0  0
    6.2950   -4.5630   -0.5280 C   0  0  0  0  0  0  0  0  0  0  0  0
    6.9760   -5.7360   -0.5750 C   0  0  0  0  0  0  0  0  0  0  0  0
    8.0010   -5.6270    0.3570 C   0  0  0  0  0  0  0  0  0  0  0  0
    7.8970   -4.4580    0.8940 O   0  0  0  0  0  0  0  0  0  0  0  0
    5.1600    1.2820   -1.3910 C   0  0  0  0  0  0  0  0  0  0  0  0
    3.8630    1.5380   -1.7330 C   0  0  0  0  0  0  0  0  0  0  0  0
    0.5650    2.5110    0.8690 C   0  0  1  0  0  0  0  0  0  0  0  0
    0.2340    3.9460    1.2120 C   0  0  0  0  0  0  0  0  0  0  0  0
   -0.7120    3.8300    2.3650 C   0  0  0  0  0  0  0  0  0  0  0  0
   -0.5630    2.5720    2.9120 O   0  0  0  0  0  0  0  0  0  0  0  0
   -0.1820    1.7200    1.8770 C   0  0  0  0  0  0  0  0  0  0  0  0
   -5.2500    0.6210    0.3550 C   0  0  0  0  0  0  0  0  0  0  0  0
   -5.8590    1.7990    0.4560 O   0  0  0  0  0  0  0  0  0  0  0  0
   -7.0890    1.6640    0.8710 C   0  0  0  0  0  0  0  0  0  0  0  0
   -7.9290    2.6080    1.0680 O   0  0  0  0  0  0  0  0  0  0  0  0
   -7.2830    0.3790    1.0440 O   0  0  0  0  0  0  0  0  0  0  0  0
   -6.1920   -0.2810    0.7410 C   0  0  0  0  0  0  0  0  0  0  0  0
   -5.8420   -1.6350    0.7400 C   0  0  0  0  0  0  0  0  0  0  0  0
  1  2  1  0
  2  3  1  0
  3  4  2  0
  3  5  1  0
  5  6  1  0
  6  7  2  0
  6 45  1  0
  7  8  1  0
  8  9  1  0
  8 39  2  0
  9 10  1  0
 10 11  2  0
 10 12  1  0
 12 13  1  1
 12 17  1  0
 13 14  1  0
 14 15  1  0
 14 16  2  0
 17 18  1  0
 34 17  1  6
 18 19  2  0
 18 20  1  0
 20 21  2  0
 20 33  1  0
 21 22  1  0
 22 23  2  0
 23 24  1  0
 23 32  1  0
 24 25  1  0
 25 26  1  0
 26 27  1  0
 27 28  2  0
 27 31  1  0
 28 29  1  0
 29 30  2  0
 30 31  1  0
 32 33  2  0
 34 35  1  0
 34 38  1  0
 35 36  1  0
 36 37  1  0
 37 38  1  0
 39 40  1  0
 39 44  1  0
 40 41  1  0
 41 42  2  0
 41 43  1  0
 43 44  1  0
 44 45  2  0
M  END
