
     RDKit          3D

 12 12  0  0  0  0  0  0  0  0999 V2000
    0.2610    2.3830   -2.8480 C   0  0  0  0  0  0  0  0  0  0  0  0
   -0.6460    0.9220   -2.5280 S   0  0  0  0  0  0  0  0  0  0  0  0
   -0.2540   -0.1050   -1.1980 C   0  0  0  0  0  0  0  0  0  0  0  0
    0.4840    0.2410   -0.1680 C   0  0  0  0  0  0  0  0  0  0  0  0
    0.9760    1.5770   -0.1820 C   0  0  0  0  0  0  0  0  0  0  0  0
    1.3700    2.6600   -0.1740 N   0  0  0  0  0  0  0  0  0  0  0  0
    0.9530   -0.4710    1.0590 C   0  0  1  0  0  0  0  0  0  0  0  0
    0.8530    0.5220    2.2070 C   0  0  0  0  0  0  0  0  0  0  0  0
    0.3940   -1.6680    1.3180 O   0  0  0  0  0  0  0  0  0  0  0  0
   -0.9850   -1.7250    1.1480 C   0  0  0  0  0  0  0  0  0  0  0  0
   -1.3380   -2.2540   -0.2310 C   0  0  0  0  0  0  0  0  0  0  0  0
   -0.8800   -1.4250   -1.2830 N   0  0  0  0  0  0  0  0  0  0  0  0
  1  2  1  0
  2  3  1  0
  3  4  2  0
  3 12  1  0
  4  5  1  0
  4  7  1  0
  5  6  3  0
  7  8  1  1
  7  9  1  0
  9 10  1  0
 10 11  1  0
 11 12  1  0
M  END
