
     RDKit          3D

 12 13  0  0  0  0  0  0  0  0999 V2000
    2.7520   -2.6270   -1.5150 C   0  0  0  0  0  0  0  0  0  0  0  0
    2.0230   -1.8080   -1.0150 C   0  0  0  0  0  0  0  0  0  0  0  0
    1.1700   -0.8210   -0.4130 C   0  0  0  0  0  0  0  0  0  0  0  0
   -0.1850   -0.7870   -0.6400 C   0  0  0  0  0  0  0  0  0  0  0  0
   -1.0180    0.1840   -0.0480 C   0  0  0  0  0  0  0  0  0  0  0  0
   -0.4950    1.1060    0.7620 C   0  0  0  0  0  0  0  0  0  0  0  0
    0.8620    1.0650    0.9830 N   0  0  0  0  0  0  0  0  0  0  0  0
    1.6650    0.1490    0.4270 C   0  0  0  0  0  0  0  0  0  0  0  0
    2.9130    0.1210    0.6390 O   0  0  0  0  0  0  0  0  0  0  0  0
   -1.3880    2.0560    1.3270 N   0  0  0  0  0  0  0  0  0  0  0  0
   -2.9970    1.3700    1.0520 S   0  0  0  0  0  0  0  0  0  0  0  0
   -2.4880    0.2420   -0.2790 C   0  0  0  0  0  0  0  0  0  0  0  0
  1  2  3  0
  2  3  1  0
  3  4  2  0
  3  8  1  0
  4  5  1  0
  5  6  2  0
  5 12  1  0
  6  7  1  0
  6 10  1  0
  7  8  1  0
  8  9  2  0
 10 11  1  0
 11 12  1  0
M  END
