
     RDKit          3D

 12 13  0  0  0  0  0  0  0  0999 V2000
   -4.4400   -0.2680    0.3280 C   0  0  0  0  0  0  0  0  0  0  0  0
   -3.4760    0.0880   -0.7330 C   0  0  0  0  0  0  0  0  0  0  0  0
   -2.1780    0.1310   -0.5610 C   0  0  0  0  0  0  0  0  0  0  0  0
   -0.9160    0.5520   -1.7860 S   0  0  0  0  0  0  0  0  0  0  0  0
    0.4590    0.3420   -0.6660 C   0  0  0  0  0  0  0  0  0  0  0  0
    1.8100    0.5280   -1.0050 N   0  0  0  0  0  0  0  0  0  0  0  0
    2.8660    0.6700    0.0100 C   0  0  1  0  0  0  0  0  0  0  0  0
    3.0780   -0.4630    0.9770 C   0  0  0  0  0  0  0  0  0  0  0  0
    4.0600   -0.2000   -0.1310 C   0  0  0  0  0  0  0  0  0  0  0  0
    0.0000    0.0070    0.4480 N   0  0  0  0  0  0  0  0  0  0  0  0
   -1.3620   -0.1330    0.6130 C   0  0  0  0  0  0  0  0  0  0  0  0
   -1.8920   -0.4740    1.7300 O   0  0  0  0  0  0  0  0  0  0  0  0
  1  2  1  0
  2  3  2  3
  3  4  1  0
  3 11  1  0
  4  5  1  0
  5  6  1  0
  5 10  2  0
  7  6  1  6
  7  8  1  0
  7  9  1  0
  8  9  1  0
 10 11  1  0
 11 12  2  0
M  END
