
     RDKit          3D

 28 31  0  0  0  0  0  0  0  0999 V2000
   -0.3560    2.0710   -3.8350 C   0  0  0  0  0  0  0  0  0  0  0  0
   -0.4230    2.2130   -2.3290 C   0  0  1  0  0  0  0  0  0  0  0  0
   -0.0140    0.8270   -1.7650 C   0  0  0  0  0  0  0  0  0  0  0  0
   -0.3110    0.7220   -0.3280 C   0  0  2  0  0  0  0  0  0  0  0  0
    0.4180   -0.1470    0.5700 C   0  0  0  0  0  0  0  0  0  0  0  0
    1.8490   -0.0650    0.8470 C   0  0  2  0  0  0  0  0  0  0  0  0
    2.6970   -0.2770   -0.3680 C   0  0  0  0  0  0  0  0  0  0  0  0
    4.0060   -0.9520    0.0380 C   0  0  0  0  0  0  0  0  0  0  0  0
    4.4170   -0.3340    1.2320 O   0  0  0  0  0  0  0  0  0  0  0  0
    3.6470   -0.8100    2.3010 C   0  0  2  0  0  0  0  0  0  0  0  0
    3.6900    0.1090    3.4900 C   0  0  0  0  0  0  0  0  0  0  0  0
    4.8660   -0.7170    4.0070 C   0  0  0  0  0  0  0  0  0  0  0  0
    4.3620   -1.8520    3.1070 C   0  0  0  0  0  0  0  0  0  0  0  0
    2.2580   -1.1830    1.8410 C   0  0  0  0  0  0  0  0  0  0  0  0
   -1.8230    0.3650   -0.2780 C   0  0  1  0  0  0  0  0  0  0  0  0
   -2.0980   -0.9270   -1.0100 C   0  0  0  0  0  0  0  0  0  0  0  0
   -3.1620   -1.7690   -0.2900 C   0  0  2  0  0  0  0  0  0  0  0  0
   -3.5140   -2.8960   -1.2120 C   0  0  1  0  0  0  0  0  0  0  0  0
   -4.0620   -2.4870   -2.5370 C   0  0  0  0  0  0  0  0  0  0  0  0
   -2.3270   -3.6260   -1.4440 O   0  0  0  0  0  0  0  0  0  0  0  0
   -4.3440   -0.9210    0.0300 C   0  0  0  0  0  0  0  0  0  0  0  0
   -3.9140    0.2110    0.9080 C   0  0  0  0  0  0  0  0  0  0  0  0
   -2.3860    0.2740    1.0790 C   0  0  2  0  0  0  0  0  0  0  0  0
   -2.1820    1.3860    1.8850 O   0  0  0  0  0  0  0  0  0  0  0  0
   -0.2270    2.1510    0.2320 C   0  0  0  0  0  0  0  0  0  0  0  0
    0.8700    2.9620   -0.4220 C   0  0  0  0  0  0  0  0  0  0  0  0
    0.7120    3.1200   -1.9090 C   0  0  2  0  0  0  0  0  0  0  0  0
    0.5550    4.4230   -2.3130 O   0  0  0  0  0  0  0  0  0  0  0  0
  2  1  1  6
  2  3  1  0
  2 27  1  0
  3  4  1  0
  4  5  1  1
  4 15  1  0
  4 25  1  0
  6  5  1  6
  6  7  1  0
  6 14  1  0
  7  8  1  0
  8  9  1  0
  9 10  1  0
 10 11  1  1
 10 13  1  0
 10 14  1  0
 11 12  1  0
 12 13  1  0
 15 16  1  1
 15 23  1  0
 17 16  1  6
 17 18  1  0
 17 21  1  0
 18 19  1  6
 18 20  1  0
 21 22  1  0
 22 23  1  0
 23 24  1  1
 25 26  1  0
 26 27  1  0
 27 28  1  1
M  END
