
     RDKit          3D

 28 31  0  0  0  0  0  0  0  0999 V2000
   -4.8320    1.2520   -1.2010 C   0  0  0  0  0  0  0  0  0  0  0  0
   -4.2010    2.1440   -0.2220 C   0  0  0  0  0  0  0  0  0  0  0  0
   -3.7510    1.6630    1.0780 C   0  0  0  0  0  0  0  0  0  0  0  0
   -2.7360    0.5880    1.1710 C   0  0  2  0  0  0  0  0  0  0  0  0
   -1.4350    0.9530    0.4970 C   0  0  0  0  0  0  0  0  0  0  0  0
   -0.3630    0.0070    1.0000 C   0  0  2  0  0  0  0  0  0  0  0  0
    0.9770    0.5250    0.8920 C   0  0  2  0  0  0  0  0  0  0  0  0
    1.0480    1.7210    1.6610 O   0  0  0  0  0  0  0  0  0  0  0  0
    1.6810    0.7870   -0.3570 C   0  0  2  0  0  0  0  0  0  0  0  0
    1.0010    1.8110   -1.2690 C   0  0  0  0  0  0  0  0  0  0  0  0
    2.0020   -0.3910   -1.2260 C   0  0  0  0  0  0  0  0  0  0  0  0
    3.2760   -0.0610   -1.9800 C   0  0  0  0  0  0  0  0  0  0  0  0
    3.9140    1.0750   -1.2640 C   0  0  2  0  0  0  0  0  0  0  0  0
    5.3260    0.6940   -0.8930 C   0  0  0  0  0  0  0  0  0  0  0  0
    5.3820   -0.5410   -0.0600 C   0  0  0  0  0  0  0  0  0  0  0  0
    4.4010   -0.4380    1.0610 C   0  0  0  0  0  0  0  0  0  0  0  0
    3.7380    0.9140    1.1440 C   0  0  0  0  0  0  0  0  0  0  0  0
    3.0500    1.3530   -0.0770 C   0  0  2  0  0  0  0  0  0  0  0  0
    2.9060    2.7610   -0.0010 O   0  0  0  0  0  0  0  0  0  0  0  0
   -0.6770   -1.3200    0.3680 C   0  0  0  0  0  0  0  0  0  0  0  0
   -2.1430   -1.6370    0.5270 C   0  0  0  0  0  0  0  0  0  0  0  0
   -3.0680   -0.7760    0.8900 C   0  0  0  0  0  0  0  0  0  0  0  0
   -4.4210   -1.3280    0.9970 C   0  0  0  0  0  0  0  0  0  0  0  0
   -5.3380   -0.5860    1.3340 O   0  0  0  0  0  0  0  0  0  0  0  0
   -4.6860   -2.6440    0.7340 O   0  0  0  0  0  0  0  0  0  0  0  0
   -3.6650   -3.5950    0.8960 C   0  0  0  0  0  0  0  0  0  0  0  0
   -2.4470   -3.0750    0.2140 C   0  0  1  0  0  0  0  0  0  0  0  0
   -2.4960   -3.3020   -1.2810 C   0  0  0  0  0  0  0  0  0  0  0  0
  1  2  1  0
  2  3  1  0
  4  3  1  6
  4  5  1  0
  4 22  1  0
  6  5  1  6
  6  7  1  0
  6 20  1  0
  7  8  1  6
  7  9  1  0
  9 10  1  6
  9 11  1  0
  9 18  1  0
 11 12  1  0
 13 12  1  1
 13 14  1  0
 13 18  1  0
 14 15  1  0
 15 16  1  0
 16 17  1  0
 17 18  1  0
 18 19  1  1
 20 21  1  0
 21 22  2  0
 21 27  1  0
 22 23  1  0
 23 24  2  0
 23 25  1  0
 25 26  1  0
 26 27  1  0
 27 28  1  6
M  END
