
     RDKit          3D

 28 31  0  0  0  0  0  0  0  0999 V2000
    5.3100    3.2800    1.0790 C   0  0  0  0  0  0  0  0  0  0  0  0
    5.7960    1.8820    1.3140 C   0  0  2  0  0  0  0  0  0  0  0  0
    6.4750    1.4070    0.1960 O   0  0  0  0  0  0  0  0  0  0  0  0
    4.5790    1.0020    1.5600 C   0  0  0  0  0  0  0  0  0  0  0  0
    3.7250    1.1040    0.2980 C   0  0  0  0  0  0  0  0  0  0  0  0
    2.4640    0.2380    0.4660 C   0  0  0  0  0  0  0  0  0  0  0  0
    1.6110    0.3020   -0.7430 C   0  0  2  0  0  0  0  0  0  0  0  0
    1.1480    1.7010   -1.0710 C   0  0  0  0  0  0  0  0  0  0  0  0
    0.3640    2.2990    0.0770 C   0  0  0  0  0  0  0  0  0  0  0  0
   -0.6260    1.3070    0.5850 C   0  0  1  0  0  0  0  0  0  0  0  0
   -1.9230    1.8300    0.6190 O   0  0  0  0  0  0  0  0  0  0  0  0
   -2.8300    0.8810    0.2460 C   0  0  2  0  0  0  0  0  0  0  0  0
   -3.3070    1.1590   -1.1500 C   0  0  0  0  0  0  0  0  0  0  0  0
   -4.7370    1.6610   -1.1750 C   0  0  0  0  0  0  0  0  0  0  0  0
   -5.6800    0.6690   -0.5720 C   0  0  0  0  0  0  0  0  0  0  0  0
   -5.0940   -0.0660    0.6200 C   0  0  0  0  0  0  0  0  0  0  0  0
   -3.9620    0.7000    1.2310 C   0  0  2  0  0  0  0  0  0  0  0  0
   -4.4500    1.9290    1.6700 O   0  0  0  0  0  0  0  0  0  0  0  0
   -2.0070   -0.4440    0.1650 C   0  0  0  0  0  0  0  0  0  0  0  0
   -0.7690    0.1860   -0.4240 C   0  0  2  0  0  0  0  0  0  0  0  0
    0.3940   -0.6480   -0.7040 C   0  0  1  0  0  0  0  0  0  0  0  0
    0.2560   -1.0920   -2.1790 C   0  0  0  0  0  0  0  0  0  0  0  0
    0.6830   -1.8480    0.0960 C   0  0  0  0  0  0  0  0  0  0  0  0
   -0.3100   -2.9330    0.2190 C   0  0  2  0  0  0  0  0  0  0  0  0
    0.3650   -4.0080    1.1330 C   0  0  0  0  0  0  0  0  0  0  0  0
   -0.5250   -5.1860    0.7440 C   0  0  0  0  0  0  0  0  0  0  0  0
   -0.4120   -5.1210   -0.6370 O   0  0  0  0  0  0  0  0  0  0  0  0
   -0.4610   -3.7990   -1.0250 C   0  0  0  0  0  0  0  0  0  0  0  0
  2  1  1  6
  2  3  1  0
  2  4  1  0
  4  5  1  0
  5  6  1  0
  7  6  1  1
  7  8  1  0
  7 21  1  0
  8  9  1  0
 10  9  1  6
 10 11  1  0
 10 20  1  0
 11 12  1  0
 12 13  1  6
 12 17  1  0
 12 19  1  0
 13 14  1  0
 14 15  1  0
 15 16  1  0
 16 17  1  0
 17 18  1  6
 20 19  1  1
 20 21  1  0
 21 22  1  6
 21 23  1  0
 24 23  1  6
 24 25  1  0
 24 28  1  0
 25 26  1  0
 26 27  1  0
 27 28  1  0
M  END
