
     RDKit          3D

 30 32  0  0  0  0  0  0  0  0999 V2000
   -2.0030   -4.0710   -0.8770 C   0  0  0  0  0  0  0  0  0  0  0  0
   -3.1700   -3.5100   -0.5620 C   0  0  0  0  0  0  0  0  0  0  0  0
   -4.3070   -4.2340   -0.6300 F   0  0  0  0  0  0  0  0  0  0  0  0
   -3.2530   -2.1220   -0.1400 C   0  0  0  0  0  0  0  0  0  0  0  0
   -4.4100   -1.5790    0.1690 C   0  0  0  0  0  0  0  0  0  0  0  0
   -5.6950   -2.3010    0.1200 C   0  0  0  0  0  0  0  0  0  0  0  0
   -2.0560   -1.3910   -0.0780 O   0  0  0  0  0  0  0  0  0  0  0  0
   -2.1040   -0.0970   -0.6730 C   0  0  0  0  0  0  0  0  0  0  0  0
   -2.9360    0.3030   -1.5390 N   0  0  0  0  0  0  0  0  0  0  0  0
   -2.7320    1.6340   -1.9330 C   0  0  0  0  0  0  0  0  0  0  0  0
   -1.6790    2.1260   -1.2520 C   0  0  0  0  0  0  0  0  0  0  0  0
   -1.0290    3.3490   -1.2210 N   0  0  0  0  0  0  0  0  0  0  0  0
   -0.7540    4.3500   -0.6230 C   0  0  0  0  0  0  0  0  0  0  0  0
    0.1280    5.3770   -1.3410 C   0  0  0  0  0  0  0  0  0  0  0  0
    1.4180    5.2990   -0.6820 N   0  0  0  0  0  0  0  0  0  0  0  0
    1.9970    3.9940   -0.7480 C   0  0  0  0  0  0  0  0  0  0  0  0
    1.8530    3.1910    0.5320 C   0  0  0  0  0  0  0  0  0  0  0  0
    2.0540    1.7500    0.2140 C   0  0  0  0  0  0  0  0  0  0  0  0
    1.2630    0.8240    0.9990 N   0  0  0  0  0  0  0  0  0  0  0  0
    1.6480   -0.5170    1.0430 C   0  0  0  0  0  0  0  0  0  0  0  0
    1.0450   -1.4140    1.6650 O   0  0  0  0  0  0  0  0  0  0  0  0
    2.7530   -1.0480    0.4110 N   0  0  0  0  0  0  0  0  0  0  0  0
    3.0660   -2.4610    0.5270 C   0  0  0  0  0  0  0  0  0  0  0  0
    4.1200   -2.6070   -0.1440 N   0  0  0  0  0  0  0  0  0  0  0  0
    4.6170   -3.9280   -0.1720 C   0  0  0  0  0  0  0  0  0  0  0  0
    3.6750   -4.7630    0.6250 C   0  0  0  0  0  0  0  0  0  0  0  0
    2.6760   -3.7370    1.0810 C   0  0  0  0  0  0  0  0  0  0  0  0
    0.1150    1.1510    1.7750 C   0  0  0  0  0  0  0  0  0  0  0  0
   -1.1610    1.3730    1.0580 C   0  0  0  0  0  0  0  0  0  0  0  0
   -1.1780    1.0020   -0.3780 C   0  0  1  0  0  0  0  0  0  0  0  0
  1  2  2  0
  2  3  1  0
  2  4  1  0
  4  5  2  3
  4  7  1  0
  5  6  1  0
  7  8  1  0
  8  9  2  0
  8 30  1  0
  9 10  1  0
 10 11  2  0
 11 12  1  0
 11 30  1  0
 12 13  2  0
 13 14  1  0
 14 15  1  0
 15 16  1  0
 16 17  1  0
 17 18  1  0
 18 19  1  0
 19 20  1  0
 19 28  1  0
 20 21  2  0
 20 22  1  0
 22 23  1  0
 23 24  2  0
 23 27  1  0
 24 25  1  0
 25 26  1  0
 26 27  1  0
 28 29  1  0
 30 29  1  1
M  END
