
     RDKit          3D

 31 34  0  0  0  0  0  0  0  0999 V2000
    7.9020   -1.4800   -1.0610 C   0  0  0  0  0  0  0  0  0  0  0  0
    6.5410   -1.5530   -0.5320 N   0  0  0  0  0  0  0  0  0  0  0  0
    5.9930   -0.2180   -0.6070 C   0  0  0  0  0  0  0  0  0  0  0  0
    4.6430   -0.2120   -0.0120 C   0  0  0  0  0  0  0  0  0  0  0  0
    4.0600   -1.3430    0.5140 C   0  0  0  0  0  0  0  0  0  0  0  0
    2.8050   -1.3230    1.0640 C   0  0  0  0  0  0  0  0  0  0  0  0
    2.0860   -0.1070    1.0940 C   0  0  0  0  0  0  0  0  0  0  0  0
    0.8570   -0.1730    1.6560 O   0  0  0  0  0  0  0  0  0  0  0  0
   -0.1340    0.8180    1.8320 C   0  0  0  0  0  0  0  0  0  0  0  0
   -0.6760    1.3480    0.5660 C   0  0  0  0  0  0  0  0  0  0  0  0
   -1.9040    1.3360    0.1410 C   0  0  0  0  0  0  0  0  0  0  0  0
   -2.1070    1.9550   -1.2230 C   0  0  0  0  0  0  0  0  0  0  0  0
   -3.0380    0.9770    0.9700 C   0  0  0  0  0  0  0  0  0  0  0  0
   -3.1700    1.3180    2.3070 C   0  0  0  0  0  0  0  0  0  0  0  0
   -2.3780    2.1930    3.1150 N   0  0  0  0  0  0  0  0  0  0  0  0
   -4.2810    0.7340    2.7690 N   0  0  0  0  0  0  0  0  0  0  0  0
   -4.8360    0.0420    1.7430 C   0  0  0  0  0  0  0  0  0  0  0  0
   -5.9420   -0.7160    1.6760 N   0  0  0  0  0  0  0  0  0  0  0  0
   -6.2840   -1.3220    0.5170 C   0  0  0  0  0  0  0  0  0  0  0  0
   -7.6560   -2.3590    0.1330 S   0  0  0  0  0  0  0  0  0  0  0  0
   -7.2130   -2.6250   -1.5850 C   0  0  0  0  0  0  0  0  0  0  0  0
   -6.0290   -1.8840   -1.7260 C   0  0  0  0  0  0  0  0  0  0  0  0
   -5.3220   -1.8620   -3.0930 C   0  0  0  0  0  0  0  0  0  0  0  0
   -5.5800   -1.2320   -0.6420 C   0  0  0  0  0  0  0  0  0  0  0  0
   -4.4140   -0.4180   -0.5270 C   0  0  0  0  0  0  0  0  0  0  0  0
   -3.6880   -0.2690   -1.5370 O   0  0  0  0  0  0  0  0  0  0  0  0
   -4.1030    0.1690    0.6290 N   0  0  0  0  0  0  0  0  0  0  0  0
    2.7030    0.9960    0.5610 C   0  0  0  0  0  0  0  0  0  0  0  0
    3.9740    0.9940   -0.0010 C   0  0  0  0  0  0  0  0  0  0  0  0
    4.5470    2.2400   -0.5510 C   0  0  0  0  0  0  0  0  0  0  0  0
    5.7540    2.8600    0.5990 Cl  0  0  0  0  0  0  0  0  0  0  0  0
  1  2  1  0
  2  3  1  0
  3  4  1  0
  4  5  2  0
  4 29  1  0
  5  6  1  0
  6  7  2  0
  7  8  1  0
  7 28  1  0
  8  9  1  0
  9 10  1  0
 10 11  2  3
 11 12  1  0
 11 13  1  0
 13 14  2  0
 13 27  1  0
 14 15  1  0
 14 16  1  0
 16 17  2  0
 17 18  1  0
 17 27  1  0
 18 19  1  0
 19 20  1  0
 19 24  2  0
 20 21  1  0
 21 22  2  0
 22 23  1  0
 22 24  1  0
 24 25  1  0
 25 26  2  0
 25 27  1  0
 28 29  2  0
 29 30  1  0
 30 31  1  0
M  CHG  1   2   1
M  END
