
     RDKit          3D

 31 34  0  0  0  0  0  0  0  0999 V2000
   -3.2970    4.4620    1.0560 C   0  0  0  0  0  0  0  0  0  0  0  0
   -4.2490    3.9580   -0.4260 S   0  0  0  0  0  0  0  0  0  0  0  0
   -5.0710    2.3960   -0.0980 C   0  0  0  0  0  0  0  0  0  0  0  0
   -4.3970    1.2290   -0.3980 C   0  0  0  0  0  0  0  0  0  0  0  0
   -4.9550   -0.0130   -0.1770 C   0  0  0  0  0  0  0  0  0  0  0  0
   -4.5310   -1.3330   -0.3780 C   0  0  0  0  0  0  0  0  0  0  0  0
   -3.1910   -1.6130   -0.9280 C   0  0  2  0  0  0  0  0  0  0  0  0
   -2.9810   -3.0250   -1.3950 C   0  0  0  0  0  0  0  0  0  0  0  0
   -2.2260   -1.2460    0.0960 N   0  0  0  0  0  0  0  0  0  0  0  0
   -0.8810   -1.3070   -0.3470 C   0  0  0  0  0  0  0  0  0  0  0  0
    0.1020   -0.4560    0.3950 C   0  0  0  0  0  0  0  0  0  0  0  0
    1.3970   -0.6810   -0.2150 N   0  0  0  0  0  0  0  0  0  0  0  0
    2.5550    0.0110    0.3020 C   0  0  0  0  0  0  0  0  0  0  0  0
    2.3660    0.7750    1.2540 O   0  0  0  0  0  0  0  0  0  0  0  0
    3.8310   -0.1720   -0.2460 N   0  0  0  0  0  0  0  0  0  0  0  0
    5.0370    0.4290    0.1550 C   0  0  0  0  0  0  0  0  0  0  0  0
    5.1570    1.3360    1.1710 C   0  0  0  0  0  0  0  0  0  0  0  0
    6.3870    1.9130    1.5460 C   0  0  0  0  0  0  0  0  0  0  0  0
    7.5420    1.5690    0.8800 C   0  0  0  0  0  0  0  0  0  0  0  0
    7.4400    0.6590   -0.1440 C   0  0  0  0  0  0  0  0  0  0  0  0
    6.2310    0.1040   -0.4990 C   0  0  0  0  0  0  0  0  0  0  0  0
    6.1240   -1.0610   -1.8180 Cl  0  0  0  0  0  0  0  0  0  0  0  0
    8.8120    0.4620   -0.6800 C   0  0  0  0  0  0  0  0  0  0  0  0
    9.5450    1.7140   -0.2180 C   0  0  0  0  0  0  0  0  0  0  0  0
    8.8730    1.9640    1.0210 O   0  0  0  0  0  0  0  0  0  0  0  0
   -5.5540   -2.1360    0.0400 C   0  0  0  0  0  0  0  0  0  0  0  0
   -5.5760   -3.6240    0.0270 C   0  0  0  0  0  0  0  0  0  0  0  0
   -6.5470   -1.3420    0.4740 N   0  0  0  0  0  0  0  0  0  0  0  0
   -6.2190   -0.0680    0.3570 C   0  0  0  0  0  0  0  0  0  0  0  0
   -6.8820    1.1300    0.6530 C   0  0  0  0  0  0  0  0  0  0  0  0
   -6.3160    2.3330    0.4280 N   0  0  0  0  0  0  0  0  0  0  0  0
  1  2  1  0
  2  3  1  0
  3  4  2  0
  3 31  1  0
  4  5  1  0
  5  6  1  0
  5 29  2  0
  6  7  1  0
  6 26  2  0
  7  8  1  1
  7  9  1  0
  9 10  1  0
 10 11  1  0
 11 12  1  0
 12 13  1  0
 13 14  2  0
 13 15  1  0
 15 16  1  0
 16 17  2  0
 16 21  1  0
 17 18  1  0
 18 19  2  0
 19 20  1  0
 19 25  1  0
 20 21  2  0
 20 23  1  0
 21 22  1  0
 23 24  1  0
 24 25  1  0
 26 27  1  0
 26 28  1  0
 28 29  1  0
 29 30  1  0
 30 31  2  0
M  CHG  1   9   1
M  END
