
     RDKit          3D

 30 33  0  0  0  0  0  0  0  0999 V2000
    2.8530   -3.9060   -0.0070 C   0  0  0  0  0  0  0  0  0  0  0  0
    3.5350   -2.7200   -0.5550 C   0  0  0  0  0  0  0  0  0  0  0  0
    2.8770   -1.5230   -0.4460 C   0  0  0  0  0  0  0  0  0  0  0  0
    1.6870   -1.3060    0.1000 N   0  0  0  0  0  0  0  0  0  0  0  0
    0.6020   -0.8440    0.4800 C   0  0  0  0  0  0  0  0  0  0  0  0
   -0.3260   -1.6430    1.3370 N   0  0  0  0  0  0  0  0  0  0  0  0
   -1.3330   -1.0320    1.5750 N   0  0  0  0  0  0  0  0  0  0  0  0
   -1.3800    0.1910    1.0700 C   0  0  1  0  0  0  0  0  0  0  0  0
   -0.0640    0.3500    0.2250 C   0  0  0  0  0  0  0  0  0  0  0  0
   -0.0980    1.5890   -0.1550 C   0  0  0  0  0  0  0  0  0  0  0  0
    0.9680    2.3740   -0.5410 O   0  0  0  0  0  0  0  0  0  0  0  0
    1.7870    3.2140    0.0730 N   0  0  0  0  0  0  0  0  0  0  0  0
    2.6780    3.2170    0.9370 C   0  0  0  0  0  0  0  0  0  0  0  0
    3.3740    4.4320    1.3590 N   0  0  0  0  0  0  0  0  0  0  0  0
    3.0820    1.9770    1.5890 C   0  0  0  0  0  0  0  0  0  0  0  0
    3.6350    0.9370    0.9910 C   0  0  0  0  0  0  0  0  0  0  0  0
    3.9280    0.8910   -0.4380 C   0  0  0  0  0  0  0  0  0  0  0  0
    3.7090   -0.4470   -1.0670 C   0  0  0  0  0  0  0  0  0  0  0  0
    4.3050   -0.6460   -2.2300 C   0  0  0  0  0  0  0  0  0  0  0  0
    4.2420   -1.7800   -2.9650 F   0  0  0  0  0  0  0  0  0  0  0  0
   -1.5470    1.9880   -0.1390 C   0  0  0  0  0  0  0  0  0  0  0  0
   -2.1880    3.0220   -0.3970 O   0  0  0  0  0  0  0  0  0  0  0  0
   -2.3140    0.8040    0.2920 N   0  0  0  0  0  0  0  0  0  0  0  0
   -3.6350    0.4480   -0.0360 C   0  0  0  0  0  0  0  0  0  0  0  0
   -4.6760    1.3340    0.1280 C   0  0  0  0  0  0  0  0  0  0  0  0
   -5.9560    0.9530   -0.2010 C   0  0  0  0  0  0  0  0  0  0  0  0
   -6.2050   -0.3300   -0.7010 C   0  0  0  0  0  0  0  0  0  0  0  0
   -5.1740   -1.2270   -0.8710 C   0  0  0  0  0  0  0  0  0  0  0  0
   -5.4470   -2.5870   -1.4030 C   0  0  0  0  0  0  0  0  0  0  0  0
   -3.9060   -0.8120   -0.5320 C   0  0  0  0  0  0  0  0  0  0  0  0
  1  2  1  0
  2  3  2  3
  3  4  1  0
  3 18  1  0
  4  5  2  0
  5  6  1  0
  5  9  1  0
  6  7  2  0
  7  8  1  0
  8  9  1  0
  8 23  1  6
  9 10  2  0
 10 11  1  0
 10 21  1  0
 11 12  1  0
 12 13  2  0
 13 14  1  0
 13 15  1  0
 15 16  2  0
 16 17  1  0
 17 18  1  0
 18 19  2  3
 19 20  1  0
 21 22  2  0
 21 23  1  0
 23 24  1  0
 24 25  2  0
 24 30  1  0
 25 26  1  0
 26 27  2  0
 27 28  1  0
 28 29  1  0
 28 30  2  0
M  END
