
     RDKit          3D

 31 34  0  0  0  0  0  0  0  0999 V2000
   -4.0100    0.1830   -0.9610 O   0  0  0  0  0  0  0  0  0  0  0  0
   -4.1470    0.0950    0.2780 C   0  0  0  0  0  0  0  0  0  0  0  0
   -5.4570    0.0840    0.8220 N   0  0  0  0  0  0  0  0  0  0  0  0
   -6.6690    0.1640    0.1080 C   0  0  0  0  0  0  0  0  0  0  0  0
   -6.8350    0.2830   -1.2360 C   0  0  0  0  0  0  0  0  0  0  0  0
   -8.0820    0.3530   -1.8450 C   0  0  0  0  0  0  0  0  0  0  0  0
   -9.2420    0.3050   -1.0990 C   0  0  0  0  0  0  0  0  0  0  0  0
  -10.8300    0.3930   -1.8530 Cl  0  0  0  0  0  0  0  0  0  0  0  0
   -9.0940    0.1860    0.2650 C   0  0  0  0  0  0  0  0  0  0  0  0
   -7.8490    0.1170    0.8570 C   0  0  0  0  0  0  0  0  0  0  0  0
   -2.9600    0.0030    1.1620 C   0  0  0  0  0  0  0  0  0  0  0  0
   -2.7590    0.5490    2.4070 C   0  0  0  0  0  0  0  0  0  0  0  0
   -1.5130    0.2030    2.8470 N   0  0  0  0  0  0  0  0  0  0  0  0
   -0.9470   -0.5450    1.8960 N   0  0  0  0  0  0  0  0  0  0  0  0
   -1.8090   -0.6850    0.8530 C   0  0  0  0  0  0  0  0  0  0  0  0
   -1.6100   -1.4400   -0.4150 C   0  0  0  0  0  0  0  0  0  0  0  0
   -0.2880   -2.0290   -0.4280 N   0  0  0  0  0  0  0  0  0  0  0  0
    0.8910   -1.2110   -0.4500 C   0  0  0  0  0  0  0  0  0  0  0  0
    0.8170    0.1660   -0.5360 C   0  0  0  0  0  0  0  0  0  0  0  0
    1.9410    0.9530   -0.5580 C   0  0  0  0  0  0  0  0  0  0  0  0
    3.2160    0.3920   -0.4940 C   0  0  0  0  0  0  0  0  0  0  0  0
    3.3190   -0.9670   -0.4090 C   0  0  0  0  0  0  0  0  0  0  0  0
    4.5700   -1.6300   -0.3330 N   0  0  0  0  0  0  0  0  0  0  0  0
    5.8570   -0.9930   -0.2420 C   0  0  2  0  0  0  0  0  0  0  0  0
    5.9550   -0.1750    0.9980 C   0  0  0  0  0  0  0  0  0  0  0  0
    6.9600    0.7570    0.9950 O   0  0  0  0  0  0  0  0  0  0  0  0
    6.4690    2.0420    0.8410 C   0  0  0  0  0  0  0  0  0  0  0  0
    6.6580    2.4480   -0.6170 C   0  0  0  0  0  0  0  0  0  0  0  0
    7.3210    1.0140   -1.5030 S   0  0  0  0  0  0  0  0  0  0  0  0
    6.1430   -0.3260   -1.5380 C   0  0  0  0  0  0  0  0  0  0  0  0
    2.1460   -1.7470   -0.3880 C   0  0  0  0  0  0  0  0  0  0  0  0
  1  2  2  0
  2  3  1  0
  2 11  1  0
  3  4  1  0
  4  5  2  0
  4 10  1  0
  5  6  1  0
  6  7  2  0
  7  8  1  0
  7  9  1  0
  9 10  2  0
 11 12  2  0
 11 15  1  0
 12 13  1  0
 13 14  1  0
 14 15  2  0
 15 16  1  0
 16 17  1  0
 17 18  1  0
 18 19  2  0
 18 31  1  0
 19 20  1  0
 20 21  2  0
 21 22  1  0
 22 23  1  0
 22 31  2  0
 24 23  1  6
 24 25  1  0
 24 30  1  0
 25 26  1  0
 26 27  1  0
 27 28  1  0
 28 29  1  0
 29 30  1  0
M  CHG  1  14   1
M  END
