
     RDKit          3D

 26 28  0  0  0  0  0  0  0  0999 V2000
   -4.6940   -0.5750    1.2940 C   0  0  0  0  0  0  0  0  0  0  0  0
   -4.2180   -1.5150    0.2900 N   0  0  0  0  0  0  0  0  0  0  0  0
   -4.5860   -2.8280    0.3480 C   0  0  0  0  0  0  0  0  0  0  0  0
   -4.0440   -3.4150   -0.7670 C   0  0  0  0  0  0  0  0  0  0  0  0
   -3.3920   -2.4690   -1.4280 N   0  0  0  0  0  0  0  0  0  0  0  0
   -3.4850   -1.2560   -0.7790 C   0  0  0  0  0  0  0  0  0  0  0  0
   -2.9280   -0.0440   -1.3440 C   0  0  0  0  0  0  0  0  0  0  0  0
   -2.8180    0.1290   -2.7470 C   0  0  0  0  0  0  0  0  0  0  0  0
   -2.2190    1.3170   -2.9830 C   0  0  0  0  0  0  0  0  0  0  0  0
   -1.9560    1.8770   -1.8020 N   0  0  0  0  0  0  0  0  0  0  0  0
   -2.3750    1.0660   -0.7880 C   0  0  0  0  0  0  0  0  0  0  0  0
   -2.1740    1.3650    0.5920 N   0  0  0  0  0  0  0  0  0  0  0  0
   -1.5380    2.6220    1.0100 C   0  0  0  0  0  0  0  0  0  0  0  0
   -0.0560    2.4090    1.0560 C   0  0  2  0  0  0  0  0  0  0  0  0
    0.4490    2.0290   -0.1470 O   0  0  0  0  0  0  0  0  0  0  0  0
    0.2550    1.3690    2.1260 C   0  0  0  0  0  0  0  0  0  0  0  0
    1.6560    1.1580    2.3170 N   0  0  0  0  0  0  0  0  0  0  0  0
    2.5480    0.7220    1.2990 C   0  0  0  0  0  0  0  0  0  0  0  0
    2.8260   -0.6150    1.1150 C   0  0  0  0  0  0  0  0  0  0  0  0
    3.6750   -1.1050    0.1600 C   0  0  0  0  0  0  0  0  0  0  0  0
    4.3100   -0.2310   -0.6900 C   0  0  0  0  0  0  0  0  0  0  0  0
    5.2130   -0.6350   -1.6950 N   0  0  0  0  0  0  0  0  0  0  0  0
    5.7040   -1.9650   -1.7410 C   0  0  0  0  0  0  0  0  0  0  0  0
    6.1470   -2.5550   -0.6880 N   0  0  0  0  0  0  0  0  0  0  0  0
    4.0420    1.1360   -0.5220 C   0  0  0  0  0  0  0  0  0  0  0  0
    3.1860    1.5980    0.4440 C   0  0  0  0  0  0  0  0  0  0  0  0
  1  2  1  0
  2  3  1  0
  2  6  1  0
  3  4  2  0
  4  5  1  0
  5  6  2  0
  6  7  1  0
  7  8  1  0
  7 11  2  0
  8  9  2  0
  9 10  1  0
 10 11  1  0
 11 12  1  0
 12 13  1  0
 13 14  1  0
 14 15  1  6
 14 16  1  0
 16 17  1  0
 17 18  1  0
 18 19  2  0
 18 26  1  0
 19 20  1  0
 20 21  2  0
 21 22  1  0
 21 25  1  0
 22 23  1  0
 23 24  2  0
 25 26  2  0
M  CHG  2   5   1  24   1
M  END
