
     RDKit          3D

 26 28  0  0  0  0  0  0  0  0999 V2000
    5.8060   -3.0820    0.4250 C   0  0  0  0  0  0  0  0  0  0  0  0
    4.8430   -2.3990   -0.1640 C   0  0  0  0  0  0  0  0  0  0  0  0
    4.5690   -2.3390   -1.4870 N   0  0  0  0  0  0  0  0  0  0  0  0
    3.5170   -1.5430   -1.7110 C   0  0  0  0  0  0  0  0  0  0  0  0
    2.9290   -1.2330   -2.9880 N   0  0  0  0  0  0  0  0  0  0  0  0
    3.0810   -1.0630   -0.4970 C   0  0  0  0  0  0  0  0  0  0  0  0
    1.9590   -0.1590   -0.2580 C   0  0  0  0  0  0  0  0  0  0  0  0
    0.6660   -0.4440   -0.0230 N   0  0  0  0  0  0  0  0  0  0  0  0
   -0.0390    0.6900    0.1450 C   0  0  0  0  0  0  0  0  0  0  0  0
   -1.4530    0.9420    0.4190 C   0  0  0  0  0  0  0  0  0  0  0  0
   -2.3070   -0.2930    0.5690 C   0  0  1  0  0  0  0  0  0  0  0  0
   -1.7490   -1.0780    1.7390 C   0  0  0  0  0  0  0  0  0  0  0  0
   -2.4960   -2.2960    1.9760 N   0  0  0  0  0  0  0  0  0  0  0  0
   -3.6840    0.1610    0.9360 C   0  0  0  0  0  0  0  0  0  0  0  0
   -4.7040    0.1320   -0.1330 C   0  0  0  0  0  0  0  0  0  0  0  0
   -4.1920   -0.2630   -1.4890 C   0  0  0  0  0  0  0  0  0  0  0  0
   -3.4240   -1.4930   -1.2890 N   0  0  0  0  0  0  0  0  0  0  0  0
   -2.2050   -1.1380   -0.6500 C   0  0  0  0  0  0  0  0  0  0  0  0
    0.8510    1.6960    0.0090 N   0  0  0  0  0  0  0  0  0  0  0  0
    0.6200    3.0920    0.0960 C   0  0  0  0  0  0  0  0  0  0  0  0
    1.5790    3.9770   -0.0570 C   0  0  0  0  0  0  0  0  0  0  0  0
    1.3460    5.4220    0.0320 C   0  0  0  0  0  0  0  0  0  0  0  0
   -0.0160    5.6340    0.2950 O   0  0  0  0  0  0  0  0  0  0  0  0
    2.0360    1.1760   -0.2310 N   0  0  0  0  0  0  0  0  0  0  0  0
    3.9120   -1.6000    0.4570 C   0  0  0  0  0  0  0  0  0  0  0  0
    3.8580   -1.4050    1.7820 C   0  0  0  0  0  0  0  0  0  0  0  0
  1  2  2  0
  2  3  1  0
  2 25  1  0
  3  4  1  0
  4  5  1  0
  4  6  2  0
  6  7  1  0
  6 25  1  0
  7  8  1  0
  7 24  2  0
  8  9  2  0
  9 10  1  0
  9 19  1  0
 11 10  1  6
 11 12  1  0
 11 14  1  0
 11 18  1  0
 12 13  1  0
 14 15  1  0
 15 16  1  0
 16 17  1  0
 17 18  1  0
 19 20  1  0
 19 24  1  0
 20 21  2  3
 21 22  1  0
 22 23  1  0
 25 26  2  0
M  CHG  2  13   1  17   1
M  END
