
     RDKit          3D

 26 29  0  0  0  0  0  0  0  0999 V2000
    2.6310    5.0130   -0.9990 N   0  0  0  0  0  0  0  0  0  0  0  0
    1.4190    4.2710   -1.2320 C   0  0  0  0  0  0  0  0  0  0  0  0
    1.5950    2.8150   -0.6980 C   0  0  0  0  0  0  0  0  0  0  0  0
    0.3340    2.1100   -0.9650 C   0  0  0  0  0  0  0  0  0  0  0  0
   -0.7360    2.7150   -1.5400 C   0  0  0  0  0  0  0  0  0  0  0  0
   -1.7850    1.8220   -1.6720 N   0  0  0  0  0  0  0  0  0  0  0  0
   -1.4220    0.6270   -1.1910 C   0  0  0  0  0  0  0  0  0  0  0  0
   -2.3980   -0.4620   -1.2330 C   0  0  0  0  0  0  0  0  0  0  0  0
   -2.9670   -0.6760    0.0900 N   0  0  0  0  0  0  0  0  0  0  0  0
   -3.9510   -1.6790    0.3110 C   0  0  0  0  0  0  0  0  0  0  0  0
   -4.4950   -1.9050    1.5640 C   0  0  0  0  0  0  0  0  0  0  0  0
   -5.4360   -2.8980    1.6520 C   0  0  0  0  0  0  0  0  0  0  0  0
   -5.8130   -3.6120    0.5950 N   0  0  0  0  0  0  0  0  0  0  0  0
   -5.2910   -3.3860   -0.5750 N   0  0  0  0  0  0  0  0  0  0  0  0
   -4.3760   -2.4430   -0.7450 C   0  0  0  0  0  0  0  0  0  0  0  0
   -0.0570    0.7250   -0.7100 C   0  0  0  0  0  0  0  0  0  0  0  0
    0.6780   -0.2340   -0.1700 C   0  0  0  0  0  0  0  0  0  0  0  0
    0.1660   -1.5450    0.0180 N   0  0  0  0  0  0  0  0  0  0  0  0
    0.9640   -2.5960    0.6130 C   0  0  0  0  0  0  0  0  0  0  0  0
    0.4540   -3.7350    0.7530 O   0  0  0  0  0  0  0  0  0  0  0  0
    2.3290   -2.3620    1.0470 C   0  0  0  0  0  0  0  0  0  0  0  0
    3.2500   -3.1420    1.6100 C   0  0  0  0  0  0  0  0  0  0  0  0
    4.4700   -2.3530    1.8310 C   0  0  0  0  0  0  0  0  0  0  0  0
    4.0990   -1.0180    1.3120 C   0  0  0  0  0  0  0  0  0  0  0  0
    2.8560   -1.0330    0.8590 C   0  0  0  0  0  0  0  0  0  0  0  0
    2.0220   -0.0320    0.2660 N   0  0  0  0  0  0  0  0  0  0  0  0
  1  2  1  0
  2  3  1  0
  3  4  1  0
  4  5  2  0
  4 16  1  0
  5  6  1  0
  6  7  2  0
  7  8  1  0
  7 16  1  0
  8  9  1  0
  9 10  1  0
 10 11  2  0
 10 15  1  0
 11 12  1  0
 12 13  2  0
 13 14  1  0
 14 15  2  0
 16 17  2  3
 17 18  1  0
 17 26  1  0
 18 19  1  0
 19 20  2  0
 19 21  1  0
 21 22  2  0
 21 25  1  0
 22 23  1  0
 23 24  1  0
 24 25  2  0
 25 26  1  0
M  CHG  1   1   1
M  END
