
     RDKit          3D

 26 28  0  0  0  0  0  0  0  0999 V2000
   -5.9150   -3.7950    0.8430 N   0  0  0  0  0  0  0  0  0  0  0  0
   -5.3000   -2.5240    0.5070 C   0  0  0  0  0  0  0  0  0  0  0  0
   -3.8110   -2.6660    0.7230 C   0  0  0  0  0  0  0  0  0  0  0  0
   -3.0870   -1.4730    0.4250 N   0  0  0  0  0  0  0  0  0  0  0  0
   -3.2970   -0.2270    1.0820 C   0  0  0  0  0  0  0  0  0  0  0  0
   -4.1680   -0.1550    1.9800 O   0  0  0  0  0  0  0  0  0  0  0  0
   -2.5690    0.9500    0.7740 N   0  0  0  0  0  0  0  0  0  0  0  0
   -1.3480    1.1570    1.1390 C   0  0  0  0  0  0  0  0  0  0  0  0
   -0.6010    0.1420    1.9340 C   0  0  0  0  0  0  0  0  0  0  0  0
    0.6220   -0.3200    1.2190 C   0  0  0  0  0  0  0  0  0  0  0  0
    0.7180   -1.3620    0.3590 N   0  0  0  0  0  0  0  0  0  0  0  0
    1.9670   -1.4570   -0.0700 N   0  0  0  0  0  0  0  0  0  0  0  0
    2.6910   -0.4900    0.4980 C   0  0  0  0  0  0  0  0  0  0  0  0
    4.1560   -0.2120    0.3060 C   0  0  1  0  0  0  0  0  0  0  0  0
    4.9670   -1.4450    0.6100 C   0  0  0  0  0  0  0  0  0  0  0  0
    6.2310   -1.2500   -0.2030 C   0  0  0  0  0  0  0  0  0  0  0  0
    5.9300   -0.1900   -1.2290 C   0  0  0  0  0  0  0  0  0  0  0  0
    4.4220    0.0290   -1.1690 C   0  0  0  0  0  0  0  0  0  0  0  0
    1.8550    0.2020    1.2880 N   0  0  0  0  0  0  0  0  0  0  0  0
   -0.7780    2.3890    0.7470 N   0  0  0  0  0  0  0  0  0  0  0  0
   -0.9500    3.0020   -0.5120 C   0  0  0  0  0  0  0  0  0  0  0  0
   -1.6040    2.3290   -1.5130 C   0  0  0  0  0  0  0  0  0  0  0  0
   -1.7540    2.9870   -2.7320 C   0  0  0  0  0  0  0  0  0  0  0  0
   -1.2690    4.2610   -2.9380 C   0  0  0  0  0  0  0  0  0  0  0  0
   -0.6090    4.9460   -1.9360 C   0  0  0  0  0  0  0  0  0  0  0  0
   -0.4620    4.2990   -0.7340 C   0  0  0  0  0  0  0  0  0  0  0  0
  1  2  1  0
  2  3  1  0
  3  4  1  0
  4  5  1  0
  5  6  2  0
  5  7  1  0
  7  8  2  3
  8  9  1  0
  8 20  1  0
  9 10  1  0
 10 11  1  0
 10 19  2  0
 11 12  1  0
 12 13  2  0
 14 13  1  6
 13 19  1  0
 14 15  1  0
 14 18  1  0
 15 16  1  0
 16 17  1  0
 17 18  1  0
 20 21  1  0
 21 22  2  0
 21 26  1  0
 22 23  1  0
 23 24  2  0
 24 25  1  0
 25 26  2  0
M  CHG  2   1   1  19   1
M  END
