
     RDKit          3D

 26 28  0  0  0  0  0  0  0  0999 V2000
   -6.5720    1.8440   -0.1870 C   0  0  0  0  0  0  0  0  0  0  0  0
   -7.5480    0.7080   -0.4820 C   0  0  0  0  0  0  0  0  0  0  0  0
   -7.0240   -0.5060    0.2320 C   0  0  1  0  0  0  0  0  0  0  0  0
   -7.8280   -1.6750    0.0540 N   0  0  0  0  0  0  0  0  0  0  0  0
   -5.6440   -0.7780   -0.2710 C   0  0  0  0  0  0  0  0  0  0  0  0
   -4.5130   -0.3670    0.3530 N   0  0  0  0  0  0  0  0  0  0  0  0
   -3.4620   -0.7820   -0.3620 C   0  0  0  0  0  0  0  0  0  0  0  0
   -2.0770   -0.5190   -0.0280 C   0  0  0  0  0  0  0  0  0  0  0  0
   -1.7900    0.6870    0.4260 C   0  0  0  0  0  0  0  0  0  0  0  0
   -2.7670    1.6970    0.5910 N   0  0  0  0  0  0  0  0  0  0  0  0
   -0.4110    0.9900    0.7710 C   0  0  0  0  0  0  0  0  0  0  0  0
    0.6780    0.1180    0.6970 C   0  0  0  0  0  0  0  0  0  0  0  0
    1.7970    0.7980    1.1090 C   0  0  0  0  0  0  0  0  0  0  0  0
    3.1750    0.3130    1.2170 C   0  0  0  0  0  0  0  0  0  0  0  0
    3.9070    0.1620    0.0290 N   0  0  0  0  0  0  0  0  0  0  0  0
    3.4440   -0.7610   -0.9450 C   0  0  0  0  0  0  0  0  0  0  0  0
    4.6970   -1.4900   -1.4660 C   0  0  0  0  0  0  0  0  0  0  0  0
    5.6780   -1.5720   -0.3410 C   0  0  0  0  0  0  0  0  0  0  0  0
    6.4010   -0.3820   -0.0470 N   0  0  1  0  0  0  0  0  0  0  0  0
    7.8130   -0.6210   -0.2480 C   0  0  0  0  0  0  0  0  0  0  0  0
    6.0230    0.7640   -0.8440 C   0  0  0  0  0  0  0  0  0  0  0  0
    4.6400    1.2680   -0.4690 C   0  0  0  0  0  0  0  0  0  0  0  0
    1.3440    2.0840    1.4260 C   0  0  0  0  0  0  0  0  0  0  0  0
    0.0630    2.1310    1.2110 O   0  0  0  0  0  0  0  0  0  0  0  0
   -3.9410   -1.4430   -1.4180 N   0  0  0  0  0  0  0  0  0  0  0  0
   -5.2810   -1.4420   -1.3650 N   0  0  0  0  0  0  0  0  0  0  0  0
  1  2  1  0
  2  3  1  0
  3  4  1  6
  3  5  1  0
  5  6  2  0
  5 26  1  0
  6  7  1  0
  7  8  1  0
  7 25  2  0
  8  9  2  3
  9 10  1  0
  9 11  1  0
 11 12  2  0
 11 24  1  0
 12 13  1  0
 13 14  1  0
 13 23  2  0
 14 15  1  0
 15 16  1  0
 15 22  1  0
 16 17  1  0
 17 18  1  0
 18 19  1  0
 19 20  1  6
 19 21  1  0
 21 22  1  0
 23 24  1  0
 25 26  1  0
M  CHG  2   4   1  19   1
M  END
