
     RDKit          3D

 31 32  0  0  0  0  0  0  0  0999 V2000
    4.1200   -1.0770   -3.1000 C   0  0  0  0  0  0  0  0  0  0  0  0
    3.8890   -1.3890   -1.7550 O   0  0  0  0  0  0  0  0  0  0  0  0
    3.3000   -0.4260   -0.8990 C   0  0  0  0  0  0  0  0  0  0  0  0
    3.0330    0.6500   -1.4390 O   0  0  0  0  0  0  0  0  0  0  0  0
    3.0870   -0.8240    0.4960 C   0  0  1  0  0  0  0  0  0  0  0  0
    4.3900   -1.2430    1.1150 C   0  0  0  0  0  0  0  0  0  0  0  0
    5.1950   -0.1590    1.7310 C   0  0  0  0  0  0  0  0  0  0  0  0
    4.4370    0.7360    2.4830 O   0  0  0  0  0  0  0  0  0  0  0  0
    3.4110    1.2930    1.6710 C   0  0  1  0  0  0  0  0  0  0  0  0
    4.0930    1.8050    0.5770 O   0  0  0  0  0  0  0  0  0  0  0  0
    2.4510    0.1990    1.3880 C   0  0  2  0  0  0  0  0  0  0  0  0
    2.3060   -0.4830    2.6380 O   0  0  0  0  0  0  0  0  0  0  0  0
    1.0890    0.6660    0.9150 C   0  0  2  0  0  0  0  0  0  0  0  0
    0.5380    1.6620    1.8710 C   0  0  0  0  0  0  0  0  0  0  0  0
   -0.8320    1.9980    1.7420 N   0  0  0  0  0  0  0  0  0  0  0  0
   -1.3870    2.0880    0.4480 C   0  0  0  0  0  0  0  0  0  0  0  0
   -2.8700    1.7780    0.4420 C   0  0  1  0  0  0  0  0  0  0  0  0
   -3.5600    2.9780    0.5930 O   0  0  0  0  0  0  0  0  0  0  0  0
   -3.3020    1.0630   -0.7610 C   0  0  0  0  0  0  0  0  0  0  0  0
   -3.6220    1.9370   -1.9550 C   0  0  0  0  0  0  0  0  0  0  0  0
   -4.6570    2.8040   -1.5950 O   0  0  0  0  0  0  0  0  0  0  0  0
   -3.4170   -0.2500   -0.8370 C   0  0  0  0  0  0  0  0  0  0  0  0
   -3.8420   -0.7520   -2.0640 O   0  0  0  0  0  0  0  0  0  0  0  0
   -3.1440   -1.2220    0.2310 C   0  0  1  0  0  0  0  0  0  0  0  0
   -4.3530   -2.1720    0.2560 C   0  0  0  0  0  0  0  0  0  0  0  0
   -4.4930   -2.8100   -0.9590 O   0  0  0  0  0  0  0  0  0  0  0  0
   -1.9190   -2.0600   -0.0100 C   0  0  1  0  0  0  0  0  0  0  0  0
   -2.2760   -3.3390   -0.4410 O   0  0  0  0  0  0  0  0  0  0  0  0
   -0.9390   -1.4780   -0.9460 C   0  0  0  0  0  0  0  0  0  0  0  0
    0.2520   -1.0710   -0.3910 O   0  0  0  0  0  0  0  0  0  0  0  0
    0.2100   -0.5860    0.8770 C   0  0  0  0  0  0  0  0  0  0  0  0
  1  2  1  0
  2  3  1  0
  3  4  2  0
  5  3  1  6
  5  6  1  0
  5 11  1  0
  6  7  1  0
  7  8  1  0
  8  9  1  0
  9 10  1  6
  9 11  1  0
 11 12  1  1
 11 13  1  0
 13 14  1  1
 13 31  1  0
 14 15  1  0
 15 16  1  0
 16 17  1  0
 17 18  1  6
 17 19  1  0
 19 20  1  0
 19 22  2  0
 20 21  1  0
 22 23  1  0
 22 24  1  0
 24 25  1  6
 24 27  1  0
 25 26  1  0
 27 28  1  6
 27 29  1  0
 29 30  1  0
 30 31  1  0
M  CHG  1  15   1
M  END
