
     RDKit          3D

 31 33  0  0  0  0  0  0  0  0999 V2000
   -2.8940   -1.1210    1.5970 N   0  0  0  0  0  0  0  0  0  0  0  0
   -2.2880   -0.7070    0.3600 C   0  0  2  0  0  0  0  0  0  0  0  0
   -3.1260   -0.0870   -0.6640 C   0  0  1  0  0  0  0  0  0  0  0  0
   -4.1990   -0.8150   -1.1520 O   0  0  0  0  0  0  0  0  0  0  0  0
   -3.6690    1.2780   -0.3900 C   0  0  1  0  0  0  0  0  0  0  0  0
   -4.5090    1.7170   -1.6030 C   0  0  0  0  0  0  0  0  0  0  0  0
   -5.0340    2.9890   -1.3880 O   0  0  0  0  0  0  0  0  0  0  0  0
   -4.6030    1.3360    0.7940 C   0  0  0  0  0  0  0  0  0  0  0  0
   -3.9610    2.1220    1.7430 O   0  0  0  0  0  0  0  0  0  0  0  0
   -2.9870    2.8010    1.1540 O   0  0  0  0  0  0  0  0  0  0  0  0
   -2.7270    2.3250   -0.1170 C   0  0  0  0  0  0  0  0  0  0  0  0
   -1.8200    2.7660   -0.8510 O   0  0  0  0  0  0  0  0  0  0  0  0
   -1.2430   -1.6990   -0.0490 C   0  0  1  0  0  0  0  0  0  0  0  0
   -1.6190   -3.0940   -0.2690 C   0  0  0  0  0  0  0  0  0  0  0  0
   -2.6030   -3.5180   -1.2670 C   0  0  0  0  0  0  0  0  0  0  0  0
   -2.3390   -3.1750   -2.5810 O   0  0  0  0  0  0  0  0  0  0  0  0
   -0.2480   -1.1460   -1.0420 C   0  0  2  0  0  0  0  0  0  0  0  0
    0.6500   -2.2100   -1.3090 O   0  0  0  0  0  0  0  0  0  0  0  0
    0.6270   -0.0860   -0.3900 C   0  0  2  0  0  0  0  0  0  0  0  0
    1.7150    0.2460   -1.3930 C   0  0  0  0  0  0  0  0  0  0  0  0
    2.9390   -0.4700   -0.8230 C   0  0  0  0  0  0  0  0  0  0  0  0
    2.5760   -0.5710    0.6220 C   0  0  1  0  0  0  0  0  0  0  0  0
    3.3220    0.4030    1.4940 C   0  0  2  0  0  0  0  0  0  0  0  0
    3.0870    1.8310    1.1320 C   0  0  0  0  0  0  0  0  0  0  0  0
    3.7660    2.6240    2.0600 O   0  0  0  0  0  0  0  0  0  0  0  0
    5.1310    2.5430    1.9580 C   0  0  0  0  0  0  0  0  0  0  0  0
    5.6400    1.3320    1.2470 C   0  0  2  0  0  0  0  0  0  0  0  0
    5.9100    1.6420   -0.0940 O   0  0  0  0  0  0  0  0  0  0  0  0
    4.7990    0.1130    1.4090 C   0  0  1  0  0  0  0  0  0  0  0  0
    5.1860   -0.5510    2.5850 O   0  0  0  0  0  0  0  0  0  0  0  0
    1.2180   -0.5160    0.7600 O   0  0  0  0  0  0  0  0  0  0  0  0
  2  1  1  1
  2  3  1  0
  2 13  1  0
  3  4  1  1
  3  5  1  0
  5  6  1  6
  5  8  1  0
  5 11  1  0
  6  7  1  0
  8  9  1  0
  9 10  1  0
 10 11  1  0
 11 12  2  0
 13 14  1  6
 13 17  1  0
 14 15  1  0
 15 16  1  0
 17 18  1  1
 17 19  1  0
 19 20  1  6
 19 31  1  0
 20 21  1  0
 22 21  1  6
 22 23  1  0
 22 31  1  0
 23 24  1  6
 23 29  1  0
 24 25  1  0
 25 26  1  0
 26 27  1  0
 27 28  1  6
 27 29  1  0
 29 30  1  1
M  CHG  1   1   1
M  END
