
     RDKit          3D

 32 35  0  0  0  0  0  0  0  0999 V2000
    4.2580   -2.3450   -2.9310 C   0  0  0  0  0  0  0  0  0  0  0  0
    4.0830   -1.4330   -1.7560 C   0  0  0  0  0  0  0  0  0  0  0  0
    5.2060   -0.9390   -1.1330 C   0  0  0  0  0  0  0  0  0  0  0  0
    5.0480   -0.1010   -0.0540 C   0  0  0  0  0  0  0  0  0  0  0  0
    6.0840    0.4410    0.6270 O   0  0  0  0  0  0  0  0  0  0  0  0
    7.4420    0.3920    0.5150 C   0  0  0  0  0  0  0  0  0  0  0  0
    8.0730    0.9340   -0.7200 C   0  0  0  0  0  0  0  0  0  0  0  0
    9.4610    0.7630   -0.5720 F   0  0  0  0  0  0  0  0  0  0  0  0
    3.7420    0.2250    0.3820 C   0  0  0  0  0  0  0  0  0  0  0  0
    2.6260   -0.2600   -0.2290 C   0  0  0  0  0  0  0  0  0  0  0  0
    1.2470    0.0610    0.2140 C   0  0  0  0  0  0  0  0  0  0  0  0
    0.3350   -0.2450   -0.6100 O   0  0  0  0  0  0  0  0  0  0  0  0
    0.9870    0.6580    1.4560 N   0  0  0  0  0  0  0  0  0  0  0  0
   -0.2970    0.9840    1.9080 C   0  0  0  0  0  0  0  0  0  0  0  0
   -0.4510    1.3090    3.2660 C   0  0  0  0  0  0  0  0  0  0  0  0
   -1.6460    1.6610    3.8330 C   0  0  0  0  0  0  0  0  0  0  0  0
   -2.7750    1.7040    3.0440 C   0  0  0  0  0  0  0  0  0  0  0  0
   -2.6900    1.3960    1.7080 C   0  0  0  0  0  0  0  0  0  0  0  0
   -3.8360    1.4100    0.7680 C   0  0  0  0  0  0  0  0  0  0  0  0
   -4.5370    0.0810    0.6920 C   0  0  2  0  0  0  0  0  0  0  0  0
   -3.6330   -0.9370    0.2480 N   0  0  0  0  0  0  0  0  0  0  0  0
   -3.9060   -1.8810   -0.5380 C   0  0  0  0  0  0  0  0  0  0  0  0
   -5.2460   -2.0770   -1.1340 C   0  0  2  0  0  0  0  0  0  0  0  0
   -5.1390   -2.5220   -2.4370 F   0  0  0  0  0  0  0  0  0  0  0  0
   -6.0160   -0.8040   -1.1120 C   0  0  0  0  0  0  0  0  0  0  0  0
   -7.0690   -0.4280   -1.8380 N   0  0  0  0  0  0  0  0  0  0  0  0
   -7.4620    0.8320   -1.4880 C   0  0  0  0  0  0  0  0  0  0  0  0
   -8.4840    1.5470   -1.9990 F   0  0  0  0  0  0  0  0  0  0  0  0
   -6.5930    1.2310   -0.4950 C   0  0  0  0  0  0  0  0  0  0  0  0
   -5.6820    0.2270   -0.2430 C   0  0  0  0  0  0  0  0  0  0  0  0
   -1.4400    1.0420    1.1710 C   0  0  0  0  0  0  0  0  0  0  0  0
    2.8290   -1.0990   -1.3110 C   0  0  0  0  0  0  0  0  0  0  0  0
  1  2  1  0
  2  3  2  0
  2 32  1  0
  3  4  1  0
  4  5  1  0
  4  9  2  0
  5  6  1  0
  6  7  1  0
  7  8  1  0
  9 10  1  0
 10 11  1  0
 10 32  2  0
 11 12  2  0
 11 13  1  0
 13 14  1  0
 14 15  2  0
 14 31  1  0
 15 16  1  0
 16 17  2  0
 17 18  1  0
 18 19  1  0
 18 31  2  0
 20 19  1  6
 20 21  1  0
 20 30  1  0
 21 22  2  0
 22 23  1  0
 23 24  1  6
 23 25  1  0
 25 26  1  0
 25 30  2  0
 26 27  1  0
 27 28  1  0
 27 29  2  0
 29 30  1  0
M  END
