
     RDKit          3D

 31 32  0  0  0  0  0  0  0  0999 V2000
   -3.6950   -0.7490    3.0390 N   0  0  0  0  0  0  0  0  0  0  0  0
   -3.3310   -0.8070    1.9090 C   0  0  0  0  0  0  0  0  0  0  0  0
   -2.8750   -0.8570    0.5280 C   0  0  2  0  0  0  0  0  0  0  0  0
   -3.9540   -1.5620   -0.2600 C   0  0  0  0  0  0  0  0  0  0  0  0
   -5.1470   -0.8060   -0.1320 O   0  0  0  0  0  0  0  0  0  0  0  0
   -1.5500   -1.5350    0.4930 C   0  0  1  0  0  0  0  0  0  0  0  0
   -1.0190   -1.6530    1.7810 O   0  0  0  0  0  0  0  0  0  0  0  0
   -1.5160   -2.8770   -0.1450 C   0  0  0  0  0  0  0  0  0  0  0  0
   -0.3290   -3.0680   -1.0680 C   0  0  1  0  0  0  0  0  0  0  0  0
   -0.3200   -2.2100   -2.1410 O   0  0  0  0  0  0  0  0  0  0  0  0
    0.9840   -2.9020   -0.3370 C   0  0  0  0  0  0  0  0  0  0  0  0
    1.4040   -1.5860   -0.5390 O   0  0  0  0  0  0  0  0  0  0  0  0
    2.5100   -1.2350    0.2000 C   0  0  1  0  0  0  0  0  0  0  0  0
    3.7950   -1.5770   -0.5250 C   0  0  0  0  0  0  0  0  0  0  0  0
    4.6250   -0.4710   -0.6840 O   0  0  0  0  0  0  0  0  0  0  0  0
    4.9530    0.0020    0.5740 C   0  0  1  0  0  0  0  0  0  0  0  0
    5.9380    0.9920    0.4110 O   0  0  0  0  0  0  0  0  0  0  0  0
    3.7580    0.5850    1.2820 C   0  0  2  0  0  0  0  0  0  0  0  0
    3.7390    0.1220    2.6140 O   0  0  0  0  0  0  0  0  0  0  0  0
    2.4590    0.2170    0.6220 C   0  0  1  0  0  0  0  0  0  0  0  0
    2.2240    1.1470   -0.5380 C   0  0  0  0  0  0  0  0  0  0  0  0
    1.5930    2.3920   -0.0200 C   0  0  0  0  0  0  0  0  0  0  0  0
    2.3950    3.2730    0.3890 O   0  0  0  0  0  0  0  0  0  0  0  0
    0.2550    2.6390    0.0420 O   0  0  0  0  0  0  0  0  0  0  0  0
   -0.7900    1.8990   -0.5600 C   0  0  2  0  0  0  0  0  0  0  0  0
   -1.5390    2.8400   -1.4600 C   0  0  0  0  0  0  0  0  0  0  0  0
   -2.0920    3.9850   -0.6890 C   0  0  0  0  0  0  0  0  0  0  0  0
   -2.7620    4.8280   -1.6050 O   0  0  0  0  0  0  0  0  0  0  0  0
   -1.6810    1.3650    0.5040 C   0  0  0  0  0  0  0  0  0  0  0  0
   -2.8410    0.5720    0.0360 C   0  0  2  0  0  0  0  0  0  0  0  0
   -4.0180    1.2300    0.3820 O   0  0  0  0  0  0  0  0  0  0  0  0
  1  2  3  0
  3  2  1  1
  3  4  1  0
  3  6  1  0
  3 30  1  0
  4  5  1  0
  6  7  1  1
  6  8  1  0
  8  9  1  0
  9 10  1  6
  9 11  1  0
 11 12  1  0
 12 13  1  0
 13 14  1  6
 13 20  1  0
 14 15  1  0
 15 16  1  0
 16 17  1  6
 16 18  1  0
 18 19  1  1
 18 20  1  0
 20 21  1  6
 21 22  1  0
 22 23  2  0
 22 24  1  0
 24 25  1  0
 25 26  1  6
 25 29  1  0
 26 27  1  0
 27 28  1  0
 29 30  1  0
 30 31  1  1
M  END
