
     RDKit          3D

 31 32  0  0  0  0  0  0  0  0999 V2000
   -5.0520    3.2750   -0.1720 C   0  0  0  0  0  0  0  0  0  0  0  0
   -4.2780    2.3370    0.5780 O   0  0  0  0  0  0  0  0  0  0  0  0
   -2.9710    2.0380    0.2140 C   0  0  0  0  0  0  0  0  0  0  0  0
   -2.5140    2.6360   -0.8040 O   0  0  0  0  0  0  0  0  0  0  0  0
   -2.1350    1.0610    0.9800 C   0  0  1  0  0  0  0  0  0  0  0  0
   -1.9060    1.5800    2.3990 C   0  0  0  0  0  0  0  0  0  0  0  0
   -3.1110    1.6750    3.0580 O   0  0  0  0  0  0  0  0  0  0  0  0
   -2.9140   -0.2050    1.0950 C   0  0  0  0  0  0  0  0  0  0  0  0
   -3.3550   -0.7800   -0.2060 C   0  0  0  0  0  0  0  0  0  0  0  0
   -3.5200   -2.1200   -0.2810 O   0  0  0  0  0  0  0  0  0  0  0  0
   -2.5160   -2.9540    0.0710 C   0  0  0  0  0  0  0  0  0  0  0  0
   -1.5520   -3.3520   -1.0250 C   0  0  1  0  0  0  0  0  0  0  0  0
   -1.5110   -2.4910   -2.0920 O   0  0  0  0  0  0  0  0  0  0  0  0
   -0.2290   -3.6700   -0.3980 C   0  0  0  0  0  0  0  0  0  0  0  0
    0.8830   -2.7040   -0.7140 C   0  0  2  0  0  0  0  0  0  0  0  0
    1.9360   -3.0380    0.1260 O   0  0  0  0  0  0  0  0  0  0  0  0
    0.4860   -1.2640   -0.6870 C   0  0  0  0  0  0  0  0  0  0  0  0
    1.2160   -0.3720    0.2410 C   0  0  1  0  0  0  0  0  0  0  0  0
    1.9720   -1.1340    1.1200 O   0  0  0  0  0  0  0  0  0  0  0  0
    2.1270    0.6270   -0.4270 C   0  0  1  0  0  0  0  0  0  0  0  0
    2.8640    1.4520    0.5860 C   0  0  2  0  0  0  0  0  0  0  0  0
    2.4750    2.9200    0.5800 C   0  0  0  0  0  0  0  0  0  0  0  0
    2.8820    3.5580   -0.6010 O   0  0  0  0  0  0  0  0  0  0  0  0
    4.2320    1.4540    0.4800 O   0  0  0  0  0  0  0  0  0  0  0  0
    4.8040    0.3050    0.0030 C   0  0  0  0  0  0  0  0  0  0  0  0
    4.4110    0.2420   -1.4540 C   0  0  1  0  0  0  0  0  0  0  0  0
    5.0620   -0.7440   -2.1590 O   0  0  0  0  0  0  0  0  0  0  0  0
    2.9260    0.0360   -1.5230 C   0  0  2  0  0  0  0  0  0  0  0  0
    2.5650    0.5880   -2.7830 O   0  0  0  0  0  0  0  0  0  0  0  0
    0.1880    0.3730    1.1130 C   0  0  0  0  0  0  0  0  0  0  0  0
   -0.8570    0.9840    0.3550 N   0  0  0  0  0  0  0  0  0  0  0  0
  1  2  1  0
  2  3  1  0
  3  4  2  0
  3  5  1  0
  5  6  1  1
  5  8  1  0
  5 31  1  0
  6  7  1  0
  8  9  1  0
  9 10  1  0
 10 11  1  0
 11 12  1  0
 12 13  1  6
 12 14  1  0
 14 15  1  0
 15 16  1  1
 15 17  1  0
 17 18  1  0
 18 19  1  1
 20 18  1  1
 18 30  1  0
 20 21  1  0
 20 28  1  0
 21 22  1  6
 21 24  1  0
 22 23  1  0
 24 25  1  0
 25 26  1  0
 26 27  1  1
 26 28  1  0
 28 29  1  6
 30 31  1  0
M  CHG  1  31   1
M  END
