
     RDKit          3D

 32 35  0  0  0  0  0  0  0  0999 V2000
    8.7040    2.0980    0.5070 F   0  0  0  0  0  0  0  0  0  0  0  0
    7.7740    1.8850   -0.5170 C   0  0  1  0  0  0  0  0  0  0  0  0
    7.1520    3.1010   -0.7310 F   0  0  0  0  0  0  0  0  0  0  0  0
    8.4730    1.4700   -1.6290 F   0  0  0  0  0  0  0  0  0  0  0  0
    6.7350    0.9010   -0.1840 C   0  0  0  0  0  0  0  0  0  0  0  0
    5.7460    1.2890    0.7120 C   0  0  0  0  0  0  0  0  0  0  0  0
    4.7840    0.4150    1.1010 C   0  0  0  0  0  0  0  0  0  0  0  0
    4.7510   -0.8990    0.6150 C   0  0  0  0  0  0  0  0  0  0  0  0
    3.5190   -1.9400    1.2510 S   0  0  0  0  0  0  0  0  0  0  0  0
    1.9930   -2.2210    0.4660 C   0  0  0  0  0  0  0  0  0  0  0  0
    1.0580   -1.0860    0.1950 C   0  0  2  0  0  0  0  0  0  0  0  0
    0.6580   -0.2960    1.4510 C   0  0  0  0  0  0  0  0  0  0  0  0
   -0.3520    0.4350    0.7680 O   0  0  0  0  0  0  0  0  0  0  0  0
   -1.1470   -0.4880    0.1820 C   0  0  1  0  0  0  0  0  0  0  0  0
   -2.1640   -0.9300    1.1880 C   0  0  0  0  0  0  0  0  0  0  0  0
   -2.8960    0.1810    1.8180 C   0  0  0  0  0  0  0  0  0  0  0  0
   -3.6340    1.1500    1.0320 C   0  0  0  0  0  0  0  0  0  0  0  0
   -4.9410    0.9350    0.6740 C   0  0  0  0  0  0  0  0  0  0  0  0
   -5.6540    1.8700   -0.0620 C   0  0  0  0  0  0  0  0  0  0  0  0
   -5.0510    3.0770   -0.4650 C   0  0  0  0  0  0  0  0  0  0  0  0
   -5.9440    4.2710   -1.3920 Cl  0  0  0  0  0  0  0  0  0  0  0  0
   -3.7530    3.2930   -0.1070 C   0  0  0  0  0  0  0  0  0  0  0  0
   -3.0670    2.3630    0.6140 C   0  0  0  0  0  0  0  0  0  0  0  0
   -1.6770   -0.2810   -1.1970 C   0  0  0  0  0  0  0  0  0  0  0  0
   -2.5030   -1.4510   -1.5300 N   0  0  0  0  0  0  0  0  0  0  0  0
   -3.8240   -1.6030   -1.4870 C   0  0  0  0  0  0  0  0  0  0  0  0
   -4.1620   -2.9390   -1.7840 C   0  0  0  0  0  0  0  0  0  0  0  0
   -3.0140   -3.5590   -2.0070 N   0  0  0  0  0  0  0  0  0  0  0  0
   -2.0000   -2.6580   -1.8510 C   0  0  0  0  0  0  0  0  0  0  0  0
   -0.2480   -1.6150   -0.0520 O   0  0  0  0  0  0  0  0  0  0  0  0
    5.7180   -1.2640   -0.2590 N   0  0  0  0  0  0  0  0  0  0  0  0
    6.6780   -0.3870   -0.6450 C   0  0  0  0  0  0  0  0  0  0  0  0
  2  1  1  1
  2  3  1  0
  2  4  1  0
  2  5  1  0
  5  6  2  0
  5 32  1  0
  6  7  1  0
  7  8  2  0
  8  9  1  0
  8 31  1  0
  9 10  1  0
 11 10  1  1
 11 12  1  0
 11 30  1  0
 12 13  1  0
 13 14  1  0
 14 15  1  1
 14 24  1  0
 14 30  1  0
 15 16  1  0
 16 17  1  0
 17 18  2  0
 17 23  1  0
 18 19  1  0
 19 20  2  0
 20 21  1  0
 20 22  1  0
 22 23  2  0
 24 25  1  0
 25 26  1  0
 25 29  1  0
 26 27  2  0
 27 28  1  0
 28 29  2  0
 31 32  2  0
M  END
