
     RDKit          3D

 19 20  0  0  0  0  0  0  0  0999 V2000
   -4.7880   -1.3820   -0.2230 N   0  0  0  0  0  0  0  0  0  0  0  0
   -3.5430   -1.1250   -0.3460 C   0  0  0  0  0  0  0  0  0  0  0  0
   -2.1820   -0.8490   -0.5050 C   0  0  0  0  0  0  0  0  0  0  0  0
   -1.6360   -1.5690   -1.5460 C   0  0  0  0  0  0  0  0  0  0  0  0
   -2.4610   -2.4560   -2.3330 N   0  0  0  0  0  0  0  0  0  0  0  0
   -0.2580   -1.3820   -1.6870 N   0  0  0  0  0  0  0  0  0  0  0  0
    0.5030   -0.5410   -0.8330 C   0  0  0  0  0  0  0  0  0  0  0  0
    1.8140   -0.8660   -1.0570 C   0  0  0  0  0  0  0  0  0  0  0  0
    2.8040   -0.0750   -0.2880 C   0  0  0  0  0  0  0  0  0  0  0  0
    3.8160    0.5080    0.2630 C   0  0  0  0  0  0  0  0  0  0  0  0
    5.1690    0.2310   -0.1190 C   0  0  0  0  0  0  0  0  0  0  0  0
    5.1690   -0.7520   -1.1270 O   0  0  0  0  0  0  0  0  0  0  0  0
   -0.0920    0.1670    0.1820 N   0  0  0  0  0  0  0  0  0  0  0  0
   -1.4460    0.0210    0.3650 C   0  0  0  0  0  0  0  0  0  0  0  0
   -2.0980    0.8630    1.3660 C   0  0  0  0  0  0  0  0  0  0  0  0
   -3.2910    0.7100    1.9630 C   0  0  0  0  0  0  0  0  0  0  0  0
   -3.5810    1.7770    2.7640 C   0  0  0  0  0  0  0  0  0  0  0  0
   -2.4700    2.6610    2.6330 C   0  0  0  0  0  0  0  0  0  0  0  0
   -1.6070    2.0470    1.7710 N   0  0  0  0  0  0  0  0  0  0  0  0
  1  2  3  0
  2  3  1  0
  3  4  2  0
  3 14  1  0
  4  5  1  0
  4  6  1  0
  6  7  1  0
  7  8  2  3
  7 13  1  0
  8  9  1  0
  9 10  2  3
 10 11  1  0
 11 12  1  0
 13 14  2  0
 14 15  1  0
 15 16  2  0
 15 19  1  0
 16 17  1  0
 17 18  2  0
 18 19  1  0
M  CHG  1  13   1
M  END
