
     RDKit          3D

 19 21  0  0  0  0  0  0  0  0999 V2000
   -1.1150   -1.9970   -0.0230 N   0  0  0  0  0  0  0  0  0  0  0  0
   -1.4350   -0.6140   -0.0170 C   0  0  0  0  0  0  0  0  0  0  0  0
   -0.5560    0.4240    0.0840 C   0  0  0  0  0  0  0  0  0  0  0  0
    0.8780    0.1860    0.1820 C   0  0  0  0  0  0  0  0  0  0  0  0
    1.4000   -1.0150    0.5920 C   0  0  0  0  0  0  0  0  0  0  0  0
    2.7880   -1.2160    0.6100 C   0  0  0  0  0  0  0  0  0  0  0  0
    3.6750   -0.2420    0.2270 C   0  0  0  0  0  0  0  0  0  0  0  0
    5.0850   -0.4140    0.2340 N   0  0  0  0  0  0  0  0  0  0  0  0
    3.1520    0.9590   -0.1810 C   0  0  0  0  0  0  0  0  0  0  0  0
    1.7720    1.1910   -0.2110 C   0  0  0  0  0  0  0  0  0  0  0  0
   -0.9990    1.7190    0.0360 N   0  0  0  0  0  0  0  0  0  0  0  0
   -2.2970    2.0120   -0.1100 C   0  0  0  0  0  0  0  0  0  0  0  0
   -2.6350    3.2290   -0.1470 O   0  0  0  0  0  0  0  0  0  0  0  0
   -3.1820    0.9840   -0.2100 C   0  0  0  0  0  0  0  0  0  0  0  0
   -4.5380    1.2900   -0.3610 C   0  0  0  0  0  0  0  0  0  0  0  0
   -5.4080    0.2650   -0.4590 N   0  0  0  0  0  0  0  0  0  0  0  0
   -5.0380   -1.0090   -0.4200 N   0  0  0  0  0  0  0  0  0  0  0  0
   -3.7440   -1.3450   -0.2750 C   0  0  0  0  0  0  0  0  0  0  0  0
   -2.8120   -0.3370   -0.1700 C   0  0  0  0  0  0  0  0  0  0  0  0
  1  2  1  0
  2  3  2  0
  2 19  1  0
  3  4  1  0
  3 11  1  0
  4  5  2  0
  4 10  1  0
  5  6  1  0
  6  7  2  0
  7  8  1  0
  7  9  1  0
  9 10  2  0
 11 12  1  0
 12 13  2  0
 12 14  1  0
 14 15  2  0
 14 19  1  0
 15 16  1  0
 16 17  2  0
 17 18  1  0
 18 19  2  0
M  CHG  1   8   1
M  END
