
     RDKit          3D

 19 21  0  0  0  0  0  0  0  0999 V2000
    3.7150    1.7190   -0.3730 N   0  0  0  0  0  0  0  0  0  0  0  0
    2.6400    0.9620    0.2360 C   0  0  0  0  0  0  0  0  0  0  0  0
    2.7310   -0.4860   -0.1710 C   0  0  0  0  0  0  0  0  0  0  0  0
    3.6600   -1.0210   -0.9760 N   0  0  0  0  0  0  0  0  0  0  0  0
    3.4140   -2.3570   -1.1100 C   0  0  0  0  0  0  0  0  0  0  0  0
    2.2920   -2.6340   -0.3560 C   0  0  0  0  0  0  0  0  0  0  0  0
    1.8590   -1.4680    0.2350 C   0  0  0  0  0  0  0  0  0  0  0  0
    0.7540   -1.2500    1.0940 N   0  0  0  0  0  0  0  0  0  0  0  0
   -0.3550   -0.7090    0.6510 C   0  0  0  0  0  0  0  0  0  0  0  0
   -0.4810   -0.3420   -0.6380 N   0  0  0  0  0  0  0  0  0  0  0  0
   -1.5780    0.2130   -1.1570 C   0  0  0  0  0  0  0  0  0  0  0  0
   -1.6570    0.5440   -2.3730 O   0  0  0  0  0  0  0  0  0  0  0  0
   -2.6540    0.4290   -0.3340 C   0  0  0  0  0  0  0  0  0  0  0  0
   -3.8220    1.0000   -0.8070 C   0  0  0  0  0  0  0  0  0  0  0  0
   -4.8660    1.1900    0.0700 C   0  0  0  0  0  0  0  0  0  0  0  0
   -4.7850    0.8290    1.4050 C   0  0  0  0  0  0  0  0  0  0  0  0
   -3.6070    0.2640    1.8370 C   0  0  0  0  0  0  0  0  0  0  0  0
   -2.5300    0.0530    0.9940 C   0  0  0  0  0  0  0  0  0  0  0  0
   -1.4010   -0.5010    1.4570 N   0  0  0  0  0  0  0  0  0  0  0  0
  1  2  1  0
  2  3  1  0
  3  4  1  0
  3  7  2  0
  4  5  1  0
  5  6  2  0
  6  7  1  0
  7  8  1  0
  8  9  2  3
  9 10  1  0
  9 19  1  0
 10 11  1  0
 11 12  2  0
 11 13  1  0
 13 14  2  0
 13 18  1  0
 14 15  1  0
 15 16  2  0
 16 17  1  0
 17 18  2  0
 18 19  1  0
M  CHG  1   1   1
M  END
