
     RDKit          3D

 19 21  0  0  0  0  0  0  0  0999 V2000
    2.0230   -3.2420   -0.5860 N   0  0  0  0  0  0  0  0  0  0  0  0
    2.0890   -1.8300   -0.5020 C   0  0  0  0  0  0  0  0  0  0  0  0
    3.2600   -1.1480   -0.6380 N   0  0  0  0  0  0  0  0  0  0  0  0
    3.3190    0.1940   -0.5580 C   0  0  0  0  0  0  0  0  0  0  0  0
    4.5770    0.9450   -0.7020 C   0  0  0  0  0  0  0  0  0  0  0  0
    5.1830    1.0900    0.6150 N   0  0  0  0  0  0  0  0  0  0  0  0
    2.1750    0.8680   -0.3350 N   0  0  0  0  0  0  0  0  0  0  0  0
    0.9990    0.2330   -0.1950 C   0  0  0  0  0  0  0  0  0  0  0  0
    0.9150   -1.1400   -0.2740 C   0  0  0  0  0  0  0  0  0  0  0  0
   -0.3740   -1.8220   -0.1200 C   0  0  0  0  0  0  0  0  0  0  0  0
   -1.4600   -1.1140    0.0960 C   0  0  0  0  0  0  0  0  0  0  0  0
   -2.7580   -1.8340    0.2470 C   0  0  0  0  0  0  0  0  0  0  0  0
   -3.8380   -0.8670   -0.2500 C   0  0  0  0  0  0  0  0  0  0  0  0
   -3.8110    0.3650    0.6020 C   0  0  0  0  0  0  0  0  0  0  0  0
   -2.5150    1.0750    0.4250 C   0  0  0  0  0  0  0  0  0  0  0  0
   -2.5300    2.5370    0.5220 C   0  0  0  0  0  0  0  0  0  0  0  0
   -3.4110    2.9770   -0.5020 O   0  0  0  0  0  0  0  0  0  0  0  0
   -1.4360    0.3580    0.1920 C   0  0  0  0  0  0  0  0  0  0  0  0
   -0.1680    0.9960    0.0370 N   0  0  0  0  0  0  0  0  0  0  0  0
  1  2  1  0
  2  3  2  0
  2  9  1  0
  3  4  1  0
  4  5  1  0
  4  7  2  0
  5  6  1  0
  7  8  1  0
  8  9  2  0
  8 19  1  0
  9 10  1  0
 10 11  2  0
 11 12  1  0
 11 18  1  0
 12 13  1  0
 13 14  1  0
 14 15  1  0
 15 16  1  0
 15 18  2  0
 16 17  1  0
 18 19  1  0
M  CHG  1   6   1
M  END
