
     RDKit          3D

 20 22  0  0  0  0  0  0  0  0999 V2000
    5.0090   -1.7350   -0.6070 N   0  0  0  0  0  0  0  0  0  0  0  0
    3.6950   -1.2410   -0.4460 C   0  0  0  0  0  0  0  0  0  0  0  0
    2.6200   -2.1050   -0.4220 C   0  0  0  0  0  0  0  0  0  0  0  0
    1.4050   -1.5590   -0.2660 N   0  0  0  0  0  0  0  0  0  0  0  0
    1.1880   -0.2390   -0.1350 C   0  0  0  0  0  0  0  0  0  0  0  0
   -0.1800    0.2500    0.0290 C   0  0  0  0  0  0  0  0  0  0  0  0
   -0.4330    1.5950    0.1660 C   0  0  0  0  0  0  0  0  0  0  0  0
   -1.7320    2.0330    0.3200 C   0  0  0  0  0  0  0  0  0  0  0  0
   -2.7700    1.1030    0.3350 C   0  0  0  0  0  0  0  0  0  0  0  0
   -4.0760    1.5140    0.4880 C   0  0  0  0  0  0  0  0  0  0  0  0
   -4.4760    3.3710    0.6800 Br  0  0  0  0  0  0  0  0  0  0  0  0
   -5.0990    0.5600    0.5000 C   0  0  0  0  0  0  0  0  0  0  0  0
   -4.8340   -0.7680    0.3640 C   0  0  0  0  0  0  0  0  0  0  0  0
   -6.2680   -2.0480    0.3850 Br  0  0  0  0  0  0  0  0  0  0  0  0
   -3.5240   -1.1620    0.2120 C   0  0  0  0  0  0  0  0  0  0  0  0
   -2.4800   -0.2340    0.1960 C   0  0  0  0  0  0  0  0  0  0  0  0
   -1.2090   -0.6130    0.0500 N   0  0  0  0  0  0  0  0  0  0  0  0
    2.2150    0.5950   -0.1580 N   0  0  0  0  0  0  0  0  0  0  0  0
    3.4810    0.1330   -0.3110 C   0  0  0  0  0  0  0  0  0  0  0  0
    4.6020    0.9750   -0.3410 N   0  0  0  0  0  0  0  0  0  0  0  0
  1  2  1  0
  2  3  2  0
  2 19  1  0
  3  4  1  0
  4  5  2  0
  5  6  1  0
  5 18  1  0
  6  7  2  0
  6 17  1  0
  7  8  1  0
  8  9  2  0
  9 10  1  0
  9 16  1  0
 10 11  1  0
 10 12  2  0
 12 13  1  0
 13 14  1  0
 13 15  2  0
 15 16  1  0
 16 17  2  0
 18 19  2  0
 19 20  1  0
M  END
