
     RDKit          3D

 13 13  0  0  0  0  0  0  0  0999 V2000
    2.1340   -1.6380    1.1660 O   0  0  0  0  0  0  0  0  0  0  0  0
    2.3940   -0.9410    0.1960 C   0  0  0  0  0  0  0  0  0  0  0  0
    4.1060   -0.9240   -0.4410 S   0  0  0  0  0  0  0  0  0  0  0  0
    1.3980   -0.1770   -0.4090 N   0  0  0  0  0  0  0  0  0  0  0  0
    0.0520    0.0080   -0.1570 N   0  0  0  0  0  0  0  0  0  0  0  0
   -0.6050    0.8730   -1.0100 C   0  0  0  0  0  0  0  0  0  0  0  0
   -0.0040    1.4450   -1.9450 O   0  0  0  0  0  0  0  0  0  0  0  0
   -1.8960    1.1030   -0.8360 N   0  0  0  0  0  0  0  0  0  0  0  0
   -2.6330    0.5430    0.1340 C   0  0  0  0  0  0  0  0  0  0  0  0
   -3.8660    0.8280    0.2180 O   0  0  0  0  0  0  0  0  0  0  0  0
   -2.0190   -0.2870    0.9570 N   0  0  0  0  0  0  0  0  0  0  0  0
   -0.6840   -0.5400    0.7970 C   0  0  0  0  0  0  0  0  0  0  0  0
   -0.0500   -1.5840    1.8830 S   0  0  0  0  0  0  0  0  0  0  0  0
  1  2  2  0
  2  3  1  0
  2  4  1  0
  4  5  1  0
  5  6  1  0
  5 12  1  0
  6  7  2  0
  6  8  1  0
  8  9  1  0
  9 10  2  0
  9 11  1  0
 11 12  1  0
 12 13  2  0
M  END
