
     RDKit          3D

 13 13  0  0  0  0  0  0  0  0999 V2000
   -4.1830    0.2440    0.5710 C   0  0  0  0  0  0  0  0  0  0  0  0
   -2.7040    0.2000    0.3010 C   0  0  0  0  0  0  0  0  0  0  0  0
   -1.9970    1.2250    0.2970 O   0  0  0  0  0  0  0  0  0  0  0  0
   -2.1040   -1.0490    0.0430 N   0  0  0  0  0  0  0  0  0  0  0  0
   -0.6650   -1.1400   -0.2260 C   0  0  0  0  0  0  0  0  0  0  0  0
    0.2010   -1.9030   -0.4720 N   0  0  0  0  0  0  0  0  0  0  0  0
    1.4430   -1.5990   -0.6580 N   0  0  0  0  0  0  0  0  0  0  0  0
    1.9200   -0.5510   -0.6180 C   0  0  0  0  0  0  0  0  0  0  0  0
    3.4000    0.3980   -0.7720 S   0  0  1  0  0  0  0  0  0  0  0  0
    4.1080    0.4580    0.7900 N   0  0  0  0  0  0  0  0  0  0  0  0
    4.3620   -0.2740   -1.7100 O   0  0  0  0  0  0  0  0  0  0  0  0
    3.1050    1.7870   -1.2880 O   0  0  0  0  0  0  0  0  0  0  0  0
    0.3560    0.4510   -0.2180 S   0  0  0  0  0  0  0  0  0  0  0  0
  1  2  1  0
  2  3  2  0
  2  4  1  0
  4  5  1  0
  5  6  2  0
  5 13  1  0
  6  7  1  0
  7  8  2  0
  8  9  1  0
  8 13  1  0
  9 10  1  1
  9 11  2  0
  9 12  2  0
M  END
