
     RDKit          3D

 13 13  0  0  0  0  0  0  0  0999 V2000
   -3.7150   -0.6170    0.3740 N   0  0  0  0  0  0  0  0  0  0  0  0
   -2.4670    0.0540    0.4580 C   0  0  0  0  0  0  0  0  0  0  0  0
   -1.7110    0.0470    1.4590 O   0  0  0  0  0  0  0  0  0  0  0  0
   -2.0260    0.8220   -0.7340 C   0  0  0  0  0  0  0  0  0  0  0  0
   -0.7420    1.4630   -0.5360 N   0  0  0  0  0  0  0  0  0  0  0  0
    0.3800    0.6280   -0.2510 C   0  0  0  0  0  0  0  0  0  0  0  0
    0.2360   -0.6220   -0.1790 O   0  0  0  0  0  0  0  0  0  0  0  0
    1.6490    1.1480   -0.0460 O   0  0  0  0  0  0  0  0  0  0  0  0
    2.7300    0.2860    0.2330 C   0  0  0  0  0  0  0  0  0  0  0  0
    2.6220   -0.9430    0.3100 N   0  0  0  0  0  0  0  0  0  0  0  0
    3.6270   -1.7990    0.5740 N   0  0  0  0  0  0  0  0  0  0  0  0
    5.1420   -1.0170    1.0530 S   0  0  0  0  0  0  0  0  0  0  0  0
    4.3750    0.9400    0.5000 S   0  0  0  0  0  0  0  0  0  0  0  0
  1  2  1  0
  2  3  2  0
  2  4  1  0
  4  5  1  0
  5  6  1  0
  6  7  2  0
  6  8  1  0
  8  9  1  0
  9 10  2  0
  9 13  1  0
 10 11  1  0
 11 12  1  0
 12 13  1  0
M  END
