
     RDKit          3D

 36 40  0  0  0  0  0  0  0  0999 V2000
    9.0220    1.9130    1.3030 C   0  0  0  0  0  0  0  0  0  0  0  0
    7.6140    1.4610    0.9970 C   0  0  0  0  0  0  0  0  0  0  0  0
    7.6470    0.6060   -0.2550 C   0  0  0  0  0  0  0  0  0  0  0  0
    6.2950    0.1260   -0.6180 C   0  0  0  0  0  0  0  0  0  0  0  0
    5.9140   -1.1980   -0.3630 C   0  0  0  0  0  0  0  0  0  0  0  0
    4.6820   -1.6600   -0.6830 C   0  0  0  0  0  0  0  0  0  0  0  0
    3.7490   -0.8010   -1.2880 C   0  0  0  0  0  0  0  0  0  0  0  0
    4.1010    0.4920   -1.5470 C   0  0  0  0  0  0  0  0  0  0  0  0
    5.3770    0.9570   -1.2100 C   0  0  0  0  0  0  0  0  0  0  0  0
    5.6440    2.2480   -1.4980 F   0  0  0  0  0  0  0  0  0  0  0  0
    2.4600   -1.3060   -1.5850 N   0  0  0  0  0  0  0  0  0  0  0  0
    1.2800   -0.6110   -1.3240 C   0  0  0  0  0  0  0  0  0  0  0  0
    0.2370   -1.0920   -1.9070 O   0  0  0  0  0  0  0  0  0  0  0  0
    1.1690    0.5580   -0.4610 C   0  0  0  0  0  0  0  0  0  0  0  0
   -0.2270    0.8680   -0.3380 O   0  0  0  0  0  0  0  0  0  0  0  0
   -1.1540   -0.0170    0.1920 C   0  0  0  0  0  0  0  0  0  0  0  0
   -0.6690   -1.1210    0.5600 O   0  0  0  0  0  0  0  0  0  0  0  0
   -2.5810    0.3220    0.3070 C   0  0  0  0  0  0  0  0  0  0  0  0
   -3.4810   -0.5740    0.8370 C   0  0  0  0  0  0  0  0  0  0  0  0
   -3.1280   -1.8130    1.2830 O   0  0  0  0  0  0  0  0  0  0  0  0
   -4.8370   -0.1970    0.9240 C   0  0  0  0  0  0  0  0  0  0  0  0
   -5.9340   -0.8240    1.3770 N   0  0  0  0  0  0  0  0  0  0  0  0
   -7.0120   -0.0330    1.2440 C   0  0  0  0  0  0  0  0  0  0  0  0
   -8.4300   -0.3630    1.6300 C   0  0  1  0  0  0  0  0  0  0  0  0
   -9.0240    0.6650    2.5370 C   0  0  0  0  0  0  0  0  0  0  0  0
   -9.2930   -0.4130    0.3700 C   0  0  0  0  0  0  0  0  0  0  0  0
   -6.5630    1.1090    0.6960 N   0  0  0  0  0  0  0  0  0  0  0  0
   -5.2200    1.0490    0.4810 C   0  0  0  0  0  0  0  0  0  0  0  0
   -4.3000    1.9270   -0.0450 C   0  0  0  0  0  0  0  0  0  0  0  0
   -4.4180    3.1700   -0.5340 N   0  0  0  0  0  0  0  0  0  0  0  0
   -3.2530    3.6460   -0.9380 C   0  0  0  0  0  0  0  0  0  0  0  0
   -2.2940    2.6660   -0.7070 C   0  0  0  0  0  0  0  0  0  0  0  0
   -2.9560    1.5930   -0.1480 C   0  0  0  0  0  0  0  0  0  0  0  0
    2.3840   -2.6770   -2.1200 C   0  0  0  0  0  0  0  0  0  0  0  0
    3.5470   -3.5180   -1.7640 C   0  0  0  0  0  0  0  0  0  0  0  0
    4.2130   -3.0420   -0.4880 C   0  0  0  0  0  0  0  0  0  0  0  0
  1  2  1  0
  2  3  1  0
  3  4  1  0
  4  5  2  0
  4  9  1  0
  5  6  1  0
  6  7  2  0
  6 36  1  0
  7  8  1  0
  7 11  1  0
  8  9  2  0
  9 10  1  0
 11 12  1  0
 11 34  1  0
 12 13  2  0
 12 14  1  0
 14 15  1  0
 15 16  1  0
 16 17  2  0
 16 18  1  0
 18 19  2  0
 18 33  1  0
 19 20  1  0
 19 21  1  0
 21 22  1  0
 21 28  2  0
 22 23  1  0
 23 24  1  0
 23 27  2  0
 24 25  1  1
 24 26  1  0
 27 28  1  0
 28 29  1  0
 29 30  1  0
 29 33  2  0
 30 31  1  0
 31 32  2  0
 32 33  1  0
 34 35  1  0
 35 36  1  0
M  END
