
     RDKit          3D

 36 40  0  0  0  0  0  0  0  0999 V2000
   -6.7840    3.2310   -2.7810 C   0  0  0  0  0  0  0  0  0  0  0  0
   -6.7680    2.0980   -2.3500 C   0  0  0  0  0  0  0  0  0  0  0  0
   -6.2160    0.9430   -1.8740 C   0  0  0  0  0  0  0  0  0  0  0  0
   -4.9880    0.5980   -1.2900 N   0  0  0  0  0  0  0  0  0  0  0  0
   -4.6640   -0.6920   -0.9620 C   0  0  0  0  0  0  0  0  0  0  0  0
   -5.8950   -1.4100   -1.3710 O   0  0  0  0  0  0  0  0  0  0  0  0
   -3.8120   -1.6720   -0.4550 C   0  0  0  0  0  0  0  0  0  0  0  0
   -4.2400   -3.0210   -0.6250 C   0  0  0  0  0  0  0  0  0  0  0  0
   -3.3020   -4.0510   -0.2370 C   0  0  0  0  0  0  0  0  0  0  0  0
   -3.7320   -5.3050   -0.1910 C   0  0  0  0  0  0  0  0  0  0  0  0
   -4.1550   -6.5380   -0.1680 N   0  0  0  0  0  0  0  0  0  0  0  0
   -2.0760   -3.6840    0.2670 C   0  0  0  0  0  0  0  0  0  0  0  0
   -1.7740   -2.3920    0.4140 C   0  0  0  0  0  0  0  0  0  0  0  0
   -0.2600   -2.0940    1.2800 Cl  0  0  0  0  0  0  0  0  0  0  0  0
   -2.6090   -1.3040    0.0600 C   0  0  0  0  0  0  0  0  0  0  0  0
   -2.1150   -0.0640    0.2390 O   0  0  0  0  0  0  0  0  0  0  0  0
   -1.0560    0.3690   -0.5580 C   0  0  0  0  0  0  0  0  0  0  0  0
   -1.2150    0.7740   -1.8270 C   0  0  0  0  0  0  0  0  0  0  0  0
   -0.1280    1.1590   -2.6380 C   0  0  0  0  0  0  0  0  0  0  0  0
    1.0690    1.0920   -2.0230 C   0  0  0  0  0  0  0  0  0  0  0  0
    1.4240    0.7480   -0.7930 C   0  0  0  0  0  0  0  0  0  0  0  0
    2.5640    0.6940    0.0090 C   0  0  0  0  0  0  0  0  0  0  0  0
    2.9970    1.5780    0.7320 N   0  0  0  0  0  0  0  0  0  0  0  0
    3.7630    1.8700    1.4230 C   0  0  0  0  0  0  0  0  0  0  0  0
    4.5600    2.5190    2.3170 C   0  0  0  0  0  0  0  0  0  0  0  0
    3.9010    3.7790    2.4180 O   0  0  0  0  0  0  0  0  0  0  0  0
    5.5380    2.4360    3.0080 N   0  0  0  0  0  0  0  0  0  0  0  0
    6.1330    1.1540    2.8410 C   0  0  0  0  0  0  0  0  0  0  0  0
    7.3200    1.0060    3.5010 C   0  0  0  0  0  0  0  0  0  0  0  0
    7.9380   -0.2720    3.2110 C   0  0  0  0  0  0  0  0  0  0  0  0
    7.4780   -1.1720    2.4400 C   0  0  0  0  0  0  0  0  0  0  0  0
    6.2070   -1.0290    1.7300 C   0  0  0  0  0  0  0  0  0  0  0  0
    5.5880    0.2130    2.0190 C   0  0  0  0  0  0  0  0  0  0  0  0
    4.4440    0.4120    1.2660 C   0  0  0  0  0  0  0  0  0  0  0  0
    3.6060   -0.1890    0.3830 O   0  0  0  0  0  0  0  0  0  0  0  0
    0.2400    0.3550   -0.0050 C   0  0  0  0  0  0  0  0  0  0  0  0
  1  2  2  0
  2  3  1  0
  3  4  1  0
  4  5  1  0
  5  6  2  0
  5  7  1  0
  7  8  2  0
  7 15  1  0
  8  9  1  0
  9 10  1  0
  9 12  2  0
 10 11  3  0
 12 13  1  0
 13 14  1  0
 13 15  2  0
 15 16  1  0
 16 17  1  0
 17 18  2  0
 17 36  1  0
 18 19  1  0
 19 20  2  0
 20 21  1  0
 21 22  1  0
 21 36  2  0
 22 23  2  0
 22 35  1  0
 23 24  1  0
 24 25  1  0
 24 34  2  0
 25 26  2  0
 25 27  1  0
 27 28  1  0
 28 29  2  0
 28 33  1  0
 29 30  1  0
 30 31  2  0
 31 32  1  0
 32 33  2  0
 33 34  1  0
 34 35  1  0
M  END
