
     RDKit          3D

 27 30  0  0  0  0  0  0  0  0999 V2000
    5.2710    2.5330    1.9890 C   0  0  0  0  0  0  0  0  0  0  0  0
    4.6650    1.5650    1.0560 N   0  0  0  0  0  0  0  0  0  0  0  0
    3.4270    1.4820    0.5990 N   0  0  0  0  0  0  0  0  0  0  0  0
    3.3260    0.5180   -0.3250 C   0  0  0  0  0  0  0  0  0  0  0  0
    2.4000    0.1720   -1.3990 C   0  0  0  0  0  0  0  0  0  0  0  0
    1.1080   -0.2340   -1.3590 N   0  0  0  0  0  0  0  0  0  0  0  0
    0.0720   -0.2890   -0.4320 C   0  0  0  0  0  0  0  0  0  0  0  0
    0.1970    0.1280    0.7300 O   0  0  0  0  0  0  0  0  0  0  0  0
   -1.2040   -0.8850   -0.7980 N   0  0  0  0  0  0  0  0  0  0  0  0
   -2.1990   -1.1130    0.1570 C   0  0  0  0  0  0  0  0  0  0  0  0
   -1.8310   -1.8460    1.2580 C   0  0  0  0  0  0  0  0  0  0  0  0
   -2.6140   -2.1250    2.3250 C   0  0  0  0  0  0  0  0  0  0  0  0
   -3.9400   -1.6050    2.2330 C   0  0  0  0  0  0  0  0  0  0  0  0
   -4.3560   -0.8770    1.1580 C   0  0  0  0  0  0  0  0  0  0  0  0
   -5.6750   -0.3630    1.1290 N   0  0  0  0  0  0  0  0  0  0  0  0
   -6.2610    0.3340    0.0610 C   0  0  0  0  0  0  0  0  0  0  0  0
   -6.2230    1.6570   -0.0550 C   0  0  0  0  0  0  0  0  0  0  0  0
   -6.9370    1.9780   -1.2870 C   0  0  0  0  0  0  0  0  0  0  0  0
   -7.3240    0.7050   -1.8070 N   0  0  0  0  0  0  0  0  0  0  0  0
   -6.9750   -0.2400   -1.0880 C   0  0  0  0  0  0  0  0  0  0  0  0
   -3.4950   -0.6250    0.1210 C   0  0  0  0  0  0  0  0  0  0  0  0
    4.6590   -0.0120   -0.3930 C   0  0  0  0  0  0  0  0  0  0  0  0
    5.0730   -1.1140   -1.0970 C   0  0  0  0  0  0  0  0  0  0  0  0
    6.3920   -1.5700   -0.9050 C   0  0  0  0  0  0  0  0  0  0  0  0
    7.2420   -0.9150   -0.0390 C   0  0  0  0  0  0  0  0  0  0  0  0
    6.7580    0.2080    0.6580 C   0  0  0  0  0  0  0  0  0  0  0  0
    5.4470    0.6560    0.4780 C   0  0  0  0  0  0  0  0  0  0  0  0
  1  2  1  0
  2  3  1  0
  2 27  1  0
  3  4  2  0
  4  5  1  0
  4 22  1  0
  5  6  1  0
  6  7  1  0
  7  8  2  0
  7  9  1  0
  9 10  1  0
 10 11  2  0
 10 21  1  0
 11 12  1  0
 12 13  2  0
 13 14  1  0
 14 15  1  0
 14 21  2  0
 15 16  1  0
 16 17  2  0
 16 20  1  0
 17 18  1  0
 18 19  1  0
 19 20  2  0
 22 23  2  0
 22 27  1  0
 23 24  1  0
 24 25  2  0
 25 26  1  0
 26 27  2  0
M  END
