
     RDKit          3D

 27 30  0  0  0  0  0  0  0  0999 V2000
    0.1710    1.6610   -4.7520 N   0  0  0  0  0  0  0  0  0  0  0  0
   -0.3310    1.3130   -3.7720 C   0  0  0  0  0  0  0  0  0  0  0  0
   -0.9670    0.8650   -2.5700 C   0  0  0  0  0  0  0  0  0  0  0  0
   -2.2240    0.3070   -2.5790 C   0  0  0  0  0  0  0  0  0  0  0  0
   -2.7670   -0.0990   -1.3830 C   0  0  0  0  0  0  0  0  0  0  0  0
   -4.0330   -0.6690   -1.3370 C   0  0  0  0  0  0  0  0  0  0  0  0
   -4.5290   -1.0590   -0.1100 C   0  0  0  0  0  0  0  0  0  0  0  0
   -5.7840   -1.6330    0.0060 C   0  0  0  0  0  0  0  0  0  0  0  0
   -6.2740   -2.0210    1.2350 C   0  0  0  0  0  0  0  0  0  0  0  0
   -5.5350   -1.8520    2.3920 C   0  0  0  0  0  0  0  0  0  0  0  0
   -6.0410   -2.2510    3.6610 N   0  0  0  0  0  0  0  0  0  0  0  0
   -4.3200   -1.2930    2.2640 N   0  0  0  0  0  0  0  0  0  0  0  0
   -3.8120   -0.9010    1.0580 C   0  0  0  0  0  0  0  0  0  0  0  0
   -2.5940   -0.3460    0.9650 N   0  0  0  0  0  0  0  0  0  0  0  0
   -2.0630    0.0510   -0.2050 C   0  0  0  0  0  0  0  0  0  0  0  0
   -0.8400    0.6030   -0.2600 N   0  0  0  0  0  0  0  0  0  0  0  0
   -0.2520    1.0190   -1.3820 C   0  0  0  0  0  0  0  0  0  0  0  0
    1.0480    1.6000   -1.4040 N   0  0  0  0  0  0  0  0  0  0  0  0
    1.7380    1.7270   -0.0950 C   0  0  0  0  0  0  0  0  0  0  0  0
    3.0240    2.3350   -0.3620 C   0  0  0  0  0  0  0  0  0  0  0  0
    4.2350    1.9890   -0.1850 C   0  0  0  0  0  0  0  0  0  0  0  0
    4.8960    0.8580    0.3520 C   0  0  0  0  0  0  0  0  0  0  0  0
    6.2430    0.8490    0.3730 C   0  0  0  0  0  0  0  0  0  0  0  0
    7.0320   -0.2730    0.9070 C   0  0  0  0  0  0  0  0  0  0  0  0
    6.2850   -1.3430    1.4000 O   0  0  0  0  0  0  0  0  0  0  0  0
    4.9290   -1.3600    1.3910 C   0  0  0  0  0  0  0  0  0  0  0  0
    4.2510   -0.3060    0.8890 C   0  0  0  0  0  0  0  0  0  0  0  0
  1  2  3  0
  2  3  1  0
  3  4  2  0
  3 17  1  0
  4  5  1  0
  5  6  2  0
  5 15  1  0
  6  7  1  0
  7  8  2  0
  7 13  1  0
  8  9  1  0
  9 10  2  0
 10 11  1  0
 10 12  1  0
 12 13  2  0
 13 14  1  0
 14 15  2  0
 15 16  1  0
 16 17  2  0
 17 18  1  0
 18 19  1  0
 19 20  1  0
 20 21  2  3
 21 22  1  0
 22 23  2  0
 22 27  1  0
 23 24  1  0
 24 25  1  0
 25 26  1  0
 26 27  2  0
M  END
