
     RDKit          3D

 27 30  0  0  0  0  0  0  0  0999 V2000
   -7.1790    1.8460   -1.1840 C   0  0  0  0  0  0  0  0  0  0  0  0
   -6.8040    0.6770   -0.3430 C   0  0  0  0  0  0  0  0  0  0  0  0
   -7.6010    0.1060    0.5420 C   0  0  0  0  0  0  0  0  0  0  0  0
   -6.8660   -1.0180    1.1690 C   0  0  0  0  0  0  0  0  0  0  0  0
   -5.5870   -1.0050    0.5380 N   0  0  0  0  0  0  0  0  0  0  0  0
   -5.5460   -0.0560   -0.3110 C   0  0  0  0  0  0  0  0  0  0  0  0
   -4.4240    0.2700   -1.1470 N   0  0  0  0  0  0  0  0  0  0  0  0
   -3.0900    0.1360   -0.6930 C   0  0  0  0  0  0  0  0  0  0  0  0
   -2.7610   -0.1910    0.5980 C   0  0  0  0  0  0  0  0  0  0  0  0
   -1.4320   -0.3160    0.9850 C   0  0  0  0  0  0  0  0  0  0  0  0
   -0.4410   -0.1020    0.0360 C   0  0  0  0  0  0  0  0  0  0  0  0
    0.9610   -0.1640    0.1600 C   0  0  0  0  0  0  0  0  0  0  0  0
    1.6840   -0.4830    1.3830 C   0  0  0  0  0  0  0  0  0  0  0  0
    2.9550   -0.5610    1.5850 C   0  0  0  0  0  0  0  0  0  0  0  0
    4.0580   -0.3580    0.6690 C   0  0  0  0  0  0  0  0  0  0  0  0
    3.8080   -0.0620   -0.5000 O   0  0  0  0  0  0  0  0  0  0  0  0
    5.4210   -0.4870    1.0700 N   0  0  0  0  0  0  0  0  0  0  0  0
    6.5600   -0.3170    0.2830 C   0  0  0  0  0  0  0  0  0  0  0  0
    7.8100   -0.4900    0.8720 C   0  0  0  0  0  0  0  0  0  0  0  0
    8.9740   -0.3370    0.1540 C   0  0  0  0  0  0  0  0  0  0  0  0
    8.9090   -0.0040   -1.1810 C   0  0  0  0  0  0  0  0  0  0  0  0
    7.7100    0.1630   -1.7490 N   0  0  0  0  0  0  0  0  0  0  0  0
    6.5480    0.0090   -1.0290 C   0  0  0  0  0  0  0  0  0  0  0  0
    1.3860    0.1330   -1.0740 N   0  0  0  0  0  0  0  0  0  0  0  0
    0.4060    0.3640   -1.9170 N   0  0  0  0  0  0  0  0  0  0  0  0
   -0.7580    0.2270   -1.2620 C   0  0  0  0  0  0  0  0  0  0  0  0
   -2.0810    0.3490   -1.6380 C   0  0  0  0  0  0  0  0  0  0  0  0
  1  2  1  0
  2  3  2  0
  2  6  1  0
  3  4  1  0
  4  5  1  0
  5  6  2  0
  6  7  1  0
  7  8  1  0
  8  9  2  0
  8 27  1  0
  9 10  1  0
 10 11  2  0
 11 12  1  0
 11 26  1  0
 12 13  1  0
 12 24  2  0
 13 14  2  3
 14 15  1  0
 15 16  2  0
 15 17  1  0
 17 18  1  0
 18 19  2  0
 18 23  1  0
 19 20  1  0
 20 21  2  0
 21 22  1  0
 22 23  2  0
 24 25  1  0
 25 26  1  0
 26 27  2  0
M  END
