
     RDKit          3D

 27 30  0  0  0  0  0  0  0  0999 V2000
   -4.9180   -1.3600    2.5570 C   0  0  0  0  0  0  0  0  0  0  0  0
   -5.1880   -1.9980    1.2120 C   0  0  0  0  0  0  0  0  0  0  0  0
   -5.4990   -0.9680    0.1810 C   0  0  0  0  0  0  0  0  0  0  0  0
   -6.7180   -0.6870   -0.2980 N   0  0  0  0  0  0  0  0  0  0  0  0
   -6.6650    0.2640   -1.1880 N   0  0  0  0  0  0  0  0  0  0  0  0
   -5.3530    0.6250   -1.3010 C   0  0  0  0  0  0  0  0  0  0  0  0
   -4.5670   -0.1270   -0.4540 C   0  0  0  0  0  0  0  0  0  0  0  0
   -3.1920   -0.1120   -0.1910 N   0  0  0  0  0  0  0  0  0  0  0  0
   -2.1730    0.5980   -0.8580 C   0  0  0  0  0  0  0  0  0  0  0  0
   -2.1970    1.0210   -2.1560 C   0  0  0  0  0  0  0  0  0  0  0  0
   -1.1600    1.7440   -2.7240 C   0  0  0  0  0  0  0  0  0  0  0  0
   -0.0500    2.0640   -1.9810 C   0  0  0  0  0  0  0  0  0  0  0  0
    0.0270    1.6530   -0.6430 C   0  0  0  0  0  0  0  0  0  0  0  0
    1.0990    1.9470    0.1610 N   0  0  0  0  0  0  0  0  0  0  0  0
    2.1860    1.5030    0.4950 C   0  0  0  0  0  0  0  0  0  0  0  0
    2.7970    0.2700    0.0410 C   0  0  0  0  0  0  0  0  0  0  0  0
    2.1920   -0.5760   -0.8550 C   0  0  0  0  0  0  0  0  0  0  0  0
    2.8150   -1.7410   -1.2570 C   0  0  0  0  0  0  0  0  0  0  0  0
    4.0570   -2.0560   -0.7550 C   0  0  0  0  0  0  0  0  0  0  0  0
    4.6640   -1.2050    0.1450 C   0  0  0  0  0  0  0  0  0  0  0  0
    5.8660   -1.2590    0.7950 N   0  0  0  0  0  0  0  0  0  0  0  0
    5.9700   -0.1630    1.5670 C   0  0  0  0  0  0  0  0  0  0  0  0
    6.9930    0.0860    2.3120 N   0  0  0  0  0  0  0  0  0  0  0  0
    7.0840    1.2740    3.1370 C   0  0  0  0  0  0  0  0  0  0  0  0
    4.8770    0.5430    1.4030 O   0  0  0  0  0  0  0  0  0  0  0  0
    4.0640   -0.0460    0.5570 C   0  0  0  0  0  0  0  0  0  0  0  0
   -1.0350    0.9390   -0.1370 C   0  0  0  0  0  0  0  0  0  0  0  0
  1  2  1  0
  2  3  1  0
  3  4  2  0
  3  7  1  0
  4  5  1  0
  5  6  1  0
  6  7  2  0
  7  8  1  0
  8  9  1  0
  9 10  2  0
  9 27  1  0
 10 11  1  0
 11 12  2  0
 12 13  1  0
 13 14  1  0
 13 27  2  0
 14 15  2  3
 15 16  1  0
 16 17  2  0
 16 26  1  0
 17 18  1  0
 18 19  2  0
 19 20  1  0
 20 21  1  0
 20 26  2  0
 21 22  1  0
 22 23  2  3
 22 25  1  0
 23 24  1  0
 25 26  1  0
M  END
