
     RDKit          3D

 40 44  0  0  0  0  0  0  0  0999 V2000
   -7.4100   -0.3390    0.5610 C   0  0  0  0  0  0  0  0  0  0  0  0
   -5.9700   -0.0720    0.8150 C   0  0  0  0  0  0  0  0  0  0  0  0
   -5.6070    0.3310    2.0830 C   0  0  0  0  0  0  0  0  0  0  0  0
   -4.2790    0.5750    2.3140 C   0  0  0  0  0  0  0  0  0  0  0  0
   -3.2880    0.4320    1.3190 C   0  0  0  0  0  0  0  0  0  0  0  0
   -1.8750    0.6910    1.6450 C   0  0  0  0  0  0  0  0  0  0  0  0
   -3.6460    0.0370    0.0690 C   0  0  0  0  0  0  0  0  0  0  0  0
   -2.7420   -0.1400   -1.0410 C   0  0  2  0  0  0  0  0  0  0  0  0
   -1.3820   -0.4610   -0.7770 N   0  0  0  0  0  0  0  0  0  0  0  0
   -1.2040   -1.7970   -0.2820 C   0  0  1  0  0  0  0  0  0  0  0  0
   -1.5100   -2.8910   -1.2460 C   0  0  0  0  0  0  0  0  0  0  0  0
   -1.5100   -4.2150   -0.5160 C   0  0  0  0  0  0  0  0  0  0  0  0
   -0.8360   -4.1960    0.8060 C   0  0  0  0  0  0  0  0  0  0  0  0
    0.3180   -3.2210    0.8750 C   0  0  0  0  0  0  0  0  0  0  0  0
    0.1160   -2.0450    0.3350 C   0  0  0  0  0  0  0  0  0  0  0  0
    1.3370   -1.2290    0.5020 C   0  0  0  0  0  0  0  0  0  0  0  0
    1.4880    0.0330    0.1430 C   0  0  0  0  0  0  0  0  0  0  0  0
    2.7540    0.7160    0.3600 C   0  0  0  0  0  0  0  0  0  0  0  0
    3.9460    0.2580   -0.1270 C   0  0  0  0  0  0  0  0  0  0  0  0
    5.1270    0.9590    0.1500 C   0  0  0  0  0  0  0  0  0  0  0  0
    6.3210    0.4600   -0.3850 N   0  0  0  0  0  0  0  0  0  0  0  0
    7.6070    0.8710   -0.0440 C   0  0  0  0  0  0  0  0  0  0  0  0
    7.8490    1.7390    0.7930 O   0  0  0  0  0  0  0  0  0  0  0  0
    8.7970    0.2430   -0.7150 C   0  0  0  0  0  0  0  0  0  0  0  0
    8.4050   -0.7190   -1.6240 O   0  0  0  0  0  0  0  0  0  0  0  0
    5.0920    2.1020    0.9080 C   0  0  0  0  0  0  0  0  0  0  0  0
    3.8490    2.5380    1.3890 C   0  0  0  0  0  0  0  0  0  0  0  0
    3.8020    3.7380    2.1870 N   0  0  0  0  0  0  0  0  0  0  0  0
    2.6770    1.8810    1.1390 C   0  0  0  0  0  0  0  0  0  0  0  0
    1.3620    2.3570    1.6620 C   0  0  0  0  0  0  0  0  0  0  0  0
    2.2770   -2.0880    1.2090 C   0  0  0  0  0  0  0  0  0  0  0  0
    3.4550   -1.8080    1.5690 O   0  0  0  0  0  0  0  0  0  0  0  0
    1.6140   -3.3260    1.4290 N   0  0  0  0  0  0  0  0  0  0  0  0
   -2.8740    0.9690   -2.0090 C   0  0  0  0  0  0  0  0  0  0  0  0
   -3.7780    0.9290   -3.0810 C   0  0  0  0  0  0  0  0  0  0  0  0
   -3.8530    1.9860   -3.9500 C   0  0  0  0  0  0  0  0  0  0  0  0
   -3.0500    3.0850   -3.7800 C   0  0  0  0  0  0  0  0  0  0  0  0
   -2.1770    3.1440   -2.7600 N   0  0  0  0  0  0  0  0  0  0  0  0
   -2.1030    2.0920   -1.8960 C   0  0  0  0  0  0  0  0  0  0  0  0
   -5.0120   -0.2120   -0.1580 C   0  0  0  0  0  0  0  0  0  0  0  0
  1  2  1  0
  2  3  2  0
  2 40  1  0
  3  4  1  0
  4  5  2  0
  5  6  1  0
  5  7  1  0
  7  8  1  0
  7 40  2  0
  8  9  1  1
  8 34  1  0
 10  9  1  6
 10 11  1  0
 10 15  1  0
 11 12  1  0
 12 13  1  0
 13 14  1  0
 14 15  2  0
 14 33  1  0
 15 16  1  0
 16 17  2  3
 16 31  1  0
 17 18  1  0
 18 19  2  0
 18 29  1  0
 19 20  1  0
 20 21  1  0
 20 26  2  0
 21 22  1  0
 22 23  2  0
 22 24  1  0
 24 25  1  0
 26 27  1  0
 27 28  1  0
 27 29  2  0
 29 30  1  0
 31 32  2  0
 31 33  1  0
 34 35  2  0
 34 39  1  0
 35 36  1  0
 36 37  2  0
 37 38  1  0
 38 39  2  0
M  END
