
     RDKit          3D

 40 43  0  0  0  0  0  0  0  0999 V2000
    8.1380    1.3230    1.9470 C   0  0  0  0  0  0  0  0  0  0  0  0
    7.5010    0.6570    0.7040 C   0  0  0  0  0  0  0  0  0  0  0  0
    7.9540   -0.7410    0.5580 C   0  0  2  0  0  0  0  0  0  0  0  0
    9.5090   -0.7910    0.4280 C   0  0  0  0  0  0  0  0  0  0  0  0
    7.4630   -1.5650   -0.5610 C   0  0  0  0  0  0  0  0  0  0  0  0
    6.0360   -1.8380   -0.7570 C   0  0  0  0  0  0  0  0  0  0  0  0
    5.1580   -0.7120   -1.1250 C   0  0  0  0  0  0  0  0  0  0  0  0
    5.5460    0.4340   -1.4130 O   0  0  0  0  0  0  0  0  0  0  0  0
    3.7170   -0.9090   -1.1710 N   0  0  0  0  0  0  0  0  0  0  0  0
    2.8820    0.1840   -1.5270 C   0  0  1  0  0  0  0  0  0  0  0  0
    2.3810    0.0760   -2.9410 C   0  0  0  0  0  0  0  0  0  0  0  0
    3.0790    0.2250   -4.1090 C   0  0  0  0  0  0  0  0  0  0  0  0
    2.4570    0.1020   -5.3430 C   0  0  0  0  0  0  0  0  0  0  0  0
    1.1080   -0.1780   -5.3880 C   0  0  0  0  0  0  0  0  0  0  0  0
    0.4340   -0.3230   -4.2020 C   0  0  0  0  0  0  0  0  0  0  0  0
    1.0510   -0.2000   -2.9700 C   0  0  0  0  0  0  0  0  0  0  0  0
    0.5300   -0.3150   -1.5900 C   0  0  0  0  0  0  0  0  0  0  0  0
    1.6130    0.3110   -0.7040 C   0  0  1  0  0  0  0  0  0  0  0  0
    1.7030   -0.3630    0.6120 C   0  0  0  0  0  0  0  0  0  0  0  0
    0.5830   -0.3300    1.4650 N   0  0  0  0  0  0  0  0  0  0  0  0
   -0.2320    0.8310    1.5020 C   0  0  2  0  0  0  0  0  0  0  0  0
   -0.4680    1.3720    2.9000 C   0  0  0  0  0  0  0  0  0  0  0  0
   -1.6630    0.4140    1.0590 C   0  0  0  0  0  0  0  0  0  0  0  0
   -2.5120    1.0510    0.2460 C   0  0  0  0  0  0  0  0  0  0  0  0
   -3.7280    0.4550   -0.0080 C   0  0  0  0  0  0  0  0  0  0  0  0
   -3.9990   -0.6870    0.5440 C   0  0  0  0  0  0  0  0  0  0  0  0
   -2.4370   -1.0530    1.5540 S   0  0  0  0  0  0  0  0  0  0  0  0
   -5.0930   -1.6460    0.5550 C   0  0  0  0  0  0  0  0  0  0  0  0
   -5.8770   -1.6800    1.8520 C   0  0  2  0  0  0  0  0  0  0  0  0
   -7.3140   -1.9390    1.5330 C   0  0  0  0  0  0  0  0  0  0  0  0
   -5.6280   -0.4350    2.5530 N   0  0  0  0  0  0  0  0  0  0  0  0
   -6.5190    0.4920    3.0650 C   0  0  0  0  0  0  0  0  0  0  0  0
   -6.4440    0.6990    4.3360 O   0  0  0  0  0  0  0  0  0  0  0  0
   -7.5480    1.2770    2.3300 C   0  0  0  0  0  0  0  0  0  0  0  0
   -6.9710    2.2420    1.5150 O   0  0  0  0  0  0  0  0  0  0  0  0
   -7.6880    2.5790    0.3950 C   0  0  0  0  0  0  0  0  0  0  0  0
   -6.8240    2.3270   -0.8590 C   0  0  0  0  0  0  0  0  0  0  0  0
   -6.2020    0.9240   -0.7530 C   0  0  0  0  0  0  0  0  0  0  0  0
   -4.7580    1.0710   -0.9030 C   0  0  0  0  0  0  0  0  0  0  0  0
   -4.4180    1.7900   -1.8890 O   0  0  0  0  0  0  0  0  0  0  0  0
  1  2  1  0
  2  3  1  0
  3  4  1  6
  3  5  1  0
  5  6  1  0
  6  7  1  0
  7  8  2  0
  7  9  1  0
 10  9  1  1
 10 11  1  0
 10 18  1  0
 11 12  2  0
 11 16  1  0
 12 13  1  0
 13 14  2  0
 14 15  1  0
 15 16  2  0
 16 17  1  0
 17 18  1  0
 18 19  1  1
 19 20  1  0
 20 21  1  0
 21 22  1  1
 21 23  1  0
 23 24  2  0
 23 27  1  0
 24 25  1  0
 25 26  2  0
 25 39  1  0
 26 27  1  0
 26 28  1  0
 28 29  1  0
 29 30  1  6
 29 31  1  0
 31 32  1  0
 32 33  2  0
 32 34  1  0
 34 35  1  0
 35 36  1  0
 36 37  1  0
 37 38  1  0
 38 39  1  0
 39 40  2  0
M  CHG  1  20   1
M  END
