
     RDKit          3D

 40 42  0  0  0  0  0  0  0  0999 V2000
    7.7160   -2.8920    2.3200 C   0  0  0  0  0  0  0  0  0  0  0  0
    6.3160   -2.8790    1.7450 C   0  0  0  0  0  0  0  0  0  0  0  0
    6.1480   -1.6220    1.0980 O   0  0  0  0  0  0  0  0  0  0  0  0
    4.9690   -1.2800    0.4570 C   0  0  0  0  0  0  0  0  0  0  0  0
    4.0450   -2.1390    0.4730 O   0  0  0  0  0  0  0  0  0  0  0  0
    4.7740    0.0280   -0.2220 C   0  0  1  0  0  0  0  0  0  0  0  0
    3.4650    0.1100   -0.8060 N   0  0  0  0  0  0  0  0  0  0  0  0
    2.2500   -0.0150   -0.0680 C   0  0  0  0  0  0  0  0  0  0  0  0
    2.3540   -0.2080    1.1610 O   0  0  0  0  0  0  0  0  0  0  0  0
    0.9480    0.0860   -0.7540 C   0  0  0  0  0  0  0  0  0  0  0  0
   -0.2480    0.0170    0.1650 C   0  0  1  0  0  0  0  0  0  0  0  0
   -0.1350   -1.2210    0.8090 O   0  0  0  0  0  0  0  0  0  0  0  0
   -0.2230    1.1950    1.0690 C   0  0  0  0  0  0  0  0  0  0  0  0
   -1.4410    1.3370    1.9510 C   0  0  0  0  0  0  0  0  0  0  0  0
   -2.5260    0.3850    1.4110 C   0  0  0  0  0  0  0  0  0  0  0  0
   -2.6740    0.6470   -0.0300 C   0  0  2  0  0  0  0  0  0  0  0  0
   -3.7780    0.4630   -0.6970 O   0  0  0  0  0  0  0  0  0  0  0  0
   -5.0370    0.8040   -0.3830 C   0  0  2  0  0  0  0  0  0  0  0  0
   -5.2610    2.1900    0.0970 C   0  0  0  0  0  0  0  0  0  0  0  0
   -6.6690    2.5890    0.4320 C   0  0  0  0  0  0  0  0  0  0  0  0
   -6.7410    4.0080    0.8800 C   0  0  0  0  0  0  0  0  0  0  0  0
   -5.6960    4.6780    0.9400 O   0  0  0  0  0  0  0  0  0  0  0  0
   -7.9420    4.5810    1.2240 O   0  0  0  0  0  0  0  0  0  0  0  0
   -5.8080   -0.2720    0.3560 C   0  0  0  0  0  0  0  0  0  0  0  0
   -6.3200   -1.3350   -0.5740 C   0  0  0  0  0  0  0  0  0  0  0  0
   -6.2830   -2.7170   -0.1700 C   0  0  0  0  0  0  0  0  0  0  0  0
   -5.3740   -3.6310   -0.0240 C   0  0  0  0  0  0  0  0  0  0  0  0
   -4.0410   -3.6860   -0.1880 O   0  0  0  0  0  0  0  0  0  0  0  0
   -3.1190   -3.3260   -1.1510 C   0  0  0  0  0  0  0  0  0  0  0  0
   -2.9400   -1.8520   -1.1000 C   0  0  0  0  0  0  0  0  0  0  0  0
   -1.6400   -1.2980   -1.2400 N   0  0  0  0  0  0  0  0  0  0  0  0
   -1.2030   -1.5130   -2.6070 C   0  0  0  0  0  0  0  0  0  0  0  0
   -1.4720    0.0240   -0.7520 C   0  0  2  0  0  0  0  0  0  0  0  0
   -1.1150    0.8210   -1.8410 O   0  0  0  0  0  0  0  0  0  0  0  0
    5.0170    1.1460    0.7630 C   0  0  0  0  0  0  0  0  0  0  0  0
    4.9110    2.5060    0.0980 C   0  0  0  0  0  0  0  0  0  0  0  0
    5.8440    2.6280   -1.0820 C   0  0  0  0  0  0  0  0  0  0  0  0
    5.7200    1.4740   -2.0260 C   0  0  0  0  0  0  0  0  0  0  0  0
    5.8000    0.1380   -1.3420 C   0  0  1  0  0  0  0  0  0  0  0  0
    7.2010   -0.1030   -0.8940 C   0  0  0  0  0  0  0  0  0  0  0  0
  1  2  1  0
  2  3  1  0
  3  4  1  0
  4  5  2  0
  4  6  1  0
  6  7  1  6
  6 35  1  0
  6 39  1  0
  7  8  1  0
  8  9  2  0
  8 10  1  0
 10 11  1  0
 11 12  1  1
 11 13  1  0
 11 33  1  0
 13 14  1  0
 14 15  1  0
 16 15  1  1
 16 17  1  0
 16 33  1  0
 17 18  1  0
 18 19  1  1
 18 24  1  0
 19 20  1  0
 20 21  1  0
 21 22  2  0
 21 23  1  0
 24 25  1  0
 25 26  1  0
 26 27  2  0
 27 28  1  0
 28 29  1  0
 29 30  1  0
 30 31  1  0
 31 32  1  0
 31 33  1  0
 33 34  1  6
 35 36  1  0
 36 37  1  0
 37 38  1  0
 38 39  1  0
 39 40  1  1
M  END
