
     RDKit          3D

 40 41  0  0  0  0  0  0  0  0999 V2000
    0.7680   -5.6920   -0.0190 C   0  0  0  0  0  0  0  0  0  0  0  0
    0.1240   -4.5230   -0.7340 C   0  0  0  0  0  0  0  0  0  0  0  0
   -0.1310   -3.3780    0.2570 C   0  0  2  0  0  0  0  0  0  0  0  0
   -1.0530   -3.9400    1.3110 C   0  0  0  0  0  0  0  0  0  0  0  0
   -0.6550   -2.2190   -0.4840 C   0  0  0  0  0  0  0  0  0  0  0  0
   -2.0830   -1.7950   -0.1170 C   0  0  2  0  0  0  0  0  0  0  0  0
   -2.9840   -2.3930   -1.1560 C   0  0  0  0  0  0  0  0  0  0  0  0
   -2.1140   -0.3030   -0.0580 C   0  0  0  0  0  0  0  0  0  0  0  0
   -3.4080    0.3530   -0.4870 C   0  0  1  0  0  0  0  0  0  0  0  0
   -3.9080   -0.1390   -1.6890 O   0  0  0  0  0  0  0  0  0  0  0  0
   -4.4670    0.2470    0.5450 C   0  0  0  0  0  0  0  0  0  0  0  0
   -5.8090    0.7820    0.2510 C   0  0  1  0  0  0  0  0  0  0  0  0
   -6.7280    0.5480    1.4770 C   0  0  0  0  0  0  0  0  0  0  0  0
   -5.9610    2.1820   -0.1920 C   0  0  0  0  0  0  0  0  0  0  0  0
   -3.0020    1.7920   -0.7840 C   0  0  0  0  0  0  0  0  0  0  0  0
   -2.5110    2.5430    0.3140 N   0  0  0  0  0  0  0  0  0  0  0  0
   -1.3790    2.3470    1.1070 C   0  0  0  0  0  0  0  0  0  0  0  0
   -1.5520    2.3810    2.3800 O   0  0  0  0  0  0  0  0  0  0  0  0
   -0.0100    2.1050    0.6900 C   0  0  0  0  0  0  0  0  0  0  0  0
    0.6480    1.2700    1.4180 O   0  0  0  0  0  0  0  0  0  0  0  0
    0.6630    2.6700   -0.3990 N   0  0  0  0  0  0  0  0  0  0  0  0
    0.8750    4.0700   -0.6860 C   0  0  2  0  0  0  0  0  0  0  0  0
    0.1110    4.5250   -1.8630 C   0  0  0  0  0  0  0  0  0  0  0  0
   -0.6190    3.7270   -2.4960 O   0  0  0  0  0  0  0  0  0  0  0  0
    0.1800    5.8360   -2.2970 O   0  0  0  0  0  0  0  0  0  0  0  0
    2.3880    4.2650   -0.9160 C   0  0  0  0  0  0  0  0  0  0  0  0
    3.0450    3.7910    0.3290 C   0  0  0  0  0  0  0  0  0  0  0  0
    3.6970    2.6750    0.4950 C   0  0  0  0  0  0  0  0  0  0  0  0
    3.9460    1.6130   -0.4950 C   0  0  0  0  0  0  0  0  0  0  0  0
    3.6950    0.2170    0.0930 C   0  0  1  0  0  0  0  0  0  0  0  0
    2.5320   -0.2370   -0.5070 O   0  0  0  0  0  0  0  0  0  0  0  0
    2.5330   -1.6280   -0.4610 C   0  0  1  0  0  0  0  0  0  0  0  0
    4.0010   -2.0230   -0.5770 C   0  0  0  0  0  0  0  0  0  0  0  0
    4.7810   -0.7530   -0.2210 C   0  0  2  0  0  0  0  0  0  0  0  0
    5.6210   -1.1200    0.9770 C   0  0  0  0  0  0  0  0  0  0  0  0
    6.3190    0.0610    1.6090 C   0  0  0  0  0  0  0  0  0  0  0  0
    7.1780    0.6850    0.6960 O   0  0  0  0  0  0  0  0  0  0  0  0
    1.9260   -2.0750    0.8160 C   0  0  0  0  0  0  0  0  0  0  0  0
    2.2230   -1.3670    1.8320 O   0  0  0  0  0  0  0  0  0  0  0  0
    1.1110   -3.1650    0.8930 O   0  0  0  0  0  0  0  0  0  0  0  0
  1  2  1  0
  2  3  1  0
  3  4  1  1
  3  5  1  0
  3 40  1  0
  5  6  1  0
  6  7  1  6
  6  8  1  0
  8  9  1  0
  9 10  1  6
  9 11  1  0
  9 15  1  0
 11 12  1  0
 12 13  1  1
 12 14  1  0
 15 16  1  0
 16 17  1  0
 17 18  2  0
 17 19  1  0
 19 20  2  0
 19 21  1  0
 21 22  1  0
 22 23  1  6
 22 26  1  0
 23 24  2  0
 23 25  1  0
 26 27  1  0
 27 28  2  0
 28 29  1  0
 30 29  1  6
 30 31  1  0
 30 34  1  0
 31 32  1  0
 32 33  1  1
 32 38  1  0
 33 34  1  0
 34 35  1  1
 35 36  1  0
 36 37  1  0
 38 39  2  0
 38 40  1  0
M  END
