
     RDKit          3D

 40 42  0  0  0  0  0  0  0  0999 V2000
   -4.6640   -2.5670    1.5990 C   0  0  0  0  0  0  0  0  0  0  0  0
   -3.3670   -1.8030    1.5680 C   0  0  1  0  0  0  0  0  0  0  0  0
   -2.3640   -2.4460    0.6760 C   0  0  0  0  0  0  0  0  0  0  0  0
   -2.8610   -3.2020   -0.2030 O   0  0  0  0  0  0  0  0  0  0  0  0
   -1.0700   -2.1570    0.9000 O   0  0  0  0  0  0  0  0  0  0  0  0
   -0.1720   -2.4050    1.9040 C   0  0  0  0  0  0  0  0  0  0  0  0
    1.2460   -2.5490    1.4890 C   0  0  0  0  0  0  0  0  0  0  0  0
    1.8430   -3.5760    1.9010 O   0  0  0  0  0  0  0  0  0  0  0  0
    1.9480   -1.6200    0.6790 N   0  0  0  0  0  0  0  0  0  0  0  0
    3.2990   -1.9600    0.2980 C   0  0  0  0  0  0  0  0  0  0  0  0
    3.4840   -2.6740   -0.9850 C   0  0  2  0  0  0  0  0  0  0  0  0
    2.8790   -4.0460   -1.0850 C   0  0  0  0  0  0  0  0  0  0  0  0
    3.6920   -4.5920   -2.2630 C   0  0  0  0  0  0  0  0  0  0  0  0
    4.9980   -3.8480   -2.1290 C   0  0  0  0  0  0  0  0  0  0  0  0
    4.8690   -2.8900   -1.1370 O   0  0  0  0  0  0  0  0  0  0  0  0
    1.3590   -0.3640    0.2550 C   0  0  1  0  0  0  0  0  0  0  0  0
    2.2890    0.8050    0.4760 C   0  0  0  0  0  0  0  0  0  0  0  0
    2.6600    0.9600    1.9350 C   0  0  0  0  0  0  0  0  0  0  0  0
    3.5890    2.1310    2.1540 C   0  0  0  0  0  0  0  0  0  0  0  0
    4.8880    2.0100    1.4020 C   0  0  0  0  0  0  0  0  0  0  0  0
    5.7810    3.2080    1.6590 C   0  0  0  0  0  0  0  0  0  0  0  0
    5.0900    4.3510    1.2270 O   0  0  0  0  0  0  0  0  0  0  0  0
    0.9310   -0.3200   -1.1920 C   0  0  0  0  0  0  0  0  0  0  0  0
   -0.4420    0.1680   -1.3070 C   0  0  2  0  0  0  0  0  0  0  0  0
   -1.2240   -0.8730   -1.8870 O   0  0  0  0  0  0  0  0  0  0  0  0
   -0.7590    1.3670   -2.1000 C   0  0  2  0  0  0  0  0  0  0  0  0
    0.1110    2.5540   -1.9850 C   0  0  0  0  0  0  0  0  0  0  0  0
   -0.4160    3.5960   -2.9820 C   0  0  0  0  0  0  0  0  0  0  0  0
   -1.7810    4.0030   -2.5330 C   0  0  0  0  0  0  0  0  0  0  0  0
   -2.7310    2.8290   -2.5850 C   0  0  0  0  0  0  0  0  0  0  0  0
   -2.2230    1.7060   -1.7380 C   0  0  1  0  0  0  0  0  0  0  0  0
   -2.9260    0.5210   -1.8300 O   0  0  0  0  0  0  0  0  0  0  0  0
   -3.8270   -0.0470   -0.9820 C   0  0  0  0  0  0  0  0  0  0  0  0
   -4.5620   -0.9710   -1.4850 O   0  0  0  0  0  0  0  0  0  0  0  0
   -4.0520    0.2780    0.4300 C   0  0  1  0  0  0  0  0  0  0  0  0
   -5.5270    0.4310    0.7640 C   0  0  1  0  0  0  0  0  0  0  0  0
   -5.7260    1.1810    2.0640 C   0  0  0  0  0  0  0  0  0  0  0  0
   -6.2020    1.1510   -0.2190 O   0  0  0  0  0  0  0  0  0  0  0  0
   -3.4030   -0.4330    1.4190 N   0  0  0  0  0  0  0  0  0  0  0  0
   -2.7350    0.3440    2.4360 C   0  0  0  0  0  0  0  0  0  0  0  0
  2  1  1  6
  2  3  1  0
  2 39  1  0
  3  4  2  0
  3  5  1  0
  5  6  1  0
  6  7  1  0
  7  8  2  0
  7  9  1  0
  9 10  1  0
  9 16  1  0
 11 10  1  1
 11 12  1  0
 11 15  1  0
 12 13  1  0
 13 14  1  0
 14 15  1  0
 16 17  1  6
 16 23  1  0
 17 18  1  0
 18 19  1  0
 19 20  1  0
 20 21  1  0
 21 22  1  0
 23 24  1  0
 24 25  1  6
 24 26  1  0
 26 27  1  1
 26 31  1  0
 27 28  1  0
 28 29  1  0
 29 30  1  0
 31 30  1  6
 31 32  1  0
 32 33  1  0
 33 34  2  0
 33 35  1  0
 35 36  1  0
 35 39  1  1
 36 37  1  1
 36 38  1  0
 39 40  1  0
M  END
