
     RDKit          3D

 25 26  0  0  0  0  0  0  0  0999 V2000
    1.4680    0.7570    0.8280 C   0  0  0  0  0  0  0  0  0  0  0  0
    0.8770   -0.1020   -0.2670 C   0  0  2  0  0  0  0  0  0  0  0  0
    0.5780   -1.3820    0.2090 O   0  0  0  0  0  0  0  0  0  0  0  0
    1.7960   -0.2530   -1.4590 C   0  0  0  0  0  0  0  0  0  0  0  0
    2.9770   -0.9210   -1.1510 O   0  0  0  0  0  0  0  0  0  0  0  0
    3.9410   -0.5310   -0.2340 C   0  0  0  0  0  0  0  0  0  0  0  0
    4.0680   -1.0390    0.9770 C   0  0  0  0  0  0  0  0  0  0  0  0
    5.1950   -0.3750    1.6440 C   0  0  2  0  0  0  0  0  0  0  0  0
    4.6620    0.2940    2.7580 F   0  0  0  0  0  0  0  0  0  0  0  0
    5.7100    0.5900    0.6580 C   0  0  0  0  0  0  0  0  0  0  0  0
    4.9670    0.4820   -0.4240 C   0  0  0  0  0  0  0  0  0  0  0  0
    5.1600    1.2320   -1.5510 F   0  0  0  0  0  0  0  0  0  0  0  0
   -0.4040    0.5380   -0.6600 C   0  0  0  0  0  0  0  0  0  0  0  0
   -0.5000    1.6980   -1.1320 O   0  0  0  0  0  0  0  0  0  0  0  0
   -1.5680   -0.1800   -0.4990 O   0  0  0  0  0  0  0  0  0  0  0  0
   -2.8460    0.3250   -0.8380 C   0  0  1  0  0  0  0  0  0  0  0  0
   -3.4540   -0.6720   -1.8170 C   0  0  0  0  0  0  0  0  0  0  0  0
   -4.3970   -1.3910   -1.1390 O   0  0  0  0  0  0  0  0  0  0  0  0
   -4.1310   -1.2970    0.2220 C   0  0  0  0  0  0  0  0  0  0  0  0
   -3.7950    0.1940    0.3350 C   0  0  1  0  0  0  0  0  0  0  0  0
   -3.2420    0.5160    1.5400 O   0  0  0  0  0  0  0  0  0  0  0  0
   -5.0460    0.9810    0.0180 C   0  0  1  0  0  0  0  0  0  0  0  0
   -4.6740    2.2970   -0.1740 F   0  0  0  0  0  0  0  0  0  0  0  0
   -5.7150    0.4510   -1.0650 F   0  0  0  0  0  0  0  0  0  0  0  0
   -5.8380    0.9330    1.1650 F   0  0  0  0  0  0  0  0  0  0  0  0
  2  1  1  1
  2  3  1  0
  2  4  1  0
  2 13  1  0
  4  5  1  0
  5  6  1  0
  6  7  2  0
  6 11  1  0
  7  8  1  0
  8  9  1  1
  8 10  1  0
 10 11  2  0
 11 12  1  0
 13 14  2  0
 13 15  1  0
 16 15  1  1
 16 17  1  0
 16 20  1  0
 17 18  1  0
 18 19  1  0
 19 20  1  0
 20 21  1  1
 20 22  1  0
 22 23  1  6
 22 24  1  0
 22 25  1  0
M  END
