
     RDKit          3D

 25 25  0  0  0  0  0  0  0  0999 V2000
    1.9640    3.3150   -1.0060 O   0  0  0  0  0  0  0  0  0  0  0  0
    1.2600    2.0630   -1.0890 C   0  0  0  0  0  0  0  0  0  0  0  0
   -0.0160    2.1940   -1.2280 C   0  0  0  0  0  0  0  0  0  0  0  0
   -1.0800    1.1720   -1.3540 C   0  0  2  0  0  0  0  0  0  0  0  0
   -1.6320    1.4860   -2.6500 O   0  0  0  0  0  0  0  0  0  0  0  0
   -2.1450    1.3220   -0.3350 C   0  0  0  0  0  0  0  0  0  0  0  0
   -2.6550    2.6330   -0.3720 F   0  0  0  0  0  0  0  0  0  0  0  0
   -2.6440    0.4920    0.5220 C   0  0  0  0  0  0  0  0  0  0  0  0
   -3.6850    1.0430    1.3430 O   0  0  0  0  0  0  0  0  0  0  0  0
   -2.4090   -0.8880    0.8690 C   0  0  0  0  0  0  0  0  0  0  0  0
   -3.3830   -1.8160    0.8820 C   0  0  0  0  0  0  0  0  0  0  0  0
   -3.2150   -3.2280    1.2230 C   0  0  0  0  0  0  0  0  0  0  0  0
   -3.9890   -3.6000    2.3130 F   0  0  0  0  0  0  0  0  0  0  0  0
   -1.1610   -1.4480    1.2360 O   0  0  0  0  0  0  0  0  0  0  0  0
    0.0170   -0.7900    1.0640 C   0  0  0  0  0  0  0  0  0  0  0  0
    1.1470   -0.9440    2.0130 C   0  0  1  0  0  0  0  0  0  0  0  0
    1.6850   -2.2190    1.9020 O   0  0  0  0  0  0  0  0  0  0  0  0
    2.1700    0.0510    1.3830 C   0  0  0  0  0  0  0  0  0  0  0  0
    2.0900   -0.0880   -0.0430 O   0  0  0  0  0  0  0  0  0  0  0  0
    2.1430    0.9200   -0.9950 C   0  0  0  0  0  0  0  0  0  0  0  0
    3.1100    0.8190   -1.9110 C   0  0  0  0  0  0  0  0  0  0  0  0
    4.1110   -0.2790   -1.9850 C   0  0  2  0  0  0  0  0  0  0  0  0
    3.8460   -1.2520   -1.0280 F   0  0  0  0  0  0  0  0  0  0  0  0
    5.3930    0.1780   -1.7230 F   0  0  0  0  0  0  0  0  0  0  0  0
    4.1410   -0.8430   -3.2490 F   0  0  0  0  0  0  0  0  0  0  0  0
  1  2  1  0
  2  3  2  0
  2 20  1  0
  3  4  1  0
  4  5  1  6
  4  6  1  0
  6  7  1  0
  6  8  2  0
  8  9  1  0
  8 10  1  0
 10 11  2  3
 10 14  1  0
 11 12  1  0
 12 13  1  0
 14 15  1  0
 15 16  1  0
 16 17  1  6
 16 18  1  0
 18 19  1  0
 19 20  1  0
 20 21  2  3
 21 22  1  0
 22 23  1  1
 22 24  1  0
 22 25  1  0
M  END
