
     RDKit          3D

 25 26  0  0  0  0  0  0  0  0999 V2000
   -3.6670    2.9800   -0.5980 O   0  0  0  0  0  0  0  0  0  0  0  0
   -2.5110    2.4490   -0.4250 C   0  0  0  0  0  0  0  0  0  0  0  0
   -1.7960    2.8770    0.6710 O   0  0  0  0  0  0  0  0  0  0  0  0
   -2.0130    1.4380   -1.3680 C   0  0  0  0  0  0  0  0  0  0  0  0
   -1.8920    0.1110   -0.6050 C   0  0  1  0  0  0  0  0  0  0  0  0
   -3.2790   -0.1860   -0.0920 C   0  0  1  0  0  0  0  0  0  0  0  0
   -3.7270    0.8260    0.7570 F   0  0  0  0  0  0  0  0  0  0  0  0
   -4.2010   -0.2600   -1.1240 F   0  0  0  0  0  0  0  0  0  0  0  0
   -3.3480   -1.3800    0.5850 F   0  0  0  0  0  0  0  0  0  0  0  0
   -1.4830   -0.9310   -1.6000 C   0  0  0  0  0  0  0  0  0  0  0  0
   -0.6740   -2.0500   -1.0320 C   0  0  0  0  0  0  0  0  0  0  0  0
    0.1500   -1.6780    0.1720 C   0  0  1  0  0  0  0  0  0  0  0  0
   -0.5150   -2.1380    1.3050 O   0  0  0  0  0  0  0  0  0  0  0  0
    1.4820   -2.3580    0.0370 C   0  0  0  0  0  0  0  0  0  0  0  0
    2.5420   -1.7820    0.9110 C   0  0  0  0  0  0  0  0  0  0  0  0
    1.9840   -0.7980    1.8780 C   0  0  0  0  0  0  0  0  0  0  0  0
    1.2320    0.3340    1.2090 C   0  0  1  0  0  0  0  0  0  0  0  0
    2.2350    1.3040    0.6630 C   0  0  1  0  0  0  0  0  0  0  0  0
    3.0920    0.7920   -0.2800 O   0  0  0  0  0  0  0  0  0  0  0  0
    1.6840    2.6070    0.1930 C   0  0  2  0  0  0  0  0  0  0  0  0
    2.7300    3.3990   -0.2970 F   0  0  0  0  0  0  0  0  0  0  0  0
    1.1250    3.3520    1.2160 F   0  0  0  0  0  0  0  0  0  0  0  0
    0.2610   -0.1730    0.1770 C   0  0  1  0  0  0  0  0  0  0  0  0
    0.6930    0.2530   -1.0710 O   0  0  0  0  0  0  0  0  0  0  0  0
   -1.0210    0.3030    0.4210 O   0  0  0  0  0  0  0  0  0  0  0  0
  1  2  2  0
  2  3  1  0
  2  4  1  0
  5  4  1  6
  5  6  1  0
  5 10  1  0
  5 25  1  0
  6  7  1  1
  6  8  1  0
  6  9  1  0
 10 11  1  0
 11 12  1  0
 12 13  1  1
 12 14  1  0
 12 23  1  0
 14 15  1  0
 15 16  1  0
 17 16  1  6
 17 18  1  0
 17 23  1  0
 18 19  1  6
 18 20  1  0
 20 21  1  1
 20 22  1  0
 23 24  1  6
 23 25  1  0
M  END
