
     RDKit          3D

 25 25  0  0  0  0  0  0  0  0999 V2000
   -3.5230   -2.1630    1.0580 O   0  0  0  0  0  0  0  0  0  0  0  0
   -2.6830   -1.3430    0.5260 C   0  0  0  0  0  0  0  0  0  0  0  0
   -2.8110    0.0580    1.0800 C   0  0  0  0  0  0  0  0  0  0  0  0
   -2.5660    1.1280    0.0820 C   0  0  2  0  0  0  0  0  0  0  0  0
   -2.5680    0.5720   -1.2020 O   0  0  0  0  0  0  0  0  0  0  0  0
   -1.5060    2.1100    0.3530 C   0  0  1  0  0  0  0  0  0  0  0  0
   -2.0560    3.1700    1.1190 O   0  0  0  0  0  0  0  0  0  0  0  0
   -0.2000    1.6580    0.9150 C   0  0  0  0  0  0  0  0  0  0  0  0
    0.7510    1.3410   -0.1960 C   0  0  2  0  0  0  0  0  0  0  0  0
   -0.0100    0.7930   -1.2690 O   0  0  0  0  0  0  0  0  0  0  0  0
    1.9210    0.5240    0.1120 C   0  0  0  0  0  0  0  0  0  0  0  0
    3.1980    1.1490    0.3900 C   0  0  0  0  0  0  0  0  0  0  0  0
    3.5100    2.4110    0.3660 C   0  0  0  0  0  0  0  0  0  0  0  0
    2.6680    3.3880    0.0700 F   0  0  0  0  0  0  0  0  0  0  0  0
    4.8110    2.7740    0.6700 F   0  0  0  0  0  0  0  0  0  0  0  0
    1.8880   -0.8220    0.2140 C   0  0  0  0  0  0  0  0  0  0  0  0
    3.0720   -1.6580    0.5170 C   0  0  1  0  0  0  0  0  0  0  0  0
    3.4090   -1.6440    1.8560 F   0  0  0  0  0  0  0  0  0  0  0  0
    2.6950   -2.9990    0.2680 F   0  0  0  0  0  0  0  0  0  0  0  0
    4.1790   -1.4360   -0.2260 F   0  0  0  0  0  0  0  0  0  0  0  0
    0.6060   -1.5730    0.1190 C   0  0  0  0  0  0  0  0  0  0  0  0
    0.2980   -2.1480   -1.2400 C   0  0  1  0  0  0  0  0  0  0  0  0
    0.7480   -3.4950   -1.3070 O   0  0  0  0  0  0  0  0  0  0  0  0
   -1.2350   -2.1190   -1.4580 C   0  0  0  0  0  0  0  0  0  0  0  0
   -1.7950   -1.5990   -0.3820 O   0  0  0  0  0  0  0  0  0  0  0  0
  1  2  2  0
  2  3  1  0
  2 25  1  0
  3  4  1  0
  4  5  1  6
  4  6  1  0
  6  7  1  1
  6  8  1  0
  8  9  1  0
  9 10  1  6
  9 11  1  0
 11 12  1  0
 11 16  2  0
 12 13  2  3
 13 14  1  0
 13 15  1  0
 16 17  1  0
 16 21  1  0
 17 18  1  1
 17 19  1  0
 17 20  1  0
 21 22  1  0
 22 23  1  1
 22 24  1  0
 24 25  1  0
M  END
