
     RDKit          3D

 31 33  0  0  0  0  0  0  0  0999 V2000
   -7.3060    1.5350    0.0290 O   0  0  0  0  0  0  0  0  0  0  0  0
   -6.2570    1.9710    0.5500 C   0  0  0  0  0  0  0  0  0  0  0  0
   -6.2760    3.0610    1.3760 O   0  0  0  0  0  0  0  0  0  0  0  0
   -4.9880    1.3010    0.2660 C   0  0  0  0  0  0  0  0  0  0  0  0
   -4.9580    0.1980   -0.5680 C   0  0  0  0  0  0  0  0  0  0  0  0
   -3.7670   -0.4340   -0.8360 C   0  0  0  0  0  0  0  0  0  0  0  0
   -2.6000    0.0590   -0.2510 C   0  0  0  0  0  0  0  0  0  0  0  0
   -1.4040   -0.6180   -0.5680 N   0  0  0  0  0  0  0  0  0  0  0  0
   -0.1450   -0.4690    0.0280 C   0  0  0  0  0  0  0  0  0  0  0  0
    0.0360    0.3300    0.9580 O   0  0  0  0  0  0  0  0  0  0  0  0
    1.0150   -1.2770   -0.4510 C   0  0  2  0  0  0  0  0  0  0  0  0
    0.6510   -2.7270   -0.3120 C   0  0  0  0  0  0  0  0  0  0  0  0
    1.7680   -3.6400   -0.7740 C   0  0  0  0  0  0  0  0  0  0  0  0
    1.3480   -5.4140   -0.6130 P   0  0  0  0  0  0  0  0  0  0  0  0
   -0.1090   -5.6850    0.2750 O   0  0  0  0  0  0  0  0  0  0  0  0
    2.6730   -6.3290    0.0080 O   0  0  0  0  0  0  0  0  0  0  0  0
    2.2120   -0.9480    0.3030 N   0  0  0  0  0  0  0  0  0  0  0  0
    2.6830    0.3960    0.2670 C   0  0  0  0  0  0  0  0  0  0  0  0
    2.1250    1.3510   -0.4020 N   0  0  0  0  0  0  0  0  0  0  0  0
    2.8300    2.5830   -0.2380 C   0  0  0  0  0  0  0  0  0  0  0  0
    2.6220    3.8130   -0.7320 N   0  0  0  0  0  0  0  0  0  0  0  0
    3.4630    4.8250   -0.4070 C   0  0  0  0  0  0  0  0  0  0  0  0
    3.2840    5.9900   -0.8620 O   0  0  0  0  0  0  0  0  0  0  0  0
    4.4980    4.6590    0.3860 O   0  0  0  0  0  0  0  0  0  0  0  0
    4.7180    3.4590    0.8800 C   0  0  0  0  0  0  0  0  0  0  0  0
    5.7110    3.2870    1.6450 O   0  0  0  0  0  0  0  0  0  0  0  0
    3.9120    2.3830    0.5990 C   0  0  0  0  0  0  0  0  0  0  0  0
    3.8410    0.9710    0.9420 C   0  0  0  0  0  0  0  0  0  0  0  0
    4.6530    0.3820    1.6930 O   0  0  0  0  0  0  0  0  0  0  0  0
   -2.6340    1.1410    0.5670 C   0  0  0  0  0  0  0  0  0  0  0  0
   -3.8370    1.7660    0.8270 C   0  0  0  0  0  0  0  0  0  0  0  0
  1  2  2  0
  2  3  1  0
  2  4  1  0
  4  5  2  0
  4 31  1  0
  5  6  1  0
  6  7  2  0
  7  8  1  0
  7 30  1  0
  8  9  1  0
  9 10  2  0
  9 11  1  0
 11 12  1  1
 11 17  1  0
 12 13  1  0
 13 14  1  0
 14 15  1  0
 14 16  1  0
 17 18  1  0
 18 19  2  0
 18 28  1  0
 19 20  1  0
 20 21  1  0
 20 27  2  0
 21 22  1  0
 22 23  2  0
 22 24  1  0
 24 25  1  0
 25 26  2  0
 25 27  1  0
 27 28  1  0
 28 29  2  0
 30 31  2  0
M  END
