
     RDKit          3D

 34 35  0  0  0  0  0  0  0  0999 V2000
   -5.9200    3.6240   -0.9890 C   0  0  0  0  0  0  0  0  0  0  0  0
   -5.1990    2.6270   -1.4410 C   0  0  0  0  0  0  0  0  0  0  0  0
   -3.8060    2.3390   -0.9250 C   0  0  0  0  0  0  0  0  0  0  0  0
   -3.8490    1.0860   -0.4080 O   0  0  0  0  0  0  0  0  0  0  0  0
   -2.6660    0.5910    0.1400 C   0  0  2  0  0  0  0  0  0  0  0  0
   -2.3540    1.3820    1.3640 C   0  0  0  0  0  0  0  0  0  0  0  0
   -1.2830    1.1840    2.0330 O   0  0  0  0  0  0  0  0  0  0  0  0
   -3.2260    2.3480    1.8020 O   0  0  0  0  0  0  0  0  0  0  0  0
   -1.6300    0.6540   -0.9100 C   0  0  0  0  0  0  0  0  0  0  0  0
   -0.4850   -0.3020   -0.8380 C   0  0  1  0  0  0  0  0  0  0  0  0
    0.6030    0.2780   -0.2520 O   0  0  0  0  0  0  0  0  0  0  0  0
    1.7840    0.3250   -0.9260 C   0  0  2  0  0  0  0  0  0  0  0  0
    1.8100    1.0770   -2.1790 C   0  0  0  0  0  0  0  0  0  0  0  0
    0.7700    1.6090   -2.6310 O   0  0  0  0  0  0  0  0  0  0  0  0
    2.9560    1.2610   -2.9500 O   0  0  0  0  0  0  0  0  0  0  0  0
    2.2620   -1.0800   -1.2270 C   0  0  0  0  0  0  0  0  0  0  0  0
    3.7440   -1.2600   -1.2620 C   0  0  1  0  0  0  0  0  0  0  0  0
    4.2320   -0.9370   -2.5110 O   0  0  0  0  0  0  0  0  0  0  0  0
    4.4530   -0.4880   -0.1410 C   0  0  1  0  0  0  0  0  0  0  0  0
    5.0410    0.6270   -0.7470 O   0  0  0  0  0  0  0  0  0  0  0  0
    3.3080    0.0400    0.7210 C   0  0  1  0  0  0  0  0  0  0  0  0
    3.8220    0.5970    2.0260 C   0  0  2  0  0  0  0  0  0  0  0  0
    2.7860    1.1260    2.7930 O   0  0  0  0  0  0  0  0  0  0  0  0
    4.8550    1.6690    1.8650 C   0  0  0  0  0  0  0  0  0  0  0  0
    5.2760    2.0030    3.1740 O   0  0  0  0  0  0  0  0  0  0  0  0
    2.6810    0.9980   -0.0540 O   0  0  0  0  0  0  0  0  0  0  0  0
   -0.8610   -1.5400   -0.0680 C   0  0  1  0  0  0  0  0  0  0  0  0
   -0.3300   -1.6140    1.1900 O   0  0  0  0  0  0  0  0  0  0  0  0
   -2.3570   -1.6900   -0.1080 C   0  0  1  0  0  0  0  0  0  0  0  0
   -2.8660   -3.0110    0.3780 C   0  0  2  0  0  0  0  0  0  0  0  0
   -4.2520   -3.0770    0.1010 O   0  0  0  0  0  0  0  0  0  0  0  0
   -2.7590   -3.1850    1.8740 C   0  0  0  0  0  0  0  0  0  0  0  0
   -3.3260   -4.4520    2.1550 O   0  0  0  0  0  0  0  0  0  0  0  0
   -3.0260   -0.6890    0.5580 O   0  0  0  0  0  0  0  0  0  0  0  0
  1  2  2  0
  2  3  1  0
  3  4  1  0
  5  4  1  6
  5  6  1  0
  5  9  1  0
  5 34  1  0
  6  7  2  0
  6  8  1  0
  9 10  1  0
 10 11  1  1
 10 27  1  0
 12 11  1  1
 12 13  1  0
 12 16  1  0
 12 26  1  0
 13 14  2  0
 13 15  1  0
 16 17  1  0
 17 18  1  6
 17 19  1  0
 19 20  1  6
 19 21  1  0
 21 22  1  0
 21 26  1  6
 22 23  1  6
 22 24  1  0
 24 25  1  0
 27 28  1  1
 27 29  1  0
 29 30  1  0
 29 34  1  1
 30 31  1  1
 30 32  1  0
 32 33  1  0
M  END
