
     RDKit          3D

 34 35  0  0  0  0  0  0  0  0999 V2000
    2.0220   -2.4650   -1.0260 C   0  0  0  0  0  0  0  0  0  0  0  0
    1.1250   -1.4440   -0.9130 O   0  0  0  0  0  0  0  0  0  0  0  0
    1.3470   -0.4280   -0.0350 C   0  0  1  0  0  0  0  0  0  0  0  0
    1.5760   -0.8500    1.3780 C   0  0  0  0  0  0  0  0  0  0  0  0
    2.2890    0.6440   -0.5010 C   0  0  2  0  0  0  0  0  0  0  0  0
    1.6980    1.2640   -1.6690 O   0  0  0  0  0  0  0  0  0  0  0  0
    3.6630    0.2980   -0.8940 C   0  0  0  0  0  0  0  0  0  0  0  0
    4.4940   -0.3320    0.1920 C   0  0  1  0  0  0  0  0  0  0  0  0
    5.8940   -0.6610   -0.3140 C   0  0  0  0  0  0  0  0  0  0  0  0
    6.9100   -0.6860    0.8060 C   0  0  1  0  0  0  0  0  0  0  0  0
    8.1070   -1.1490    0.3140 O   0  0  0  0  0  0  0  0  0  0  0  0
    7.0260    0.7050    1.4240 C   0  0  0  0  0  0  0  0  0  0  0  0
    5.7910    1.4610    0.9170 C   0  0  0  0  0  0  0  0  0  0  0  0
    4.6990    0.6700    1.1660 O   0  0  0  0  0  0  0  0  0  0  0  0
   -0.0070    0.3710    0.0340 C   0  0  2  0  0  0  0  0  0  0  0  0
    0.1750    1.4220    0.9980 N   0  0  0  0  0  0  0  0  0  0  0  0
   -1.1800   -0.4380    0.3580 C   0  0  2  0  0  0  0  0  0  0  0  0
   -1.4530   -1.5800   -0.5960 C   0  0  0  0  0  0  0  0  0  0  0  0
   -2.8410   -2.1200   -0.5600 C   0  0  1  0  0  0  0  0  0  0  0  0
   -2.9790   -3.2000    0.4610 C   0  0  0  0  0  0  0  0  0  0  0  0
   -2.7220   -2.9710    1.8400 N   0  0  0  0  0  0  0  0  0  0  0  0
   -3.3300   -4.3630    0.1460 O   0  0  0  0  0  0  0  0  0  0  0  0
   -3.9510   -1.1500   -0.4330 C   0  0  1  0  0  0  0  0  0  0  0  0
   -5.0920   -1.8520    0.0120 O   0  0  0  0  0  0  0  0  0  0  0  0
   -3.6440   -0.1100    0.6280 C   0  0  2  0  0  0  0  0  0  0  0  0
   -4.6980    0.9460    0.6500 C   0  0  0  0  0  0  0  0  0  0  0  0
   -5.3400    1.0990    1.7090 O   0  0  0  0  0  0  0  0  0  0  0  0
   -4.9470    1.7110   -0.4430 O   0  0  0  0  0  0  0  0  0  0  0  0
   -5.9080    2.7030   -0.5280 C   0  0  1  0  0  0  0  0  0  0  0  0
   -5.6680    3.6870    0.5370 N   0  0  0  0  0  0  0  0  0  0  0  0
   -5.7050    3.3850   -1.7760 O   0  0  0  0  0  0  0  0  0  0  0  0
   -7.2340    2.2080   -0.4670 N   0  0  0  0  0  0  0  0  0  0  0  0
   -7.5330    1.6280    0.6870 O   0  0  0  0  0  0  0  0  0  0  0  0
   -2.3740    0.5390    0.1880 C   0  0  0  0  0  0  0  0  0  0  0  0
  1  2  1  0
  2  3  1  0
  3  4  1  1
  3  5  1  0
  3 15  1  0
  5  6  1  6
  5  7  1  0
  8  7  1  6
  8  9  1  0
  8 14  1  0
  9 10  1  0
 10 11  1  6
 10 12  1  0
 12 13  1  0
 13 14  1  0
 15 16  1  1
 15 17  1  0
 17 18  1  6
 17 34  1  0
 18 19  1  0
 19 20  1  1
 19 23  1  0
 20 21  1  0
 20 22  2  0
 23 24  1  1
 23 25  1  0
 25 26  1  6
 25 34  1  0
 26 27  2  0
 26 28  1  0
 28 29  1  0
 29 30  1  1
 29 31  1  0
 29 32  1  0
 32 33  1  0
M  CHG  1  16   1
M  END
