
     RDKit          3D

 34 35  0  0  0  0  0  0  0  0999 V2000
   -2.3320    1.2980   -0.0360 N   0  0  0  0  0  0  0  0  0  0  0  0
   -1.7380    0.5900   -1.1540 C   0  0  1  0  0  0  0  0  0  0  0  0
   -1.0390   -0.6440   -0.6120 C   0  0  2  0  0  0  0  0  0  0  0  0
    0.1910   -0.2760   -0.0520 O   0  0  0  0  0  0  0  0  0  0  0  0
    0.2930   -0.5410    1.2830 C   0  0  2  0  0  0  0  0  0  0  0  0
    0.3950    0.7130    2.1310 C   0  0  0  0  0  0  0  0  0  0  0  0
    0.4940    0.3110    3.4740 O   0  0  0  0  0  0  0  0  0  0  0  0
    1.3890   -1.4540    1.7100 C   0  0  0  0  0  0  0  0  0  0  0  0
    2.7240   -1.0140    1.4030 N   0  0  0  0  0  0  0  0  0  0  0  0
    3.2650   -0.7710    0.1370 C   0  0  0  0  0  0  0  0  0  0  0  0
    2.5350   -0.9480   -0.8680 O   0  0  0  0  0  0  0  0  0  0  0  0
    4.6590   -0.3110   -0.0980 C   0  0  2  0  0  0  0  0  0  0  0  0
    4.9180   -0.1500   -1.4950 N   0  0  0  0  0  0  0  0  0  0  0  0
    5.5700   -1.3670    0.5180 C   0  0  0  0  0  0  0  0  0  0  0  0
    6.9960   -1.0960    0.0910 C   0  0  0  0  0  0  0  0  0  0  0  0
    7.2880    0.3730    0.0430 C   0  0  2  0  0  0  0  0  0  0  0  0
    8.5950    0.5600    0.4910 O   0  0  0  0  0  0  0  0  0  0  0  0
    6.3820    1.1760    0.9520 C   0  0  0  0  0  0  0  0  0  0  0  0
    4.9260    0.9780    0.6410 C   0  0  1  0  0  0  0  0  0  0  0  0
    4.4120    2.0720   -0.0230 O   0  0  0  0  0  0  0  0  0  0  0  0
   -0.7390   -1.6380   -1.7030 C   0  0  0  0  0  0  0  0  0  0  0  0
   -1.9660   -2.0220   -2.5010 C   0  0  0  0  0  0  0  0  0  0  0  0
   -3.1430   -1.2940   -1.8860 C   0  0  0  0  0  0  0  0  0  0  0  0
   -2.8640    0.1970   -2.0800 C   0  0  1  0  0  0  0  0  0  0  0  0
   -4.0680    1.0070   -1.9020 C   0  0  0  0  0  0  0  0  0  0  0  0
   -4.5030    1.6800   -2.8810 O   0  0  0  0  0  0  0  0  0  0  0  0
   -4.7520    1.0670   -0.6970 O   0  0  0  0  0  0  0  0  0  0  0  0
   -5.9030    1.8730   -0.6130 C   0  0  2  0  0  0  0  0  0  0  0  0
   -5.5950    2.9750    0.3880 C   0  0  0  0  0  0  0  0  0  0  0  0
   -5.2970    2.4090    1.6250 O   0  0  0  0  0  0  0  0  0  0  0  0
   -7.1000    1.0980   -0.2010 C   0  0  0  0  0  0  0  0  0  0  0  0
   -8.1900    1.7160   -0.0920 O   0  0  0  0  0  0  0  0  0  0  0  0
   -7.0580   -0.2480    0.0600 O   0  0  0  0  0  0  0  0  0  0  0  0
   -8.2020   -0.9340    0.4420 N   0  0  0  0  0  0  0  0  0  0  0  0
  2  1  1  1
  2  3  1  0
  2 24  1  0
  3  4  1  6
  3 21  1  0
  4  5  1  0
  5  6  1  1
  5  8  1  0
  6  7  1  0
  8  9  1  0
  9 10  1  0
 10 11  2  0
 10 12  1  0
 12 13  1  6
 12 14  1  0
 12 19  1  0
 14 15  1  0
 15 16  1  0
 16 17  1  1
 16 18  1  0
 18 19  1  0
 19 20  1  6
 21 22  1  0
 22 23  1  0
 23 24  1  0
 24 25  1  1
 25 26  2  0
 25 27  1  0
 27 28  1  0
 28 29  1  1
 28 31  1  0
 29 30  1  0
 31 32  2  0
 31 33  1  0
 33 34  1  0
M  CHG  1  34   1
M  END
