
     RDKit          3D

 27 28  0  0  0  0  0  0  0  0999 V2000
    0.8260   -5.4970    1.5590 C   0  0  0  0  0  0  0  0  0  0  0  0
    0.0290   -4.3610    1.2900 O   0  0  0  0  0  0  0  0  0  0  0  0
    0.5140   -3.3130    0.5450 C   0  0  0  0  0  0  0  0  0  0  0  0
    1.6620   -3.3230    0.0820 O   0  0  0  0  0  0  0  0  0  0  0  0
   -0.3430   -2.1480    0.2850 C   0  0  0  0  0  0  0  0  0  0  0  0
   -1.9820   -1.9520    0.8510 S   0  0  0  0  0  0  0  0  0  0  0  0
   -2.2620   -0.2440    0.0570 C   0  0  0  0  0  0  0  0  0  0  0  0
   -3.4660    0.2180    0.2510 C   0  0  0  0  0  0  0  0  0  0  0  0
   -4.4050    1.2330    0.0270 C   0  0  0  0  0  0  0  0  0  0  0  0
   -4.4120    2.2720   -0.7670 C   0  0  0  0  0  0  0  0  0  0  0  0
   -5.5060    3.1410   -0.7650 O   0  0  0  0  0  0  0  0  0  0  0  0
   -6.7940    2.6130   -0.7080 C   0  0  0  0  0  0  0  0  0  0  0  0
   -6.9040    1.4320    0.1860 C   0  0  0  0  0  0  0  0  0  0  0  0
   -5.6320    1.1730    0.7990 O   0  0  0  0  0  0  0  0  0  0  0  0
   -1.0760   -0.0440   -0.5110 C   0  0  0  0  0  0  0  0  0  0  0  0
   -0.6060    1.1990   -0.8570 C   0  0  0  0  0  0  0  0  0  0  0  0
   -1.3540    2.6950   -0.6280 Cl  0  0  0  0  0  0  0  0  0  0  0  0
   -0.1190   -1.0360   -0.3870 C   0  0  0  0  0  0  0  0  0  0  0  0
    1.1930   -0.8920   -1.0350 N   0  0  0  0  0  0  0  0  0  0  0  0
    2.2770   -0.2810   -0.2940 C   0  0  0  0  0  0  0  0  0  0  0  0
    1.9650    0.0720    0.8640 O   0  0  0  0  0  0  0  0  0  0  0  0
    3.5760   -0.1310   -0.9140 C   0  0  0  0  0  0  0  0  0  0  0  0
    3.7030   -0.6470   -2.3410 C   0  0  0  0  0  0  0  0  0  0  0  0
    4.6530    0.3880   -0.4150 C   0  0  0  0  0  0  0  0  0  0  0  0
    4.7630    0.9450    0.9320 C   0  0  0  0  0  0  0  0  0  0  0  0
    5.1760    2.4150    0.8180 C   0  0  0  0  0  0  0  0  0  0  0  0
    5.2720    2.9130    2.0980 O   0  0  0  0  0  0  0  0  0  0  0  0
  1  2  1  0
  2  3  1  0
  3  4  2  0
  3  5  1  0
  5  6  1  0
  5 18  2  0
  6  7  1  0
  7  8  2  3
  7 15  1  0
  8  9  1  0
  9 10  2  0
  9 14  1  0
 10 11  1  0
 11 12  1  0
 12 13  1  0
 13 14  1  0
 15 16  2  3
 15 18  1  0
 16 17  1  0
 18 19  1  0
 19 20  1  0
 20 21  2  0
 20 22  1  0
 22 23  1  0
 22 24  2  3
 24 25  1  0
 25 26  1  0
 26 27  1  0
M  END
