
     RDKit          3D

 28 30  0  0  0  0  0  0  0  0999 V2000
    6.9840   -0.5040    2.7500 C   0  0  0  0  0  0  0  0  0  0  0  0
    5.8410    0.0500    2.0930 O   0  0  0  0  0  0  0  0  0  0  0  0
    5.7020   -0.0690    0.7330 C   0  0  0  0  0  0  0  0  0  0  0  0
    6.6000   -0.6720    0.0900 O   0  0  0  0  0  0  0  0  0  0  0  0
    4.5210    0.4990    0.0230 C   0  0  0  0  0  0  0  0  0  0  0  0
    4.4070    0.3740   -1.2820 C   0  0  0  0  0  0  0  0  0  0  0  0
    3.0010    1.0490   -2.1350 S   0  0  0  0  0  0  0  0  0  0  0  0
    2.1700    2.1370   -0.9460 C   0  0  0  0  0  0  0  0  0  0  0  0
    2.2480    1.3650    0.3800 C   0  0  1  0  0  0  0  0  0  0  0  0
    1.5320    0.0610    0.1030 C   0  0  0  0  0  0  0  0  0  0  0  0
    2.1580   -1.0130    0.2340 O   0  0  0  0  0  0  0  0  0  0  0  0
    0.1770    0.0520   -0.2990 N   0  0  0  0  0  0  0  0  0  0  0  0
   -0.6140   -1.0800   -0.5910 C   0  0  0  0  0  0  0  0  0  0  0  0
   -0.2040   -2.3800   -0.5350 C   0  0  0  0  0  0  0  0  0  0  0  0
   -1.0110   -3.4710   -0.8300 C   0  0  0  0  0  0  0  0  0  0  0  0
   -2.3050   -3.2030   -1.2000 C   0  0  0  0  0  0  0  0  0  0  0  0
   -2.7390   -1.8850   -1.2630 C   0  0  0  0  0  0  0  0  0  0  0  0
   -1.9490   -0.7960   -0.9720 C   0  0  0  0  0  0  0  0  0  0  0  0
   -2.3910    0.4720   -1.0430 O   0  0  0  0  0  0  0  0  0  0  0  0
   -3.4740    1.2120   -1.3040 C   0  0  0  0  0  0  0  0  0  0  0  0
   -4.6560    1.1530   -0.4360 C   0  0  0  0  0  0  0  0  0  0  0  0
   -5.1340    2.2330    0.2140 C   0  0  0  0  0  0  0  0  0  0  0  0
   -6.2900    1.8500    0.9740 C   0  0  0  0  0  0  0  0  0  0  0  0
   -7.0370    2.5510    1.7230 O   0  0  0  0  0  0  0  0  0  0  0  0
   -6.4960    0.4460    0.7480 C   0  0  0  0  0  0  0  0  0  0  0  0
   -7.7450   -0.5980    1.3980 Cl  0  0  0  0  0  0  0  0  0  0  0  0
   -5.5230    0.0570   -0.0850 C   0  0  0  0  0  0  0  0  0  0  0  0
    3.5620    1.1520    0.7710 O   0  0  0  0  0  0  0  0  0  0  0  0
  1  2  1  0
  2  3  1  0
  3  4  2  0
  3  5  1  0
  5  6  2  0
  5 28  1  0
  6  7  1  0
  7  8  1  0
  8  9  1  0
  9 10  1  6
  9 28  1  0
 10 11  2  0
 10 12  1  0
 12 13  1  0
 13 14  2  0
 13 18  1  0
 14 15  1  0
 15 16  2  0
 16 17  1  0
 17 18  2  0
 18 19  1  0
 19 20  1  0
 20 21  1  0
 21 22  2  0
 21 27  1  0
 22 23  1  0
 23 24  2  0
 23 25  1  0
 25 26  1  0
 25 27  2  0
M  END
