
     RDKit          3D

 28 30  0  0  0  0  0  0  0  0999 V2000
    5.4100   -2.0820    0.5160 C   0  0  0  0  0  0  0  0  0  0  0  0
    5.4210   -0.6630    0.2260 N   0  0  0  0  0  0  0  0  0  0  0  0
    4.1850   -0.0440   -0.0910 C   0  0  0  0  0  0  0  0  0  0  0  0
    4.1210    1.1860   -0.3550 O   0  0  0  0  0  0  0  0  0  0  0  0
    2.9130   -0.8290   -0.1230 C   0  0  0  0  0  0  0  0  0  0  0  0
    1.8350   -0.0110   -0.4570 O   0  0  0  0  0  0  0  0  0  0  0  0
    0.5580   -0.5010   -0.5510 C   0  0  0  0  0  0  0  0  0  0  0  0
    0.4330   -1.7450   -0.3130 O   0  0  0  0  0  0  0  0  0  0  0  0
   -0.5980    0.3130   -0.8960 C   0  0  0  0  0  0  0  0  0  0  0  0
   -1.8340   -0.3250   -0.9530 C   0  0  0  0  0  0  0  0  0  0  0  0
   -3.0200    0.3160   -1.2660 C   0  0  0  0  0  0  0  0  0  0  0  0
   -4.1740   -0.4300   -1.2860 O   0  0  0  0  0  0  0  0  0  0  0  0
   -5.0970   -0.4810   -0.2800 C   0  0  0  0  0  0  0  0  0  0  0  0
   -4.9030   -1.2670    0.8330 C   0  0  0  0  0  0  0  0  0  0  0  0
   -3.7610   -2.0310    0.9640 O   0  0  0  0  0  0  0  0  0  0  0  0
   -5.8460   -1.3260    1.8710 C   0  0  0  0  0  0  0  0  0  0  0  0
   -7.0020   -0.5770    1.7760 C   0  0  0  0  0  0  0  0  0  0  0  0
   -7.2140    0.2110    0.6740 C   0  0  0  0  0  0  0  0  0  0  0  0
   -8.6950    1.1810    0.5360 S   0  0  0  0  0  0  0  0  0  0  0  0
   -6.2560    0.2530   -0.3490 C   0  0  0  0  0  0  0  0  0  0  0  0
   -6.5650    1.2240   -1.7660 Cl  0  0  0  0  0  0  0  0  0  0  0  0
   -2.9370    1.6610   -1.5320 C   0  0  0  0  0  0  0  0  0  0  0  0
   -1.7360    2.3490   -1.4910 C   0  0  0  0  0  0  0  0  0  0  0  0
   -0.5550    1.6540   -1.1670 C   0  0  0  0  0  0  0  0  0  0  0  0
    0.5930    2.3640   -1.1380 O   0  0  0  0  0  0  0  0  0  0  0  0
    6.6540    0.0500    0.2690 C   0  0  2  0  0  0  0  0  0  0  0  0
    6.7520    1.5080    0.5200 C   0  0  0  0  0  0  0  0  0  0  0  0
    6.8860    1.0050   -0.8840 C   0  0  0  0  0  0  0  0  0  0  0  0
  1  2  1  0
  2  3  1  0
 26  2  1  6
  3  4  2  0
  3  5  1  0
  5  6  1  0
  6  7  1  0
  7  8  2  0
  7  9  1  0
  9 10  2  0
  9 24  1  0
 10 11  1  0
 11 12  1  0
 11 22  2  0
 12 13  1  0
 13 14  2  0
 13 20  1  0
 14 15  1  0
 14 16  1  0
 16 17  2  0
 17 18  1  0
 18 19  1  0
 18 20  2  0
 20 21  1  0
 22 23  1  0
 23 24  2  0
 24 25  1  0
 26 27  1  0
 26 28  1  0
 27 28  1  0
M  END
