
     RDKit          3D

 28 30  0  0  0  0  0  0  0  0999 V2000
   -5.6800   -3.8310    0.6610 C   0  0  0  0  0  0  0  0  0  0  0  0
   -5.0770   -2.9950   -0.4430 C   0  0  0  0  0  0  0  0  0  0  0  0
   -4.0980   -2.1310    0.1040 O   0  0  0  0  0  0  0  0  0  0  0  0
   -3.3870   -1.2420   -0.6960 C   0  0  0  0  0  0  0  0  0  0  0  0
   -3.6620   -1.2510   -1.9200 O   0  0  0  0  0  0  0  0  0  0  0  0
   -2.3500   -0.3240   -0.1370 C   0  0  0  0  0  0  0  0  0  0  0  0
   -1.7590    0.5230   -1.2140 C   0  0  0  0  0  0  0  0  0  0  0  0
   -0.6870    1.4600   -0.6660 C   0  0  0  0  0  0  0  0  0  0  0  0
    0.5610    0.9320   -0.4490 C   0  0  0  0  0  0  0  0  0  0  0  0
    1.1400   -0.3740   -0.6560 C   0  0  0  0  0  0  0  0  0  0  0  0
    0.4800   -1.3040   -1.1320 O   0  0  0  0  0  0  0  0  0  0  0  0
    2.4620   -0.5830   -0.3140 O   0  0  0  0  0  0  0  0  0  0  0  0
    3.1240   -1.8200   -0.4750 C   0  0  0  0  0  0  0  0  0  0  0  0
    4.5390   -1.7400   -0.0270 C   0  0  0  0  0  0  0  0  0  0  0  0
    5.1670   -0.6910    0.4680 C   0  0  0  0  0  0  0  0  0  0  0  0
    6.5800   -1.0470    0.7890 C   0  0  0  0  0  0  0  0  0  0  0  0
    6.6300   -2.4710    0.3880 C   0  0  0  0  0  0  0  0  0  0  0  0
    5.4590   -2.8680   -0.0790 C   0  0  0  0  0  0  0  0  0  0  0  0
    5.0830   -4.4780   -0.6620 Cl  0  0  0  0  0  0  0  0  0  0  0  0
    1.4890    2.3400    0.2050 S   0  0  0  0  0  0  0  0  0  0  0  0
    0.1520    3.4850    0.1300 C   0  0  0  0  0  0  0  0  0  0  0  0
   -0.8610    2.7730   -0.3580 C   0  0  0  0  0  0  0  0  0  0  0  0
   -2.1440    3.5350   -0.5120 C   0  0  0  0  0  0  0  0  0  0  0  0
   -3.1930    3.0200   -0.9540 O   0  0  0  0  0  0  0  0  0  0  0  0
   -2.1780    4.8960   -0.1430 N   0  0  0  0  0  0  0  0  0  0  0  0
   -1.0490    5.5570    0.3630 C   0  0  0  0  0  0  0  0  0  0  0  0
   -1.1100    6.7980    0.6970 O   0  0  0  0  0  0  0  0  0  0  0  0
    0.2230    4.8960    0.5350 C   0  0  0  0  0  0  0  0  0  0  0  0
  1  2  1  0
  2  3  1  0
  3  4  1  0
  4  5  2  0
  4  6  1  0
  6  7  1  0
  7  8  1  0
  8  9  2  0
  8 22  1  0
  9 10  1  0
  9 20  1  0
 10 11  2  0
 10 12  1  0
 12 13  1  0
 13 14  1  0
 14 15  2  0
 14 18  1  0
 15 16  1  0
 16 17  1  0
 17 18  2  0
 18 19  1  0
 20 21  1  0
 21 22  2  0
 21 28  1  0
 22 23  1  0
 23 24  2  0
 23 25  1  0
 25 26  1  0
 26 27  2  0
 26 28  1  0
M  END
