
     RDKit          3D

 19 18  0  0  0  0  0  0  0  0999 V2000
   -4.8130   -1.3530    0.6970 C   0  0  0  0  0  0  0  0  0  0  0  0
   -3.8570   -0.5260   -0.1820 C   0  0  2  0  0  0  0  0  0  0  0  0
   -3.8330   -1.1990   -1.5270 C   0  0  0  0  0  0  0  0  0  0  0  0
   -5.1050   -1.1180   -2.0810 O   0  0  0  0  0  0  0  0  0  0  0  0
   -2.6330   -0.5440    0.4780 O   0  0  0  0  0  0  0  0  0  0  0  0
   -1.4830    0.0790    0.0150 C   0  0  0  0  0  0  0  0  0  0  0  0
   -1.5790    0.6970   -1.0790 O   0  0  0  0  0  0  0  0  0  0  0  0
   -0.2020    0.0180    0.7770 C   0  0  0  0  0  0  0  0  0  0  0  0
    1.0610    0.9350   -0.1550 S   0  0  0  0  0  0  0  0  0  0  0  0
    2.6120    0.8090    0.7760 C   0  0  0  0  0  0  0  0  0  0  0  0
    3.7370    1.5350    0.0790 C   0  0  0  0  0  0  0  0  0  0  0  0
    5.2310    1.3200    1.1110 S   0  0  0  0  0  0  0  0  0  0  0  0
    5.6350   -0.4600    1.0590 C   0  0  0  0  0  0  0  0  0  0  0  0
    6.0410   -0.8330   -0.3360 C   0  0  0  0  0  0  0  0  0  0  0  0
    6.0670    0.1470   -1.3480 N   0  0  0  0  0  0  0  0  0  0  0  0
    6.3590   -2.0170   -0.6100 O   0  0  0  0  0  0  0  0  0  0  0  0
   -4.4660    0.8110   -0.3370 C   0  0  0  0  0  0  0  0  0  0  0  0
   -3.9450    2.0260    0.1250 N   0  0  0  0  0  0  0  0  0  0  0  0
   -5.5820    0.8200   -0.9620 O   0  0  0  0  0  0  0  0  0  0  0  0
  2  1  1  1
  2  3  1  0
  2  5  1  0
  2 17  1  0
  3  4  1  0
  5  6  1  0
  6  7  2  0
  6  8  1  0
  8  9  1  0
  9 10  1  0
 10 11  1  0
 11 12  1  0
 12 13  1  0
 13 14  1  0
 14 15  1  0
 14 16  2  0
 17 18  1  0
 17 19  2  0
M  END
