
     RDKit          3D

 22 24  0  0  0  0  0  0  0  0999 V2000
   -3.5220    3.6840   -0.2410 C   0  0  0  0  0  0  0  0  0  0  0  0
   -2.2070    3.6780    0.4870 C   0  0  0  0  0  0  0  0  0  0  0  0
   -1.7230    2.2890    0.7080 C   0  0  0  0  0  0  0  0  0  0  0  0
   -1.4790    1.5230   -0.5580 C   0  0  2  0  0  0  0  0  0  0  0  0
   -2.6530    1.4040   -1.2720 O   0  0  0  0  0  0  0  0  0  0  0  0
   -0.8890    0.1520   -0.3140 C   0  0  2  0  0  0  0  0  0  0  0  0
   -1.8140   -0.6380    0.5280 C   0  0  0  0  0  0  0  0  0  0  0  0
   -1.3350   -2.0410    0.8510 C   0  0  2  0  0  0  0  0  0  0  0  0
   -1.1190   -2.8760   -0.3820 C   0  0  0  0  0  0  0  0  0  0  0  0
   -2.5640   -3.2030   -0.7760 C   0  0  0  0  0  0  0  0  0  0  0  0
   -3.2760   -3.2000    0.4460 O   0  0  0  0  0  0  0  0  0  0  0  0
   -2.4940   -2.7250    1.4710 C   0  0  0  0  0  0  0  0  0  0  0  0
   -2.7230   -2.8490    2.6850 O   0  0  0  0  0  0  0  0  0  0  0  0
    0.5030    0.3090    0.2240 C   0  0  2  0  0  0  0  0  0  0  0  0
    1.2920    1.0820   -0.8440 C   0  0  0  0  0  0  0  0  0  0  0  0
    2.6940    0.7070   -0.8250 N   0  0  0  0  0  0  0  0  0  0  0  0
    3.1270    0.3760    0.5310 C   0  0  2  0  0  0  0  0  0  0  0  0
    4.5730   -0.0360    0.4590 C   0  0  0  0  0  0  0  0  0  0  0  0
    4.5390   -1.4830    0.0660 C   0  0  0  0  0  0  0  0  0  0  0  0
    3.1920   -2.0270    0.4150 C   0  0  0  0  0  0  0  0  0  0  0  0
    2.3600   -0.8700    0.9260 C   0  0  2  0  0  0  0  0  0  0  0  0
    1.1270   -0.9360    0.2880 O   0  0  0  0  0  0  0  0  0  0  0  0
  1  2  1  0
  2  3  1  0
  3  4  1  0
  4  5  1  1
  4  6  1  0
  6  7  1  1
  6 14  1  0
  8  7  1  6
  8  9  1  0
  8 12  1  0
  9 10  1  0
 10 11  1  0
 11 12  1  0
 12 13  2  0
 14 15  1  6
 14 22  1  0
 15 16  1  0
 16 17  1  0
 17 18  1  6
 17 21  1  0
 18 19  1  0
 19 20  1  0
 21 20  1  6
 21 22  1  0
M  CHG  1  16   1
M  END
