
     RDKit          3D

 22 24  0  0  0  0  0  0  0  0999 V2000
   -3.0910    1.8930    0.0910 C   0  0  0  0  0  0  0  0  0  0  0  0
   -3.2790    0.4420   -0.1330 C   0  0  2  0  0  0  0  0  0  0  0  0
   -4.0750    0.2950   -1.3650 N   0  0  0  0  0  0  0  0  0  0  0  0
   -4.2080   -0.1390    0.9640 C   0  0  0  0  0  0  0  0  0  0  0  0
   -3.9020   -1.6170    1.0020 C   0  0  0  0  0  0  0  0  0  0  0  0
   -2.9520   -1.8300   -0.1560 C   0  0  2  0  0  0  0  0  0  0  0  0
   -2.1200   -2.8970    0.0150 O   0  0  0  0  0  0  0  0  0  0  0  0
   -2.1860   -0.4860   -0.0880 C   0  0  0  0  0  0  0  0  0  0  0  0
   -0.8810   -0.5450   -0.0370 C   0  0  0  0  0  0  0  0  0  0  0  0
    0.1010    0.4850   -0.0050 C   0  0  0  0  0  0  0  0  0  0  0  0
    1.3780    0.0960    0.0510 C   0  0  0  0  0  0  0  0  0  0  0  0
    1.7230   -1.2910    0.0780 C   0  0  0  0  0  0  0  0  0  0  0  0
    3.0240   -1.6410    0.1320 C   0  0  0  0  0  0  0  0  0  0  0  0
    4.1830   -0.7220    0.1680 C   0  0  0  0  0  0  0  0  0  0  0  0
    5.4080   -1.5710    0.1860 C   0  0  0  0  0  0  0  0  0  0  0  0
    4.8880   -2.9270   -0.2510 C   0  0  0  0  0  0  0  0  0  0  0  0
    3.5260   -2.9330    0.1650 O   0  0  0  0  0  0  0  0  0  0  0  0
    2.4340    1.0020    0.0880 O   0  0  0  0  0  0  0  0  0  0  0  0
    2.6250    2.3080    0.5240 C   0  0  0  0  0  0  0  0  0  0  0  0
    1.3960    3.1120    0.7660 C   0  0  0  0  0  0  0  0  0  0  0  0
    0.3740    2.9480   -0.3400 C   0  0  0  0  0  0  0  0  0  0  0  0
   -0.3550    1.7870   -0.0380 O   0  0  0  0  0  0  0  0  0  0  0  0
  2  1  1  1
  2  3  1  0
  2  4  1  0
  2  8  1  0
  4  5  1  0
  5  6  1  0
  6  7  1  1
  6  8  1  0
  8  9  2  3
  9 10  1  0
 10 11  2  0
 10 22  1  0
 11 12  1  0
 11 18  1  0
 12 13  2  3
 13 14  1  0
 13 17  1  0
 14 15  1  0
 15 16  1  0
 16 17  1  0
 18 19  1  0
 19 20  1  0
 20 21  1  0
 21 22  1  0
M  CHG  1   3   1
M  END
