
     RDKit          3D

 16 16  0  0  0  0  0  0  0  0999 V2000
   -2.3020    2.1830   -1.2010 O   0  0  0  0  0  0  0  0  0  0  0  0
   -2.3440    1.7230   -0.0430 C   0  0  0  0  0  0  0  0  0  0  0  0
   -3.1890    2.3000    0.8940 O   0  0  0  0  0  0  0  0  0  0  0  0
   -1.5010    0.5650    0.3520 C   0  0  1  0  0  0  0  0  0  0  0  0
   -1.7320    0.2460    1.6900 O   0  0  0  0  0  0  0  0  0  0  0  0
   -1.9000   -0.6440   -0.4620 C   0  0  0  0  0  0  0  0  0  0  0  0
   -1.0700   -1.7880    0.1370 C   0  0  1  0  0  0  0  0  0  0  0  0
   -1.4190   -2.9690   -0.4700 O   0  0  0  0  0  0  0  0  0  0  0  0
    0.3670   -1.4310   -0.0680 C   0  0  1  0  0  0  0  0  0  0  0  0
    0.6700   -1.7000   -1.4160 O   0  0  0  0  0  0  0  0  0  0  0  0
    0.7440   -0.0500    0.2470 C   0  0  1  0  0  0  0  0  0  0  0  0
    1.9130    0.3880   -0.6480 C   0  0  2  0  0  0  0  0  0  0  0  0
    2.8840   -0.6120   -0.6150 O   0  0  0  0  0  0  0  0  0  0  0  0
    2.5350    1.6560   -0.1300 C   0  0  0  0  0  0  0  0  0  0  0  0
    2.9890    1.4980    1.1740 O   0  0  0  0  0  0  0  0  0  0  0  0
   -0.1920    0.9170    0.2140 O   0  0  0  0  0  0  0  0  0  0  0  0
  1  2  2  0
  2  3  1  0
  2  4  1  0
  4  5  1  1
  4  6  1  0
  4 16  1  0
  6  7  1  0
  7  8  1  6
  7  9  1  0
  9 10  1  6
  9 11  1  0
 11 12  1  0
 11 16  1  6
 12 13  1  1
 12 14  1  0
 14 15  1  0
M  END
