
     RDKit          3D

 22 23  0  0  0  0  0  0  0  0999 V2000
    6.3690    2.4360   -0.1050 C   0  0  0  0  0  0  0  0  0  0  0  0
    5.2900    1.7750   -0.7260 O   0  0  0  0  0  0  0  0  0  0  0  0
    4.8810    0.4860   -0.3800 C   0  0  0  0  0  0  0  0  0  0  0  0
    5.5030   -0.1140    0.5280 O   0  0  0  0  0  0  0  0  0  0  0  0
    3.7370   -0.1670   -1.0640 C   0  0  0  0  0  0  0  0  0  0  0  0
    2.5000    0.0080   -0.2520 C   0  0  2  0  0  0  0  0  0  0  0  0
    2.3040    1.4090   -0.1320 O   0  0  0  0  0  0  0  0  0  0  0  0
    2.5150   -0.5670    1.1140 C   0  0  0  0  0  0  0  0  0  0  0  0
    1.5590   -1.7030    1.3560 C   0  0  2  0  0  0  0  0  0  0  0  0
    2.0740   -2.9600    0.8110 N   0  0  0  0  0  0  0  0  0  0  0  0
    0.1490   -1.4430    0.9360 C   0  0  0  0  0  0  0  0  0  0  0  0
    0.0180   -0.3910   -0.1160 C   0  0  2  0  0  0  0  0  0  0  0  0
   -1.1390   -0.5310   -1.0390 C   0  0  0  0  0  0  0  0  0  0  0  0
   -2.4800   -0.5080   -0.3950 C   0  0  2  0  0  0  0  0  0  0  0  0
   -3.5380   -0.6560   -1.4610 C   0  0  0  0  0  0  0  0  0  0  0  0
   -4.3080    0.6260   -1.6820 C   0  0  0  0  0  0  0  0  0  0  0  0
   -4.9380    1.1640   -0.4220 C   0  0  0  0  0  0  0  0  0  0  0  0
   -4.2560    0.6150    0.8100 C   0  0  2  0  0  0  0  0  0  0  0  0
   -4.5450    1.4250    2.0320 C   0  0  0  0  0  0  0  0  0  0  0  0
   -2.7520    0.6480    0.5030 C   0  0  0  0  0  0  0  0  0  0  0  0
    1.2730   -0.4740   -0.9450 C   0  0  0  0  0  0  0  0  0  0  0  0
    1.3030   -0.8940   -2.0790 O   0  0  0  0  0  0  0  0  0  0  0  0
  1  2  1  0
  2  3  1  0
  3  4  2  0
  3  5  1  0
  5  6  1  0
  6  7  1  1
  6  8  1  0
  6 21  1  0
  8  9  1  0
  9 10  1  6
  9 11  1  0
 11 12  1  0
 12 13  1  6
 12 21  1  0
 14 13  1  6
 14 15  1  0
 14 20  1  0
 15 16  1  0
 16 17  1  0
 17 18  1  0
 18 19  1  1
 18 20  1  0
 21 22  2  0
M  CHG  1  10   1
M  END
