
     RDKit          3D

 12 12  0  0  0  0  0  0  0  0999 V2000
   -0.7670    2.9480   -0.3070 O   0  0  0  0  0  0  0  0  0  0  0  0
   -0.6080    1.7500    0.0690 C   0  0  0  0  0  0  0  0  0  0  0  0
    0.5240    1.3260    0.7140 O   0  0  0  0  0  0  0  0  0  0  0  0
    1.0520    0.0170    0.5690 C   0  0  2  0  0  0  0  0  0  0  0  0
    2.1980    0.0780   -0.4420 C   0  0  0  0  0  0  0  0  0  0  0  0
    3.1430    0.9600    0.0890 O   0  0  0  0  0  0  0  0  0  0  0  0
    0.0200   -0.9920    0.1760 C   0  0  2  0  0  0  0  0  0  0  0  0
    0.1870   -1.4100   -1.1530 O   0  0  0  0  0  0  0  0  0  0  0  0
   -1.3880   -0.5560    0.3930 C   0  0  2  0  0  0  0  0  0  0  0  0
   -2.2280   -1.4930   -0.2280 O   0  0  0  0  0  0  0  0  0  0  0  0
   -1.6860    0.7930   -0.2050 C   0  0  1  0  0  0  0  0  0  0  0  0
   -2.8700    1.3140    0.2770 O   0  0  0  0  0  0  0  0  0  0  0  0
  1  2  2  0
  2  3  1  0
  2 11  1  0
  3  4  1  0
  4  5  1  6
  4  7  1  0
  5  6  1  0
  7  8  1  6
  7  9  1  0
  9 10  1  6
  9 11  1  0
 11 12  1  1
M  END
