
     RDKit          3D

 18 20  0  0  0  0  0  0  0  0999 V2000
    4.5310   -0.1530   -1.4220 N   0  0  0  0  0  0  0  0  0  0  0  0
    3.7670   -0.4170   -0.2590 C   0  0  0  0  0  0  0  0  0  0  0  0
    4.3770   -0.3500    0.9110 C   0  0  0  0  0  0  0  0  0  0  0  0
    3.5940   -0.6240    2.1380 C   0  0  0  0  0  0  0  0  0  0  0  0
    2.2940   -0.0090    1.9670 N   0  0  0  0  0  0  0  0  0  0  0  0
    1.5650   -0.6240    0.8910 C   0  0  1  0  0  0  0  0  0  0  0  0
    0.2960    0.1750    0.6860 C   0  0  1  0  0  0  0  0  0  0  0  0
    0.5970    1.5950    0.3380 C   0  0  0  0  0  0  0  0  0  0  0  0
   -0.5640    2.1350   -0.4800 C   0  0  0  0  0  0  0  0  0  0  0  0
   -1.8390    1.6440    0.1940 C   0  0  0  0  0  0  0  0  0  0  0  0
   -1.9920    0.1790   -0.1340 C   0  0  2  0  0  0  0  0  0  0  0  0
   -2.8810    0.0340   -1.3200 C   0  0  0  0  0  0  0  0  0  0  0  0
   -3.6410   -1.2740   -1.1820 C   0  0  0  0  0  0  0  0  0  0  0  0
   -4.4590   -1.3110    0.0760 C   0  0  0  0  0  0  0  0  0  0  0  0
   -3.8980   -0.2890    1.0410 C   0  0  0  0  0  0  0  0  0  0  0  0
   -2.4990   -0.4470    1.0090 O   0  0  0  0  0  0  0  0  0  0  0  0
   -0.6060   -0.4280   -0.3600 C   0  0  0  0  0  0  0  0  0  0  0  0
    2.3350   -0.7550   -0.3780 C   0  0  0  0  0  0  0  0  0  0  0  0
  1  2  1  0
  2  3  2  0
  2 18  1  0
  3  4  1  0
  4  5  1  0
  5  6  1  0
  6  7  1  0
  6 18  1  6
  7  8  1  6
  7 17  1  0
  8  9  1  0
  9 10  1  0
 11 10  1  1
 11 12  1  0
 11 16  1  0
 11 17  1  0
 12 13  1  0
 13 14  1  0
 14 15  1  0
 15 16  1  0
M  CHG  1   1   1
M  END
