
     RDKit          3D

 18 20  0  0  0  0  0  0  0  0999 V2000
    3.2120   -1.3860   -1.7520 C   0  0  0  0  0  0  0  0  0  0  0  0
    3.6270   -1.0780   -0.3290 C   0  0  0  0  0  0  0  0  0  0  0  0
    2.6340   -0.1080    0.2540 C   0  0  1  0  0  0  0  0  0  0  0  0
    1.2200   -0.7130    0.2510 C   0  0  0  0  0  0  0  0  0  0  0  0
    0.3300    0.5190    0.3270 C   0  0  2  0  0  0  0  0  0  0  0  0
    0.5820    1.1490    1.6220 C   0  0  0  0  0  0  0  0  0  0  0  0
   -0.3810    1.5210    2.4180 C   0  0  0  0  0  0  0  0  0  0  0  0
   -1.7510    1.3320    2.0950 N   0  0  0  0  0  0  0  0  0  0  0  0
   -2.0220    0.7090    0.8480 C   0  0  0  0  0  0  0  0  0  0  0  0
   -1.0750    0.3230    0.0210 C   0  0  0  0  0  0  0  0  0  0  0  0
   -1.4770   -0.3500   -1.2910 C   0  0  1  0  0  0  0  0  0  0  0  0
   -1.9710   -1.7410   -1.0710 C   0  0  0  0  0  0  0  0  0  0  0  0
   -2.5460    0.4970   -1.9060 C   0  0  0  0  0  0  0  0  0  0  0  0
   -3.5760    1.0240   -0.9720 C   0  0  0  0  0  0  0  0  0  0  0  0
   -3.4450    0.4630    0.4190 C   0  0  0  0  0  0  0  0  0  0  0  0
    2.0100    1.2690    2.0270 C   0  0  0  0  0  0  0  0  0  0  0  0
    2.3640    2.2270    2.7370 O   0  0  0  0  0  0  0  0  0  0  0  0
    2.9450    0.2860    1.5970 N   0  0  0  0  0  0  0  0  0  0  0  0
  1  2  1  0
  3  2  1  1
  3  4  1  0
  3 18  1  0
  5  4  1  1
  5  6  1  0
  5 10  1  0
  6  7  2  0
  6 16  1  0
  7  8  1  0
  8  9  1  0
  9 10  2  0
  9 15  1  0
 10 11  1  0
 11 12  1  1
 11 13  1  0
 13 14  1  0
 14 15  1  0
 16 17  2  0
 16 18  1  0
M  CHG  1  18   1
M  END
