
     RDKit          3D

 12 12  0  0  0  0  0  0  0  0999 V2000
    2.5390   -1.6280    1.5960 O   0  0  0  0  0  0  0  0  0  0  0  0
    2.1420   -0.6090    0.7640 C   0  0  0  0  0  0  0  0  0  0  0  0
    0.9110   -0.9890   -0.0710 C   0  0  2  0  0  0  0  0  0  0  0  0
    1.1840   -2.0870   -0.8580 O   0  0  0  0  0  0  0  0  0  0  0  0
    0.5710    0.2380   -0.8900 C   0  0  0  0  0  0  0  0  0  0  0  0
   -0.5640    0.7950   -0.0540 C   0  0  1  0  0  0  0  0  0  0  0  0
   -0.1250    1.3490    1.1410 O   0  0  0  0  0  0  0  0  0  0  0  0
   -1.4460    1.7190   -0.8340 C   0  0  0  0  0  0  0  0  0  0  0  0
   -2.5860    2.0930   -0.1710 O   0  0  0  0  0  0  0  0  0  0  0  0
   -1.2440   -0.5160    0.2940 C   0  0  1  0  0  0  0  0  0  0  0  0
   -1.6840   -1.0850   -0.9000 O   0  0  0  0  0  0  0  0  0  0  0  0
   -0.1630   -1.2760    0.7300 O   0  0  0  0  0  0  0  0  0  0  0  0
  1  2  1  0
  2  3  1  0
  3  4  1  6
  3  5  1  0
  3 12  1  0
  5  6  1  0
  6  7  1  1
  6  8  1  0
  6 10  1  0
  8  9  1  0
 10 11  1  6
 10 12  1  0
M  END
