
     RDKit          3D

 12 12  0  0  0  0  0  0  0  0999 V2000
   -2.0670    2.0900    1.1110 O   0  0  0  0  0  0  0  0  0  0  0  0
   -1.9940    0.7270    0.8920 C   0  0  0  0  0  0  0  0  0  0  0  0
   -0.6170    0.4360    0.3260 C   0  0  1  0  0  0  0  0  0  0  0  0
   -0.4180    1.1140   -0.8590 O   0  0  0  0  0  0  0  0  0  0  0  0
    0.3660    0.7850    1.2510 O   0  0  0  0  0  0  0  0  0  0  0  0
    1.6010    0.8610    0.5950 C   0  0  2  0  0  0  0  0  0  0  0  0
    1.6460    2.1320    0.0050 O   0  0  0  0  0  0  0  0  0  0  0  0
    1.7630   -0.2100   -0.4470 C   0  0  0  0  0  0  0  0  0  0  0  0
    0.9030   -1.4150   -0.2080 C   0  0  0  0  0  0  0  0  0  0  0  0
   -0.5180   -1.0750    0.1410 C   0  0  1  0  0  0  0  0  0  0  0  0
   -0.8130   -1.6390    1.3920 O   0  0  0  0  0  0  0  0  0  0  0  0
   -1.4390   -1.5030   -0.7880 O   0  0  0  0  0  0  0  0  0  0  0  0
  1  2  1  0
  2  3  1  0
  3  4  1  6
  3  5  1  0
  3 10  1  0
  5  6  1  0
  6  7  1  6
  6  8  1  0
  8  9  1  0
  9 10  1  0
 10 11  1  1
 10 12  1  0
M  END
