
     RDKit          3D

 29 31  0  0  0  0  0  0  0  0999 V2000
    6.3870    2.7180   -2.6050 C   0  0  0  0  0  0  0  0  0  0  0  0
    5.3350    1.7970   -2.6340 O   0  0  0  0  0  0  0  0  0  0  0  0
    4.9430    1.0640   -1.5280 C   0  0  0  0  0  0  0  0  0  0  0  0
    5.5500    1.1750   -0.3070 C   0  0  0  0  0  0  0  0  0  0  0  0
    5.1460    0.4330    0.7960 C   0  0  0  0  0  0  0  0  0  0  0  0
    4.0990   -0.4500    0.6730 C   0  0  0  0  0  0  0  0  0  0  0  0
    3.6310   -1.2330    1.7260 O   0  0  0  0  0  0  0  0  0  0  0  0
    4.2820   -1.0950    2.9800 C   0  0  0  0  0  0  0  0  0  0  0  0
    3.4780   -0.5680   -0.5660 C   0  0  0  0  0  0  0  0  0  0  0  0
    2.3670   -1.5050   -0.6900 C   0  0  0  0  0  0  0  0  0  0  0  0
    2.6310   -2.6830   -1.0130 O   0  0  0  0  0  0  0  0  0  0  0  0
    1.0150   -1.1370   -0.4620 N   0  0  0  0  0  0  0  0  0  0  0  0
    0.8560    0.2380   -0.1000 C   0  0  0  0  0  0  0  0  0  0  0  0
   -0.0820    0.4850    1.0620 C   0  0  0  0  0  0  0  0  0  0  0  0
   -1.4670    0.2600    0.4470 C   0  0  0  0  0  0  0  0  0  0  0  0
   -2.1470    1.4740    0.1560 C   0  0  0  0  0  0  0  0  0  0  0  0
   -2.6570    2.2300    1.2660 N   0  0  2  0  0  0  0  0  0  0  0  0
   -1.7890    3.3230    1.5980 C   0  0  0  0  0  0  0  0  0  0  0  0
   -2.8040    1.4340    2.4660 C   0  0  0  0  0  0  0  0  0  0  0  0
   -1.8800   -0.9140    0.1110 C   0  0  0  0  0  0  0  0  0  0  0  0
   -3.1760   -1.1120   -0.4480 C   0  0  0  0  0  0  0  0  0  0  0  0
   -3.5930   -2.3350   -0.8620 C   0  0  0  0  0  0  0  0  0  0  0  0
   -4.9370   -2.2400   -1.3770 N   0  0  0  0  0  0  0  0  0  0  0  0
   -5.4910   -3.0760   -2.4100 C   0  0  0  0  0  0  0  0  0  0  0  0
   -5.5280   -1.1490   -0.6190 C   0  0  0  0  0  0  0  0  0  0  0  0
   -4.3030   -0.1800   -0.6240 C   0  0  0  0  0  0  0  0  0  0  0  0
   -1.0680   -2.1820    0.2930 C   0  0  0  0  0  0  0  0  0  0  0  0
    0.0750   -2.2320   -0.6500 C   0  0  0  0  0  0  0  0  0  0  0  0
    3.8920    0.1830   -1.6680 C   0  0  0  0  0  0  0  0  0  0  0  0
  1  2  1  0
  2  3  1  0
  3  4  2  0
  3 29  1  0
  4  5  1  0
  5  6  2  0
  6  7  1  0
  6  9  1  0
  7  8  1  0
  9 10  1  0
  9 29  2  0
 10 11  2  0
 10 12  1  0
 12 13  1  0
 12 28  1  0
 13 14  1  0
 14 15  1  0
 15 16  1  0
 15 20  2  0
 16 17  1  0
 17 18  1  1
 17 19  1  0
 20 21  1  0
 20 27  1  0
 21 22  2  0
 21 26  1  0
 22 23  1  0
 23 24  1  0
 23 25  1  0
 25 26  1  0
 27 28  1  0
M  CHG  1  17   1
M  END
