
     RDKit          3D

 29 31  0  0  0  0  0  0  0  0999 V2000
   -5.5750    3.8510   -0.2380 C   0  0  0  0  0  0  0  0  0  0  0  0
   -4.2980    3.5340    0.0270 C   0  0  0  0  0  0  0  0  0  0  0  0
   -3.4070    4.5340    0.6250 C   0  0  0  0  0  0  0  0  0  0  0  0
   -2.0780    3.9870    0.8250 C   0  0  0  0  0  0  0  0  0  0  0  0
   -1.7270    2.7180    0.4970 C   0  0  0  0  0  0  0  0  0  0  0  0
   -2.6590    1.7850   -0.0890 C   0  0  0  0  0  0  0  0  0  0  0  0
   -2.4150    0.4210   -0.4850 C   0  0  0  0  0  0  0  0  0  0  0  0
   -3.5130   -0.2490   -1.0400 C   0  0  0  0  0  0  0  0  0  0  0  0
   -4.8170    0.4000   -1.2080 C   0  0  0  0  0  0  0  0  0  0  0  0
   -3.4420   -1.5230   -1.4530 N   0  0  0  0  0  0  0  0  0  0  0  0
   -2.3220   -2.2060   -1.3510 C   0  0  0  0  0  0  0  0  0  0  0  0
   -2.2000   -3.6330   -1.8020 C   0  0  0  0  0  0  0  0  0  0  0  0
   -1.1590   -1.6300   -0.8080 C   0  0  0  0  0  0  0  0  0  0  0  0
   -0.0260   -2.5310   -0.7430 C   0  0  0  0  0  0  0  0  0  0  0  0
    0.8070   -2.6400   -1.6420 O   0  0  0  0  0  0  0  0  0  0  0  0
    0.1760   -3.3630    0.3900 O   0  0  0  0  0  0  0  0  0  0  0  0
    1.2450   -4.2500    0.4910 C   0  0  0  0  0  0  0  0  0  0  0  0
   -1.2290   -0.3280   -0.3870 C   0  0  0  0  0  0  0  0  0  0  0  0
   -0.0680    0.3420    0.1840 C   0  0  0  0  0  0  0  0  0  0  0  0
    1.2030   -0.2290    0.3130 N   0  0  1  0  0  0  0  0  0  0  0  0
    2.0830    0.1840   -0.8020 C   0  0  0  0  0  0  0  0  0  0  0  0
    3.3950   -0.5320   -0.6480 C   0  0  0  0  0  0  0  0  0  0  0  0
    4.0760   -0.1250    0.6430 C   0  0  2  0  0  0  0  0  0  0  0  0
    4.4810    1.3450    0.4610 C   0  0  0  0  0  0  0  0  0  0  0  0
    5.2230   -0.8310    0.8450 O   0  0  0  0  0  0  0  0  0  0  0  0
    5.1100   -2.1910    0.9430 C   0  0  0  0  0  0  0  0  0  0  0  0
    3.1320   -0.1460    1.8240 C   0  0  0  0  0  0  0  0  0  0  0  0
    1.8340    0.5060    1.4850 C   0  0  0  0  0  0  0  0  0  0  0  0
   -3.8580    2.2750   -0.2710 N   0  0  0  0  0  0  0  0  0  0  0  0
  1  2  2  0
  2  3  1  0
  2 29  1  0
  3  4  1  0
  4  5  2  0
  5  6  1  0
  6  7  1  0
  6 29  2  0
  7  8  2  0
  7 18  1  0
  8  9  1  0
  8 10  1  0
 10 11  2  0
 11 12  1  0
 11 13  1  0
 13 14  1  0
 13 18  2  0
 14 15  2  0
 14 16  1  0
 16 17  1  0
 18 19  1  0
 20 19  1  6
 20 21  1  0
 20 28  1  0
 21 22  1  0
 22 23  1  0
 23 24  1  6
 23 25  1  0
 23 27  1  0
 25 26  1  0
 27 28  1  0
M  CHG  1  20   1
M  END
