
     RDKit          3D

 29 31  0  0  0  0  0  0  0  0999 V2000
   -5.5280    2.2540    1.2630 C   0  0  0  0  0  0  0  0  0  0  0  0
   -5.6600    0.8650    0.7640 C   0  0  0  0  0  0  0  0  0  0  0  0
   -6.9040    0.3480    0.5420 C   0  0  0  0  0  0  0  0  0  0  0  0
   -7.0050   -0.9420    0.0800 C   0  0  0  0  0  0  0  0  0  0  0  0
   -5.9020   -1.7120   -0.1600 C   0  0  0  0  0  0  0  0  0  0  0  0
   -6.0610   -3.0960   -0.6570 C   0  0  0  0  0  0  0  0  0  0  0  0
   -4.6150   -1.1980    0.0620 C   0  0  0  0  0  0  0  0  0  0  0  0
   -3.4620   -2.0690   -0.1930 C   0  0  0  0  0  0  0  0  0  0  0  0
   -2.2000   -1.5650   -0.0120 O   0  0  0  0  0  0  0  0  0  0  0  0
   -1.6370   -0.5150   -0.7070 C   0  0  0  0  0  0  0  0  0  0  0  0
   -2.3100    0.0840   -1.6020 O   0  0  0  0  0  0  0  0  0  0  0  0
   -0.2520   -0.0490   -0.4540 C   0  0  0  0  0  0  0  0  0  0  0  0
    0.0540    0.9250    0.4600 C   0  0  0  0  0  0  0  0  0  0  0  0
   -1.0200    1.5760    1.2560 C   0  0  0  0  0  0  0  0  0  0  0  0
    1.3250    1.3190    0.6600 N   0  0  0  0  0  0  0  0  0  0  0  0
    2.3390    0.7800   -0.0200 C   0  0  0  0  0  0  0  0  0  0  0  0
    3.6950    1.2330    0.2010 N   0  0  0  0  0  0  0  0  0  0  0  0
    4.4820    1.9170   -0.7720 C   0  0  0  0  0  0  0  0  0  0  0  0
    5.8990    1.4990   -0.7540 C   0  0  0  0  0  0  0  0  0  0  0  0
    6.3750    0.7980    0.3890 N   0  0  2  0  0  0  0  0  0  0  0  0
    6.4230   -0.6410    0.2260 C   0  0  0  0  0  0  0  0  0  0  0  0
    5.6850    1.1670    1.6110 C   0  0  0  0  0  0  0  0  0  0  0  0
    4.2140    0.9650    1.5140 C   0  0  0  0  0  0  0  0  0  0  0  0
    2.0710   -0.2030   -0.9470 C   0  0  0  0  0  0  0  0  0  0  0  0
    3.1170   -0.8520   -1.7120 C   0  0  0  0  0  0  0  0  0  0  0  0
    2.8940   -1.7390   -2.5600 O   0  0  0  0  0  0  0  0  0  0  0  0
    0.7740   -0.6420   -1.1880 C   0  0  0  0  0  0  0  0  0  0  0  0
    0.4300   -1.6900   -2.1710 C   0  0  0  0  0  0  0  0  0  0  0  0
   -4.5400    0.0900    0.5230 C   0  0  0  0  0  0  0  0  0  0  0  0
  1  2  1  0
  2  3  2  0
  2 29  1  0
  3  4  1  0
  4  5  2  0
  5  6  1  0
  5  7  1  0
  7  8  1  0
  7 29  2  0
  8  9  1  0
  9 10  1  0
 10 11  2  0
 10 12  1  0
 12 13  2  0
 12 27  1  0
 13 14  1  0
 13 15  1  0
 15 16  2  0
 16 17  1  0
 16 24  1  0
 17 18  1  0
 17 23  1  0
 18 19  1  0
 19 20  1  0
 20 21  1  6
 20 22  1  0
 22 23  1  0
 24 25  1  0
 24 27  2  0
 25 26  2  0
 27 28  1  0
M  CHG  1  20   1
M  END
