
     RDKit          3D

 29 31  0  0  0  0  0  0  0  0999 V2000
    5.5690    4.3820    0.3460 C   0  0  0  0  0  0  0  0  0  0  0  0
    4.4650    3.5000    0.4810 O   0  0  0  0  0  0  0  0  0  0  0  0
    4.5760    2.1320    0.2980 C   0  0  0  0  0  0  0  0  0  0  0  0
    5.6990    1.6680    0.0040 O   0  0  0  0  0  0  0  0  0  0  0  0
    3.4180    1.2550    0.4450 C   0  0  0  0  0  0  0  0  0  0  0  0
    2.1500    1.6680    0.7650 C   0  0  0  0  0  0  0  0  0  0  0  0
    1.3270    0.5280    0.8100 C   0  0  0  0  0  0  0  0  0  0  0  0
   -0.0870    0.5130    1.1160 C   0  0  0  0  0  0  0  0  0  0  0  0
   -0.5650    1.6980    1.3800 O   0  0  0  0  0  0  0  0  0  0  0  0
   -0.9790   -0.5710    1.1660 N   0  0  0  0  0  0  0  0  0  0  0  0
   -0.5210   -1.9080    0.8990 C   0  0  0  0  0  0  0  0  0  0  0  0
   -2.3480   -0.3330    1.4950 C   0  0  0  0  0  0  0  0  0  0  0  0
   -3.3280   -0.0740    0.4350 C   0  0  2  0  0  0  0  0  0  0  0  0
   -3.5440   -1.0850   -0.5570 N   0  0  1  0  0  0  0  0  0  0  0  0
   -2.4970   -1.2500   -1.5190 C   0  0  0  0  0  0  0  0  0  0  0  0
   -4.0330   -2.3400   -0.0570 C   0  0  0  0  0  0  0  0  0  0  0  0
   -3.0960    1.2450   -0.2790 C   0  0  0  0  0  0  0  0  0  0  0  0
   -4.1790    1.5590   -1.2880 C   0  0  0  0  0  0  0  0  0  0  0  0
   -5.5350    1.5160   -0.6930 C   0  0  0  0  0  0  0  0  0  0  0  0
   -5.8100    0.3520    0.1910 C   0  0  0  0  0  0  0  0  0  0  0  0
   -4.6880    0.1220    1.1390 C   0  0  0  0  0  0  0  0  0  0  0  0
    2.1800   -0.5040    0.5070 C   0  0  0  0  0  0  0  0  0  0  0  0
    3.4350   -0.0670    0.2890 N   0  0  0  0  0  0  0  0  0  0  0  0
    4.5810   -0.8850   -0.0520 C   0  0  0  0  0  0  0  0  0  0  0  0
    5.1970   -1.6780    0.8920 C   0  0  0  0  0  0  0  0  0  0  0  0
    6.2900   -2.4700    0.6030 C   0  0  0  0  0  0  0  0  0  0  0  0
    6.8050   -2.4800   -0.6900 C   0  0  0  0  0  0  0  0  0  0  0  0
    6.1900   -1.6860   -1.6370 C   0  0  0  0  0  0  0  0  0  0  0  0
    5.0980   -0.9010   -1.3300 C   0  0  0  0  0  0  0  0  0  0  0  0
  1  2  1  0
  2  3  1  0
  3  4  2  0
  3  5  1  0
  5  6  2  0
  5 23  1  0
  6  7  1  0
  7  8  1  0
  7 22  2  0
  8  9  2  0
  8 10  1  0
 10 11  1  0
 10 12  1  0
 13 12  1  1
 13 14  1  0
 13 17  1  0
 13 21  1  0
 14 15  1  1
 14 16  1  0
 17 18  1  0
 18 19  1  0
 19 20  1  0
 20 21  1  0
 22 23  1  0
 23 24  1  0
 24 25  2  0
 24 29  1  0
 25 26  1  0
 26 27  2  0
 27 28  1  0
 28 29  2  0
M  CHG  1  14   1
M  END
