
     RDKit          3D

 29 32  0  0  0  0  0  0  0  0999 V2000
    3.6520   -2.1560    1.3060 C   0  0  0  0  0  0  0  0  0  0  0  0
    3.4200   -0.7480    1.3400 N   0  0  0  0  0  0  0  0  0  0  0  0
    4.4730    0.1470    1.7260 C   0  0  0  0  0  0  0  0  0  0  0  0
    5.3270    0.6240    0.5850 C   0  0  1  0  0  0  0  0  0  0  0  0
    6.2950    1.4840    1.1550 O   0  0  0  0  0  0  0  0  0  0  0  0
    6.1250   -0.5180   -0.0310 C   0  0  0  0  0  0  0  0  0  0  0  0
    7.2810    0.1320   -0.7770 C   0  0  0  0  0  0  0  0  0  0  0  0
    6.7030    1.1590   -1.6750 C   0  0  0  0  0  0  0  0  0  0  0  0
    7.2600    1.3590   -2.7800 O   0  0  0  0  0  0  0  0  0  0  0  0
    5.5830    1.9080   -1.3610 O   0  0  0  0  0  0  0  0  0  0  0  0
    4.5940    1.4170   -0.4450 C   0  0  0  0  0  0  0  0  0  0  0  0
    2.1540   -0.2210    0.9930 C   0  0  0  0  0  0  0  0  0  0  0  0
    1.9050    1.0010    1.0100 O   0  0  0  0  0  0  0  0  0  0  0  0
    1.1310   -1.1240    0.6120 N   0  0  0  0  0  0  0  0  0  0  0  0
   -0.1720   -0.8100    0.2430 C   0  0  0  0  0  0  0  0  0  0  0  0
   -0.9750   -1.7940   -0.3150 C   0  0  0  0  0  0  0  0  0  0  0  0
   -2.2680   -1.4930   -0.6700 C   0  0  0  0  0  0  0  0  0  0  0  0
   -2.8350   -0.2560   -0.5090 C   0  0  0  0  0  0  0  0  0  0  0  0
   -4.1670    0.0480   -0.8790 N   0  0  0  0  0  0  0  0  0  0  0  0
   -5.0650   -0.8820   -1.5150 C   0  0  0  0  0  0  0  0  0  0  0  0
   -6.2180   -1.2570   -0.5680 C   0  0  0  0  0  0  0  0  0  0  0  0
   -6.3160   -0.1350    0.4190 C   0  0  2  0  0  0  0  0  0  0  0  0
   -8.0480    0.1390    0.9790 S   0  0  0  0  0  0  0  0  0  0  0  0
   -8.1070    1.9160    0.4910 C   0  0  0  0  0  0  0  0  0  0  0  0
   -6.7190    2.1680    0.3950 O   0  0  0  0  0  0  0  0  0  0  0  0
   -6.1860    1.1710   -0.3870 C   0  0  1  0  0  0  0  0  0  0  0  0
   -4.7360    1.3840   -0.6220 C   0  0  0  0  0  0  0  0  0  0  0  0
   -2.0310    0.6860    0.0370 N   0  0  0  0  0  0  0  0  0  0  0  0
   -0.7410    0.4240    0.4030 C   0  0  0  0  0  0  0  0  0  0  0  0
  1  2  1  0
  2  3  1  0
  2 12  1  0
  3  4  1  0
  4  5  1  1
  4  6  1  0
  4 11  1  0
  6  7  1  0
  7  8  1  0
  8  9  2  0
  8 10  1  0
 10 11  1  0
 12 13  2  0
 12 14  1  0
 14 15  1  0
 15 16  2  0
 15 29  1  0
 16 17  1  0
 17 18  2  0
 18 19  1  0
 18 28  1  0
 19 20  1  0
 19 27  1  0
 20 21  1  0
 22 21  1  6
 22 23  1  0
 22 26  1  0
 23 24  1  0
 24 25  1  0
 25 26  1  0
 26 27  1  1
 28 29  2  0
M  END
