
     RDKit          3D

  9  8  0  0  0  0  0  0  0  0999 V2000
   -1.9730   -0.7030   -1.1310 C   0  0  0  0  0  0  0  0  0  0  0  0
   -1.7620   -0.4350    0.1440 C   0  0  0  0  0  0  0  0  0  0  0  0
   -2.6640    0.4700    0.8690 C   0  0  0  0  0  0  0  0  0  0  0  0
   -3.3780   -0.4430    2.2210 Cl  0  0  0  0  0  0  0  0  0  0  0  0
   -0.6640   -1.0430    0.7400 O   0  0  0  0  0  0  0  0  0  0  0  0
    0.5890   -0.9270    0.0400 C   0  0  0  0  0  0  0  0  0  0  0  0
    0.9220    0.5270   -0.0870 C   0  0  0  0  0  0  0  0  0  0  0  0
    2.1120    0.6900   -0.7560 O   0  0  0  0  0  0  0  0  0  0  0  0
    3.1820    0.0840   -0.1130 C   0  0  0  0  0  0  0  0  0  0  0  0
  1  2  2  0
  2  3  1  0
  2  5  1  0
  3  4  1  0
  5  6  1  0
  6  7  1  0
  7  8  1  0
  8  9  1  0
M  END
