
     RDKit          3D

 10 10  0  0  0  0  0  0  0  0999 V2000
   -1.7200   -1.7660   -0.2900 O   0  0  0  0  0  0  0  0  0  0  0  0
   -0.6800   -0.8760   -0.1590 C   0  0  0  0  0  0  0  0  0  0  0  0
    0.6320   -1.2220   -0.3600 C   0  0  0  0  0  0  0  0  0  0  0  0
    1.6820   -0.3340   -0.2300 C   0  0  0  0  0  0  0  0  0  0  0  0
    3.3440   -0.8000   -0.4920 Cl  0  0  0  0  0  0  0  0  0  0  0  0
    1.3560    0.9760    0.1250 C   0  0  0  0  0  0  0  0  0  0  0  0
    0.0570    1.3610    0.3350 C   0  0  0  0  0  0  0  0  0  0  0  0
   -0.3350    3.0000    0.7780 Cl  0  0  0  0  0  0  0  0  0  0  0  0
   -0.9680    0.4300    0.1920 C   0  0  0  0  0  0  0  0  0  0  0  0
   -2.2930    0.7890    0.3970 O   0  0  0  0  0  0  0  0  0  0  0  0
  1  2  1  0
  2  3  2  0
  2  9  1  0
  3  4  1  0
  4  5  1  0
  4  6  2  0
  6  7  1  0
  7  8  1  0
  7  9  2  0
  9 10  1  0
M  END
