
     RDKit          3D

 28 31  0  0  0  0  0  0  0  0999 V2000
    5.4390    1.1730   -1.5580 C   0  0  0  0  0  0  0  0  0  0  0  0
    5.0520    1.2740   -0.1430 C   0  0  0  0  0  0  0  0  0  0  0  0
    5.5130    2.0770    0.7600 N   0  0  0  0  0  0  0  0  0  0  0  0
    4.8990    1.8700    1.9800 N   0  0  0  0  0  0  0  0  0  0  0  0
    4.0120    0.9190    1.9070 C   0  0  0  0  0  0  0  0  0  0  0  0
    3.1110    0.3320    2.8940 C   0  0  0  0  0  0  0  0  0  0  0  0
    2.6740   -1.0280    2.4800 C   0  0  0  0  0  0  0  0  0  0  0  0
    2.3160   -1.1430    1.0800 N   0  0  0  0  0  0  0  0  0  0  0  0
    1.1660   -1.8290    0.6400 C   0  0  0  0  0  0  0  0  0  0  0  0
    0.0340   -1.2300    0.2720 C   0  0  0  0  0  0  0  0  0  0  0  0
   -0.1040    0.2190    0.2970 C   0  0  0  0  0  0  0  0  0  0  0  0
    0.8560    0.9470    0.6710 O   0  0  0  0  0  0  0  0  0  0  0  0
   -1.3670    0.8520   -0.1160 C   0  0  0  0  0  0  0  0  0  0  0  0
   -1.4280    2.3270   -0.0640 C   0  0  0  0  0  0  0  0  0  0  0  0
   -1.2630    2.8850    1.3390 C   0  0  0  0  0  0  0  0  0  0  0  0
   -1.3490    4.2950    1.2390 O   0  0  0  0  0  0  0  0  0  0  0  0
   -2.3620    0.0770   -0.5060 C   0  0  0  0  0  0  0  0  0  0  0  0
   -3.5870    0.6940   -0.9070 N   0  0  0  0  0  0  0  0  0  0  0  0
   -4.7810   -0.1680   -0.8760 C   0  0  0  0  0  0  0  0  0  0  0  0
   -4.4080   -1.3490   -1.7750 C   0  0  2  0  0  0  0  0  0  0  0  0
   -5.6290   -2.1210   -2.1930 C   0  0  0  0  0  0  0  0  0  0  0  0
   -3.4380   -2.1810   -0.9870 C   0  0  0  0  0  0  0  0  0  0  0  0
   -2.3140   -1.3460   -0.5610 N   0  0  0  0  0  0  0  0  0  0  0  0
   -1.1100   -2.0070   -0.1700 C   0  0  0  0  0  0  0  0  0  0  0  0
   -1.0360   -3.2710   -0.2080 O   0  0  0  0  0  0  0  0  0  0  0  0
    3.2230   -0.5250    0.1410 C   0  0  0  0  0  0  0  0  0  0  0  0
    3.2500   -0.9800   -1.2570 C   0  0  0  0  0  0  0  0  0  0  0  0
    4.0370    0.4530    0.5280 C   0  0  0  0  0  0  0  0  0  0  0  0
  1  2  1  0
  2  3  2  0
  2 28  1  0
  3  4  1  0
  4  5  2  0
  5  6  1  0
  5 28  1  0
  6  7  1  0
  7  8  1  0
  8  9  1  0
  8 26  1  0
  9 10  2  3
 10 11  1  0
 10 24  1  0
 11 12  2  0
 11 13  1  0
 13 14  1  0
 13 17  2  0
 14 15  1  0
 15 16  1  0
 17 18  1  0
 17 23  1  0
 18 19  1  0
 19 20  1  0
 20 21  1  1
 20 22  1  0
 22 23  1  0
 23 24  1  0
 24 25  2  0
 26 27  1  0
 26 28  2  0
M  END
