
     RDKit          3D

 18 18  0  0  0  0  0  0  0  0999 V2000
    1.3680   -2.8540   -5.1140 C   0  0  0  0  0  0  0  0  0  0  0  0
    0.6120   -1.5830   -4.8340 C   0  0  0  0  0  0  0  0  0  0  0  0
    0.4820   -1.3690   -3.3760 C   0  0  0  0  0  0  0  0  0  0  0  0
    0.9700   -0.3020   -2.7950 C   0  0  0  0  0  0  0  0  0  0  0  0
    1.6200    0.6430   -3.5540 O   0  0  0  0  0  0  0  0  0  0  0  0
    0.8080   -0.1450   -1.3330 C   0  0  0  0  0  0  0  0  0  0  0  0
    1.2750    0.8960   -0.7090 C   0  0  0  0  0  0  0  0  0  0  0  0
    1.1480    1.1190    0.7460 C   0  0  0  0  0  0  0  0  0  0  0  0
    1.6860    2.2040    1.2260 C   0  0  0  0  0  0  0  0  0  0  0  0
    1.7090    2.6490    2.5780 C   0  0  0  0  0  0  0  0  0  0  0  0
    1.1240    1.9280    3.7020 C   0  0  0  0  0  0  0  0  0  0  0  0
    2.2860    3.7600    2.8260 O   0  0  0  0  0  0  0  0  0  0  0  0
    0.4810    0.2060    1.5400 O   0  0  0  0  0  0  0  0  0  0  0  0
   -0.8600   -0.0730    1.5860 C   0  0  1  0  0  0  0  0  0  0  0  0
   -1.2090   -1.1700    2.6010 C   0  0  0  0  0  0  0  0  0  0  0  0
   -2.7400   -1.1370    2.4880 C   0  0  0  0  0  0  0  0  0  0  0  0
   -3.0860    0.2820    2.0200 C   0  0  0  0  0  0  0  0  0  0  0  0
   -1.7450    1.0220    2.2030 C   0  0  0  0  0  0  0  0  0  0  0  0
  1  2  1  0
  2  3  1  0
  3  4  2  3
  4  5  1  0
  4  6  1  0
  6  7  2  3
  7  8  1  0
  8  9  2  3
  8 13  1  0
  9 10  1  0
 10 11  1  0
 10 12  2  0
 14 13  1  1
 14 15  1  0
 14 18  1  0
 15 16  1  0
 16 17  1  0
 17 18  1  0
M  END
