
     RDKit          3D

 17 17  0  0  0  0  0  0  0  0999 V2000
    1.7470    1.5670    1.5900 C   0  0  0  0  0  0  0  0  0  0  0  0
    1.8170    0.4420    0.6210 C   0  0  0  0  0  0  0  0  0  0  0  0
    2.7580   -0.0200   -0.1850 C   0  0  0  0  0  0  0  0  0  0  0  0
    1.8900   -1.0750   -0.6740 C   0  0  0  0  0  0  0  0  0  0  0  0
    2.0810   -2.1350   -1.6400 C   0  0  0  0  0  0  0  0  0  0  0  0
    1.1380   -2.9190   -1.8720 O   0  0  0  0  0  0  0  0  0  0  0  0
    3.5780   -2.3630   -2.4980 Cl  0  0  0  0  0  0  0  0  0  0  0  0
    0.9390   -0.6150    0.1340 C   0  0  0  0  0  0  0  0  0  0  0  0
   -0.4380   -1.0500    0.3910 C   0  0  1  0  0  0  0  0  0  0  0  0
   -0.6080   -1.6560    2.0590 Cl  0  0  0  0  0  0  0  0  0  0  0  0
   -1.4530    0.0140    0.0820 C   0  0  1  0  0  0  0  0  0  0  0  0
   -2.8670   -0.4710    0.3580 C   0  0  0  0  0  0  0  0  0  0  0  0
   -1.2620    1.1980    0.9660 C   0  0  0  0  0  0  0  0  0  0  0  0
   -1.3120    2.3180    0.5190 O   0  0  0  0  0  0  0  0  0  0  0  0
   -1.3520    0.3650   -1.3480 C   0  0  0  0  0  0  0  0  0  0  0  0
   -0.5060   -0.2250   -2.0560 O   0  0  0  0  0  0  0  0  0  0  0  0
   -2.1510    1.3210   -1.9570 O   0  0  0  0  0  0  0  0  0  0  0  0
  1  2  1  0
  2  3  2  0
  2  8  1  0
  3  4  1  0
  4  5  1  0
  4  8  2  0
  5  6  2  0
  5  7  1  0
  8  9  1  0
  9 10  1  1
  9 11  1  0
 11 12  1  6
 11 13  1  0
 11 15  1  0
 13 14  2  0
 15 16  2  0
 15 17  1  0
M  END
