
     RDKit          3D

 18 18  0  0  0  0  0  0  0  0999 V2000
    0.8930   -1.6110   -1.8770 C   0  0  0  0  0  0  0  0  0  0  0  0
    0.8420   -0.4380   -0.9770 C   0  0  0  0  0  0  0  0  0  0  0  0
   -0.2500    0.2850   -0.7990 C   0  0  0  0  0  0  0  0  0  0  0  0
   -1.5060    0.0040   -1.4600 C   0  0  0  0  0  0  0  0  0  0  0  0
   -2.6450   -0.2660   -0.4510 C   0  0  1  0  0  0  0  0  0  0  0  0
   -3.8640   -0.5400   -1.3080 C   0  0  0  0  0  0  0  0  0  0  0  0
   -2.2720   -1.4320    0.4080 C   0  0  0  0  0  0  0  0  0  0  0  0
   -2.7940    0.9670    0.3760 C   0  0  0  0  0  0  0  0  0  0  0  0
   -3.8890    0.8490    1.4140 C   0  0  0  0  0  0  0  0  0  0  0  0
   -3.8990    2.0850    2.1020 O   0  0  0  0  0  0  0  0  0  0  0  0
    2.0740   -0.0640   -0.2600 C   0  0  0  0  0  0  0  0  0  0  0  0
    2.1400    1.0220    0.4800 O   0  0  0  0  0  0  0  0  0  0  0  0
    3.3020    1.1670    1.0220 C   0  0  0  0  0  0  0  0  0  0  0  0
    3.6920    2.3080    1.9220 C   0  0  0  0  0  0  0  0  0  0  0  0
    5.0180    2.1660    2.3390 O   0  0  0  0  0  0  0  0  0  0  0  0
    4.0750    0.1110    0.6230 C   0  0  0  0  0  0  0  0  0  0  0  0
    3.2660   -0.6780   -0.2060 C   0  0  0  0  0  0  0  0  0  0  0  0
    3.7440   -1.9400   -0.8270 C   0  0  0  0  0  0  0  0  0  0  0  0
  1  2  1  0
  2  3  2  3
  2 11  1  0
  3  4  1  0
  4  5  1  0
  5  6  1  6
  5  7  1  0
  5  8  1  0
  8  9  1  0
  9 10  1  0
 11 12  1  0
 11 17  2  0
 12 13  1  0
 13 14  1  0
 13 16  2  0
 14 15  1  0
 16 17  1  0
 17 18  1  0
M  END
