
     RDKit          3D

 29 31  0  0  0  0  0  0  0  0999 V2000
   -4.9060   -4.3440   -0.7820 C   0  0  0  0  0  0  0  0  0  0  0  0
   -3.6870   -3.8190   -0.5300 C   0  0  0  0  0  0  0  0  0  0  0  0
   -2.5320   -4.7280   -0.4480 C   0  0  0  0  0  0  0  0  0  0  0  0
   -1.3090   -4.0180   -0.1700 C   0  0  0  0  0  0  0  0  0  0  0  0
   -1.2680   -2.6690   -0.0120 C   0  0  0  0  0  0  0  0  0  0  0  0
   -2.3980   -1.8110   -0.0980 C   0  0  0  0  0  0  0  0  0  0  0  0
   -2.5050   -0.3980    0.0530 C   0  0  0  0  0  0  0  0  0  0  0  0
   -3.7900    0.1920   -0.0700 C   0  0  0  0  0  0  0  0  0  0  0  0
   -4.9690   -0.6980   -0.3500 C   0  0  0  0  0  0  0  0  0  0  0  0
   -4.0040    1.4980    0.0520 N   0  0  0  0  0  0  0  0  0  0  0  0
   -3.0400    2.3390    0.2970 C   0  0  0  0  0  0  0  0  0  0  0  0
   -3.2780    3.7900    0.4320 C   0  0  0  0  0  0  0  0  0  0  0  0
   -1.7250    1.8170    0.4330 C   0  0  0  0  0  0  0  0  0  0  0  0
   -0.7680    2.8530    0.7390 C   0  0  0  0  0  0  0  0  0  0  0  0
   -0.5960    3.1160    1.9830 O   0  0  0  0  0  0  0  0  0  0  0  0
   -0.0310    3.5880   -0.1560 O   0  0  0  0  0  0  0  0  0  0  0  0
    0.8890    4.5990    0.2340 C   0  0  0  0  0  0  0  0  0  0  0  0
   -1.4390    0.5000    0.3180 C   0  0  0  0  0  0  0  0  0  0  0  0
   -0.1020   -0.0350    0.4240 C   0  0  0  0  0  0  0  0  0  0  0  0
    1.0730    0.7070    0.6370 N   0  0  1  0  0  0  0  0  0  0  0  0
    2.0000   -0.1810    1.4300 C   0  0  0  0  0  0  0  0  0  0  0  0
    2.8730   -1.0090    0.5320 C   0  0  0  0  0  0  0  0  0  0  0  0
    3.9610   -0.1420   -0.1340 C   0  0  1  0  0  0  0  0  0  0  0  0
    5.1610   -0.0510    0.7540 C   0  0  0  0  0  0  0  0  0  0  0  0
    4.2900   -0.6770   -1.3590 O   0  0  0  0  0  0  0  0  0  0  0  0
    5.2720    0.0180   -2.0030 C   0  0  0  0  0  0  0  0  0  0  0  0
    3.2710    1.2230   -0.2650 C   0  0  0  0  0  0  0  0  0  0  0  0
    1.8360    0.8950   -0.6140 C   0  0  0  0  0  0  0  0  0  0  0  0
   -3.5110   -2.4540   -0.3490 N   0  0  0  0  0  0  0  0  0  0  0  0
  1  2  2  0
  2  3  1  0
  2 29  1  0
  3  4  1  0
  4  5  2  0
  5  6  1  0
  6  7  1  0
  6 29  2  0
  7  8  2  0
  7 18  1  0
  8  9  1  0
  8 10  1  0
 10 11  2  0
 11 12  1  0
 11 13  1  0
 13 14  1  0
 13 18  2  0
 14 15  2  0
 14 16  1  0
 16 17  1  0
 18 19  1  0
 20 19  1  6
 20 21  1  0
 20 28  1  0
 21 22  1  0
 22 23  1  0
 23 24  1  1
 23 25  1  0
 23 27  1  0
 25 26  1  0
 27 28  1  0
M  CHG  1  20   1
M  END
