
     RDKit          3D

 29 31  0  0  0  0  0  0  0  0999 V2000
   -4.8070    2.9100   -1.0360 C   0  0  0  0  0  0  0  0  0  0  0  0
   -5.2270    1.5010   -0.8320 C   0  0  0  0  0  0  0  0  0  0  0  0
   -6.5630    1.1860   -0.8490 C   0  0  0  0  0  0  0  0  0  0  0  0
   -6.9250   -0.1090   -0.6610 C   0  0  0  0  0  0  0  0  0  0  0  0
   -6.0170   -1.1160   -0.4540 C   0  0  0  0  0  0  0  0  0  0  0  0
   -6.4890   -2.5170   -0.2540 C   0  0  0  0  0  0  0  0  0  0  0  0
   -4.6460   -0.8200   -0.4310 C   0  0  0  0  0  0  0  0  0  0  0  0
   -3.6910   -1.9000   -0.2290 C   0  0  0  0  0  0  0  0  0  0  0  0
   -2.3380   -1.6000   -0.1770 O   0  0  0  0  0  0  0  0  0  0  0  0
   -1.6610   -0.8140    0.7150 C   0  0  0  0  0  0  0  0  0  0  0  0
   -2.3380   -0.2570    1.6310 O   0  0  0  0  0  0  0  0  0  0  0  0
   -0.2220   -0.5770    0.6920 C   0  0  0  0  0  0  0  0  0  0  0  0
    0.3010    0.4700   -0.0070 C   0  0  0  0  0  0  0  0  0  0  0  0
   -0.5270    1.4350   -0.7870 C   0  0  0  0  0  0  0  0  0  0  0  0
    1.6600    0.6220    0.0230 N   0  0  0  0  0  0  0  0  0  0  0  0
    2.4840   -0.1790    0.6850 C   0  0  0  0  0  0  0  0  0  0  0  0
    3.8710    0.0830    0.6410 N   0  0  0  0  0  0  0  0  0  0  0  0
    4.8720   -0.8400    0.1260 C   0  0  0  0  0  0  0  0  0  0  0  0
    5.9620    0.0010   -0.5360 C   0  0  0  0  0  0  0  0  0  0  0  0
    5.4220    1.2390   -1.0550 N   0  0  2  0  0  0  0  0  0  0  0  0
    6.4510    1.9420   -1.7810 C   0  0  0  0  0  0  0  0  0  0  0  0
    4.8880    2.1210   -0.0680 C   0  0  0  0  0  0  0  0  0  0  0  0
    4.3940    1.3460    1.1270 C   0  0  0  0  0  0  0  0  0  0  0  0
    1.9880   -1.2410    1.3980 C   0  0  0  0  0  0  0  0  0  0  0  0
    2.9040   -2.1130    2.1170 C   0  0  0  0  0  0  0  0  0  0  0  0
    3.3890   -3.1150    1.5710 O   0  0  0  0  0  0  0  0  0  0  0  0
    0.6270   -1.4340    1.3970 C   0  0  0  0  0  0  0  0  0  0  0  0
    0.0260   -2.5520    2.1400 C   0  0  0  0  0  0  0  0  0  0  0  0
   -4.2930    0.4800   -0.6220 C   0  0  0  0  0  0  0  0  0  0  0  0
  1  2  1  0
  2  3  2  0
  2 29  1  0
  3  4  1  0
  4  5  2  0
  5  6  1  0
  5  7  1  0
  7  8  1  0
  7 29  2  0
  8  9  1  0
  9 10  1  0
 10 11  2  0
 10 12  1  0
 12 13  2  0
 12 27  1  0
 13 14  1  0
 13 15  1  0
 15 16  2  0
 16 17  1  0
 16 24  1  0
 17 18  1  0
 17 23  1  0
 18 19  1  0
 19 20  1  0
 20 21  1  1
 20 22  1  0
 22 23  1  0
 24 25  1  0
 24 27  2  0
 25 26  2  0
 27 28  1  0
M  CHG  1  20   1
M  END
