
     RDKit          3D

 29 31  0  0  0  0  0  0  0  0999 V2000
   -5.7690   -3.2290   -0.4270 C   0  0  0  0  0  0  0  0  0  0  0  0
   -4.6110   -2.4380   -0.1420 O   0  0  0  0  0  0  0  0  0  0  0  0
   -4.6460   -1.0690   -0.0520 C   0  0  0  0  0  0  0  0  0  0  0  0
   -5.7520   -0.4880   -0.2280 O   0  0  0  0  0  0  0  0  0  0  0  0
   -3.4890   -0.2480    0.2350 C   0  0  0  0  0  0  0  0  0  0  0  0
   -2.1900   -0.7340    0.4560 C   0  0  0  0  0  0  0  0  0  0  0  0
   -1.3230    0.2880    0.7000 C   0  0  0  0  0  0  0  0  0  0  0  0
    0.0790    0.2610    0.9750 C   0  0  0  0  0  0  0  0  0  0  0  0
    0.6100    1.4310    1.1620 O   0  0  0  0  0  0  0  0  0  0  0  0
    0.9310   -0.8320    1.0660 N   0  0  0  0  0  0  0  0  0  0  0  0
    0.4420   -2.1830    0.9160 C   0  0  0  0  0  0  0  0  0  0  0  0
    2.3520   -0.6650    1.3290 C   0  0  0  0  0  0  0  0  0  0  0  0
    3.2750   -0.5650    0.1610 C   0  0  2  0  0  0  0  0  0  0  0  0
    3.1870   -1.7440   -0.6360 N   0  0  2  0  0  0  0  0  0  0  0  0
    3.8740   -2.8370    0.0290 C   0  0  0  0  0  0  0  0  0  0  0  0
    3.7940   -1.6750   -1.9500 C   0  0  0  0  0  0  0  0  0  0  0  0
    4.6990   -0.4280    0.7640 C   0  0  0  0  0  0  0  0  0  0  0  0
    5.5500    0.5290   -0.0270 C   0  0  0  0  0  0  0  0  0  0  0  0
    5.0530    1.9690    0.0710 C   0  0  0  0  0  0  0  0  0  0  0  0
    3.5610    1.9150    0.1720 C   0  0  0  0  0  0  0  0  0  0  0  0
    3.0710    0.7050   -0.5880 C   0  0  0  0  0  0  0  0  0  0  0  0
   -2.1440    1.4380    0.6200 C   0  0  0  0  0  0  0  0  0  0  0  0
   -3.4040    1.0760    0.3460 N   0  0  0  0  0  0  0  0  0  0  0  0
   -4.4710    2.0420    0.2050 C   0  0  0  0  0  0  0  0  0  0  0  0
   -5.4140    2.1990    1.2060 C   0  0  0  0  0  0  0  0  0  0  0  0
   -6.4480    3.1170    1.0980 C   0  0  0  0  0  0  0  0  0  0  0  0
   -6.5450    3.9040   -0.0430 C   0  0  0  0  0  0  0  0  0  0  0  0
   -5.6170    3.7590   -1.0450 C   0  0  0  0  0  0  0  0  0  0  0  0
   -4.5840    2.8320   -0.9210 C   0  0  0  0  0  0  0  0  0  0  0  0
  1  2  1  0
  2  3  1  0
  3  4  2  0
  3  5  1  0
  5  6  2  0
  5 23  1  0
  6  7  1  0
  7  8  1  0
  7 22  2  0
  8  9  2  0
  8 10  1  0
 10 11  1  0
 10 12  1  0
 13 12  1  1
 13 14  1  0
 13 17  1  0
 13 21  1  0
 14 15  1  1
 14 16  1  0
 17 18  1  0
 18 19  1  0
 19 20  1  0
 20 21  1  0
 22 23  1  0
 23 24  1  0
 24 25  2  0
 24 29  1  0
 25 26  1  0
 26 27  2  0
 27 28  1  0
 28 29  2  0
M  CHG  1  14   1
M  END
