
     RDKit          3D

 29 31  0  0  0  0  0  0  0  0999 V2000
    6.0850    2.8580    0.2760 C   0  0  0  0  0  0  0  0  0  0  0  0
    6.2750    1.8110   -0.6430 O   0  0  0  0  0  0  0  0  0  0  0  0
    5.4740    0.6840   -0.5730 C   0  0  0  0  0  0  0  0  0  0  0  0
    5.7040   -0.3110   -1.4980 C   0  0  0  0  0  0  0  0  0  0  0  0
    4.9230   -1.4440   -1.4530 C   0  0  0  0  0  0  0  0  0  0  0  0
    3.9420   -1.5760   -0.5110 C   0  0  0  0  0  0  0  0  0  0  0  0
    3.1750   -2.7110   -0.4840 O   0  0  0  0  0  0  0  0  0  0  0  0
    3.3650   -3.7570   -1.4020 C   0  0  0  0  0  0  0  0  0  0  0  0
    3.7160   -0.5770    0.4110 C   0  0  0  0  0  0  0  0  0  0  0  0
    2.6860   -0.6690    1.4330 C   0  0  0  0  0  0  0  0  0  0  0  0
    3.0010   -1.1850    2.5450 O   0  0  0  0  0  0  0  0  0  0  0  0
    1.3970   -0.1940    1.1660 N   0  0  0  0  0  0  0  0  0  0  0  0
    0.4110   -0.3170    2.2350 C   0  0  0  0  0  0  0  0  0  0  0  0
   -0.4960    0.9060    2.0350 C   0  0  0  0  0  0  0  0  0  0  0  0
   -1.5850    0.4730    1.0650 C   0  0  0  0  0  0  0  0  0  0  0  0
   -2.9050    0.4060    1.6810 C   0  0  0  0  0  0  0  0  0  0  0  0
   -3.5960    1.6150    1.9250 N   0  0  1  0  0  0  0  0  0  0  0  0
   -4.9250    1.2540    2.4460 C   0  0  0  0  0  0  0  0  0  0  0  0
   -3.0220    2.4800    2.9300 C   0  0  0  0  0  0  0  0  0  0  0  0
   -1.3280    0.0280   -0.1450 C   0  0  0  0  0  0  0  0  0  0  0  0
   -2.4640   -0.3300   -0.9760 C   0  0  0  0  0  0  0  0  0  0  0  0
   -2.2130   -0.8580   -2.2130 C   0  0  0  0  0  0  0  0  0  0  0  0
   -3.4280   -1.1550   -2.8880 N   0  0  0  0  0  0  0  0  0  0  0  0
   -3.6960   -1.2460   -4.2900 C   0  0  0  0  0  0  0  0  0  0  0  0
   -4.4010   -1.3580   -1.8020 C   0  0  0  0  0  0  0  0  0  0  0  0
   -3.9130   -0.1520   -0.9370 C   0  0  0  0  0  0  0  0  0  0  0  0
   -0.0080   -0.1650   -0.8260 C   0  0  0  0  0  0  0  0  0  0  0  0
    1.1800    0.3710   -0.1470 C   0  0  0  0  0  0  0  0  0  0  0  0
    4.4930    0.5670    0.3790 C   0  0  0  0  0  0  0  0  0  0  0  0
  1  2  1  0
  2  3  1  0
  3  4  2  0
  3 29  1  0
  4  5  1  0
  5  6  2  0
  6  7  1  0
  6  9  1  0
  7  8  1  0
  9 10  1  0
  9 29  2  0
 10 11  2  0
 10 12  1  0
 12 13  1  0
 12 28  1  0
 13 14  1  0
 14 15  1  0
 15 16  1  0
 15 20  2  0
 16 17  1  0
 17 18  1  1
 17 19  1  0
 20 21  1  0
 20 27  1  0
 21 22  2  0
 21 26  1  0
 22 23  1  0
 23 24  1  0
 23 25  1  0
 25 26  1  0
 27 28  1  0
M  CHG  1  17   1
M  END
