
     RDKit          3D

 33 36  0  0  0  0  0  0  0  0999 V2000
   -4.8260   -2.4960    2.5320 C   0  0  0  0  0  0  0  0  0  0  0  0
   -3.4280   -2.0900    2.5680 N   0  0  0  0  0  0  0  0  0  0  0  0
   -3.2180   -0.7180    2.8810 C   0  0  2  0  0  0  0  0  0  0  0  0
   -4.3930    0.1900    2.6590 C   0  0  0  0  0  0  0  0  0  0  0  0
   -4.0300    1.1180    1.4910 C   0  0  2  0  0  0  0  0  0  0  0  0
   -5.1210    1.1660    0.6010 N   0  0  0  0  0  0  0  0  0  0  0  0
   -4.8940    1.0310   -0.7850 C   0  0  1  0  0  0  0  0  0  0  0  0
   -5.3750    2.2070   -1.6180 C   0  0  0  0  0  0  0  0  0  0  0  0
   -3.4990    0.7020   -1.2050 C   0  0  2  0  0  0  0  0  0  0  0  0
   -3.4850   -0.1110   -2.5050 C   0  0  0  0  0  0  0  0  0  0  0  0
   -2.8410   -0.1600   -0.2040 N   0  0  0  0  0  0  0  0  0  0  0  0
   -2.7230    0.6420    0.9680 C   0  0  2  0  0  0  0  0  0  0  0  0
   -2.1140   -0.0270    2.1630 C   0  0  2  0  0  0  0  0  0  0  0  0
   -0.9230   -0.8730    1.8970 C   0  0  0  0  0  0  0  0  0  0  0  0
    0.1460   -0.1810    1.2080 N   0  0  0  0  0  0  0  0  0  0  0  0
    1.3130   -0.8740    0.9030 C   0  0  0  0  0  0  0  0  0  0  0  0
    1.3470   -2.1260    1.2540 O   0  0  0  0  0  0  0  0  0  0  0  0
    2.5080   -0.3920    0.2400 C   0  0  0  0  0  0  0  0  0  0  0  0
    3.2910   -1.3170   -0.4940 C   0  0  0  0  0  0  0  0  0  0  0  0
    4.4070   -0.9710   -1.1860 C   0  0  0  0  0  0  0  0  0  0  0  0
    4.8470    0.3310   -1.2090 C   0  0  0  0  0  0  0  0  0  0  0  0
    4.1100    1.2520   -0.5050 C   0  0  0  0  0  0  0  0  0  0  0  0
    2.9500    0.8900    0.2130 C   0  0  0  0  0  0  0  0  0  0  0  0
    2.2690    1.9620    0.9740 C   0  0  0  0  0  0  0  0  0  0  0  0
    5.8650    0.9950   -1.7600 C   0  0  0  0  0  0  0  0  0  0  0  0
    5.7770    2.3390   -1.4150 O   0  0  0  0  0  0  0  0  0  0  0  0
    6.8840    3.1930   -1.6140 C   0  0  0  0  0  0  0  0  0  0  0  0
    6.9510    0.6510   -2.5710 O   0  0  0  0  0  0  0  0  0  0  0  0
    7.7990   -0.4520   -2.7180 C   0  0  0  0  0  0  0  0  0  0  0  0
    7.1300   -1.6380   -3.1260 O   0  0  0  0  0  0  0  0  0  0  0  0
    6.0430   -2.3560   -2.6050 C   0  0  0  0  0  0  0  0  0  0  0  0
    6.0740   -3.5660   -2.9700 O   0  0  0  0  0  0  0  0  0  0  0  0
    4.8930   -2.0680   -1.7550 C   0  0  0  0  0  0  0  0  0  0  0  0
  1  2  1  0
  3  2  1  6
  3  4  1  0
  3 13  1  0
  5  4  1  1
  5  6  1  0
  5 12  1  0
  6  7  1  0
  7  8  1  6
  7  9  1  0
  9 10  1  6
  9 11  1  0
 12 11  1  6
 12 13  1  0
 13 14  1  6
 14 15  1  0
 15 16  1  0
 16 17  2  0
 16 18  1  0
 18 19  2  0
 18 23  1  0
 19 20  1  0
 20 21  1  0
 20 33  2  0
 21 22  1  0
 21 25  2  0
 22 23  2  0
 23 24  1  0
 25 26  1  0
 25 28  1  0
 26 27  1  0
 28 29  1  0
 29 30  1  0
 30 31  1  0
 31 32  2  0
 31 33  1  0
M  CHG  2   2   1  11   1
M  END
