
     RDKit          3D

 33 37  0  0  0  0  0  0  0  0999 V2000
   -4.5920    2.6650   -0.8710 C   0  0  0  0  0  0  0  0  0  0  0  0
   -4.0600    1.8270    0.1140 O   0  0  0  0  0  0  0  0  0  0  0  0
   -4.4000    0.4940    0.2870 C   0  0  0  0  0  0  0  0  0  0  0  0
   -5.3340   -0.0440   -0.5780 C   0  0  0  0  0  0  0  0  0  0  0  0
   -5.7190   -1.3650   -0.4610 C   0  0  0  0  0  0  0  0  0  0  0  0
   -5.1510   -2.1220    0.5310 C   0  0  0  0  0  0  0  0  0  0  0  0
   -4.2160   -1.5680    1.3890 C   0  0  0  0  0  0  0  0  0  0  0  0
   -3.8160   -0.2440    1.2890 C   0  0  0  0  0  0  0  0  0  0  0  0
   -2.8210    0.2950    2.2210 C   0  0  1  0  0  0  0  0  0  0  0  0
   -2.6780   -0.4930    3.3640 O   0  0  0  0  0  0  0  0  0  0  0  0
   -1.4840    0.5460    1.5930 C   0  0  0  0  0  0  0  0  0  0  0  0
   -0.6060   -0.5150    1.3970 C   0  0  0  0  0  0  0  0  0  0  0  0
    0.6390   -0.2920    0.8200 C   0  0  0  0  0  0  0  0  0  0  0  0
    1.0170    0.9770    0.4350 C   0  0  0  0  0  0  0  0  0  0  0  0
    0.1570    2.0540    0.6210 C   0  0  0  0  0  0  0  0  0  0  0  0
   -1.0600    1.7950    1.1930 C   0  0  0  0  0  0  0  0  0  0  0  0
    0.4950    3.3700    0.2570 N   0  0  0  0  0  0  0  0  0  0  0  0
    1.7060    3.5200   -0.4630 C   0  0  0  0  0  0  0  0  0  0  0  0
    2.7980    2.5870    0.0740 C   0  0  0  0  0  0  0  0  0  0  0  0
    2.2790    1.2490   -0.1620 N   0  0  0  0  0  0  0  0  0  0  0  0
    2.9130    0.2830   -0.9460 C   0  0  0  0  0  0  0  0  0  0  0  0
    2.3200   -0.7750   -1.2610 O   0  0  0  0  0  0  0  0  0  0  0  0
    4.3180    0.4740   -1.4370 C   0  0  1  0  0  0  0  0  0  0  0  0
    5.3030    0.4040   -0.2860 C   0  0  0  0  0  0  0  0  0  0  0  0
    5.2480   -0.9430    0.2880 N   0  0  0  0  0  0  0  0  0  0  0  0
    6.1000   -1.7630   -0.5810 C   0  0  1  0  0  0  0  0  0  0  0  0
    6.3040   -3.1490   -0.0590 C   0  0  0  0  0  0  0  0  0  0  0  0
    5.4770   -1.7240   -1.9310 C   0  0  0  0  0  0  0  0  0  0  0  0
    5.7050   -2.7140   -2.6900 O   0  0  0  0  0  0  0  0  0  0  0  0
    4.6740   -0.6220   -2.3180 N   0  0  0  0  0  0  0  0  0  0  0  0
   -5.6830   -3.4020    0.4570 O   0  0  0  0  0  0  0  0  0  0  0  0
   -6.8420   -3.4320   -0.3170 C   0  0  0  0  0  0  0  0  0  0  0  0
   -6.6850   -2.2290   -1.2210 C   0  0  0  0  0  0  0  0  0  0  0  0
  1  2  1  0
  2  3  1  0
  3  4  2  0
  3  8  1  0
  4  5  1  0
  5  6  2  0
  5 33  1  0
  6  7  1  0
  6 31  1  0
  7  8  2  0
  8  9  1  0
  9 10  1  1
  9 11  1  0
 11 12  2  0
 11 16  1  0
 12 13  1  0
 13 14  2  0
 14 15  1  0
 14 20  1  0
 15 16  2  0
 15 17  1  0
 17 18  1  0
 18 19  1  0
 19 20  1  0
 20 21  1  0
 21 22  2  0
 23 21  1  1
 23 24  1  0
 23 30  1  0
 24 25  1  0
 25 26  1  0
 26 27  1  1
 26 28  1  0
 28 29  2  0
 28 30  1  0
 31 32  1  0
 32 33  1  0
M  CHG  2  17   1  25   1
M  END
