
     RDKit          3D

 33 34  0  0  0  0  0  0  0  0999 V2000
   -4.9480   -1.5060   -1.3160 C   0  0  0  0  0  0  0  0  0  0  0  0
   -4.3960   -2.1220   -0.2970 C   0  0  0  0  0  0  0  0  0  0  0  0
   -3.6630   -1.4420    0.7950 C   0  0  0  0  0  0  0  0  0  0  0  0
   -3.1680   -2.0770    1.8050 C   0  0  0  0  0  0  0  0  0  0  0  0
   -2.4760   -1.2440    2.8180 C   0  0  0  0  0  0  0  0  0  0  0  0
   -3.5130    0.2840    2.5540 S   0  0  1  0  0  0  0  0  0  0  0  0
   -4.8590    0.0370    3.0170 O   0  0  0  0  0  0  0  0  0  0  0  0
   -2.7520    1.4300    2.9960 O   0  0  0  0  0  0  0  0  0  0  0  0
   -3.4000   -0.0050    0.7500 C   0  0  0  0  0  0  0  0  0  0  0  0
   -2.8840    0.8390   -0.0570 C   0  0  0  0  0  0  0  0  0  0  0  0
   -2.2500    0.6120   -1.4040 C   0  0  0  0  0  0  0  0  0  0  0  0
   -1.6400   -0.6420   -1.7030 C   0  0  0  0  0  0  0  0  0  0  0  0
   -0.4580   -1.1510   -0.8340 C   0  0  0  0  0  0  0  0  0  0  0  0
    0.6690   -0.2940   -0.8610 C   0  0  1  0  0  0  0  0  0  0  0  0
    0.1150    1.0200   -0.2630 N   0  0  0  0  0  0  0  0  0  0  0  0
    2.0150   -0.2550   -0.5180 C   0  0  0  0  0  0  0  0  0  0  0  0
    2.8090   -1.0440    0.1960 C   0  0  0  0  0  0  0  0  0  0  0  0
    2.2340   -2.2040    0.7750 C   0  0  0  0  0  0  0  0  0  0  0  0
    2.8740   -3.1990    1.5450 N   0  0  0  0  0  0  0  0  0  0  0  0
    1.0180   -2.4920    0.6630 O   0  0  0  0  0  0  0  0  0  0  0  0
    4.2370   -0.7400    0.4330 C   0  0  0  0  0  0  0  0  0  0  0  0
    5.0480   -1.4990    1.1210 C   0  0  0  0  0  0  0  0  0  0  0  0
    6.4580   -1.2320    1.3750 C   0  0  0  0  0  0  0  0  0  0  0  0
    7.1360   -0.2800    1.0080 O   0  0  0  0  0  0  0  0  0  0  0  0
    4.7700    0.4680   -0.1410 N   0  0  0  0  0  0  0  0  0  0  0  0
    3.9240    1.3080   -0.8990 C   0  0  0  0  0  0  0  0  0  0  0  0
    4.5040    2.5420   -1.4730 C   0  0  0  0  0  0  0  0  0  0  0  0
    5.9150    2.8830   -1.2600 C   0  0  0  0  0  0  0  0  0  0  0  0
    3.7630    3.2740   -2.1360 O   0  0  0  0  0  0  0  0  0  0  0  0
    2.6840    0.9840   -1.0710 C   0  0  0  0  0  0  0  0  0  0  0  0
   -3.0920    2.3300    0.2310 C   0  0  0  0  0  0  0  0  0  0  0  0
   -3.8380    2.6540    1.2770 O   0  0  0  0  0  0  0  0  0  0  0  0
   -5.2010    2.4290    1.0280 C   0  0  0  0  0  0  0  0  0  0  0  0
  1  2  2  0
  2  3  1  0
  3  4  2  0
  3  9  1  0
  4  5  1  0
  6  5  1  1
  6  7  2  0
  6  8  2  0
  6  9  1  0
  9 10  2  3
 10 11  1  0
 10 31  1  0
 11 12  1  0
 12 13  1  0
 13 14  1  0
 14 15  1  1
 14 16  1  0
 16 17  2  0
 16 30  1  0
 17 18  1  0
 17 21  1  0
 18 19  1  0
 18 20  2  0
 21 22  2  3
 21 25  1  0
 22 23  1  0
 23 24  2  0
 25 26  1  0
 26 27  1  0
 26 30  2  0
 27 28  1  0
 27 29  2  0
 31 32  1  0
 32 33  1  0
M  END
