
     RDKit          3D

 44 46  0  0  0  0  0  0  0  0999 V2000
   10.0540    0.1120    3.0920 C   0  0  0  0  0  0  0  0  0  0  0  0
    9.3760   -0.4690    1.8920 C   0  0  0  0  0  0  0  0  0  0  0  0
    9.6160   -1.7510    1.4560 C   0  0  0  0  0  0  0  0  0  0  0  0
    8.9810   -2.2740    0.3430 C   0  0  0  0  0  0  0  0  0  0  0  0
    8.0790   -1.5230   -0.3740 C   0  0  0  0  0  0  0  0  0  0  0  0
    7.4270   -2.1090   -1.5490 C   0  0  0  0  0  0  0  0  0  0  0  0
    6.1310   -2.8180   -1.2330 C   0  0  1  0  0  0  0  0  0  0  0  0
    6.3430   -3.9640   -0.2660 C   0  0  0  0  0  0  0  0  0  0  0  0
    5.2320   -1.8310   -0.7090 N   0  0  0  0  0  0  0  0  0  0  0  0
    4.0340   -1.5290   -1.4550 C   0  0  0  0  0  0  0  0  0  0  0  0
    3.8000   -2.1190   -2.5330 O   0  0  0  0  0  0  0  0  0  0  0  0
    3.1190   -0.5690   -0.9790 N   0  0  0  0  0  0  0  0  0  0  0  0
    1.9280   -0.1570   -1.5920 C   0  0  0  0  0  0  0  0  0  0  0  0
    1.6410   -0.3960   -2.9040 C   0  0  0  0  0  0  0  0  0  0  0  0
    0.4250    0.0300   -3.4430 C   0  0  0  0  0  0  0  0  0  0  0  0
   -0.5100    0.6930   -2.6890 C   0  0  0  0  0  0  0  0  0  0  0  0
   -1.8000    1.1300   -3.2860 C   0  0  0  0  0  0  0  0  0  0  0  0
   -0.2400    0.9510   -1.3390 C   0  0  0  0  0  0  0  0  0  0  0  0
   -1.2090    1.6430   -0.5830 N   0  0  0  0  0  0  0  0  0  0  0  0
   -1.1540    1.9260    0.8050 C   0  0  0  0  0  0  0  0  0  0  0  0
   -0.2000    1.5660    1.4860 O   0  0  0  0  0  0  0  0  0  0  0  0
   -2.2880    2.6730    1.4150 C   0  0  1  0  0  0  0  0  0  0  0  0
   -2.4780    3.9880    0.7300 C   0  0  0  0  0  0  0  0  0  0  0  0
   -3.6930    4.6350    1.3790 C   0  0  0  0  0  0  0  0  0  0  0  0
   -4.8910    3.9160    0.8460 C   0  0  0  0  0  0  0  0  0  0  0  0
   -4.7530    2.4260    0.8500 C   0  0  2  0  0  0  0  0  0  0  0  0
   -4.9920    1.8550   -0.5410 C   0  0  0  0  0  0  0  0  0  0  0  0
   -5.9680    1.9120    1.6660 C   0  0  0  0  0  0  0  0  0  0  0  0
   -7.1470    2.3130    1.0540 O   0  0  0  0  0  0  0  0  0  0  0  0
   -3.5510    1.8910    1.5300 C   0  0  1  0  0  0  0  0  0  0  0  0
   -3.3570    0.4970    1.1540 N   0  0  0  0  0  0  0  0  0  0  0  0
   -3.5420   -0.6110    2.0160 C   0  0  0  0  0  0  0  0  0  0  0  0
   -3.9100   -0.3600    3.1970 O   0  0  0  0  0  0  0  0  0  0  0  0
   -3.3110   -2.0140    1.5530 C   0  0  2  0  0  0  0  0  0  0  0  0
   -1.8640   -2.2050    1.1430 C   0  0  0  0  0  0  0  0  0  0  0  0
   -4.2150   -2.4460    0.4500 C   0  0  0  0  0  0  0  0  0  0  0  0
   -5.6630   -2.4190    0.7970 C   0  0  0  0  0  0  0  0  0  0  0  0
   -6.4530   -2.8770   -0.4360 C   0  0  0  0  0  0  0  0  0  0  0  0
   -6.1310   -1.9480   -1.4450 O   0  0  0  0  0  0  0  0  0  0  0  0
   -7.0090   -2.4390   -2.8390 S   0  0  0  0  0  0  0  0  0  0  0  0
   -8.5180   -2.2360   -2.6240 O   0  0  0  0  0  0  0  0  0  0  0  0
    0.9600    0.5200   -0.8430 C   0  0  0  0  0  0  0  0  0  0  0  0
    7.8220   -0.2400    0.0420 C   0  0  0  0  0  0  0  0  0  0  0  0
    8.4630    0.2640    1.1520 C   0  0  0  0  0  0  0  0  0  0  0  0
  1  2  1  0
  2  3  2  0
  2 44  1  0
  3  4  1  0
  4  5  2  0
  5  6  1  0
  5 43  1  0
  6  7  1  0
  7  8  1  1
  7  9  1  0
  9 10  1  0
 10 11  2  0
 10 12  1  0
 12 13  1  0
 13 14  2  0
 13 42  1  0
 14 15  1  0
 15 16  2  0
 16 17  1  0
 16 18  1  0
 18 19  1  0
 18 42  2  0
 19 20  1  0
 20 21  2  0
 22 20  1  6
 22 23  1  0
 22 30  1  0
 23 24  1  0
 24 25  1  0
 25 26  1  0
 26 27  1  6
 26 28  1  0
 26 30  1  0
 28 29  1  0
 30 31  1  6
 31 32  1  0
 32 33  2  0
 32 34  1  0
 34 35  1  6
 34 36  1  0
 36 37  1  0
 37 38  1  0
 38 39  1  0
 39 40  1  0
 40 41  2  0
 43 44  2  0
M  END
