
     RDKit          3D

 44 48  0  0  0  0  0  0  0  0999 V2000
   -6.2410    5.1110   -0.1430 C   0  0  0  0  0  0  0  0  0  0  0  0
   -4.9320    4.7210    0.2950 O   0  0  0  0  0  0  0  0  0  0  0  0
   -4.3890    3.5410   -0.1860 C   0  0  0  0  0  0  0  0  0  0  0  0
   -3.1350    3.1890    0.2470 C   0  0  0  0  0  0  0  0  0  0  0  0
   -2.6080    2.0110   -0.2410 C   0  0  0  0  0  0  0  0  0  0  0  0
   -3.2560    1.1750   -1.1280 C   0  0  0  0  0  0  0  0  0  0  0  0
   -4.5160    1.5120   -1.5720 C   0  0  0  0  0  0  0  0  0  0  0  0
   -5.0430    2.7120   -1.0700 C   0  0  0  0  0  0  0  0  0  0  0  0
   -5.2530    0.7770   -2.4370 O   0  0  0  0  0  0  0  0  0  0  0  0
   -5.9020   -0.4190   -2.4830 C   0  0  0  0  0  0  0  0  0  0  0  0
   -7.0490   -0.5780   -1.4580 C   0  0  0  0  0  0  0  0  0  0  0  0
   -6.4040   -1.0460   -0.1820 C   0  0  0  0  0  0  0  0  0  0  0  0
   -5.8860   -0.4660    0.8430 C   0  0  0  0  0  0  0  0  0  0  0  0
   -5.2450   -0.9510    2.1170 C   0  0  0  0  0  0  0  0  0  0  0  0
   -3.8910   -1.5270    1.9760 C   0  0  0  0  0  0  0  0  0  0  0  0
   -3.6720   -2.6440    1.0610 C   0  0  0  0  0  0  0  0  0  0  0  0
   -3.0080   -2.3570   -0.2410 C   0  0  0  0  0  0  0  0  0  0  0  0
   -2.0870   -1.2720   -0.2420 N   0  0  0  0  0  0  0  0  0  0  0  0
   -0.7120   -1.7320   -0.2990 C   0  0  0  0  0  0  0  0  0  0  0  0
    0.2370   -0.8470    0.4500 C   0  0  1  0  0  0  0  0  0  0  0  0
   -0.0170   -0.7130    1.7890 O   0  0  0  0  0  0  0  0  0  0  0  0
    1.6460   -1.3140    0.1440 C   0  0  2  0  0  0  0  0  0  0  0  0
    1.8800   -2.6990    0.7130 C   0  0  0  0  0  0  0  0  0  0  0  0
    3.2660   -3.1280    0.3980 C   0  0  0  0  0  0  0  0  0  0  0  0
    3.5410   -3.8170   -0.7700 C   0  0  0  0  0  0  0  0  0  0  0  0
    4.8220   -4.2290   -1.0910 C   0  0  0  0  0  0  0  0  0  0  0  0
    5.8720   -3.9600   -0.2400 C   0  0  0  0  0  0  0  0  0  0  0  0
    5.6240   -3.2780    0.9260 C   0  0  0  0  0  0  0  0  0  0  0  0
    4.3380   -2.8750    1.2270 C   0  0  0  0  0  0  0  0  0  0  0  0
    2.6260   -0.3710    0.6580 N   0  0  0  0  0  0  0  0  0  0  0  0
    3.5130    0.2880   -0.2090 C   0  0  0  0  0  0  0  0  0  0  0  0
    3.4800    0.0790   -1.4400 O   0  0  0  0  0  0  0  0  0  0  0  0
    4.4690    1.1990    0.2160 O   0  0  0  0  0  0  0  0  0  0  0  0
    5.3570    1.8700   -0.5860 C   0  0  1  0  0  0  0  0  0  0  0  0
    5.2710    3.3670   -0.5770 C   0  0  0  0  0  0  0  0  0  0  0  0
    6.4230    3.6820   -1.3440 O   0  0  0  0  0  0  0  0  0  0  0  0
    7.4350    2.9450   -0.6940 C   0  0  1  0  0  0  0  0  0  0  0  0
    7.9220    3.5610    0.4120 O   0  0  0  0  0  0  0  0  0  0  0  0
    7.6160    2.8590    1.5350 C   0  0  0  0  0  0  0  0  0  0  0  0
    7.1320    1.4930    1.1500 C   0  0  0  0  0  0  0  0  0  0  0  0
    6.8100    1.6320   -0.2940 C   0  0  1  0  0  0  0  0  0  0  0  0
   -2.3280   -0.2300   -1.6010 S   0  0  1  0  0  0  0  0  0  0  0  0
   -2.7990   -0.9120   -2.8150 O   0  0  0  0  0  0  0  0  0  0  0  0
   -0.9530    0.3510   -1.9890 O   0  0  0  0  0  0  0  0  0  0  0  0
  1  2  1  0
  2  3  1  0
  3  4  2  0
  3  8  1  0
  4  5  1  0
  5  6  2  0
  6  7  1  0
  6 42  1  0
  7  8  2  0
  7  9  1  0
  9 10  1  0
 10 11  1  0
 11 12  1  0
 12 13  2  0
 13 14  1  0
 14 15  1  0
 15 16  1  0
 16 17  1  0
 17 18  1  0
 18 19  1  0
 42 18  1  1
 19 20  1  0
 20 21  1  1
 20 22  1  0
 22 23  1  1
 22 30  1  0
 23 24  1  0
 24 25  2  0
 24 29  1  0
 25 26  1  0
 26 27  2  0
 27 28  1  0
 28 29  2  0
 30 31  1  0
 31 32  2  0
 31 33  1  0
 34 33  1  1
 34 35  1  0
 34 41  1  0
 35 36  1  0
 37 36  1  1
 37 38  1  0
 37 41  1  0
 38 39  1  0
 39 40  1  0
 41 40  1  1
 42 43  2  0
 42 44  2  0
M  END
