
     RDKit          3D

 44 47  0  0  0  0  0  0  0  0999 V2000
  -10.9570   -2.3220    2.1960 C   0  0  0  0  0  0  0  0  0  0  0  0
   -9.7570   -2.6050    1.4060 C   0  0  2  0  0  0  0  0  0  0  0  0
   -8.5080   -1.7480    1.9210 C   0  0  2  0  0  0  0  0  0  0  0  0
   -8.6870   -0.4130    1.5400 N   0  0  0  0  0  0  0  0  0  0  0  0
   -9.8530    0.1420    0.9580 C   0  0  0  0  0  0  0  0  0  0  0  0
  -10.4760   -0.8340   -0.1230 C   0  0  0  0  0  0  0  0  0  0  0  0
   -9.5950   -1.9040    0.1410 N   0  0  0  0  0  0  0  0  0  0  0  0
   -8.3800   -2.3990   -0.3150 C   0  0  0  0  0  0  0  0  0  0  0  0
   -7.9950   -2.7550   -1.4380 O   0  0  0  0  0  0  0  0  0  0  0  0
   -7.4870   -2.4250    0.9680 C   0  0  1  0  0  0  0  0  0  0  0  0
   -6.3680   -1.5650    0.7430 N   0  0  0  0  0  0  0  0  0  0  0  0
   -5.0360   -2.0290    0.6160 C   0  0  0  0  0  0  0  0  0  0  0  0
   -4.8230   -3.2580    0.7020 O   0  0  0  0  0  0  0  0  0  0  0  0
   -3.9630   -1.0440    0.3880 C   0  0  0  0  0  0  0  0  0  0  0  0
   -3.9050    0.1210    1.1120 C   0  0  0  0  0  0  0  0  0  0  0  0
   -2.8790    1.0380    0.8500 C   0  0  0  0  0  0  0  0  0  0  0  0
   -1.9390    0.7850   -0.1160 C   0  0  0  0  0  0  0  0  0  0  0  0
   -0.8420    1.7950   -0.3620 C   0  0  0  0  0  0  0  0  0  0  0  0
   -1.4140    2.7920   -1.3110 C   0  0  0  0  0  0  0  0  0  0  0  0
   -0.6200    3.8110   -1.7080 O   0  0  0  0  0  0  0  0  0  0  0  0
    0.5120    3.5730   -2.3930 C   0  0  1  0  0  0  0  0  0  0  0  0
    0.3210    2.7400   -3.6600 C   0  0  0  0  0  0  0  0  0  0  0  0
    0.9250    4.9750   -2.9950 C   0  0  0  0  0  0  0  0  0  0  0  0
    1.7260    3.1950   -1.6340 C   0  0  0  0  0  0  0  0  0  0  0  0
    1.6980    3.2250   -0.3940 O   0  0  0  0  0  0  0  0  0  0  0  0
    2.9140    2.8020   -2.2670 N   0  0  0  0  0  0  0  0  0  0  0  0
    4.1360    2.4210   -1.7010 C   0  0  0  0  0  0  0  0  0  0  0  0
    5.1090    1.8500   -2.5420 C   0  0  0  0  0  0  0  0  0  0  0  0
    6.3340    1.4650   -2.0540 C   0  0  0  0  0  0  0  0  0  0  0  0
    6.6810    1.6120   -0.7290 C   0  0  0  0  0  0  0  0  0  0  0  0
    8.2840    1.0810   -0.2120 S   0  0  0  0  0  0  0  0  0  0  0  0
    8.0560   -0.7770    0.2940 C   0  0  2  0  0  0  0  0  0  0  0  0
    7.2080   -0.6530    1.4670 C   0  0  0  0  0  0  0  0  0  0  0  0
    6.7450   -1.8330    2.2170 C   0  0  0  0  0  0  0  0  0  0  0  0
    6.0060   -2.7790    1.3440 C   0  0  0  0  0  0  0  0  0  0  0  0
    5.8090   -2.5570    0.1750 O   0  0  0  0  0  0  0  0  0  0  0  0
    9.4180   -1.2420    0.2290 C   0  0  0  0  0  0  0  0  0  0  0  0
    9.9540   -2.5690    0.4160 C   0  0  0  0  0  0  0  0  0  0  0  0
    9.7810   -3.2700    1.7140 C   0  0  0  0  0  0  0  0  0  0  0  0
   10.2810   -2.5570    2.7970 O   0  0  0  0  0  0  0  0  0  0  0  0
    5.7430    2.1670    0.1020 C   0  0  0  0  0  0  0  0  0  0  0  0
    4.4820    2.5670   -0.3870 C   0  0  0  0  0  0  0  0  0  0  0  0
   -2.0160   -0.3860   -0.8280 C   0  0  0  0  0  0  0  0  0  0  0  0
   -3.0240   -1.3070   -0.5820 C   0  0  0  0  0  0  0  0  0  0  0  0
  2  1  1  1
  2  3  1  0
  2  7  1  0
  3  4  1  6
  3 10  1  0
  4  5  1  0
  5  6  1  0
  6  7  1  0
  7  8  1  0
  8  9  2  0
  8 10  1  0
 10 11  1  6
 11 12  1  0
 12 13  2  0
 12 14  1  0
 14 15  2  0
 14 44  1  0
 15 16  1  0
 16 17  2  0
 17 18  1  0
 17 43  1  0
 18 19  1  0
 19 20  1  0
 20 21  1  0
 21 22  1  6
 21 23  1  0
 21 24  1  0
 24 25  2  0
 24 26  1  0
 26 27  1  0
 27 28  2  0
 27 42  1  0
 28 29  1  0
 29 30  2  0
 30 31  1  0
 30 41  1  0
 31 32  1  0
 32 33  1  1
 32 37  1  0
 33 34  1  0
 34 35  1  0
 35 36  2  0
 37 38  1  0
 38 39  1  0
 39 40  1  0
 41 42  2  0
 43 44  2  0
M  END
