
     RDKit          3D

 44 47  0  0  0  0  0  0  0  0999 V2000
   -6.5400   -1.0320   -0.9060 C   0  0  0  0  0  0  0  0  0  0  0  0
   -6.0990    0.2870   -0.3730 C   0  0  1  0  0  0  0  0  0  0  0  0
   -5.1560    1.0800   -1.1570 C   0  0  0  0  0  0  0  0  0  0  0  0
   -3.7840    0.6000   -1.4570 C   0  0  0  0  0  0  0  0  0  0  0  0
   -2.9930    0.3880   -0.2750 N   0  0  0  0  0  0  0  0  0  0  0  0
   -2.3020    1.5400    0.2550 C   0  0  0  0  0  0  0  0  0  0  0  0
   -2.6570    2.6980   -0.1060 O   0  0  0  0  0  0  0  0  0  0  0  0
   -1.1910    1.4170    1.2050 C   0  0  0  0  0  0  0  0  0  0  0  0
   -1.3470    0.2630    2.1700 C   0  0  2  0  0  0  0  0  0  0  0  0
   -2.3000    0.7130    3.2930 C   0  0  0  0  0  0  0  0  0  0  0  0
   -0.0190    0.0010    2.8040 C   0  0  0  0  0  0  0  0  0  0  0  0
    1.0250   -0.3450    1.8270 N   0  0  0  0  0  0  0  0  0  0  0  0
    2.3270   -0.6420    2.2570 C   0  0  0  0  0  0  0  0  0  0  0  0
    2.5720   -0.6130    3.4950 O   0  0  0  0  0  0  0  0  0  0  0  0
    3.4270   -0.9860    1.3660 C   0  0  0  0  0  0  0  0  0  0  0  0
    4.0330   -2.2210    1.3260 C   0  0  0  0  0  0  0  0  0  0  0  0
    5.0590   -2.4680    0.4860 N   0  0  0  0  0  0  0  0  0  0  0  0
    5.5690   -1.5430   -0.3680 C   0  0  0  0  0  0  0  0  0  0  0  0
    6.6560   -1.8980   -1.2600 C   0  0  0  0  0  0  0  0  0  0  0  0
    7.2330   -3.0830   -1.3160 C   0  0  0  0  0  0  0  0  0  0  0  0
    8.3440   -3.2900   -2.2950 C   0  0  1  0  0  0  0  0  0  0  0  0
    9.4250   -2.2180   -2.1540 C   0  0  0  0  0  0  0  0  0  0  0  0
    9.6920   -3.6830   -1.8740 C   0  0  0  0  0  0  0  0  0  0  0  0
    5.0060   -0.3010   -0.3660 C   0  0  0  0  0  0  0  0  0  0  0  0
    5.4880    0.7830   -1.2590 C   0  0  2  0  0  0  0  0  0  0  0  0
    6.8950    0.9370   -1.1370 O   0  0  0  0  0  0  0  0  0  0  0  0
    4.9230    2.1310   -0.8400 C   0  0  0  0  0  0  0  0  0  0  0  0
    5.3580    2.5510    0.5270 C   0  0  0  0  0  0  0  0  0  0  0  0
    4.7240    3.8480    0.8600 C   0  0  0  0  0  0  0  0  0  0  0  0
    4.9260    4.4280    1.9750 O   0  0  0  0  0  0  0  0  0  0  0  0
    3.8900    4.4460   -0.0650 O   0  0  0  0  0  0  0  0  0  0  0  0
    3.9530   -0.0360    0.4870 C   0  0  0  0  0  0  0  0  0  0  0  0
   -1.9960   -0.9030    1.5560 C   0  0  0  0  0  0  0  0  0  0  0  0
   -1.8220   -2.1360    2.1180 C   0  0  0  0  0  0  0  0  0  0  0  0
   -2.3990   -3.2620    1.6060 C   0  0  0  0  0  0  0  0  0  0  0  0
   -3.1840   -3.1930    0.4930 C   0  0  0  0  0  0  0  0  0  0  0  0
   -3.3800   -1.9660   -0.0980 C   0  0  0  0  0  0  0  0  0  0  0  0
   -2.7950   -0.8120    0.4200 C   0  0  0  0  0  0  0  0  0  0  0  0
   -7.5700    1.2580    0.0310 S   0  0  0  0  0  0  0  0  0  0  0  0
   -8.5280    1.6030   -1.4360 C   0  0  2  0  0  0  0  0  0  0  0  0
   -7.9370    2.5540   -2.4090 C   0  0  0  0  0  0  0  0  0  0  0  0
   -9.9220    2.0650   -1.0830 C   0  0  0  0  0  0  0  0  0  0  0  0
  -10.7820    1.1910   -0.3660 N   0  0  0  0  0  0  0  0  0  0  0  0
  -10.2530    3.2140   -1.4450 O   0  0  0  0  0  0  0  0  0  0  0  0
  2  1  1  6
  2  3  1  0
  2 39  1  0
  3  4  1  0
  4  5  1  0
  5  6  1  0
  5 38  1  0
  6  7  2  0
  6  8  1  0
  8  9  1  0
  9 10  1  1
  9 11  1  0
  9 33  1  0
 11 12  1  0
 12 13  1  0
 13 14  2  0
 13 15  1  0
 15 16  2  0
 15 32  1  0
 16 17  1  0
 17 18  2  0
 18 19  1  0
 18 24  1  0
 19 20  2  3
 21 20  1  1
 21 22  1  0
 21 23  1  0
 22 23  1  0
 24 25  1  0
 24 32  2  0
 25 26  1  1
 25 27  1  0
 27 28  1  0
 28 29  1  0
 29 30  2  0
 29 31  1  0
 33 34  2  0
 33 38  1  0
 34 35  1  0
 35 36  2  0
 36 37  1  0
 37 38  2  0
 39 40  1  0
 40 41  1  1
 40 42  1  0
 42 43  1  0
 42 44  2  0
M  CHG  1  17   1
M  END
