
     RDKit          3D

 20 21  0  0  0  0  0  0  0  0999 V2000
   -6.6410    0.0030   -1.0690 O   0  0  0  0  0  0  0  0  0  0  0  0
   -5.4290   -0.0730   -0.7030 C   0  0  0  0  0  0  0  0  0  0  0  0
   -5.0050   -0.4890    0.5870 N   0  0  0  0  0  0  0  0  0  0  0  0
   -3.5570   -0.4900    0.5490 C   0  0  0  0  0  0  0  0  0  0  0  0
   -3.3010    0.5590   -0.5320 C   0  0  1  0  0  0  0  0  0  0  0  0
   -1.9340    0.4810   -1.0690 C   0  0  0  0  0  0  0  0  0  0  0  0
   -1.6520    0.1590   -2.2350 O   0  0  0  0  0  0  0  0  0  0  0  0
   -0.8850    0.7880   -0.2140 O   0  0  0  0  0  0  0  0  0  0  0  0
    0.4700    0.7510   -0.6060 C   0  0  1  0  0  0  0  0  0  0  0  0
    1.1770    2.0190   -0.2940 C   0  0  0  0  0  0  0  0  0  0  0  0
    0.6910    3.1500   -0.2240 O   0  0  0  0  0  0  0  0  0  0  0  0
    2.6060    1.6320   -0.0810 C   0  0  0  0  0  0  0  0  0  0  0  0
    2.4570    0.3320    0.5860 N   0  0  0  0  0  0  0  0  0  0  0  0
    3.4290   -0.3030    1.4520 C   0  0  0  0  0  0  0  0  0  0  0  0
    4.5700   -1.3720    0.4480 P   0  0  0  0  0  0  0  0  0  0  0  0
    4.0370   -3.0170    0.5840 O   0  0  0  0  0  0  0  0  0  0  0  0
    4.4080   -0.8990   -1.2270 O   0  0  0  0  0  0  0  0  0  0  0  0
    1.1940   -0.2240    0.2500 C   0  0  0  0  0  0  0  0  0  0  0  0
    0.7950   -1.3540    0.6340 O   0  0  0  0  0  0  0  0  0  0  0  0
   -4.2890    0.2290   -1.4770 O   0  0  0  0  0  0  0  0  0  0  0  0
  1  2  2  0
  2  3  1  0
  2 20  1  0
  3  4  1  0
  4  5  1  0
  5  6  1  6
  5 20  1  0
  6  7  2  0
  6  8  1  0
  9  8  1  1
  9 10  1  0
  9 18  1  0
 10 11  2  0
 10 12  1  0
 12 13  1  0
 13 14  1  0
 13 18  1  0
 14 15  1  0
 15 16  1  0
 15 17  1  0
 18 19  2  0
M  END
