
     RDKit          3D

 21 22  0  0  0  0  0  0  0  0999 V2000
    0.2300   -1.9390   -1.0910 O   0  0  0  0  0  0  0  0  0  0  0  0
    0.3000   -0.9940   -0.2550 C   0  0  0  0  0  0  0  0  0  0  0  0
    1.5480   -0.4160   -0.0860 O   0  0  0  0  0  0  0  0  0  0  0  0
    2.6850   -0.8740   -0.8230 C   0  0  0  0  0  0  0  0  0  0  0  0
    3.8910   -0.0790   -0.4450 C   0  0  0  0  0  0  0  0  0  0  0  0
    4.9880   -0.5180   -1.1530 O   0  0  0  0  0  0  0  0  0  0  0  0
    6.4290    0.3530   -0.7730 P   0  0  0  0  0  0  0  0  0  0  0  0
    6.1210    1.7580    0.1710 O   0  0  0  0  0  0  0  0  0  0  0  0
    7.6560   -0.6480   -0.0950 O   0  0  0  0  0  0  0  0  0  0  0  0
   -0.8420   -0.5510    0.4690 N   0  0  0  0  0  0  0  0  0  0  0  0
   -0.7210    0.5190    1.4030 C   0  0  0  0  0  0  0  0  0  0  0  0
   -1.9320    1.3740    1.5580 C   0  0  0  0  0  0  0  0  0  0  0  0
   -3.2160    0.7610    1.1280 C   0  0  1  0  0  0  0  0  0  0  0  0
   -4.1730    1.7290    0.8410 O   0  0  0  0  0  0  0  0  0  0  0  0
   -5.3680    1.2840    0.7240 O   0  0  0  0  0  0  0  0  0  0  0  0
   -5.5250    0.2470   -0.1150 N   0  0  0  0  0  0  0  0  0  0  0  0
   -4.4510   -0.6230   -0.3680 C   0  0  0  0  0  0  0  0  0  0  0  0
   -4.6420   -1.7630   -0.8060 O   0  0  0  0  0  0  0  0  0  0  0  0
   -3.1000   -0.1220   -0.0910 C   0  0  1  0  0  0  0  0  0  0  0  0
   -2.6560    0.5880   -1.2060 O   0  0  0  0  0  0  0  0  0  0  0  0
   -2.1060   -1.2110    0.2300 C   0  0  0  0  0  0  0  0  0  0  0  0
  1  2  2  0
  2  3  1  0
  2 10  1  0
  3  4  1  0
  4  5  1  0
  5  6  1  0
  6  7  1  0
  7  8  1  0
  7  9  1  0
 10 11  1  0
 10 21  1  0
 11 12  1  0
 13 12  1  6
 13 14  1  0
 13 19  1  0
 14 15  1  0
 15 16  1  0
 16 17  1  0
 17 18  2  0
 17 19  1  0
 19 20  1  6
 19 21  1  0
M  END
