
     RDKit          3D

 27 29  0  0  0  0  0  0  0  0999 V2000
   -7.8060   -0.0480   -0.2570 N   0  0  0  0  0  0  0  0  0  0  0  0
   -6.5990    0.2380    0.3860 C   0  0  0  0  0  0  0  0  0  0  0  0
   -6.5680    0.5410    1.6850 N   0  0  0  0  0  0  0  0  0  0  0  0
   -5.3770    0.7610    2.3260 C   0  0  0  0  0  0  0  0  0  0  0  0
   -4.2460    0.6810    1.6480 N   0  0  0  0  0  0  0  0  0  0  0  0
   -4.2080    0.3770    0.3590 C   0  0  0  0  0  0  0  0  0  0  0  0
   -5.3810    0.1410   -0.3220 C   0  0  0  0  0  0  0  0  0  0  0  0
   -5.0580   -0.1760   -1.5780 N   0  0  0  0  0  0  0  0  0  0  0  0
   -3.7430   -0.1510   -1.6650 C   0  0  0  0  0  0  0  0  0  0  0  0
   -3.1810    0.1790   -0.5030 N   0  0  0  0  0  0  0  0  0  0  0  0
   -1.7920    0.1080   -0.1070 C   0  0  2  0  0  0  0  0  0  0  0  0
   -0.9540    1.0090   -0.6960 O   0  0  0  0  0  0  0  0  0  0  0  0
    0.2260    0.3530   -0.7080 C   0  0  2  0  0  0  0  0  0  0  0  0
    1.4320    1.1130   -1.2160 C   0  0  0  0  0  0  0  0  0  0  0  0
    2.4180    0.1450   -0.9930 O   0  0  0  0  0  0  0  0  0  0  0  0
    3.5630    0.6840   -0.0750 P   0  0  0  0  0  0  0  0  0  0  0  0
    3.8390   -0.9700    0.1990 O   0  0  0  0  0  0  0  0  0  0  0  0
    2.5340    1.4100    1.0090 O   0  0  0  0  0  0  0  0  0  0  0  0
    4.8300    0.9520    0.7340 O   0  0  0  0  0  0  0  0  0  0  0  0
    6.1430    0.1430    0.8500 P   0  0  0  0  0  0  0  0  0  0  0  0
    7.5430   -0.4780    0.7600 O   0  0  0  0  0  0  0  0  0  0  0  0
    6.7900    1.5030    1.5420 O   0  0  0  0  0  0  0  0  0  0  0  0
    5.5100   -0.9800    1.8390 O   0  0  0  0  0  0  0  0  0  0  0  0
   -0.0950   -0.9420   -1.3780 C   0  0  1  0  0  0  0  0  0  0  0  0
    0.8590   -1.9370   -1.2180 O   0  0  0  0  0  0  0  0  0  0  0  0
   -1.3550   -1.2960   -0.5660 C   0  0  1  0  0  0  0  0  0  0  0  0
   -0.9600   -2.0460    0.5280 O   0  0  0  0  0  0  0  0  0  0  0  0
  1  2  1  0
  2  3  2  0
  2  7  1  0
  3  4  1  0
  4  5  2  0
  5  6  1  0
  6  7  2  0
  6 10  1  0
  7  8  1  0
  8  9  2  0
  9 10  1  0
 11 10  1  6
 11 12  1  0
 11 26  1  0
 12 13  1  0
 13 14  1  6
 13 24  1  0
 14 15  1  0
 15 16  1  0
 16 17  1  0
 16 18  1  0
 16 19  1  0
 19 20  1  0
 20 21  1  0
 20 22  1  0
 20 23  1  0
 24 25  1  1
 24 26  1  0
 26 27  1  1
M  END
