
     RDKit          3D

 20 21  0  0  0  0  0  0  0  0999 V2000
    1.6570   -2.3470   -2.1340 N   0  0  0  0  0  0  0  0  0  0  0  0
    1.7750   -1.2300   -1.5100 C   0  0  0  0  0  0  0  0  0  0  0  0
    0.6260   -0.3580   -1.5310 N   0  0  0  0  0  0  0  0  0  0  0  0
    0.4200    0.5920   -0.6880 C   0  0  0  0  0  0  0  0  0  0  0  0
   -0.8060    1.3720   -0.8700 C   0  0  0  0  0  0  0  0  0  0  0  0
   -1.2160    2.3860   -0.1270 C   0  0  0  0  0  0  0  0  0  0  0  0
   -2.4340    2.8520   -0.6380 O   0  0  0  0  0  0  0  0  0  0  0  0
   -2.9620    1.6950   -1.3030 C   0  0  2  0  0  0  0  0  0  0  0  0
   -3.3840    0.7310   -0.2210 C   0  0  0  0  0  0  0  0  0  0  0  0
   -3.9060   -0.4110   -0.8230 O   0  0  0  0  0  0  0  0  0  0  0  0
   -4.4160   -1.5730    0.3340 P   0  0  0  0  0  0  0  0  0  0  0  0
   -3.0850   -2.3660    1.1090 O   0  0  0  0  0  0  0  0  0  0  0  0
   -5.4710   -0.8570    1.4980 O   0  0  0  0  0  0  0  0  0  0  0  0
   -1.7750    1.1800   -1.8780 O   0  0  0  0  0  0  0  0  0  0  0  0
    1.1810    1.0120    0.3910 O   0  0  0  0  0  0  0  0  0  0  0  0
    2.2930    0.3600    0.9680 C   0  0  0  0  0  0  0  0  0  0  0  0
    3.3750    0.0800   -0.0590 C   0  0  1  0  0  0  0  0  0  0  0  0
    4.6360   -0.3310    0.6960 C   0  0  0  0  0  0  0  0  0  0  0  0
    5.6280   -0.6070   -0.2610 O   0  0  0  0  0  0  0  0  0  0  0  0
    2.9990   -1.0110   -0.8960 O   0  0  0  0  0  0  0  0  0  0  0  0
  1  2  2  0
  2  3  1  0
  2 20  1  0
  3  4  2  0
  4  5  1  0
  4 15  1  0
  5  6  2  0
  5 14  1  0
  6  7  1  0
  7  8  1  0
  8  9  1  1
  8 14  1  0
  9 10  1  0
 10 11  1  0
 11 12  1  0
 11 13  1  0
 15 16  1  0
 16 17  1  0
 17 18  1  1
 17 20  1  0
 18 19  1  0
M  END
