
     RDKit          3D

 39 41  0  0  0  0  0  0  0  0999 V2000
   -2.1420   -4.9740   -4.0890 C   0  0  0  0  0  0  0  0  0  0  0  0
   -1.9600   -3.6960   -3.8510 C   0  0  0  0  0  0  0  0  0  0  0  0
   -0.7280   -3.0270   -3.4250 C   0  0  0  0  0  0  0  0  0  0  0  0
   -0.8070   -2.3140   -2.1770 N   0  0  0  0  0  0  0  0  0  0  0  0
   -0.9540   -2.9070   -0.9280 C   0  0  0  0  0  0  0  0  0  0  0  0
   -0.9960   -4.2210   -0.7820 N   0  0  0  0  0  0  0  0  0  0  0  0
   -1.1260   -4.7370    0.4710 C   0  0  0  0  0  0  0  0  0  0  0  0
   -1.2140   -3.9690    1.5960 C   0  0  0  0  0  0  0  0  0  0  0  0
   -1.1670   -2.5740    1.4350 C   0  0  0  0  0  0  0  0  0  0  0  0
   -1.2430   -1.8180    2.4370 O   0  0  0  0  0  0  0  0  0  0  0  0
   -1.0370   -2.0430    0.1760 C   0  0  0  0  0  0  0  0  0  0  0  0
   -0.9870   -0.6020   -0.0290 C   0  0  0  0  0  0  0  0  0  0  0  0
   -2.1330    0.0510   -0.3500 C   0  0  0  0  0  0  0  0  0  0  0  0
   -2.1510    1.4360   -0.5600 C   0  0  0  0  0  0  0  0  0  0  0  0
   -3.3870    2.0220   -0.9090 N   0  0  0  0  0  0  0  0  0  0  0  0
   -3.6500    3.3900   -0.8140 C   0  0  0  0  0  0  0  0  0  0  0  0
   -2.7950    4.2250   -0.3950 O   0  0  0  0  0  0  0  0  0  0  0  0
   -4.9760    3.8710   -1.2180 C   0  0  0  0  0  0  0  0  0  0  0  0
   -5.8240    3.0710   -1.6420 O   0  0  0  0  0  0  0  0  0  0  0  0
   -5.2830    5.3050   -1.1130 C   0  0  2  0  0  0  0  0  0  0  0  0
   -4.3240    6.1520   -1.9300 C   0  0  0  0  0  0  0  0  0  0  0  0
   -5.2010    5.7310    0.3250 C   0  0  0  0  0  0  0  0  0  0  0  0
   -6.2070    4.9280    1.1480 C   0  0  0  0  0  0  0  0  0  0  0  0
   -0.9540    2.0960   -0.4250 C   0  0  0  0  0  0  0  0  0  0  0  0
    0.2400    1.4630   -0.0970 C   0  0  0  0  0  0  0  0  0  0  0  0
    1.4340    2.2690    0.0180 C   0  0  0  0  0  0  0  0  0  0  0  0
    1.3440    3.5180    0.0500 O   0  0  0  0  0  0  0  0  0  0  0  0
    2.7510    1.6920    0.0990 N   0  0  0  0  0  0  0  0  0  0  0  0
    3.9370    2.5050    0.2140 C   0  0  0  0  0  0  0  0  0  0  0  0
    5.1420    1.6030    0.2810 C   0  0  0  0  0  0  0  0  0  0  0  0
    5.0350    0.7200    1.4800 C   0  0  0  0  0  0  0  0  0  0  0  0
    6.2570   -0.1830    1.5200 C   0  0  2  0  0  0  0  0  0  0  0  0
    7.4840    0.6650    1.6120 C   0  0  0  0  0  0  0  0  0  0  0  0
    6.2770   -1.1010    0.3150 C   0  0  0  0  0  0  0  0  0  0  0  0
    6.1530   -1.0180    2.7800 C   0  0  0  0  0  0  0  0  0  0  0  0
    0.1900    0.1030    0.0960 C   0  0  0  0  0  0  0  0  0  0  0  0
   -1.3530   -4.7630    2.8280 C   0  0  0  0  0  0  0  0  0  0  0  0
   -1.7320   -6.1500    2.2990 C   0  0  0  0  0  0  0  0  0  0  0  0
   -1.1940   -6.1740    0.8930 C   0  0  0  0  0  0  0  0  0  0  0  0
  1  2  2  0
  2  3  1  0
  3  4  1  0
  4  5  1  0
  5  6  1  0
  5 11  2  0
  6  7  1  0
  7  8  2  0
  7 39  1  0
  8  9  1  0
  8 37  1  0
  9 10  2  0
  9 11  1  0
 11 12  1  0
 12 13  2  0
 12 36  1  0
 13 14  1  0
 14 15  1  0
 14 24  2  0
 15 16  1  0
 16 17  2  0
 16 18  1  0
 18 19  2  0
 18 20  1  0
 20 21  1  6
 20 22  1  0
 22 23  1  0
 24 25  1  0
 25 26  1  0
 25 36  2  0
 26 27  2  0
 26 28  1  0
 28 29  1  0
 29 30  1  0
 30 31  1  0
 31 32  1  0
 32 33  1  1
 32 34  1  0
 32 35  1  0
 37 38  1  0
 38 39  1  0
M  END
