
     RDKit          3D

 39 43  0  0  0  0  0  0  0  0999 V2000
   -6.8950   -1.8420    2.9890 C   0  0  0  0  0  0  0  0  0  0  0  0
   -6.3970   -0.9350    1.8970 C   0  0  0  0  0  0  0  0  0  0  0  0
   -5.4260   -1.3360    1.0170 C   0  0  0  0  0  0  0  0  0  0  0  0
   -4.9470   -0.5120   -0.0060 C   0  0  0  0  0  0  0  0  0  0  0  0
   -3.9570   -0.9640   -0.8920 N   0  0  0  0  0  0  0  0  0  0  0  0
   -3.4000   -2.2880   -0.7320 C   0  0  0  0  0  0  0  0  0  0  0  0
   -2.3370   -2.5490   -1.7980 C   0  0  1  0  0  0  0  0  0  0  0  0
   -1.3230   -1.5440   -1.6110 N   0  0  0  0  0  0  0  0  0  0  0  0
    0.0570   -1.9230   -1.5450 C   0  0  0  0  0  0  0  0  0  0  0  0
    0.9380   -1.1620   -2.0460 O   0  0  0  0  0  0  0  0  0  0  0  0
    0.3840   -3.2100   -0.8820 C   0  0  2  0  0  0  0  0  0  0  0  0
    1.8290   -3.5810   -1.0580 C   0  0  0  0  0  0  0  0  0  0  0  0
    2.7580   -2.5620   -0.4650 C   0  0  0  0  0  0  0  0  0  0  0  0
    2.2200   -1.6320    0.1600 O   0  0  0  0  0  0  0  0  0  0  0  0
    4.1410   -2.6600   -0.6140 N   0  0  0  0  0  0  0  0  0  0  0  0
    5.0710   -1.7470   -0.0840 C   0  0  0  0  0  0  0  0  0  0  0  0
    6.3970   -1.8070   -0.5490 C   0  0  0  0  0  0  0  0  0  0  0  0
    7.3890   -0.9930   -0.1080 C   0  0  0  0  0  0  0  0  0  0  0  0
    7.1140   -0.0440    0.8500 C   0  0  0  0  0  0  0  0  0  0  0  0
    8.2250    0.8380    1.3090 C   0  0  0  0  0  0  0  0  0  0  0  0
    8.2410    2.1180    0.5230 C   0  0  0  0  0  0  0  0  0  0  0  0
    8.8530    2.3510   -0.6420 N   0  0  0  0  0  0  0  0  0  0  0  0
    8.6180    3.6290   -0.9960 C   0  0  0  0  0  0  0  0  0  0  0  0
    9.0470    4.2270   -2.0690 N   0  0  0  0  0  0  0  0  0  0  0  0
    7.8580    4.1590   -0.0300 N   0  0  0  0  0  0  0  0  0  0  0  0
    7.6290    3.2500    0.8890 N   0  0  0  0  0  0  0  0  0  0  0  0
    5.8370    0.0610    1.3420 C   0  0  0  0  0  0  0  0  0  0  0  0
    4.8310   -0.7960    0.8650 C   0  0  0  0  0  0  0  0  0  0  0  0
   -0.4240   -4.2350   -1.5150 N   0  0  0  0  0  0  0  0  0  0  0  0
   -1.8060   -3.9130   -1.7170 C   0  0  0  0  0  0  0  0  0  0  0  0
   -2.6200   -4.8730   -1.8330 O   0  0  0  0  0  0  0  0  0  0  0  0
   -5.4790    0.7350   -0.1150 C   0  0  0  0  0  0  0  0  0  0  0  0
   -6.4780    1.1610    0.7820 C   0  0  0  0  0  0  0  0  0  0  0  0
   -6.9310    0.3290    1.7800 C   0  0  0  0  0  0  0  0  0  0  0  0
   -6.9840    2.5190    0.5720 C   0  0  1  0  0  0  0  0  0  0  0  0
   -8.0410    2.9670    1.5110 C   0  0  0  0  0  0  0  0  0  0  0  0
   -5.7990    3.4600    0.5470 C   0  0  0  0  0  0  0  0  0  0  0  0
   -4.7130    2.9970   -0.3610 C   0  0  0  0  0  0  0  0  0  0  0  0
   -5.0730    1.7230   -1.1350 C   0  0  0  0  0  0  0  0  0  0  0  0
  1  2  1  0
  2  3  2  0
  2 34  1  0
  3  4  1  0
  4  5  1  0
  4 32  2  0
  5  6  1  0
  7  6  1  1
  7  8  1  0
  7 30  1  0
  8  9  1  0
  9 10  2  0
  9 11  1  0
 11 12  1  6
 11 29  1  0
 12 13  1  0
 13 14  2  0
 13 15  1  0
 15 16  1  0
 16 17  2  0
 16 28  1  0
 17 18  1  0
 18 19  2  0
 19 20  1  0
 19 27  1  0
 20 21  1  0
 21 22  1  0
 21 26  2  0
 22 23  1  0
 23 24  2  0
 23 25  1  0
 25 26  1  0
 27 28  2  0
 29 30  1  0
 30 31  2  0
 32 33  1  0
 32 39  1  0
 33 34  2  0
 33 35  1  0
 35 36  1  1
 35 37  1  0
 37 38  1  0
 38 39  1  0
M  CHG  2  24   1  26   1
M  END
