
     RDKit          3D

 39 42  0  0  0  0  0  0  0  0999 V2000
    7.5320    2.0850    1.3040 C   0  0  0  0  0  0  0  0  0  0  0  0
    7.0670    1.0520    0.3230 C   0  0  0  0  0  0  0  0  0  0  0  0
    5.6180    1.1720   -0.0080 C   0  0  0  0  0  0  0  0  0  0  0  0
    4.6770    0.3100    0.5210 C   0  0  0  0  0  0  0  0  0  0  0  0
    3.3110    0.4080    0.2210 C   0  0  0  0  0  0  0  0  0  0  0  0
    2.3900   -0.5320    0.7320 N   0  0  0  0  0  0  0  0  0  0  0  0
    2.6710   -1.4910    1.7040 C   0  0  0  0  0  0  0  0  0  0  0  0
    3.7840   -1.6100    2.2280 O   0  0  0  0  0  0  0  0  0  0  0  0
    1.6310   -2.4650    2.1930 C   0  0  0  0  0  0  0  0  0  0  0  0
    2.2880   -3.6030    3.4040 S   0  0  0  0  0  0  0  0  0  0  0  0
    3.0540   -2.8830    4.4990 O   0  0  0  0  0  0  0  0  0  0  0  0
    2.8600    1.4010   -0.6380 C   0  0  0  0  0  0  0  0  0  0  0  0
    1.4670    1.5570   -1.0250 C   0  0  0  0  0  0  0  0  0  0  0  0
    1.1500    2.2540   -2.2020 C   0  0  0  0  0  0  0  0  0  0  0  0
   -0.1370    2.4210   -2.6570 C   0  0  0  0  0  0  0  0  0  0  0  0
   -1.1770    1.8850   -1.9380 C   0  0  0  0  0  0  0  0  0  0  0  0
   -0.8830    1.1890   -0.7680 C   0  0  0  0  0  0  0  0  0  0  0  0
   -1.9430    0.5480    0.0220 C   0  0  0  0  0  0  0  0  0  0  0  0
   -1.7590    0.6730    1.3270 N   0  0  0  0  0  0  0  0  0  0  0  0
   -2.6390    0.1610    2.2700 N   0  0  0  0  0  0  0  0  0  0  0  0
   -3.8030   -0.5350    1.8660 C   0  0  0  0  0  0  0  0  0  0  0  0
   -4.7910   -1.0910    2.8210 C   0  0  0  0  0  0  0  0  0  0  0  0
   -4.6130   -0.9600    4.0970 C   0  0  0  0  0  0  0  0  0  0  0  0
   -5.6390   -1.5380    4.9940 C   0  0  0  0  0  0  0  0  0  0  0  0
   -5.4600   -1.4010    6.3880 N   0  0  0  0  0  0  0  0  0  0  0  0
   -6.6480   -2.1390    4.5410 O   0  0  0  0  0  0  0  0  0  0  0  0
   -4.0040   -0.6790    0.5690 C   0  0  0  0  0  0  0  0  0  0  0  0
   -3.0850   -0.1550   -0.4910 C   0  0  0  0  0  0  0  0  0  0  0  0
   -3.2210   -0.6130   -1.7000 C   0  0  0  0  0  0  0  0  0  0  0  0
   -4.4800   -1.2990   -2.1170 C   0  0  0  0  0  0  0  0  0  0  0  0
   -4.7130   -1.4460   -3.4250 C   0  0  0  0  0  0  0  0  0  0  0  0
   -5.9190   -2.1030   -3.8270 N   0  0  0  0  0  0  0  0  0  0  0  0
   -3.8070   -0.9760   -4.4510 C   0  0  0  0  0  0  0  0  0  0  0  0
   -2.6380   -0.2500   -4.0000 N   0  0  0  0  0  0  0  0  0  0  0  0
   -2.1730   -0.7450   -2.7330 C   0  0  0  0  0  0  0  0  0  0  0  0
    0.4040    1.0710   -0.3910 N   0  0  0  0  0  0  0  0  0  0  0  0
    3.8280    2.2580   -1.1580 C   0  0  0  0  0  0  0  0  0  0  0  0
    5.1730    2.1520   -0.8550 C   0  0  0  0  0  0  0  0  0  0  0  0
    6.1690    3.0970   -1.4430 C   0  0  0  0  0  0  0  0  0  0  0  0
  1  2  1  0
  2  3  1  0
  3  4  2  0
  3 38  1  0
  4  5  1  0
  5  6  1  0
  5 12  2  0
  6  7  1  0
  7  8  2  0
  7  9  1  0
  9 10  1  0
 10 11  2  0
 12 13  1  0
 12 37  1  0
 13 14  2  0
 13 36  1  0
 14 15  1  0
 15 16  2  0
 16 17  1  0
 17 18  1  0
 17 36  2  0
 18 19  2  0
 18 28  1  0
 19 20  1  0
 20 21  1  0
 21 22  1  0
 21 27  2  0
 22 23  2  3
 23 24  1  0
 24 25  1  0
 24 26  2  0
 27 28  1  0
 28 29  2  3
 29 30  1  0
 29 35  1  0
 30 31  2  0
 31 32  1  0
 31 33  1  0
 33 34  1  0
 34 35  1  0
 37 38  2  0
 38 39  1  0
M  CHG  1  34   1
M  END
