
     RDKit          3D

 39 42  0  0  0  0  0  0  0  0999 V2000
    8.8530    2.0190    0.9530 C   0  0  0  0  0  0  0  0  0  0  0  0
    8.8880    0.5490    1.3090 C   0  0  0  0  0  0  0  0  0  0  0  0
    7.7640   -0.2380    0.7110 C   0  0  0  0  0  0  0  0  0  0  0  0
    6.4420    0.2300    1.1570 C   0  0  0  0  0  0  0  0  0  0  0  0
    6.1230    1.2470    2.0400 C   0  0  0  0  0  0  0  0  0  0  0  0
    4.7450    1.2490    2.0860 C   0  0  0  0  0  0  0  0  0  0  0  0
    4.2790    0.2560    1.2490 C   0  0  0  0  0  0  0  0  0  0  0  0
    2.9020   -0.0710    1.0130 N   0  0  0  0  0  0  0  0  0  0  0  0
    2.2850    0.1840   -0.0860 C   0  0  0  0  0  0  0  0  0  0  0  0
    3.0870    0.8560   -1.1410 C   0  0  0  0  0  0  0  0  0  0  0  0
    0.8820   -0.1720   -0.2160 C   0  0  0  0  0  0  0  0  0  0  0  0
    0.2500   -0.7330    0.7700 C   0  0  0  0  0  0  0  0  0  0  0  0
    0.8900   -1.0450    2.0540 C   0  0  0  0  0  0  0  0  0  0  0  0
   -1.1340   -1.0290    0.6080 N   0  0  0  0  0  0  0  0  0  0  0  0
   -1.9140   -0.3280   -0.3720 C   0  0  1  0  0  0  0  0  0  0  0  0
   -2.9840   -1.2720   -0.8500 C   0  0  0  0  0  0  0  0  0  0  0  0
   -3.9520   -0.9690   -1.9260 C   0  0  0  0  0  0  0  0  0  0  0  0
   -3.0720   -2.4300   -0.2850 N   0  0  0  0  0  0  0  0  0  0  0  0
   -4.0220   -3.4390   -0.6160 C   0  0  2  0  0  0  0  0  0  0  0  0
   -5.4520   -3.0110   -0.3690 C   0  0  0  0  0  0  0  0  0  0  0  0
   -3.6650   -4.6570    0.2180 C   0  0  0  0  0  0  0  0  0  0  0  0
   -3.7370   -4.3170    1.5500 O   0  0  0  0  0  0  0  0  0  0  0  0
   -2.4690    0.9040    0.2410 C   0  0  0  0  0  0  0  0  0  0  0  0
   -2.0340    1.3290    1.4960 C   0  0  0  0  0  0  0  0  0  0  0  0
   -2.4810    2.4670    2.1180 C   0  0  0  0  0  0  0  0  0  0  0  0
   -3.4150    3.2490    1.4810 C   0  0  0  0  0  0  0  0  0  0  0  0
   -3.8860    2.8850    0.2390 C   0  0  0  0  0  0  0  0  0  0  0  0
   -3.4030    1.7150   -0.3620 C   0  0  0  0  0  0  0  0  0  0  0  0
   -4.8820    3.7290   -0.4290 C   0  0  0  0  0  0  0  0  0  0  0  0
   -5.8160    4.4180    0.5360 C   0  0  0  0  0  0  0  0  0  0  0  0
   -5.1090    5.0140    1.7080 C   0  0  0  0  0  0  0  0  0  0  0  0
   -3.9040    4.4020    2.0490 O   0  0  0  0  0  0  0  0  0  0  0  0
   -1.1790    0.0410   -1.5400 N   0  0  0  0  0  0  0  0  0  0  0  0
    0.2270    0.1190   -1.4930 C   0  0  2  0  0  0  0  0  0  0  0  0
    0.7370   -0.6600   -2.6800 C   0  0  0  0  0  0  0  0  0  0  0  0
    0.6020   -2.1350   -2.6250 C   0  0  1  0  0  0  0  0  0  0  0  0
    1.2840   -2.8690   -1.5360 C   0  0  0  0  0  0  0  0  0  0  0  0
   -0.7280   -2.5670   -2.7240 O   0  0  0  0  0  0  0  0  0  0  0  0
    5.3190   -0.3140    0.7260 O   0  0  0  0  0  0  0  0  0  0  0  0
  1  2  1  0
  2  3  1  0
  3  4  1  0
  4  5  2  0
  4 39  1  0
  5  6  1  0
  6  7  2  0
  7  8  1  0
  7 39  1  0
  8  9  2  3
  9 10  1  0
  9 11  1  0
 11 12  2  0
 11 34  1  0
 12 13  1  0
 12 14  1  0
 14 15  1  0
 15 16  1  6
 15 23  1  0
 15 33  1  0
 16 17  1  0
 16 18  2  3
 18 19  1  0
 19 20  1  1
 19 21  1  0
 21 22  1  0
 23 24  2  0
 23 28  1  0
 24 25  1  0
 25 26  2  0
 26 27  1  0
 26 32  1  0
 27 28  2  0
 27 29  1  0
 29 30  1  0
 30 31  1  0
 31 32  1  0
 33 34  1  0
 34 35  1  6
 35 36  1  0
 36 37  1  1
 36 38  1  0
M  END
