
     RDKit          3D

 39 42  0  0  0  0  0  0  0  0999 V2000
    1.6230    6.5320   -1.3010 C   0  0  0  0  0  0  0  0  0  0  0  0
    1.3660    5.6760   -0.3290 C   0  0  0  0  0  0  0  0  0  0  0  0
    0.9090    4.3260   -0.6650 C   0  0  0  0  0  0  0  0  0  0  0  0
    1.8830    3.2520   -0.1310 C   0  0  0  0  0  0  0  0  0  0  0  0
    1.2730    1.9480   -0.5610 C   0  0  0  0  0  0  0  0  0  0  0  0
    1.9550    0.7050   -0.1850 C   0  0  1  0  0  0  0  0  0  0  0  0
    1.2090   -0.4710   -0.7340 C   0  0  0  0  0  0  0  0  0  0  0  0
   -0.1320   -0.6760   -0.3340 N   0  0  0  0  0  0  0  0  0  0  0  0
   -0.6420   -1.3830    0.8150 C   0  0  0  0  0  0  0  0  0  0  0  0
    0.0320   -1.9110    1.7240 O   0  0  0  0  0  0  0  0  0  0  0  0
   -2.1020   -1.3950    0.7630 C   0  0  0  0  0  0  0  0  0  0  0  0
   -2.9980   -1.9870    1.7040 N   0  0  0  0  0  0  0  0  0  0  0  0
   -3.8220   -1.1190    2.5090 C   0  0  0  0  0  0  0  0  0  0  0  0
   -4.7930   -1.8490    3.3760 C   0  0  0  0  0  0  0  0  0  0  0  0
   -4.3990   -3.1490    3.6870 O   0  0  0  0  0  0  0  0  0  0  0  0
   -4.2660   -3.9170    2.5350 C   0  0  0  0  0  0  0  0  0  0  0  0
   -3.0330   -3.4280    1.8080 C   0  0  0  0  0  0  0  0  0  0  0  0
   -2.5030   -0.7530   -0.3180 C   0  0  0  0  0  0  0  0  0  0  0  0
   -3.8670   -0.5020   -0.8060 C   0  0  0  0  0  0  0  0  0  0  0  0
   -4.8740   -1.4230   -0.7370 C   0  0  0  0  0  0  0  0  0  0  0  0
   -6.1190   -1.1020   -1.2140 C   0  0  0  0  0  0  0  0  0  0  0  0
   -6.3710    0.1440   -1.7670 C   0  0  0  0  0  0  0  0  0  0  0  0
   -7.7260    0.5030   -2.2920 C   0  0  0  0  0  0  0  0  0  0  0  0
   -5.3660    1.0800   -1.8420 C   0  0  0  0  0  0  0  0  0  0  0  0
   -4.1230    0.7380   -1.3570 C   0  0  0  0  0  0  0  0  0  0  0  0
   -1.3070   -0.2590   -1.0520 C   0  0  2  0  0  0  0  0  0  0  0  0
   -1.3300   -0.7940   -2.4060 N   0  0  0  0  0  0  0  0  0  0  0  0
    3.3340    0.6620   -0.8690 C   0  0  0  0  0  0  0  0  0  0  0  0
    4.4570    0.9670    0.0930 C   0  0  2  0  0  0  0  0  0  0  0  0
    5.7020    1.1220   -0.7390 C   0  0  0  0  0  0  0  0  0  0  0  0
    4.5780    0.0070    1.2430 C   0  0  2  0  0  0  0  0  0  0  0  0
    5.7390   -0.8880    1.2500 C   0  0  0  0  0  0  0  0  0  0  0  0
    5.9780   -1.8510    0.1720 C   0  0  0  0  0  0  0  0  0  0  0  0
    4.9770   -2.9230    0.0870 C   0  0  0  0  0  0  0  0  0  0  0  0
    4.5740   -3.4360   -1.1710 N   0  0  0  0  0  0  0  0  0  0  0  0
    4.4710   -3.4020    1.1270 O   0  0  0  0  0  0  0  0  0  0  0  0
    3.2290   -0.5400    1.5860 C   0  0  0  0  0  0  0  0  0  0  0  0
    2.2690    0.5620    1.2560 C   0  0  0  0  0  0  0  0  0  0  0  0
    1.8510    1.2120    2.1650 O   0  0  0  0  0  0  0  0  0  0  0  0
  1  2  2  0
  2  3  1  0
  3  4  1  0
  4  5  1  0
  6  5  1  1
  6  7  1  0
  6 28  1  0
  6 38  1  0
  7  8  1  0
  8  9  1  0
  8 26  1  0
  9 10  2  0
  9 11  1  0
 11 12  1  0
 11 18  2  0
 12 13  1  0
 12 17  1  0
 13 14  1  0
 14 15  1  0
 15 16  1  0
 16 17  1  0
 18 19  1  0
 18 26  1  0
 19 20  2  0
 19 25  1  0
 20 21  1  0
 21 22  2  0
 22 23  1  0
 22 24  1  0
 24 25  2  0
 26 27  1  6
 28 29  1  0
 29 30  1  6
 29 31  1  0
 31 32  1  6
 31 37  1  0
 32 33  1  0
 33 34  1  0
 34 35  1  0
 34 36  2  0
 37 38  1  0
 38 39  2  0
M  END
