
     RDKit          3D

 20 20  0  0  0  0  0  0  0  0999 V2000
    6.5460    1.4980   -1.0480 C   0  0  0  0  0  0  0  0  0  0  0  0
    5.9990    0.1750   -0.6560 C   0  0  0  0  0  0  0  0  0  0  0  0
    4.6260    0.1230   -1.0390 O   0  0  0  0  0  0  0  0  0  0  0  0
    4.0340   -0.2250    0.1830 C   0  0  0  0  0  0  0  0  0  0  0  0
    3.0090   -1.2560    0.1140 C   0  0  0  0  0  0  0  0  0  0  0  0
    1.7450   -0.8720   -0.3550 N   0  0  0  0  0  0  0  0  0  0  0  0
    1.1670   -1.3660   -1.4980 C   0  0  0  0  0  0  0  0  0  0  0  0
   -0.1640   -2.0840   -1.3700 C   0  0  0  0  0  0  0  0  0  0  0  0
   -1.0590   -1.5110   -0.4950 O   0  0  0  0  0  0  0  0  0  0  0  0
   -0.5020   -0.5690    0.3140 C   0  0  1  0  0  0  0  0  0  0  0  0
   -1.4360   -0.1420    1.4230 C   0  0  0  0  0  0  0  0  0  0  0  0
   -2.5550    0.4410    0.8020 N   0  0  2  0  0  0  0  0  0  0  0  0
   -3.0700    1.6000    1.5680 C   0  0  0  0  0  0  0  0  0  0  0  0
   -3.1120    1.3640    3.0330 C   0  0  0  0  0  0  0  0  0  0  0  0
   -3.7090   -0.4780    0.6830 C   0  0  0  0  0  0  0  0  0  0  0  0
   -4.3690   -0.1930   -0.6550 C   0  0  0  0  0  0  0  0  0  0  0  0
   -4.6810   -1.1820   -1.4000 O   0  0  0  0  0  0  0  0  0  0  0  0
   -4.5650    1.1290   -1.0710 O   0  0  0  0  0  0  0  0  0  0  0  0
   -5.0580    1.3840   -2.4270 C   0  0  0  0  0  0  0  0  0  0  0  0
    0.8070   -1.0360    0.8200 C   0  0  0  0  0  0  0  0  0  0  0  0
  1  2  1  0
  2  3  1  0
  3  4  1  0
  4  5  1  0
  5  6  1  0
  6  7  1  0
  6 20  1  0
  7  8  1  0
  8  9  1  0
  9 10  1  0
 10 11  1  1
 10 20  1  0
 12 11  1  1
 12 13  1  0
 12 15  1  0
 13 14  1  0
 15 16  1  0
 16 17  2  0
 16 18  1  0
 18 19  1  0
M  CHG  1  12   1
M  END
