
     RDKit          3D

  6  5  0  0  0  0  0  0  0  0999 V2000
   -1.4920   -0.1440    0.1760 C   0  0  0  0  0  0  0  0  0  0  0  0
   -0.2370    0.2680   -0.4830 C   0  0  0  0  0  0  0  0  0  0  0  0
   -0.3160    0.8140   -1.6060 O   0  0  0  0  0  0  0  0  0  0  0  0
    1.0270    0.0300    0.1850 C   0  0  0  0  0  0  0  0  0  0  0  0
    1.0730   -0.5190    1.3120 O   0  0  0  0  0  0  0  0  0  0  0  0
    2.2350    0.4170   -0.4300 O   0  0  0  0  0  0  0  0  0  0  0  0
  1  2  1  0
  2  3  2  0
  2  4  1  0
  4  5  2  0
  4  6  1  0
M  END
