
     RDKit          3D

 20 20  0  0  0  0  0  0  0  0999 V2000
   -6.6470    0.3500    0.5860 C   0  0  0  0  0  0  0  0  0  0  0  0
   -5.1520    0.5540    0.5910 C   0  0  0  0  0  0  0  0  0  0  0  0
   -4.4790   -0.4020   -0.3010 N   0  0  1  0  0  0  0  0  0  0  0  0
   -3.5350    0.3130   -1.1100 C   0  0  0  0  0  0  0  0  0  0  0  0
   -2.3360    0.6790   -0.3040 C   0  0  0  0  0  0  0  0  0  0  0  0
   -1.6710   -0.4740    0.2110 N   0  0  0  0  0  0  0  0  0  0  0  0
   -0.8800   -0.1820    1.3850 C   0  0  0  0  0  0  0  0  0  0  0  0
    0.2920    0.6720    1.0620 C   0  0  0  0  0  0  0  0  0  0  0  0
    1.0610    1.0450    1.9760 O   0  0  0  0  0  0  0  0  0  0  0  0
    0.5940    1.0920   -0.2240 O   0  0  0  0  0  0  0  0  0  0  0  0
    1.6970    1.8920   -0.5000 C   0  0  0  0  0  0  0  0  0  0  0  0
    3.0210    1.3210   -0.1280 C   0  0  0  0  0  0  0  0  0  0  0  0
    3.3140    0.1370   -0.7600 O   0  0  0  0  0  0  0  0  0  0  0  0
    4.5430   -0.3570   -0.3750 C   0  0  2  0  0  0  0  0  0  0  0  0
    4.7650   -1.6640   -1.1300 C   0  0  0  0  0  0  0  0  0  0  0  0
    4.5820   -0.7010    1.1030 C   0  0  0  0  0  0  0  0  0  0  0  0
    5.7070    0.5350   -0.6530 C   0  0  0  0  0  0  0  0  0  0  0  0
    6.8520   -0.1560   -0.1920 O   0  0  0  0  0  0  0  0  0  0  0  0
   -2.4450   -1.6650    0.2990 C   0  0  0  0  0  0  0  0  0  0  0  0
   -3.9170   -1.4820    0.4540 C   0  0  0  0  0  0  0  0  0  0  0  0
  1  2  1  0
  3  2  1  1
  3  4  1  0
  3 20  1  0
  4  5  1  0
  5  6  1  0
  6  7  1  0
  6 19  1  0
  7  8  1  0
  8  9  2  0
  8 10  1  0
 10 11  1  0
 11 12  1  0
 12 13  1  0
 13 14  1  0
 14 15  1  6
 14 16  1  0
 14 17  1  0
 17 18  1  0
 19 20  1  0
M  CHG  1   3   1
M  END
