
     RDKit          3D

 20 20  0  0  0  0  0  0  0  0999 V2000
   -5.4420   -1.7950    1.0310 C   0  0  0  0  0  0  0  0  0  0  0  0
   -5.1910   -0.4150    0.5160 C   0  0  0  0  0  0  0  0  0  0  0  0
   -3.8770   -0.2460   -0.0720 N   0  0  2  0  0  0  0  0  0  0  0  0
   -3.7890   -0.9330   -1.3300 C   0  0  0  0  0  0  0  0  0  0  0  0
   -2.4740   -0.6430   -2.0010 C   0  0  0  0  0  0  0  0  0  0  0  0
   -1.3420   -0.7510   -1.1120 N   0  0  0  0  0  0  0  0  0  0  0  0
   -0.7560    0.5390   -0.9480 C   0  0  2  0  0  0  0  0  0  0  0  0
   -0.2760    0.9650   -2.3470 C   0  0  0  0  0  0  0  0  0  0  0  0
    0.4240    0.5740   -0.0510 C   0  0  0  0  0  0  0  0  0  0  0  0
    0.9010   -0.4370    0.5140 O   0  0  0  0  0  0  0  0  0  0  0  0
    1.0400    1.7920    0.1810 O   0  0  0  0  0  0  0  0  0  0  0  0
    2.1710    1.9340    1.0190 C   0  0  0  0  0  0  0  0  0  0  0  0
    3.3090    1.1180    0.5130 C   0  0  0  0  0  0  0  0  0  0  0  0
    3.1420    0.4350   -0.5520 O   0  0  0  0  0  0  0  0  0  0  0  0
    4.5350    1.0410    1.1070 O   0  0  0  0  0  0  0  0  0  0  0  0
    5.6380    0.2990    0.6860 C   0  0  1  0  0  0  0  0  0  0  0  0
    6.8250    1.1680    0.3270 C   0  0  0  0  0  0  0  0  0  0  0  0
    6.0360   -0.7680    1.6990 C   0  0  0  0  0  0  0  0  0  0  0  0
   -1.7680   -1.4020    0.0910 C   0  0  0  0  0  0  0  0  0  0  0  0
   -2.8120   -0.5810    0.8430 C   0  0  0  0  0  0  0  0  0  0  0  0
  1  2  1  0
  3  2  1  1
  3  4  1  0
  3 20  1  0
  4  5  1  0
  5  6  1  0
  6  7  1  0
  6 19  1  0
  7  8  1  6
  7  9  1  0
  9 10  2  0
  9 11  1  0
 11 12  1  0
 12 13  1  0
 13 14  2  0
 13 15  1  0
 15 16  1  0
 16 17  1  1
 16 18  1  0
 19 20  1  0
M  CHG  1   3   1
M  END
