
     RDKit          3D

 20 19  0  0  0  0  0  0  0  0999 V2000
    6.9280    2.4330    1.2790 C   0  0  0  0  0  0  0  0  0  0  0  0
    6.1560    2.1130    0.1410 O   0  0  0  0  0  0  0  0  0  0  0  0
    5.3400    1.0010    0.0550 C   0  0  0  0  0  0  0  0  0  0  0  0
    5.2770    0.2290    1.0410 O   0  0  0  0  0  0  0  0  0  0  0  0
    4.5400    0.7100   -1.1810 C   0  0  0  0  0  0  0  0  0  0  0  0
    3.7750   -0.4940   -1.0270 N   0  0  0  0  0  0  0  0  0  0  0  0
    4.3410   -1.7720   -1.4090 C   0  0  0  0  0  0  0  0  0  0  0  0
    2.4400   -0.4060   -0.4870 C   0  0  0  0  0  0  0  0  0  0  0  0
    1.9330    0.6790   -0.1530 O   0  0  0  0  0  0  0  0  0  0  0  0
    1.6580   -1.5390   -0.3170 O   0  0  0  0  0  0  0  0  0  0  0  0
    0.3470   -1.5170    0.2050 C   0  0  2  0  0  0  0  0  0  0  0  0
    0.3900   -2.3440    1.4720 C   0  0  0  0  0  0  0  0  0  0  0  0
   -0.6490   -2.0580   -0.7910 C   0  0  0  0  0  0  0  0  0  0  0  0
   -2.0480   -2.0510   -0.2720 C   0  0  0  0  0  0  0  0  0  0  0  0
   -2.4830   -0.6380    0.0710 C   0  0  0  0  0  0  0  0  0  0  0  0
   -3.8900   -0.6020    0.5950 C   0  0  0  0  0  0  0  0  0  0  0  0
   -4.2620    0.8160    0.9270 C   0  0  0  0  0  0  0  0  0  0  0  0
   -4.1900    1.6260   -0.2510 N   0  0  1  0  0  0  0  0  0  0  0  0
   -5.0440    1.0550   -1.2720 C   0  0  0  0  0  0  0  0  0  0  0  0
   -4.7350    2.9430    0.0700 C   0  0  0  0  0  0  0  0  0  0  0  0
  1  2  1  0
  2  3  1  0
  3  4  2  0
  3  5  1  0
  5  6  1  0
  6  7  1  0
  6  8  1  0
  8  9  2  0
  8 10  1  0
 10 11  1  0
 11 12  1  1
 11 13  1  0
 13 14  1  0
 14 15  1  0
 15 16  1  0
 16 17  1  0
 17 18  1  0
 18 19  1  6
 18 20  1  0
M  CHG  1  18   1
M  END
