
     RDKit          3D

 23 23  0  0  0  0  0  0  0  0999 V2000
   -2.5110   -1.3910   -1.1320 C   0  0  0  0  0  0  0  0  0  0  0  0
   -1.9460    0.0130   -0.7400 C   0  0  1  0  0  0  0  0  0  0  0  0
   -2.5860    0.8570   -1.6810 O   0  0  0  0  0  0  0  0  0  0  0  0
   -2.4490    0.2810    0.5960 C   0  0  2  0  0  0  0  0  0  0  0  0
   -3.9950    0.2790    0.5720 C   0  0  0  0  0  0  0  0  0  0  0  0
   -4.3800    0.5530    1.9070 O   0  0  0  0  0  0  0  0  0  0  0  0
   -2.0920    1.6530    1.1020 C   0  0  0  0  0  0  0  0  0  0  0  0
   -2.5600    2.6660    0.3010 O   0  0  0  0  0  0  0  0  0  0  0  0
   -0.5230   -0.0530   -1.0680 C   0  0  2  0  0  0  0  0  0  0  0  0
   -0.4040   -0.6880   -2.3650 O   0  0  0  0  0  0  0  0  0  0  0  0
    0.3360   -0.8730   -0.1530 C   0  0  0  0  0  0  0  0  0  0  0  0
    1.5590   -0.0170    0.0480 C   0  0  1  0  0  0  0  0  0  0  0  0
    1.4550    0.7360    1.2190 O   0  0  0  0  0  0  0  0  0  0  0  0
    2.7700   -0.8830    0.1470 C   0  0  0  0  0  0  0  0  0  0  0  0
    3.0930   -1.6610   -0.7800 O   0  0  0  0  0  0  0  0  0  0  0  0
    3.5450   -0.8280    1.2700 O   0  0  0  0  0  0  0  0  0  0  0  0
    4.7100   -1.5910    1.4870 C   0  0  0  0  0  0  0  0  0  0  0  0
    5.7010   -1.2730    0.4260 C   0  0  0  0  0  0  0  0  0  0  0  0
    6.8070   -1.8530    0.4470 O   0  0  0  0  0  0  0  0  0  0  0  0
    5.4180   -0.3620   -0.5620 O   0  0  0  0  0  0  0  0  0  0  0  0
    1.6000    0.7850   -1.0800 O   0  0  0  0  0  0  0  0  0  0  0  0
    0.2580    1.2070   -1.2230 C   0  0  1  0  0  0  0  0  0  0  0  0
    0.2110    1.6310   -2.5830 O   0  0  0  0  0  0  0  0  0  0  0  0
  2  1  1  6
  2  3  1  0
  2  4  1  0
  2  9  1  0
  4  5  1  6
  4  7  1  0
  5  6  1  0
  7  8  1  0
  9 10  1  6
  9 11  1  0
  9 22  1  0
 11 12  1  0
 12 13  1  1
 12 14  1  0
 12 21  1  0
 14 15  2  0
 14 16  1  0
 16 17  1  0
 17 18  1  0
 18 19  2  0
 18 20  1  0
 21 22  1  0
 22 23  1  6
M  END
