
     RDKit          3D

 22 23  0  0  0  0  0  0  0  0999 V2000
    5.1990   -0.5790   -0.2710 C   0  0  0  0  0  0  0  0  0  0  0  0
    3.8870   -0.0210   -0.3930 O   0  0  0  0  0  0  0  0  0  0  0  0
    2.8520   -0.7950   -0.8870 C   0  0  0  0  0  0  0  0  0  0  0  0
    3.1310   -1.9790   -1.2110 O   0  0  0  0  0  0  0  0  0  0  0  0
    1.4830   -0.2320   -1.0210 C   0  0  2  0  0  0  0  0  0  0  0  0
    1.4990    1.0560   -0.5950 O   0  0  0  0  0  0  0  0  0  0  0  0
    0.2420    1.6480   -0.4740 C   0  0  2  0  0  0  0  0  0  0  0  0
    0.3370    3.0210   -0.0160 C   0  0  0  0  0  0  0  0  0  0  0  0
   -0.6910    3.7130    0.1520 O   0  0  0  0  0  0  0  0  0  0  0  0
    1.5610    3.6010    0.2460 O   0  0  0  0  0  0  0  0  0  0  0  0
   -0.5260    0.7450    0.4480 C   0  0  1  0  0  0  0  0  0  0  0  0
    0.2080    0.5000    1.7320 C   0  0  0  0  0  0  0  0  0  0  0  0
   -1.9400    1.0920    0.6650 C   0  0  1  0  0  0  0  0  0  0  0  0
   -2.5640    1.4990   -0.5060 O   0  0  0  0  0  0  0  0  0  0  0  0
   -2.4920   -0.2460    1.1550 C   0  0  0  0  0  0  0  0  0  0  0  0
   -1.6760   -1.2930    0.3880 C   0  0  1  0  0  0  0  0  0  0  0  0
   -1.2230   -2.2650    1.2420 O   0  0  0  0  0  0  0  0  0  0  0  0
   -2.6540   -1.8920   -0.6310 C   0  0  0  0  0  0  0  0  0  0  0  0
   -3.7530   -2.4580    0.0290 O   0  0  0  0  0  0  0  0  0  0  0  0
   -0.6350   -0.5630   -0.3540 C   0  0  1  0  0  0  0  0  0  0  0  0
   -0.9890   -0.2410   -1.6640 O   0  0  0  0  0  0  0  0  0  0  0  0
    0.6260   -1.0800   -0.3360 O   0  0  0  0  0  0  0  0  0  0  0  0
  1  2  1  0
  2  3  1  0
  3  4  2  0
  5  3  1  1
  5  6  1  0
  5 22  1  0
  6  7  1  0
  7  8  1  1
  7 11  1  0
  8  9  2  0
  8 10  1  0
 11 12  1  1
 11 13  1  0
 11 20  1  0
 13 14  1  6
 13 15  1  0
 15 16  1  0
 16 17  1  1
 16 18  1  0
 16 20  1  0
 18 19  1  0
 20 21  1  6
 20 22  1  0
M  END
