
     RDKit          3D

 23 23  0  0  0  0  0  0  0  0999 V2000
   -3.0200    0.0850   -2.7870 O   0  0  0  0  0  0  0  0  0  0  0  0
   -2.6270    0.9030   -1.9330 C   0  0  0  0  0  0  0  0  0  0  0  0
   -2.2090    2.1440   -2.3450 O   0  0  0  0  0  0  0  0  0  0  0  0
   -2.6150    0.5290   -0.4880 C   0  0  2  0  0  0  0  0  0  0  0  0
   -3.2670    1.6310    0.3080 C   0  0  0  0  0  0  0  0  0  0  0  0
   -3.3510    1.4260    1.6440 O   0  0  0  0  0  0  0  0  0  0  0  0
   -1.2190    0.2590    0.0060 C   0  0  1  0  0  0  0  0  0  0  0  0
   -1.1410   -0.1500    1.4410 C   0  0  0  0  0  0  0  0  0  0  0  0
   -1.8940   -1.3640    1.8500 C   0  0  1  0  0  0  0  0  0  0  0  0
   -1.5320   -2.5360    1.2220 O   0  0  0  0  0  0  0  0  0  0  0  0
   -1.5740   -1.5710    3.2200 O   0  0  0  0  0  0  0  0  0  0  0  0
   -0.4610   -0.7010   -0.8480 C   0  0  0  0  0  0  0  0  0  0  0  0
    0.9300   -0.0690   -0.8630 C   0  0  2  0  0  0  0  0  0  0  0  0
    1.6430   -0.4720   -2.1520 C   0  0  0  0  0  0  0  0  0  0  0  0
    1.8760   -1.8250   -2.2320 O   0  0  0  0  0  0  0  0  0  0  0  0
    1.6440   -0.3940    0.2490 O   0  0  0  0  0  0  0  0  0  0  0  0
    2.8900    0.1280    0.3960 C   0  0  1  0  0  0  0  0  0  0  0  0
    3.0630    0.7910    1.6260 O   0  0  0  0  0  0  0  0  0  0  0  0
    3.9070   -1.0210    0.4530 C   0  0  2  0  0  0  0  0  0  0  0  0
    3.5930   -1.8340    1.5370 O   0  0  0  0  0  0  0  0  0  0  0  0
    5.1330   -0.4060    0.7610 O   0  0  0  0  0  0  0  0  0  0  0  0
    0.5570    1.3790   -0.8760 C   0  0  0  0  0  0  0  0  0  0  0  0
   -0.5470    1.4800   -0.0830 O   0  0  0  0  0  0  0  0  0  0  0  0
  1  2  2  0
  2  3  1  0
  2  4  1  0
  4  5  1  1
  4  7  1  0
  5  6  1  0
  7  8  1  1
  7 12  1  0
  7 23  1  0
  8  9  1  0
  9 10  1  6
  9 11  1  0
 12 13  1  0
 13 14  1  6
 13 16  1  0
 13 22  1  0
 14 15  1  0
 16 17  1  0
 17 18  1  1
 17 19  1  0
 19 20  1  1
 19 21  1  0
 22 23  1  0
M  END
