
     RDKit          3D

 23 23  0  0  0  0  0  0  0  0999 V2000
    3.8080    2.5500    1.5770 C   0  0  0  0  0  0  0  0  0  0  0  0
    2.3480    2.7780    1.3270 C   0  0  0  0  0  0  0  0  0  0  0  0
    1.8050    1.7020    0.5900 O   0  0  0  0  0  0  0  0  0  0  0  0
    2.2660    1.3770   -0.6620 C   0  0  0  0  0  0  0  0  0  0  0  0
    3.2080    2.0910   -1.1310 O   0  0  0  0  0  0  0  0  0  0  0  0
    1.7840    0.3140   -1.4720 N   0  0  0  0  0  0  0  0  0  0  0  0
    2.3060   -0.0270   -2.7580 C   0  0  0  0  0  0  0  0  0  0  0  0
    3.2580    0.5470   -3.3940 O   0  0  0  0  0  0  0  0  0  0  0  0
    1.6070   -1.1210   -3.2510 O   0  0  0  0  0  0  0  0  0  0  0  0
    0.3820   -1.0710   -2.5970 C   0  0  0  0  0  0  0  0  0  0  0  0
    0.7280   -0.6520   -1.2200 C   0  0  2  0  0  0  0  0  0  0  0  0
   -0.4280    0.0670   -0.5470 C   0  0  0  0  0  0  0  0  0  0  0  0
   -1.5070   -0.7750   -0.2900 O   0  0  0  0  0  0  0  0  0  0  0  0
   -2.5580   -0.1430    0.3250 C   0  0  0  0  0  0  0  0  0  0  0  0
   -3.1470    1.0020   -0.4690 C   0  0  0  0  0  0  0  0  0  0  0  0
   -4.2890    1.5850    0.3400 C   0  0  0  0  0  0  0  0  0  0  0  0
   -3.7920    2.0430    1.5720 O   0  0  0  0  0  0  0  0  0  0  0  0
   -4.7660    2.5550    2.2910 O   0  0  0  0  0  0  0  0  0  0  0  0
    1.3710   -1.6900   -0.3710 C   0  0  0  0  0  0  0  0  0  0  0  0
    0.5910   -2.8330    0.0540 C   0  0  0  0  0  0  0  0  0  0  0  0
   -0.5750   -3.1510   -0.2020 O   0  0  0  0  0  0  0  0  0  0  0  0
    1.2510   -3.7550    0.9060 O   0  0  0  0  0  0  0  0  0  0  0  0
    0.5950   -4.9110    1.3880 C   0  0  0  0  0  0  0  0  0  0  0  0
  1  2  1  0
  2  3  1  0
  3  4  1  0
  4  5  2  0
  4  6  1  0
  6  7  1  0
  6 11  1  0
  7  8  2  0
  7  9  1  0
  9 10  1  0
 10 11  1  0
 11 12  1  1
 11 19  1  0
 12 13  1  0
 13 14  1  0
 14 15  1  0
 15 16  1  0
 16 17  1  0
 17 18  1  0
 19 20  1  0
 20 21  2  0
 20 22  1  0
 22 23  1  0
M  END
