
     RDKit          3D

 35 36  0  0  0  0  0  0  0  0999 V2000
   10.6100    0.8060    0.9900 C   0  0  0  0  0  0  0  0  0  0  0  0
   11.4050   -0.3000    0.7190 O   0  0  0  0  0  0  0  0  0  0  0  0
   10.5870   -1.4450   -0.3000 P   0  0  0  0  0  0  0  0  0  0  0  0
   10.3250   -3.0260    0.6370 C   0  0  0  0  0  0  0  0  0  0  0  0
    8.9840   -0.7090   -0.7860 C   0  0  0  0  0  0  0  0  0  0  0  0
    7.7830   -1.0950   -0.2380 C   0  0  0  0  0  0  0  0  0  0  0  0
    6.5570   -0.5520   -0.5900 C   0  0  0  0  0  0  0  0  0  0  0  0
    6.5030    0.4320   -1.5380 C   0  0  0  0  0  0  0  0  0  0  0  0
    5.3110    1.0670   -1.9750 C   0  0  0  0  0  0  0  0  0  0  0  0
    5.5300    1.9710   -2.9290 O   0  0  0  0  0  0  0  0  0  0  0  0
    3.9040    0.9980   -1.6590 C   0  0  0  0  0  0  0  0  0  0  0  0
    3.4830    0.0820   -0.5980 C   0  0  0  0  0  0  0  0  0  0  0  0
    2.0610    0.1000   -0.3780 O   0  0  0  0  0  0  0  0  0  0  0  0
    1.3870    1.2130    0.0260 C   0  0  0  0  0  0  0  0  0  0  0  0
    2.0520    2.2670    0.2170 O   0  0  0  0  0  0  0  0  0  0  0  0
   -0.0780    1.2130    0.2430 C   0  0  0  0  0  0  0  0  0  0  0  0
   -0.8170    0.0740    0.0390 C   0  0  0  0  0  0  0  0  0  0  0  0
   -2.2110    0.0660    0.2430 C   0  0  0  0  0  0  0  0  0  0  0  0
   -2.8910    1.1810    0.6500 C   0  0  0  0  0  0  0  0  0  0  0  0
   -4.2910    1.2400    0.8630 N   0  0  0  0  0  0  0  0  0  0  0  0
   -5.2450    0.2670    0.5850 C   0  0  0  0  0  0  0  0  0  0  0  0
   -4.8930   -0.8210    0.0810 O   0  0  0  0  0  0  0  0  0  0  0  0
   -6.6510    0.5130    0.8800 C   0  0  0  0  0  0  0  0  0  0  0  0
   -6.9850    1.6060    1.3830 O   0  0  0  0  0  0  0  0  0  0  0  0
   -7.6230   -0.4800    0.5960 N   0  0  0  0  0  0  0  0  0  0  0  0
   -8.9970   -0.2310    0.8870 C   0  0  2  0  0  0  0  0  0  0  0  0
   -9.4250   -1.1150    2.0070 C   0  0  0  0  0  0  0  0  0  0  0  0
   -9.2790   -2.4550    1.7640 O   0  0  0  0  0  0  0  0  0  0  0  0
   -9.9130   -0.1840   -0.2700 C   0  0  0  0  0  0  0  0  0  0  0  0
  -10.0300   -1.3790   -1.1340 C   0  0  0  0  0  0  0  0  0  0  0  0
  -10.4980   -2.5790   -0.5270 N   0  0  0  0  0  0  0  0  0  0  0  0
   -2.1180    2.3310    0.8520 C   0  0  0  0  0  0  0  0  0  0  0  0
   -0.7540    2.3380    0.6520 C   0  0  0  0  0  0  0  0  0  0  0  0
    7.7360    0.8270   -2.1010 C   0  0  0  0  0  0  0  0  0  0  0  0
    8.9400    0.2790   -1.7410 C   0  0  0  0  0  0  0  0  0  0  0  0
  1  2  1  0
  2  3  1  0
  3  4  1  0
  3  5  1  0
  5  6  2  0
  5 35  1  0
  6  7  1  0
  7  8  2  0
  8  9  1  0
  8 34  1  0
  9 10  2  0
  9 11  1  0
 11 12  1  0
 12 13  1  0
 13 14  1  0
 14 15  2  0
 14 16  1  0
 16 17  2  0
 16 33  1  0
 17 18  1  0
 18 19  2  0
 19 20  1  0
 19 32  1  0
 20 21  1  0
 21 22  2  0
 21 23  1  0
 23 24  2  0
 23 25  1  0
 25 26  1  0
 26 27  1  1
 26 29  1  0
 27 28  1  0
 29 30  1  0
 30 31  1  0
 32 33  2  0
 34 35  2  0
M  END
