
     RDKit          3D

 35 36  0  0  0  0  0  0  0  0999 V2000
   -7.4970    1.0650    0.4180 C   0  0  0  0  0  0  0  0  0  0  0  0
   -7.3250   -0.1230    1.3060 C   0  0  0  0  0  0  0  0  0  0  0  0
   -6.0870   -0.0440    2.1280 C   0  0  0  0  0  0  0  0  0  0  0  0
   -4.9350    0.4720    1.2560 C   0  0  0  0  0  0  0  0  0  0  0  0
   -4.6600    1.8140    1.3980 C   0  0  0  0  0  0  0  0  0  0  0  0
   -3.6600    2.3940    0.5910 C   0  0  0  0  0  0  0  0  0  0  0  0
   -3.2700    3.7730    0.8510 C   0  0  0  0  0  0  0  0  0  0  0  0
   -3.5450    4.3830    2.1350 N   0  0  0  0  0  0  0  0  0  0  0  0
   -2.7040    4.4890   -0.0040 O   0  0  0  0  0  0  0  0  0  0  0  0
   -3.0180    1.5580   -0.3080 C   0  0  0  0  0  0  0  0  0  0  0  0
   -3.2990    0.1900   -0.4690 C   0  0  0  0  0  0  0  0  0  0  0  0
   -2.4820   -0.6210   -1.2680 C   0  0  0  0  0  0  0  0  0  0  0  0
   -1.1800   -0.8860   -0.7750 N   0  0  0  0  0  0  0  0  0  0  0  0
   -0.7720   -0.3480    0.4340 C   0  0  0  0  0  0  0  0  0  0  0  0
   -1.4040    0.3550    1.2040 O   0  0  0  0  0  0  0  0  0  0  0  0
    0.6450   -0.6690    0.8680 C   0  0  0  0  0  0  0  0  0  0  0  0
    1.4660    0.4550    0.5510 N   0  0  0  0  0  0  0  0  0  0  0  0
    2.8070    0.2400    1.0520 C   0  0  1  0  0  0  0  0  0  0  0  0
    3.4120   -1.0250    0.6980 C   0  0  0  0  0  0  0  0  0  0  0  0
    3.5070    1.5270    0.9790 C   0  0  0  0  0  0  0  0  0  0  0  0
    5.0340    1.3800    1.2700 C   0  0  0  0  0  0  0  0  0  0  0  0
    5.7070    0.6770   -0.2770 P   0  0  0  0  0  0  0  0  0  0  0  0
    6.8490   -0.4900   -0.3330 O   0  0  0  0  0  0  0  0  0  0  0  0
    7.1340   -1.3150    0.7110 C   0  0  0  0  0  0  0  0  0  0  0  0
    8.6730   -0.9730    0.8770 C   0  0  0  0  0  0  0  0  0  0  0  0
    5.7450    1.8350   -1.5520 O   0  0  0  0  0  0  0  0  0  0  0  0
    6.7570    2.7500   -1.4660 C   0  0  0  0  0  0  0  0  0  0  0  0
    6.7540    3.5400   -0.3270 O   0  0  0  0  0  0  0  0  0  0  0  0
   -2.4680   -1.3050   -2.4700 O   0  0  0  0  0  0  0  0  0  0  0  0
   -2.1940   -2.7220   -2.4570 C   0  0  2  0  0  0  0  0  0  0  0  0
   -1.7190   -3.1260   -3.8490 C   0  0  0  0  0  0  0  0  0  0  0  0
   -1.9910   -4.5810   -3.8460 C   0  0  0  0  0  0  0  0  0  0  0  0
   -3.0550   -4.7970   -2.9980 O   0  0  0  0  0  0  0  0  0  0  0  0
   -3.5080   -3.5400   -2.5120 C   0  0  0  0  0  0  0  0  0  0  0  0
   -4.3060   -0.3080    0.3840 C   0  0  0  0  0  0  0  0  0  0  0  0
  1  2  1  0
  2  3  1  0
  3  4  1  0
  4  5  2  0
  4 35  1  0
  5  6  1  0
  6  7  1  0
  6 10  2  0
  7  8  1  0
  7  9  2  0
 10 11  1  0
 11 12  1  0
 11 35  2  0
 12 13  2  3
 12 29  1  0
 13 14  1  0
 14 15  2  0
 14 16  1  0
 16 17  1  0
 17 18  1  0
 18 19  1  6
 18 20  1  0
 20 21  1  0
 21 22  1  0
 22 23  1  0
 22 26  1  0
 23 24  1  0
 24 25  1  0
 26 27  1  0
 27 28  1  0
 30 29  1  6
 30 31  1  0
 30 34  1  0
 31 32  1  0
 32 33  1  0
 33 34  1  0
M  END
