
     RDKit          3D

 35 36  0  0  0  0  0  0  0  0999 V2000
    0.5020   -4.1680    1.9110 C   0  0  0  0  0  0  0  0  0  0  0  0
   -0.6250   -3.8470    0.9770 C   0  0  0  0  0  0  0  0  0  0  0  0
   -0.9940   -2.5070    1.0900 O   0  0  0  0  0  0  0  0  0  0  0  0
   -0.2160   -1.4080    0.8650 C   0  0  0  0  0  0  0  0  0  0  0  0
    1.1050   -1.4550    0.4750 C   0  0  0  0  0  0  0  0  0  0  0  0
    1.8640   -0.3200    0.2570 C   0  0  0  0  0  0  0  0  0  0  0  0
    3.2080   -0.3270   -0.1350 N   0  0  0  0  0  0  0  0  0  0  0  0
    4.1470   -1.3800   -0.0920 C   0  0  0  0  0  0  0  0  0  0  0  0
    4.0710   -2.4360    0.7570 C   0  0  0  0  0  0  0  0  0  0  0  0
    5.0600   -3.4220    0.8150 C   0  0  0  0  0  0  0  0  0  0  0  0
    6.1470   -3.3160   -0.0130 C   0  0  0  0  0  0  0  0  0  0  0  0
    6.2220   -2.2420   -0.8720 C   0  0  0  0  0  0  0  0  0  0  0  0
    5.2520   -1.2780   -0.9280 C   0  0  0  0  0  0  0  0  0  0  0  0
    5.4190    0.1100   -2.0970 P   0  0  0  0  0  0  0  0  0  0  0  0
    6.9550    0.0110   -2.8880 O   0  0  0  0  0  0  0  0  0  0  0  0
    4.1430    0.0990   -3.2760 O   0  0  0  0  0  0  0  0  0  0  0  0
    1.2210    0.9070    0.4470 C   0  0  0  0  0  0  0  0  0  0  0  0
    1.9610    2.1510    0.1840 C   0  0  0  0  0  0  0  0  0  0  0  0
    2.0590    2.5420   -1.2650 C   0  0  0  0  0  0  0  0  0  0  0  0
    2.8640    3.8130   -1.3400 C   0  0  0  0  0  0  0  0  0  0  0  0
    3.3080    4.3420   -0.3470 O   0  0  0  0  0  0  0  0  0  0  0  0
   -0.1180    0.9900    0.8430 C   0  0  0  0  0  0  0  0  0  0  0  0
   -0.7490    2.2400    1.0810 N   0  0  0  0  0  0  0  0  0  0  0  0
   -1.4860    3.0420    0.1730 C   0  0  0  0  0  0  0  0  0  0  0  0
   -1.9880    4.2810    0.9370 C   0  0  0  0  0  0  0  0  0  0  0  0
   -2.7230    5.1100    0.0850 O   0  0  0  0  0  0  0  0  0  0  0  0
   -0.8340   -0.1660    1.0520 C   0  0  0  0  0  0  0  0  0  0  0  0
   -2.1800   -0.0810    1.4720 N   0  0  0  0  0  0  0  0  0  0  0  0
   -3.2430   -0.1110    0.5470 C   0  0  0  0  0  0  0  0  0  0  0  0
   -2.9700   -0.2150   -0.6860 O   0  0  0  0  0  0  0  0  0  0  0  0
   -4.5840   -0.0330    0.9090 O   0  0  0  0  0  0  0  0  0  0  0  0
   -5.6310   -0.0630   -0.0430 C   0  0  1  0  0  0  0  0  0  0  0  0
   -5.5270    1.0870   -1.0190 C   0  0  0  0  0  0  0  0  0  0  0  0
   -5.6180   -1.3480   -0.8430 C   0  0  0  0  0  0  0  0  0  0  0  0
   -6.9520    0.0540    0.6850 C   0  0  0  0  0  0  0  0  0  0  0  0
  1  2  1  0
  2  3  1  0
  3  4  1  0
  4  5  2  0
  4 27  1  0
  5  6  1  0
  6  7  1  0
  6 17  2  0
  7  8  1  0
  8  9  2  0
  8 13  1  0
  9 10  1  0
 10 11  2  0
 11 12  1  0
 12 13  2  0
 13 14  1  0
 14 15  1  0
 14 16  1  0
 17 18  1  0
 17 22  1  0
 18 19  1  0
 19 20  1  0
 20 21  2  0
 22 23  1  0
 22 27  2  0
 23 24  1  0
 24 25  1  0
 25 26  1  0
 27 28  1  0
 28 29  1  0
 29 30  2  0
 29 31  1  0
 31 32  1  0
 32 33  1  6
 32 34  1  0
 32 35  1  0
M  END
