
     RDKit          3D

 35 36  0  0  0  0  0  0  0  0999 V2000
   -7.9040   -1.9330   -0.3280 C   0  0  0  0  0  0  0  0  0  0  0  0
   -6.7420   -1.0200   -0.1380 C   0  0  0  0  0  0  0  0  0  0  0  0
   -5.6840   -1.2300   -1.0210 O   0  0  0  0  0  0  0  0  0  0  0  0
   -4.3970   -0.0600   -0.6750 P   0  0  0  0  0  0  0  0  0  0  0  0
   -4.8240    1.3560   -1.4590 O   0  0  0  0  0  0  0  0  0  0  0  0
   -4.6500    2.5580   -0.8590 C   0  0  0  0  0  0  0  0  0  0  0  0
   -5.1280    3.6560   -1.8220 C   0  0  0  0  0  0  0  0  0  0  0  0
   -4.1500   -0.0210    1.1340 C   0  0  1  0  0  0  0  0  0  0  0  0
   -3.8160   -1.3110    1.5360 O   0  0  0  0  0  0  0  0  0  0  0  0
   -3.2050    0.9560    1.6810 C   0  0  0  0  0  0  0  0  0  0  0  0
   -1.8090    0.8890    1.2990 N   0  0  0  0  0  0  0  0  0  0  0  0
   -0.9200   -0.1620    1.5250 C   0  0  0  0  0  0  0  0  0  0  0  0
   -1.4810   -1.1610    2.1590 O   0  0  0  0  0  0  0  0  0  0  0  0
    0.4660   -0.3590    1.2210 C   0  0  0  0  0  0  0  0  0  0  0  0
    1.0320   -1.6740    1.6160 N   0  0  0  0  0  0  0  0  0  0  0  0
    0.7750   -2.8400    0.8690 C   0  0  1  0  0  0  0  0  0  0  0  0
   -0.5140   -2.9250    0.1010 C   0  0  0  0  0  0  0  0  0  0  0  0
   -0.6670   -1.8910   -0.7890 O   0  0  0  0  0  0  0  0  0  0  0  0
    1.8740   -3.4490    0.0710 C   0  0  0  0  0  0  0  0  0  0  0  0
    3.0370   -3.9270    0.8220 C   0  0  0  0  0  0  0  0  0  0  0  0
    4.2200   -3.6390    0.5480 O   0  0  0  0  0  0  0  0  0  0  0  0
    2.8020   -4.7650    1.9200 O   0  0  0  0  0  0  0  0  0  0  0  0
    1.2830    0.4420    0.6210 C   0  0  0  0  0  0  0  0  0  0  0  0
    1.1170    1.7470    0.0520 C   0  0  0  0  0  0  0  0  0  0  0  0
    2.2880    2.2440   -0.3380 C   0  0  0  0  0  0  0  0  0  0  0  0
    3.3370    1.3580   -0.0840 N   0  0  0  0  0  0  0  0  0  0  0  0
    4.7100    1.5840   -0.3650 C   0  0  0  0  0  0  0  0  0  0  0  0
    5.4310    0.7280   -1.1690 C   0  0  0  0  0  0  0  0  0  0  0  0
    6.7660    0.8950   -1.4570 C   0  0  0  0  0  0  0  0  0  0  0  0
    7.4180    1.9790   -0.9120 C   0  0  0  0  0  0  0  0  0  0  0  0
    8.8570    2.1420   -1.2380 C   0  0  0  0  0  0  0  0  0  0  0  0
    6.7200    2.8530   -0.1040 C   0  0  0  0  0  0  0  0  0  0  0  0
    5.3800    2.6650    0.1720 C   0  0  0  0  0  0  0  0  0  0  0  0
    2.7580    0.2080    0.5200 C   0  0  0  0  0  0  0  0  0  0  0  0
    3.4010   -0.7840    0.8860 O   0  0  0  0  0  0  0  0  0  0  0  0
  1  2  1  0
  2  3  1  0
  3  4  1  0
  4  5  1  0
  4  8  1  0
  5  6  1  0
  6  7  1  0
  8  9  1  6
  8 10  1  0
 10 11  1  0
 11 12  1  0
 12 13  2  0
 12 14  1  0
 14 15  1  0
 14 23  2  3
 15 16  1  0
 16 17  1  6
 16 19  1  0
 17 18  1  0
 19 20  1  0
 20 21  2  0
 20 22  1  0
 23 24  1  0
 23 34  1  0
 24 25  2  0
 25 26  1  0
 26 27  1  0
 26 34  1  0
 27 28  2  0
 27 33  1  0
 28 29  1  0
 29 30  2  0
 30 31  1  0
 30 32  1  0
 32 33  2  0
 34 35  2  0
M  END
