
     RDKit          3D

 25 27  0  0  0  0  0  0  0  0999 V2000
    6.6730    1.7530    1.2230 C   0  0  0  0  0  0  0  0  0  0  0  0
    5.6160    1.3480    2.2490 C   0  0  0  0  0  0  0  0  0  0  0  0
    4.6300    0.6290    1.5300 O   0  0  0  0  0  0  0  0  0  0  0  0
    3.5040    0.0930    2.1250 C   0  0  0  0  0  0  0  0  0  0  0  0
    3.3570    0.2560    3.3610 O   0  0  0  0  0  0  0  0  0  0  0  0
    2.5290   -0.6470    1.2760 C   0  0  1  0  0  0  0  0  0  0  0  0
    1.4010   -1.1340    2.1520 C   0  0  0  0  0  0  0  0  0  0  0  0
    0.4270   -1.8610    1.2220 C   0  0  0  0  0  0  0  0  0  0  0  0
   -0.2970   -0.7450    0.5320 C   0  0  0  0  0  0  0  0  0  0  0  0
   -1.5810   -0.5830    0.4660 C   0  0  0  0  0  0  0  0  0  0  0  0
   -2.1500    0.5860   -0.2640 C   0  0  0  0  0  0  0  0  0  0  0  0
   -3.6180    0.7740    0.1090 C   0  0  1  0  0  0  0  0  0  0  0  0
   -4.1170    1.8950   -0.7890 C   0  0  0  0  0  0  0  0  0  0  0  0
   -5.5870    1.7790   -1.0640 C   0  0  0  0  0  0  0  0  0  0  0  0
   -6.0080    0.5260   -1.7440 C   0  0  0  0  0  0  0  0  0  0  0  0
   -5.0760   -0.5810   -1.3920 C   0  0  0  0  0  0  0  0  0  0  0  0
   -4.4300   -0.4540   -0.0290 C   0  0  1  0  0  0  0  0  0  0  0  0
   -3.7850   -1.7580    0.3160 C   0  0  0  0  0  0  0  0  0  0  0  0
   -2.5350   -1.4770    1.0720 C   0  0  0  0  0  0  0  0  0  0  0  0
   -2.2730   -1.9720    2.1950 O   0  0  0  0  0  0  0  0  0  0  0  0
    0.6270    0.1880   -0.0830 N   0  0  0  0  0  0  0  0  0  0  0  0
    2.0370    0.1410    0.1260 C   0  0  2  0  0  0  0  0  0  0  0  0
    2.6560   -0.4250   -1.1420 C   0  0  0  0  0  0  0  0  0  0  0  0
    4.4650   -0.3470   -1.1230 S   0  0  0  0  0  0  0  0  0  0  0  0
    5.0480   -1.0650   -2.6880 C   0  0  0  0  0  0  0  0  0  0  0  0
  1  2  1  0
  2  3  1  0
  3  4  1  0
  4  5  2  0
  6  4  1  1
  6  7  1  0
  6 22  1  0
  7  8  1  0
  8  9  1  0
  9 10  2  3
  9 21  1  0
 10 11  1  0
 10 19  1  0
 12 11  1  6
 12 13  1  0
 12 17  1  0
 13 14  1  0
 14 15  1  0
 15 16  1  0
 17 16  1  6
 17 18  1  0
 18 19  1  0
 19 20  2  0
 21 22  1  0
 22 23  1  6
 23 24  1  0
 24 25  1  0
M  END
