
     RDKit          3D

 26 27  0  0  0  0  0  0  0  0999 V2000
   -8.1950    2.4770   -1.6330 C   0  0  0  0  0  0  0  0  0  0  0  0
   -6.5210    1.8300   -1.4350 S   0  0  0  0  0  0  0  0  0  0  0  0
   -6.4230    0.9400    0.1010 C   0  0  0  0  0  0  0  0  0  0  0  0
   -7.4240    0.8490    0.8390 O   0  0  0  0  0  0  0  0  0  0  0  0
   -5.1430    0.3220    0.4740 C   0  0  0  0  0  0  0  0  0  0  0  0
   -4.0870    0.4180   -0.3040 C   0  0  0  0  0  0  0  0  0  0  0  0
   -2.8270   -0.1990    0.0780 C   0  0  2  0  0  0  0  0  0  0  0  0
   -2.9480   -0.9980    1.3630 C   0  0  0  0  0  0  0  0  0  0  0  0
   -1.5940   -1.7060    1.5030 C   0  0  2  0  0  0  0  0  0  0  0  0
   -1.6410   -2.7970    2.5160 C   0  0  0  0  0  0  0  0  0  0  0  0
   -0.5910   -0.6480    1.8320 C   0  0  0  0  0  0  0  0  0  0  0  0
   -0.4210    0.2810    0.6320 C   0  0  2  0  0  0  0  0  0  0  0  0
   -1.7560    0.8400    0.1950 C   0  0  0  0  0  0  0  0  0  0  0  0
    0.2580   -0.5090   -0.4330 C   0  0  0  0  0  0  0  0  0  0  0  0
    1.3980    0.1990   -1.1070 C   0  0  2  0  0  0  0  0  0  0  0  0
    2.6600   -0.2260   -0.6190 O   0  0  0  0  0  0  0  0  0  0  0  0
    3.6060   -0.8810   -1.3650 C   0  0  0  0  0  0  0  0  0  0  0  0
    3.3450   -1.1230   -2.5580 O   0  0  0  0  0  0  0  0  0  0  0  0
    4.8850   -1.2790   -0.7630 C   0  0  1  0  0  0  0  0  0  0  0  0
    5.7470   -1.9570   -1.7090 N   0  0  0  0  0  0  0  0  0  0  0  0
    5.6330   -0.0380   -0.3010 C   0  0  1  0  0  0  0  0  0  0  0  0
    4.8250    0.7270    0.7260 C   0  0  0  0  0  0  0  0  0  0  0  0
    6.9380   -0.4300    0.3750 C   0  0  0  0  0  0  0  0  0  0  0  0
    1.2570    1.6970   -1.1040 C   0  0  0  0  0  0  0  0  0  0  0  0
    0.6980    2.2600    0.1580 C   0  0  0  0  0  0  0  0  0  0  0  0
    0.3350    1.3400    1.1060 O   0  0  0  0  0  0  0  0  0  0  0  0
  1  2  1  0
  2  3  1  0
  3  4  2  0
  3  5  1  0
  5  6  2  3
  7  6  1  1
  7  8  1  0
  7 13  1  0
  8  9  1  0
  9 10  1  1
  9 11  1  0
 12 11  1  1
 12 13  1  0
 12 14  1  0
 12 26  1  0
 14 15  1  0
 15 16  1  1
 15 24  1  0
 16 17  1  0
 17 18  2  0
 17 19  1  0
 19 20  1  6
 19 21  1  0
 21 22  1  1
 21 23  1  0
 24 25  1  0
 25 26  1  0
M  END
