
     RDKit          3D

 25 27  0  0  0  0  0  0  0  0999 V2000
   -5.4350   -3.3090    0.4140 C   0  0  0  0  0  0  0  0  0  0  0  0
   -4.8470   -2.0610    0.3220 O   0  0  0  0  0  0  0  0  0  0  0  0
   -3.5130   -1.7280    0.3080 C   0  0  0  0  0  0  0  0  0  0  0  0
   -2.5680   -2.7150    0.4040 C   0  0  0  0  0  0  0  0  0  0  0  0
   -1.2220   -2.3750    0.3830 C   0  0  0  0  0  0  0  0  0  0  0  0
   -0.8380   -1.0340    0.2660 C   0  0  0  0  0  0  0  0  0  0  0  0
   -1.7790   -0.0460    0.1730 C   0  0  0  0  0  0  0  0  0  0  0  0
   -3.1230   -0.4020    0.1950 C   0  0  0  0  0  0  0  0  0  0  0  0
   -1.1190    1.1670    0.0650 C   0  0  0  0  0  0  0  0  0  0  0  0
   -1.8870    2.4310   -0.0410 C   0  0  0  0  0  0  0  0  0  0  0  0
   -1.1260    3.6250   -0.3650 C   0  0  0  0  0  0  0  0  0  0  0  0
   -0.5230    3.7610   -1.4490 O   0  0  0  0  0  0  0  0  0  0  0  0
   -1.0430    4.6810    0.5480 O   0  0  0  0  0  0  0  0  0  0  0  0
    0.2250    0.9050    0.0920 C   0  0  0  0  0  0  0  0  0  0  0  0
    1.2870    1.9520    0.0480 C   0  0  0  0  0  0  0  0  0  0  0  0
    0.3870   -0.4280    0.2130 N   0  0  0  0  0  0  0  0  0  0  0  0
    1.5810   -1.1630    0.2100 C   0  0  0  0  0  0  0  0  0  0  0  0
    1.5590   -2.4270    0.4870 O   0  0  0  0  0  0  0  0  0  0  0  0
    2.9010   -0.6260   -0.0950 C   0  0  0  0  0  0  0  0  0  0  0  0
    3.1710   -0.0570   -1.3420 C   0  0  0  0  0  0  0  0  0  0  0  0
    4.4240    0.4400   -1.6700 C   0  0  0  0  0  0  0  0  0  0  0  0
    5.4750    0.3890   -0.7540 C   0  0  0  0  0  0  0  0  0  0  0  0
    7.0530    1.0240   -1.1980 Cl  0  0  0  0  0  0  0  0  0  0  0  0
    5.2000   -0.1730    0.4710 C   0  0  0  0  0  0  0  0  0  0  0  0
    3.9420   -0.6700    0.7980 C   0  0  0  0  0  0  0  0  0  0  0  0
  1  2  1  0
  2  3  1  0
  3  4  2  0
  3  8  1  0
  4  5  1  0
  5  6  2  0
  6  7  1  0
  6 16  1  0
  7  8  2  0
  7  9  1  0
  9 10  1  0
  9 14  2  0
 10 11  1  0
 11 12  2  0
 11 13  1  0
 14 15  1  0
 14 16  1  0
 16 17  1  0
 17 18  2  0
 17 19  1  0
 19 20  2  0
 19 25  1  0
 20 21  1  0
 21 22  2  0
 22 23  1  0
 22 24  1  0
 24 25  2  0
M  END
