
     RDKit          3D

 26 29  0  0  0  0  0  0  0  0999 V2000
    6.2250    1.2340    1.5090 C   0  0  0  0  0  0  0  0  0  0  0  0
    6.4230    0.7840   -0.2220 S   0  0  0  0  0  0  0  0  0  0  0  0
    4.9360    0.0400   -0.8920 C   0  0  1  0  0  0  0  0  0  0  0  0
    4.6210   -1.3140   -0.2490 C   0  0  1  0  0  0  0  0  0  0  0  0
    5.0480   -1.3500    1.0720 O   0  0  0  0  0  0  0  0  0  0  0  0
    3.1420   -1.3570   -0.3610 C   0  0  0  0  0  0  0  0  0  0  0  0
    2.3120   -2.4870   -0.2580 C   0  0  0  0  0  0  0  0  0  0  0  0
    0.9550   -2.3100   -0.3940 C   0  0  0  0  0  0  0  0  0  0  0  0
    0.4090   -1.0520   -0.6260 C   0  0  0  0  0  0  0  0  0  0  0  0
    1.2550    0.0270   -0.7190 C   0  0  0  0  0  0  0  0  0  0  0  0
    2.6250   -0.1090   -0.5890 C   0  0  0  0  0  0  0  0  0  0  0  0
    3.6890    0.8630   -0.6470 C   0  0  2  0  0  0  0  0  0  0  0  0
    3.5630    1.8490   -1.6050 O   0  0  0  0  0  0  0  0  0  0  0  0
    0.6680    1.3320   -0.9640 C   0  0  0  0  0  0  0  0  0  0  0  0
   -0.3590    1.1220   -2.0880 C   0  0  0  0  0  0  0  0  0  0  0  0
   -1.4620    0.1880   -1.6930 C   0  0  0  0  0  0  0  0  0  0  0  0
   -1.0860   -0.9090   -0.7600 C   0  0  2  0  0  0  0  0  0  0  0  0
   -1.6900   -0.6010    0.5620 C   0  0  0  0  0  0  0  0  0  0  0  0
   -0.9260   -0.3860    1.5440 O   0  0  0  0  0  0  0  0  0  0  0  0
   -3.0770   -0.5550    0.7010 N   0  0  0  0  0  0  0  0  0  0  0  0
   -4.0680   -0.7980   -0.3150 C   0  0  0  0  0  0  0  0  0  0  0  0
   -5.0320    0.3750   -0.4600 C   0  0  0  0  0  0  0  0  0  0  0  0
   -5.5200    0.8440    0.8930 C   0  0  0  0  0  0  0  0  0  0  0  0
   -5.1390   -0.1490    1.9870 C   0  0  2  0  0  0  0  0  0  0  0  0
   -5.5490    0.4210    3.1900 O   0  0  0  0  0  0  0  0  0  0  0  0
   -3.6270   -0.2190    2.0280 C   0  0  0  0  0  0  0  0  0  0  0  0
  1  2  1  0
  3  2  1  1
  3  4  1  0
  3 12  1  0
  4  5  1  1
  4  6  1  0
  6  7  2  0
  6 11  1  0
  7  8  1  0
  8  9  2  0
  9 10  1  0
  9 17  1  0
 10 11  2  0
 10 14  1  0
 11 12  1  0
 12 13  1  6
 14 15  1  0
 15 16  1  0
 16 17  1  0
 17 18  1  1
 18 19  2  0
 18 20  1  0
 20 21  1  0
 20 26  1  0
 21 22  1  0
 22 23  1  0
 23 24  1  0
 24 25  1  1
 24 26  1  0
M  END
