
     RDKit          3D

 13 12  0  0  0  0  0  0  0  0999 V2000
   -3.7880   -2.1790    0.1550 C   0  0  0  0  0  0  0  0  0  0  0  0
   -3.4630   -1.1760    1.0310 O   0  0  0  0  0  0  0  0  0  0  0  0
   -2.8650   -0.1010    0.4460 C   0  0  0  0  0  0  0  0  0  0  0  0
   -1.5980   -0.5050   -0.2600 C   0  0  0  0  0  0  0  0  0  0  0  0
   -1.0200    0.7110   -0.8510 C   0  0  0  0  0  0  0  0  0  0  0  0
    0.2080    1.1080   -0.5900 C   0  0  0  0  0  0  0  0  0  0  0  0
    0.7070    2.3420   -1.2280 C   0  0  0  0  0  0  0  0  0  0  0  0
    1.8300    2.0990   -2.0120 O   0  0  0  0  0  0  0  0  0  0  0  0
    1.1620    0.0690    0.5030 S   0  0  0  0  0  0  0  0  0  0  0  0
    2.8880    0.5080    0.5480 C   0  0  0  0  0  0  0  0  0  0  0  0
    3.6730   -0.3400    1.4960 C   0  0  0  0  0  0  0  0  0  0  0  0
    3.4760   -1.7470    1.3960 N   0  0  0  0  0  0  0  0  0  0  0  0
    4.4690    0.0860    2.3490 O   0  0  0  0  0  0  0  0  0  0  0  0
  1  2  1  0
  2  3  1  0
  3  4  1  0
  4  5  1  0
  5  6  2  3
  6  7  1  0
  6  9  1  0
  7  8  1  0
  9 10  1  0
 10 11  1  0
 11 12  1  0
 11 13  2  0
M  END
