
     RDKit          3D

 13 12  0  0  0  0  0  0  0  0999 V2000
   -1.7210    2.4350    0.1130 C   0  0  0  0  0  0  0  0  0  0  0  0
   -2.0880    1.1670    0.1660 C   0  0  0  0  0  0  0  0  0  0  0  0
   -3.4270    0.8530    0.7630 C   0  0  0  0  0  0  0  0  0  0  0  0
   -1.2770    0.0670   -0.3250 C   0  0  0  0  0  0  0  0  0  0  0  0
   -1.7200   -1.1580   -0.2230 C   0  0  0  0  0  0  0  0  0  0  0  0
   -1.0390   -2.3890   -0.6640 C   0  0  0  0  0  0  0  0  0  0  0  0
    0.2580    0.3670   -1.0740 S   0  0  2  0  0  0  0  0  0  0  0  0
    0.2370    1.5980   -1.9730 O   0  0  0  0  0  0  0  0  0  0  0  0
    0.6130   -0.7660   -2.0400 O   0  0  0  0  0  0  0  0  0  0  0  0
    1.5610    0.5400   -0.0010 N   0  0  0  0  0  0  0  0  0  0  0  0
    2.5070   -0.5160   -0.1180 C   0  0  0  0  0  0  0  0  0  0  0  0
    3.6790   -0.3710    0.8350 C   0  0  0  0  0  0  0  0  0  0  0  0
    4.3910    0.7930    0.6380 O   0  0  0  0  0  0  0  0  0  0  0  0
  1  2  2  0
  2  3  1  0
  2  4  1  0
  4  5  2  3
  4  7  1  0
  5  6  1  0
  7  8  2  0
  7  9  2  0
  7 10  1  1
 10 11  1  0
 11 12  1  0
 12 13  1  0
M  END
