
     RDKit          3D

 13 12  0  0  0  0  0  0  0  0999 V2000
   -4.5510    0.1910    1.2950 C   0  0  0  0  0  0  0  0  0  0  0  0
   -4.2250   -0.8030    0.1820 C   0  0  0  0  0  0  0  0  0  0  0  0
   -2.8150   -1.1010    0.1380 N   0  0  0  0  0  0  0  0  0  0  0  0
   -1.8130   -0.1230   -0.0800 C   0  0  0  0  0  0  0  0  0  0  0  0
   -2.1640    1.0650   -0.2450 O   0  0  0  0  0  0  0  0  0  0  0  0
   -0.3660   -0.4430   -0.1230 C   0  0  0  0  0  0  0  0  0  0  0  0
    0.3970    0.7310   -0.3560 O   0  0  0  0  0  0  0  0  0  0  0  0
    1.8220    0.5680   -0.4220 C   0  0  0  0  0  0  0  0  0  0  0  0
    2.4810    1.1190    0.5160 C   0  0  0  0  0  0  0  0  0  0  0  0
    3.8590    1.2730    0.9340 C   0  0  0  0  0  0  0  0  0  0  0  0
    5.1550    0.5370   -0.0330 S   0  0  0  0  0  0  0  0  0  0  0  0
    2.2590   -0.2080   -1.5640 C   0  0  0  0  0  0  0  0  0  0  0  0
    3.5690   -0.4550   -1.7740 O   0  0  0  0  0  0  0  0  0  0  0  0
  1  2  1  0
  2  3  1  0
  3  4  1  0
  4  5  2  0
  4  6  1  0
  6  7  1  0
  7  8  1  0
  8  9  2  3
  8 12  1  0
  9 10  1  0
 10 11  1  0
 12 13  1  0
M  END
