
     RDKit          3D

 17 16  0  0  0  0  0  0  0  0999 V2000
   -6.6580    0.2590   -0.4540 N   0  0  0  0  0  0  0  0  0  0  0  0
   -5.3120   -0.2030   -0.3830 C   0  0  0  0  0  0  0  0  0  0  0  0
   -4.4980   -0.0540   -1.3200 O   0  0  0  0  0  0  0  0  0  0  0  0
   -4.8890   -0.8800    0.8610 C   0  0  0  0  0  0  0  0  0  0  0  0
   -3.1660   -1.3680    0.7290 S   0  0  0  0  0  0  0  0  0  0  0  0
   -2.1430    0.1260    0.6550 C   0  0  0  0  0  0  0  0  0  0  0  0
   -0.7150   -0.3140    0.5460 C   0  0  0  0  0  0  0  0  0  0  0  0
   -0.3850   -1.5320    0.5160 O   0  0  0  0  0  0  0  0  0  0  0  0
    0.3250    0.6060    0.4720 O   0  0  0  0  0  0  0  0  0  0  0  0
    1.6970    0.1820    0.3680 C   0  0  0  0  0  0  0  0  0  0  0  0
    2.5280    1.3940    0.3100 C   0  0  0  0  0  0  0  0  0  0  0  0
    1.9410    2.4990    0.2910 O   0  0  0  0  0  0  0  0  0  0  0  0
    4.2870    1.4810    0.2660 S   0  0  0  0  0  0  0  0  0  0  0  0
    5.1480   -0.0790    0.3340 C   0  0  0  0  0  0  0  0  0  0  0  0
    4.9230   -0.8600   -0.8970 C   0  0  0  0  0  0  0  0  0  0  0  0
    5.6760   -0.5820   -2.0600 N   0  0  0  0  0  0  0  0  0  0  0  0
    4.0700   -1.7610   -0.9070 O   0  0  0  0  0  0  0  0  0  0  0  0
  1  2  1  0
  2  3  2  0
  2  4  1  0
  4  5  1  0
  5  6  1  0
  6  7  1  0
  7  8  2  0
  7  9  1  0
  9 10  1  0
 10 11  1  0
 11 12  2  0
 11 13  1  0
 13 14  1  0
 14 15  1  0
 15 16  1  0
 15 17  2  0
M  END
