
     RDKit          3D

 17 16  0  0  0  0  0  0  0  0999 V2000
   -0.5570   -3.5230    0.9750 C   0  0  0  0  0  0  0  0  0  0  0  0
   -1.6400   -2.0960    0.8300 S   0  0  0  0  0  0  0  0  0  0  0  0
   -0.8860   -0.6270    0.2690 C   0  0  0  0  0  0  0  0  0  0  0  0
   -1.7430    0.5730    0.1410 C   0  0  0  0  0  0  0  0  0  0  0  0
   -1.2640    1.6660   -0.2630 O   0  0  0  0  0  0  0  0  0  0  0  0
   -3.0930    0.5640    0.4520 O   0  0  0  0  0  0  0  0  0  0  0  0
   -3.8510    1.7490    0.3050 C   0  0  0  0  0  0  0  0  0  0  0  0
   -3.8570    2.2510   -1.0730 C   0  0  0  0  0  0  0  0  0  0  0  0
   -4.4880    3.3030   -1.3420 O   0  0  0  0  0  0  0  0  0  0  0  0
   -3.1930    1.6240   -2.1260 O   0  0  0  0  0  0  0  0  0  0  0  0
    0.3700   -0.5160   -0.0470 C   0  0  0  0  0  0  0  0  0  0  0  0
    1.2430   -1.6280    0.0490 N   0  0  0  0  0  0  0  0  0  0  0  0
    1.0440    1.0810   -0.6180 S   0  0  0  0  0  0  0  0  0  0  0  0
    2.8110    0.8940   -0.9520 C   0  0  0  0  0  0  0  0  0  0  0  0
    3.5700    0.6170    0.2960 C   0  0  0  0  0  0  0  0  0  0  0  0
    4.9920    0.4590    0.1570 N   0  0  0  0  0  0  0  0  0  0  0  0
    2.9590    0.5370    1.3680 O   0  0  0  0  0  0  0  0  0  0  0  0
  1  2  1  0
  2  3  1  0
  3  4  1  0
  3 11  2  3
  4  5  2  0
  4  6  1  0
  6  7  1  0
  7  8  1  0
  8  9  2  0
  8 10  1  0
 11 12  1  0
 11 13  1  0
 13 14  1  0
 14 15  1  0
 15 16  1  0
 15 17  2  0
M  END
