
     RDKit          3D

 18 17  0  0  0  0  0  0  0  0999 V2000
   -3.9210    2.1630    0.4210 C   0  0  0  0  0  0  0  0  0  0  0  0
   -3.7730    1.3770   -1.1700 S   0  0  1  0  0  0  0  0  0  0  0  0
   -5.0900    1.5570   -1.8690 O   0  0  0  0  0  0  0  0  0  0  0  0
   -2.7040    2.0200   -1.9820 O   0  0  0  0  0  0  0  0  0  0  0  0
   -3.4500   -0.2970   -0.8860 N   0  0  0  0  0  0  0  0  0  0  0  0
   -2.1710   -0.4390   -0.1500 C   0  0  0  0  0  0  0  0  0  0  0  0
   -1.9770   -1.8940    0.0480 C   0  0  1  0  0  0  0  0  0  0  0  0
   -1.8810   -2.5080   -1.2100 O   0  0  0  0  0  0  0  0  0  0  0  0
   -0.8910   -2.3560    0.9350 C   0  0  0  0  0  0  0  0  0  0  0  0
    0.7720   -1.9130    0.5290 S   0  0  0  0  0  0  0  0  0  0  0  0
    1.2500   -0.2190    0.7110 C   0  0  0  0  0  0  0  0  0  0  0  0
    2.7140   -0.1170    0.3630 C   0  0  0  0  0  0  0  0  0  0  0  0
    3.6210   -0.2490    1.2200 O   0  0  0  0  0  0  0  0  0  0  0  0
    3.1010    0.1390   -0.9810 N   0  0  0  0  0  0  0  0  0  0  0  0
    4.5050    0.2360   -1.3080 C   0  0  0  0  0  0  0  0  0  0  0  0
    5.1750    1.3110   -0.5770 C   0  0  0  0  0  0  0  0  0  0  0  0
    4.5350    2.0230    0.2240 O   0  0  0  0  0  0  0  0  0  0  0  0
    6.5190    1.5480   -0.7660 O   0  0  0  0  0  0  0  0  0  0  0  0
  2  1  1  1
  2  3  2  0
  2  4  2  0
  2  5  1  0
  5  6  1  0
  6  7  1  0
  7  8  1  6
  7  9  1  0
  9 10  1  0
 10 11  1  0
 11 12  1  0
 12 13  2  0
 12 14  1  0
 14 15  1  0
 15 16  1  0
 16 17  2  0
 16 18  1  0
M  END
