
     RDKit          3D

 13 13  0  0  0  0  0  0  0  0999 V2000
    1.0420   -1.3340   -0.2110 O   0  0  0  0  0  0  0  0  0  0  0  0
    1.0400   -0.0880   -0.3810 C   0  0  0  0  0  0  0  0  0  0  0  0
   -0.0480    0.4330   -1.2680 C   0  0  0  0  0  0  0  0  0  0  0  0
   -1.3340    0.4330   -0.5300 C   0  0  0  0  0  0  0  0  0  0  0  0
   -1.4090    0.0140    0.7300 C   0  0  0  0  0  0  0  0  0  0  0  0
   -2.7680    0.0710    1.3430 C   0  0  0  0  0  0  0  0  0  0  0  0
   -3.7310   -0.5190    0.3380 C   0  0  0  0  0  0  0  0  0  0  0  0
   -3.6530    0.0270   -0.9120 O   0  0  0  0  0  0  0  0  0  0  0  0
   -2.6130    0.8950   -1.1360 C   0  0  0  0  0  0  0  0  0  0  0  0
    1.9680    0.7340    0.2050 O   0  0  0  0  0  0  0  0  0  0  0  0
    2.9880    0.2480    1.0330 C   0  0  0  0  0  0  0  0  0  0  0  0
    3.9140   -0.7150    0.3260 C   0  0  0  0  0  0  0  0  0  0  0  0
    4.9130   -1.1680    1.1970 O   0  0  0  0  0  0  0  0  0  0  0  0
  1  2  2  0
  2  3  1  0
  2 10  1  0
  3  4  1  0
  4  5  2  0
  4  9  1  0
  5  6  1  0
  6  7  1  0
  7  8  1  0
  8  9  1  0
 10 11  1  0
 11 12  1  0
 12 13  1  0
M  END
