
     RDKit          3D

 20 19  0  0  0  0  0  0  0  0999 V2000
   -6.4050    1.6200    0.3060 N   0  0  0  0  0  0  0  0  0  0  0  0
   -6.9280    0.0280    0.7410 S   0  0  1  0  0  0  0  0  0  0  0  0
   -7.7110   -0.0010    1.9460 O   0  0  0  0  0  0  0  0  0  0  0  0
   -7.8700   -0.3830   -0.4570 O   0  0  0  0  0  0  0  0  0  0  0  0
   -5.6410   -1.0990    0.6810 O   0  0  0  0  0  0  0  0  0  0  0  0
   -4.4600   -0.1820    0.7140 C   0  0  0  0  0  0  0  0  0  0  0  0
   -3.6950   -0.5090   -0.4730 C   0  0  0  0  0  0  0  0  0  0  0  0
   -2.9800   -1.6420   -0.9710 C   0  0  0  0  0  0  0  0  0  0  0  0
   -1.5000   -1.3290   -1.0420 C   0  0  0  0  0  0  0  0  0  0  0  0
   -0.7100   -1.4640    0.2130 C   0  0  0  0  0  0  0  0  0  0  0  0
    0.7310   -1.0200   -0.2430 C   0  0  0  0  0  0  0  0  0  0  0  0
    1.6650   -1.2620    0.8550 C   0  0  0  0  0  0  0  0  0  0  0  0
    3.0850   -0.8180    0.5590 C   0  0  0  0  0  0  0  0  0  0  0  0
    3.0800    0.6510    0.2210 C   0  0  0  0  0  0  0  0  0  0  0  0
    4.4350    1.2500    0.0390 C   0  0  0  0  0  0  0  0  0  0  0  0
    5.3150    0.6920   -0.8620 O   0  0  0  0  0  0  0  0  0  0  0  0
    6.7740    1.5590   -0.6700 S   0  0  1  0  0  0  0  0  0  0  0  0
    6.8630    2.2930    0.8850 N   0  0  0  0  0  0  0  0  0  0  0  0
    7.9660    0.6970   -0.8720 O   0  0  0  0  0  0  0  0  0  0  0  0
    6.7440    2.6390   -1.7520 O   0  0  0  0  0  0  0  0  0  0  0  0
  2  1  1  6
  2  3  2  0
  2  4  2  0
  2  5  1  0
  5  6  1  0
  6  7  1  0
  7  8  1  0
  8  9  1  0
  9 10  1  0
 10 11  1  0
 11 12  1  0
 12 13  1  0
 13 14  1  0
 14 15  1  0
 15 16  1  0
 16 17  1  0
 17 18  1  1
 17 19  2  0
 17 20  2  0
M  END
