
     RDKit          3D

  9  9  0  0  0  0  0  0  0  0999 V2000
   -2.0300   -0.2770   -0.3600 N   0  0  0  0  0  0  0  0  0  0  0  0
   -0.6510    0.0750   -0.4300 C   0  0  1  0  0  0  0  0  0  0  0  0
   -0.3300    0.6920   -1.6370 O   0  0  0  0  0  0  0  0  0  0  0  0
   -0.2510    1.0080    0.7120 C   0  0  0  0  0  0  0  0  0  0  0  0
    1.2150    1.2330    0.7690 C   0  0  0  0  0  0  0  0  0  0  0  0
    2.0030    0.1510    0.5450 O   0  0  0  0  0  0  0  0  0  0  0  0
    1.6450   -0.6790   -0.4690 C   0  0  0  0  0  0  0  0  0  0  0  0
    0.2230   -1.1710   -0.2240 C   0  0  1  0  0  0  0  0  0  0  0  0
    0.1690   -1.5240    1.1360 O   0  0  0  0  0  0  0  0  0  0  0  0
  2  1  1  6
  2  3  1  0
  2  4  1  0
  2  8  1  0
  4  5  1  0
  5  6  1  0
  6  7  1  0
  7  8  1  0
  8  9  1  1
M  CHG  1   1   1
M  END
