
     RDKit          3D

  9  8  0  0  0  0  0  0  0  0999 V2000
    1.2240   -1.3040    0.7950 C   0  0  0  0  0  0  0  0  0  0  0  0
    0.7520    0.0470    0.3180 C   0  0  1  0  0  0  0  0  0  0  0  0
    1.4110    1.0090    1.0810 O   0  0  0  0  0  0  0  0  0  0  0  0
    1.1210    0.2350   -1.1390 C   0  0  0  0  0  0  0  0  0  0  0  0
    2.5050    0.0860   -1.2520 O   0  0  0  0  0  0  0  0  0  0  0  0
   -0.7250    0.2060    0.5510 C   0  0  1  0  0  0  0  0  0  0  0  0
   -1.1880    1.5220    0.1640 N   0  0  0  0  0  0  0  0  0  0  0  0
   -1.5170   -0.8350   -0.2320 C   0  0  0  0  0  0  0  0  0  0  0  0
   -2.8750   -0.7160    0.0480 O   0  0  0  0  0  0  0  0  0  0  0  0
  2  1  1  1
  2  3  1  0
  2  4  1  0
  2  6  1  0
  4  5  1  0
  6  7  1  6
  6  8  1  0
  8  9  1  0
M  CHG  1   7   1
M  END
