
     RDKit          3D

  9  9  0  0  0  0  0  0  0  0999 V2000
    1.5940   -0.2880   -0.9120 N   0  0  0  0  0  0  0  0  0  0  0  0
    0.8710    0.0950    0.2900 C   0  0  2  0  0  0  0  0  0  0  0  0
    0.2210   -1.0840    0.9010 C   0  0  0  0  0  0  0  0  0  0  0  0
    0.7270   -1.6740    1.8400 O   0  0  0  0  0  0  0  0  0  0  0  0
   -1.0800   -1.5310    0.3280 C   0  0  0  0  0  0  0  0  0  0  0  0
   -1.9290   -0.4340    0.3400 O   0  0  0  0  0  0  0  0  0  0  0  0
   -1.4690    0.6100   -0.4410 C   0  0  0  0  0  0  0  0  0  0  0  0
   -0.1560    1.1620    0.0340 C   0  0  1  0  0  0  0  0  0  0  0  0
   -0.3290    1.8730    1.2280 O   0  0  0  0  0  0  0  0  0  0  0  0
  2  1  1  6
  2  3  1  0
  2  8  1  0
  3  4  2  0
  3  5  1  0
  5  6  1  0
  6  7  1  0
  7  8  1  0
  8  9  1  1
M  CHG  1   1   1
M  END
