
     RDKit          3D

 13 13  0  0  0  0  0  0  0  0999 V2000
    4.6720   -0.0420    0.1540 C   0  0  0  0  0  0  0  0  0  0  0  0
    3.5700    0.6860   -0.5570 C   0  0  0  0  0  0  0  0  0  0  0  0
    2.2890    0.4760   -0.0400 O   0  0  0  0  0  0  0  0  0  0  0  0
    1.6090   -0.7090    0.0520 C   0  0  0  0  0  0  0  0  0  0  0  0
    2.1710   -1.7420   -0.3660 O   0  0  0  0  0  0  0  0  0  0  0  0
    0.2330   -0.6990    0.6430 C   0  0  0  0  0  0  0  0  0  0  0  0
   -0.7470   -0.1230   -0.3810 C   0  0  0  0  0  0  0  0  0  0  0  0
   -2.1290   -0.0860    0.1040 C   0  0  0  0  0  0  0  0  0  0  0  0
   -2.8740    0.9910    0.2800 C   0  0  0  0  0  0  0  0  0  0  0  0
   -2.4500    2.3130    0.0230 O   0  0  0  0  0  0  0  0  0  0  0  0
   -4.1790    0.5390    0.7800 C   0  0  0  0  0  0  0  0  0  0  0  0
   -4.2990   -0.7310    0.2560 O   0  0  0  0  0  0  0  0  0  0  0  0
   -3.0050   -1.2540    0.4860 C   0  0  0  0  0  0  0  0  0  0  0  0
  1  2  1  0
  2  3  1  0
  3  4  1  0
  4  5  2  0
  4  6  1  0
  6  7  1  0
  7  8  1  0
  8  9  2  0
  8 13  1  0
  9 10  1  0
  9 11  1  0
 11 12  1  0
 12 13  1  0
M  END
