
     RDKit          3D

  9  9  0  0  0  0  0  0  0  0999 V2000
   -1.0750   -0.1770    1.3200 N   0  0  0  0  0  0  0  0  0  0  0  0
   -0.3950   -0.1710    0.0620 C   0  0  1  0  0  0  0  0  0  0  0  0
   -1.3820   -0.5240   -1.0330 C   0  0  0  0  0  0  0  0  0  0  0  0
   -2.3820    0.4360   -1.0070 O   0  0  0  0  0  0  0  0  0  0  0  0
    0.1800    1.1840   -0.2990 C   0  0  0  0  0  0  0  0  0  0  0  0
    1.4310    1.3980    0.2590 O   0  0  0  0  0  0  0  0  0  0  0  0
    2.3690    0.4610   -0.0840 C   0  0  0  0  0  0  0  0  0  0  0  0
    1.8270   -0.7060   -0.6070 O   0  0  0  0  0  0  0  0  0  0  0  0
    0.7430   -1.1690    0.1100 C   0  0  0  0  0  0  0  0  0  0  0  0
  2  1  1  1
  2  3  1  0
  2  5  1  0
  2  9  1  0
  3  4  1  0
  5  6  1  0
  6  7  1  0
  7  8  1  0
  8  9  1  0
M  CHG  1   1   1
M  END
