
     RDKit          3D

 14 13  0  0  0  0  0  0  0  0999 V2000
    5.4020    0.4980    0.5850 C   0  0  0  0  0  0  0  0  0  0  0  0
    4.6290    0.1450   -0.4240 C   0  0  0  0  0  0  0  0  0  0  0  0
    3.8540   -1.1300   -0.4080 C   0  0  0  0  0  0  0  0  0  0  0  0
    2.4560   -0.8660   -0.5160 O   0  0  0  0  0  0  0  0  0  0  0  0
    1.8460   -0.1050    0.4350 C   0  0  0  0  0  0  0  0  0  0  0  0
    2.5040    0.3560    1.3910 O   0  0  0  0  0  0  0  0  0  0  0  0
    0.3690    0.2340    0.4130 C   0  0  0  0  0  0  0  0  0  0  0  0
   -0.2910   -0.3780   -0.7770 C   0  0  0  0  0  0  0  0  0  0  0  0
   -1.7320   -0.0560   -0.8790 C   0  0  0  0  0  0  0  0  0  0  0  0
   -2.5650   -0.5090    0.2590 C   0  0  1  0  0  0  0  0  0  0  0  0
   -2.2560    0.0170    1.5420 N   0  0  0  0  0  0  0  0  0  0  0  0
   -3.9930   -0.2630   -0.1080 C   0  0  0  0  0  0  0  0  0  0  0  0
   -4.4610    1.1000   -0.4080 C   0  0  0  0  0  0  0  0  0  0  0  0
   -4.9290   -1.3420   -0.1730 S   0  0  0  0  0  0  0  0  0  0  0  0
  1  2  2  0
  2  3  1  0
  3  4  1  0
  4  5  1  0
  5  6  2  0
  5  7  1  0
  7  8  1  0
  8  9  1  0
  9 10  1  0
 10 11  1  1
 10 12  1  0
 12 13  1  0
 12 14  2  0
M  END
