
     RDKit          3D

 15 15  0  0  0  0  0  0  0  0999 V2000
   -3.0880    1.7790   -0.3000 C   0  0  0  0  0  0  0  0  0  0  0  0
   -2.9010    0.3060   -0.3230 C   0  0  0  0  0  0  0  0  0  0  0  0
   -1.6970   -0.2420    0.3430 C   0  0  2  0  0  0  0  0  0  0  0  0
   -1.8360   -1.7910    0.1700 C   0  0  0  0  0  0  0  0  0  0  0  0
   -1.7920   -0.0080    1.8290 C   0  0  0  0  0  0  0  0  0  0  0  0
   -0.3630    0.0840   -0.2300 C   0  0  1  0  0  0  0  0  0  0  0  0
    0.7900   -0.5320    0.5510 C   0  0  0  0  0  0  0  0  0  0  0  0
    2.1290   -0.2110   -0.0110 C   0  0  0  0  0  0  0  0  0  0  0  0
    3.1610   -0.8650    0.7920 N   0  0  0  0  0  0  0  0  0  0  0  0
    4.6750   -0.4400    0.0720 S   0  0  1  0  0  0  0  0  0  0  0  0
    5.6620   -1.5680    0.2360 O   0  0  0  0  0  0  0  0  0  0  0  0
    4.5030   -0.2160   -1.4010 O   0  0  0  0  0  0  0  0  0  0  0  0
    5.3050    0.9660    0.7250 O   0  0  0  0  0  0  0  0  0  0  0  0
   -0.3110   -0.0290   -1.7330 C   0  0  0  0  0  0  0  0  0  0  0  0
   -0.0650    1.2810   -1.0320 C   0  0  0  0  0  0  0  0  0  0  0  0
  1  2  1  0
  2  3  1  0
  3  4  1  1
  3  5  1  0
  3  6  1  0
  6  7  1  1
  6 14  1  0
  6 15  1  0
  7  8  1  0
  8  9  1  0
  9 10  1  0
 10 11  2  0
 10 12  2  0
 10 13  1  1
 14 15  1  0
M  END
