
     RDKit          3D

 15 14  0  0  0  0  0  0  0  0999 V2000
   -5.9440    0.2280   -1.5000 C   0  0  0  0  0  0  0  0  0  0  0  0
   -5.3100   -0.3040   -0.2560 C   0  0  0  0  0  0  0  0  0  0  0  0
   -3.8920    0.2330   -0.0510 C   0  0  0  0  0  0  0  0  0  0  0  0
   -3.3750   -0.3680    1.2130 C   0  0  0  0  0  0  0  0  0  0  0  0
   -1.9860    0.0490    1.5750 C   0  0  0  0  0  0  0  0  0  0  0  0
   -0.9510   -0.3020    0.5550 C   0  0  0  0  0  0  0  0  0  0  0  0
    0.3920    0.1870    1.0700 C   0  0  0  0  0  0  0  0  0  0  0  0
    1.5040   -0.1280    0.0950 C   0  0  0  0  0  0  0  0  0  0  0  0
    2.8170    0.3720    0.6430 C   0  0  0  0  0  0  0  0  0  0  0  0
    3.9660    0.0820   -0.2950 C   0  0  0  0  0  0  0  0  0  0  0  0
    5.1740    0.5480    0.2190 O   0  0  0  0  0  0  0  0  0  0  0  0
    6.4410    0.2330   -0.8050 S   0  0  2  0  0  0  0  0  0  0  0  0
    6.4780   -1.4550   -1.2290 N   0  0  0  0  0  0  0  0  0  0  0  0
    7.7370    0.5230   -0.1030 O   0  0  0  0  0  0  0  0  0  0  0  0
    6.3090    1.0000   -2.0750 O   0  0  0  0  0  0  0  0  0  0  0  0
  1  2  1  0
  2  3  1  0
  3  4  1  0
  4  5  1  0
  5  6  1  0
  6  7  1  0
  7  8  1  0
  8  9  1  0
  9 10  1  0
 10 11  1  0
 11 12  1  0
 12 13  1  6
 12 14  2  0
 12 15  2  0
M  END
