
     RDKit          3D

 15 14  0  0  0  0  0  0  0  0999 V2000
    3.9710    2.3130    0.7790 C   0  0  0  0  0  0  0  0  0  0  0  0
    3.9660    0.9760    0.3690 O   0  0  0  0  0  0  0  0  0  0  0  0
    2.8000    0.1980    0.5550 C   0  0  0  0  0  0  0  0  0  0  0  0
    1.7780    0.7010    1.0830 O   0  0  0  0  0  0  0  0  0  0  0  0
    2.7430   -1.1530    0.1590 N   0  0  0  0  0  0  0  0  0  0  0  0
    1.6090   -2.0300    0.2980 C   0  0  0  0  0  0  0  0  0  0  0  0
    0.4700   -1.4590   -0.5000 C   0  0  0  0  0  0  0  0  0  0  0  0
   -0.7710   -2.3240   -0.4160 C   0  0  0  0  0  0  0  0  0  0  0  0
   -1.8330   -1.6340   -1.2620 C   0  0  0  0  0  0  0  0  0  0  0  0
   -2.1270   -0.2730   -0.7570 C   0  0  0  0  0  0  0  0  0  0  0  0
   -1.9350    0.7800   -1.5330 C   0  0  0  0  0  0  0  0  0  0  0  0
   -2.2780    2.4440   -0.9590 S   0  0  0  0  0  0  0  0  0  0  0  0
   -1.2930    2.8530    0.5080 C   0  0  0  0  0  0  0  0  0  0  0  0
   -2.6390   -0.0570    0.6200 C   0  0  0  0  0  0  0  0  0  0  0  0
   -3.8620   -0.7620    0.6960 O   0  0  0  0  0  0  0  0  0  0  0  0
  1  2  1  0
  2  3  1  0
  3  4  2  0
  3  5  1  0
  5  6  1  0
  6  7  1  0
  7  8  1  0
  8  9  1  0
  9 10  1  0
 10 11  2  3
 10 14  1  0
 11 12  1  0
 12 13  1  0
 14 15  1  0
M  END
