
     RDKit          3D

 15 14  0  0  0  0  0  0  0  0999 V2000
    6.1100   -0.9510    0.2290 C   0  0  0  0  0  0  0  0  0  0  0  0
    5.2130    0.1650   -0.3170 C   0  0  0  0  0  0  0  0  0  0  0  0
    3.8020   -0.2830   -0.1210 C   0  0  0  0  0  0  0  0  0  0  0  0
    2.8040    0.6870   -0.5990 C   0  0  0  0  0  0  0  0  0  0  0  0
    3.0510    1.7970   -1.1250 O   0  0  0  0  0  0  0  0  0  0  0  0
    1.4170    0.3340   -0.4520 N   0  0  0  0  0  0  0  0  0  0  0  0
    0.3990    1.2560   -0.9070 C   0  0  0  0  0  0  0  0  0  0  0  0
   -0.9580    0.5840   -0.6120 C   0  0  0  0  0  0  0  0  0  0  0  0
   -1.0310    0.3600    0.8410 C   0  0  0  0  0  0  0  0  0  0  0  0
   -0.1260    0.7930    1.5850 O   0  0  0  0  0  0  0  0  0  0  0  0
   -2.3490   -0.5050    1.6030 S   0  0  0  0  0  0  0  0  0  0  0  0
   -3.6050   -1.0970    0.4910 C   0  0  0  0  0  0  0  0  0  0  0  0
   -4.4590   -0.0300   -0.1510 C   0  0  0  0  0  0  0  0  0  0  0  0
   -5.1370    0.7500    0.7700 O   0  0  0  0  0  0  0  0  0  0  0  0
   -5.9990    0.0490    1.5730 C   0  0  0  0  0  0  0  0  0  0  0  0
  1  2  1  0
  2  3  1  0
  3  4  1  0
  4  5  2  0
  4  6  1  0
  6  7  1  0
  7  8  1  0
  8  9  1  0
  9 10  2  0
  9 11  1  0
 11 12  1  0
 12 13  1  0
 13 14  1  0
 14 15  1  0
M  END
