
     RDKit          3D

 43 47  0  0  0  0  0  0  0  0999 V2000
  -10.1320    1.2200    1.3290 N   0  0  0  0  0  0  0  0  0  0  0  0
   -8.9800    1.8960    0.9210 N   0  0  0  0  0  0  0  0  0  0  0  0
   -8.8430    1.7520   -0.5150 C   0  0  0  0  0  0  0  0  0  0  0  0
   -7.6040    2.4760   -1.0060 C   0  0  0  0  0  0  0  0  0  0  0  0
   -6.4530    1.9050   -0.3560 N   0  0  0  0  0  0  0  0  0  0  0  0
   -5.2220    2.5340   -0.7530 C   0  0  0  0  0  0  0  0  0  0  0  0
   -4.3490    2.3680    0.4670 C   0  0  2  0  0  0  0  0  0  0  0  0
   -3.2320    1.4760    0.1870 C   0  0  0  0  0  0  0  0  0  0  0  0
   -2.9900    0.8630   -0.9440 O   0  0  0  0  0  0  0  0  0  0  0  0
   -1.9260    0.1480   -0.8640 N   0  0  0  0  0  0  0  0  0  0  0  0
   -1.3800    0.2540    0.3820 C   0  0  0  0  0  0  0  0  0  0  0  0
   -2.2210    1.1100    1.0630 C   0  0  0  0  0  0  0  0  0  0  0  0
   -1.8900    1.4250    2.4590 C   0  0  0  0  0  0  0  0  0  0  0  0
   -0.7450    0.8190    2.9650 O   0  0  0  0  0  0  0  0  0  0  0  0
    0.1080   -0.0610    2.2420 C   0  0  0  0  0  0  0  0  0  0  0  0
    1.2680   -0.6180    2.8980 C   0  0  0  0  0  0  0  0  0  0  0  0
    2.2130   -1.4170    2.5330 C   0  0  0  0  0  0  0  0  0  0  0  0
    2.5180   -2.0900    1.3200 C   0  0  0  0  0  0  0  0  0  0  0  0
    3.5930   -2.8890    1.2350 C   0  0  0  0  0  0  0  0  0  0  0  0
    3.9050   -3.5860   -0.0280 C   0  0  0  0  0  0  0  0  0  0  0  0
    4.9610   -4.3570   -0.0780 C   0  0  0  0  0  0  0  0  0  0  0  0
    5.8070   -4.5590    0.9870 O   0  0  0  0  0  0  0  0  0  0  0  0
    5.5490   -3.9250    2.1840 C   0  0  0  0  0  0  0  0  0  0  0  0
    4.4820   -3.1080    2.3350 C   0  0  0  0  0  0  0  0  0  0  0  0
    1.7450   -2.0150    0.1080 N   0  0  0  0  0  0  0  0  0  0  0  0
    0.7580   -2.8620   -0.2030 N   0  0  0  0  0  0  0  0  0  0  0  0
    0.2370   -2.6060   -1.3940 C   0  0  0  0  0  0  0  0  0  0  0  0
    0.9390   -1.5240   -1.8720 C   0  0  0  0  0  0  0  0  0  0  0  0
    0.7190   -0.9390   -3.0690 F   0  0  0  0  0  0  0  0  0  0  0  0
    1.8910   -1.1640   -0.9050 C   0  0  0  0  0  0  0  0  0  0  0  0
    2.7940   -0.0380   -1.1080 C   0  0  0  0  0  0  0  0  0  0  0  0
    2.6830    0.6070   -2.1970 O   0  0  0  0  0  0  0  0  0  0  0  0
    3.7880    0.3370   -0.0960 C   0  0  0  0  0  0  0  0  0  0  0  0
    4.5530    1.4560   -0.4390 O   0  0  0  0  0  0  0  0  0  0  0  0
    5.3060    1.3280   -1.5690 C   0  0  0  0  0  0  0  0  0  0  0  0
    6.3120    0.1850   -1.5250 C   0  0  0  0  0  0  0  0  0  0  0  0
    6.9720    0.2170   -2.7530 O   0  0  0  0  0  0  0  0  0  0  0  0
    8.1610   -1.0050   -2.9250 P   0  0  0  0  0  0  0  0  0  0  0  0
    9.6280   -0.6500   -2.0990 O   0  0  0  0  0  0  0  0  0  0  0  0
    8.4160   -1.4570   -4.5800 O   0  0  0  0  0  0  0  0  0  0  0  0
   -0.2760   -0.2600    1.0460 N   0  0  0  0  0  0  0  0  0  0  0  0
   -5.3300    1.8180    1.4790 C   0  0  0  0  0  0  0  0  0  0  0  0
   -6.5830    2.1700    0.9850 O   0  0  0  0  0  0  0  0  0  0  0  0
  1  2  1  0
  2  3  1  0
  3  4  1  0
  4  5  1  0
  5  6  1  0
  5 43  1  0
  6  7  1  0
  7  8  1  6
  7 42  1  0
  8  9  1  0
  8 12  2  0
  9 10  1  0
 10 11  2  0
 11 12  1  0
 11 41  1  0
 12 13  1  0
 13 14  1  0
 14 15  1  0
 15 16  1  0
 15 41  2  0
 16 17  2  3
 17 18  1  0
 18 19  2  3
 18 25  1  0
 19 20  1  0
 19 24  1  0
 20 21  2  0
 21 22  1  0
 22 23  1  0
 23 24  2  0
 25 26  1  0
 25 30  1  0
 26 27  2  0
 27 28  1  0
 28 29  1  0
 28 30  2  0
 30 31  1  0
 31 32  2  0
 31 33  1  0
 33 34  1  0
 34 35  1  0
 35 36  1  0
 36 37  1  0
 37 38  1  0
 38 39  1  0
 38 40  1  0
 42 43  1  0
M  END
