
     RDKit          3D

 43 47  0  0  0  0  0  0  0  0999 V2000
    4.2390   -2.3790   -3.9790 O   0  0  0  0  0  0  0  0  0  0  0  0
    4.5970   -1.2090   -4.3080 C   0  0  0  0  0  0  0  0  0  0  0  0
    5.1750   -0.9820   -5.5340 O   0  0  0  0  0  0  0  0  0  0  0  0
    4.4000   -0.1540   -3.4210 O   0  0  0  0  0  0  0  0  0  0  0  0
    3.8080   -0.4210   -2.1800 C   0  0  0  0  0  0  0  0  0  0  0  0
    4.5940   -0.7260   -1.1930 C   0  0  0  0  0  0  0  0  0  0  0  0
    4.0210   -1.0120    0.1110 C   0  0  0  0  0  0  0  0  0  0  0  0
    2.7060   -0.9580    0.2790 C   0  0  0  0  0  0  0  0  0  0  0  0
    2.2530   -1.2590    1.6180 N   0  0  0  0  0  0  0  0  0  0  0  0
    2.3540   -0.3930    2.5650 C   0  0  0  0  0  0  0  0  0  0  0  0
    2.9230    0.9540    2.3970 C   0  0  0  0  0  0  0  0  0  0  0  0
    4.4820    1.2030    3.3730 P   0  0  0  0  0  0  0  0  0  0  0  0
    5.8210    1.1870    2.2730 O   0  0  0  0  0  0  0  0  0  0  0  0
    4.4480    2.7470    4.2060 O   0  0  0  0  0  0  0  0  0  0  0  0
    1.8120   -0.6400   -0.7630 N   0  0  0  0  0  0  0  0  0  0  0  0
    0.3620   -0.6290   -0.4450 C   0  0  0  0  0  0  0  0  0  0  0  0
   -0.0450    0.1410    0.4620 N   0  0  0  0  0  0  0  0  0  0  0  0
   -1.1420    0.5810    1.1680 C   0  0  0  0  0  0  0  0  0  0  0  0
   -0.9820    1.7390    1.8620 C   0  0  0  0  0  0  0  0  0  0  0  0
   -2.0900    2.2570    2.6270 C   0  0  0  0  0  0  0  0  0  0  0  0
   -2.0490    3.3840    3.3370 C   0  0  0  0  0  0  0  0  0  0  0  0
   -3.2920    3.5430    3.9240 O   0  0  0  0  0  0  0  0  0  0  0  0
   -4.2020    2.7610    3.2950 O   0  0  0  0  0  0  0  0  0  0  0  0
   -3.3910    1.7530    2.8370 N   0  0  0  0  0  0  0  0  0  0  0  0
   -2.2950   -0.1340    1.1420 O   0  0  0  0  0  0  0  0  0  0  0  0
   -2.6800   -1.4450    1.2550 C   0  0  0  0  0  0  0  0  0  0  0  0
   -3.7350   -1.8890    0.2770 C   0  0  0  0  0  0  0  0  0  0  0  0
   -4.3730   -0.8660   -0.4230 O   0  0  0  0  0  0  0  0  0  0  0  0
   -4.1250    0.4520   -0.6240 C   0  0  0  0  0  0  0  0  0  0  0  0
   -4.8670    1.4640   -0.0170 C   0  0  0  0  0  0  0  0  0  0  0  0
   -4.5570    2.7810   -0.2620 C   0  0  0  0  0  0  0  0  0  0  0  0
   -3.5150    3.0870   -1.1060 C   0  0  0  0  0  0  0  0  0  0  0  0
   -2.8330    2.0940   -1.6670 N   0  0  0  0  0  0  0  0  0  0  0  0
   -3.0650    0.7660   -1.4860 C   0  0  0  0  0  0  0  0  0  0  0  0
   -2.2640   -0.1160   -2.2200 N   0  0  0  0  0  0  0  0  0  0  0  0
   -1.5830   -1.2980   -1.9880 C   0  0  0  0  0  0  0  0  0  0  0  0
   -2.1270   -2.3890   -2.6740 N   0  0  0  0  0  0  0  0  0  0  0  0
   -1.6530   -3.6030   -2.6670 C   0  0  0  0  0  0  0  0  0  0  0  0
   -0.5250   -3.8830   -1.9420 C   0  0  0  0  0  0  0  0  0  0  0  0
    0.0760   -2.8800   -1.2400 C   0  0  0  0  0  0  0  0  0  0  0  0
    1.2270   -3.1920   -0.5490 F   0  0  0  0  0  0  0  0  0  0  0  0
   -0.4440   -1.5650   -1.2490 C   0  0  0  0  0  0  0  0  0  0  0  0
    2.3550   -0.3460   -2.0430 C   0  0  0  0  0  0  0  0  0  0  0  0
  1  2  2  0
  2  3  1  0
  2  4  1  0
  4  5  1  0
  5  6  2  0
  5 43  1  0
  6  7  1  0
  7  8  2  0
  8  9  1  0
  8 15  1  0
  9 10  2  3
 10 11  1  0
 11 12  1  0
 12 13  1  0
 12 14  1  0
 15 16  1  0
 15 43  1  0
 16 17  2  0
 16 42  1  0
 17 18  1  0
 18 19  2  3
 18 25  1  0
 19 20  1  0
 20 21  2  0
 20 24  1  0
 21 22  1  0
 22 23  1  0
 23 24  1  0
 25 26  1  0
 26 27  1  0
 27 28  1  0
 28 29  1  0
 29 30  2  0
 29 34  1  0
 30 31  1  0
 31 32  2  0
 32 33  1  0
 33 34  2  0
 34 35  1  0
 35 36  1  0
 36 37  2  0
 36 42  1  0
 37 38  1  0
 38 39  2  0
 39 40  1  0
 40 41  1  0
 40 42  2  0
M  END
