
     RDKit          3D

 43 48  0  0  0  0  0  0  0  0999 V2000
   -6.8120   -2.1400    2.9270 C   0  0  0  0  0  0  0  0  0  0  0  0
   -7.0150   -1.0590    1.8740 C   0  0  1  0  0  0  0  0  0  0  0  0
   -7.4200   -1.7410    0.5900 C   0  0  0  0  0  0  0  0  0  0  0  0
   -8.1270   -0.1440    2.3500 C   0  0  0  0  0  0  0  0  0  0  0  0
   -5.8120   -0.3740    1.6660 O   0  0  0  0  0  0  0  0  0  0  0  0
   -5.6420    0.6630    0.7820 C   0  0  0  0  0  0  0  0  0  0  0  0
   -6.6160    1.0350    0.1090 O   0  0  0  0  0  0  0  0  0  0  0  0
   -4.3850    1.3300    0.6090 N   0  0  0  0  0  0  0  0  0  0  0  0
   -3.3380    0.8000    1.4480 C   0  0  0  0  0  0  0  0  0  0  0  0
   -2.0250    1.4900    1.3080 C   0  0  0  0  0  0  0  0  0  0  0  0
   -1.4860    1.3700   -0.0070 O   0  0  0  0  0  0  0  0  0  0  0  0
   -2.0570    1.7580   -1.2000 C   0  0  0  0  0  0  0  0  0  0  0  0
   -1.4120    1.7490   -2.4060 C   0  0  0  0  0  0  0  0  0  0  0  0
   -0.0440    1.3480   -2.7070 C   0  0  0  0  0  0  0  0  0  0  0  0
    0.7850    0.9080   -1.7190 N   0  0  0  0  0  0  0  0  0  0  0  0
    2.0450    0.5380   -1.9890 C   0  0  0  0  0  0  0  0  0  0  0  0
    2.9560    0.0640   -0.9700 N   0  0  0  0  0  0  0  0  0  0  0  0
    2.5700   -0.0340    0.3700 C   0  0  0  0  0  0  0  0  0  0  0  0
    1.3660    0.3230    0.6290 O   0  0  0  0  0  0  0  0  0  0  0  0
    3.4030   -0.4950    1.4420 C   0  0  0  0  0  0  0  0  0  0  0  0
    2.8720   -0.5400    2.7400 C   0  0  0  0  0  0  0  0  0  0  0  0
    3.6610   -0.9800    3.7740 C   0  0  0  0  0  0  0  0  0  0  0  0
    3.1330   -1.0210    5.0400 F   0  0  0  0  0  0  0  0  0  0  0  0
    4.9320   -1.3730    3.5890 N   0  0  0  0  0  0  0  0  0  0  0  0
    5.4800   -1.3410    2.3310 C   0  0  0  0  0  0  0  0  0  0  0  0
    4.7020   -0.9000    1.2770 C   0  0  0  0  0  0  0  0  0  0  0  0
    5.4590   -0.9560    0.1230 O   0  0  0  0  0  0  0  0  0  0  0  0
    6.8510   -1.0070    0.4740 C   0  0  2  0  0  0  0  0  0  0  0  0
    7.4830   -1.7570   -0.4860 O   0  0  0  0  0  0  0  0  0  0  0  0
    8.8350   -0.9500   -1.1990 P   0  0  0  0  0  0  0  0  0  0  0  0
   10.3350   -1.4820   -0.5350 O   0  0  0  0  0  0  0  0  0  0  0  0
    8.7850   -1.0900   -2.9160 O   0  0  0  0  0  0  0  0  0  0  0  0
    6.8310   -1.7090    1.8380 C   0  0  0  0  0  0  0  0  0  0  0  0
    2.4790    0.6140   -3.2910 C   0  0  0  0  0  0  0  0  0  0  0  0
    3.6830    0.3220   -3.9170 C   0  0  0  0  0  0  0  0  0  0  0  0
    3.5520    0.5900   -5.2510 C   0  0  0  0  0  0  0  0  0  0  0  0
    2.3170    1.0360   -5.4790 N   0  0  0  0  0  0  0  0  0  0  0  0
    1.6390    1.0630   -4.3120 C   0  0  0  0  0  0  0  0  0  0  0  0
    0.3890    1.4190   -3.9770 N   0  0  0  0  0  0  0  0  0  0  0  0
   -2.3210    2.1960   -3.2870 N   0  0  0  0  0  0  0  0  0  0  0  0
   -3.4500    2.4620   -2.6570 O   0  0  0  0  0  0  0  0  0  0  0  0
   -3.3530    2.2170   -1.3940 C   0  0  0  0  0  0  0  0  0  0  0  0
   -4.3970    2.3860   -0.3520 C   0  0  0  0  0  0  0  0  0  0  0  0
  2  1  1  1
  2  3  1  0
  2  4  1  0
  2  5  1  0
  5  6  1  0
  6  7  2  0
  6  8  1  0
  8  9  1  0
  8 43  1  0
  9 10  1  0
 10 11  1  0
 11 12  1  0
 12 13  1  0
 12 42  2  0
 13 14  1  0
 13 40  2  0
 14 15  2  0
 14 39  1  0
 15 16  1  0
 16 17  1  0
 16 34  2  0
 17 18  1  0
 18 19  2  0
 18 20  1  0
 20 21  2  0
 20 26  1  0
 21 22  1  0
 22 23  1  0
 22 24  2  0
 24 25  1  0
 25 26  2  0
 25 33  1  0
 26 27  1  0
 27 28  1  0
 28 29  1  6
 28 33  1  0
 29 30  1  0
 30 31  1  0
 30 32  1  0
 34 35  1  0
 34 38  1  0
 35 36  2  0
 36 37  1  0
 37 38  1  0
 38 39  2  0
 40 41  1  0
 41 42  1  0
 42 43  1  0
M  END
