
     RDKit          3D

 22 24  0  0  0  0  0  0  0  0999 V2000
   -3.5410   -1.9150   -1.3820 C   0  0  0  0  0  0  0  0  0  0  0  0
   -2.9470   -0.7410   -0.6460 C   0  0  0  0  0  0  0  0  0  0  0  0
   -3.4190   -0.0940    0.3630 O   0  0  0  0  0  0  0  0  0  0  0  0
   -2.6460    0.8840    0.7650 C   0  0  0  0  0  0  0  0  0  0  0  0
   -2.8940    1.8230    1.8920 C   0  0  0  0  0  0  0  0  0  0  0  0
   -1.5400    0.8820   -0.0710 C   0  0  0  0  0  0  0  0  0  0  0  0
   -0.3460    1.7970   -0.0240 C   0  0  0  0  0  0  0  0  0  0  0  0
    0.6210    1.4110    0.9850 N   0  0  0  0  0  0  0  0  0  0  0  0
    0.4460    1.8230    2.2920 C   0  0  0  0  0  0  0  0  0  0  0  0
    1.4610    1.2380    3.0020 C   0  0  0  0  0  0  0  0  0  0  0  0
    2.1930    0.5260    2.1640 N   0  0  0  0  0  0  0  0  0  0  0  0
    1.6830    0.6190    0.8700 C   0  0  0  0  0  0  0  0  0  0  0  0
    2.2980   -0.0880   -0.2410 C   0  0  0  0  0  0  0  0  0  0  0  0
    2.3030    0.2480   -1.5410 C   0  0  0  0  0  0  0  0  0  0  0  0
    2.8820   -0.5470   -2.5420 C   0  0  0  0  0  0  0  0  0  0  0  0
    3.4610   -1.7010   -2.1820 N   0  0  0  0  0  0  0  0  0  0  0  0
    3.4860   -2.0850   -0.8970 C   0  0  0  0  0  0  0  0  0  0  0  0
    4.0670   -3.2560   -0.5120 F   0  0  0  0  0  0  0  0  0  0  0  0
    2.9220   -1.3140    0.0850 C   0  0  0  0  0  0  0  0  0  0  0  0
    2.9600   -1.7390    1.4370 N   0  0  0  0  0  0  0  0  0  0  0  0
   -1.7340   -0.1410   -0.9570 C   0  0  0  0  0  0  0  0  0  0  0  0
   -0.8780   -0.5960   -2.0820 C   0  0  0  0  0  0  0  0  0  0  0  0
  1  2  1  0
  2  3  1  0
  2 21  2  0
  3  4  1  0
  4  5  1  0
  4  6  2  0
  6  7  1  0
  6 21  1  0
  7  8  1  0
  8  9  1  0
  8 12  1  0
  9 10  2  0
 10 11  1  0
 11 12  2  0
 12 13  1  0
 13 14  2  0
 13 19  1  0
 14 15  1  0
 15 16  2  0
 16 17  1  0
 17 18  1  0
 17 19  2  0
 19 20  1  0
 21 22  1  0
M  END
