
     RDKit          3D

 22 24  0  0  0  0  0  0  0  0999 V2000
   -3.4210    2.3750   -1.1190 C   0  0  0  0  0  0  0  0  0  0  0  0
   -2.9100    1.0210   -1.1590 N   0  0  0  0  0  0  0  0  0  0  0  0
   -3.1230    0.1570   -0.0530 C   0  0  0  0  0  0  0  0  0  0  0  0
   -2.3210   -0.8440    0.2610 C   0  0  0  0  0  0  0  0  0  0  0  0
   -1.0950   -1.2640   -0.4210 C   0  0  0  0  0  0  0  0  0  0  0  0
   -0.1830   -0.3840   -0.8480 N   0  0  0  0  0  0  0  0  0  0  0  0
    0.9410   -0.7270   -1.4770 C   0  0  0  0  0  0  0  0  0  0  0  0
    1.8860    0.3270   -1.8840 C   0  0  0  0  0  0  0  0  0  0  0  0
    2.9790    0.4810   -0.9530 N   0  0  0  0  0  0  0  0  0  0  0  0
    4.1290   -0.1930   -1.0590 C   0  0  0  0  0  0  0  0  0  0  0  0
    4.9250    0.2010   -0.0100 C   0  0  0  0  0  0  0  0  0  0  0  0
    4.2170    1.1250    0.7200 C   0  0  0  0  0  0  0  0  0  0  0  0
    4.7130    1.8220    1.9580 C   0  0  0  0  0  0  0  0  0  0  0  0
    5.3360    3.0040    1.6270 F   0  0  0  0  0  0  0  0  0  0  0  0
    2.9790    1.2940    0.1090 C   0  0  0  0  0  0  0  0  0  0  0  0
    1.1780   -2.0710   -1.7000 C   0  0  0  0  0  0  0  0  0  0  0  0
    0.2700   -2.9830   -1.2770 C   0  0  0  0  0  0  0  0  0  0  0  0
    0.5050   -4.2040   -1.4910 O   0  0  0  0  0  0  0  0  0  0  0  0
   -0.8640   -2.5710   -0.6380 N   0  0  0  0  0  0  0  0  0  0  0  0
   -2.8810   -1.5130    1.4580 C   0  0  0  0  0  0  0  0  0  0  0  0
   -3.5840   -0.3810    2.1680 C   0  0  0  0  0  0  0  0  0  0  0  0
   -4.2610    0.2490    0.9350 C   0  0  0  0  0  0  0  0  0  0  0  0
  1  2  1  0
  2  3  1  0
  3  4  2  0
  3 22  1  0
  4  5  1  0
  4 20  1  0
  5  6  2  0
  5 19  1  0
  6  7  1  0
  7  8  1  0
  7 16  2  0
  8  9  1  0
  9 10  1  0
  9 15  1  0
 10 11  2  0
 11 12  1  0
 12 13  1  0
 12 15  2  0
 13 14  1  0
 16 17  1  0
 17 18  2  0
 17 19  1  0
 20 21  1  0
 21 22  1  0
M  END
