
     RDKit          3D

 17 18  0  0  0  0  0  0  0  0999 V2000
    4.2700   -0.3200   -0.7390 C   0  0  0  0  0  0  0  0  0  0  0  0
    2.7980   -0.2800   -0.5940 C   0  0  0  0  0  0  0  0  0  0  0  0
    1.9770   -0.9660   -1.4950 C   0  0  0  0  0  0  0  0  0  0  0  0
    0.6590   -0.8610   -1.2700 N   0  0  0  0  0  0  0  0  0  0  0  0
    0.1140   -0.1580   -0.2630 C   0  0  0  0  0  0  0  0  0  0  0  0
   -1.3540   -0.0990   -0.0950 C   0  0  0  0  0  0  0  0  0  0  0  0
   -1.8950    0.6270    0.9430 C   0  0  0  0  0  0  0  0  0  0  0  0
   -3.2690    0.6770    1.0900 C   0  0  0  0  0  0  0  0  0  0  0  0
   -3.8050    1.4340    2.1720 N   0  0  0  0  0  0  0  0  0  0  0  0
   -4.0980    0.0130    0.2130 C   0  0  0  0  0  0  0  0  0  0  0  0
   -3.5760   -0.7160   -0.8300 C   0  0  0  0  0  0  0  0  0  0  0  0
   -2.1830   -0.7620   -0.9710 C   0  0  0  0  0  0  0  0  0  0  0  0
   -1.5830   -1.4960   -2.0220 N   0  0  0  0  0  0  0  0  0  0  0  0
    0.9160    0.4990    0.6000 N   0  0  0  0  0  0  0  0  0  0  0  0
    2.2600    0.4460    0.4460 C   0  0  0  0  0  0  0  0  0  0  0  0
    3.1660    1.1600    1.3800 C   0  0  0  0  0  0  0  0  0  0  0  0
    3.8520   -0.1070    2.4510 Cl  0  0  0  0  0  0  0  0  0  0  0  0
  1  2  1  0
  2  3  2  0
  2 15  1  0
  3  4  1  0
  4  5  2  0
  5  6  1  0
  5 14  1  0
  6  7  2  0
  6 12  1  0
  7  8  1  0
  8  9  1  0
  8 10  2  0
 10 11  1  0
 11 12  2  0
 12 13  1  0
 14 15  2  0
 15 16  1  0
 16 17  1  0
M  END
