
     RDKit          3D

 17 18  0  0  0  0  0  0  0  0999 V2000
    3.7800    1.4760    0.6660 C   0  0  0  0  0  0  0  0  0  0  0  0
    3.0340    0.5960    0.0430 C   0  0  0  0  0  0  0  0  0  0  0  0
    3.6060   -0.0430   -1.1370 C   0  0  0  0  0  0  0  0  0  0  0  0
    2.8820   -0.9300   -1.7840 C   0  0  0  0  0  0  0  0  0  0  0  0
    1.5420   -1.2920   -1.3650 C   0  0  0  0  0  0  0  0  0  0  0  0
    0.9350   -0.7790   -0.3190 C   0  0  0  0  0  0  0  0  0  0  0  0
   -0.3780   -1.1390    0.0850 N   0  0  0  0  0  0  0  0  0  0  0  0
   -1.4740   -0.2620    0.0570 C   0  0  0  0  0  0  0  0  0  0  0  0
   -1.3570    1.0090   -0.3610 N   0  0  0  0  0  0  0  0  0  0  0  0
   -2.3750    1.8930   -0.4080 C   0  0  0  0  0  0  0  0  0  0  0  0
   -3.6330    1.4550    0.0080 C   0  0  0  0  0  0  0  0  0  0  0  0
   -3.8190    0.1680    0.4460 C   0  0  0  0  0  0  0  0  0  0  0  0
   -5.4090   -0.3300    0.9540 Cl  0  0  0  0  0  0  0  0  0  0  0  0
   -2.7310   -0.6760    0.4650 C   0  0  0  0  0  0  0  0  0  0  0  0
   -2.9500   -2.0010    0.9230 N   0  0  0  0  0  0  0  0  0  0  0  0
    1.7010    0.2280    0.4510 C   0  0  0  0  0  0  0  0  0  0  0  0
    1.1350    0.7410    1.4680 N   0  0  0  0  0  0  0  0  0  0  0  0
  1  2  2  0
  2  3  1  0
  2 16  1  0
  3  4  2  0
  4  5  1  0
  5  6  2  0
  6  7  1  0
  6 16  1  0
  7  8  1  0
  8  9  2  0
  8 14  1  0
  9 10  1  0
 10 11  2  0
 11 12  1  0
 12 13  1  0
 12 14  2  0
 14 15  1  0
 16 17  2  0
M  END
