
     RDKit          3D

 17 18  0  0  0  0  0  0  0  0999 V2000
    2.0550    2.6560    0.2390 C   0  0  0  0  0  0  0  0  0  0  0  0
    1.3800    1.5230    0.1620 C   0  0  0  0  0  0  0  0  0  0  0  0
   -0.0340    1.4780    0.5230 C   0  0  0  0  0  0  0  0  0  0  0  0
   -0.6330    2.5200    0.9170 O   0  0  0  0  0  0  0  0  0  0  0  0
   -0.7490    0.2560    0.4320 N   0  0  0  0  0  0  0  0  0  0  0  0
   -2.1640    0.2140    0.2430 C   0  0  1  0  0  0  0  0  0  0  0  0
   -2.8470    0.9260    1.4010 C   0  0  0  0  0  0  0  0  0  0  0  0
   -2.5960    0.9270   -1.0220 C   0  0  0  0  0  0  0  0  0  0  0  0
   -2.6470   -1.2070    0.1360 C   0  0  0  0  0  0  0  0  0  0  0  0
   -4.1550   -1.2290   -0.0680 C   0  0  0  0  0  0  0  0  0  0  0  0
    0.0030   -0.9690    0.5380 C   0  0  0  0  0  0  0  0  0  0  0  0
    1.1210   -0.8820   -0.4960 C   0  0  2  0  0  0  0  0  0  0  0  0
    2.1180   -2.0260   -0.2590 C   0  0  0  0  0  0  0  0  0  0  0  0
    3.3250   -1.4670   -0.9680 C   0  0  0  0  0  0  0  0  0  0  0  0
    3.2720   -0.0230   -0.5320 C   0  0  0  0  0  0  0  0  0  0  0  0
    4.4700    0.8130   -0.4300 C   0  0  0  0  0  0  0  0  0  0  0  0
    2.0000    0.2810   -0.2820 C   0  0  0  0  0  0  0  0  0  0  0  0
  1  2  2  0
  2  3  1  0
  2 17  1  0
  3  4  2  0
  3  5  1  0
  5  6  1  0
  5 11  1  0
  6  7  1  1
  6  8  1  0
  6  9  1  0
  9 10  1  0
 12 11  1  1
 12 13  1  0
 12 17  1  0
 13 14  1  0
 14 15  1  0
 15 16  1  0
 15 17  2  0
M  END
