
     RDKit          3D

 20 20  0  0  0  0  0  0  0  0999 V2000
    4.3100    2.0320   -0.4680 C   0  0  0  0  0  0  0  0  0  0  0  0
    3.4890    0.9810   -1.1840 C   0  0  0  0  0  0  0  0  0  0  0  0
    2.3600    0.5630   -0.2300 C   0  0  0  0  0  0  0  0  0  0  0  0
    1.5680   -0.3870   -0.8010 O   0  0  0  0  0  0  0  0  0  0  0  0
    0.5120   -0.8560   -0.0500 C   0  0  1  0  0  0  0  0  0  0  0  0
    1.0120   -1.5520    1.1500 C   0  0  0  0  0  0  0  0  0  0  0  0
    0.2060   -2.0150    2.0240 O   0  0  0  0  0  0  0  0  0  0  0  0
    2.3470   -1.7630    1.4280 O   0  0  0  0  0  0  0  0  0  0  0  0
   -0.3740    0.1220    0.3290 O   0  0  0  0  0  0  0  0  0  0  0  0
   -1.5020    0.2400   -0.4210 C   0  0  2  0  0  0  0  0  0  0  0  0
   -2.3490    1.3550    0.1630 C   0  0  2  0  0  0  0  0  0  0  0  0
   -3.5010    1.4520   -0.6280 O   0  0  0  0  0  0  0  0  0  0  0  0
   -1.6510    2.6890    0.0910 C   0  0  0  0  0  0  0  0  0  0  0  0
   -2.5360    3.6450    0.5840 O   0  0  0  0  0  0  0  0  0  0  0  0
   -2.3830   -1.0150   -0.3440 C   0  0  2  0  0  0  0  0  0  0  0  0
   -2.9490   -1.0290    0.9290 O   0  0  0  0  0  0  0  0  0  0  0  0
   -1.5370   -2.2470   -0.5360 C   0  0  2  0  0  0  0  0  0  0  0  0
   -1.6830   -3.0930    0.5420 O   0  0  0  0  0  0  0  0  0  0  0  0
   -0.1360   -1.9320   -0.9090 C   0  0  2  0  0  0  0  0  0  0  0  0
    0.6450   -3.0780   -0.7620 O   0  0  0  0  0  0  0  0  0  0  0  0
  1  2  1  0
  2  3  1  0
  3  4  1  0
  5  4  1  6
  5  6  1  0
  5  9  1  0
  5 19  1  0
  6  7  2  0
  6  8  1  0
 10  9  1  1
 10 11  1  0
 10 15  1  0
 11 12  1  6
 11 13  1  0
 13 14  1  0
 15 16  1  1
 15 17  1  0
 17 18  1  1
 17 19  1  0
 19 20  1  1
M  END
