
     RDKit          3D

 25 26  0  0  0  0  0  0  0  0999 V2000
   -1.0330    1.6610    1.8080 N   0  0  0  0  0  0  0  0  0  0  0  0
   -1.9790    1.5200    0.7550 C   0  0  0  0  0  0  0  0  0  0  0  0
   -2.7500    2.4880    0.5060 O   0  0  0  0  0  0  0  0  0  0  0  0
   -2.0640    0.2580   -0.0400 C   0  0  1  0  0  0  0  0  0  0  0  0
   -1.0970   -0.6420    0.4570 N   0  0  0  0  0  0  0  0  0  0  0  0
    0.3060   -0.2210    0.3770 C   0  0  0  0  0  0  0  0  0  0  0  0
    0.6020   -1.4990   -0.3110 C   0  0  1  0  0  0  0  0  0  0  0  0
    1.1010   -1.4160   -1.5400 O   0  0  0  0  0  0  0  0  0  0  0  0
    2.3270   -0.9990   -1.7870 C   0  0  0  0  0  0  0  0  0  0  0  0
    2.8620    0.3140   -1.3630 C   0  0  0  0  0  0  0  0  0  0  0  0
    2.9120    0.5560   -0.0050 O   0  0  0  0  0  0  0  0  0  0  0  0
    3.5470    2.1020    0.3850 P   0  0  0  0  0  0  0  0  0  0  0  0
    5.0360    1.9790    1.2830 O   0  0  0  0  0  0  0  0  0  0  0  0
    2.4520    3.0270    1.3660 O   0  0  0  0  0  0  0  0  0  0  0  0
    1.6420   -2.6910    0.7100 P   0  0  0  0  0  0  0  0  0  0  0  0
    1.3540   -4.3230    0.2470 O   0  0  0  0  0  0  0  0  0  0  0  0
    1.4370   -2.4160    2.3900 O   0  0  0  0  0  0  0  0  0  0  0  0
   -0.8720   -1.8730   -0.1870 C   0  0  0  0  0  0  0  0  0  0  0  0
   -3.4900   -0.2220    0.1430 C   0  0  0  0  0  0  0  0  0  0  0  0
   -4.3790    0.8410   -0.3970 C   0  0  0  0  0  0  0  0  0  0  0  0
   -5.4590    1.1480    0.1580 O   0  0  0  0  0  0  0  0  0  0  0  0
   -4.0470    1.5560   -1.5680 O   0  0  0  0  0  0  0  0  0  0  0  0
   -2.7010    1.6210   -1.9540 C   0  0  0  0  0  0  0  0  0  0  0  0
   -2.1770    2.5260   -2.6010 O   0  0  0  0  0  0  0  0  0  0  0  0
   -1.8690    0.4630   -1.5170 C   0  0  0  0  0  0  0  0  0  0  0  0
  1  2  1  0
  2  3  2  0
  2  4  1  0
  4  5  1  1
  4 19  1  0
  4 25  1  0
  5  6  1  0
  5 18  1  0
  6  7  1  0
  7  8  1  6
  7 15  1  0
  7 18  1  0
  8  9  1  0
  9 10  1  0
 10 11  1  0
 11 12  1  0
 12 13  1  0
 12 14  1  0
 15 16  1  0
 15 17  1  0
 19 20  1  0
 20 21  2  0
 20 22  1  0
 22 23  1  0
 23 24  2  0
 23 25  1  0
M  END
