
     RDKit          3D

 24 24  0  0  0  0  0  0  0  0999 V2000
   -3.6210    2.9580    0.0310 C   0  0  0  0  0  0  0  0  0  0  0  0
   -3.8800    1.6090   -0.6110 C   0  0  2  0  0  0  0  0  0  0  0  0
   -3.8450    1.7590   -2.1010 C   0  0  0  0  0  0  0  0  0  0  0  0
   -5.2070    1.2660   -0.2680 O   0  0  0  0  0  0  0  0  0  0  0  0
   -3.0690    0.6120   -0.1300 O   0  0  0  0  0  0  0  0  0  0  0  0
   -1.7340    0.7790   -0.3730 C   0  0  0  0  0  0  0  0  0  0  0  0
   -0.9980   -0.4160    0.2300 C   0  0  2  0  0  0  0  0  0  0  0  0
   -1.4820   -1.6550   -0.5130 C   0  0  0  0  0  0  0  0  0  0  0  0
   -0.8370   -2.8010   -0.0210 O   0  0  0  0  0  0  0  0  0  0  0  0
   -1.3490   -4.2230   -0.8270 P   0  0  0  0  0  0  0  0  0  0  0  0
   -0.1840   -5.4800   -0.8070 O   0  0  0  0  0  0  0  0  0  0  0  0
   -2.9220   -4.7380   -0.3860 O   0  0  0  0  0  0  0  0  0  0  0  0
   -1.3830   -0.5760    1.6620 C   0  0  0  0  0  0  0  0  0  0  0  0
   -0.5490   -0.0140    2.5780 O   0  0  0  0  0  0  0  0  0  0  0  0
    0.4300    0.8100    2.0960 C   0  0  0  0  0  0  0  0  0  0  0  0
    1.1320    0.2780    0.9150 C   0  0  0  0  0  0  0  0  0  0  0  0
    2.5460    0.3910    0.7270 N   0  0  0  0  0  0  0  0  0  0  0  0
    3.2640   -0.5940   -0.0820 C   0  0  0  0  0  0  0  0  0  0  0  0
    4.7250   -0.2080   -0.0930 C   0  0  0  0  0  0  0  0  0  0  0  0
    4.8510    1.0650   -0.6470 O   0  0  0  0  0  0  0  0  0  0  0  0
    6.4860    1.5890   -0.7000 P   0  0  0  0  0  0  0  0  0  0  0  0
    6.6370    3.0700    0.1700 O   0  0  0  0  0  0  0  0  0  0  0  0
    7.5660    0.4280    0.0120 O   0  0  0  0  0  0  0  0  0  0  0  0
    0.4230   -0.3160    0.0150 N   0  0  0  0  0  0  0  0  0  0  0  0
  2  1  1  1
  2  3  1  0
  2  4  1  0
  2  5  1  0
  5  6  1  0
  7  6  1  6
  7  8  1  0
  7 13  1  0
  7 24  1  0
  8  9  1  0
  9 10  1  0
 10 11  1  0
 10 12  1  0
 13 14  1  0
 14 15  1  0
 15 16  1  0
 16 17  1  0
 16 24  2  0
 17 18  1  0
 18 19  1  0
 19 20  1  0
 20 21  1  0
 21 22  1  0
 21 23  1  0
M  END
