
     RDKit          3D

 26 28  0  0  0  0  0  0  0  0999 V2000
    0.5030   -0.2330   -2.5300 O   0  0  0  0  0  0  0  0  0  0  0  0
    1.1060   -0.1130   -1.4590 C   0  0  0  0  0  0  0  0  0  0  0  0
    0.3630    0.2390   -0.3050 N   0  0  0  0  0  0  0  0  0  0  0  0
   -1.0620    0.4570   -0.3630 C   0  0  1  0  0  0  0  0  0  0  0  0
   -1.8320   -0.3690    0.6170 C   0  0  0  0  0  0  0  0  0  0  0  0
   -1.6770   -1.7160    0.4530 O   0  0  0  0  0  0  0  0  0  0  0  0
   -2.4230   -2.7550    1.4090 P   0  0  0  0  0  0  0  0  0  0  0  0
   -2.5310   -3.8680    0.3610 O   0  0  0  0  0  0  0  0  0  0  0  0
   -1.5390   -3.8860    2.3540 O   0  0  0  0  0  0  0  0  0  0  0  0
   -4.0370   -2.7080    1.7170 O   0  0  0  0  0  0  0  0  0  0  0  0
   -1.2930    1.9170    0.0080 C   0  0  0  0  0  0  0  0  0  0  0  0
   -2.7060    2.2970   -0.0060 C   0  0  0  0  0  0  0  0  0  0  0  0
   -3.2990    2.7830   -1.1470 C   0  0  0  0  0  0  0  0  0  0  0  0
   -4.6510    3.1390   -1.1340 C   0  0  0  0  0  0  0  0  0  0  0  0
   -5.3930    3.0010    0.0340 C   0  0  0  0  0  0  0  0  0  0  0  0
   -4.8130    2.5210    1.1660 C   0  0  0  0  0  0  0  0  0  0  0  0
   -3.4770    2.1770    1.1250 C   0  0  0  0  0  0  0  0  0  0  0  0
    2.5710   -0.3300   -1.3610 C   0  0  0  0  0  0  0  0  0  0  0  0
    3.3730   -0.2390   -0.2720 C   0  0  0  0  0  0  0  0  0  0  0  0
    4.6900   -0.4840   -0.4350 C   0  0  0  0  0  0  0  0  0  0  0  0
    5.6810   -0.4370    0.5870 C   0  0  0  0  0  0  0  0  0  0  0  0
    6.9770   -0.7100    0.2690 C   0  0  0  0  0  0  0  0  0  0  0  0
    7.4430   -1.0340   -0.9670 C   0  0  0  0  0  0  0  0  0  0  0  0
    6.4710   -1.0830   -1.9810 C   0  0  0  0  0  0  0  0  0  0  0  0
    5.1510   -0.8010   -1.6360 C   0  0  0  0  0  0  0  0  0  0  0  0
    3.6380   -0.7650   -2.6680 S   0  0  0  0  0  0  0  0  0  0  0  0
  1  2  2  0
  2  3  1  0
  2 18  1  0
  3  4  1  0
  4  5  1  1
  4 11  1  0
  5  6  1  0
  6  7  1  0
  7  8  1  0
  7  9  1  0
  7 10  1  0
 11 12  1  0
 12 13  2  0
 12 17  1  0
 13 14  1  0
 14 15  2  0
 15 16  1  0
 16 17  2  0
 18 19  2  0
 18 26  1  0
 19 20  1  0
 20 21  2  0
 20 25  1  0
 21 22  1  0
 22 23  2  0
 23 24  1  0
 24 25  2  0
 25 26  1  0
M  END
