
     RDKit          3D

 26 27  0  0  0  0  0  0  0  0999 V2000
    9.8550   -1.0760    0.2440 C   0  0  0  0  0  0  0  0  0  0  0  0
    9.4730    0.3790    0.2540 C   0  0  0  0  0  0  0  0  0  0  0  0
    8.1370    0.6050   -0.1270 O   0  0  0  0  0  0  0  0  0  0  0  0
    7.1210    0.0310    0.6180 C   0  0  0  0  0  0  0  0  0  0  0  0
    7.4770   -0.6690    1.6070 O   0  0  0  0  0  0  0  0  0  0  0  0
    5.7170    0.2220    0.2820 C   0  0  0  0  0  0  0  0  0  0  0  0
    5.0280    0.8750   -0.6590 C   0  0  0  0  0  0  0  0  0  0  0  0
    3.7140    0.7730   -0.5830 N   0  0  0  0  0  0  0  0  0  0  0  0
    3.0460    0.2270    0.1410 C   0  0  0  0  0  0  0  0  0  0  0  0
    1.5970   -0.0850    0.5010 C   0  0  0  0  0  0  0  0  0  0  0  0
    1.1490   -0.8190    1.4970 N   0  0  0  0  0  0  0  0  0  0  0  0
   -0.1560   -0.8210    1.4340 O   0  0  0  0  0  0  0  0  0  0  0  0
   -0.5790   -0.1050    0.4190 C   0  0  0  0  0  0  0  0  0  0  0  0
   -1.8140    0.1070    0.0630 N   0  0  0  0  0  0  0  0  0  0  0  0
   -2.0930    0.9360   -1.1020 C   0  0  0  0  0  0  0  0  0  0  0  0
   -3.4070    1.6280   -0.8390 C   0  0  0  0  0  0  0  0  0  0  0  0
   -4.4060    0.7170   -0.6540 O   0  0  0  0  0  0  0  0  0  0  0  0
   -4.6880   -0.1410   -1.6660 C   0  0  0  0  0  0  0  0  0  0  0  0
   -5.8270   -1.0520   -1.2800 C   0  0  0  0  0  0  0  0  0  0  0  0
   -7.0100   -0.4410   -0.9880 O   0  0  0  0  0  0  0  0  0  0  0  0
   -7.0250    0.4190    0.0660 C   0  0  0  0  0  0  0  0  0  0  0  0
   -6.6330   -0.2260    1.3830 C   0  0  0  0  0  0  0  0  0  0  0  0
   -7.5450   -1.2530    1.6410 O   0  0  0  0  0  0  0  0  0  0  0  0
   -7.2400   -1.8330    2.7700 O   0  0  0  0  0  0  0  0  0  0  0  0
    0.5410    0.3580   -0.1670 N   0  0  0  0  0  0  0  0  0  0  0  0
    4.3410   -0.5550    1.2920 S   0  0  0  0  0  0  0  0  0  0  0  0
  1  2  1  0
  2  3  1  0
  3  4  1  0
  4  5  2  0
  4  6  1  0
  6  7  2  0
  6 26  1  0
  7  8  1  0
  8  9  2  0
  9 10  1  0
  9 26  1  0
 10 11  2  0
 10 25  1  0
 11 12  1  0
 12 13  1  0
 13 14  2  3
 13 25  1  0
 14 15  1  0
 15 16  1  0
 16 17  1  0
 17 18  1  0
 18 19  1  0
 19 20  1  0
 20 21  1  0
 21 22  1  0
 22 23  1  0
 23 24  1  0
M  END
