
     RDKit          3D

 26 26  0  0  0  0  0  0  0  0999 V2000
   -3.5030    2.2830   -1.3680 C   0  0  0  0  0  0  0  0  0  0  0  0
   -2.8540    1.3070   -0.5240 N   0  0  0  0  0  0  0  0  0  0  0  0
   -1.6370    0.8090   -1.0820 C   0  0  1  0  0  0  0  0  0  0  0  0
   -1.9470    0.3540   -2.9060 P   0  0  0  0  0  0  0  0  0  0  0  0
   -0.6470    1.8830   -1.1460 C   0  0  0  0  0  0  0  0  0  0  0  0
    0.2970    1.8830   -2.1650 O   0  0  0  0  0  0  0  0  0  0  0  0
    1.6010    1.6860   -1.9630 O   0  0  0  0  0  0  0  0  0  0  0  0
   -0.6230    2.8430   -0.2660 C   0  0  0  0  0  0  0  0  0  0  0  0
    0.3600    3.8500   -0.3930 O   0  0  0  0  0  0  0  0  0  0  0  0
   -1.7910    2.9570    1.1300 P   0  0  0  0  0  0  0  0  0  0  0  0
   -0.8530    2.9060    2.6080 O   0  0  0  0  0  0  0  0  0  0  0  0
   -2.6430    4.4690    1.1270 O   0  0  0  0  0  0  0  0  0  0  0  0
   -1.1360   -0.4760   -0.4680 C   0  0  1  0  0  0  0  0  0  0  0  0
   -0.8460   -0.3960    0.9960 C   0  0  0  0  0  0  0  0  0  0  0  0
   -2.4610   -1.8030   -0.6540 P   0  0  0  0  0  0  0  0  0  0  0  0
   -3.2640   -2.3300    0.5620 O   0  0  0  0  0  0  0  0  0  0  0  0
    0.3620   -1.1120   -1.3600 P   0  0  0  0  0  0  0  0  0  0  0  0
    0.0510   -2.7710   -2.1260 C   0  0  0  0  0  0  0  0  0  0  0  0
    1.7130   -1.3000   -0.1430 C   0  0  0  0  0  0  0  0  0  0  0  0
    2.0760   -2.4740    0.2540 N   0  0  0  0  0  0  0  0  0  0  0  0
    3.1010   -2.7310    1.1850 C   0  0  0  0  0  0  0  0  0  0  0  0
    3.4050   -4.1360    1.5440 C   0  0  0  0  0  0  0  0  0  0  0  0
    4.4210   -4.2530    2.4710 O   0  0  0  0  0  0  0  0  0  0  0  0
    3.7210   -1.7140    1.6740 N   0  0  0  0  0  0  0  0  0  0  0  0
    3.4220   -0.3590    1.3220 C   0  0  0  0  0  0  0  0  0  0  0  0
    2.3870   -0.2090    0.3900 O   0  0  0  0  0  0  0  0  0  0  0  0
  1  2  1  0
  2  3  1  0
  3  4  1  6
  3  5  1  0
  3 13  1  0
  5  6  1  0
  5  8  2  3
  6  7  1  0
  8  9  1  0
  8 10  1  0
 10 11  1  0
 10 12  1  0
 13 14  1  1
 13 15  1  0
 13 17  1  0
 15 16  2  0
 17 18  1  0
 17 19  1  0
 19 20  2  0
 19 26  1  0
 20 21  1  0
 21 22  1  0
 21 24  2  0
 22 23  1  0
 24 25  1  0
 25 26  1  0
M  END
