
     RDKit          3D

 26 27  0  0  0  0  0  0  0  0999 V2000
    4.5210   -2.1360    0.5090 C   0  0  0  0  0  0  0  0  0  0  0  0
    3.4460   -1.0850    1.2200 P   0  0  0  0  0  0  0  0  0  0  0  0
    3.4120    0.7130    0.7740 C   0  0  1  0  0  0  0  0  0  0  0  0
    3.5800    1.4700    1.9970 N   0  0  0  0  0  0  0  0  0  0  0  0
    4.5500    0.9820   -0.0150 O   0  0  0  0  0  0  0  0  0  0  0  0
    1.8560    1.1680   -0.1180 P   0  0  0  0  0  0  0  0  0  0  0  0
    0.5000   -0.0990    0.2410 C   0  0  0  0  0  0  0  0  0  0  0  0
   -0.1640   -0.5980   -1.0710 C   0  0  1  0  0  0  0  0  0  0  0  0
    0.5820    0.0560   -2.0580 C   0  0  0  0  0  0  0  0  0  0  0  0
    1.1070    0.5490   -3.1160 O   0  0  0  0  0  0  0  0  0  0  0  0
    2.3560    1.5830   -2.2690 P   0  0  0  0  0  0  0  0  0  0  0  0
    1.9370    3.2340   -2.5880 O   0  0  0  0  0  0  0  0  0  0  0  0
    0.0820   -2.0100   -1.0700 O   0  0  0  0  0  0  0  0  0  0  0  0
   -0.2000   -2.4090    0.1520 O   0  0  0  0  0  0  0  0  0  0  0  0
   -1.6020   -2.5630    0.2660 C   0  0  2  0  0  0  0  0  0  0  0  0
   -1.9080   -3.2570    1.5660 C   0  0  0  0  0  0  0  0  0  0  0  0
   -2.0130   -3.2930   -0.8420 O   0  0  0  0  0  0  0  0  0  0  0  0
   -2.1760   -1.1630    0.2060 C   0  0  0  0  0  0  0  0  0  0  0  0
   -1.6440   -0.5330   -1.0690 C   0  0  2  0  0  0  0  0  0  0  0  0
   -2.0490   -1.4810   -2.0650 O   0  0  0  0  0  0  0  0  0  0  0  0
   -2.3340    0.7090   -1.4450 C   0  0  0  0  0  0  0  0  0  0  0  0
   -2.1120    1.9160   -0.6540 C   0  0  0  0  0  0  0  0  0  0  0  0
   -1.6250    2.9660   -1.2180 N   0  0  0  0  0  0  0  0  0  0  0  0
   -2.4250    2.0170    0.7280 N   0  0  0  0  0  0  0  0  0  0  0  0
   -1.8020    2.8620    1.5810 O   0  0  0  0  0  0  0  0  0  0  0  0
   -2.2960    4.0660    1.3390 O   0  0  0  0  0  0  0  0  0  0  0  0
  1  2  2  0
  2  3  1  0
  3  4  1  1
  3  5  1  0
  3  6  1  0
  6  7  1  0
  6 11  1  0
  8  7  1  1
  8  9  1  0
  8 13  1  0
  8 19  1  0
  9 10  1  0
 10 11  1  0
 11 12  1  0
 13 14  1  0
 14 15  1  0
 15 16  1  1
 15 17  1  0
 15 18  1  0
 18 19  1  0
 19 20  1  6
 19 21  1  0
 21 22  1  0
 22 23  2  0
 22 24  1  0
 24 25  1  0
 25 26  1  0
M  END
