
     RDKit          3D

 25 27  0  0  0  0  0  0  0  0999 V2000
   -4.8730    0.8660    1.4720 O   0  0  0  0  0  0  0  0  0  0  0  0
   -3.8510    1.1220    0.7820 C   0  0  0  0  0  0  0  0  0  0  0  0
   -3.5200    2.4930    0.6050 N   0  0  0  0  0  0  0  0  0  0  0  0
   -2.1630    2.9290    0.3780 C   0  0  0  0  0  0  0  0  0  0  0  0
   -1.2670    2.0330   -0.0330 N   0  0  0  0  0  0  0  0  0  0  0  0
   -0.0970    2.6590   -0.1740 C   0  0  0  0  0  0  0  0  0  0  0  0
   -0.3020    3.9410    0.1570 N   0  0  0  0  0  0  0  0  0  0  0  0
   -1.5500    4.0760    0.4840 O   0  0  0  0  0  0  0  0  0  0  0  0
    1.1040    1.8760   -0.6320 C   0  0  0  0  0  0  0  0  0  0  0  0
    1.5540    1.0190    0.4220 N   0  0  0  0  0  0  0  0  0  0  0  0
    1.9270   -0.3020   -0.0440 C   0  0  1  0  0  0  0  0  0  0  0  0
    3.3990   -0.4590    0.1360 C   0  0  0  0  0  0  0  0  0  0  0  0
    4.3230   -0.9870   -0.7660 C   0  0  0  0  0  0  0  0  0  0  0  0
    5.5980   -1.0370   -0.4070 C   0  0  0  0  0  0  0  0  0  0  0  0
    6.0330   -0.5910    0.8110 C   0  0  0  0  0  0  0  0  0  0  0  0
    4.3860   -0.0400    1.4950 S   0  0  0  0  0  0  0  0  0  0  0  0
    1.1640   -1.3170    0.8020 C   0  0  0  0  0  0  0  0  0  0  0  0
    0.5130   -2.2470   -0.0000 O   0  0  0  0  0  0  0  0  0  0  0  0
   -0.7740   -1.8490   -0.3370 C   0  0  0  0  0  0  0  0  0  0  0  0
   -1.6650   -1.7090    0.8750 C   0  0  0  0  0  0  0  0  0  0  0  0
   -2.0050   -0.3710    0.9860 O   0  0  0  0  0  0  0  0  0  0  0  0
   -3.0790    0.0030    0.2110 C   0  0  1  0  0  0  0  0  0  0  0  0
   -3.8810   -1.1230   -0.0080 O   0  0  0  0  0  0  0  0  0  0  0  0
   -3.9270   -1.4900   -1.2500 O   0  0  0  0  0  0  0  0  0  0  0  0
   -5.0760   -2.0450   -1.5640 O   0  0  0  0  0  0  0  0  0  0  0  0
  1  2  2  0
  2  3  1  0
  2 22  1  0
  3  4  1  0
  4  5  2  0
  4  8  1  0
  5  6  1  0
  6  7  2  0
  6  9  1  0
  7  8  1  0
  9 10  1  0
 10 11  1  0
 11 12  1  1
 11 17  1  0
 12 13  2  0
 12 16  1  0
 13 14  1  0
 14 15  2  0
 15 16  1  0
 17 18  1  0
 18 19  1  0
 19 20  1  0
 20 21  1  0
 21 22  1  0
 22 23  1  1
 23 24  1  0
 24 25  1  0
M  END
