
     RDKit          3D

 26 27  0  0  0  0  0  0  0  0999 V2000
   -3.2550    1.7190    2.9650 C   0  0  0  0  0  0  0  0  0  0  0  0
   -3.5950    1.3290    1.6800 C   0  0  0  0  0  0  0  0  0  0  0  0
   -3.9570    2.3980    0.8360 C   0  0  0  0  0  0  0  0  0  0  0  0
   -4.3330    2.5590   -0.3790 C   0  0  0  0  0  0  0  0  0  0  0  0
   -4.5340    1.6770   -1.3730 O   0  0  0  0  0  0  0  0  0  0  0  0
   -3.5060   -0.0710    1.4880 C   0  0  0  0  0  0  0  0  0  0  0  0
   -3.1210   -0.7860    2.5380 O   0  0  0  0  0  0  0  0  0  0  0  0
   -3.7540   -0.8730    0.3690 N   0  0  0  0  0  0  0  0  0  0  0  0
   -3.5900   -2.3380    0.4020 C   0  0  0  0  0  0  0  0  0  0  0  0
   -2.1880   -2.6250    0.7240 C   0  0  0  0  0  0  0  0  0  0  0  0
   -1.1210   -2.6630   -0.1450 C   0  0  0  0  0  0  0  0  0  0  0  0
    0.0080   -2.9700    0.5760 C   0  0  0  0  0  0  0  0  0  0  0  0
    1.3510   -3.1470    0.1600 N   0  0  0  0  0  0  0  0  0  0  0  0
    1.7880   -2.9230   -1.4700 S   0  0  2  0  0  0  0  0  0  0  0  0
    0.8680   -3.8340   -2.2880 O   0  0  0  0  0  0  0  0  0  0  0  0
    3.1760   -3.4570   -1.7470 O   0  0  0  0  0  0  0  0  0  0  0  0
    1.5360   -1.3040   -2.0940 C   0  0  0  0  0  0  0  0  0  0  0  0
    2.2280   -0.2910   -1.4350 O   0  0  0  0  0  0  0  0  0  0  0  0
    3.6030   -0.1980   -1.3260 C   0  0  0  0  0  0  0  0  0  0  0  0
    4.2860   -1.1110   -1.8750 O   0  0  0  0  0  0  0  0  0  0  0  0
    4.2340    0.8770   -0.6270 N   0  0  0  0  0  0  0  0  0  0  0  0
    3.7870    2.0470    0.0900 C   0  0  0  0  0  0  0  0  0  0  0  0
    5.1410    2.6680   -0.1320 C   0  0  0  0  0  0  0  0  0  0  0  0
    5.5970    1.2530   -0.3390 C   0  0  0  0  0  0  0  0  0  0  0  0
   -0.4420   -3.1040    1.8590 N   0  0  0  0  0  0  0  0  0  0  0  0
   -1.7110   -2.8990    1.9080 O   0  0  0  0  0  0  0  0  0  0  0  0
  1  2  2  0
  2  3  1  0
  2  6  1  0
  3  4  2  3
  4  5  1  0
  6  7  2  0
  6  8  1  0
  8  9  1  0
  9 10  1  0
 10 11  2  0
 10 26  1  0
 11 12  1  0
 12 13  1  0
 12 25  2  0
 13 14  1  0
 14 15  2  0
 14 16  2  0
 14 17  1  6
 17 18  1  0
 18 19  1  0
 19 20  2  0
 19 21  1  0
 21 22  1  0
 21 24  1  0
 22 23  1  0
 23 24  1  0
 25 26  1  0
M  END
