
     RDKit          3D

 11 12  0  0  0  0  0  0  0  0999 V2000
    3.5820   -0.1000   -0.2030 C   0  0  0  0  0  0  0  0  0  0  0  0
    2.4470   -0.9100   -0.0280 O   0  0  0  0  0  0  0  0  0  0  0  0
    1.1550   -0.4050    0.0100 C   0  0  0  0  0  0  0  0  0  0  0  0
    0.9960    0.9560   -0.1320 C   0  0  0  0  0  0  0  0  0  0  0  0
   -0.2750    1.4830   -0.0980 C   0  0  0  0  0  0  0  0  0  0  0  0
   -1.3640    0.6270    0.0780 C   0  0  0  0  0  0  0  0  0  0  0  0
   -2.6990    0.8500    0.1510 N   0  0  0  0  0  0  0  0  0  0  0  0
   -3.3530   -0.3110    0.3300 C   0  0  0  0  0  0  0  0  0  0  0  0
   -2.4420   -1.3440    0.3800 C   0  0  0  0  0  0  0  0  0  0  0  0
   -1.2150   -0.7360    0.2210 C   0  0  0  0  0  0  0  0  0  0  0  0
    0.0790   -1.2490    0.1840 C   0  0  0  0  0  0  0  0  0  0  0  0
  1  2  1  0
  2  3  1  0
  3  4  2  0
  3 11  1  0
  4  5  1  0
  5  6  2  0
  6  7  1  0
  6 10  1  0
  7  8  1  0
  8  9  2  0
  9 10  1  0
 10 11  2  0
M  END
