
     RDKit          3D

 21 22  0  0  0  0  0  0  0  0999 V2000
    5.3790   -0.1380   -1.1810 C   0  0  0  0  0  0  0  0  0  0  0  0
    3.8560    0.0610   -1.2820 C   0  0  0  0  0  0  0  0  0  0  0  0
    3.3130   -0.2260    0.0710 C   0  0  0  0  0  0  0  0  0  0  0  0
    1.8850   -0.1130    0.2750 C   0  0  0  0  0  0  0  0  0  0  0  0
    1.3850    1.0660    0.8350 C   0  0  0  0  0  0  0  0  0  0  0  0
    0.0220    1.2490    1.0390 C   0  0  0  0  0  0  0  0  0  0  0  0
   -0.8830    0.2790    0.6980 C   0  0  0  0  0  0  0  0  0  0  0  0
   -0.3520   -0.8830    0.1440 C   0  0  0  0  0  0  0  0  0  0  0  0
    0.9970   -1.0910   -0.0690 C   0  0  0  0  0  0  0  0  0  0  0  0
    1.4510   -2.3690   -0.6450 C   0  0  0  0  0  0  0  0  0  0  0  0
    0.3790   -3.2300   -0.9090 O   0  0  0  0  0  0  0  0  0  0  0  0
   -2.3090    0.4520    0.9110 C   0  0  2  0  0  0  0  0  0  0  0  0
   -2.6570   -0.0710    2.2900 C   0  0  0  0  0  0  0  0  0  0  0  0
   -3.1690   -0.3040   -0.0910 C   0  0  0  0  0  0  0  0  0  0  0  0
   -2.9840    0.1260   -1.5060 C   0  0  2  0  0  0  0  0  0  0  0  0
   -3.8170   -0.6370   -2.3610 O   0  0  0  0  0  0  0  0  0  0  0  0
   -1.7190    0.0720   -2.0220 O   0  0  0  0  0  0  0  0  0  0  0  0
   -2.6850    1.9180    0.8880 C   0  0  0  0  0  0  0  0  0  0  0  0
   -1.8310    2.6300    1.8650 C   0  0  0  0  0  0  0  0  0  0  0  0
   -2.2280    3.3220    2.8170 O   0  0  0  0  0  0  0  0  0  0  0  0
   -0.4140    2.4720    1.6400 N   0  0  0  0  0  0  0  0  0  0  0  0
  1  2  1  0
  2  3  1  0
  3  4  1  0
  4  5  2  0
  4  9  1  0
  5  6  1  0
  6  7  2  0
  6 21  1  0
  7  8  1  0
  7 12  1  0
  8  9  2  0
  9 10  1  0
 10 11  1  0
 12 13  1  1
 12 14  1  0
 12 18  1  0
 14 15  1  0
 15 16  1  6
 15 17  1  0
 18 19  1  0
 19 20  2  0
 19 21  1  0
M  END
