
     RDKit          3D

 21 21  0  0  0  0  0  0  0  0999 V2000
   -5.9440    0.6630    2.3020 C   0  0  0  0  0  0  0  0  0  0  0  0
   -4.6310    0.5740    1.7890 O   0  0  0  0  0  0  0  0  0  0  0  0
   -4.4340    0.8970    0.4580 C   0  0  0  0  0  0  0  0  0  0  0  0
   -5.4190    1.2550   -0.2430 O   0  0  0  0  0  0  0  0  0  0  0  0
   -3.0560    0.8070   -0.0930 C   0  0  0  0  0  0  0  0  0  0  0  0
   -2.9650   -0.5000   -0.8360 C   0  0  2  0  0  0  0  0  0  0  0  0
   -4.0410   -0.4130   -1.9350 C   0  0  0  0  0  0  0  0  0  0  0  0
   -3.3570   -1.5680   -0.0300 O   0  0  0  0  0  0  0  0  0  0  0  0
   -1.6820   -0.7250   -1.5370 C   0  0  0  0  0  0  0  0  0  0  0  0
   -0.4590   -0.7370   -0.6600 C   0  0  1  0  0  0  0  0  0  0  0  0
   -0.5700   -1.8340    0.3720 C   0  0  0  0  0  0  0  0  0  0  0  0
    0.7100   -0.9650   -1.5960 C   0  0  0  0  0  0  0  0  0  0  0  0
    2.0440   -1.0160   -0.9400 C   0  0  0  0  0  0  0  0  0  0  0  0
    2.3800    0.2600   -0.2190 C   0  0  0  0  0  0  0  0  0  0  0  0
    3.7160    0.2300    0.4450 C   0  0  0  0  0  0  0  0  0  0  0  0
    3.8380    0.3830    1.7590 C   0  0  0  0  0  0  0  0  0  0  0  0
    5.1210    0.3670    2.4970 C   0  0  0  0  0  0  0  0  0  0  0  0
    6.2580    0.1790    1.6570 N   0  0  0  0  0  0  0  0  0  0  0  0
    6.1370    0.0160    0.2620 C   0  0  0  0  0  0  0  0  0  0  0  0
    4.9350    0.0390   -0.3240 C   0  0  0  0  0  0  0  0  0  0  0  0
    4.8620   -0.1240   -1.6920 O   0  0  0  0  0  0  0  0  0  0  0  0
  1  2  1  0
  2  3  1  0
  3  4  2  0
  3  5  1  0
  5  6  1  0
  6  7  1  6
  6  8  1  0
  6  9  1  0
  9 10  1  0
 10 11  1  1
 10 12  1  0
 12 13  1  0
 13 14  1  0
 14 15  1  0
 15 16  2  0
 15 20  1  0
 16 17  1  0
 17 18  1  0
 18 19  1  0
 19 20  2  0
 20 21  1  0
M  END
