
     RDKit          3D

 21 22  0  0  0  0  0  0  0  0999 V2000
    5.3150    1.2460   -2.5360 C   0  0  0  0  0  0  0  0  0  0  0  0
    4.0400    1.0100   -1.9390 O   0  0  0  0  0  0  0  0  0  0  0  0
    3.9420    0.5500   -0.6260 C   0  0  0  0  0  0  0  0  0  0  0  0
    5.0900    0.3200    0.1010 C   0  0  0  0  0  0  0  0  0  0  0  0
    4.9950   -0.1370    1.4080 C   0  0  0  0  0  0  0  0  0  0  0  0
    6.1530   -0.3710    2.1500 O   0  0  0  0  0  0  0  0  0  0  0  0
    3.7500   -0.3430    1.9190 C   0  0  0  0  0  0  0  0  0  0  0  0
    2.5720   -0.1170    1.1960 C   0  0  0  0  0  0  0  0  0  0  0  0
    1.4130   -0.3660    1.8480 O   0  0  0  0  0  0  0  0  0  0  0  0
    0.0950   -0.2930    1.4610 C   0  0  0  0  0  0  0  0  0  0  0  0
   -0.2370   -1.2700    0.4010 C   0  0  0  0  0  0  0  0  0  0  0  0
   -1.6760   -1.2160   -0.0620 C   0  0  1  0  0  0  0  0  0  0  0  0
   -2.6670   -1.4810    1.0050 C   0  0  0  0  0  0  0  0  0  0  0  0
   -3.4190   -0.2780    1.4940 C   0  0  0  0  0  0  0  0  0  0  0  0
   -3.9420    0.5980    0.4030 C   0  0  0  0  0  0  0  0  0  0  0  0
   -3.4540    0.1760   -0.9680 C   0  0  1  0  0  0  0  0  0  0  0  0
   -4.0420   -1.0920   -1.2960 N   0  0  0  0  0  0  0  0  0  0  0  0
   -3.8290    1.2060   -1.9890 C   0  0  0  0  0  0  0  0  0  0  0  0
   -3.2870    2.4420   -1.7180 O   0  0  0  0  0  0  0  0  0  0  0  0
   -1.9290    0.0550   -0.8410 C   0  0  0  0  0  0  0  0  0  0  0  0
    2.6940    0.3390   -0.0990 C   0  0  0  0  0  0  0  0  0  0  0  0
  1  2  1  0
  2  3  1  0
  3  4  2  0
  3 21  1  0
  4  5  1  0
  5  6  1  0
  5  7  2  0
  7  8  1  0
  8  9  1  0
  8 21  2  0
  9 10  1  0
 10 11  1  0
 12 11  1  1
 12 13  1  0
 12 20  1  0
 13 14  1  0
 14 15  1  0
 15 16  1  0
 16 17  1  6
 16 18  1  0
 16 20  1  0
 18 19  1  0
M  END
