
     RDKit          3D

 21 22  0  0  0  0  0  0  0  0999 V2000
   -1.7340    2.3880    1.0080 C   0  0  0  0  0  0  0  0  0  0  0  0
   -1.0480    1.3340    0.2360 C   0  0  0  0  0  0  0  0  0  0  0  0
    0.1380    1.4990   -0.3230 C   0  0  0  0  0  0  0  0  0  0  0  0
    0.9520    2.7350   -0.2760 C   0  0  0  0  0  0  0  0  0  0  0  0
    2.1950    2.7450   -0.9440 N   0  0  0  0  0  0  0  0  0  0  0  0
    0.5440    3.7430    0.3400 O   0  0  0  0  0  0  0  0  0  0  0  0
    0.4860    0.2610   -1.0010 C   0  0  1  0  0  0  0  0  0  0  0  0
    1.7240   -0.3150   -0.3960 C   0  0  0  0  0  0  0  0  0  0  0  0
    2.2160    0.2380    0.6940 C   0  0  0  0  0  0  0  0  0  0  0  0
    3.4460   -0.2210    1.4110 C   0  0  0  0  0  0  0  0  0  0  0  0
    4.1010   -1.2650    0.7950 O   0  0  0  0  0  0  0  0  0  0  0  0
    3.5970   -1.8390   -0.3370 C   0  0  0  0  0  0  0  0  0  0  0  0
    4.2740   -2.9180   -0.9150 O   0  0  0  0  0  0  0  0  0  0  0  0
    2.4680   -1.4270   -0.9460 C   0  0  0  0  0  0  0  0  0  0  0  0
    2.0500   -2.0700   -2.0820 O   0  0  0  0  0  0  0  0  0  0  0  0
   -0.6830   -0.6280   -0.8030 C   0  0  0  0  0  0  0  0  0  0  0  0
   -0.8360   -1.9910   -1.3690 C   0  0  0  0  0  0  0  0  0  0  0  0
   -1.5840    0.0130   -0.0570 C   0  0  0  0  0  0  0  0  0  0  0  0
   -2.8590   -0.5840    0.3650 C   0  0  2  0  0  0  0  0  0  0  0  0
   -4.0510    0.2310   -0.1670 C   0  0  0  0  0  0  0  0  0  0  0  0
   -3.0420   -0.6570    1.8510 C   0  0  0  0  0  0  0  0  0  0  0  0
  1  2  1  0
  2  3  2  0
  2 18  1  0
  3  4  1  0
  3  7  1  0
  4  5  1  0
  4  6  2  0
  7  8  1  1
  7 16  1  0
  8  9  2  0
  8 14  1  0
  9 10  1  0
 10 11  1  0
 11 12  1  0
 12 13  1  0
 12 14  2  0
 14 15  1  0
 16 17  1  0
 16 18  2  0
 18 19  1  0
 19 20  1  6
 19 21  1  0
M  END
