
     RDKit          3D

 16 16  0  0  0  0  0  0  0  0999 V2000
   -2.4310   -1.9040    1.2210 C   0  0  0  0  0  0  0  0  0  0  0  0
   -2.5520   -1.2880   -0.1370 C   0  0  1  0  0  0  0  0  0  0  0  0
   -3.5990   -0.2360   -0.1990 C   0  0  0  0  0  0  0  0  0  0  0  0
   -1.2020   -0.8500   -0.7170 C   0  0  0  0  0  0  0  0  0  0  0  0
   -0.5000    0.1530    0.1070 C   0  0  1  0  0  0  0  0  0  0  0  0
    0.8010    0.6670   -0.3530 C   0  0  0  0  0  0  0  0  0  0  0  0
    1.9470   -0.2110   -0.5590 C   0  0  1  0  0  0  0  0  0  0  0  0
    1.7800   -1.2690   -1.5870 C   0  0  0  0  0  0  0  0  0  0  0  0
    3.1510    0.6420   -0.9980 C   0  0  0  0  0  0  0  0  0  0  0  0
    4.3670   -0.0390   -0.4590 C   0  0  0  0  0  0  0  0  0  0  0  0
    3.8760   -1.3020    0.2070 C   0  0  0  0  0  0  0  0  0  0  0  0
    2.4970   -0.8450    0.7030 C   0  0  0  0  0  0  0  0  0  0  0  0
   -1.3470    1.2790    0.2560 O   0  0  0  0  0  0  0  0  0  0  0  0
   -1.6530    1.5860    1.5470 C   0  0  0  0  0  0  0  0  0  0  0  0
   -2.5700    2.8160    1.4890 C   0  0  0  0  0  0  0  0  0  0  0  0
   -2.9140    3.1740    2.7920 O   0  0  0  0  0  0  0  0  0  0  0  0
  2  1  1  1
  2  3  1  0
  2  4  1  0
  5  4  1  6
  5  6  1  0
  5 13  1  0
  6  7  1  0
  7  8  1  6
  7  9  1  0
  7 12  1  0
  9 10  1  0
 10 11  1  0
 11 12  1  0
 13 14  1  0
 14 15  1  0
 15 16  1  0
M  END
