
     RDKit          3D

 12 13  0  0  0  0  0  0  0  0999 V2000
    3.7080   -1.0900    0.7140 O   0  0  0  0  0  0  0  0  0  0  0  0
    3.1410   -0.1020    0.1810 C   0  0  0  0  0  0  0  0  0  0  0  0
    3.9440    0.9100   -0.2930 O   0  0  0  0  0  0  0  0  0  0  0  0
    1.6800   -0.0630    0.0860 C   0  0  0  0  0  0  0  0  0  0  0  0
    0.8190   -1.0240    0.5310 C   0  0  0  0  0  0  0  0  0  0  0  0
   -0.4800   -0.5890    0.2420 C   0  0  0  0  0  0  0  0  0  0  0  0
   -1.7240   -1.1440    0.4610 C   0  0  0  0  0  0  0  0  0  0  0  0
   -2.8400   -0.4170    0.0320 C   0  0  0  0  0  0  0  0  0  0  0  0
   -2.7110    0.8020   -0.5830 C   0  0  0  0  0  0  0  0  0  0  0  0
   -1.4570    1.3170   -0.7800 C   0  0  0  0  0  0  0  0  0  0  0  0
   -0.3060    0.6340   -0.3720 C   0  0  0  0  0  0  0  0  0  0  0  0
    0.9800    0.9100   -0.4460 O   0  0  0  0  0  0  0  0  0  0  0  0
  1  2  2  0
  2  3  1  0
  2  4  1  0
  4  5  2  0
  4 12  1  0
  5  6  1  0
  6  7  2  0
  6 11  1  0
  7  8  1  0
  8  9  2  0
  9 10  1  0
 10 11  2  0
 11 12  1  0
M  END
