
     RDKit          3D

 16 16  0  0  0  0  0  0  0  0999 V2000
    4.4480   -1.8800    0.1720 C   0  0  0  0  0  0  0  0  0  0  0  0
    4.4060   -0.6680   -0.3450 C   0  0  0  0  0  0  0  0  0  0  0  0
    3.1970    0.1380   -0.2990 C   0  0  0  0  0  0  0  0  0  0  0  0
    3.2230    1.3420   -0.8350 C   0  0  0  0  0  0  0  0  0  0  0  0
    4.4400    1.8820   -1.4720 C   0  0  0  0  0  0  0  0  0  0  0  0
    2.0940   -0.3980    0.2990 O   0  0  0  0  0  0  0  0  0  0  0  0
    0.7560   -0.0520    0.0100 C   0  0  0  0  0  0  0  0  0  0  0  0
   -0.1320   -0.8690    0.8840 C   0  0  0  0  0  0  0  0  0  0  0  0
   -1.6000   -0.6040    0.6840 C   0  0  2  0  0  0  0  0  0  0  0  0
   -2.3360   -1.5210    1.6520 C   0  0  0  0  0  0  0  0  0  0  0  0
   -1.9310   -1.2080    2.9570 O   0  0  0  0  0  0  0  0  0  0  0  0
   -2.0510   -0.9200   -0.7200 C   0  0  0  0  0  0  0  0  0  0  0  0
   -3.4590   -0.4320   -0.9230 C   0  0  0  0  0  0  0  0  0  0  0  0
   -3.6060    1.0440   -0.7560 C   0  0  0  0  0  0  0  0  0  0  0  0
   -2.3110    1.6160   -0.2330 C   0  0  0  0  0  0  0  0  0  0  0  0
   -1.9230    0.8330    1.0010 C   0  0  0  0  0  0  0  0  0  0  0  0
  1  2  2  0
  2  3  1  0
  3  4  2  3
  3  6  1  0
  4  5  1  0
  6  7  1  0
  7  8  1  0
  9  8  1  6
  9 10  1  0
  9 12  1  0
  9 16  1  0
 10 11  1  0
 12 13  1  0
 13 14  1  0
 14 15  1  0
 15 16  1  0
M  END
