
     RDKit          3D

 25 26  0  0  0  0  0  0  0  0999 V2000
   -3.7400   -2.9970    0.4690 C   0  0  0  0  0  0  0  0  0  0  0  0
   -4.2400   -2.0170    1.4820 C   0  0  0  0  0  0  0  0  0  0  0  0
   -4.4550   -0.7260    0.9960 O   0  0  0  0  0  0  0  0  0  0  0  0
   -3.4870    0.0950    0.4280 C   0  0  0  0  0  0  0  0  0  0  0  0
   -2.1800   -0.3030    0.2880 C   0  0  0  0  0  0  0  0  0  0  0  0
   -1.2380    0.5250   -0.2780 C   0  0  0  0  0  0  0  0  0  0  0  0
    0.0790    0.1080   -0.4120 O   0  0  0  0  0  0  0  0  0  0  0  0
    0.5180   -1.1670    0.0170 C   0  0  0  0  0  0  0  0  0  0  0  0
    1.9690   -1.2930   -0.2710 C   0  0  0  0  0  0  0  0  0  0  0  0
    2.4510   -1.7920   -1.4610 C   0  0  0  0  0  0  0  0  0  0  0  0
    3.8080   -1.8860   -1.6730 C   0  0  0  0  0  0  0  0  0  0  0  0
    4.7300   -1.4840   -0.7000 C   0  0  0  0  0  0  0  0  0  0  0  0
    6.0880   -1.6510   -1.0260 N   0  0  0  0  0  0  0  0  0  0  0  0
    6.9340   -0.5330   -1.3080 C   0  0  0  0  0  0  0  0  0  0  0  0
    6.9280    0.4710   -0.1910 C   0  0  0  0  0  0  0  0  0  0  0  0
    7.8650    1.5330   -0.6070 N   0  0  0  0  0  0  0  0  0  0  0  0
    4.2490   -0.9890    0.4820 C   0  0  0  0  0  0  0  0  0  0  0  0
    2.8760   -0.8990    0.6830 C   0  0  0  0  0  0  0  0  0  0  0  0
   -1.6630    1.7630   -0.6940 C   0  0  0  0  0  0  0  0  0  0  0  0
   -2.9980    2.1790   -0.5550 C   0  0  0  0  0  0  0  0  0  0  0  0
   -3.9410    1.3590    0.0070 C   0  0  0  0  0  0  0  0  0  0  0  0
   -5.3620    1.7200    0.1890 C   0  0  0  0  0  0  0  0  0  0  0  0
   -5.7450    3.0020   -0.2550 N   0  0  0  0  0  0  0  0  0  0  0  0
   -7.0990    3.4090   -0.1110 C   0  0  0  0  0  0  0  0  0  0  0  0
   -7.9200    2.6200    0.4740 N   0  0  0  0  0  0  0  0  0  0  0  0
  1  2  1  0
  2  3  1  0
  3  4  1  0
  4  5  2  0
  4 21  1  0
  5  6  1  0
  6  7  1  0
  6 19  2  0
  7  8  1  0
  8  9  1  0
  9 10  2  0
  9 18  1  0
 10 11  1  0
 11 12  2  0
 12 13  1  0
 12 17  1  0
 13 14  1  0
 14 15  1  0
 15 16  1  0
 17 18  2  0
 19 20  1  0
 20 21  2  0
 21 22  1  0
 22 23  1  0
 23 24  1  0
 24 25  2  0
M  CHG  2  16   1  25   1
M  END
