
     RDKit          3D

 27 30  0  0  0  0  0  0  0  0999 V2000
   -6.8850    1.0550    0.8390 C   0  0  0  0  0  0  0  0  0  0  0  0
   -6.3570    0.3300   -0.2540 O   0  0  0  0  0  0  0  0  0  0  0  0
   -5.4800   -0.7150   -0.1370 C   0  0  0  0  0  0  0  0  0  0  0  0
   -5.8870   -2.0220   -0.0110 C   0  0  0  0  0  0  0  0  0  0  0  0
   -7.6130   -2.3260   -0.0050 Cl  0  0  0  0  0  0  0  0  0  0  0  0
   -4.9480   -3.0240    0.1020 C   0  0  0  0  0  0  0  0  0  0  0  0
   -3.6400   -2.7370    0.0920 N   0  0  0  0  0  0  0  0  0  0  0  0
   -3.1840   -1.4830   -0.0270 C   0  0  0  0  0  0  0  0  0  0  0  0
   -4.1020   -0.4790   -0.1410 C   0  0  0  0  0  0  0  0  0  0  0  0
   -3.4320    0.6960   -0.2490 C   0  0  0  0  0  0  0  0  0  0  0  0
   -4.0390    2.0360   -0.3920 C   0  0  0  0  0  0  0  0  0  0  0  0
   -2.1010    0.3580   -0.1970 N   0  0  0  0  0  0  0  0  0  0  0  0
   -1.9150   -0.9170   -0.0660 N   0  0  0  0  0  0  0  0  0  0  0  0
   -0.7630   -1.7040    0.0290 C   0  0  0  0  0  0  0  0  0  0  0  0
   -0.9610   -3.0090    0.1570 O   0  0  0  0  0  0  0  0  0  0  0  0
    0.5910   -1.3010    0.0070 C   0  0  0  0  0  0  0  0  0  0  0  0
    1.0960   -0.1130   -0.1040 C   0  0  0  0  0  0  0  0  0  0  0  0
    2.5940    0.0350   -0.0980 C   0  0  0  0  0  0  0  0  0  0  0  0
    3.4940   -0.9960    0.0180 C   0  0  0  0  0  0  0  0  0  0  0  0
    4.7600   -0.4230   -0.0220 C   0  0  0  0  0  0  0  0  0  0  0  0
    5.9890   -1.0300    0.0560 C   0  0  0  0  0  0  0  0  0  0  0  0
    7.1330   -0.2220   -0.0090 C   0  0  0  0  0  0  0  0  0  0  0  0
    6.9140    1.1340   -0.1480 C   0  0  0  0  0  0  0  0  0  0  0  0
    8.0680    2.0660   -0.2250 C   0  0  0  0  0  0  0  0  0  0  0  0
    5.6830    1.6890   -0.2210 N   0  0  0  0  0  0  0  0  0  0  0  0
    4.5800    0.9170   -0.1590 C   0  0  0  0  0  0  0  0  0  0  0  0
    3.2480    1.1890   -0.2050 N   0  0  0  0  0  0  0  0  0  0  0  0
  1  2  1  0
  2  3  1  0
  3  4  2  0
  3  9  1  0
  4  5  1  0
  4  6  1  0
  6  7  2  0
  7  8  1  0
  8  9  2  0
  8 13  1  0
  9 10  1  0
 10 11  1  0
 10 12  2  0
 12 13  1  0
 13 14  1  0
 14 15  2  0
 14 16  1  0
 16 17  2  3
 17 18  1  0
 18 19  2  0
 18 27  1  0
 19 20  1  0
 20 21  2  0
 20 26  1  0
 21 22  1  0
 22 23  2  0
 23 24  1  0
 23 25  1  0
 25 26  2  0
 26 27  1  0
M  CHG  1  12   1
M  END
