
     RDKit          3D

 28 31  0  0  0  0  0  0  0  0999 V2000
    3.9460   -1.1100   -2.0820 C   0  0  0  0  0  0  0  0  0  0  0  0
    3.2050   -0.9370   -0.7860 C   0  0  0  0  0  0  0  0  0  0  0  0
    3.7350   -0.1490    0.1170 C   0  0  0  0  0  0  0  0  0  0  0  0
    4.9940    0.5570   -0.0750 C   0  0  0  0  0  0  0  0  0  0  0  0
    5.5060    1.3500    0.8630 C   0  0  0  0  0  0  0  0  0  0  0  0
    7.0170    2.2000    0.6370 Cl  0  0  0  0  0  0  0  0  0  0  0  0
    4.7990    1.5280    2.1240 C   0  0  0  0  0  0  0  0  0  0  0  0
    3.6530    0.9340    2.3980 C   0  0  0  0  0  0  0  0  0  0  0  0
    2.8530    1.1870    3.9280 Cl  0  0  0  0  0  0  0  0  0  0  0  0
    3.0460    0.0440    1.3860 C   0  0  0  0  0  0  0  0  0  0  0  0
    1.9670   -0.5090    1.6560 O   0  0  0  0  0  0  0  0  0  0  0  0
    1.9830   -1.6290   -0.6140 N   0  0  0  0  0  0  0  0  0  0  0  0
    1.8420   -2.9040   -0.2280 C   0  0  0  0  0  0  0  0  0  0  0  0
    0.5110   -3.2400   -0.1680 C   0  0  0  0  0  0  0  0  0  0  0  0
   -0.1810   -2.0780   -0.5470 C   0  0  0  0  0  0  0  0  0  0  0  0
   -1.6480   -1.9940   -0.6210 C   0  0  0  0  0  0  0  0  0  0  0  0
   -2.3210   -3.0320   -0.3200 O   0  0  0  0  0  0  0  0  0  0  0  0
   -2.3380   -0.8350   -1.0030 N   0  0  0  0  0  0  0  0  0  0  0  0
   -1.6490    0.3600   -1.3690 C   0  0  0  0  0  0  0  0  0  0  0  0
   -1.6740    1.3910   -0.2520 C   0  0  0  0  0  0  0  0  0  0  0  0
   -3.0830    1.7280    0.0950 C   0  0  0  0  0  0  0  0  0  0  0  0
   -3.5220    3.0450    0.2100 C   0  0  0  0  0  0  0  0  0  0  0  0
   -4.8250    3.0470    0.5260 N   0  0  0  0  0  0  0  0  0  0  0  0
   -5.2200    1.7690    0.6130 C   0  0  0  0  0  0  0  0  0  0  0  0
   -4.1530    0.9710    0.3500 N   0  0  0  0  0  0  0  0  0  0  0  0
   -4.2850   -0.4570    0.3780 C   0  0  0  0  0  0  0  0  0  0  0  0
   -3.8130   -1.0100   -0.9510 C   0  0  0  0  0  0  0  0  0  0  0  0
    0.7590   -1.1770   -0.7920 N   0  0  0  0  0  0  0  0  0  0  0  0
  1  2  1  0
  2  3  2  3
  2 12  1  0
  3  4  1  0
  3 10  1  0
  4  5  2  0
  5  6  1  0
  5  7  1  0
  7  8  2  0
  8  9  1  0
  8 10  1  0
 10 11  2  0
 12 13  1  0
 12 28  1  0
 13 14  2  0
 14 15  1  0
 15 16  1  0
 15 28  2  0
 16 17  2  0
 16 18  1  0
 18 19  1  0
 18 27  1  0
 19 20  1  0
 20 21  1  0
 21 22  2  0
 21 25  1  0
 22 23  1  0
 23 24  2  0
 24 25  1  0
 25 26  1  0
 26 27  1  0
M  CHG  1  23   1
M  END
