
     RDKit          3D

 28 31  0  0  0  0  0  0  0  0999 V2000
    7.7950    1.3760    1.8680 C   0  0  0  0  0  0  0  0  0  0  0  0
    6.8610    0.9690    1.1060 O   0  0  0  0  0  0  0  0  0  0  0  0
    5.9390    0.5950    0.3250 C   0  0  0  0  0  0  0  0  0  0  0  0
    5.2690   -0.6280    0.8110 C   0  0  0  0  0  0  0  0  0  0  0  0
    4.2780   -1.1040    0.0480 C   0  0  0  0  0  0  0  0  0  0  0  0
    3.8650   -0.5110   -1.1200 C   0  0  0  0  0  0  0  0  0  0  0  0
    2.5660   -0.9270   -1.7370 C   0  0  2  0  0  0  0  0  0  0  0  0
    1.6960    0.3180   -1.5190 C   0  0  0  0  0  0  0  0  0  0  0  0
    0.3440    0.0280   -1.1790 N   0  0  0  0  0  0  0  0  0  0  0  0
   -0.5760    1.0660   -1.4220 C   0  0  0  0  0  0  0  0  0  0  0  0
   -1.7510    1.0510   -0.5590 C   0  0  0  0  0  0  0  0  0  0  0  0
   -1.8560    2.1530    0.3040 C   0  0  0  0  0  0  0  0  0  0  0  0
   -0.4700    3.2390    0.5060 Cl  0  0  0  0  0  0  0  0  0  0  0  0
   -2.9910    2.3670    1.0130 C   0  0  0  0  0  0  0  0  0  0  0  0
   -3.0810    3.6550    2.2780 Cl  0  0  0  0  0  0  0  0  0  0  0  0
   -4.0620    1.5430    0.8940 C   0  0  0  0  0  0  0  0  0  0  0  0
   -3.9360    0.4590    0.0300 C   0  0  0  0  0  0  0  0  0  0  0  0
   -4.8860   -0.5360   -0.2340 C   0  0  0  0  0  0  0  0  0  0  0  0
   -6.3260   -0.3020    0.1150 C   0  0  0  0  0  0  0  0  0  0  0  0
   -6.9130   -0.9990    1.1920 N   0  0  0  0  0  0  0  0  0  0  0  0
   -4.2940   -1.4120   -1.0890 C   0  0  0  0  0  0  0  0  0  0  0  0
   -3.0430   -0.9700   -1.3730 N   0  0  0  0  0  0  0  0  0  0  0  0
   -2.7890    0.2040   -0.6820 C   0  0  0  0  0  0  0  0  0  0  0  0
    0.1700   -0.7080    0.0050 C   0  0  0  0  0  0  0  0  0  0  0  0
    1.4380   -1.5190    0.2170 C   0  0  0  0  0  0  0  0  0  0  0  0
    2.0050   -1.9370   -0.9510 O   0  0  0  0  0  0  0  0  0  0  0  0
    4.5010    0.6130   -1.5180 N   0  0  0  0  0  0  0  0  0  0  0  0
    5.4630    1.0850   -0.8250 N   0  0  0  0  0  0  0  0  0  0  0  0
  1  2  1  0
  2  3  1  0
  3  4  2  0
  3 28  1  0
  4  5  1  0
  5  6  2  0
  7  6  1  1
  6 27  1  0
  7  8  1  0
  7 26  1  0
  8  9  1  0
  9 10  1  0
  9 24  1  0
 10 11  1  0
 11 12  2  0
 11 23  1  0
 12 13  1  0
 12 14  1  0
 14 15  1  0
 14 16  2  0
 16 17  1  0
 17 18  1  0
 17 23  2  0
 18 19  1  0
 18 21  2  0
 19 20  1  0
 21 22  1  0
 22 23  1  0
 24 25  1  0
 25 26  1  0
 27 28  2  0
M  CHG  1  20   1
M  END
