
     RDKit          3D

 27 30  0  0  0  0  0  0  0  0999 V2000
    1.2300    2.7620    3.9810 C   0  0  0  0  0  0  0  0  0  0  0  0
    1.5730    1.9530    2.8720 O   0  0  0  0  0  0  0  0  0  0  0  0
    0.5480    1.4670    2.0870 C   0  0  0  0  0  0  0  0  0  0  0  0
   -0.7860    1.7600    2.3730 C   0  0  0  0  0  0  0  0  0  0  0  0
   -1.7820    1.2610    1.5730 C   0  0  0  0  0  0  0  0  0  0  0  0
   -1.4910    0.4750    0.4910 C   0  0  0  0  0  0  0  0  0  0  0  0
   -2.5360   -0.0760   -0.3880 C   0  0  0  0  0  0  0  0  0  0  0  0
   -3.8650    0.0870   -0.2840 N   0  0  0  0  0  0  0  0  0  0  0  0
   -4.4970   -0.5590   -1.2570 N   0  0  0  0  0  0  0  0  0  0  0  0
   -5.7140   -0.8450   -1.7780 C   0  0  0  0  0  0  0  0  0  0  0  0
   -7.0430   -0.4030   -1.2810 C   0  0  0  0  0  0  0  0  0  0  0  0
   -5.5320   -1.6430   -2.8880 C   0  0  0  0  0  0  0  0  0  0  0  0
   -6.8170   -2.2830   -3.9150 Cl  0  0  0  0  0  0  0  0  0  0  0  0
   -4.1760   -1.8420   -3.0390 C   0  0  0  0  0  0  0  0  0  0  0  0
   -3.5500   -1.1600   -2.0160 C   0  0  0  0  0  0  0  0  0  0  0  0
   -2.3470   -0.8510   -1.4640 N   0  0  0  0  0  0  0  0  0  0  0  0
   -0.1480    0.1970    0.2270 C   0  0  0  0  0  0  0  0  0  0  0  0
    0.8910    0.6750    1.0010 C   0  0  0  0  0  0  0  0  0  0  0  0
    2.2500    0.4090    0.7560 N   0  0  0  0  0  0  0  0  0  0  0  0
    2.7980   -0.3620   -0.2810 C   0  0  0  0  0  0  0  0  0  0  0  0
    2.0170   -0.8930   -1.1050 O   0  0  0  0  0  0  0  0  0  0  0  0
    4.2610   -0.5660   -0.4290 C   0  0  0  0  0  0  0  0  0  0  0  0
    4.7190   -1.3310   -1.4650 C   0  0  0  0  0  0  0  0  0  0  0  0
    6.0480   -1.5610   -1.6620 C   0  0  0  0  0  0  0  0  0  0  0  0
    6.9330   -0.9870   -0.7660 C   0  0  0  0  0  0  0  0  0  0  0  0
    6.4370   -0.2230    0.2640 C   0  0  0  0  0  0  0  0  0  0  0  0
    5.0950   -0.0120    0.4340 N   0  0  0  0  0  0  0  0  0  0  0  0
  1  2  1  0
  2  3  1  0
  3  4  2  0
  3 18  1  0
  4  5  1  0
  5  6  2  0
  6  7  1  0
  6 17  1  0
  7  8  2  0
  7 16  1  0
  8  9  1  0
  9 10  1  0
  9 15  1  0
 10 11  1  0
 10 12  2  0
 12 13  1  0
 12 14  1  0
 14 15  2  0
 15 16  1  0
 17 18  2  0
 18 19  1  0
 19 20  1  0
 20 21  2  0
 20 22  1  0
 22 23  2  0
 22 27  1  0
 23 24  1  0
 24 25  2  0
 25 26  1  0
 26 27  2  0
M  CHG  1  27   1
M  END
