
     RDKit          3D

 28 30  0  0  0  0  0  0  0  0999 V2000
    8.1340    1.0470   -0.4210 C   0  0  0  0  0  0  0  0  0  0  0  0
    7.5470   -0.2790    0.0100 C   0  0  0  0  0  0  0  0  0  0  0  0
    6.0410   -0.0440    0.1590 C   0  0  0  0  0  0  0  0  0  0  0  0
    5.7180    1.3960    1.1380 Cl  0  0  0  0  0  0  0  0  0  0  0  0
    5.1790   -0.6910   -0.5290 C   0  0  0  0  0  0  0  0  0  0  0  0
    3.8150   -0.8210   -0.7070 C   0  0  0  0  0  0  0  0  0  0  0  0
    2.6470   -0.5670   -0.1630 C   0  0  0  0  0  0  0  0  0  0  0  0
    1.4590   -0.8630   -0.8100 N   0  0  0  0  0  0  0  0  0  0  0  0
    0.4140   -0.5750   -0.0580 C   0  0  0  0  0  0  0  0  0  0  0  0
   -0.9680   -0.6830   -0.4830 N   0  0  0  0  0  0  0  0  0  0  0  0
   -2.0120   -0.5760    0.4370 C   0  0  0  0  0  0  0  0  0  0  0  0
   -1.8360   -1.0830    1.7340 C   0  0  0  0  0  0  0  0  0  0  0  0
   -2.8820   -1.0810    2.5960 C   0  0  0  0  0  0  0  0  0  0  0  0
   -4.1070   -0.5970    2.2290 C   0  0  0  0  0  0  0  0  0  0  0  0
   -4.2940   -0.0970    0.9560 C   0  0  0  0  0  0  0  0  0  0  0  0
   -3.2520   -0.0730    0.0280 C   0  0  0  0  0  0  0  0  0  0  0  0
   -3.4840    0.4470   -1.2220 C   0  0  0  0  0  0  0  0  0  0  0  0
   -2.5740    0.4830   -2.0590 O   0  0  0  0  0  0  0  0  0  0  0  0
   -4.6820    0.9240   -1.5590 N   0  0  0  0  0  0  0  0  0  0  0  0
   -4.9820    1.4830   -2.8610 C   0  0  0  0  0  0  0  0  0  0  0  0
   -5.6650    0.8900   -0.6560 C   0  0  0  0  0  0  0  0  0  0  0  0
   -6.8190    1.3410   -0.9600 O   0  0  0  0  0  0  0  0  0  0  0  0
   -5.4860    0.3930    0.5760 N   0  0  0  0  0  0  0  0  0  0  0  0
   -6.5790    0.3640    1.5580 C   0  0  0  0  0  0  0  0  0  0  0  0
    0.8330   -0.1000    1.0790 N   0  0  0  0  0  0  0  0  0  0  0  0
    2.2470   -0.1000    1.0410 C   0  0  0  0  0  0  0  0  0  0  0  0
    2.8390   -0.1190    2.2420 C   0  0  0  0  0  0  0  0  0  0  0  0
    4.3400   -0.8080    2.6540 Cl  0  0  0  0  0  0  0  0  0  0  0  0
  1  2  1  0
  2  3  1  0
  3  4  1  0
  3  5  2  3
  5  6  1  0
  6  7  2  3
  7  8  1  0
  7 26  1  0
  8  9  2  0
  9 10  1  0
  9 25  1  0
 10 11  1  0
 11 12  2  0
 11 16  1  0
 12 13  1  0
 13 14  2  0
 14 15  1  0
 15 16  2  0
 15 23  1  0
 16 17  1  0
 17 18  2  0
 17 19  1  0
 19 20  1  0
 19 21  1  0
 21 22  2  0
 21 23  1  0
 23 24  1  0
 25 26  1  0
 26 27  2  3
 27 28  1  0
M  CHG  1   8   1
M  END
