
     RDKit          3D

 28 30  0  0  0  0  0  0  0  0999 V2000
   -5.0110    2.9530    2.0620 O   0  0  0  0  0  0  0  0  0  0  0  0
   -4.9970    2.1180    1.1110 C   0  0  0  0  0  0  0  0  0  0  0  0
   -3.7240    1.3840    0.8940 C   0  0  0  0  0  0  0  0  0  0  0  0
   -3.9850    0.1740    0.1810 N   0  0  0  0  0  0  0  0  0  0  0  0
   -3.1140   -0.9710    0.3240 C   0  0  0  0  0  0  0  0  0  0  0  0
   -1.9510   -0.8860    1.0750 C   0  0  0  0  0  0  0  0  0  0  0  0
   -1.0970   -1.9550    1.2430 C   0  0  0  0  0  0  0  0  0  0  0  0
    0.1670   -1.9020    2.0270 C   0  0  0  0  0  0  0  0  0  0  0  0
    1.3260   -1.7510    1.1700 N   0  0  0  0  0  0  0  0  0  0  0  0
    1.6850   -0.5120    0.6170 C   0  0  0  0  0  0  0  0  0  0  0  0
    0.9380    0.4810    0.9200 O   0  0  0  0  0  0  0  0  0  0  0  0
    2.7860   -0.2560   -0.2360 N   0  0  0  0  0  0  0  0  0  0  0  0
    3.6020   -1.3780   -0.6100 C   0  0  0  0  0  0  0  0  0  0  0  0
    4.2450   -1.1790   -1.9590 C   0  0  0  0  0  0  0  0  0  0  0  0
    5.3680   -0.4820   -2.1070 C   0  0  0  0  0  0  0  0  0  0  0  0
    5.3340    0.7920   -1.7420 C   0  0  0  0  0  0  0  0  0  0  0  0
    6.5030    1.7850   -2.5550 Cl  0  0  0  0  0  0  0  0  0  0  0  0
    4.4400    1.4100   -0.7800 C   0  0  0  0  0  0  0  0  0  0  0  0
    4.9900    2.2510    0.0660 C   0  0  0  0  0  0  0  0  0  0  0  0
    6.3920    2.6540    0.1900 C   0  0  0  0  0  0  0  0  0  0  0  0
    6.6410    4.4060   -0.1220 Cl  0  0  0  0  0  0  0  0  0  0  0  0
    2.9750    1.1340   -0.6270 C   0  0  0  0  0  0  0  0  0  0  0  0
   -1.4760   -3.1320    0.6100 C   0  0  0  0  0  0  0  0  0  0  0  0
   -2.6320   -3.2120   -0.1350 C   0  0  0  0  0  0  0  0  0  0  0  0
   -3.4380   -2.1470   -0.2760 N   0  0  0  0  0  0  0  0  0  0  0  0
   -5.1060   -0.0040   -0.7410 C   0  0  0  0  0  0  0  0  0  0  0  0
   -5.8660    1.2540   -0.9960 C   0  0  0  0  0  0  0  0  0  0  0  0
   -6.1190    1.8850    0.2910 N   0  0  0  0  0  0  0  0  0  0  0  0
  1  2  2  0
  2  3  1  0
  2 28  1  0
  3  4  1  0
  4  5  1  0
  4 26  1  0
  5  6  2  0
  5 25  1  0
  6  7  1  0
  7  8  1  0
  7 23  2  0
  8  9  1  0
  9 10  1  0
 10 11  2  0
 10 12  1  0
 12 13  1  0
 12 22  1  0
 13 14  1  0
 14 15  2  0
 15 16  2  0
 16 17  1  0
 16 18  1  0
 18 19  2  3
 18 22  1  0
 19 20  1  0
 20 21  1  0
 23 24  1  0
 24 25  2  0
 26 27  1  0
 27 28  1  0
M  CHG  1  25   1
M  END
