
     RDKit          3D

 11 12  0  0  0  0  0  0  0  0999 V2000
    2.6350    0.2210    0.2100 C   0  0  0  0  0  0  0  0  0  0  0  0
    2.1150    1.2660   -0.4030 C   0  0  0  0  0  0  0  0  0  0  0  0
    0.7220    1.7020   -0.4710 C   0  0  0  0  0  0  0  0  0  0  0  0
   -0.2390    0.7430    0.1920 C   0  0  1  0  0  0  0  0  0  0  0  0
   -1.6270    1.3410   -0.0900 C   0  0  0  0  0  0  0  0  0  0  0  0
   -2.6340    0.6120    0.5000 O   0  0  0  0  0  0  0  0  0  0  0  0
   -2.7240   -0.5880   -0.2450 C   0  0  0  0  0  0  0  0  0  0  0  0
   -1.4830   -1.3640    0.0500 C   0  0  0  0  0  0  0  0  0  0  0  0
   -0.2140   -0.6310   -0.3470 C   0  0  2  0  0  0  0  0  0  0  0  0
    0.9210   -1.4880    0.1050 C   0  0  0  0  0  0  0  0  0  0  0  0
    1.9030   -0.8010    1.0080 C   0  0  0  0  0  0  0  0  0  0  0  0
  1  2  2  0
  1 11  1  0
  2  3  1  0
  4  3  1  6
  4  5  1  0
  4  9  1  0
  5  6  1  0
  6  7  1  0
  7  8  1  0
  9  8  1  1
  9 10  1  0
 10 11  1  0
M  END
