
     RDKit          3D

 27 30  0  0  0  0  0  0  0  0999 V2000
   -7.3430    2.4550    1.0160 N   0  0  0  0  0  0  0  0  0  0  0  0
   -6.6020    1.2980    0.6770 C   0  0  0  0  0  0  0  0  0  0  0  0
   -7.2580    0.1510    0.4010 N   0  0  0  0  0  0  0  0  0  0  0  0
   -6.5800   -0.9650    0.0780 C   0  0  0  0  0  0  0  0  0  0  0  0
   -5.2400   -0.9060    0.0360 N   0  0  0  0  0  0  0  0  0  0  0  0
   -4.5250    0.2070    0.2990 C   0  0  0  0  0  0  0  0  0  0  0  0
   -5.2130    1.3500    0.6310 C   0  0  0  0  0  0  0  0  0  0  0  0
   -4.2910    2.3120    0.8450 N   0  0  0  0  0  0  0  0  0  0  0  0
   -3.0810    1.7650    0.6480 C   0  0  0  0  0  0  0  0  0  0  0  0
   -3.1880    0.4690    0.3100 N   0  0  0  0  0  0  0  0  0  0  0  0
   -2.2240   -0.5310    0.0050 C   0  0  2  0  0  0  0  0  0  0  0  0
   -0.9060   -0.1350    0.1900 O   0  0  0  0  0  0  0  0  0  0  0  0
   -0.1120   -1.0470   -0.4850 C   0  0  2  0  0  0  0  0  0  0  0  0
    1.0050   -0.3600   -1.2410 C   0  0  0  0  0  0  0  0  0  0  0  0
    2.1020    0.5720   -0.1360 S   0  0  0  0  0  0  0  0  0  0  0  0
    3.1520   -0.7380    1.1690 S   0  0  0  0  0  0  0  0  0  0  0  0
    4.7260   -1.2920    0.4660 C   0  0  0  0  0  0  0  0  0  0  0  0
    5.7180   -0.2110    0.3240 C   0  0  0  0  0  0  0  0  0  0  0  0
    6.5770    0.0580    1.3570 C   0  0  0  0  0  0  0  0  0  0  0  0
    7.5480    1.0500    1.3180 C   0  0  0  0  0  0  0  0  0  0  0  0
    7.6390    1.8020    0.1610 C   0  0  0  0  0  0  0  0  0  0  0  0
    6.7810    1.5370   -0.8770 C   0  0  0  0  0  0  0  0  0  0  0  0
    5.8070    0.5330   -0.8230 C   0  0  0  0  0  0  0  0  0  0  0  0
   -0.9710   -1.7680   -1.4990 C   0  0  1  0  0  0  0  0  0  0  0  0
   -1.4180   -2.9960   -0.9940 O   0  0  0  0  0  0  0  0  0  0  0  0
   -2.2060   -0.8580   -1.4950 C   0  0  1  0  0  0  0  0  0  0  0  0
   -3.3470   -1.4960   -1.8950 O   0  0  0  0  0  0  0  0  0  0  0  0
  1  2  1  0
  2  3  2  0
  2  7  1  0
  3  4  1  0
  4  5  2  0
  5  6  1  0
  6  7  2  0
  6 10  1  0
  7  8  1  0
  8  9  2  0
  9 10  1  0
 11 10  1  6
 11 12  1  0
 11 26  1  0
 12 13  1  0
 13 14  1  6
 13 24  1  0
 14 15  1  0
 15 16  1  0
 16 17  1  0
 17 18  1  0
 18 19  2  0
 18 23  1  0
 19 20  1  0
 20 21  2  0
 21 22  1  0
 22 23  2  0
 24 25  1  1
 24 26  1  0
 26 27  1  1
M  END
