
     RDKit          3D

 11 12  0  0  0  0  0  0  0  0999 V2000
    2.4720    0.0820    1.3450 C   0  0  0  0  0  0  0  0  0  0  0  0
    1.3430    0.4620    0.4250 C   0  0  0  0  0  0  0  0  0  0  0  0
    1.2760    1.5190   -0.3660 C   0  0  0  0  0  0  0  0  0  0  0  0
   -0.0320    1.5190   -1.1210 C   0  0  0  0  0  0  0  0  0  0  0  0
   -0.3390    0.0200   -1.1130 C   0  0  2  0  0  0  0  0  0  0  0  0
    0.3540   -0.6490   -2.0950 O   0  0  0  0  0  0  0  0  0  0  0  0
   -1.8090   -0.1910   -1.1370 C   0  0  0  0  0  0  0  0  0  0  0  0
   -2.2370   -0.1710    0.2970 C   0  0  0  0  0  0  0  0  0  0  0  0
   -1.0290    0.2020    1.1180 C   0  0  0  0  0  0  0  0  0  0  0  0
    0.1180   -0.3090    0.2810 C   0  0  2  0  0  0  0  0  0  0  0  0
    0.2800   -1.7870    0.5040 C   0  0  0  0  0  0  0  0  0  0  0  0
  1  2  1  0
  2  3  2  0
  2 10  1  0
  3  4  1  0
  4  5  1  0
  5  6  1  6
  5  7  1  0
  5 10  1  0
  7  8  1  0
  8  9  1  0
  9 10  1  0
 10 11  1  6
M  END
