
     RDKit          3D

 21 22  0  0  0  0  0  0  0  0999 V2000
   -3.7420    0.5740   -1.4370 C   0  0  0  0  0  0  0  0  0  0  0  0
   -3.3840   -0.3180   -0.3040 C   0  0  0  0  0  0  0  0  0  0  0  0
   -2.1460   -0.1430    0.3330 C   0  0  0  0  0  0  0  0  0  0  0  0
   -1.3130    0.8860   -0.1430 N   0  0  0  0  0  0  0  0  0  0  0  0
   -0.0460    1.1790    0.3750 C   0  0  0  0  0  0  0  0  0  0  0  0
    0.4930    0.5730    1.3060 O   0  0  0  0  0  0  0  0  0  0  0  0
    0.7100    2.3120   -0.2490 C   0  0  0  0  0  0  0  0  0  0  0  0
    2.3450    2.5270    0.4670 S   0  0  0  0  0  0  0  0  0  0  0  0
    3.4640    1.1910    0.0920 C   0  0  0  0  0  0  0  0  0  0  0  0
    4.2010    1.1940   -1.0580 N   0  0  0  0  0  0  0  0  0  0  0  0
    5.0480    0.2000   -1.3790 C   0  0  0  0  0  0  0  0  0  0  0  0
    5.7260    0.2050   -2.4380 O   0  0  0  0  0  0  0  0  0  0  0  0
    5.2020   -0.8540   -0.5610 N   0  0  0  0  0  0  0  0  0  0  0  0
    4.4820   -0.8660    0.5690 C   0  0  0  0  0  0  0  0  0  0  0  0
    4.6170   -1.8460    1.3420 O   0  0  0  0  0  0  0  0  0  0  0  0
    3.6260    0.1350    0.8990 N   0  0  0  0  0  0  0  0  0  0  0  0
   -1.8790   -1.0020    1.3700 C   0  0  0  0  0  0  0  0  0  0  0  0
   -2.7510   -1.9960    1.7940 C   0  0  0  0  0  0  0  0  0  0  0  0
   -3.9190   -2.1210    1.1520 N   0  0  0  0  0  0  0  0  0  0  0  0
   -4.2230   -1.3120    0.1420 C   0  0  0  0  0  0  0  0  0  0  0  0
   -5.4540   -1.4630   -0.5160 O   0  0  0  0  0  0  0  0  0  0  0  0
  1  2  1  0
  2  3  2  0
  2 20  1  0
  3  4  1  0
  3 17  1  0
  4  5  1  0
  5  6  2  0
  5  7  1  0
  7  8  1  0
  8  9  1  0
  9 10  2  0
  9 16  1  0
 10 11  1  0
 11 12  2  0
 11 13  1  0
 13 14  1  0
 14 15  2  0
 14 16  1  0
 17 18  2  0
 18 19  1  0
 19 20  2  0
 20 21  1  0
M  CHG  2  19   1  21  -1
M  END
