
     RDKit          3D

 11 12  0  0  0  0  0  0  0  0999 V2000
    0.1060   -1.2860   -1.7070 C   0  0  0  0  0  0  0  0  0  0  0  0
    0.0240   -0.6440   -0.3510 C   0  0  1  0  0  0  0  0  0  0  0  0
    1.2510   -0.9960    0.4110 C   0  0  0  0  0  0  0  0  0  0  0  0
    2.2540    0.0930    0.5440 C   0  0  0  0  0  0  0  0  0  0  0  0
    1.5410    1.3870    0.8620 C   0  0  0  0  0  0  0  0  0  0  0  0
    0.6920    1.6730   -0.1740 O   0  0  0  0  0  0  0  0  0  0  0  0
   -0.3370    0.7940   -0.3640 C   0  0  1  0  0  0  0  0  0  0  0  0
   -1.0650    1.2240   -1.6220 C   0  0  0  0  0  0  0  0  0  0  0  0
   -1.3190    0.9790    0.7910 C   0  0  0  0  0  0  0  0  0  0  0  0
   -1.3570   -0.3500    1.5160 C   0  0  0  0  0  0  0  0  0  0  0  0
   -1.1530   -1.3150    0.3740 C   0  0  0  0  0  0  0  0  0  0  0  0
  2  1  1  6
  2  3  1  0
  2  7  1  0
  2 11  1  0
  3  4  1  0
  4  5  1  0
  5  6  1  0
  6  7  1  0
  7  8  1  6
  7  9  1  0
  9 10  1  0
 10 11  1  0
M  END
