
     RDKit          3D

 29 31  0  0  0  0  0  0  0  0999 V2000
   -2.6700    4.3170    0.1190 C   0  0  0  0  0  0  0  0  0  0  0  0
   -3.1100    3.3820    1.2070 C   0  0  0  0  0  0  0  0  0  0  0  0
   -3.1420    1.9660    0.7130 N   0  0  0  0  0  0  0  0  0  0  0  0
   -4.3340    1.6300    0.0130 C   0  0  0  0  0  0  0  0  0  0  0  0
   -1.9870    1.2350    0.8620 C   0  0  0  0  0  0  0  0  0  0  0  0
   -0.9450    1.9270    1.3100 O   0  0  0  0  0  0  0  0  0  0  0  0
   -1.6480   -0.1820    0.6120 C   0  0  0  0  0  0  0  0  0  0  0  0
   -0.3130   -0.4870    0.4300 C   0  0  0  0  0  0  0  0  0  0  0  0
    0.8570    0.3200    0.3110 N   0  0  0  0  0  0  0  0  0  0  0  0
    2.1370   -0.3390    0.1640 C   0  0  0  0  0  0  0  0  0  0  0  0
    2.4430   -1.3620    0.9180 C   0  0  0  0  0  0  0  0  0  0  0  0
    4.0440   -1.8830    0.4550 S   0  0  1  0  0  0  0  0  0  0  0  0
    5.0300   -1.7230    1.5690 O   0  0  0  0  0  0  0  0  0  0  0  0
    4.0330   -3.2540   -0.1240 O   0  0  0  0  0  0  0  0  0  0  0  0
    4.3100   -0.6740   -0.7790 N   0  0  0  0  0  0  0  0  0  0  0  0
    5.5280   -0.6210   -1.5270 C   0  0  0  0  0  0  0  0  0  0  0  0
    6.5620    0.1580   -0.7930 C   0  0  0  0  0  0  0  0  0  0  0  0
    6.1640    1.4690   -0.6130 O   0  0  0  0  0  0  0  0  0  0  0  0
    6.0480    2.1740   -1.7810 C   0  0  0  0  0  0  0  0  0  0  0  0
    3.1310    0.0760   -0.7850 C   0  0  0  0  0  0  0  0  0  0  0  0
    2.9740    1.0650   -1.5970 O   0  0  0  0  0  0  0  0  0  0  0  0
   -0.2450   -2.2700    0.2830 S   0  0  0  0  0  0  0  0  0  0  0  0
   -2.0030   -2.5070    0.4730 C   0  0  0  0  0  0  0  0  0  0  0  0
   -2.4970   -1.2230    0.6360 C   0  0  0  0  0  0  0  0  0  0  0  0
   -3.9950   -1.3930    0.9510 C   0  0  0  0  0  0  0  0  0  0  0  0
   -4.5520   -2.0330   -0.2630 C   0  0  0  0  0  0  0  0  0  0  0  0
   -4.1660   -3.4920   -0.2730 C   0  0  1  0  0  0  0  0  0  0  0  0
   -4.0370   -4.0950   -1.9580 Cl  0  0  0  0  0  0  0  0  0  0  0  0
   -2.8780   -3.6830    0.4640 C   0  0  0  0  0  0  0  0  0  0  0  0
  1  2  1  0
  2  3  1  0
  3  4  1  0
  3  5  1  0
  5  6  2  0
  5  7  1  0
  7  8  2  0
  7 24  1  0
  8  9  1  0
  8 22  1  0
  9 10  1  0
 10 11  2  0
 10 20  1  0
 11 12  1  0
 12 13  2  0
 12 14  2  0
 12 15  1  6
 15 16  1  0
 15 20  1  0
 16 17  1  0
 17 18  1  0
 18 19  1  0
 20 21  2  0
 22 23  1  0
 23 24  2  0
 23 29  1  0
 24 25  1  0
 25 26  1  0
 26 27  1  0
 27 28  1  6
 27 29  1  0
M  END
