
     RDKit          3D

 30 33  0  0  0  0  0  0  0  0999 V2000
   -6.9270   -3.2990    1.9810 N   0  0  0  0  0  0  0  0  0  0  0  0
   -6.5150   -2.4660    0.9150 C   0  0  0  0  0  0  0  0  0  0  0  0
   -7.3810   -2.2030   -0.0780 N   0  0  0  0  0  0  0  0  0  0  0  0
   -7.0480   -1.4140   -1.1240 C   0  0  0  0  0  0  0  0  0  0  0  0
   -5.8140   -0.8840   -1.1640 N   0  0  0  0  0  0  0  0  0  0  0  0
   -4.8970   -1.1040   -0.2070 C   0  0  0  0  0  0  0  0  0  0  0  0
   -5.2550   -1.9130    0.8560 C   0  0  0  0  0  0  0  0  0  0  0  0
   -4.1800   -1.9740    1.6610 N   0  0  0  0  0  0  0  0  0  0  0  0
   -3.1880   -1.2340    1.1260 C   0  0  0  0  0  0  0  0  0  0  0  0
   -3.6220   -0.6950   -0.0260 N   0  0  0  0  0  0  0  0  0  0  0  0
   -2.8770    0.1640   -0.9130 C   0  0  2  0  0  0  0  0  0  0  0  0
   -1.4940    0.0360   -0.6590 O   0  0  0  0  0  0  0  0  0  0  0  0
   -1.0060    1.2030   -1.2690 C   0  0  2  0  0  0  0  0  0  0  0  0
    0.4690    1.3860   -1.0120 C   0  0  0  0  0  0  0  0  0  0  0  0
    1.3210   -0.0720   -1.7050 S   0  0  0  0  0  0  0  0  0  0  0  0
    3.4190    0.0780   -1.3980 S   0  0  0  0  0  0  0  0  0  0  0  0
    3.8890   -0.6830    0.1920 C   0  0  0  0  0  0  0  0  0  0  0  0
    5.3650   -0.5290    0.3130 C   0  0  0  0  0  0  0  0  0  0  0  0
    6.1860   -1.5260   -0.1890 C   0  0  0  0  0  0  0  0  0  0  0  0
    7.5500   -1.4070   -0.0890 C   0  0  0  0  0  0  0  0  0  0  0  0
    8.1240   -0.3040    0.5080 C   0  0  0  0  0  0  0  0  0  0  0  0
    7.3350    0.7040    1.0170 C   0  0  0  0  0  0  0  0  0  0  0  0
    7.9220    1.8380    1.6300 N   0  0  0  0  0  0  0  0  0  0  0  0
    9.1560    1.9240    1.7090 O   0  0  0  0  0  0  0  0  0  0  0  0
    7.1300    2.8290    2.1300 O   0  0  0  0  0  0  0  0  0  0  0  0
    5.9620    0.5630    0.9050 C   0  0  0  0  0  0  0  0  0  0  0  0
   -1.8440    2.2550   -0.5700 C   0  0  1  0  0  0  0  0  0  0  0  0
   -1.8320    3.4650   -1.2570 O   0  0  0  0  0  0  0  0  0  0  0  0
   -3.2150    1.6000   -0.6200 C   0  0  1  0  0  0  0  0  0  0  0  0
   -3.9420    2.1110   -1.6940 O   0  0  0  0  0  0  0  0  0  0  0  0
  1  2  1  0
  2  3  2  0
  2  7  1  0
  3  4  1  0
  4  5  2  0
  5  6  1  0
  6  7  2  0
  6 10  1  0
  7  8  1  0
  8  9  2  0
  9 10  1  0
 11 10  1  1
 11 12  1  0
 11 29  1  0
 12 13  1  0
 13 14  1  1
 13 27  1  0
 14 15  1  0
 15 16  1  0
 16 17  1  0
 17 18  1  0
 18 19  2  0
 18 26  1  0
 19 20  1  0
 20 21  2  0
 21 22  1  0
 22 23  1  0
 22 26  2  0
 23 24  2  0
 23 25  1  0
 27 28  1  6
 27 29  1  0
 29 30  1  6
M  CHG  2  23   1  25  -1
M  END
