
     RDKit          3D

 31 34  0  0  0  0  0  0  0  0999 V2000
   -8.0790   -1.1290   -1.0620 C   0  0  0  0  0  0  0  0  0  0  0  0
   -7.1710   -0.1260   -1.3850 O   0  0  0  0  0  0  0  0  0  0  0  0
   -6.2930    0.1470   -0.3380 C   0  0  1  0  0  0  0  0  0  0  0  0
   -4.9230   -0.0300   -0.8680 C   0  0  0  0  0  0  0  0  0  0  0  0
   -3.8790    0.2220    0.2250 N   0  0  1  0  0  0  0  0  0  0  0  0
   -2.6520   -0.3280   -0.0320 C   0  0  0  0  0  0  0  0  0  0  0  0
   -2.7410   -0.2350   -1.2680 O   0  0  0  0  0  0  0  0  0  0  0  0
   -1.4430   -0.8970    0.3920 C   0  0  0  0  0  0  0  0  0  0  0  0
   -0.9000   -1.1630    1.6360 C   0  0  0  0  0  0  0  0  0  0  0  0
    0.2920   -1.7050    1.7570 C   0  0  0  0  0  0  0  0  0  0  0  0
    0.9940   -2.0040    0.6040 C   0  0  0  0  0  0  0  0  0  0  0  0
    2.3520   -2.6180    0.4460 C   0  0  0  0  0  0  0  0  0  0  0  0
    3.3990   -1.6470    0.4320 N   0  0  2  0  0  0  0  0  0  0  0  0
    3.2220   -0.6260    1.4630 C   0  0  0  0  0  0  0  0  0  0  0  0
    3.5720   -1.0000   -0.8470 C   0  0  0  0  0  0  0  0  0  0  0  0
    5.0070   -0.6400   -0.9780 C   0  0  0  0  0  0  0  0  0  0  0  0
    5.6340    0.4970   -0.6250 N   0  0  0  0  0  0  0  0  0  0  0  0
    6.9480    0.3810   -0.9320 C   0  0  0  0  0  0  0  0  0  0  0  0
    8.0150    1.2360   -0.7830 C   0  0  0  0  0  0  0  0  0  0  0  0
    7.8840    2.5790   -0.1960 C   0  0  0  0  0  0  0  0  0  0  0  0
    9.2500    0.7960   -1.2100 C   0  0  0  0  0  0  0  0  0  0  0  0
    9.4090   -0.4610   -1.7670 C   0  0  0  0  0  0  0  0  0  0  0  0
    8.3260   -1.2510   -1.8850 N   0  0  0  0  0  0  0  0  0  0  0  0
    7.0950   -0.8690   -1.4830 C   0  0  0  0  0  0  0  0  0  0  0  0
    5.9210   -1.4190   -1.4830 O   0  0  0  0  0  0  0  0  0  0  0  0
   -0.0900   -1.4920   -0.6750 S   0  0  0  0  0  0  0  0  0  0  0  0
   -3.9670    1.6360    0.2350 C   0  0  0  0  0  0  0  0  0  0  0  0
   -5.3200    2.0140    0.8630 C   0  0  0  0  0  0  0  0  0  0  0  0
   -6.4760    1.6090    0.0140 C   0  0  2  0  0  0  0  0  0  0  0  0
   -7.7350    1.7770    0.8260 C   0  0  0  0  0  0  0  0  0  0  0  0
   -6.5800    2.5970   -1.4470 Cl  0  0  0  0  0  0  0  0  0  0  0  0
  1  2  1  0
  3  2  1  6
  3  4  1  0
  3 29  1  0
  4  5  1  0
  5  6  1  6
  5 27  1  0
  6  7  2  0
  6  8  1  0
  8  9  2  0
  8 26  1  0
  9 10  1  0
 10 11  2  0
 11 12  1  0
 11 26  1  0
 12 13  1  0
 13 14  1  1
 13 15  1  0
 15 16  1  0
 16 17  2  0
 16 25  1  0
 17 18  1  0
 18 19  2  0
 18 24  1  0
 19 20  1  0
 19 21  1  0
 21 22  2  0
 22 23  1  0
 23 24  2  0
 24 25  1  0
 27 28  1  0
 28 29  1  0
 29 30  1  1
 29 31  1  0
M  CHG  2   5   1  13   1
M  END
