
     RDKit          3D

 25 26  0  0  0  0  0  0  0  0999 V2000
    3.5710    3.8440    2.4570 N   0  0  0  0  0  0  0  0  0  0  0  0
    2.6110    2.8040    2.4500 C   0  0  0  0  0  0  0  0  0  0  0  0
    2.3700    2.2060    3.5230 O   0  0  0  0  0  0  0  0  0  0  0  0
    1.8790    2.3930    1.2310 C   0  0  0  0  0  0  0  0  0  0  0  0
    0.9190    1.2550    1.5430 C   0  0  0  0  0  0  0  0  0  0  0  0
    0.2800    0.8350    0.3050 C   0  0  2  0  0  0  0  0  0  0  0  0
   -0.7920   -0.1520    0.3790 N   0  0  0  0  0  0  0  0  0  0  0  0
   -2.0550    0.0080   -0.2100 C   0  0  0  0  0  0  0  0  0  0  0  0
   -2.3050    1.0510   -0.8410 O   0  0  0  0  0  0  0  0  0  0  0  0
   -3.0180   -1.0260   -0.0700 N   0  0  0  0  0  0  0  0  0  0  0  0
   -4.3350   -0.8600   -0.6800 C   0  0  2  0  0  0  0  0  0  0  0  0
   -5.3950   -1.0990    0.3660 C   0  0  0  0  0  0  0  0  0  0  0  0
   -6.5210   -1.5530   -0.4310 N   0  0  0  0  0  0  0  0  0  0  0  0
   -6.0900   -1.9590   -1.7110 C   0  0  0  0  0  0  0  0  0  0  0  0
   -6.8090   -2.2290   -2.6980 O   0  0  0  0  0  0  0  0  0  0  0  0
   -4.6090   -2.0020   -1.6610 C   0  0  0  0  0  0  0  0  0  0  0  0
    1.3280    0.1040   -0.5580 C   0  0  0  0  0  0  0  0  0  0  0  0
    0.8810   -0.3690   -1.6320 O   0  0  0  0  0  0  0  0  0  0  0  0
    2.6550   -0.0470   -0.2060 N   0  0  0  0  0  0  0  0  0  0  0  0
    3.6560   -0.7360   -1.0610 C   0  0  0  0  0  0  0  0  0  0  0  0
    3.2730   -1.2710   -2.3030 C   0  0  0  0  0  0  0  0  0  0  0  0
    4.8090   -1.9830   -2.9380 S   0  0  0  0  0  0  0  0  0  0  0  0
    5.8320   -1.5060   -1.4940 C   0  0  0  0  0  0  0  0  0  0  0  0
    4.9440   -0.8790   -0.7040 C   0  0  0  0  0  0  0  0  0  0  0  0
    5.4260   -0.3580    0.5590 O   0  0  0  0  0  0  0  0  0  0  0  0
  1  2  1  0
  2  3  2  0
  2  4  1  0
  4  5  1  0
  6  5  1  1
  6  7  1  0
  6 17  1  0
  7  8  1  0
  8  9  2  0
  8 10  1  0
 11 10  1  1
 11 12  1  0
 11 16  1  0
 12 13  1  0
 13 14  1  0
 14 15  2  0
 14 16  1  0
 17 18  2  0
 17 19  1  0
 19 20  1  0
 20 21  2  0
 20 24  1  0
 21 22  1  0
 22 23  1  0
 23 24  2  0
 24 25  1  0
M  END
