
     RDKit          3D

 24 25  0  0  0  0  0  0  0  0999 V2000
   -5.8760    1.5650    0.1230 N   0  0  0  0  0  0  0  0  0  0  0  0
   -4.8960    1.1460    0.6070 C   0  0  0  0  0  0  0  0  0  0  0  0
   -3.6600    0.6420    1.2230 C   0  0  1  0  0  0  0  0  0  0  0  0
   -3.3800    1.5580    2.2690 O   0  0  0  0  0  0  0  0  0  0  0  0
   -3.9880   -0.6540    1.8870 C   0  0  0  0  0  0  0  0  0  0  0  0
   -3.8380   -2.0900    0.8030 S   0  0  0  0  0  0  0  0  0  0  0  0
   -2.4490   -1.7770   -0.3020 C   0  0  0  0  0  0  0  0  0  0  0  0
   -2.4050   -0.3400   -0.7640 C   0  0  2  0  0  0  0  0  0  0  0  0
   -3.4900   -0.1270   -1.8280 C   0  0  0  0  0  0  0  0  0  0  0  0
   -3.4830    1.1890   -2.2810 O   0  0  0  0  0  0  0  0  0  0  0  0
   -1.0930   -0.1500   -1.4850 C   0  0  0  0  0  0  0  0  0  0  0  0
    0.0530   -0.4080   -0.6460 N   0  0  0  0  0  0  0  0  0  0  0  0
    1.3770   -0.2840   -1.1460 C   0  0  0  0  0  0  0  0  0  0  0  0
    1.5460    0.0630   -2.3610 O   0  0  0  0  0  0  0  0  0  0  0  0
    2.5330   -0.5190   -0.3920 N   0  0  0  0  0  0  0  0  0  0  0  0
    3.8840   -0.3870   -0.9250 C   0  0  0  0  0  0  0  0  0  0  0  0
    4.9270   -0.7010    0.1020 C   0  0  2  0  0  0  0  0  0  0  0  0
    4.7640   -2.0110    0.5480 O   0  0  0  0  0  0  0  0  0  0  0  0
    4.9700    0.2570    1.2260 C   0  0  0  0  0  0  0  0  0  0  0  0
    4.1410    0.2660    2.2750 N   0  0  0  0  0  0  0  0  0  0  0  0
    4.5270    1.3060    3.0710 C   0  0  0  0  0  0  0  0  0  0  0  0
    5.6000    1.8990    2.4570 C   0  0  0  0  0  0  0  0  0  0  0  0
    5.8270    1.2340    1.3540 O   0  0  0  0  0  0  0  0  0  0  0  0
   -2.5130    0.6600    0.3140 C   0  0  0  0  0  0  0  0  0  0  0  0
  1  2  3  0
  2  3  1  0
  3  4  1  1
  3  5  1  0
  3 24  1  0
  5  6  1  0
  6  7  1  0
  7  8  1  0
  8  9  1  6
  8 11  1  0
  8 24  1  0
  9 10  1  0
 11 12  1  0
 12 13  1  0
 13 14  2  0
 13 15  1  0
 15 16  1  0
 16 17  1  0
 17 18  1  1
 17 19  1  0
 19 20  2  0
 19 23  1  0
 20 21  1  0
 21 22  2  0
 22 23  1  0
M  END
