
     RDKit          3D

 25 26  0  0  0  0  0  0  0  0999 V2000
   -2.9140   -1.2400    6.0790 C   0  0  0  0  0  0  0  0  0  0  0  0
   -2.2090   -1.0710    4.8770 O   0  0  0  0  0  0  0  0  0  0  0  0
   -2.6530   -0.2210    3.8790 C   0  0  0  0  0  0  0  0  0  0  0  0
   -3.8170    0.4950    4.0370 C   0  0  0  0  0  0  0  0  0  0  0  0
   -4.2270    1.3280    3.0250 C   0  0  0  0  0  0  0  0  0  0  0  0
   -3.4680    1.4310    1.8780 C   0  0  0  0  0  0  0  0  0  0  0  0
   -3.8820    2.2710    0.8610 O   0  0  0  0  0  0  0  0  0  0  0  0
   -5.0770    3.0020    1.0300 C   0  0  0  0  0  0  0  0  0  0  0  0
   -2.2970    0.7270    1.6890 C   0  0  0  0  0  0  0  0  0  0  0  0
   -1.5810    0.8810    0.5010 N   0  0  0  0  0  0  0  0  0  0  0  0
   -0.3750    0.2600    0.1150 C   0  0  0  0  0  0  0  0  0  0  0  0
    0.1820   -0.5370    0.8710 O   0  0  0  0  0  0  0  0  0  0  0  0
    0.2570    0.5090   -1.1400 N   0  0  0  0  0  0  0  0  0  0  0  0
    1.5030   -0.1470   -1.5140 C   0  0  2  0  0  0  0  0  0  0  0  0
    2.5560    0.9260   -1.6330 C   0  0  0  0  0  0  0  0  0  0  0  0
    4.2300    0.3430   -1.4820 S   0  0  0  0  0  0  0  0  0  0  0  0
    4.6150   -1.1970   -2.2780 C   0  0  2  0  0  0  0  0  0  0  0  0
    5.8130   -1.1240   -3.1160 N   0  0  0  0  0  0  0  0  0  0  0  0
    5.7060   -0.2290   -4.0920 O   0  0  0  0  0  0  0  0  0  0  0  0
    3.5630   -1.8220   -3.0040 N   0  0  0  0  0  0  0  0  0  0  0  0
    3.0380   -2.9660   -2.4500 N   0  0  0  0  0  0  0  0  0  0  0  0
    2.5930   -0.9710   -3.5990 C   0  0  0  0  0  0  0  0  0  0  0  0
    1.3340   -0.9500   -2.7600 C   0  0  2  0  0  0  0  0  0  0  0  0
    0.3260   -0.3670   -3.5270 O   0  0  0  0  0  0  0  0  0  0  0  0
   -1.8930   -0.1030    2.7010 C   0  0  0  0  0  0  0  0  0  0  0  0
  1  2  1  0
  2  3  1  0
  3  4  2  0
  3 25  1  0
  4  5  1  0
  5  6  2  0
  6  7  1  0
  6  9  1  0
  7  8  1  0
  9 10  1  0
  9 25  2  0
 10 11  1  0
 11 12  2  0
 11 13  1  0
 14 13  1  6
 14 15  1  0
 14 23  1  0
 15 16  1  0
 16 17  1  0
 17 18  1  6
 17 20  1  0
 18 19  1  0
 20 21  1  0
 20 22  1  0
 22 23  1  0
 23 24  1  6
M  END
