
     RDKit          3D

 25 27  0  0  0  0  0  0  0  0999 V2000
   -5.0080    2.1180   -2.9910 N   0  0  0  0  0  0  0  0  0  0  0  0
   -4.6070    1.4920   -1.7610 C   0  0  0  0  0  0  0  0  0  0  0  0
   -5.3020    1.7830   -0.6490 N   0  0  0  0  0  0  0  0  0  0  0  0
   -4.9290    1.1970    0.5020 C   0  0  0  0  0  0  0  0  0  0  0  0
   -3.8760    0.3360    0.5340 N   0  0  0  0  0  0  0  0  0  0  0  0
   -3.1630    0.0250   -0.5550 C   0  0  0  0  0  0  0  0  0  0  0  0
   -3.5260    0.6120   -1.7420 C   0  0  0  0  0  0  0  0  0  0  0  0
   -2.6970    0.1720   -2.6940 N   0  0  0  0  0  0  0  0  0  0  0  0
   -1.8360   -0.6760   -2.0830 C   0  0  0  0  0  0  0  0  0  0  0  0
   -2.0980   -0.7830   -0.7830 N   0  0  0  0  0  0  0  0  0  0  0  0
   -1.4890   -1.5380    0.2750 C   0  0  2  0  0  0  0  0  0  0  0  0
   -1.4400   -0.7770    1.4030 O   0  0  0  0  0  0  0  0  0  0  0  0
   -0.1650   -0.7290    1.9080 C   0  0  2  0  0  0  0  0  0  0  0  0
    0.3360    0.6540    2.1560 C   0  0  0  0  0  0  0  0  0  0  0  0
    0.3850    1.7180    0.7470 S   0  0  0  0  0  0  0  0  0  0  0  0
    1.5890    1.2830   -0.5250 C   0  0  0  0  0  0  0  0  0  0  0  0
    2.9430    1.4500    0.0860 C   0  0  0  0  0  0  0  0  0  0  0  0
    4.1010    1.1370   -0.7920 C   0  0  1  0  0  0  0  0  0  0  0  0
    5.2750    1.3610   -0.0410 O   0  0  0  0  0  0  0  0  0  0  0  0
    4.1240   -0.3020   -1.2580 C   0  0  0  0  0  0  0  0  0  0  0  0
    5.2710   -0.4760   -2.0420 O   0  0  0  0  0  0  0  0  0  0  0  0
    0.7050   -1.6340    1.1280 C   0  0  1  0  0  0  0  0  0  0  0  0
    0.9770   -2.7790    1.9240 O   0  0  0  0  0  0  0  0  0  0  0  0
   -0.1400   -2.0760   -0.0230 C   0  0  1  0  0  0  0  0  0  0  0  0
   -0.1340   -3.4900   -0.0620 O   0  0  0  0  0  0  0  0  0  0  0  0
  1  2  1  0
  2  3  2  0
  2  7  1  0
  3  4  1  0
  4  5  2  0
  5  6  1  0
  6  7  2  0
  6 10  1  0
  7  8  1  0
  8  9  2  0
  9 10  1  0
 11 10  1  6
 11 12  1  0
 11 24  1  0
 12 13  1  0
 13 14  1  6
 13 22  1  0
 14 15  1  0
 15 16  1  0
 16 17  1  0
 17 18  1  0
 18 19  1  1
 18 20  1  0
 20 21  1  0
 22 23  1  1
 22 24  1  0
 24 25  1  1
M  END
