
     RDKit          3D

 13 14  0  0  0  0  0  0  0  0999 V2000
   -0.8860   -2.8020   -0.0210 Cl  0  0  0  0  0  0  0  0  0  0  0  0
   -1.3270   -1.0870   -0.1110 C   0  0  0  0  0  0  0  0  0  0  0  0
   -0.4660   -0.2780   -0.6990 C   0  0  0  0  0  0  0  0  0  0  0  0
    0.7840   -0.8150   -1.2380 C   0  0  0  0  0  0  0  0  0  0  0  0
    1.9590   -0.2130   -0.6210 N   0  0  0  0  0  0  0  0  0  0  0  0
    2.5950   -0.6590    0.4770 C   0  0  0  0  0  0  0  0  0  0  0  0
    3.6430    0.1770    0.7310 C   0  0  0  0  0  0  0  0  0  0  0  0
    3.6210    1.1170   -0.2200 N   0  0  0  0  0  0  0  0  0  0  0  0
    2.5930    0.8550   -1.0230 N   0  0  0  0  0  0  0  0  0  0  0  0
   -0.8620    1.1180   -0.7530 C   0  0  0  0  0  0  0  0  0  0  0  0
   -1.9940    1.5630   -0.2560 C   0  0  0  0  0  0  0  0  0  0  0  0
   -2.9840    0.7000    0.4070 C   0  0  0  0  0  0  0  0  0  0  0  0
   -2.5500   -0.6600    0.4360 N   0  0  0  0  0  0  0  0  0  0  0  0
  1  2  1  0
  2  3  2  0
  2 13  1  0
  3  4  1  0
  3 10  1  0
  4  5  1  0
  5  6  1  0
  5  9  1  0
  6  7  2  0
  7  8  1  0
  8  9  2  0
 10 11  2  0
 11 12  1  0
 12 13  1  0
M  END
