
     RDKit          3D

 24 25  0  0  0  0  0  0  0  0999 V2000
   -7.0630   -1.1280    0.8260 C   0  0  0  0  0  0  0  0  0  0  0  0
   -5.4780   -1.9610    0.6260 S   0  0  0  0  0  0  0  0  0  0  0  0
   -4.3820   -0.8780   -0.2910 C   0  0  0  0  0  0  0  0  0  0  0  0
   -4.7880    0.3100   -0.6990 C   0  0  0  0  0  0  0  0  0  0  0  0
   -3.8570    1.1440   -1.4370 C   0  0  0  0  0  0  0  0  0  0  0  0
   -4.2680    1.9080   -2.3260 O   0  0  0  0  0  0  0  0  0  0  0  0
   -2.4160    1.0740   -1.1210 C   0  0  1  0  0  0  0  0  0  0  0  0
   -2.0640    2.2650   -0.3700 N   0  0  0  0  0  0  0  0  0  0  0  0
   -2.0690   -0.1530   -0.3150 C   0  0  2  0  0  0  0  0  0  0  0  0
   -2.0050    0.1840    1.0840 N   0  0  0  0  0  0  0  0  0  0  0  0
   -0.6910   -0.6140   -0.7210 C   0  0  0  0  0  0  0  0  0  0  0  0
   -0.4600   -0.9730   -1.9030 O   0  0  0  0  0  0  0  0  0  0  0  0
    0.3470   -0.6540    0.1870 O   0  0  0  0  0  0  0  0  0  0  0  0
    1.6460   -1.0700   -0.1380 C   0  0  0  0  0  0  0  0  0  0  0  0
    2.3270   -0.2380   -1.1860 C   0  0  0  0  0  0  0  0  0  0  0  0
    2.4680    1.0800   -0.8360 O   0  0  0  0  0  0  0  0  0  0  0  0
    3.1940    1.3280    0.2920 C   0  0  0  0  0  0  0  0  0  0  0  0
    4.5870    0.8550    0.2540 C   0  0  0  0  0  0  0  0  0  0  0  0
    5.4340    1.0090    1.2970 N   0  0  0  0  0  0  0  0  0  0  0  0
    6.6320    0.4700    0.9440 C   0  0  0  0  0  0  0  0  0  0  0  0
    7.8730    0.3910    1.7350 C   0  0  0  0  0  0  0  0  0  0  0  0
    6.4820    0.0070   -0.2930 N   0  0  0  0  0  0  0  0  0  0  0  0
    5.2710    0.2510   -0.6630 O   0  0  0  0  0  0  0  0  0  0  0  0
   -3.0050   -1.3020   -0.6050 C   0  0  0  0  0  0  0  0  0  0  0  0
  1  2  1  0
  2  3  1  0
  3  4  2  0
  3 24  1  0
  4  5  1  0
  5  6  2  0
  5  7  1  0
  7  8  1  1
  7  9  1  0
  9 10  1  1
  9 11  1  0
  9 24  1  0
 11 12  2  0
 11 13  1  0
 13 14  1  0
 14 15  1  0
 15 16  1  0
 16 17  1  0
 17 18  1  0
 18 19  2  0
 18 23  1  0
 19 20  1  0
 20 21  1  0
 20 22  2  0
 22 23  1  0
M  END
