
     RDKit          3D

 25 26  0  0  0  0  0  0  0  0999 V2000
   -4.8130    0.0680   -0.7140 C   0  0  0  0  0  0  0  0  0  0  0  0
   -3.5180   -0.1970   -1.4080 C   0  0  0  0  0  0  0  0  0  0  0  0
   -2.3390   -0.0280   -0.4910 C   0  0  2  0  0  0  0  0  0  0  0  0
   -2.4260   -0.9610    0.6550 C   0  0  0  0  0  0  0  0  0  0  0  0
   -2.4530   -2.3850    0.4650 N   0  0  0  0  0  0  0  0  0  0  0  0
   -2.4770   -0.5380    1.8270 O   0  0  0  0  0  0  0  0  0  0  0  0
   -2.3310    1.3250    0.0330 N   0  0  0  0  0  0  0  0  0  0  0  0
   -1.1210    1.7640    0.6730 C   0  0  0  0  0  0  0  0  0  0  0  0
   -1.2200    2.6780    1.4960 O   0  0  0  0  0  0  0  0  0  0  0  0
    0.1480    1.1320    0.3370 C   0  0  0  0  0  0  0  0  0  0  0  0
    1.3730    1.7410    0.7140 N   0  0  0  0  0  0  0  0  0  0  0  0
    1.6230    2.7400    1.6620 C   0  0  0  0  0  0  0  0  0  0  0  0
    2.9720    3.2270    1.8770 N   0  0  0  0  0  0  0  0  0  0  0  0
    0.7380    3.2360    2.3360 O   0  0  0  0  0  0  0  0  0  0  0  0
    0.1650    0.1440   -0.5710 C   0  0  0  0  0  0  0  0  0  0  0  0
    1.3080   -0.5870   -0.9750 C   0  0  0  0  0  0  0  0  0  0  0  0
    1.2700   -1.4980   -1.9960 C   0  0  0  0  0  0  0  0  0  0  0  0
    2.5190   -2.1690   -2.3120 C   0  0  0  0  0  0  0  0  0  0  0  0
    2.4890   -3.0320   -3.2720 O   0  0  0  0  0  0  0  0  0  0  0  0
    3.7160   -1.9410   -1.6550 O   0  0  0  0  0  0  0  0  0  0  0  0
    3.8130   -0.6690   -0.9490 C   0  0  0  0  0  0  0  0  0  0  0  0
    2.5400   -0.6520   -0.1810 C   0  0  0  0  0  0  0  0  0  0  0  0
    2.4670   -0.7740    1.1410 C   0  0  0  0  0  0  0  0  0  0  0  0
    4.0330   -0.8430    2.0010 S   0  0  0  0  0  0  0  0  0  0  0  0
   -1.0800   -0.2100   -1.2140 N   0  0  0  0  0  0  0  0  0  0  0  0
  1  2  1  0
  3  2  1  6
  3  4  1  0
  3  7  1  0
  3 25  1  0
  4  5  1  0
  4  6  2  0
  7  8  1  0
  8  9  2  0
  8 10  1  0
 10 11  1  0
 10 15  2  0
 11 12  1  0
 12 13  1  0
 12 14  2  0
 15 16  1  0
 15 25  1  0
 16 17  2  0
 16 22  1  0
 17 18  1  0
 18 19  2  0
 18 20  1  0
 20 21  1  0
 21 22  1  0
 22 23  2  3
 23 24  1  0
M  END
