
     RDKit          3D

 16 15  0  0  0  0  0  0  0  0999 V2000
    0.5540    1.3190   -2.0120 O   0  0  0  0  0  0  0  0  0  0  0  0
    1.2470    0.9280   -1.0290 C   0  0  0  0  0  0  0  0  0  0  0  0
    2.7120    1.2170   -0.9440 C   0  0  0  0  0  0  0  0  0  0  0  0
    3.2290    0.6680    0.2480 O   0  0  0  0  0  0  0  0  0  0  0  0
    4.5440    0.7600    0.6250 C   0  0  0  0  0  0  0  0  0  0  0  0
    5.3520    1.3600   -0.1150 O   0  0  0  0  0  0  0  0  0  0  0  0
    4.9950    0.1960    1.8180 O   0  0  0  0  0  0  0  0  0  0  0  0
    0.6160    0.1980    0.0150 N   0  0  0  0  0  0  0  0  0  0  0  0
   -0.8020   -0.1240    0.0070 C   0  0  1  0  0  0  0  0  0  0  0  0
   -1.0410   -1.5940    0.0370 C   0  0  0  0  0  0  0  0  0  0  0  0
   -2.3240   -2.0080    0.0580 O   0  0  0  0  0  0  0  0  0  0  0  0
   -3.1740   -1.7020   -0.9420 C   0  0  0  0  0  0  0  0  0  0  0  0
   -3.3320   -0.3330   -1.0810 O   0  0  0  0  0  0  0  0  0  0  0  0
   -1.7160    0.6860    1.3990 P   0  0  0  0  0  0  0  0  0  0  0  0
   -2.9010   -0.4380    1.9830 O   0  0  0  0  0  0  0  0  0  0  0  0
   -2.5390    2.1030    0.8560 O   0  0  0  0  0  0  0  0  0  0  0  0
  1  2  2  0
  2  3  1  0
  2  8  1  0
  3  4  1  0
  4  5  1  0
  5  6  2  0
  5  7  1  0
  8  9  1  0
  9 10  1  1
  9 14  1  0
 10 11  1  0
 11 12  1  0
 12 13  1  0
 14 15  1  0
 14 16  1  0
M  END
