
     RDKit          3D

 15 14  0  0  0  0  0  0  0  0999 V2000
   -4.3970   -0.4770   -0.0260 O   0  0  0  0  0  0  0  0  0  0  0  0
   -3.6240   -0.4510   -0.9910 C   0  0  0  0  0  0  0  0  0  0  0  0
   -4.1870   -0.8190   -2.2240 O   0  0  0  0  0  0  0  0  0  0  0  0
   -2.2860   -0.0790   -0.8470 N   0  0  0  0  0  0  0  0  0  0  0  0
   -1.6560    0.3080    0.3650 C   0  0  2  0  0  0  0  0  0  0  0  0
   -1.7770   -0.7860    1.2510 O   0  0  0  0  0  0  0  0  0  0  0  0
   -2.1990    1.5530    1.0210 C   0  0  0  0  0  0  0  0  0  0  0  0
   -3.5190    1.4730    1.3700 O   0  0  0  0  0  0  0  0  0  0  0  0
   -0.1700    0.5500    0.1840 C   0  0  0  0  0  0  0  0  0  0  0  0
    0.4950   -0.5850   -0.2670 O   0  0  0  0  0  0  0  0  0  0  0  0
    1.8410   -0.2400   -0.3940 C   0  0  0  0  0  0  0  0  0  0  0  0
    2.6890   -1.3890   -0.8810 C   0  0  0  0  0  0  0  0  0  0  0  0
    4.4450   -0.7530   -0.9910 P   0  0  0  0  0  0  0  0  0  0  0  0
    4.4980    0.9730   -0.8100 O   0  0  0  0  0  0  0  0  0  0  0  0
    5.4570   -1.5260    0.2030 O   0  0  0  0  0  0  0  0  0  0  0  0
  1  2  2  0
  2  3  1  0
  2  4  1  0
  4  5  1  0
  5  6  1  1
  5  7  1  0
  5  9  1  0
  7  8  1  0
  9 10  1  0
 10 11  1  0
 11 12  1  0
 12 13  1  0
 13 14  1  0
 13 15  1  0
M  END
