
     RDKit          3D

 16 15  0  0  0  0  0  0  0  0999 V2000
    0.7170    0.0570   -1.5630 O   0  0  0  0  0  0  0  0  0  0  0  0
    0.0540   -0.3190   -0.5830 C   0  0  0  0  0  0  0  0  0  0  0  0
   -1.2950   -0.9770   -0.7830 C   0  0  0  0  0  0  0  0  0  0  0  0
   -2.5940    0.2750   -0.3260 P   0  0  0  0  0  0  0  0  0  0  0  0
   -1.9520    1.8840   -0.3700 O   0  0  0  0  0  0  0  0  0  0  0  0
   -4.0560    0.1020   -1.2270 O   0  0  0  0  0  0  0  0  0  0  0  0
   -5.0820   -0.0060   -0.2600 C   0  0  0  0  0  0  0  0  0  0  0  0
   -6.3270   -0.1400   -0.8310 O   0  0  0  0  0  0  0  0  0  0  0  0
    0.5590   -0.1300    0.7200 N   0  0  0  0  0  0  0  0  0  0  0  0
    1.7950    0.4810    1.0310 C   0  0  0  0  0  0  0  0  0  0  0  0
    2.9850   -0.1950    0.4710 C   0  0  0  0  0  0  0  0  0  0  0  0
    2.9120   -1.2340   -0.2240 O   0  0  0  0  0  0  0  0  0  0  0  0
    4.2310    0.3430    0.7230 O   0  0  0  0  0  0  0  0  0  0  0  0
    5.4220   -0.1800    0.2700 C   0  0  0  0  0  0  0  0  0  0  0  0
    5.4110   -1.2240   -0.4220 O   0  0  0  0  0  0  0  0  0  0  0  0
    6.6660    0.3790    0.5320 O   0  0  0  0  0  0  0  0  0  0  0  0
  1  2  2  0
  2  3  1  0
  2  9  1  0
  3  4  1  0
  4  5  1  0
  4  6  1  0
  6  7  1  0
  7  8  1  0
  9 10  1  0
 10 11  1  0
 11 12  2  0
 11 13  1  0
 13 14  1  0
 14 15  2  0
 14 16  1  0
M  END
