
     RDKit          3D

 27 28  0  0  0  0  0  0  0  0999 V2000
   -5.1620   -2.8880   -0.1400 O   0  0  0  0  0  0  0  0  0  0  0  0
   -4.3140   -3.4570   -0.8840 C   0  0  0  0  0  0  0  0  0  0  0  0
   -4.7270   -4.5500   -1.6000 O   0  0  0  0  0  0  0  0  0  0  0  0
   -3.0280   -2.9310   -0.9160 O   0  0  0  0  0  0  0  0  0  0  0  0
   -2.6820   -1.8580   -0.1910 O   0  0  0  0  0  0  0  0  0  0  0  0
   -1.2990   -1.7350   -0.2660 C   0  0  1  0  0  0  0  0  0  0  0  0
   -0.9090   -0.4360   -0.5930 O   0  0  0  0  0  0  0  0  0  0  0  0
    0.4050   -0.3420   -0.1290 C   0  0  1  0  0  0  0  0  0  0  0  0
    1.2210   -0.8240   -1.1190 O   0  0  0  0  0  0  0  0  0  0  0  0
    2.2450   -0.0090   -1.5150 C   0  0  0  0  0  0  0  0  0  0  0  0
    2.8930    0.6490   -0.3350 C   0  0  2  0  0  0  0  0  0  0  0  0
    3.5970   -0.2460    0.4390 O   0  0  0  0  0  0  0  0  0  0  0  0
    4.9560    0.0130    0.4950 C   0  0  0  0  0  0  0  0  0  0  0  0
    5.5200   -0.9840    1.3180 O   0  0  0  0  0  0  0  0  0  0  0  0
    6.8090   -0.7870    1.4060 O   0  0  0  0  0  0  0  0  0  0  0  0
    2.0360    1.3460    0.4640 O   0  0  0  0  0  0  0  0  0  0  0  0
    0.7130    1.0320    0.3650 C   0  0  1  0  0  0  0  0  0  0  0  0
   -0.0220    2.1120   -0.4030 C   0  0  0  0  0  0  0  0  0  0  0  0
   -1.3810    1.8200   -0.5230 O   0  0  0  0  0  0  0  0  0  0  0  0
   -1.9300    2.8060   -1.1970 O   0  0  0  0  0  0  0  0  0  0  0  0
   -2.9310    3.4390   -0.4610 C   0  0  0  0  0  0  0  0  0  0  0  0
   -3.5090    4.4820   -1.1790 O   0  0  0  0  0  0  0  0  0  0  0  0
   -4.4390    5.0670   -0.4910 O   0  0  0  0  0  0  0  0  0  0  0  0
    0.5110   -1.2180    0.9590 O   0  0  0  0  0  0  0  0  0  0  0  0
   -0.7020   -1.8280    1.1450 C   0  0  2  0  0  0  0  0  0  0  0  0
   -0.5190   -3.1300    1.5380 O   0  0  0  0  0  0  0  0  0  0  0  0
   -1.1790   -3.2880    2.6850 O   0  0  0  0  0  0  0  0  0  0  0  0
  1  2  2  0
  2  3  1  0
  2  4  1  0
  4  5  1  0
  6  5  1  1
  6  7  1  0
  6 25  1  0
  8  7  1  6
  8  9  1  0
  8 17  1  0
  8 24  1  0
  9 10  1  0
 10 11  1  0
 11 12  1  1
 11 16  1  0
 12 13  1  0
 13 14  1  0
 14 15  1  0
 16 17  1  0
 17 18  1  6
 18 19  1  0
 19 20  1  0
 20 21  1  0
 21 22  1  0
 22 23  1  0
 24 25  1  0
 25 26  1  6
 26 27  1  0
M  END
