
     RDKit          3D

 21 21  0  0  0  0  0  0  0  0999 V2000
    1.3950   -2.6770   -1.6620 C   0  0  0  0  0  0  0  0  0  0  0  0
    0.8150   -1.4400   -1.0150 C   0  0  2  0  0  0  0  0  0  0  0  0
    1.9130   -0.6060   -0.5500 C   0  0  0  0  0  0  0  0  0  0  0  0
    2.7240   -1.0000    0.3120 O   0  0  0  0  0  0  0  0  0  0  0  0
    2.0600    0.6920   -1.0960 N   0  0  0  0  0  0  0  0  0  0  0  0
    3.1200    1.5670   -0.6830 C   0  0  0  0  0  0  0  0  0  0  0  0
    2.9840    1.8120    0.7740 C   0  0  0  0  0  0  0  0  0  0  0  0
    2.0670    1.2940    1.4240 O   0  0  0  0  0  0  0  0  0  0  0  0
    3.9480    2.6540    1.3530 O   0  0  0  0  0  0  0  0  0  0  0  0
    3.8530    2.8980    2.6790 O   0  0  0  0  0  0  0  0  0  0  0  0
   -0.2030   -1.7890    0.0140 C   0  0  0  0  0  0  0  0  0  0  0  0
   -1.0560   -0.6060    0.0200 N   0  0  0  0  0  0  0  0  0  0  0  0
   -1.8630   -0.1870    1.1150 C   0  0  0  0  0  0  0  0  0  0  0  0
   -3.2450   -0.7360    1.1400 C   0  0  0  0  0  0  0  0  0  0  0  0
   -4.0520   -0.4370    0.0560 O   0  0  0  0  0  0  0  0  0  0  0  0
   -4.3840    0.8550   -0.3040 C   0  0  0  0  0  0  0  0  0  0  0  0
   -3.9220    1.7810    0.3940 O   0  0  0  0  0  0  0  0  0  0  0  0
   -5.2070    1.0860   -1.4140 O   0  0  0  0  0  0  0  0  0  0  0  0
   -0.8870   -0.0170   -1.2620 C   0  0  0  0  0  0  0  0  0  0  0  0
   -1.4570    1.0230   -1.6930 O   0  0  0  0  0  0  0  0  0  0  0  0
    0.0240   -0.7720   -2.0010 O   0  0  0  0  0  0  0  0  0  0  0  0
  2  1  1  6
  2  3  1  0
  2 11  1  0
  2 21  1  0
  3  4  2  0
  3  5  1  0
  5  6  1  0
  6  7  1  0
  7  8  2  0
  7  9  1  0
  9 10  1  0
 11 12  1  0
 12 13  1  0
 12 19  1  0
 13 14  1  0
 14 15  1  0
 15 16  1  0
 16 17  2  0
 16 18  1  0
 19 20  2  0
 19 21  1  0
M  END
