
     RDKit          3D

 27 27  0  0  0  0  0  0  0  0999 V2000
   -3.3040   -0.7350    2.2060 O   0  0  0  0  0  0  0  0  0  0  0  0
   -4.4150   -0.8910    1.6040 C   0  0  0  0  0  0  0  0  0  0  0  0
   -5.4940   -1.4160    2.3110 O   0  0  0  0  0  0  0  0  0  0  0  0
   -4.4690   -0.5250    0.2860 O   0  0  0  0  0  0  0  0  0  0  0  0
   -3.3700    0.0080   -0.4300 C   0  0  2  0  0  0  0  0  0  0  0  0
   -2.2250   -0.9080   -0.4730 C   0  0  0  0  0  0  0  0  0  0  0  0
   -2.2940   -2.0300    0.0900 O   0  0  0  0  0  0  0  0  0  0  0  0
   -1.0720   -0.5620   -1.1220 O   0  0  0  0  0  0  0  0  0  0  0  0
    0.0090   -1.3480   -1.2010 O   0  0  0  0  0  0  0  0  0  0  0  0
    1.0980   -0.6930   -1.4630 O   0  0  0  0  0  0  0  0  0  0  0  0
    1.9540   -0.5850   -0.3850 C   0  0  2  0  0  0  0  0  0  0  0  0
    2.3090    0.8440   -0.0720 C   0  0  0  0  0  0  0  0  0  0  0  0
    1.1950    1.6060    0.2350 O   0  0  0  0  0  0  0  0  0  0  0  0
    1.7360    3.2240    0.5740 P   0  0  0  0  0  0  0  0  0  0  0  0
    0.6120    4.3230   -0.1390 O   0  0  0  0  0  0  0  0  0  0  0  0
    1.7890    3.4040    2.3020 O   0  0  0  0  0  0  0  0  0  0  0  0
    3.1540   -1.2350   -0.7500 O   0  0  0  0  0  0  0  0  0  0  0  0
    3.4200   -2.2720    0.1420 C   0  0  0  0  0  0  0  0  0  0  0  0
    4.6730   -2.9330   -0.2600 C   0  0  0  0  0  0  0  0  0  0  0  0
    5.1200   -3.9200    0.4160 O   0  0  0  0  0  0  0  0  0  0  0  0
    5.4150   -2.5310   -1.3630 O   0  0  0  0  0  0  0  0  0  0  0  0
    6.5450   -3.1740   -1.6740 O   0  0  0  0  0  0  0  0  0  0  0  0
   -3.0320    1.2830    0.0210 O   0  0  0  0  0  0  0  0  0  0  0  0
   -4.0310    2.1380   -0.4030 C   0  0  0  0  0  0  0  0  0  0  0  0
   -4.6310    1.4430   -1.5820 C   0  0  0  0  0  0  0  0  0  0  0  0
   -5.6190    1.8390   -2.2570 O   0  0  0  0  0  0  0  0  0  0  0  0
   -3.8610    0.2980   -1.7430 O   0  0  0  0  0  0  0  0  0  0  0  0
  1  2  2  0
  2  3  1  0
  2  4  1  0
  5  4  1  1
  5  6  1  0
  5 23  1  0
  5 27  1  0
  6  7  2  0
  6  8  1  0
  8  9  1  0
  9 10  1  0
 10 11  1  0
 11 12  1  6
 11 17  1  0
 12 13  1  0
 13 14  1  0
 14 15  1  0
 14 16  1  0
 17 18  1  0
 18 19  1  0
 19 20  2  0
 19 21  1  0
 21 22  1  0
 23 24  1  0
 24 25  1  0
 25 26  2  0
 25 27  1  0
M  END
