
     RDKit          3D

 21 22  0  0  0  0  0  0  0  0999 V2000
   -2.3810   -1.7680    2.6600 O   0  0  0  0  0  0  0  0  0  0  0  0
   -2.5790   -0.7940    1.8910 C   0  0  0  0  0  0  0  0  0  0  0  0
   -2.5850    0.4980    2.3970 O   0  0  0  0  0  0  0  0  0  0  0  0
   -3.0950    1.5430    1.7360 O   0  0  0  0  0  0  0  0  0  0  0  0
   -4.1530    1.0720    0.9650 C   0  0  0  0  0  0  0  0  0  0  0  0
   -3.5520    0.2200   -0.1510 C   0  0  0  0  0  0  0  0  0  0  0  0
   -2.8100   -0.9730    0.4430 C   0  0  1  0  0  0  0  0  0  0  0  0
   -1.5630   -1.1100   -0.2640 N   0  0  0  0  0  0  0  0  0  0  0  0
   -1.1720   -2.1870   -1.0900 C   0  0  0  0  0  0  0  0  0  0  0  0
   -1.6390   -3.3770   -1.1030 O   0  0  0  0  0  0  0  0  0  0  0  0
   -0.0880   -1.6750   -1.9670 C   0  0  0  0  0  0  0  0  0  0  0  0
    0.5730   -0.7140   -1.1060 N   0  0  0  0  0  0  0  0  0  0  0  0
    1.9580   -0.3880   -1.1060 C   0  0  0  0  0  0  0  0  0  0  0  0
    2.7460   -0.9520   -1.9090 O   0  0  0  0  0  0  0  0  0  0  0  0
    2.4630    0.6280   -0.1480 C   0  0  0  0  0  0  0  0  0  0  0  0
    3.8230    0.7820   -0.3260 O   0  0  0  0  0  0  0  0  0  0  0  0
    4.2750    1.7380    0.5820 C   0  0  0  0  0  0  0  0  0  0  0  0
    5.6510    1.8660    0.3720 O   0  0  0  0  0  0  0  0  0  0  0  0
    6.1770    0.6680    0.5970 O   0  0  0  0  0  0  0  0  0  0  0  0
   -0.4550   -0.1850   -0.2800 C   0  0  0  0  0  0  0  0  0  0  0  0
   -0.4030    0.9120    0.3340 O   0  0  0  0  0  0  0  0  0  0  0  0
  1  2  2  0
  2  3  1  0
  2  7  1  0
  3  4  1  0
  4  5  1  0
  5  6  1  0
  6  7  1  0
  7  8  1  6
  8  9  1  0
  8 20  1  0
  9 10  2  0
  9 11  1  0
 11 12  1  0
 12 13  1  0
 12 20  1  0
 13 14  2  0
 13 15  1  0
 15 16  1  0
 16 17  1  0
 17 18  1  0
 18 19  1  0
 20 21  2  0
M  END
