
     RDKit          3D

 21 21  0  0  0  0  0  0  0  0999 V2000
    3.6970    1.5830    1.2740 O   0  0  0  0  0  0  0  0  0  0  0  0
    3.3220    2.3380    0.3650 C   0  0  0  0  0  0  0  0  0  0  0  0
    3.8700    3.6310    0.4100 O   0  0  0  0  0  0  0  0  0  0  0  0
    2.4000    1.9430   -0.6640 C   0  0  0  0  0  0  0  0  0  0  0  0
    1.8160    0.7300   -0.7860 C   0  0  0  0  0  0  0  0  0  0  0  0
    0.9400    0.5760   -1.8870 N   0  0  0  0  0  0  0  0  0  0  0  0
   -0.2240    0.1240   -1.9830 C   0  0  0  0  0  0  0  0  0  0  0  0
   -1.0630   -0.3830   -1.0400 O   0  0  0  0  0  0  0  0  0  0  0  0
   -1.3760    0.0470    0.2330 C   0  0  1  0  0  0  0  0  0  0  0  0
   -2.2360    1.3050    0.0930 C   0  0  0  0  0  0  0  0  0  0  0  0
   -2.5870    1.7910    1.3610 O   0  0  0  0  0  0  0  0  0  0  0  0
   -3.3240    2.8700    1.2060 O   0  0  0  0  0  0  0  0  0  0  0  0
   -2.2620   -1.0070    0.8460 C   0  0  0  0  0  0  0  0  0  0  0  0
   -2.8470   -0.7460    1.9180 O   0  0  0  0  0  0  0  0  0  0  0  0
   -2.4430   -2.2440    0.2610 O   0  0  0  0  0  0  0  0  0  0  0  0
   -1.3820   -2.9680   -0.3810 C   0  0  0  0  0  0  0  0  0  0  0  0
   -0.0950   -2.8160    0.3580 C   0  0  0  0  0  0  0  0  0  0  0  0
    1.0220   -2.5260   -0.4470 O   0  0  0  0  0  0  0  0  0  0  0  0
    2.1010   -1.7190   -0.1150 C   0  0  0  0  0  0  0  0  0  0  0  0
    3.2400   -2.3520   -0.0300 O   0  0  0  0  0  0  0  0  0  0  0  0
    2.0730   -0.3260    0.1290 N   0  0  0  0  0  0  0  0  0  0  0  0
  1  2  2  0
  2  3  1  0
  2  4  1  0
  4  5  2  3
  5  6  1  0
  5 21  1  0
  6  7  2  0
  7  8  1  0
  8  9  1  0
  9 10  1  6
  9 13  1  0
 10 11  1  0
 11 12  1  0
 13 14  2  0
 13 15  1  0
 15 16  1  0
 16 17  1  0
 17 18  1  0
 18 19  1  0
 19 20  2  0
 19 21  1  0
M  END
