
     RDKit          3D

 21 23  0  0  0  0  0  0  0  0999 V2000
    3.2560   -2.3450   -1.0330 O   0  0  0  0  0  0  0  0  0  0  0  0
    3.2320   -1.3920   -0.2210 C   0  0  0  0  0  0  0  0  0  0  0  0
    4.4860   -0.9680    0.3250 N   0  0  0  0  0  0  0  0  0  0  0  0
    5.6710   -1.5400    0.0060 O   0  0  0  0  0  0  0  0  0  0  0  0
    6.4310   -0.5820   -0.4720 O   0  0  0  0  0  0  0  0  0  0  0  0
    5.7030    0.4230   -0.9380 O   0  0  0  0  0  0  0  0  0  0  0  0
    1.9790   -0.7310    0.1660 C   0  0  0  0  0  0  0  0  0  0  0  0
    1.8320    0.2940    0.9750 O   0  0  0  0  0  0  0  0  0  0  0  0
    0.5860    0.6150    1.0900 N   0  0  0  0  0  0  0  0  0  0  0  0
   -0.1650   -0.1950    0.3500 C   0  0  0  0  0  0  0  0  0  0  0  0
    0.7140   -1.0720   -0.2560 C   0  0  0  0  0  0  0  0  0  0  0  0
   -0.0560   -1.9320   -1.0380 O   0  0  0  0  0  0  0  0  0  0  0  0
   -1.4030   -1.9110   -0.5550 C   0  0  0  0  0  0  0  0  0  0  0  0
   -1.5690   -0.4930   -0.0450 C   0  0  2  0  0  0  0  0  0  0  0  0
   -2.0830    0.4470   -1.1110 C   0  0  0  0  0  0  0  0  0  0  0  0
   -1.7510    1.7270   -0.7510 O   0  0  0  0  0  0  0  0  0  0  0  0
   -2.6430    2.4110   -0.0050 C   0  0  0  0  0  0  0  0  0  0  0  0
   -3.7650    1.6660    0.6160 C   0  0  0  0  0  0  0  0  0  0  0  0
   -3.3860    0.6030    1.4530 O   0  0  0  0  0  0  0  0  0  0  0  0
   -2.4440   -0.3810    1.1290 C   0  0  0  0  0  0  0  0  0  0  0  0
   -2.3560   -1.2850    1.9850 O   0  0  0  0  0  0  0  0  0  0  0  0
  1  2  2  0
  2  3  1  0
  2  7  1  0
  3  4  1  0
  4  5  1  0
  5  6  1  0
  7  8  1  0
  7 11  2  0
  8  9  1  0
  9 10  2  0
 10 11  1  0
 10 14  1  0
 11 12  1  0
 12 13  1  0
 14 13  1  6
 14 15  1  0
 14 20  1  0
 15 16  1  0
 16 17  1  0
 17 18  1  0
 18 19  1  0
 19 20  1  0
 20 21  2  0
M  END
