
     RDKit          3D

 14 14  0  0  0  0  0  0  0  0999 V2000
   -1.5040    0.2430   -1.7500 O   0  0  0  0  0  0  0  0  0  0  0  0
   -2.0760    0.0220   -0.1980 P   0  0  0  0  0  0  0  0  0  0  0  0
   -2.4170    1.5730    0.5520 O   0  0  0  0  0  0  0  0  0  0  0  0
   -3.5010   -0.9620   -0.2080 O   0  0  0  0  0  0  0  0  0  0  0  0
   -0.7720   -0.8050    0.8280 C   0  0  2  0  0  0  0  0  0  0  0  0
   -1.0010   -0.5240    2.5650 S   0  0  0  0  0  0  0  0  0  0  0  0
    0.4970   -0.3050    0.3210 C   0  0  0  0  0  0  0  0  0  0  0  0
    1.2460   -1.0980   -0.5440 C   0  0  0  0  0  0  0  0  0  0  0  0
    2.4550   -0.6870   -1.0670 C   0  0  0  0  0  0  0  0  0  0  0  0
    2.9590    0.5490   -0.7340 C   0  0  0  0  0  0  0  0  0  0  0  0
    4.5020    1.0860   -1.3950 Cl  0  0  0  0  0  0  0  0  0  0  0  0
    2.2300    1.3400    0.1180 C   0  0  0  0  0  0  0  0  0  0  0  0
    1.0110    0.9190    0.6420 C   0  0  0  0  0  0  0  0  0  0  0  0
    0.1350    1.9680    1.7240 Cl  0  0  0  0  0  0  0  0  0  0  0  0
  1  2  1  0
  2  3  1  0
  2  4  1  0
  2  5  1  0
  5  6  1  1
  5  7  1  0
  7  8  2  0
  7 13  1  0
  8  9  1  0
  9 10  2  0
 10 11  1  0
 10 12  1  0
 12 13  2  0
 13 14  1  0
M  END
