
     RDKit          3D

 26 27  0  0  0  0  0  0  0  0999 V2000
    4.5360   -2.2070   -0.5870 O   0  0  0  0  0  0  0  0  0  0  0  0
    3.9890   -1.0340   -1.4830 P   0  0  0  0  0  0  0  0  0  0  0  0
    3.5470    0.9250   -0.5210 P   0  0  0  0  0  0  0  0  0  0  0  0
    2.1490    0.6590    0.5760 N   0  0  0  0  0  0  0  0  0  0  0  0
    1.4260   -0.5230    0.6240 C   0  0  0  0  0  0  0  0  0  0  0  0
    1.8430   -1.4520   -0.2050 O   0  0  0  0  0  0  0  0  0  0  0  0
    0.2780   -0.9100    1.4340 C   0  0  2  0  0  0  0  0  0  0  0  0
   -0.3780   -2.1110    0.9060 N   0  0  0  0  0  0  0  0  0  0  0  0
   -1.6370   -1.9310    0.3030 C   0  0  0  0  0  0  0  0  0  0  0  0
   -1.8930   -2.4240   -0.8050 O   0  0  0  0  0  0  0  0  0  0  0  0
   -2.6450   -1.1230    1.0520 C   0  0  2  0  0  0  0  0  0  0  0  0
   -3.5200   -0.3600    0.2030 N   0  0  0  0  0  0  0  0  0  0  0  0
   -4.9130   -0.6170    0.1490 C   0  0  0  0  0  0  0  0  0  0  0  0
   -5.5040   -1.2060    1.0940 O   0  0  0  0  0  0  0  0  0  0  0  0
   -5.6180   -0.1550   -1.0660 C   0  0  0  0  0  0  0  0  0  0  0  0
   -5.2890    1.3050   -1.3630 C   0  0  0  0  0  0  0  0  0  0  0  0
   -3.8350    1.4420   -1.4800 N   0  0  0  0  0  0  0  0  0  0  0  0
   -2.9980    0.6650   -0.6120 C   0  0  0  0  0  0  0  0  0  0  0  0
   -1.7840    0.9280   -0.6030 O   0  0  0  0  0  0  0  0  0  0  0  0
   -1.9780   -0.2300    2.0550 C   0  0  0  0  0  0  0  0  0  0  0  0
   -2.5730    0.1840    3.0900 O   0  0  0  0  0  0  0  0  0  0  0  0
   -0.6440    0.1070    1.7500 O   0  0  0  0  0  0  0  0  0  0  0  0
    4.9510    1.5040    0.3060 O   0  0  0  0  0  0  0  0  0  0  0  0
    6.0700    1.0500   -0.4100 C   0  0  0  0  0  0  0  0  0  0  0  0
    7.2230    1.5470    0.2990 N   0  0  0  0  0  0  0  0  0  0  0  0
    8.3140    1.1220   -0.3490 O   0  0  0  0  0  0  0  0  0  0  0  0
  1  2  2  0
  2  3  1  0
  3  4  1  0
  3 23  1  0
  4  5  1  0
  5  6  2  0
  7  5  1  6
  7  8  1  0
  7 22  1  0
  8  9  1  0
  9 10  2  0
  9 11  1  0
 11 12  1  6
 11 20  1  0
 12 13  1  0
 12 18  1  0
 13 14  2  0
 13 15  1  0
 15 16  1  0
 16 17  1  0
 17 18  1  0
 18 19  2  0
 20 21  2  0
 20 22  1  0
 23 24  1  0
 24 25  1  0
 25 26  1  0
M  END
