
     RDKit          3D

 27 28  0  0  0  0  0  0  0  0999 V2000
   -0.4230    1.0150    1.2820 N   0  0  0  0  0  0  0  0  0  0  0  0
   -1.2430    0.7300    0.3510 C   0  0  0  0  0  0  0  0  0  0  0  0
   -2.1730    1.7780   -0.0390 N   0  0  0  0  0  0  0  0  0  0  0  0
   -1.7500    3.4950    0.0580 P   0  0  0  0  0  0  0  0  0  0  0  0
   -3.0230    4.4690   -0.5750 O   0  0  0  0  0  0  0  0  0  0  0  0
   -1.4350    3.9910    1.7050 O   0  0  0  0  0  0  0  0  0  0  0  0
   -1.3800   -0.4690   -0.3460 N   0  0  0  0  0  0  0  0  0  0  0  0
   -2.7260   -1.0530   -0.4760 C   0  0  0  0  0  0  0  0  0  0  0  0
   -2.7810   -2.3460    0.3270 C   0  0  0  0  0  0  0  0  0  0  0  0
   -4.4850   -3.0550    0.1700 P   0  0  0  0  0  0  0  0  0  0  0  0
   -5.5940   -2.0340   -0.6390 O   0  0  0  0  0  0  0  0  0  0  0  0
   -4.4540   -4.6800   -0.4220 O   0  0  0  0  0  0  0  0  0  0  0  0
   -0.3030   -1.1510   -0.9670 C   0  0  0  0  0  0  0  0  0  0  0  0
    1.0710   -0.7960   -0.6270 C   0  0  1  0  0  0  0  0  0  0  0  0
    1.4940    0.4900   -0.8320 O   0  0  0  0  0  0  0  0  0  0  0  0
    2.5740    0.7250    0.0150 C   0  0  2  0  0  0  0  0  0  0  0  0
    3.8620    0.9120   -0.6750 C   0  0  0  0  0  0  0  0  0  0  0  0
    3.9550    1.2050   -1.9180 O   0  0  0  0  0  0  0  0  0  0  0  0
    5.0720    0.7650    0.0680 N   0  0  0  0  0  0  0  0  0  0  0  0
    6.2190    1.4080   -0.4450 C   0  0  0  0  0  0  0  0  0  0  0  0
    6.2420    2.0800   -1.4580 O   0  0  0  0  0  0  0  0  0  0  0  0
    5.1270    0.0180    1.2440 O   0  0  0  0  0  0  0  0  0  0  0  0
    3.9280   -0.5700    1.6310 C   0  0  0  0  0  0  0  0  0  0  0  0
    3.8580   -1.2810    2.6930 O   0  0  0  0  0  0  0  0  0  0  0  0
    2.7310   -0.4230    0.8860 N   0  0  0  0  0  0  0  0  0  0  0  0
    1.5350   -1.1700    0.7330 C   0  0  0  0  0  0  0  0  0  0  0  0
    1.0230   -1.9340    1.5370 O   0  0  0  0  0  0  0  0  0  0  0  0
  1  2  2  0
  2  3  1  0
  2  7  1  0
  3  4  1  0
  4  5  1  0
  4  6  1  0
  7  8  1  0
  7 13  1  0
  8  9  1  0
  9 10  1  0
 10 11  1  0
 10 12  1  0
 14 13  1  1
 14 15  1  0
 14 26  1  0
 16 15  1  6
 16 17  1  0
 16 25  1  0
 17 18  2  0
 17 19  1  0
 19 20  1  0
 19 22  1  0
 20 21  2  0
 22 23  1  0
 23 24  2  0
 23 25  1  0
 25 26  1  0
 26 27  2  0
M  END
