
     RDKit          3D

 26 27  0  0  0  0  0  0  0  0999 V2000
    3.4350    1.2410   -0.7100 O   0  0  0  0  0  0  0  0  0  0  0  0
    3.3770    0.3470    0.1600 C   0  0  0  0  0  0  0  0  0  0  0  0
    4.2130    0.4660    1.3140 N   0  0  0  0  0  0  0  0  0  0  0  0
    5.1000    1.6120    1.4420 C   0  0  0  0  0  0  0  0  0  0  0  0
    6.2970    1.6620    0.0250 P   0  0  0  0  0  0  0  0  0  0  0  0
    5.8570    2.9580   -1.0160 O   0  0  0  0  0  0  0  0  0  0  0  0
    6.2610    0.1890   -0.8860 O   0  0  0  0  0  0  0  0  0  0  0  0
    2.4920   -0.7370   -0.0320 N   0  0  0  0  0  0  0  0  0  0  0  0
    1.6840   -0.7720   -1.2340 C   0  0  1  0  0  0  0  0  0  0  0  0
    1.9730   -1.9250   -1.9680 O   0  0  0  0  0  0  0  0  0  0  0  0
    0.2420   -0.8090   -0.8840 C   0  0  0  0  0  0  0  0  0  0  0  0
   -0.3200   -1.5710    0.0400 N   0  0  0  0  0  0  0  0  0  0  0  0
   -1.6340   -1.3230    0.0610 C   0  0  0  0  0  0  0  0  0  0  0  0
   -2.6200   -1.9720    0.9590 C   0  0  1  0  0  0  0  0  0  0  0  0
   -2.8730   -3.4080    0.6490 C   0  0  0  0  0  0  0  0  0  0  0  0
   -2.0120   -4.1080    1.4750 O   0  0  0  0  0  0  0  0  0  0  0  0
   -1.3940   -3.1890    2.2960 C   0  0  0  0  0  0  0  0  0  0  0  0
   -2.1140   -2.0100    2.2530 O   0  0  0  0  0  0  0  0  0  0  0  0
   -1.8800   -0.3940   -0.8670 N   0  0  0  0  0  0  0  0  0  0  0  0
   -3.1380    0.2010   -1.2250 C   0  0  0  0  0  0  0  0  0  0  0  0
   -3.4480    1.4420   -0.4280 C   0  0  0  0  0  0  0  0  0  0  0  0
   -4.6830    1.9280   -0.8590 O   0  0  0  0  0  0  0  0  0  0  0  0
   -5.1430    3.3590   -0.0060 P   0  0  0  0  0  0  0  0  0  0  0  0
   -5.6210    4.6170   -1.1030 O   0  0  0  0  0  0  0  0  0  0  0  0
   -3.7930    3.9550    0.9210 O   0  0  0  0  0  0  0  0  0  0  0  0
   -0.7290   -0.0950   -1.4300 N   0  0  0  0  0  0  0  0  0  0  0  0
  1  2  2  0
  2  3  1  0
  2  8  1  0
  3  4  1  0
  4  5  1  0
  5  6  1  0
  5  7  1  0
  8  9  1  0
  9 10  1  1
  9 11  1  0
 11 12  1  0
 11 26  2  0
 12 13  2  0
 14 13  1  6
 13 19  1  0
 14 15  1  0
 14 18  1  0
 15 16  1  0
 16 17  1  0
 17 18  1  0
 19 20  1  0
 19 26  1  0
 20 21  1  0
 21 22  1  0
 22 23  1  0
 23 24  1  0
 23 25  1  0
M  END
