
     RDKit          3D

  7  6  0  0  0  0  0  0  0  0999 V2000
   -2.2060   -0.8610    0.1150 N   0  0  0  0  0  0  0  0  0  0  0  0
   -0.8200   -1.1190    0.2950 C   0  0  0  0  0  0  0  0  0  0  0  0
    0.0910   -0.1480    0.2340 C   0  0  0  0  0  0  0  0  0  0  0  0
    1.5370   -0.4440    0.4250 C   0  0  0  0  0  0  0  0  0  0  0  0
    2.1830   -0.0560   -0.7470 O   0  0  0  0  0  0  0  0  0  0  0  0
   -0.3560    1.2260   -0.0260 C   0  0  0  0  0  0  0  0  0  0  0  0
    0.2280    1.7300   -1.2080 O   0  0  0  0  0  0  0  0  0  0  0  0
  1  2  1  0
  2  3  2  3
  3  4  1  0
  3  6  1  0
  4  5  1  0
  6  7  1  0
M  END
