
     RDKit          3D

  7  6  0  0  0  0  0  0  0  0999 V2000
    2.4340    0.7740    0.1170 N   0  0  0  0  0  0  0  0  0  0  0  0
    2.0510   -0.6120    0.0800 C   0  0  0  0  0  0  0  0  0  0  0  0
    0.6920   -0.8500   -0.4790 C   0  0  0  0  0  0  0  0  0  0  0  0
   -0.3130   -0.2050    0.2580 O   0  0  0  0  0  0  0  0  0  0  0  0
   -1.5650   -0.4270   -0.2600 C   0  0  0  0  0  0  0  0  0  0  0  0
   -2.5620    0.3120    0.6100 C   0  0  0  0  0  0  0  0  0  0  0  0
   -2.2160    1.6700    0.5590 O   0  0  0  0  0  0  0  0  0  0  0  0
  1  2  1  0
  2  3  1  0
  3  4  1  0
  4  5  1  0
  5  6  1  0
  6  7  1  0
M  CHG  1   1   1
M  END
