
     RDKit          3D

  6  5  0  0  0  0  0  0  0  0999 V2000
   -0.3580    1.8520    0.1490 N   0  0  0  0  0  0  0  0  0  0  0  0
   -0.0530    0.4810    0.1290 C   0  0  0  0  0  0  0  0  0  0  0  0
    1.1820    0.0850    0.2670 C   0  0  0  0  0  0  0  0  0  0  0  0
    1.4650   -1.2670    0.2450 O   0  0  0  0  0  0  0  0  0  0  0  0
   -1.1290   -0.5130   -0.0490 C   0  0  0  0  0  0  0  0  0  0  0  0
   -0.6140   -1.8170   -0.0400 O   0  0  0  0  0  0  0  0  0  0  0  0
  1  2  1  0
  2  3  2  3
  2  5  1  0
  3  4  1  0
  5  6  1  0
M  END
