
     RDKit          3D

  7  6  0  0  0  0  0  0  0  0999 V2000
    2.9080    1.2180    0.4620 C   0  0  0  0  0  0  0  0  0  0  0  0
    1.7360    0.5220   -0.3180 C   0  0  0  0  0  0  0  0  0  0  0  0
    0.8130    0.2750    0.6810 O   0  0  0  0  0  0  0  0  0  0  0  0
   -0.0120   -0.7170    0.5250 C   0  0  0  0  0  0  0  0  0  0  0  0
   -1.0980   -0.8410   -0.5090 C   0  0  0  0  0  0  0  0  0  0  0  0
   -1.9020    0.2910   -0.2180 O   0  0  0  0  0  0  0  0  0  0  0  0
   -3.1030    0.0170    0.2760 N   0  0  0  0  0  0  0  0  0  0  0  0
  1  2  1  0
  2  3  1  0
  3  4  1  0
  4  5  1  0
  5  6  1  0
  6  7  1  0
M  CHG  1   7   1
M  END
