
     RDKit          3D

  7  6  0  0  0  0  0  0  0  0999 V2000
    2.6060    0.3760   -0.1610 C   0  0  0  0  0  0  0  0  0  0  0  0
    1.3160   -0.0550   -0.4500 O   0  0  0  0  0  0  0  0  0  0  0  0
    0.4690    0.2200    0.6240 C   0  0  0  0  0  0  0  0  0  0  0  0
   -0.9050   -0.2470    0.2960 C   0  0  0  0  0  0  0  0  0  0  0  0
   -1.0650   -1.6320    0.0230 N   0  0  0  0  0  0  0  0  0  0  0  0
   -1.9280    0.5710    0.2590 C   0  0  0  0  0  0  0  0  0  0  0  0
   -1.8120    1.9190    0.5170 O   0  0  0  0  0  0  0  0  0  0  0  0
  1  2  1  0
  2  3  1  0
  3  4  1  0
  4  5  1  0
  4  6  2  3
  6  7  1  0
M  CHG  1   5   1
M  END
