
     RDKit          3D

 14 15  0  0  0  0  0  0  0  0999 V2000
    3.5920   -0.3020    0.2960 C   0  0  0  0  0  0  0  0  0  0  0  0
    2.1240   -0.0420   -0.0850 C   0  0  2  0  0  0  0  0  0  0  0  0
    1.9980    1.4420   -0.1460 C   0  0  0  0  0  0  0  0  0  0  0  0
    0.8520    1.7450   -1.1030 O   0  0  0  0  0  0  0  0  0  0  0  0
   -0.2590    0.8760   -1.0510 C   0  0  0  0  0  0  0  0  0  0  0  0
   -1.2650    1.7020   -1.1110 C   0  0  0  0  0  0  0  0  0  0  0  0
   -2.6900    1.6310   -0.5080 C   0  0  0  0  0  0  0  0  0  0  0  0
   -2.6430    0.5200    0.5920 C   0  0  0  0  0  0  0  0  0  0  0  0
   -2.3200   -0.8190    0.1540 C   0  0  0  0  0  0  0  0  0  0  0  0
   -1.1660   -1.6040    0.8310 C   0  0  0  0  0  0  0  0  0  0  0  0
    0.0280   -0.9170    0.6020 C   0  0  1  0  0  0  0  0  0  0  0  0
    1.3640   -0.8930    0.7490 N   0  0  0  0  0  0  0  0  0  0  0  0
   -0.1410   -0.5470   -0.9370 C   0  0  0  0  0  0  0  0  0  0  0  0
   -0.1380   -1.5240   -1.7300 N   0  0  0  0  0  0  0  0  0  0  0  0
  2  1  1  1
  2  3  1  0
  2 12  1  0
  3  4  1  0
  4  5  1  0
  5  6  2  0
  5 13  1  0
  6  7  1  0
  7  8  1  0
  8  9  1  0
  9 10  1  0
 11 10  1  6
 11 12  1  0
 11 13  1  0
 13 14  2  0
M  CHG  1  12   1
M  END
