
     RDKit          3D

 14 15  0  0  0  0  0  0  0  0999 V2000
    2.2580    1.1540   -0.7450 N   0  0  0  0  0  0  0  0  0  0  0  0
    2.0290    0.1680    0.3030 C   0  0  2  0  0  0  0  0  0  0  0  0
    3.0680    0.4430    1.3910 C   0  0  0  0  0  0  0  0  0  0  0  0
    4.3730    0.3880    0.9460 O   0  0  0  0  0  0  0  0  0  0  0  0
    2.2260   -1.2100   -0.1900 C   0  0  0  0  0  0  0  0  0  0  0  0
    0.9870   -2.0060   -0.4760 C   0  0  0  0  0  0  0  0  0  0  0  0
   -0.2240   -1.1410   -0.8090 C   0  0  0  0  0  0  0  0  0  0  0  0
   -0.4630   -0.2440    0.3490 C   0  0  2  0  0  0  0  0  0  0  0  0
   -1.5480    0.6980    0.2130 N   0  0  0  0  0  0  0  0  0  0  0  0
   -2.5090    0.5570    1.3090 C   0  0  0  0  0  0  0  0  0  0  0  0
   -3.8780    0.5410    0.7050 C   0  0  0  0  0  0  0  0  0  0  0  0
   -3.5720   -0.1280   -0.6350 C   0  0  0  0  0  0  0  0  0  0  0  0
   -2.2980    0.6010   -1.0080 C   0  0  0  0  0  0  0  0  0  0  0  0
    0.7000    0.4350    0.9420 C   0  0  0  0  0  0  0  0  0  0  0  0
  2  1  1  6
  2  3  1  0
  2  5  1  0
  2 14  1  0
  3  4  1  0
  5  6  1  0
  6  7  1  0
  7  8  1  0
  8  9  1  6
  8 14  1  0
  9 10  1  0
  9 13  1  0
 10 11  1  0
 11 12  1  0
 12 13  1  0
M  CHG  1   1   1
M  END
