
     RDKit          3D

 21 23  0  0  0  0  0  0  0  0999 V2000
    5.6440    0.1650    0.5780 C   0  0  0  0  0  0  0  0  0  0  0  0
    5.0350   -0.9750   -0.1990 C   0  0  0  0  0  0  0  0  0  0  0  0
    3.6670   -0.9570   -0.1320 O   0  0  0  0  0  0  0  0  0  0  0  0
    3.0590    0.1750   -0.6180 C   0  0  0  0  0  0  0  0  0  0  0  0
    1.5820    0.0210   -0.4920 C   0  0  0  0  0  0  0  0  0  0  0  0
    1.0830   -1.2750   -0.3540 C   0  0  0  0  0  0  0  0  0  0  0  0
   -0.2620   -1.4910   -0.2320 C   0  0  0  0  0  0  0  0  0  0  0  0
   -0.9700   -2.6230   -0.0820 N   0  0  0  0  0  0  0  0  0  0  0  0
   -2.2790   -2.3060    0.0030 C   0  0  0  0  0  0  0  0  0  0  0  0
   -3.4340   -3.0420    0.1680 C   0  0  0  0  0  0  0  0  0  0  0  0
   -4.6770   -2.4610    0.2350 C   0  0  0  0  0  0  0  0  0  0  0  0
   -4.7940   -1.0910    0.1370 C   0  0  0  0  0  0  0  0  0  0  0  0
   -3.6280   -0.3300   -0.0300 C   0  0  0  0  0  0  0  0  0  0  0  0
   -2.3970   -0.9380   -0.0960 C   0  0  0  0  0  0  0  0  0  0  0  0
   -1.1140   -0.3980   -0.2480 C   0  0  0  0  0  0  0  0  0  0  0  0
   -0.6240    0.8830   -0.3850 C   0  0  0  0  0  0  0  0  0  0  0  0
   -1.4830    2.0510   -0.4540 C   0  0  0  0  0  0  0  0  0  0  0  0
   -1.2470    3.1270    0.2750 C   0  0  0  0  0  0  0  0  0  0  0  0
   -2.1350    4.3170    0.1970 C   0  0  0  0  0  0  0  0  0  0  0  0
    0.1420    3.1740    1.3730 Cl  0  0  0  0  0  0  0  0  0  0  0  0
    0.7210    1.0350   -0.5010 N   0  0  0  0  0  0  0  0  0  0  0  0
  1  2  1  0
  2  3  1  0
  3  4  1  0
  4  5  1  0
  5  6  2  0
  5 21  1  0
  6  7  1  0
  7  8  1  0
  7 15  2  0
  8  9  1  0
  9 10  2  0
  9 14  1  0
 10 11  1  0
 11 12  2  0
 12 13  1  0
 13 14  2  0
 14 15  1  0
 15 16  1  0
 16 17  1  0
 16 21  2  0
 17 18  2  3
 18 19  1  0
 18 20  1  0
M  END
