
     RDKit          3D

 21 22  0  0  0  0  0  0  0  0999 V2000
    3.8810    0.1450    1.3860 C   0  0  0  0  0  0  0  0  0  0  0  0
    3.5450   -1.1280    0.6510 C   0  0  0  0  0  0  0  0  0  0  0  0
    3.9190   -0.9920   -0.7730 C   0  0  0  0  0  0  0  0  0  0  0  0
    4.8570   -1.7020   -1.3680 N   0  0  0  0  0  0  0  0  0  0  0  0
    4.9480   -1.3050   -2.7270 C   0  0  0  0  0  0  0  0  0  0  0  0
    6.0670   -1.9830   -3.9140 Cl  0  0  0  0  0  0  0  0  0  0  0  0
    4.0810   -0.3580   -2.9880 C   0  0  0  0  0  0  0  0  0  0  0  0
    3.3440   -0.0820   -1.7350 C   0  0  0  0  0  0  0  0  0  0  0  0
    2.3900    0.7960   -1.6480 C   0  0  0  0  0  0  0  0  0  0  0  0
    1.6450    1.0640   -0.4770 N   0  0  0  0  0  0  0  0  0  0  0  0
    0.4500    0.2930   -0.2490 C   0  0  0  0  0  0  0  0  0  0  0  0
   -0.6610    0.8560    0.1860 C   0  0  0  0  0  0  0  0  0  0  0  0
   -0.6370    2.3280    0.4360 C   0  0  0  0  0  0  0  0  0  0  0  0
   -2.0450    2.8500    0.6720 C   0  0  0  0  0  0  0  0  0  0  0  0
   -2.9200    2.1460   -0.3190 C   0  0  0  0  0  0  0  0  0  0  0  0
   -3.1740    0.7350    0.2100 C   0  0  0  0  0  0  0  0  0  0  0  0
   -1.8610    0.0470    0.4110 C   0  0  0  0  0  0  0  0  0  0  0  0
   -1.7550   -1.2180    0.7670 C   0  0  0  0  0  0  0  0  0  0  0  0
   -2.8780   -2.1360    1.0230 C   0  0  0  0  0  0  0  0  0  0  0  0
   -4.0790   -1.5080    0.8460 O   0  0  0  0  0  0  0  0  0  0  0  0
   -5.1800   -2.2990    1.0670 C   0  0  0  0  0  0  0  0  0  0  0  0
  1  2  1  0
  2  3  1  0
  3  4  2  0
  3  8  1  0
  4  5  1  0
  5  6  1  0
  5  7  2  0
  7  8  1  0
  8  9  2  3
  9 10  1  0
 10 11  1  0
 11 12  2  3
 12 13  1  0
 12 17  1  0
 13 14  1  0
 14 15  1  0
 15 16  1  0
 16 17  1  0
 17 18  2  3
 18 19  1  0
 19 20  1  0
 20 21  1  0
M  END
