
     RDKit          3D

 21 23  0  0  0  0  0  0  0  0999 V2000
   -3.1070   -0.5670    1.9220 C   0  0  0  0  0  0  0  0  0  0  0  0
   -3.7500   -0.1190    0.8630 C   0  0  0  0  0  0  0  0  0  0  0  0
   -5.2400   -0.2780    0.8110 C   0  0  0  0  0  0  0  0  0  0  0  0
   -3.0590    0.5240   -0.2680 C   0  0  0  0  0  0  0  0  0  0  0  0
   -3.7610    0.9410   -1.2690 C   0  0  0  0  0  0  0  0  0  0  0  0
   -3.2100    1.5960   -2.4580 C   0  0  0  0  0  0  0  0  0  0  0  0
   -3.6400    0.6100   -3.8950 Cl  0  0  0  0  0  0  0  0  0  0  0  0
   -1.6020    0.6680   -0.1860 C   0  0  0  0  0  0  0  0  0  0  0  0
   -0.9220   -0.6100   -0.1090 N   0  0  0  0  0  0  0  0  0  0  0  0
    0.4810   -0.7250   -0.0030 C   0  0  0  0  0  0  0  0  0  0  0  0
    1.0490   -1.9830    0.0650 C   0  0  0  0  0  0  0  0  0  0  0  0
    2.4110   -2.1780    0.1690 C   0  0  0  0  0  0  0  0  0  0  0  0
    3.2620   -1.0790    0.2090 C   0  0  0  0  0  0  0  0  0  0  0  0
    2.7140    0.1760    0.1420 C   0  0  0  0  0  0  0  0  0  0  0  0
    1.3290    0.3470    0.0360 C   0  0  0  0  0  0  0  0  0  0  0  0
    3.8270    1.1160    0.2030 C   0  0  0  0  0  0  0  0  0  0  0  0
    4.9840    0.5090    0.3010 C   0  0  0  0  0  0  0  0  0  0  0  0
    6.4730    0.6330    0.4080 C   0  0  0  0  0  0  0  0  0  0  0  0
    6.8830   -0.6980    0.4660 O   0  0  0  0  0  0  0  0  0  0  0  0
    5.8260   -1.5610    0.4070 N   0  0  0  0  0  0  0  0  0  0  0  0
    4.7100   -0.9210    0.3120 C   0  0  0  0  0  0  0  0  0  0  0  0
  1  2  2  0
  2  3  1  0
  2  4  1  0
  4  5  2  3
  4  8  1  0
  5  6  1  0
  6  7  1  0
  8  9  1  0
  9 10  1  0
 10 11  2  0
 10 15  1  0
 11 12  1  0
 12 13  2  0
 13 14  1  0
 13 21  1  0
 14 15  2  0
 14 16  1  0
 16 17  2  0
 17 18  1  0
 17 21  1  0
 18 19  1  0
 19 20  1  0
 20 21  2  0
M  END
