
     RDKit          3D

 21 23  0  0  0  0  0  0  0  0999 V2000
    6.1630   -1.9830   -0.7880 C   0  0  0  0  0  0  0  0  0  0  0  0
    5.0070   -2.0250   -0.0100 O   0  0  0  0  0  0  0  0  0  0  0  0
    3.9690   -1.1470   -0.2180 C   0  0  0  0  0  0  0  0  0  0  0  0
    4.0810   -0.2050   -1.2220 C   0  0  0  0  0  0  0  0  0  0  0  0
    3.0400    0.6740   -1.4290 C   0  0  0  0  0  0  0  0  0  0  0  0
    1.8890    0.6350   -0.6560 C   0  0  0  0  0  0  0  0  0  0  0  0
    0.8670    1.5170   -0.8780 C   0  0  0  0  0  0  0  0  0  0  0  0
   -0.2750    1.4600   -0.0940 C   0  0  0  0  0  0  0  0  0  0  0  0
   -0.4270    0.5450    0.9080 C   0  0  0  0  0  0  0  0  0  0  0  0
   -1.5770    0.4720    1.7000 N   0  0  0  0  0  0  0  0  0  0  0  0
   -2.7700    1.2020    1.5250 C   0  0  0  0  0  0  0  0  0  0  0  0
   -3.4870    0.9280    0.2460 C   0  0  0  0  0  0  0  0  0  0  0  0
   -3.8730    1.7170   -0.7300 C   0  0  0  0  0  0  0  0  0  0  0  0
   -3.6140    3.4540   -0.7630 Cl  0  0  0  0  0  0  0  0  0  0  0  0
   -4.5530    0.9280   -1.7870 C   0  0  0  0  0  0  0  0  0  0  0  0
   -4.5010   -0.4050   -1.2810 N   0  0  0  0  0  0  0  0  0  0  0  0
   -3.9070   -0.4280   -0.1410 C   0  0  0  0  0  0  0  0  0  0  0  0
   -3.6980   -1.6770    0.6390 C   0  0  0  0  0  0  0  0  0  0  0  0
    0.6430   -0.3380    1.1000 C   0  0  0  0  0  0  0  0  0  0  0  0
    1.7870   -0.3240    0.3580 C   0  0  0  0  0  0  0  0  0  0  0  0
    2.8280   -1.1990    0.5610 C   0  0  0  0  0  0  0  0  0  0  0  0
  1  2  1  0
  2  3  1  0
  3  4  2  0
  3 21  1  0
  4  5  1  0
  5  6  2  0
  6  7  1  0
  6 20  1  0
  7  8  2  0
  8  9  1  0
  9 10  1  0
  9 19  2  0
 10 11  1  0
 11 12  1  0
 12 13  2  0
 12 17  1  0
 13 14  1  0
 13 15  1  0
 15 16  1  0
 16 17  2  0
 17 18  1  0
 19 20  1  0
 20 21  2  0
M  END
