
     RDKit          3D

 13 14  0  0  0  0  0  0  0  0999 V2000
    0.1240    2.2170   -1.0310 C   0  0  0  0  0  0  0  0  0  0  0  0
   -0.0460    0.8180   -1.2030 N   0  0  0  0  0  0  0  0  0  0  0  0
    1.2090    0.1780   -1.4520 C   0  0  0  0  0  0  0  0  0  0  0  0
    1.6820   -0.2780   -0.0890 C   0  0  2  0  0  0  0  0  0  0  0  0
    2.4940    0.7720    0.6240 C   0  0  0  0  0  0  0  0  0  0  0  0
    2.5410   -1.4920   -0.2880 C   0  0  0  0  0  0  0  0  0  0  0  0
    0.3990   -0.5490    0.6270 C   0  0  2  0  0  0  0  0  0  0  0  0
    0.1640   -1.9430    0.8480 N   0  0  0  0  0  0  0  0  0  0  0  0
   -0.7080    0.1400   -0.1330 C   0  0  1  0  0  0  0  0  0  0  0  0
   -1.5380    1.0340    0.7440 C   0  0  0  0  0  0  0  0  0  0  0  0
   -2.9710    0.8780    0.2180 C   0  0  0  0  0  0  0  0  0  0  0  0
   -2.9980   -0.6450    0.0390 C   0  0  0  0  0  0  0  0  0  0  0  0
   -1.7000   -0.8270   -0.7280 C   0  0  0  0  0  0  0  0  0  0  0  0
  1  2  1  0
  2  3  1  0
  2  9  1  0
  3  4  1  0
  4  5  1  1
  4  6  1  0
  4  7  1  0
  7  8  1  6
  7  9  1  0
  9 10  1  1
  9 13  1  0
 10 11  1  0
 11 12  1  0
 12 13  1  0
M  CHG  1   8   1
M  END
