
     RDKit          3D

 41 42  0  0  0  0  0  0  0  0999 V2000
    9.0900   -1.5680    1.4740 C   0  0  0  0  0  0  0  0  0  0  0  0
    9.0000   -1.6040   -0.0470 C   0  0  0  0  0  0  0  0  0  0  0  0
    7.6530   -1.0600   -0.5110 C   0  0  2  0  0  0  0  0  0  0  0  0
    7.6080   -1.1150   -2.0070 C   0  0  0  0  0  0  0  0  0  0  0  0
    7.3240    0.1970    0.0060 N   0  0  0  0  0  0  0  0  0  0  0  0
    8.1710    1.2730   -0.2400 C   0  0  0  0  0  0  0  0  0  0  0  0
    8.3070    1.8020   -1.6500 C   0  0  0  0  0  0  0  0  0  0  0  0
    9.2720    3.0240   -1.6000 C   0  0  0  0  0  0  0  0  0  0  0  0
    9.4020    3.4970   -2.8800 O   0  0  0  0  0  0  0  0  0  0  0  0
    6.0510    0.3880    0.5830 C   0  0  2  0  0  0  0  0  0  0  0  0
    5.8110    1.7410    1.1990 C   0  0  0  0  0  0  0  0  0  0  0  0
    6.6340    2.1660    2.3330 C   0  0  0  0  0  0  0  0  0  0  0  0
    5.6670   -0.7080    1.5730 C   0  0  0  0  0  0  0  0  0  0  0  0
    4.2110   -0.3620    1.8060 C   0  0  0  0  0  0  0  0  0  0  0  0
    3.7840   -0.0330    0.4800 N   0  0  0  0  0  0  0  0  0  0  0  0
    2.4270    0.0390    0.0470 C   0  0  0  0  0  0  0  0  0  0  0  0
    2.0850    0.3440   -1.1140 O   0  0  0  0  0  0  0  0  0  0  0  0
    1.4080   -0.2480    0.9640 O   0  0  0  0  0  0  0  0  0  0  0  0
    0.0540   -0.1690    0.5010 C   0  0  2  0  0  0  0  0  0  0  0  0
   -0.6160    0.9150    1.3150 C   0  0  0  0  0  0  0  0  0  0  0  0
   -0.6170   -1.4770    0.6650 C   0  0  0  0  0  0  0  0  0  0  0  0
    0.0390   -2.4340    1.1710 O   0  0  0  0  0  0  0  0  0  0  0  0
   -1.9610   -1.7200    0.2840 N   0  0  0  0  0  0  0  0  0  0  0  0
   -2.5750   -3.0180    0.4620 C   0  0  0  0  0  0  0  0  0  0  0  0
   -3.1150   -3.3700   -0.9350 C   0  0  0  0  0  0  0  0  0  0  0  0
   -4.3220   -2.4800   -1.1020 C   0  0  0  0  0  0  0  0  0  0  0  0
   -3.9610   -1.0510   -1.0150 C   0  0  1  0  0  0  0  0  0  0  0  0
   -5.1270   -0.2660   -0.3260 C   0  0  0  0  0  0  0  0  0  0  0  0
   -6.2670   -0.4340   -1.1280 N   0  0  0  0  0  0  0  0  0  0  0  0
   -7.5540   -0.0330   -0.5490 C   0  0  1  0  0  0  0  0  0  0  0  0
   -8.1530   -1.0920    0.2760 C   0  0  2  0  0  0  0  0  0  0  0  0
   -8.3210   -2.3340   -0.6450 C   0  0  0  0  0  0  0  0  0  0  0  0
   -9.6310   -0.8370    0.6490 C   0  0  0  0  0  0  0  0  0  0  0  0
   -7.4860   -1.5520    1.5020 C   0  0  0  0  0  0  0  0  0  0  0  0
   -7.4630    1.3590   -0.0430 C   0  0  1  0  0  0  0  0  0  0  0  0
   -8.7960    1.9360    0.3840 C   0  0  0  0  0  0  0  0  0  0  0  0
   -6.4950    1.5770    0.9300 O   0  0  0  0  0  0  0  0  0  0  0  0
   -7.0670    2.2520   -1.2330 C   0  0  0  0  0  0  0  0  0  0  0  0
   -7.0480    3.6450   -0.9150 N   0  0  0  0  0  0  0  0  0  0  0  0
   -2.7210   -0.6550   -0.2970 C   0  0  0  0  0  0  0  0  0  0  0  0
    4.9300    0.2110   -0.4150 C   0  0  0  0  0  0  0  0  0  0  0  0
  1  2  1  0
  2  3  1  0
  3  4  1  6
  3  5  1  0
  5  6  1  0
  5 10  1  0
  6  7  1  0
  7  8  1  0
  8  9  1  0
 10 11  1  1
 10 13  1  0
 10 41  1  0
 11 12  1  0
 13 14  1  0
 14 15  1  0
 15 16  1  0
 15 41  1  0
 16 17  2  0
 16 18  1  0
 18 19  1  0
 19 20  1  1
 19 21  1  0
 21 22  2  0
 21 23  1  0
 23 24  1  0
 23 40  1  0
 24 25  1  0
 25 26  1  0
 26 27  1  0
 27 28  1  1
 27 40  1  0
 28 29  1  0
 30 29  1  1
 30 31  1  0
 30 35  1  0
 31 32  1  6
 31 33  1  0
 31 34  1  0
 35 36  1  1
 35 37  1  0
 35 38  1  0
 38 39  1  0
M  CHG  2  29   1  39   1
M  END
