
     RDKit          3D

 41 44  0  0  0  0  0  0  0  0999 V2000
   -7.7520   -2.4850    2.4960 C   0  0  0  0  0  0  0  0  0  0  0  0
   -6.7150   -1.4660    2.1790 C   0  0  0  0  0  0  0  0  0  0  0  0
   -6.0230   -1.0490    3.1400 O   0  0  0  0  0  0  0  0  0  0  0  0
   -6.5550   -1.0200    0.8450 N   0  0  0  0  0  0  0  0  0  0  0  0
   -5.5380   -0.0420    0.5560 C   0  0  0  0  0  0  0  0  0  0  0  0
   -5.4220    0.3730   -0.8370 C   0  0  2  0  0  0  0  0  0  0  0  0
   -4.1550    1.1220   -0.8740 O   0  0  0  0  0  0  0  0  0  0  0  0
   -3.6830    1.0330   -2.1830 C   0  0  1  0  0  0  0  0  0  0  0  0
   -2.4380    0.2270   -2.1740 C   0  0  0  0  0  0  0  0  0  0  0  0
   -2.0150   -0.2690   -3.2890 O   0  0  0  0  0  0  0  0  0  0  0  0
   -1.6430   -0.0670   -1.0490 N   0  0  0  0  0  0  0  0  0  0  0  0
   -0.4730   -0.8900   -1.1440 C   0  0  0  0  0  0  0  0  0  0  0  0
   -0.6780   -2.1920   -1.5330 C   0  0  0  0  0  0  0  0  0  0  0  0
    0.3670   -3.0640   -1.6760 C   0  0  0  0  0  0  0  0  0  0  0  0
    1.6540   -2.5590   -1.4100 C   0  0  0  0  0  0  0  0  0  0  0  0
    1.8840   -1.2530   -1.0210 C   0  0  0  0  0  0  0  0  0  0  0  0
    3.2740   -0.8030   -0.7920 C   0  0  0  0  0  0  0  0  0  0  0  0
    4.1740   -1.7230   -0.3250 C   0  0  0  0  0  0  0  0  0  0  0  0
    5.5120   -1.3470   -0.1380 C   0  0  0  0  0  0  0  0  0  0  0  0
    5.9290   -0.0660   -0.4210 C   0  0  0  0  0  0  0  0  0  0  0  0
    7.3290    0.3120   -0.2420 C   0  0  0  0  0  0  0  0  0  0  0  0
    8.4740    0.6420   -0.0950 C   0  0  0  0  0  0  0  0  0  0  0  0
    9.8710    1.0690    0.0950 C   0  0  0  0  0  0  0  0  0  0  0  0
   10.4680    1.7750   -0.7470 O   0  0  0  0  0  0  0  0  0  0  0  0
   10.5730    0.6880    1.2470 N   0  0  0  0  0  0  0  0  0  0  0  0
   11.9290    0.9890    1.6180 C   0  0  0  0  0  0  0  0  0  0  0  0
   12.1850    0.3680    3.0000 C   0  0  2  0  0  0  0  0  0  0  0  0
   13.5280    0.7090    3.5650 C   0  0  0  0  0  0  0  0  0  0  0  0
   11.9760   -1.0300    2.9180 O   0  0  0  0  0  0  0  0  0  0  0  0
    5.0250    0.8420   -0.8860 C   0  0  0  0  0  0  0  0  0  0  0  0
    3.6760    0.4640   -1.0730 C   0  0  0  0  0  0  0  0  0  0  0  0
    0.8050   -0.4160   -0.8870 C   0  0  0  0  0  0  0  0  0  0  0  0
   -4.6270    0.5530   -3.2110 C   0  0  0  0  0  0  0  0  0  0  0  0
   -6.0200    1.0610   -3.0670 C   0  0  0  0  0  0  0  0  0  0  0  0
   -6.3810    1.2000   -1.5520 C   0  0  1  0  0  0  0  0  0  0  0  0
   -7.8110    1.1450   -1.4580 C   0  0  0  0  0  0  0  0  0  0  0  0
   -8.5460    1.4520   -0.2180 C   0  0  0  0  0  0  0  0  0  0  0  0
   -9.1310    0.7590    0.7580 C   0  0  0  0  0  0  0  0  0  0  0  0
   -9.7030    1.3830    1.8010 C   0  0  0  0  0  0  0  0  0  0  0  0
   -9.6720    2.7470    1.8310 C   0  0  0  0  0  0  0  0  0  0  0  0
   -8.7920    3.1310    0.3110 S   0  0  0  0  0  0  0  0  0  0  0  0
  1  2  1  0
  2  3  2  0
  2  4  1  0
  4  5  1  0
  6  5  1  1
  6  7  1  0
  6 35  1  0
  7  8  1  0
  8  9  1  1
  8 33  1  0
  9 10  2  0
  9 11  1  0
 11 12  1  0
 12 13  2  0
 12 32  1  0
 13 14  1  0
 14 15  2  0
 15 16  1  0
 16 17  1  0
 16 32  2  0
 17 18  2  0
 17 31  1  0
 18 19  1  0
 19 20  2  0
 20 21  1  0
 20 30  1  0
 21 22  3  0
 22 23  1  0
 23 24  2  0
 23 25  1  0
 25 26  1  0
 26 27  1  0
 27 28  1  6
 27 29  1  0
 30 31  2  0
 33 34  1  0
 34 35  1  0
 35 36  1  6
 36 37  1  0
 37 38  2  0
 37 41  1  0
 38 39  1  0
 39 40  2  0
 40 41  1  0
M  END
