
     RDKit          3D

 41 45  0  0  0  0  0  0  0  0999 V2000
    6.3010    0.1320    2.0860 C   0  0  0  0  0  0  0  0  0  0  0  0
    4.8640   -0.1030    1.8030 C   0  0  0  0  0  0  0  0  0  0  0  0
    4.4740   -0.4840    0.4450 C   0  0  0  0  0  0  0  0  0  0  0  0
    4.9740   -1.6240   -0.2030 C   0  0  0  0  0  0  0  0  0  0  0  0
    6.1310   -2.3500    0.4110 C   0  0  0  0  0  0  0  0  0  0  0  0
    4.4700   -2.0960   -1.4010 C   0  0  0  0  0  0  0  0  0  0  0  0
    5.0900   -3.3260   -1.9970 C   0  0  0  0  0  0  0  0  0  0  0  0
    3.4210   -1.4180   -1.9980 C   0  0  0  0  0  0  0  0  0  0  0  0
    2.8990   -0.2960   -1.3960 C   0  0  0  0  0  0  0  0  0  0  0  0
    3.4230    0.1720   -0.1850 C   0  0  0  0  0  0  0  0  0  0  0  0
    2.8590    1.3230    0.3830 N   0  0  0  0  0  0  0  0  0  0  0  0
    3.6140    2.3560    0.9030 C   0  0  0  0  0  0  0  0  0  0  0  0
    3.0570    3.1710    1.6970 O   0  0  0  0  0  0  0  0  0  0  0  0
    5.0090    2.6200    0.6150 C   0  0  2  0  0  0  0  0  0  0  0  0
    5.8700    3.2670    1.6520 C   0  0  0  0  0  0  0  0  0  0  0  0
    5.5130    4.0840    0.4580 C   0  0  0  0  0  0  0  0  0  0  0  0
    1.3640    1.4240    0.2920 C   0  0  0  0  0  0  0  0  0  0  0  0
    0.9620    1.2900   -1.1240 C   0  0  2  0  0  0  0  0  0  0  0  0
   -0.4930    1.1810   -1.3770 C   0  0  0  0  0  0  0  0  0  0  0  0
   -0.9330    1.4230   -2.5320 O   0  0  0  0  0  0  0  0  0  0  0  0
   -1.4280    0.8030   -0.3640 N   0  0  0  0  0  0  0  0  0  0  0  0
   -2.8360    0.6950   -0.5800 C   0  0  0  0  0  0  0  0  0  0  0  0
   -3.4580    1.3270   -1.6340 C   0  0  0  0  0  0  0  0  0  0  0  0
   -4.8020    1.2650   -1.8620 C   0  0  0  0  0  0  0  0  0  0  0  0
   -5.3650    1.9750   -3.0350 C   0  0  0  0  0  0  0  0  0  0  0  0
   -5.6310    0.5170   -0.9770 C   0  0  0  0  0  0  0  0  0  0  0  0
   -7.0290    0.4910   -1.3480 C   0  0  0  0  0  0  0  0  0  0  0  0
   -8.2900   -0.3410   -0.5050 S   0  0  0  0  0  0  0  0  0  0  0  0
   -8.3820   -2.1100   -0.5330 C   0  0  0  0  0  0  0  0  0  0  0  0
   -5.0260   -0.1170    0.0880 C   0  0  0  0  0  0  0  0  0  0  0  0
   -5.8740   -0.6650    1.1860 C   0  0  0  0  0  0  0  0  0  0  0  0
   -3.6660   -0.0510    0.2930 C   0  0  0  0  0  0  0  0  0  0  0  0
   -2.9480   -0.7760    1.3610 C   0  0  2  0  0  0  0  0  0  0  0  0
   -3.4880   -2.2090    1.3930 C   0  0  0  0  0  0  0  0  0  0  0  0
   -4.0650   -2.4830    2.7040 C   0  0  0  0  0  0  0  0  0  0  0  0
   -4.7900   -3.4810    3.0610 O   0  0  0  0  0  0  0  0  0  0  0  0
   -3.6680   -1.4080    3.5400 N   0  0  0  0  0  0  0  0  0  0  0  0
   -3.1580   -0.3460    2.7270 C   0  0  0  0  0  0  0  0  0  0  0  0
   -2.9360    0.8080    3.1980 O   0  0  0  0  0  0  0  0  0  0  0  0
    1.7470    0.3520   -1.9740 C   0  0  2  0  0  0  0  0  0  0  0  0
    0.8360   -0.7060   -2.3110 O   0  0  0  0  0  0  0  0  0  0  0  0
  1  2  1  0
  2  3  1  0
  3  4  2  0
  3 10  1  0
  4  5  1  0
  4  6  1  0
  6  7  1  0
  6  8  2  0
  8  9  1  0
  9 10  2  0
  9 40  1  0
 10 11  1  0
 11 12  1  0
 11 17  1  0
 12 13  2  0
 14 12  1  1
 14 15  1  0
 14 16  1  0
 15 16  1  0
 17 18  1  0
 18 19  1  1
 18 40  1  0
 19 20  2  0
 19 21  1  0
 21 22  1  0
 22 23  2  0
 22 32  1  0
 23 24  1  0
 24 25  1  0
 24 26  2  0
 26 27  1  0
 26 30  1  0
 27 28  1  0
 28 29  1  0
 30 31  1  0
 30 32  2  0
 33 32  1  6
 33 34  1  0
 33 38  1  0
 34 35  1  0
 35 36  2  0
 35 37  1  0
 37 38  1  0
 38 39  2  0
 40 41  1  1
M  END
