
     RDKit          3D

 40 43  0  0  0  0  0  0  0  0999 V2000
    1.3540    6.0120    3.1160 C   0  0  0  0  0  0  0  0  0  0  0  0
    0.1670    5.3110    2.8650 O   0  0  0  0  0  0  0  0  0  0  0  0
    0.0420    4.3220    1.9090 C   0  0  0  0  0  0  0  0  0  0  0  0
    1.1380    3.9980    1.1530 C   0  0  0  0  0  0  0  0  0  0  0  0
    1.0610    3.0260    0.1960 C   0  0  0  0  0  0  0  0  0  0  0  0
   -0.1180    2.3240   -0.0600 C   0  0  0  0  0  0  0  0  0  0  0  0
   -1.2210    2.6630    0.7130 C   0  0  0  0  0  0  0  0  0  0  0  0
   -1.1480    3.6470    1.6850 C   0  0  0  0  0  0  0  0  0  0  0  0
   -2.2060    3.9800    2.4340 O   0  0  0  0  0  0  0  0  0  0  0  0
   -2.3680    1.9690    0.4480 C   0  0  0  0  0  0  0  0  0  0  0  0
   -3.4190    2.1840    1.0740 O   0  0  0  0  0  0  0  0  0  0  0  0
   -2.4520    0.9620   -0.5470 C   0  0  0  0  0  0  0  0  0  0  0  0
   -3.7330    0.2740   -0.7060 C   0  0  1  0  0  0  0  0  0  0  0  0
   -4.0270   -0.4330   -1.9590 C   0  0  0  0  0  0  0  0  0  0  0  0
   -4.0160    0.4320   -3.1650 C   0  0  0  0  0  0  0  0  0  0  0  0
   -3.7350    1.8740   -3.0490 C   0  0  0  0  0  0  0  0  0  0  0  0
   -4.2380   -0.0470   -4.2530 O   0  0  0  0  0  0  0  0  0  0  0  0
   -3.9940   -0.6330    0.5020 C   0  0  0  0  0  0  0  0  0  0  0  0
   -3.1150   -0.7040    1.4660 C   0  0  0  0  0  0  0  0  0  0  0  0
   -3.7700   -1.8480    2.6780 S   0  0  0  0  0  0  0  0  0  0  0  0
   -5.3240   -2.1890    1.8120 C   0  0  2  0  0  0  0  0  0  0  0  0
   -5.5510   -3.6650    1.6300 C   0  0  2  0  0  0  0  0  0  0  0  0
   -5.5960   -4.2920    3.0110 C   0  0  0  0  0  0  0  0  0  0  0  0
   -4.4940   -4.3070    0.7640 C   0  0  0  0  0  0  0  0  0  0  0  0
   -5.1950   -1.4130    0.5810 C   0  0  0  0  0  0  0  0  0  0  0  0
   -1.3280    0.7010   -1.2470 C   0  0  0  0  0  0  0  0  0  0  0  0
   -1.2280   -0.2950   -2.2500 N   0  0  0  0  0  0  0  0  0  0  0  0
   -0.1530    1.3760   -1.0130 N   0  0  0  0  0  0  0  0  0  0  0  0
    1.0170    1.1440   -1.7030 N   0  0  0  0  0  0  0  0  0  0  0  0
    1.5630    0.0650   -2.0510 C   0  0  0  0  0  0  0  0  0  0  0  0
    2.8670    0.1750   -2.8100 C   0  0  0  0  0  0  0  0  0  0  0  0
    3.7790   -0.6200   -2.1390 O   0  0  0  0  0  0  0  0  0  0  0  0
    3.9800   -0.2270   -0.8150 C   0  0  1  0  0  0  0  0  0  0  0  0
    3.5860   -1.3760    0.0700 C   0  0  0  0  0  0  0  0  0  0  0  0
    4.4970   -2.5690   -0.1240 C   0  0  0  0  0  0  0  0  0  0  0  0
    5.7800   -2.1640   -0.8130 C   0  0  0  0  0  0  0  0  0  0  0  0
    6.2950   -0.8650   -0.2480 C   0  0  2  0  0  0  0  0  0  0  0  0
    7.7130   -0.6330   -0.7680 C   0  0  0  0  0  0  0  0  0  0  0  0
    6.3580   -0.8720    1.2530 C   0  0  0  0  0  0  0  0  0  0  0  0
    5.3760    0.2390   -0.6900 C   0  0  0  0  0  0  0  0  0  0  0  0
  1  2  1  0
  2  3  1  0
  3  4  2  0
  3  8  1  0
  4  5  1  0
  5  6  2  0
  6  7  1  0
  6 28  1  0
  7  8  2  0
  7 10  1  0
  8  9  1  0
 10 11  2  0
 10 12  1  0
 12 13  1  0
 12 26  2  0
 13 14  1  6
 13 18  1  0
 14 15  1  0
 15 16  1  0
 15 17  2  0
 18 19  2  0
 18 25  1  0
 19 20  1  0
 20 21  1  0
 21 22  1  0
 21 25  1  6
 22 23  1  1
 22 24  1  0
 26 27  1  0
 26 28  1  0
 28 29  1  0
 29 30  2  3
 30 31  1  0
 31 32  1  0
 33 32  1  6
 33 34  1  0
 33 40  1  0
 34 35  1  0
 35 36  1  0
 36 37  1  0
 37 38  1  6
 37 39  1  0
 37 40  1  0
M  END
