
     RDKit          3D

 38 41  0  0  0  0  0  0  0  0999 V2000
    4.5950    3.1150    0.3170 C   0  0  0  0  0  0  0  0  0  0  0  0
    3.6430    2.1990   -0.2750 C   0  0  0  0  0  0  0  0  0  0  0  0
    2.4330    2.6900   -0.3510 O   0  0  0  0  0  0  0  0  0  0  0  0
    3.7880    0.8540   -0.7960 C   0  0  0  0  0  0  0  0  0  0  0  0
    5.0060    0.2720   -1.0710 C   0  0  0  0  0  0  0  0  0  0  0  0
    6.2890    0.7890   -0.5290 C   0  0  0  0  0  0  0  0  0  0  0  0
    6.5300    0.3170    0.8690 C   0  0  0  0  0  0  0  0  0  0  0  0
    6.7410   -1.1550    1.0240 C   0  0  2  0  0  0  0  0  0  0  0  0
    6.8460   -1.3370    2.5180 N   0  0  0  0  0  0  0  0  0  0  0  0
    8.1050   -1.6290    0.5100 C   0  0  1  0  0  0  0  0  0  0  0  0
    9.0490   -0.9290    1.2820 F   0  0  0  0  0  0  0  0  0  0  0  0
    8.1840   -2.9680    0.8620 F   0  0  0  0  0  0  0  0  0  0  0  0
    8.2920   -1.3980   -0.7890 F   0  0  0  0  0  0  0  0  0  0  0  0
    5.0700   -0.9020   -1.7700 C   0  0  0  0  0  0  0  0  0  0  0  0
    3.9530   -1.5330   -2.2100 C   0  0  0  0  0  0  0  0  0  0  0  0
    4.0620   -2.6090   -2.8510 O   0  0  0  0  0  0  0  0  0  0  0  0
    2.7690   -0.9920   -1.9470 N   0  0  0  0  0  0  0  0  0  0  0  0
    2.6380    0.1650   -1.2590 C   0  0  0  0  0  0  0  0  0  0  0  0
    1.3740    0.5900   -0.8180 N   0  0  0  0  0  0  0  0  0  0  0  0
    0.1430    0.0650   -1.3010 C   0  0  0  0  0  0  0  0  0  0  0  0
    0.0990   -0.7140   -2.2480 O   0  0  0  0  0  0  0  0  0  0  0  0
   -1.0620    0.4530   -0.6690 N   0  0  0  0  0  0  0  0  0  0  0  0
   -2.3380    0.0080   -1.0610 C   0  0  0  0  0  0  0  0  0  0  0  0
   -2.6160   -0.5210   -2.2840 C   0  0  0  0  0  0  0  0  0  0  0  0
   -3.8890   -0.8730   -2.6300 C   0  0  0  0  0  0  0  0  0  0  0  0
   -4.9730   -0.7050   -1.7400 C   0  0  0  0  0  0  0  0  0  0  0  0
   -6.3050   -1.1230   -2.1960 C   0  0  0  0  0  0  0  0  0  0  0  0
   -7.0070    0.0270   -2.4770 F   0  0  0  0  0  0  0  0  0  0  0  0
   -4.6970   -0.1780   -0.5230 C   0  0  0  0  0  0  0  0  0  0  0  0
   -5.7490   -0.0070    0.3990 C   0  0  0  0  0  0  0  0  0  0  0  0
   -5.4550    0.5250    1.6600 C   0  0  0  0  0  0  0  0  0  0  0  0
   -4.1920    0.8600    1.9770 C   0  0  0  0  0  0  0  0  0  0  0  0
   -3.1410    0.7020    1.0910 C   0  0  0  0  0  0  0  0  0  0  0  0
   -3.3940    0.1860   -0.1540 C   0  0  0  0  0  0  0  0  0  0  0  0
   -6.7410    0.6490    2.4390 C   0  0  0  0  0  0  0  0  0  0  0  0
   -7.7350    0.8490    1.2680 C   0  0  2  0  0  0  0  0  0  0  0  0
   -9.0920    0.4210    1.7340 C   0  0  0  0  0  0  0  0  0  0  0  0
   -7.1430   -0.2940    0.3880 C   0  0  0  0  0  0  0  0  0  0  0  0
  1  2  1  0
  2  3  2  0
  2  4  1  0
  4  5  1  0
  4 18  2  0
  5  6  1  0
  5 14  2  0
  6  7  1  0
  7  8  1  0
  8  9  1  1
  8 10  1  0
 10 11  1  1
 10 12  1  0
 10 13  1  0
 14 15  1  0
 15 16  2  0
 15 17  1  0
 17 18  1  0
 18 19  1  0
 19 20  1  0
 20 21  2  0
 20 22  1  0
 22 23  1  0
 23 24  2  0
 23 34  1  0
 24 25  1  0
 25 26  2  0
 26 27  1  0
 26 29  1  0
 27 28  1  0
 29 30  2  0
 29 34  1  0
 30 31  1  0
 30 38  1  0
 31 32  2  0
 31 35  1  0
 32 33  1  0
 33 34  2  0
 35 36  1  0
 36 37  1  1
 36 38  1  0
M  CHG  1   9   1
M  END
