
     RDKit          3D

 38 41  0  0  0  0  0  0  0  0999 V2000
    1.7680   -3.9290    0.5240 C   0  0  0  0  0  0  0  0  0  0  0  0
    0.3510   -4.2550    0.3380 C   0  0  0  0  0  0  0  0  0  0  0  0
   -0.1020   -5.5210    0.0970 N   0  0  0  0  0  0  0  0  0  0  0  0
   -1.4460   -5.4960   -0.0090 C   0  0  0  0  0  0  0  0  0  0  0  0
   -2.3680   -6.4880   -0.2430 C   0  0  0  0  0  0  0  0  0  0  0  0
   -3.7030   -6.1820   -0.3040 C   0  0  0  0  0  0  0  0  0  0  0  0
   -4.1210   -4.8760   -0.1290 C   0  0  0  0  0  0  0  0  0  0  0  0
   -3.2040   -3.8750    0.1080 C   0  0  0  0  0  0  0  0  0  0  0  0
   -1.8660   -4.1830    0.1680 C   0  0  0  0  0  0  0  0  0  0  0  0
   -0.7200   -3.3930    0.3890 C   0  0  0  0  0  0  0  0  0  0  0  0
   -0.7240   -1.9600    0.6020 C   0  0  0  0  0  0  0  0  0  0  0  0
    0.4260   -1.0750    0.7640 C   0  0  0  0  0  0  0  0  0  0  0  0
    1.0780   -0.6920   -0.4820 N   0  0  0  0  0  0  0  0  0  0  0  0
    2.4500   -0.3850   -0.2160 C   0  0  1  0  0  0  0  0  0  0  0  0
    3.2560   -0.8230   -1.4220 C   0  0  0  0  0  0  0  0  0  0  0  0
    2.7460    1.0290    0.0120 C   0  0  0  0  0  0  0  0  0  0  0  0
    2.2530    2.0740   -0.7620 C   0  0  0  0  0  0  0  0  0  0  0  0
    2.5900    3.4010   -0.4770 C   0  0  0  0  0  0  0  0  0  0  0  0
    3.4160    3.7030    0.5760 C   0  0  0  0  0  0  0  0  0  0  0  0
    3.8030    5.1110    0.9160 C   0  0  2  0  0  0  0  0  0  0  0  0
    3.2410    6.0190    0.0660 F   0  0  0  0  0  0  0  0  0  0  0  0
    5.1960    5.2280    0.8210 F   0  0  0  0  0  0  0  0  0  0  0  0
    3.4760    5.3420    2.2420 F   0  0  0  0  0  0  0  0  0  0  0  0
    3.9150    2.6890    1.3550 C   0  0  0  0  0  0  0  0  0  0  0  0
    4.7340    3.0050    2.3990 F   0  0  0  0  0  0  0  0  0  0  0  0
    3.5700    1.3890    1.0560 C   0  0  0  0  0  0  0  0  0  0  0  0
   -1.8950   -1.3550    0.6200 N   0  0  0  0  0  0  0  0  0  0  0  0
   -2.0520    0.0090    0.8140 N   0  0  0  0  0  0  0  0  0  0  0  0
   -2.2760    0.7960   -0.3530 C   0  0  0  0  0  0  0  0  0  0  0  0
   -2.3240    0.2450   -1.5060 O   0  0  0  0  0  0  0  0  0  0  0  0
   -2.4530    2.2280   -0.2710 C   0  0  0  0  0  0  0  0  0  0  0  0
   -2.5010    2.9170    0.9340 C   0  0  0  0  0  0  0  0  0  0  0  0
   -2.6690    4.2960    0.9730 C   0  0  0  0  0  0  0  0  0  0  0  0
   -2.7920    5.0050   -0.1970 C   0  0  0  0  0  0  0  0  0  0  0  0
   -2.9630    6.3860   -0.2590 O   0  0  0  0  0  0  0  0  0  0  0  0
   -2.7440    4.3120   -1.4100 C   0  0  0  0  0  0  0  0  0  0  0  0
   -2.8670    5.0260   -2.5970 O   0  0  0  0  0  0  0  0  0  0  0  0
   -2.5780    2.9530   -1.4530 C   0  0  0  0  0  0  0  0  0  0  0  0
  1  2  1  0
  2  3  1  0
  2 10  2  0
  3  4  1  0
  4  5  2  0
  4  9  1  0
  5  6  1  0
  6  7  2  0
  7  8  1  0
  8  9  2  0
  9 10  1  0
 10 11  1  0
 11 12  1  0
 11 27  2  3
 12 13  1  0
 13 14  1  0
 14 15  1  6
 14 16  1  0
 16 17  2  0
 16 26  1  0
 17 18  1  0
 18 19  2  0
 19 20  1  0
 19 24  1  0
 20 21  1  6
 20 22  1  0
 20 23  1  0
 24 25  1  0
 24 26  2  0
 27 28  1  0
 28 29  1  0
 29 30  2  0
 29 31  1  0
 31 32  2  0
 31 38  1  0
 32 33  1  0
 33 34  2  0
 34 35  1  0
 34 36  1  0
 36 37  1  0
 36 38  2  0
M  CHG  1  13   1
M  END
