
     RDKit          3D

 38 41  0  0  0  0  0  0  0  0999 V2000
   -8.9990   -1.5250   -0.0480 C   0  0  0  0  0  0  0  0  0  0  0  0
   -7.6440   -0.9580    0.0530 C   0  0  0  0  0  0  0  0  0  0  0  0
   -6.5370   -1.3110   -0.6570 N   0  0  0  0  0  0  0  0  0  0  0  0
   -5.4870   -0.6010   -0.3180 C   0  0  0  0  0  0  0  0  0  0  0  0
   -4.1320   -0.5620   -0.8200 C   0  0  0  0  0  0  0  0  0  0  0  0
   -3.1460    0.0140   -0.0010 C   0  0  0  0  0  0  0  0  0  0  0  0
   -1.8410    0.1570   -0.3970 C   0  0  0  0  0  0  0  0  0  0  0  0
   -0.9180    0.7530    0.5380 N   0  0  0  0  0  0  0  0  0  0  0  0
    0.4040    1.1030    0.2710 C   0  0  0  0  0  0  0  0  0  0  0  0
    0.9290    0.9310   -0.8380 O   0  0  0  0  0  0  0  0  0  0  0  0
    1.2430    1.7140    1.3620 C   0  0  0  0  0  0  0  0  0  0  0  0
    2.6410    1.9590    0.8710 C   0  0  0  0  0  0  0  0  0  0  0  0
    3.2730    0.6790    0.4720 C   0  0  0  0  0  0  0  0  0  0  0  0
    2.6520   -0.3870    0.6050 O   0  0  0  0  0  0  0  0  0  0  0  0
    4.5880    0.6100   -0.0690 N   0  0  0  0  0  0  0  0  0  0  0  0
    5.2030   -0.6390   -0.4580 C   0  0  1  0  0  0  0  0  0  0  0  0
    5.4490   -0.6930   -1.9570 C   0  0  0  0  0  0  0  0  0  0  0  0
    6.2950    0.3430   -2.3520 O   0  0  0  0  0  0  0  0  0  0  0  0
    6.4590   -0.8530    0.2830 C   0  0  0  0  0  0  0  0  0  0  0  0
    6.7320   -2.0750    0.8310 C   0  0  0  0  0  0  0  0  0  0  0  0
    7.9170   -2.2500    1.5210 C   0  0  0  0  0  0  0  0  0  0  0  0
    8.8200   -1.2250    1.6660 C   0  0  0  0  0  0  0  0  0  0  0  0
    8.5450   -0.0070    1.1170 C   0  0  0  0  0  0  0  0  0  0  0  0
    9.4910    1.1240    1.2490 C   0  0  0  0  0  0  0  0  0  0  0  0
   10.3750    1.1130    0.1870 F   0  0  0  0  0  0  0  0  0  0  0  0
    7.3550    0.1720    0.4230 C   0  0  0  0  0  0  0  0  0  0  0  0
   -1.5010   -0.2840   -1.6380 C   0  0  0  0  0  0  0  0  0  0  0  0
   -2.4610   -0.8490   -2.4440 C   0  0  0  0  0  0  0  0  0  0  0  0
   -3.7980   -1.0090   -2.0750 C   0  0  0  0  0  0  0  0  0  0  0  0
   -4.7310   -1.6260   -3.0520 C   0  0  1  0  0  0  0  0  0  0  0  0
   -5.8120   -0.8240   -3.3470 F   0  0  0  0  0  0  0  0  0  0  0  0
   -4.0140   -1.5840   -4.3070 F   0  0  0  0  0  0  0  0  0  0  0  0
   -4.9640   -2.9470   -2.8850 F   0  0  0  0  0  0  0  0  0  0  0  0
   -5.9410    0.2770    0.6840 C   0  0  0  0  0  0  0  0  0  0  0  0
   -7.2710    0.0380    0.8950 C   0  0  0  0  0  0  0  0  0  0  0  0
   -7.7990    0.9480    1.9570 C   0  0  0  0  0  0  0  0  0  0  0  0
   -6.8320    2.0020    1.9650 N   0  0  0  0  0  0  0  0  0  0  0  0
   -5.5710    1.3720    1.6120 C   0  0  0  0  0  0  0  0  0  0  0  0
  1  2  1  0
  2  3  1  0
  2 35  2  0
  3  4  1  0
  4  5  1  0
  4 34  2  0
  5  6  2  0
  5 29  1  0
  6  7  1  0
  7  8  1  0
  7 27  2  0
  8  9  1  0
  9 10  2  0
  9 11  1  0
 11 12  1  0
 12 13  1  0
 13 14  2  0
 13 15  1  0
 15 16  1  0
 16 17  1  6
 16 19  1  0
 17 18  1  0
 19 20  2  0
 19 26  1  0
 20 21  1  0
 21 22  2  0
 22 23  1  0
 23 24  1  0
 23 26  2  0
 24 25  1  0
 27 28  1  0
 28 29  2  0
 29 30  1  0
 30 31  1  6
 30 32  1  0
 30 33  1  0
 34 35  1  0
 34 38  1  0
 35 36  1  0
 36 37  1  0
 37 38  1  0
M  CHG  1  37   1
M  END
