
     RDKit          3D

 37 40  0  0  0  0  0  0  0  0999 V2000
   -0.7090   -0.5230    0.8710 N   0  0  0  0  0  0  0  0  0  0  0  0
   -1.0150    0.0470   -0.3730 C   0  0  0  0  0  0  0  0  0  0  0  0
   -1.9060   -0.6500   -1.3070 C   0  0  0  0  0  0  0  0  0  0  0  0
   -3.3040   -0.8880   -0.8430 C   0  0  1  0  0  0  0  0  0  0  0  0
   -3.3330   -1.6540    0.3190 O   0  0  0  0  0  0  0  0  0  0  0  0
   -4.1700    0.3070   -0.7180 C   0  0  0  0  0  0  0  0  0  0  0  0
   -5.5760    0.0270   -1.2340 C   0  0  0  0  0  0  0  0  0  0  0  0
   -6.0240   -1.3410   -0.7220 C   0  0  0  0  0  0  0  0  0  0  0  0
   -5.1360   -2.4350   -1.2640 C   0  0  1  0  0  0  0  0  0  0  0  0
   -5.8200   -3.2750   -2.1390 O   0  0  0  0  0  0  0  0  0  0  0  0
   -3.9420   -1.7900   -1.9180 C   0  0  0  0  0  0  0  0  0  0  0  0
   -0.5090    1.1670   -0.7170 N   0  0  0  0  0  0  0  0  0  0  0  0
    0.3750    1.8340    0.1710 C   0  0  0  0  0  0  0  0  0  0  0  0
    0.0720    2.9690    0.7460 C   0  0  0  0  0  0  0  0  0  0  0  0
   -1.1800    3.6670    0.5520 C   0  0  0  0  0  0  0  0  0  0  0  0
   -2.4140    3.0930    0.6120 C   0  0  0  0  0  0  0  0  0  0  0  0
   -3.5730    3.8320    0.3910 C   0  0  0  0  0  0  0  0  0  0  0  0
   -3.5100    5.1620    0.1070 C   0  0  0  0  0  0  0  0  0  0  0  0
   -4.6590    5.8530   -0.1030 F   0  0  0  0  0  0  0  0  0  0  0  0
   -2.2720    5.7570    0.0440 C   0  0  0  0  0  0  0  0  0  0  0  0
   -1.1210    5.0380    0.2600 C   0  0  0  0  0  0  0  0  0  0  0  0
    1.7060    1.2510    0.4580 C   0  0  0  0  0  0  0  0  0  0  0  0
    2.6800    1.7330    1.2880 C   0  0  0  0  0  0  0  0  0  0  0  0
    3.7310    0.9080    1.2400 N   0  0  0  0  0  0  0  0  0  0  0  0
    3.4580   -0.0990    0.3960 C   0  0  0  0  0  0  0  0  0  0  0  0
    4.3750   -1.2400    0.0520 C   0  0  0  0  0  0  0  0  0  0  0  0
    5.5920   -1.0810    0.7270 O   0  0  0  0  0  0  0  0  0  0  0  0
    6.6210   -1.9840    0.5860 C   0  0  0  0  0  0  0  0  0  0  0  0
    6.6810   -3.0570    1.4420 C   0  0  0  0  0  0  0  0  0  0  0  0
    5.7850   -3.2920    2.4260 F   0  0  0  0  0  0  0  0  0  0  0  0
    7.7250   -3.9510    1.2800 C   0  0  0  0  0  0  0  0  0  0  0  0
    8.6520   -3.7570    0.3010 C   0  0  0  0  0  0  0  0  0  0  0  0
    8.6060   -2.7010   -0.5530 C   0  0  0  0  0  0  0  0  0  0  0  0
    9.5440   -2.5430   -1.5120 F   0  0  0  0  0  0  0  0  0  0  0  0
    7.5600   -1.8050   -0.3920 C   0  0  0  0  0  0  0  0  0  0  0  0
    7.5300   -0.7550   -1.2540 F   0  0  0  0  0  0  0  0  0  0  0  0
    2.1920    0.0940   -0.1080 C   0  0  0  0  0  0  0  0  0  0  0  0
  1  2  1  0
  2  3  1  0
  2 12  2  3
  3  4  1  0
  4  5  1  1
  4  6  1  0
  4 11  1  0
  6  7  1  0
  7  8  1  0
  8  9  1  0
  9 10  1  6
  9 11  1  0
 12 13  1  0
 13 14  2  3
 13 22  1  0
 14 15  1  0
 15 16  2  0
 15 21  1  0
 16 17  1  0
 17 18  2  0
 18 19  1  0
 18 20  1  0
 20 21  2  0
 22 23  2  0
 22 37  1  0
 23 24  1  0
 24 25  1  0
 25 26  1  0
 25 37  2  0
 26 27  1  0
 27 28  1  0
 28 29  2  0
 28 35  1  0
 29 30  1  0
 29 31  1  0
 31 32  2  0
 32 33  1  0
 33 34  1  0
 33 35  2  0
 35 36  1  0
M  CHG  1  12   1
M  END
