
     RDKit          3D

 38 41  0  0  0  0  0  0  0  0999 V2000
   -4.6580   -3.4340    1.4390 O   0  0  0  0  0  0  0  0  0  0  0  0
   -4.8490   -2.7690    0.3530 C   0  0  0  0  0  0  0  0  0  0  0  0
   -3.8390   -2.7960   -0.6390 N   0  0  0  0  0  0  0  0  0  0  0  0
   -2.6110   -3.5220   -0.4730 C   0  0  0  0  0  0  0  0  0  0  0  0
   -1.7130   -3.0700    0.6300 C   0  0  2  0  0  0  0  0  0  0  0  0
   -2.2470   -3.1390    1.8860 O   0  0  0  0  0  0  0  0  0  0  0  0
   -1.3260   -1.6250    0.3780 C   0  0  0  0  0  0  0  0  0  0  0  0
   -0.1790   -1.2170   -0.1660 N   0  0  0  0  0  0  0  0  0  0  0  0
   -0.1410    0.1470   -0.2540 C   0  0  0  0  0  0  0  0  0  0  0  0
    1.0180    0.8630   -0.8200 C   0  0  0  0  0  0  0  0  0  0  0  0
    2.0080   -0.1510   -1.2190 N   0  0  0  0  0  0  0  0  0  0  0  0
    2.6880   -0.6070   -0.0120 C   0  0  1  0  0  0  0  0  0  0  0  0
    2.8260   -2.0710   -0.1020 C   0  0  0  0  0  0  0  0  0  0  0  0
    4.2970   -2.3070   -0.2170 C   0  0  0  0  0  0  0  0  0  0  0  0
    5.0130   -3.4090   -0.3260 C   0  0  0  0  0  0  0  0  0  0  0  0
    6.4730   -3.4190   -0.4270 C   0  0  0  0  0  0  0  0  0  0  0  0
    7.0990   -2.0990   -0.3980 C   0  0  0  0  0  0  0  0  0  0  0  0
    6.4130   -0.9910   -0.2900 C   0  0  0  0  0  0  0  0  0  0  0  0
    4.9460   -1.0010   -0.1900 C   0  0  0  0  0  0  0  0  0  0  0  0
    4.0720   -0.0180   -0.0710 C   0  0  0  0  0  0  0  0  0  0  0  0
    4.3730    1.4230   -0.0020 C   0  0  2  0  0  0  0  0  0  0  0  0
    3.8430    1.9880    1.1720 F   0  0  0  0  0  0  0  0  0  0  0  0
    3.8780    2.0990   -1.0990 F   0  0  0  0  0  0  0  0  0  0  0  0
    5.7130    1.6740    0.0540 F   0  0  0  0  0  0  0  0  0  0  0  0
   -1.3260    0.5780    0.2630 C   0  0  0  0  0  0  0  0  0  0  0  0
   -1.8200    1.9270    0.4180 C   0  0  0  0  0  0  0  0  0  0  0  0
   -1.1780    2.9940    0.0710 C   0  0  0  0  0  0  0  0  0  0  0  0
   -1.7750    4.3230    0.2730 C   0  0  0  0  0  0  0  0  0  0  0  0
   -3.0090    4.5150    0.8230 C   0  0  0  0  0  0  0  0  0  0  0  0
   -3.5390    5.8080    0.9970 C   0  0  0  0  0  0  0  0  0  0  0  0
   -2.8330    6.9160    0.6200 C   0  0  0  0  0  0  0  0  0  0  0  0
   -1.5900    6.7170    0.0660 C   0  0  0  0  0  0  0  0  0  0  0  0
   -1.0560    5.4620   -0.1120 C   0  0  0  0  0  0  0  0  0  0  0  0
   -2.0280   -0.5430    0.6410 N   0  0  0  0  0  0  0  0  0  0  0  0
   -6.0810   -2.0200    0.1810 C   0  0  0  0  0  0  0  0  0  0  0  0
   -7.0160   -2.0640    1.2310 O   0  0  0  0  0  0  0  0  0  0  0  0
   -6.3430   -1.3310   -0.8790 C   0  0  0  0  0  0  0  0  0  0  0  0
   -7.5390   -0.6510   -0.9550 F   0  0  0  0  0  0  0  0  0  0  0  0
  1  2  2  0
  2  3  1  0
  2 35  1  0
  3  4  1  0
  4  5  1  0
  5  6  1  1
  5  7  1  0
  7  8  2  0
  7 34  1  0
  8  9  1  0
  9 10  1  0
  9 25  2  0
 10 11  1  0
 12 11  1  6
 12 13  1  0
 12 20  1  0
 13 14  1  0
 14 15  2  0
 14 19  1  0
 15 16  1  0
 16 17  1  0
 17 18  2  0
 18 19  1  0
 19 20  2  0
 20 21  1  0
 21 22  1  1
 21 23  1  0
 21 24  1  0
 25 26  1  0
 25 34  1  0
 26 27  2  3
 27 28  1  0
 28 29  2  0
 28 33  1  0
 29 30  1  0
 30 31  2  0
 31 32  1  0
 32 33  2  0
 35 36  1  0
 35 37  2  3
 37 38  1  0
M  CHG  1  11   1
M  END
