
     RDKit          3D

 38 41  0  0  0  0  0  0  0  0999 V2000
   -8.8850   -2.9140    1.2080 C   0  0  0  0  0  0  0  0  0  0  0  0
   -7.6720   -2.0540    1.0550 C   0  0  1  0  0  0  0  0  0  0  0  0
   -6.7800   -2.4940   -0.0550 C   0  0  0  0  0  0  0  0  0  0  0  0
   -5.7800   -1.4780   -0.4190 C   0  0  0  0  0  0  0  0  0  0  0  0
   -4.6220   -1.8570   -1.1100 C   0  0  0  0  0  0  0  0  0  0  0  0
   -3.6610   -0.9470   -1.4720 C   0  0  0  0  0  0  0  0  0  0  0  0
   -3.8220    0.3900   -1.1540 C   0  0  0  0  0  0  0  0  0  0  0  0
   -2.8930    1.3510   -1.4930 O   0  0  0  0  0  0  0  0  0  0  0  0
   -1.7150    1.5980   -0.7930 C   0  0  0  0  0  0  0  0  0  0  0  0
   -1.6290    2.4220    0.3050 C   0  0  0  0  0  0  0  0  0  0  0  0
   -0.4200    2.6110    0.9380 C   0  0  0  0  0  0  0  0  0  0  0  0
    0.7510    2.0100    0.5320 C   0  0  0  0  0  0  0  0  0  0  0  0
    1.9230    2.1990    1.1520 N   0  0  0  0  0  0  0  0  0  0  0  0
    3.0880    1.6150    0.7660 C   0  0  0  0  0  0  0  0  0  0  0  0
    4.1420    1.8620    1.4200 O   0  0  0  0  0  0  0  0  0  0  0  0
    3.0690    0.7850   -0.3180 C   0  0  0  0  0  0  0  0  0  0  0  0
    4.2370    0.0860   -0.8190 C   0  0  0  0  0  0  0  0  0  0  0  0
    4.2030   -0.4550   -1.9790 O   0  0  0  0  0  0  0  0  0  0  0  0
    5.4440   -0.0600   -0.1270 N   0  0  0  0  0  0  0  0  0  0  0  0
    6.5780   -0.7710   -0.6960 C   0  0  0  0  0  0  0  0  0  0  0  0
    7.7870   -0.7810    0.1620 C   0  0  1  0  0  0  0  0  0  0  0  0
    8.8080   -1.6750   -0.6520 C   0  0  0  0  0  0  0  0  0  0  0  0
    8.1780   -2.9610   -0.7730 N   0  0  0  0  0  0  0  0  0  0  0  0
    8.4850    0.5140    0.3920 C   0  0  0  0  0  0  0  0  0  0  0  0
    7.7780    1.6300    1.0460 C   0  0  0  0  0  0  0  0  0  0  0  0
    7.3660    1.2590    2.3290 F   0  0  0  0  0  0  0  0  0  0  0  0
    1.8360    0.5810   -0.9770 C   0  0  0  0  0  0  0  0  0  0  0  0
    0.6770    1.1820   -0.5660 C   0  0  0  0  0  0  0  0  0  0  0  0
   -0.5310    0.9840   -1.2100 C   0  0  0  0  0  0  0  0  0  0  0  0
   -4.9740    0.7420   -0.4700 C   0  0  0  0  0  0  0  0  0  0  0  0
   -5.9490   -0.1290   -0.0950 C   0  0  0  0  0  0  0  0  0  0  0  0
   -7.1320    0.3830    0.5830 C   0  0  0  0  0  0  0  0  0  0  0  0
   -7.4080    1.5810    0.9540 C   0  0  0  0  0  0  0  0  0  0  0  0
   -6.8300    2.9060    0.9390 C   0  0  1  0  0  0  0  0  0  0  0  0
   -6.7250    3.5290   -0.2830 F   0  0  0  0  0  0  0  0  0  0  0  0
   -7.7680    3.7890    1.6160 F   0  0  0  0  0  0  0  0  0  0  0  0
   -5.7070    3.0630    1.7270 F   0  0  0  0  0  0  0  0  0  0  0  0
   -8.1010   -0.6780    0.8720 N   0  0  0  0  0  0  0  0  0  0  0  0
  2  1  1  6
  2  3  1  0
  2 38  1  0
  3  4  1  0
  4  5  2  0
  4 31  1  0
  5  6  1  0
  6  7  2  0
  7  8  1  0
  7 30  1  0
  8  9  1  0
  9 10  2  0
  9 29  1  0
 10 11  1  0
 11 12  2  0
 12 13  1  0
 12 28  1  0
 13 14  1  0
 14 15  2  0
 14 16  1  0
 16 17  1  0
 16 27  2  0
 17 18  2  0
 17 19  1  0
 19 20  1  0
 21 20  1  6
 21 22  1  0
 21 24  1  0
 22 23  1  0
 24 25  1  0
 25 26  1  0
 27 28  1  0
 28 29  2  0
 30 31  2  0
 31 32  1  0
 32 33  2  3
 32 38  1  0
 33 34  1  0
 34 35  1  6
 34 36  1  0
 34 37  1  0
M  CHG  1  23   1
M  END
