
     RDKit          3D

 18 19  0  0  0  0  0  0  0  0999 V2000
    5.8660   -0.6110   -0.3730 C   0  0  0  0  0  0  0  0  0  0  0  0
    4.5940   -0.7840   -0.9600 O   0  0  0  0  0  0  0  0  0  0  0  0
    3.4940   -0.3210   -0.2540 C   0  0  0  0  0  0  0  0  0  0  0  0
    3.5610    0.3000    0.9730 C   0  0  0  0  0  0  0  0  0  0  0  0
    2.4560    0.7460    1.6510 C   0  0  0  0  0  0  0  0  0  0  0  0
    1.2130    0.5620    1.0740 C   0  0  0  0  0  0  0  0  0  0  0  0
   -0.0460    0.8680    1.4880 N   0  0  0  0  0  0  0  0  0  0  0  0
   -0.9500    0.4770    0.5880 C   0  0  0  0  0  0  0  0  0  0  0  0
   -2.4150    0.6080    0.7110 C   0  0  0  0  0  0  0  0  0  0  0  0
   -3.0140    0.9680    1.7380 O   0  0  0  0  0  0  0  0  0  0  0  0
   -3.2040    0.2900   -0.4620 N   0  0  0  0  0  0  0  0  0  0  0  0
   -4.9220    0.4370   -0.3110 S   0  0  1  0  0  0  0  0  0  0  0  0
   -5.6000   -1.0120    0.4910 C   0  0  0  0  0  0  0  0  0  0  0  0
   -5.3360    1.6610    0.4260 O   0  0  0  0  0  0  0  0  0  0  0  0
   -5.4930    0.4630   -1.7080 O   0  0  0  0  0  0  0  0  0  0  0  0
   -0.2680   -0.1040   -0.4560 C   0  0  0  0  0  0  0  0  0  0  0  0
    1.0770   -0.0520   -0.1530 C   0  0  0  0  0  0  0  0  0  0  0  0
    2.2260   -0.4900   -0.8080 C   0  0  0  0  0  0  0  0  0  0  0  0
  1  2  1  0
  2  3  1  0
  3  4  2  0
  3 18  1  0
  4  5  1  0
  5  6  2  0
  6  7  1  0
  6 17  1  0
  7  8  1  0
  8  9  1  0
  8 16  2  0
  9 10  2  0
  9 11  1  0
 11 12  1  0
 12 13  1  1
 12 14  2  0
 12 15  2  0
 16 17  1  0
 17 18  2  0
M  END
