
     RDKit          3D

 24 27  0  0  0  0  0  0  0  0999 V2000
   -3.4980   -0.8010    1.9280 C   0  0  0  0  0  0  0  0  0  0  0  0
   -2.7060   -0.4720    0.6940 C   0  0  2  0  0  0  0  0  0  0  0  0
   -1.7170   -1.6100    0.5120 C   0  0  0  0  0  0  0  0  0  0  0  0
   -0.8600   -1.5160   -0.6120 N   0  0  0  0  0  0  0  0  0  0  0  0
    0.4800   -1.0630   -0.6490 C   0  0  0  0  0  0  0  0  0  0  0  0
    1.2190   -0.7730    0.4680 C   0  0  0  0  0  0  0  0  0  0  0  0
    2.5320   -0.3630    0.4480 C   0  0  0  0  0  0  0  0  0  0  0  0
    3.1840   -0.2240   -0.7730 C   0  0  0  0  0  0  0  0  0  0  0  0
    2.4590   -0.5110   -1.9240 C   0  0  0  0  0  0  0  0  0  0  0  0
    1.1550   -0.9160   -1.8670 C   0  0  0  0  0  0  0  0  0  0  0  0
    0.2520   -1.2760   -3.3410 Cl  0  0  0  0  0  0  0  0  0  0  0  0
    4.5140    0.2030   -0.5460 N   0  0  0  0  0  0  0  0  0  0  0  0
    5.8100    0.4350   -1.1110 C   0  0  0  0  0  0  0  0  0  0  0  0
    6.7980    0.3310    0.0460 C   0  0  0  0  0  0  0  0  0  0  0  0
    5.9200   -0.1090    1.2260 C   0  0  0  0  0  0  0  0  0  0  0  0
    4.6100    0.5590    0.8670 C   0  0  2  0  0  0  0  0  0  0  0  0
    3.4640   -0.0160    1.4930 N   0  0  0  0  0  0  0  0  0  0  0  0
   -1.9740    0.8340    0.8670 C   0  0  0  0  0  0  0  0  0  0  0  0
   -1.8830    1.4870   -0.4890 C   0  0  0  0  0  0  0  0  0  0  0  0
   -2.8500    0.7140   -1.3130 C   0  0  0  0  0  0  0  0  0  0  0  0
   -3.4310   -0.3390   -0.5170 N   0  0  2  0  0  0  0  0  0  0  0  0
   -4.8290   -0.2140   -0.5200 C   0  0  0  0  0  0  0  0  0  0  0  0
   -5.4570    1.0610   -0.1130 C   0  0  0  0  0  0  0  0  0  0  0  0
   -5.1960    1.4890    1.1790 O   0  0  0  0  0  0  0  0  0  0  0  0
  2  1  1  1
  2  3  1  0
  2 18  1  0
  2 21  1  0
  3  4  1  0
  4  5  1  0
  5  6  2  0
  5 10  1  0
  6  7  1  0
  7  8  2  0
  7 17  1  0
  8  9  1  0
  8 12  1  0
  9 10  2  0
 10 11  1  0
 12 13  1  0
 12 16  1  0
 13 14  1  0
 14 15  1  0
 16 15  1  1
 16 17  1  0
 18 19  1  0
 19 20  1  0
 20 21  1  0
 21 22  1  1
 22 23  1  0
 23 24  1  0
M  CHG  1  21   1
M  END
