
     RDKit          3D

 24 27  0  0  0  0  0  0  0  0999 V2000
   -7.1120    1.3960   -0.4850 C   0  0  0  0  0  0  0  0  0  0  0  0
   -6.3350    0.2020    0.0320 C   0  0  1  0  0  0  0  0  0  0  0  0
   -5.0830    0.1810   -0.6560 N   0  0  0  0  0  0  0  0  0  0  0  0
   -4.1200    0.3980    0.1540 C   0  0  0  0  0  0  0  0  0  0  0  0
   -2.6830    0.4350   -0.2900 C   0  0  0  0  0  0  0  0  0  0  0  0
   -1.9700   -0.6110    0.4380 N   0  0  1  0  0  0  0  0  0  0  0  0
   -2.3400   -1.9240   -0.0080 C   0  0  0  0  0  0  0  0  0  0  0  0
   -1.0640   -2.7170    0.0530 C   0  0  0  0  0  0  0  0  0  0  0  0
    0.0160   -1.6930   -0.0190 C   0  0  0  0  0  0  0  0  0  0  0  0
   -0.5760   -0.4840    0.2140 C   0  0  0  0  0  0  0  0  0  0  0  0
    0.2180    0.6420    0.2020 C   0  0  0  0  0  0  0  0  0  0  0  0
    1.5870    0.5290   -0.0430 C   0  0  0  0  0  0  0  0  0  0  0  0
    2.2010   -0.6730   -0.2790 C   0  0  0  0  0  0  0  0  0  0  0  0
    3.5870   -0.8270   -0.5400 N   0  0  0  0  0  0  0  0  0  0  0  0
    4.4490    0.3050   -0.5140 C   0  0  2  0  0  0  0  0  0  0  0  0
    5.8850   -0.0710   -0.9290 C   0  0  0  0  0  0  0  0  0  0  0  0
    6.7380    1.0420   -0.3280 C   0  0  0  0  0  0  0  0  0  0  0  0
    5.8250    1.7940    0.6370 C   0  0  0  0  0  0  0  0  0  0  0  0
    4.7770    0.7360    0.9260 C   0  0  0  0  0  0  0  0  0  0  0  0
    1.3550   -1.7900   -0.2570 C   0  0  0  0  0  0  0  0  0  0  0  0
    2.0730   -3.3490   -0.5510 Cl  0  0  0  0  0  0  0  0  0  0  0  0
   -4.5700    0.5940    1.4860 N   0  0  0  0  0  0  0  0  0  0  0  0
   -5.9830    0.4740    1.4410 C   0  0  0  0  0  0  0  0  0  0  0  0
   -6.7590    0.5860    2.4360 O   0  0  0  0  0  0  0  0  0  0  0  0
  2  1  1  6
  2  3  1  0
  2 23  1  0
  3  4  2  0
  4  5  1  0
  4 22  1  0
  6  5  1  6
  6  7  1  0
  6 10  1  0
  7  8  1  0
  8  9  1  0
  9 10  2  0
  9 20  1  0
 10 11  1  0
 11 12  2  0
 12 13  1  0
 13 14  1  0
 13 20  2  0
 15 14  1  1
 15 16  1  0
 15 19  1  0
 16 17  1  0
 17 18  1  0
 18 19  1  0
 20 21  1  0
 22 23  1  0
 23 24  2  0
M  CHG  1   6   1
M  END
