
     RDKit          3D

 23 26  0  0  0  0  0  0  0  0999 V2000
   -2.5200    2.5870   -1.4800 C   0  0  0  0  0  0  0  0  0  0  0  0
   -2.4200    1.1290   -1.8340 C   0  0  0  0  0  0  0  0  0  0  0  0
   -2.2560    0.2830   -0.6810 N   0  0  0  0  0  0  0  0  0  0  0  0
   -1.0810   -0.1130   -0.0970 C   0  0  0  0  0  0  0  0  0  0  0  0
    0.1560    0.2560   -0.6400 N   0  0  0  0  0  0  0  0  0  0  0  0
    1.4060    0.0710   -0.0780 C   0  0  0  0  0  0  0  0  0  0  0  0
    1.6650   -0.1620    1.2340 C   0  0  0  0  0  0  0  0  0  0  0  0
    2.9600   -0.2840    1.7450 C   0  0  0  0  0  0  0  0  0  0  0  0
    3.2060   -0.5850    3.4470 Cl  0  0  0  0  0  0  0  0  0  0  0  0
    4.0660   -0.1690    0.9140 C   0  0  0  0  0  0  0  0  0  0  0  0
    3.8090    0.0680   -0.4110 C   0  0  0  0  0  0  0  0  0  0  0  0
    2.5300    0.1880   -0.9190 C   0  0  0  0  0  0  0  0  0  0  0  0
    2.3450    0.4440   -2.3820 C   0  0  0  0  0  0  0  0  0  0  0  0
    5.0970    0.1640   -1.1570 C   0  0  0  0  0  0  0  0  0  0  0  0
    6.1140   -0.3910   -0.2070 C   0  0  0  0  0  0  0  0  0  0  0  0
    5.5320   -0.2520    1.1710 C   0  0  0  0  0  0  0  0  0  0  0  0
   -1.4540   -0.8790    0.9280 N   0  0  0  0  0  0  0  0  0  0  0  0
   -2.8120   -0.9750    1.0070 C   0  0  0  0  0  0  0  0  0  0  0  0
   -3.3040   -0.2360   -0.0160 C   0  0  0  0  0  0  0  0  0  0  0  0
   -4.7710   -0.1050   -0.2480 C   0  0  0  0  0  0  0  0  0  0  0  0
   -5.5440   -0.9940    0.5380 N   0  0  0  0  0  0  0  0  0  0  0  0
   -5.0600   -1.1330    1.8970 C   0  0  0  0  0  0  0  0  0  0  0  0
   -3.6810   -1.6970    1.9530 C   0  0  0  0  0  0  0  0  0  0  0  0
  1  2  1  0
  2  3  1  0
  3  4  1  0
  3 19  1  0
  4  5  1  0
  4 17  2  0
  5  6  1  0
  6  7  2  0
  6 12  1  0
  7  8  1  0
  8  9  1  0
  8 10  2  0
 10 11  1  0
 10 16  1  0
 11 12  2  0
 11 14  1  0
 12 13  1  0
 14 15  1  0
 15 16  1  0
 17 18  1  0
 18 19  2  0
 18 23  1  0
 19 20  1  0
 20 21  1  0
 21 22  1  0
 22 23  1  0
M  CHG  1  17   1
M  END
