
     RDKit          3D

 24 26  0  0  0  0  0  0  0  0999 V2000
    6.6530   -0.2560   -1.0400 C   0  0  0  0  0  0  0  0  0  0  0  0
    5.5900    0.2070   -0.1110 C   0  0  0  0  0  0  0  0  0  0  0  0
    4.2830   -0.0760   -0.3380 N   0  0  0  0  0  0  0  0  0  0  0  0
    3.2910    0.3220    0.4760 C   0  0  0  0  0  0  0  0  0  0  0  0
    1.9340   -0.0200    0.1550 N   0  0  0  0  0  0  0  0  0  0  0  0
    1.6120   -0.7630   -0.9970 C   0  0  0  0  0  0  0  0  0  0  0  0
    2.6120   -1.1000   -1.7210 O   0  0  0  0  0  0  0  0  0  0  0  0
    0.2920   -1.1660   -1.4270 C   0  0  0  0  0  0  0  0  0  0  0  0
   -0.8150   -0.8150   -0.5600 N   0  0  0  0  0  0  0  0  0  0  0  0
   -1.0130   -1.4780    0.7160 C   0  0  0  0  0  0  0  0  0  0  0  0
   -2.2500   -1.0010    1.4240 C   0  0  2  0  0  0  0  0  0  0  0  0
   -2.5580   -1.9340    2.5580 C   0  0  0  0  0  0  0  0  0  0  0  0
   -3.3790   -0.9020    0.4270 C   0  0  1  0  0  0  0  0  0  0  0  0
   -4.7100   -0.6130    1.0180 C   0  0  0  0  0  0  0  0  0  0  0  0
   -2.9800    0.2290   -0.4990 C   0  0  0  0  0  0  0  0  0  0  0  0
   -1.7470    0.2060   -0.9290 C   0  0  0  0  0  0  0  0  0  0  0  0
   -1.2450    1.2530   -1.8420 C   0  0  0  0  0  0  0  0  0  0  0  0
   -2.1130    2.1700   -2.1700 C   0  0  0  0  0  0  0  0  0  0  0  0
   -3.4360    2.2530   -1.7510 N   0  0  0  0  0  0  0  0  0  0  0  0
   -3.9320    1.2720   -0.8720 C   0  0  0  0  0  0  0  0  0  0  0  0
    3.6450    1.0500    1.5890 C   0  0  0  0  0  0  0  0  0  0  0  0
    4.9810    1.3590    1.8520 C   0  0  0  0  0  0  0  0  0  0  0  0
    5.9730    0.9350    0.9950 C   0  0  0  0  0  0  0  0  0  0  0  0
    7.6770    1.3070    1.2970 Cl  0  0  0  0  0  0  0  0  0  0  0  0
  1  2  1  0
  2  3  2  0
  2 23  1  0
  3  4  1  0
  4  5  1  0
  4 21  2  0
  5  6  1  0
  6  7  2  0
  6  8  1  0
  8  9  1  0
  9 10  1  0
  9 16  1  0
 10 11  1  0
 11 12  1  1
 11 13  1  0
 13 14  1  1
 13 15  1  0
 15 16  2  0
 15 20  1  0
 16 17  1  0
 17 18  2  0
 18 19  1  0
 19 20  1  0
 21 22  1  0
 22 23  2  0
 23 24  1  0
M  CHG  1  19   1
M  END
