
     RDKit          3D

 10 11  0  0  0  0  0  0  0  0999 V2000
    3.1190    0.2260    0.1350 N   0  0  0  0  0  0  0  0  0  0  0  0
    1.6970    0.1930    0.0630 C   0  0  0  0  0  0  0  0  0  0  0  0
    0.9630   -0.9660    0.1940 C   0  0  0  0  0  0  0  0  0  0  0  0
   -0.3740   -0.6500    0.0750 C   0  0  0  0  0  0  0  0  0  0  0  0
   -1.5710   -1.3340    0.1110 C   0  0  0  0  0  0  0  0  0  0  0  0
   -2.7960   -0.7210   -0.0460 C   0  0  0  0  0  0  0  0  0  0  0  0
   -2.7960    0.6090   -0.2410 N   0  0  0  0  0  0  0  0  0  0  0  0
   -1.6520    1.3140   -0.2820 C   0  0  0  0  0  0  0  0  0  0  0  0
   -0.3980    0.7130   -0.1260 C   0  0  0  0  0  0  0  0  0  0  0  0
    0.8580    1.1930   -0.1290 N   0  0  0  0  0  0  0  0  0  0  0  0
  1  2  1  0
  2  3  2  0
  2 10  1  0
  3  4  1  0
  4  5  2  0
  4  9  1  0
  5  6  1  0
  6  7  2  0
  7  8  1  0
  8  9  2  0
  9 10  1  0
M  END
