
     RDKit          3D

 10 11  0  0  0  0  0  0  0  0999 V2000
    2.6060   -0.2180    0.0400 N   0  0  0  0  0  0  0  0  0  0  0  0
    1.3300    0.3890    0.0300 C   0  0  0  0  0  0  0  0  0  0  0  0
    1.2510    1.7290    0.0590 N   0  0  0  0  0  0  0  0  0  0  0  0
    0.0820    2.3950    0.0530 C   0  0  0  0  0  0  0  0  0  0  0  0
   -1.0610    1.6240    0.0140 C   0  0  0  0  0  0  0  0  0  0  0  0
   -1.0280    0.2460   -0.0170 C   0  0  0  0  0  0  0  0  0  0  0  0
   -1.9700   -0.7580   -0.0580 C   0  0  0  0  0  0  0  0  0  0  0  0
   -1.3840   -1.9690   -0.0750 N   0  0  0  0  0  0  0  0  0  0  0  0
   -0.0590   -1.7480   -0.0450 C   0  0  0  0  0  0  0  0  0  0  0  0
    0.2020   -0.3740   -0.0080 C   0  0  0  0  0  0  0  0  0  0  0  0
  1  2  1  0
  2  3  2  0
  2 10  1  0
  3  4  1  0
  4  5  2  0
  5  6  1  0
  6  7  2  0
  6 10  1  0
  7  8  1  0
  8  9  1  0
  9 10  2  0
M  END
