
     RDKit          3D

 10 11  0  0  0  0  0  0  0  0999 V2000
   -3.0480    0.4460    0.8700 N   0  0  0  0  0  0  0  0  0  0  0  0
   -1.7330    0.1930    0.3950 C   0  0  0  0  0  0  0  0  0  0  0  0
   -1.5520   -0.5170   -0.7770 C   0  0  0  0  0  0  0  0  0  0  0  0
   -0.2910   -0.7830   -1.2710 C   0  0  0  0  0  0  0  0  0  0  0  0
    0.8170   -0.3370   -0.5900 C   0  0  0  0  0  0  0  0  0  0  0  0
    2.1930   -0.4230   -0.7950 C   0  0  0  0  0  0  0  0  0  0  0  0
    2.8250    0.2080    0.2130 N   0  0  0  0  0  0  0  0  0  0  0  0
    1.8890    0.6920    1.0490 C   0  0  0  0  0  0  0  0  0  0  0  0
    0.6200    0.3700    0.5780 C   0  0  0  0  0  0  0  0  0  0  0  0
   -0.6320    0.6160    1.0400 N   0  0  0  0  0  0  0  0  0  0  0  0
  1  2  1  0
  2  3  1  0
  2 10  2  0
  3  4  2  0
  4  5  1  0
  5  6  2  0
  5  9  1  0
  6  7  1  0
  7  8  1  0
  8  9  2  0
  9 10  1  0
M  END
