
     RDKit          3D

 10 11  0  0  0  0  0  0  0  0999 V2000
    2.2190   -1.4340   -0.1260 N   0  0  0  0  0  0  0  0  0  0  0  0
    1.3930   -0.2750   -0.0780 C   0  0  0  0  0  0  0  0  0  0  0  0
    1.9220    0.9620   -0.1020 N   0  0  0  0  0  0  0  0  0  0  0  0
    1.1310    2.0670   -0.0560 C   0  0  0  0  0  0  0  0  0  0  0  0
   -0.2450    1.9380    0.0190 C   0  0  0  0  0  0  0  0  0  0  0  0
   -0.8180    0.6960    0.0460 C   0  0  0  0  0  0  0  0  0  0  0  0
   -2.1370    0.2930    0.1170 C   0  0  0  0  0  0  0  0  0  0  0  0
   -2.0830   -1.0900    0.1090 C   0  0  0  0  0  0  0  0  0  0  0  0
   -0.7810   -1.4660    0.0370 N   0  0  0  0  0  0  0  0  0  0  0  0
    0.0200   -0.3980   -0.0030 C   0  0  0  0  0  0  0  0  0  0  0  0
  1  2  1  0
  2  3  2  0
  2 10  1  0
  3  4  1  0
  4  5  2  0
  5  6  1  0
  6  7  1  0
  6 10  2  0
  7  8  2  0
  8  9  1  0
  9 10  1  0
M  END
