
     RDKit          3D

 10 11  0  0  0  0  0  0  0  0999 V2000
    2.6760   -0.7080   -0.1410 N   0  0  0  0  0  0  0  0  0  0  0  0
    1.5820    0.1870    0.0040 C   0  0  0  0  0  0  0  0  0  0  0  0
    1.6650    1.5500    0.2050 C   0  0  0  0  0  0  0  0  0  0  0  0
    0.4200    2.0890    0.2990 N   0  0  0  0  0  0  0  0  0  0  0  0
   -0.5050    1.1370    0.1690 C   0  0  0  0  0  0  0  0  0  0  0  0
   -1.8480    1.0950    0.1780 N   0  0  0  0  0  0  0  0  0  0  0  0
   -2.5000   -0.0670    0.0130 C   0  0  0  0  0  0  0  0  0  0  0  0
   -1.8180   -1.2700   -0.1730 C   0  0  0  0  0  0  0  0  0  0  0  0
   -0.4500   -1.3070   -0.1940 C   0  0  0  0  0  0  0  0  0  0  0  0
    0.2260   -0.1110   -0.0250 C   0  0  0  0  0  0  0  0  0  0  0  0
  1  2  1  0
  2  3  2  0
  2 10  1  0
  3  4  1  0
  4  5  2  0
  5  6  1  0
  5 10  1  0
  6  7  1  0
  7  8  2  0
  8  9  1  0
  9 10  2  0
M  END
