
     RDKit          3D

 10 11  0  0  0  0  0  0  0  0999 V2000
   -2.0350   -1.4720   -0.1030 N   0  0  0  0  0  0  0  0  0  0  0  0
   -1.3000   -0.2680   -0.0450 C   0  0  0  0  0  0  0  0  0  0  0  0
   -1.9070    0.9790   -0.0220 C   0  0  0  0  0  0  0  0  0  0  0  0
   -1.1650    2.0970    0.0340 N   0  0  0  0  0  0  0  0  0  0  0  0
    0.1750    2.0750    0.0700 C   0  0  0  0  0  0  0  0  0  0  0  0
    0.8410    0.8680    0.0510 C   0  0  0  0  0  0  0  0  0  0  0  0
    2.1910    0.5220    0.0780 C   0  0  0  0  0  0  0  0  0  0  0  0
    2.2300   -0.8550    0.0360 C   0  0  0  0  0  0  0  0  0  0  0  0
    0.9680   -1.3320   -0.0150 N   0  0  0  0  0  0  0  0  0  0  0  0
    0.0890   -0.2860   -0.0060 C   0  0  0  0  0  0  0  0  0  0  0  0
  1  2  1  0
  2  3  2  0
  2 10  1  0
  3  4  1  0
  4  5  2  0
  5  6  1  0
  6  7  1  0
  6 10  2  0
  7  8  2  0
  8  9  1  0
  9 10  1  0
M  END
