
     RDKit          3D

 15 15  0  0  0  0  0  0  0  0999 V2000
    1.9400    3.4640    1.0270 C   0  0  0  0  0  0  0  0  0  0  0  0
    0.6990    2.9930    0.8520 C   0  0  0  0  0  0  0  0  0  0  0  0
    0.4500    1.6490    0.3660 C   0  0  0  0  0  0  0  0  0  0  0  0
   -0.8540    1.2430    0.2150 C   0  0  0  0  0  0  0  0  0  0  0  0
   -1.0750   -0.0390   -0.2490 C   0  0  0  0  0  0  0  0  0  0  0  0
   -2.4110   -0.4660   -0.4080 N   0  0  0  0  0  0  0  0  0  0  0  0
   -3.1330   -1.1140    0.6650 C   0  0  0  0  0  0  0  0  0  0  0  0
   -3.0670   -0.2490   -1.6760 C   0  0  0  0  0  0  0  0  0  0  0  0
   -0.0170   -0.8470   -0.5370 N   0  0  0  0  0  0  0  0  0  0  0  0
    1.2570   -0.4430   -0.3860 C   0  0  0  0  0  0  0  0  0  0  0  0
    2.5910   -1.5230   -0.7710 S   0  0  1  0  0  0  0  0  0  0  0  0
    3.0770   -2.4820    0.6360 C   0  0  0  0  0  0  0  0  0  0  0  0
    2.2600   -2.4490   -1.8810 O   0  0  0  0  0  0  0  0  0  0  0  0
    3.8030   -0.7180   -1.2040 O   0  0  0  0  0  0  0  0  0  0  0  0
    1.4640    0.8040    0.0650 N   0  0  0  0  0  0  0  0  0  0  0  0
  1  2  2  0
  2  3  1  0
  3  4  2  0
  3 15  1  0
  4  5  1  0
  5  6  1  0
  5  9  2  0
  6  7  1  0
  6  8  1  0
  9 10  1  0
 10 11  1  0
 10 15  2  0
 11 12  1  1
 11 13  2  0
 11 14  2  0
M  END
