
     RDKit          3D

 10 11  0  0  0  0  0  0  0  0999 V2000
   -2.1390    1.0560   -0.0980 N   0  0  0  0  0  0  0  0  0  0  0  0
   -1.1530    0.0330   -0.0220 C   0  0  0  0  0  0  0  0  0  0  0  0
   -1.6070   -1.2670    0.0490 C   0  0  0  0  0  0  0  0  0  0  0  0
   -0.6340   -2.2470    0.1230 C   0  0  0  0  0  0  0  0  0  0  0  0
    0.6780   -1.9490    0.1250 N   0  0  0  0  0  0  0  0  0  0  0  0
    1.1050   -0.6720    0.0560 C   0  0  0  0  0  0  0  0  0  0  0  0
    2.3390   -0.0580    0.0380 C   0  0  0  0  0  0  0  0  0  0  0  0
    2.2220    1.2750   -0.0430 N   0  0  0  0  0  0  0  0  0  0  0  0
    0.9070    1.5360   -0.0790 C   0  0  0  0  0  0  0  0  0  0  0  0
    0.1870    0.3500   -0.0200 C   0  0  0  0  0  0  0  0  0  0  0  0
  1  2  1  0
  2  3  2  0
  2 10  1  0
  3  4  1  0
  4  5  2  0
  5  6  1  0
  6  7  2  0
  6 10  1  0
  7  8  1  0
  8  9  1  0
  9 10  2  0
M  END
