
     RDKit          3D

  9  8  0  0  0  0  0  0  0  0999 V2000
   -1.2340   -1.9310   -0.2330 O   0  0  0  0  0  0  0  0  0  0  0  0
   -1.5490   -0.6180    0.1140 C   0  0  0  0  0  0  0  0  0  0  0  0
   -0.3510    0.2740   -0.2360 C   0  0  1  0  0  0  0  0  0  0  0  0
   -0.6360    1.6900    0.2750 C   0  0  0  0  0  0  0  0  0  0  0  0
   -1.6580    2.2980   -0.4180 O   0  0  0  0  0  0  0  0  0  0  0  0
    0.6770   -0.2390    0.5160 O   0  0  0  0  0  0  0  0  0  0  0  0
    1.7380   -0.7290   -0.2190 C   0  0  2  0  0  0  0  0  0  0  0  0
    1.8790   -2.0810    0.1080 O   0  0  0  0  0  0  0  0  0  0  0  0
    2.8870   -0.0060    0.0960 O   0  0  0  0  0  0  0  0  0  0  0  0
  1  2  1  0
  3  2  1  1
  3  4  1  0
  3  6  1  0
  4  5  1  0
  6  7  1  0
  7  8  1  1
  7  9  1  0
M  END
