
     RDKit          3D

  9  8  0  0  0  0  0  0  0  0999 V2000
    2.1830    1.4730    0.3590 O   0  0  0  0  0  0  0  0  0  0  0  0
    2.1440    0.2010    0.9430 C   0  0  0  0  0  0  0  0  0  0  0  0
    1.1690   -0.6710    0.1450 C   0  0  2  0  0  0  0  0  0  0  0  0
    1.6170   -0.7550   -1.1570 O   0  0  0  0  0  0  0  0  0  0  0  0
   -0.1770    0.0100    0.2400 C   0  0  0  0  0  0  0  0  0  0  0  0
   -1.1600   -0.6580   -0.4740 O   0  0  0  0  0  0  0  0  0  0  0  0
   -2.3400    0.0620   -0.3080 C   0  0  1  0  0  0  0  0  0  0  0  0
   -2.7630    0.5380   -1.5550 O   0  0  0  0  0  0  0  0  0  0  0  0
   -3.3520   -0.7140    0.2530 O   0  0  0  0  0  0  0  0  0  0  0  0
  1  2  1  0
  2  3  1  0
  3  4  1  6
  3  5  1  0
  5  6  1  0
  6  7  1  0
  7  8  1  6
  7  9  1  0
M  END
