
     RDKit          3D

  9  8  0  0  0  0  0  0  0  0999 V2000
    2.4170    0.6520    0.1940 O   0  0  0  0  0  0  0  0  0  0  0  0
    1.5080   -0.2290   -0.3770 C   0  0  0  0  0  0  0  0  0  0  0  0
    0.1890   -0.2590    0.3440 C   0  0  2  0  0  0  0  0  0  0  0  0
    0.4520   -0.5810    1.6760 O   0  0  0  0  0  0  0  0  0  0  0  0
   -0.6580   -1.3150   -0.3260 C   0  0  0  0  0  0  0  0  0  0  0  0
   -0.1930   -2.5510    0.1290 O   0  0  0  0  0  0  0  0  0  0  0  0
   -0.5200    1.0690    0.3320 C   0  0  0  0  0  0  0  0  0  0  0  0
   -0.8810    1.4900   -0.9350 O   0  0  0  0  0  0  0  0  0  0  0  0
   -1.8620    2.3630   -0.7620 O   0  0  0  0  0  0  0  0  0  0  0  0
  1  2  1  0
  2  3  1  0
  3  4  1  1
  3  5  1  0
  3  7  1  0
  5  6  1  0
  7  8  1  0
  8  9  1  0
M  END
