
     RDKit          3D

 10  9  0  0  0  0  0  0  0  0999 V2000
   -0.3610    2.1890    1.0740 O   0  0  0  0  0  0  0  0  0  0  0  0
   -1.1370    1.1180    0.6310 C   0  0  0  0  0  0  0  0  0  0  0  0
   -0.2460    0.1590   -0.1520 C   0  0  1  0  0  0  0  0  0  0  0  0
    0.7750   -0.3070    0.6730 O   0  0  0  0  0  0  0  0  0  0  0  0
    2.0370    0.0050    0.1700 C   0  0  2  0  0  0  0  0  0  0  0  0
    2.7770   -1.1520   -0.0460 O   0  0  0  0  0  0  0  0  0  0  0  0
    2.6500    0.8790    1.0600 O   0  0  0  0  0  0  0  0  0  0  0  0
   -1.0440   -1.0230   -0.6290 C   0  0  1  0  0  0  0  0  0  0  0  0
   -1.5950   -1.7100    0.4490 O   0  0  0  0  0  0  0  0  0  0  0  0
   -2.0200   -0.5650   -1.5050 O   0  0  0  0  0  0  0  0  0  0  0  0
  1  2  1  0
  3  2  1  1
  3  4  1  0
  3  8  1  0
  4  5  1  0
  5  6  1  1
  5  7  1  0
  8  9  1  1
  8 10  1  0
M  END
