
     RDKit          3D

  9  8  0  0  0  0  0  0  0  0999 V2000
    3.1580    0.3010    0.7920 O   0  0  0  0  0  0  0  0  0  0  0  0
    2.2980    0.1740   -0.2950 C   0  0  0  0  0  0  0  0  0  0  0  0
    1.0980   -0.3750    0.1530 O   0  0  0  0  0  0  0  0  0  0  0  0
    0.1770   -0.5380   -0.8710 C   0  0  1  0  0  0  0  0  0  0  0  0
   -0.1210   -1.8960   -0.9480 O   0  0  0  0  0  0  0  0  0  0  0  0
   -1.0470    0.2550   -0.5380 C   0  0  2  0  0  0  0  0  0  0  0  0
   -0.6960    1.6000   -0.4150 O   0  0  0  0  0  0  0  0  0  0  0  0
   -1.5840   -0.1860    0.8160 C   0  0  0  0  0  0  0  0  0  0  0  0
   -2.7000    0.5740    1.1720 O   0  0  0  0  0  0  0  0  0  0  0  0
  1  2  1  0
  2  3  1  0
  3  4  1  0
  4  5  1  1
  4  6  1  0
  6  7  1  1
  6  8  1  0
  8  9  1  0
M  END
