
     RDKit          3D

 23 24  0  0  0  0  0  0  0  0999 V2000
    0.1760    3.3490    1.0450 C   0  0  0  0  0  0  0  0  0  0  0  0
    1.3190    3.1580    0.5310 C   0  0  0  0  0  0  0  0  0  0  0  0
    2.1080    2.1570   -0.0640 C   0  0  0  0  0  0  0  0  0  0  0  0
    3.3480    2.5970   -0.4590 C   0  0  0  0  0  0  0  0  0  0  0  0
    3.7770    4.0070   -0.2610 C   0  0  0  0  0  0  0  0  0  0  0  0
    1.8580    0.7850   -0.3680 C   0  0  0  0  0  0  0  0  0  0  0  0
    0.7710    0.0860   -0.0710 C   0  0  0  0  0  0  0  0  0  0  0  0
   -0.2630    0.6980    0.6030 O   0  0  0  0  0  0  0  0  0  0  0  0
    0.5580   -1.3150   -0.3920 C   0  0  0  0  0  0  0  0  0  0  0  0
   -0.5250   -1.9890   -0.1020 C   0  0  0  0  0  0  0  0  0  0  0  0
   -0.5630   -3.4650   -0.5120 C   0  0  0  0  0  0  0  0  0  0  0  0
   -1.7580   -1.5350    0.4820 C   0  0  0  0  0  0  0  0  0  0  0  0
   -2.5140   -0.5450   -0.0910 C   0  0  0  0  0  0  0  0  0  0  0  0
   -3.6780   -0.1310    0.5160 C   0  0  0  0  0  0  0  0  0  0  0  0
   -4.5340    0.9450   -0.0750 C   0  0  0  0  0  0  0  0  0  0  0  0
   -4.1250   -0.6810    1.6990 C   0  0  0  0  0  0  0  0  0  0  0  0
   -3.3820   -1.6770    2.2920 C   0  0  0  0  0  0  0  0  0  0  0  0
   -2.2070   -2.0990    1.6850 C   0  0  0  0  0  0  0  0  0  0  0  0
   -1.4540   -3.1710    2.3860 C   0  0  0  0  0  0  0  0  0  0  0  0
    1.6310   -1.9430   -1.0720 O   0  0  0  0  0  0  0  0  0  0  0  0
    2.5710   -1.1980   -1.7690 C   0  0  1  0  0  0  0  0  0  0  0  0
    1.9950   -0.9430   -3.1580 C   0  0  0  0  0  0  0  0  0  0  0  0
    2.9560    0.0870   -1.1530 C   0  0  0  0  0  0  0  0  0  0  0  0
  1  2  2  0
  2  3  1  0
  3  4  2  3
  3  6  1  0
  4  5  1  0
  6  7  2  0
  6 23  1  0
  7  8  1  0
  7  9  1  0
  9 10  2  3
  9 20  1  0
 10 11  1  0
 10 12  1  0
 12 13  2  0
 12 18  1  0
 13 14  1  0
 14 15  1  0
 14 16  2  0
 16 17  1  0
 17 18  2  0
 18 19  1  0
 20 21  1  0
 21 22  1  6
 21 23  1  0
M  END
