
     RDKit          3D

 19 19  0  0  0  0  0  0  0  0999 V2000
    5.4910    1.1390   -0.8600 C   0  0  0  0  0  0  0  0  0  0  0  0
    5.1370    0.8640    0.5870 C   0  0  0  0  0  0  0  0  0  0  0  0
    3.9740    1.4600    0.9900 O   0  0  0  0  0  0  0  0  0  0  0  0
    2.8350    1.0950    0.2860 C   0  0  0  0  0  0  0  0  0  0  0  0
    2.6050   -0.3690    0.4120 C   0  0  0  0  0  0  0  0  0  0  0  0
    1.5170   -0.8840   -0.2250 O   0  0  0  0  0  0  0  0  0  0  0  0
    0.2870   -0.3860    0.1840 C   0  0  2  0  0  0  0  0  0  0  0  0
   -0.6050   -1.4620    0.7540 C   0  0  0  0  0  0  0  0  0  0  0  0
   -1.5550   -1.7160   -0.3970 C   0  0  1  0  0  0  0  0  0  0  0  0
   -0.7160   -2.3990   -1.3500 O   0  0  0  0  0  0  0  0  0  0  0  0
   -2.6460   -2.6560   -0.0930 C   0  0  0  0  0  0  0  0  0  0  0  0
   -3.5270   -2.1000    0.8200 O   0  0  0  0  0  0  0  0  0  0  0  0
   -1.8430   -0.4160   -0.9980 C   0  0  1  0  0  0  0  0  0  0  0  0
   -2.8790    0.4720   -0.4820 C   0  0  0  0  0  0  0  0  0  0  0  0
   -2.8250    1.0090    0.8800 C   0  0  2  0  0  0  0  0  0  0  0  0
   -4.0820    1.8940    1.0430 C   0  0  0  0  0  0  0  0  0  0  0  0
   -1.7700    1.8920    1.1140 O   0  0  0  0  0  0  0  0  0  0  0  0
   -0.4490    0.2300   -0.9830 C   0  0  2  0  0  0  0  0  0  0  0  0
    0.2490   -0.0590   -2.1550 O   0  0  0  0  0  0  0  0  0  0  0  0
  1  2  1  0
  2  3  1  0
  3  4  1  0
  4  5  1  0
  5  6  1  0
  7  6  1  6
  7  8  1  0
  7 18  1  0
  8  9  1  0
  9 10  1  6
  9 11  1  0
  9 13  1  0
 11 12  1  0
 13 14  1  1
 13 18  1  0
 14 15  1  0
 15 16  1  6
 15 17  1  0
 18 19  1  6
M  END
