
     RDKit          3D

 23 25  0  0  0  0  0  0  0  0999 V2000
    1.2100   -2.3980   -0.9810 C   0  0  0  0  0  0  0  0  0  0  0  0
    0.9520   -1.8230    0.3770 C   0  0  0  0  0  0  0  0  0  0  0  0
    0.4960   -0.4200    0.2640 C   0  0  0  0  0  0  0  0  0  0  0  0
    1.4250    0.6140    0.2350 C   0  0  0  0  0  0  0  0  0  0  0  0
    2.8570    0.3960    0.3780 C   0  0  0  0  0  0  0  0  0  0  0  0
    3.5790    1.2640    1.1290 C   0  0  0  0  0  0  0  0  0  0  0  0
    5.0070    0.9010    1.1560 C   0  0  0  0  0  0  0  0  0  0  0  0
    5.0600   -0.2690    0.3060 C   0  0  0  0  0  0  0  0  0  0  0  0
    3.8170   -0.5380   -0.1220 C   0  0  0  0  0  0  0  0  0  0  0  0
    1.0330    1.9380    0.0190 C   0  0  0  0  0  0  0  0  0  0  0  0
    1.9410    3.1020   -0.1140 C   0  0  0  0  0  0  0  0  0  0  0  0
   -0.3270    2.1520   -0.1590 C   0  0  0  0  0  0  0  0  0  0  0  0
   -1.2590    1.1380   -0.1300 C   0  0  0  0  0  0  0  0  0  0  0  0
   -0.8400   -0.1600    0.0860 C   0  0  0  0  0  0  0  0  0  0  0  0
   -2.0550   -1.0030    0.0510 C   0  0  0  0  0  0  0  0  0  0  0  0
   -2.2890   -2.2430    0.2920 C   0  0  0  0  0  0  0  0  0  0  0  0
   -1.5930   -3.4210    0.7030 C   0  0  0  0  0  0  0  0  0  0  0  0
   -3.6910   -2.5850    0.0860 O   0  0  0  0  0  0  0  0  0  0  0  0
   -3.1990   -0.0480   -0.2150 C   0  0  0  0  0  0  0  0  0  0  0  0
   -4.6540   -0.3910   -0.3630 C   0  0  0  0  0  0  0  0  0  0  0  0
   -2.7030    1.1430   -0.3070 C   0  0  0  0  0  0  0  0  0  0  0  0
   -3.4630    2.4180   -0.5510 C   0  0  0  0  0  0  0  0  0  0  0  0
   -3.0280    3.0270   -1.7230 O   0  0  0  0  0  0  0  0  0  0  0  0
  1  2  1  0
  2  3  1  0
  3  4  2  0
  3 14  1  0
  4  5  1  0
  4 10  1  0
  5  6  2  0
  5  9  1  0
  6  7  1  0
  7  8  1  0
  8  9  2  0
 10 11  1  0
 10 12  2  0
 12 13  1  0
 13 14  2  0
 13 21  1  0
 14 15  1  0
 15 16  2  3
 15 19  1  0
 16 17  1  0
 16 18  1  0
 19 20  1  0
 19 21  2  0
 21 22  1  0
 22 23  1  0
M  END
