
     RDKit          3D

 23 25  0  0  0  0  0  0  0  0999 V2000
   -0.9190   -0.8100    2.3350 C   0  0  0  0  0  0  0  0  0  0  0  0
   -0.4390    0.4820    1.6510 C   0  0  0  0  0  0  0  0  0  0  0  0
    0.0800    0.0220    0.3260 C   0  0  0  0  0  0  0  0  0  0  0  0
    1.3770    0.1850    0.0680 C   0  0  0  0  0  0  0  0  0  0  0  0
    2.2060    0.8440    1.1470 C   0  0  0  0  0  0  0  0  0  0  0  0
    3.5040    1.3980    0.6830 C   0  0  0  0  0  0  0  0  0  0  0  0
    4.1490    0.5440   -0.3580 C   0  0  2  0  0  0  0  0  0  0  0  0
    5.5140    1.0650   -0.7450 C   0  0  0  0  0  0  0  0  0  0  0  0
    3.2020    0.5750   -1.5610 C   0  0  0  0  0  0  0  0  0  0  0  0
    2.0440   -0.2810   -1.1580 C   0  0  1  0  0  0  0  0  0  0  0  0
    2.6450   -1.6880   -0.9210 C   0  0  0  0  0  0  0  0  0  0  0  0
    1.0810   -0.4100   -2.3000 C   0  0  0  0  0  0  0  0  0  0  0  0
   -0.0900   -1.2100   -1.7620 C   0  0  0  0  0  0  0  0  0  0  0  0
   -0.4210   -2.2450   -2.2780 O   0  0  0  0  0  0  0  0  0  0  0  0
   -0.8530   -0.6750   -0.5350 C   0  0  0  0  0  0  0  0  0  0  0  0
   -2.1420   -0.7440   -0.6300 C   0  0  0  0  0  0  0  0  0  0  0  0
   -2.4130   -1.7240   -1.7700 O   0  0  0  0  0  0  0  0  0  0  0  0
   -3.3860   -0.2540   -0.1120 C   0  0  0  0  0  0  0  0  0  0  0  0
   -4.5090   -0.7950   -0.6590 C   0  0  0  0  0  0  0  0  0  0  0  0
   -5.8480   -0.4430   -0.3060 C   0  0  0  0  0  0  0  0  0  0  0  0
   -6.0450    0.4860    0.6060 C   0  0  0  0  0  0  0  0  0  0  0  0
   -4.9610    1.1820    1.2710 C   0  0  0  0  0  0  0  0  0  0  0  0
   -3.5700    0.7440    0.9030 C   0  0  0  0  0  0  0  0  0  0  0  0
  1  2  1  0
  2  3  1  0
  3  4  2  0
  3 15  1  0
  4  5  1  0
  4 10  1  0
  5  6  1  0
  6  7  1  0
  7  8  1  6
  7  9  1  0
  9 10  1  0
 10 11  1  1
 10 12  1  0
 12 13  1  0
 13 14  2  0
 13 15  1  0
 15 16  2  3
 16 17  1  0
 16 18  1  0
 18 19  2  0
 18 23  1  0
 19 20  1  0
 20 21  2  0
 21 22  1  0
 22 23  1  0
M  END
