
     RDKit          3D

 16 17  0  0  0  0  0  0  0  0999 V2000
    5.6280    0.4040   -0.4370 N   0  0  0  0  0  0  0  0  0  0  0  0
    4.4140   -0.1970   -0.0280 C   0  0  0  0  0  0  0  0  0  0  0  0
    4.1880   -1.5250    0.1970 N   0  0  0  0  0  0  0  0  0  0  0  0
    2.9340   -1.7120    0.5670 N   0  0  0  0  0  0  0  0  0  0  0  0
    2.3060   -0.5230    0.5950 C   0  0  0  0  0  0  0  0  0  0  0  0
    0.5820   -0.2120    1.0340 S   0  0  0  0  0  0  0  0  0  0  0  0
   -0.3700   -0.3270   -0.5050 C   0  0  0  0  0  0  0  0  0  0  0  0
   -1.8120   -0.0790   -0.2110 C   0  0  0  0  0  0  0  0  0  0  0  0
   -2.2630    0.1890    1.0660 C   0  0  0  0  0  0  0  0  0  0  0  0
   -3.6210    0.4170    1.3040 C   0  0  0  0  0  0  0  0  0  0  0  0
   -4.5430    0.3800    0.2790 C   0  0  0  0  0  0  0  0  0  0  0  0
   -6.2470    0.6710    0.6090 Cl  0  0  0  0  0  0  0  0  0  0  0  0
   -4.0960    0.1130   -0.9990 C   0  0  0  0  0  0  0  0  0  0  0  0
   -2.7370   -0.1130   -1.2240 C   0  0  0  0  0  0  0  0  0  0  0  0
   -2.1830   -0.4500   -2.8380 Cl  0  0  0  0  0  0  0  0  0  0  0  0
    3.2240    0.3880    0.2300 N   0  0  0  0  0  0  0  0  0  0  0  0
  1  2  1  0
  2  3  2  0
  2 16  1  0
  3  4  1  0
  4  5  2  0
  5  6  1  0
  5 16  1  0
  6  7  1  0
  7  8  1  0
  8  9  2  0
  8 14  1  0
  9 10  1  0
 10 11  2  0
 11 12  1  0
 11 13  1  0
 13 14  2  0
 14 15  1  0
M  END
