
     RDKit          3D

 22 23  0  0  0  0  0  0  0  0999 V2000
   -6.6340   -0.2230    0.2940 C   0  0  0  0  0  0  0  0  0  0  0  0
   -5.1820   -0.4740    0.1460 C   0  0  0  0  0  0  0  0  0  0  0  0
   -4.7160   -1.7310   -0.1960 C   0  0  0  0  0  0  0  0  0  0  0  0
   -3.3420   -1.9510   -0.3320 C   0  0  0  0  0  0  0  0  0  0  0  0
   -2.8940   -3.3130   -0.6990 C   0  0  0  0  0  0  0  0  0  0  0  0
   -2.4330   -0.9350   -0.1300 C   0  0  0  0  0  0  0  0  0  0  0  0
   -1.0830   -1.2020   -0.2760 O   0  0  0  0  0  0  0  0  0  0  0  0
   -0.1010   -0.1520   -0.0710 C   0  0  0  0  0  0  0  0  0  0  0  0
    1.2320   -0.6990   -0.2860 C   0  0  0  0  0  0  0  0  0  0  0  0
    1.2660   -1.9570   -0.6290 O   0  0  0  0  0  0  0  0  0  0  0  0
    2.5180   -0.0540   -0.1780 C   0  0  0  0  0  0  0  0  0  0  0  0
    3.6580   -0.7170   -0.6550 C   0  0  0  0  0  0  0  0  0  0  0  0
    4.9230   -0.1930   -0.6260 C   0  0  0  0  0  0  0  0  0  0  0  0
    6.0860   -0.9890   -1.1670 C   0  0  0  0  0  0  0  0  0  0  0  0
    5.0960    1.0540   -0.1000 C   0  0  0  0  0  0  0  0  0  0  0  0
    6.4410    1.6490   -0.0530 C   0  0  0  0  0  0  0  0  0  0  0  0
    4.0200    1.7470    0.3810 C   0  0  0  0  0  0  0  0  0  0  0  0
    2.7200    1.1890    0.3420 C   0  0  0  0  0  0  0  0  0  0  0  0
    1.5980    1.9610    0.8900 C   0  0  0  0  0  0  0  0  0  0  0  0
   -2.9270    0.3060    0.2090 C   0  0  0  0  0  0  0  0  0  0  0  0
   -4.2860    0.5470    0.3500 C   0  0  0  0  0  0  0  0  0  0  0  0
   -4.8240    1.8820    0.7150 C   0  0  0  0  0  0  0  0  0  0  0  0
  1  2  1  0
  2  3  2  0
  2 21  1  0
  3  4  1  0
  4  5  1  0
  4  6  2  0
  6  7  1  0
  6 20  1  0
  7  8  1  0
  8  9  1  0
  9 10  2  0
  9 11  1  0
 11 12  2  0
 11 18  1  0
 12 13  1  0
 13 14  1  0
 13 15  2  0
 15 16  1  0
 15 17  1  0
 17 18  2  0
 18 19  1  0
 20 21  2  0
 21 22  1  0
M  END
