
     RDKit          3D

 22 23  0  0  0  0  0  0  0  0999 V2000
    4.6340   -0.7630    2.5200 C   0  0  0  0  0  0  0  0  0  0  0  0
    5.2550   -0.3080    1.2260 C   0  0  1  0  0  0  0  0  0  0  0  0
    5.1150   -1.4770    0.2450 C   0  0  0  0  0  0  0  0  0  0  0  0
    4.5540    0.8560    0.6550 C   0  0  0  0  0  0  0  0  0  0  0  0
    5.1920    1.9140    0.4830 O   0  0  0  0  0  0  0  0  0  0  0  0
    3.2280    0.8070    0.3120 O   0  0  0  0  0  0  0  0  0  0  0  0
    2.5520    1.9050   -0.2300 C   0  0  0  0  0  0  0  0  0  0  0  0
    1.1210    1.5920   -0.5160 C   0  0  0  0  0  0  0  0  0  0  0  0
    0.3340    2.4390   -1.0060 O   0  0  0  0  0  0  0  0  0  0  0  0
    0.5360    0.3820   -0.2790 O   0  0  0  0  0  0  0  0  0  0  0  0
   -0.7650    0.0760   -0.5320 C   0  0  0  0  0  0  0  0  0  0  0  0
   -1.8160    0.2280    0.3380 C   0  0  0  0  0  0  0  0  0  0  0  0
   -3.1080   -0.1100   -0.0040 C   0  0  0  0  0  0  0  0  0  0  0  0
   -3.3950   -0.6250   -1.2650 C   0  0  0  0  0  0  0  0  0  0  0  0
   -2.3540   -0.7850   -2.1560 C   0  0  0  0  0  0  0  0  0  0  0  0
   -1.0660   -0.4360   -1.7810 C   0  0  0  0  0  0  0  0  0  0  0  0
   -0.0400   -0.6160   -2.7170 O   0  0  0  0  0  0  0  0  0  0  0  0
   -4.6920   -1.0390   -1.8130 C   0  0  0  0  0  0  0  0  0  0  0  0
   -5.8740   -0.7120   -1.2960 C   0  0  0  0  0  0  0  0  0  0  0  0
   -6.1790    0.0570   -0.1760 O   0  0  0  0  0  0  0  0  0  0  0  0
   -5.2430    0.9420    0.4520 C   0  0  0  0  0  0  0  0  0  0  0  0
   -4.1020    0.1270    1.0720 C   0  0  0  0  0  0  0  0  0  0  0  0
  2  1  1  1
  2  3  1  0
  2  4  1  0
  4  5  2  0
  4  6  1  0
  6  7  1  0
  7  8  1  0
  8  9  2  0
  8 10  1  0
 10 11  1  0
 11 12  2  0
 11 16  1  0
 12 13  1  0
 13 14  2  0
 13 22  1  0
 14 15  1  0
 14 18  1  0
 15 16  2  0
 16 17  1  0
 18 19  2  0
 19 20  1  0
 20 21  1  0
 21 22  1  0
M  END
