
     RDKit          3D

 22 24  0  0  0  0  0  0  0  0999 V2000
    1.9660    0.4180   -1.9970 O   0  0  0  0  0  0  0  0  0  0  0  0
    2.6310   -0.3300   -1.2030 C   0  0  0  0  0  0  0  0  0  0  0  0
    4.0730   -0.4980   -1.3980 C   0  0  0  0  0  0  0  0  0  0  0  0
    4.8720    0.6650   -0.8330 C   0  0  0  0  0  0  0  0  0  0  0  0
    4.5930    0.7580    0.6510 C   0  0  0  0  0  0  0  0  0  0  0  0
    4.9700   -0.4220    1.2820 O   0  0  0  0  0  0  0  0  0  0  0  0
    1.8890   -0.9300   -0.1960 O   0  0  0  0  0  0  0  0  0  0  0  0
    0.5170   -0.7160   -0.0810 C   0  0  0  0  0  0  0  0  0  0  0  0
    0.0740    0.3450    0.6780 C   0  0  0  0  0  0  0  0  0  0  0  0
   -1.2960    0.5420    0.7810 C   0  0  0  0  0  0  0  0  0  0  0  0
   -1.8400    1.5650    1.5090 C   0  0  0  0  0  0  0  0  0  0  0  0
   -1.0140    2.3390    2.0950 O   0  0  0  0  0  0  0  0  0  0  0  0
   -3.1330    1.7500    1.6060 O   0  0  0  0  0  0  0  0  0  0  0  0
   -4.0290    0.9640    1.0090 C   0  0  0  0  0  0  0  0  0  0  0  0
   -3.5630   -0.0860    0.2590 C   0  0  0  0  0  0  0  0  0  0  0  0
   -2.1820   -0.3010    0.1430 C   0  0  0  0  0  0  0  0  0  0  0  0
   -1.7450   -1.3680   -0.6200 C   0  0  0  0  0  0  0  0  0  0  0  0
   -0.3640   -1.5620   -0.7210 C   0  0  0  0  0  0  0  0  0  0  0  0
    0.1030   -2.6240   -1.4800 O   0  0  0  0  0  0  0  0  0  0  0  0
   -4.5690   -0.7680   -0.2650 C   0  0  0  0  0  0  0  0  0  0  0  0
   -5.8220   -0.1160    0.1710 C   0  0  0  0  0  0  0  0  0  0  0  0
   -5.3460    1.0070    1.0020 C   0  0  0  0  0  0  0  0  0  0  0  0
  1  2  2  0
  2  3  1  0
  2  7  1  0
  3  4  1  0
  4  5  1  0
  5  6  1  0
  7  8  1  0
  8  9  2  0
  8 18  1  0
  9 10  1  0
 10 11  1  0
 10 16  2  0
 11 12  2  0
 11 13  1  0
 13 14  1  0
 14 15  1  0
 14 22  2  0
 15 16  1  0
 15 20  2  0
 16 17  1  0
 17 18  2  0
 18 19  1  0
 20 21  1  0
 21 22  1  0
M  END
