
     RDKit          3D

 22 23  0  0  0  0  0  0  0  0999 V2000
   -5.6520   -1.6830   -0.3250 C   0  0  0  0  0  0  0  0  0  0  0  0
   -4.2510   -1.8710   -0.2480 O   0  0  0  0  0  0  0  0  0  0  0  0
   -3.4500   -0.7360   -0.0980 C   0  0  0  0  0  0  0  0  0  0  0  0
   -3.9910    0.5310   -0.0250 C   0  0  0  0  0  0  0  0  0  0  0  0
   -3.2220    1.6710    0.1240 C   0  0  0  0  0  0  0  0  0  0  0  0
   -3.7960    2.9280    0.1930 O   0  0  0  0  0  0  0  0  0  0  0  0
   -1.8550    1.5720    0.2060 C   0  0  0  0  0  0  0  0  0  0  0  0
   -0.9790    2.6300    0.3540 O   0  0  0  0  0  0  0  0  0  0  0  0
   -1.2930    0.2980    0.1340 C   0  0  0  0  0  0  0  0  0  0  0  0
    0.0940    0.1580    0.2130 O   0  0  0  0  0  0  0  0  0  0  0  0
    0.8950    0.1880   -0.9530 C   0  0  0  0  0  0  0  0  0  0  0  0
    2.3010    0.0160   -0.5500 C   0  0  0  0  0  0  0  0  0  0  0  0
    2.8740   -1.2310   -0.4610 C   0  0  0  0  0  0  0  0  0  0  0  0
    4.2110   -1.3510   -0.0750 C   0  0  0  0  0  0  0  0  0  0  0  0
    4.9760   -0.2500    0.2210 C   0  0  0  0  0  0  0  0  0  0  0  0
    6.3530   -0.3610    0.6190 C   0  0  0  0  0  0  0  0  0  0  0  0
    7.0430    0.6420    0.8860 O   0  0  0  0  0  0  0  0  0  0  0  0
    4.3940    1.0020    0.1290 C   0  0  0  0  0  0  0  0  0  0  0  0
    5.1670    2.1130    0.4280 O   0  0  0  0  0  0  0  0  0  0  0  0
    3.0580    1.1270   -0.2560 C   0  0  0  0  0  0  0  0  0  0  0  0
   -2.0750   -0.8290   -0.0150 C   0  0  0  0  0  0  0  0  0  0  0  0
   -1.4670   -2.1860   -0.0910 C   0  0  0  0  0  0  0  0  0  0  0  0
  1  2  1  0
  2  3  1  0
  3  4  2  0
  3 21  1  0
  4  5  1  0
  5  6  1  0
  5  7  2  0
  7  8  1  0
  7  9  1  0
  9 10  1  0
  9 21  2  0
 10 11  1  0
 11 12  1  0
 12 13  2  0
 12 20  1  0
 13 14  1  0
 14 15  2  0
 15 16  1  0
 15 18  1  0
 16 17  2  0
 18 19  1  0
 18 20  2  0
 21 22  1  0
M  END
