
     RDKit          3D

 21 23  0  0  0  0  0  0  0  0999 V2000
   -2.6770   -2.6060    1.7720 C   0  0  0  0  0  0  0  0  0  0  0  0
   -1.8690   -1.5740    1.2750 O   0  0  0  0  0  0  0  0  0  0  0  0
   -2.3760   -0.5740    0.4310 C   0  0  0  0  0  0  0  0  0  0  0  0
   -3.7160   -0.6240    0.0900 C   0  0  0  0  0  0  0  0  0  0  0  0
   -4.3190    0.3000   -0.7240 C   0  0  0  0  0  0  0  0  0  0  0  0
   -3.5460    1.3240   -1.2220 C   0  0  0  0  0  0  0  0  0  0  0  0
   -4.1310    2.2730   -2.0480 O   0  0  0  0  0  0  0  0  0  0  0  0
   -2.2240    1.3890   -0.8970 C   0  0  0  0  0  0  0  0  0  0  0  0
   -1.5780    0.4320   -0.0490 C   0  0  0  0  0  0  0  0  0  0  0  0
   -0.3080    0.6390    0.1630 O   0  0  0  0  0  0  0  0  0  0  0  0
    0.9670    0.3650    0.1190 C   0  0  0  0  0  0  0  0  0  0  0  0
    1.7900    1.2730   -0.6320 C   0  0  0  0  0  0  0  0  0  0  0  0
    3.1270    1.1380   -0.7780 C   0  0  0  0  0  0  0  0  0  0  0  0
    3.7490    0.0670   -0.1740 C   0  0  0  0  0  0  0  0  0  0  0  0
    2.9920   -0.8320    0.5610 C   0  0  0  0  0  0  0  0  0  0  0  0
    1.6180   -0.6950    0.7120 C   0  0  0  0  0  0  0  0  0  0  0  0
    0.9410   -1.6430    1.4680 O   0  0  0  0  0  0  0  0  0  0  0  0
    5.1830    0.1430   -0.4800 C   0  0  0  0  0  0  0  0  0  0  0  0
    5.3910    1.2780   -1.2720 O   0  0  0  0  0  0  0  0  0  0  0  0
    4.1660    1.8960   -1.4680 C   0  0  0  0  0  0  0  0  0  0  0  0
    3.9740    2.9560   -2.1410 O   0  0  0  0  0  0  0  0  0  0  0  0
  1  2  1  0
  2  3  1  0
  3  4  2  0
  3  9  1  0
  4  5  1  0
  5  6  2  0
  6  7  1  0
  6  8  1  0
  8  9  2  0
  9 10  1  0
 10 11  1  0
 11 12  2  0
 11 16  1  0
 12 13  1  0
 13 14  2  0
 13 20  1  0
 14 15  1  0
 14 18  1  0
 15 16  2  0
 16 17  1  0
 18 19  1  0
 19 20  1  0
 20 21  2  0
M  END
