
     RDKit          3D

 28 30  0  0  0  0  0  0  0  0999 V2000
    9.1670    0.4560    0.3940 C   0  0  0  0  0  0  0  0  0  0  0  0
    8.3070    1.6550    0.7520 C   0  0  0  0  0  0  0  0  0  0  0  0
    6.9440    1.2320    0.8200 O   0  0  0  0  0  0  0  0  0  0  0  0
    6.4060    0.6930   -0.3480 C   0  0  0  0  0  0  0  0  0  0  0  0
    7.0930    0.5900   -1.3970 O   0  0  0  0  0  0  0  0  0  0  0  0
    5.0210    0.2370   -0.3610 C   0  0  0  0  0  0  0  0  0  0  0  0
    4.3610   -0.3020   -1.3990 N   0  0  0  0  0  0  0  0  0  0  0  0
    3.1050   -0.5820   -0.9870 C   0  0  0  0  0  0  0  0  0  0  0  0
    2.9690   -0.2170    0.3270 C   0  0  0  0  0  0  0  0  0  0  0  0
    1.7760   -0.3370    1.1980 C   0  0  0  0  0  0  0  0  0  0  0  0
    0.7600   -1.0610    0.5360 O   0  0  0  0  0  0  0  0  0  0  0  0
    0.9850   -2.3660    0.1300 C   0  0  0  0  0  0  0  0  0  0  0  0
    2.1070   -2.8700    0.3700 O   0  0  0  0  0  0  0  0  0  0  0  0
   -0.0630   -3.1620   -0.5730 C   0  0  0  0  0  0  0  0  0  0  0  0
   -1.2470   -2.4150   -0.7460 O   0  0  0  0  0  0  0  0  0  0  0  0
   -1.9190   -1.9310    0.3370 C   0  0  0  0  0  0  0  0  0  0  0  0
   -1.4600   -2.1650    1.4830 O   0  0  0  0  0  0  0  0  0  0  0  0
   -3.1490   -1.1510    0.2510 C   0  0  0  0  0  0  0  0  0  0  0  0
   -3.8660   -0.7470   -0.7880 C   0  0  0  0  0  0  0  0  0  0  0  0
   -4.9970   -0.0180   -0.6320 C   0  0  0  0  0  0  0  0  0  0  0  0
   -5.3560    0.2780    0.6810 C   0  0  0  0  0  0  0  0  0  0  0  0
   -4.0510   -0.5050    1.6390 S   0  0  0  0  0  0  0  0  0  0  0  0
   -6.5390    1.0540    1.1040 C   0  0  0  0  0  0  0  0  0  0  0  0
   -7.3440    1.5100   -0.0170 C   0  0  0  0  0  0  0  0  0  0  0  0
   -8.5720    2.3070    0.2580 C   0  0  0  0  0  0  0  0  0  0  0  0
   -7.0350    1.2490   -1.2670 C   0  0  0  0  0  0  0  0  0  0  0  0
   -5.9090    0.5130   -1.6140 N   0  0  0  0  0  0  0  0  0  0  0  0
    4.1640    0.2850    0.6870 N   0  0  0  0  0  0  0  0  0  0  0  0
  1  2  1  0
  2  3  1  0
  3  4  1  0
  4  5  2  0
  4  6  1  0
  6  7  2  0
  6 28  1  0
  7  8  1  0
  8  9  2  0
  9 10  1  0
  9 28  1  0
 10 11  1  0
 11 12  1  0
 12 13  2  0
 12 14  1  0
 14 15  1  0
 15 16  1  0
 16 17  2  0
 16 18  1  0
 18 19  2  0
 18 22  1  0
 19 20  1  0
 20 21  2  0
 20 27  1  0
 21 22  1  0
 21 23  1  0
 23 24  1  0
 24 25  1  0
 24 26  2  0
 26 27  1  0
M  END
