
     RDKit          3D

 28 30  0  0  0  0  0  0  0  0999 V2000
    5.6050    0.2030   -2.0270 C   0  0  0  0  0  0  0  0  0  0  0  0
    5.8470    0.6740   -0.8310 C   0  0  0  0  0  0  0  0  0  0  0  0
    6.9950    1.4500   -0.6500 O   0  0  0  0  0  0  0  0  0  0  0  0
    7.2660    1.9580    0.5940 C   0  0  0  0  0  0  0  0  0  0  0  0
    6.4530    1.7160    1.6080 C   0  0  0  0  0  0  0  0  0  0  0  0
    5.2480    0.9130    1.4630 C   0  0  0  0  0  0  0  0  0  0  0  0
    4.9360    0.3910    0.2660 C   0  0  0  0  0  0  0  0  0  0  0  0
    3.7610   -0.3910    0.1030 N   0  0  0  0  0  0  0  0  0  0  0  0
    3.7630   -1.7700   -0.2330 C   0  0  0  0  0  0  0  0  0  0  0  0
    4.8730   -2.3330   -0.3870 O   0  0  0  0  0  0  0  0  0  0  0  0
    2.5050   -2.5430   -0.4010 C   0  0  0  0  0  0  0  0  0  0  0  0
    1.3660   -1.7310   -0.1870 O   0  0  0  0  0  0  0  0  0  0  0  0
    0.1070   -2.2860   -0.3010 C   0  0  0  0  0  0  0  0  0  0  0  0
    0.0290   -3.5060   -0.5960 O   0  0  0  0  0  0  0  0  0  0  0  0
   -1.1130   -1.5040   -0.0930 C   0  0  0  0  0  0  0  0  0  0  0  0
   -2.3640   -1.9800   -0.1890 N   0  0  0  0  0  0  0  0  0  0  0  0
   -3.2720   -0.9990    0.0630 C   0  0  0  0  0  0  0  0  0  0  0  0
   -4.6480   -0.9780    0.0900 C   0  0  0  0  0  0  0  0  0  0  0  0
   -5.2110   -2.1040   -0.1740 O   0  0  0  0  0  0  0  0  0  0  0  0
   -5.4220    0.0090    0.3410 O   0  0  0  0  0  0  0  0  0  0  0  0
   -5.1430    1.2430    0.6350 C   0  0  0  0  0  0  0  0  0  0  0  0
   -6.0510    2.1230    0.8620 N   0  0  0  0  0  0  0  0  0  0  0  0
   -7.4200    1.7260    0.7880 C   0  0  0  0  0  0  0  0  0  0  0  0
   -7.7730    1.2150   -0.5730 C   0  0  0  0  0  0  0  0  0  0  0  0
   -3.4630    1.5300    0.6780 S   0  0  0  0  0  0  0  0  0  0  0  0
   -2.5400    0.1180    0.3220 C   0  0  0  0  0  0  0  0  0  0  0  0
   -1.1990   -0.1680    0.2320 C   0  0  0  0  0  0  0  0  0  0  0  0
   -0.1100    0.8000    0.4480 C   0  0  0  0  0  0  0  0  0  0  0  0
  1  2  2  0
  2  3  1  0
  2  7  1  0
  3  4  1  0
  4  5  2  0
  5  6  1  0
  6  7  2  0
  7  8  1  0
  8  9  1  0
  9 10  2  0
  9 11  1  0
 11 12  1  0
 12 13  1  0
 13 14  2  0
 13 15  1  0
 15 16  1  0
 15 27  2  0
 16 17  1  0
 17 18  1  0
 17 26  2  0
 18 19  2  0
 18 20  1  0
 20 21  1  0
 21 22  2  3
 21 25  1  0
 22 23  1  0
 23 24  1  0
 25 26  1  0
 26 27  1  0
 27 28  1  0
M  END
