
     RDKit          3D

 28 30  0  0  0  0  0  0  0  0999 V2000
   -3.2450   -5.1930   -0.1050 C   0  0  0  0  0  0  0  0  0  0  0  0
   -2.2090   -4.5020    0.3370 C   0  0  0  0  0  0  0  0  0  0  0  0
   -2.3600   -3.5770    1.4710 C   0  0  0  0  0  0  0  0  0  0  0  0
   -2.0170   -2.2010    1.0800 N   0  0  0  0  0  0  0  0  0  0  0  0
   -2.8840   -1.2480    0.5770 N   0  0  0  0  0  0  0  0  0  0  0  0
   -2.3220   -0.1490    0.3250 C   0  0  0  0  0  0  0  0  0  0  0  0
   -2.9780    1.0200   -0.2040 C   0  0  0  0  0  0  0  0  0  0  0  0
   -4.2930    1.2600   -0.5620 C   0  0  0  0  0  0  0  0  0  0  0  0
   -4.6310    2.4580   -1.0300 C   0  0  0  0  0  0  0  0  0  0  0  0
   -3.7230    3.4500   -1.1660 C   0  0  0  0  0  0  0  0  0  0  0  0
   -3.8170    4.8100   -1.6350 C   0  0  0  0  0  0  0  0  0  0  0  0
   -2.2140    2.6000   -0.5650 S   0  0  0  0  0  0  0  0  0  0  0  0
   -0.8800   -0.2230    0.6350 C   0  0  2  0  0  0  0  0  0  0  0  0
   -0.4870    0.7000    1.5980 O   0  0  0  0  0  0  0  0  0  0  0  0
   -0.0290    0.0280   -0.5890 C   0  0  0  0  0  0  0  0  0  0  0  0
    1.3930   -0.0380   -0.2040 C   0  0  0  0  0  0  0  0  0  0  0  0
    1.6960   -0.1830    1.0020 O   0  0  0  0  0  0  0  0  0  0  0  0
    2.4480    0.0550   -1.1260 N   0  0  0  0  0  0  0  0  0  0  0  0
    3.7410   -0.0130   -0.7040 O   0  0  0  0  0  0  0  0  0  0  0  0
    4.2510    0.9670    0.1420 C   0  0  0  0  0  0  0  0  0  0  0  0
    3.5100    1.9010    0.5020 O   0  0  0  0  0  0  0  0  0  0  0  0
    5.6240    0.9300    0.6160 C   0  0  0  0  0  0  0  0  0  0  0  0
    6.5260   -0.0480    0.2840 C   0  0  0  0  0  0  0  0  0  0  0  0
    7.7030    0.2670    0.9240 C   0  0  0  0  0  0  0  0  0  0  0  0
    7.4350    1.4420    1.6180 C   0  0  0  0  0  0  0  0  0  0  0  0
    6.1780    1.8130    1.4110 O   0  0  0  0  0  0  0  0  0  0  0  0
   -0.7300   -1.5940    1.1490 C   0  0  0  0  0  0  0  0  0  0  0  0
    0.2690   -2.2290    1.5900 O   0  0  0  0  0  0  0  0  0  0  0  0
  1  2  2  0
  2  3  1  0
  3  4  1  0
  4  5  1  0
  4 27  1  0
  5  6  2  0
  6  7  1  0
  6 13  1  0
  7  8  2  0
  7 12  1  0
  8  9  1  0
  9 10  2  0
 10 11  1  0
 10 12  1  0
 13 14  1  1
 13 15  1  0
 13 27  1  0
 15 16  1  0
 16 17  2  0
 16 18  1  0
 18 19  1  0
 19 20  1  0
 20 21  2  0
 20 22  1  0
 22 23  2  0
 22 26  1  0
 23 24  1  0
 24 25  2  0
 25 26  1  0
 27 28  2  0
M  END
