
     RDKit          3D

 28 30  0  0  0  0  0  0  0  0999 V2000
    5.9470    0.7330    2.8420 C   0  0  0  0  0  0  0  0  0  0  0  0
    5.2000    0.3680    1.8560 C   0  0  0  0  0  0  0  0  0  0  0  0
    5.3310    0.7480    0.4340 C   0  0  0  0  0  0  0  0  0  0  0  0
    4.0560    0.5820   -0.2480 C   0  0  0  0  0  0  0  0  0  0  0  0
    3.6670    1.4330   -1.2450 N   0  0  0  0  0  0  0  0  0  0  0  0
    2.6570    1.2870   -2.1520 C   0  0  0  0  0  0  0  0  0  0  0  0
    2.3900    2.2710   -2.8880 O   0  0  0  0  0  0  0  0  0  0  0  0
    1.8580    0.1830   -2.3890 C   0  0  0  0  0  0  0  0  0  0  0  0
    1.0950    0.3010   -3.3900 O   0  0  0  0  0  0  0  0  0  0  0  0
    1.7940   -0.9770   -1.6990 N   0  0  0  0  0  0  0  0  0  0  0  0
    1.0420   -2.0430   -2.3000 C   0  0  0  0  0  0  0  0  0  0  0  0
   -0.4030   -2.0170   -1.8910 C   0  0  0  0  0  0  0  0  0  0  0  0
   -1.1060   -2.9190   -2.3820 O   0  0  0  0  0  0  0  0  0  0  0  0
   -0.8920   -1.0340   -1.0200 N   0  0  0  0  0  0  0  0  0  0  0  0
   -2.2130   -0.9440   -0.5980 C   0  0  0  0  0  0  0  0  0  0  0  0
   -3.2450   -1.7720   -0.9430 C   0  0  0  0  0  0  0  0  0  0  0  0
   -4.5420   -1.5970   -0.4630 C   0  0  0  0  0  0  0  0  0  0  0  0
   -4.8520   -0.5680    0.3950 C   0  0  0  0  0  0  0  0  0  0  0  0
   -6.1290   -0.3730    0.8850 O   0  0  0  0  0  0  0  0  0  0  0  0
   -6.4580    0.6720    1.7600 C   0  0  0  0  0  0  0  0  0  0  0  0
   -3.8210    0.2680    0.7470 C   0  0  0  0  0  0  0  0  0  0  0  0
   -2.5380    0.1030    0.2780 C   0  0  0  0  0  0  0  0  0  0  0  0
   -1.5120    0.9790    0.6620 O   0  0  0  0  0  0  0  0  0  0  0  0
   -1.8200    2.0410    1.5440 C   0  0  0  0  0  0  0  0  0  0  0  0
    2.3700   -1.2350   -0.4970 C   0  0  0  0  0  0  0  0  0  0  0  0
    2.0160   -2.2830    0.0660 O   0  0  0  0  0  0  0  0  0  0  0  0
    3.2980   -0.4790    0.1790 C   0  0  0  0  0  0  0  0  0  0  0  0
    3.7790   -0.7080    1.9100 S   0  0  0  0  0  0  0  0  0  0  0  0
  1  2  2  0
  2  3  1  0
  2 28  1  0
  3  4  1  0
  4  5  1  0
  4 27  2  0
  5  6  1  0
  6  7  2  0
  6  8  1  0
  8  9  2  0
  8 10  1  0
 10 11  1  0
 10 25  1  0
 11 12  1  0
 12 13  2  0
 12 14  1  0
 14 15  1  0
 15 16  2  0
 15 22  1  0
 16 17  1  0
 17 18  2  0
 18 19  1  0
 18 21  1  0
 19 20  1  0
 21 22  2  0
 22 23  1  0
 23 24  1  0
 25 26  2  0
 25 27  1  0
 27 28  1  0
M  END
