
     RDKit          3D

 28 30  0  0  0  0  0  0  0  0999 V2000
    9.1100   -0.4550    0.3750 C   0  0  0  0  0  0  0  0  0  0  0  0
    7.6440   -0.3140    0.4060 C   0  0  0  0  0  0  0  0  0  0  0  0
    6.8530   -1.3560   -0.0020 C   0  0  0  0  0  0  0  0  0  0  0  0
    5.4620   -1.2340    0.0230 C   0  0  0  0  0  0  0  0  0  0  0  0
    4.8490   -0.0780    0.4530 C   0  0  0  0  0  0  0  0  0  0  0  0
    3.4640   -0.0360    0.4480 O   0  0  0  0  0  0  0  0  0  0  0  0
    2.6630   -0.4120    1.4940 C   0  0  0  0  0  0  0  0  0  0  0  0
    3.2380   -0.8260    2.5420 O   0  0  0  0  0  0  0  0  0  0  0  0
    1.1880   -0.3260    1.3790 C   0  0  0  0  0  0  0  0  0  0  0  0
    0.8220    0.2000    0.0230 C   0  0  0  0  0  0  0  0  0  0  0  0
   -0.6600    0.3040   -0.1400 C   0  0  0  0  0  0  0  0  0  0  0  0
   -1.4080   -0.0390    0.8170 O   0  0  0  0  0  0  0  0  0  0  0  0
   -1.2490    0.7590   -1.2920 O   0  0  0  0  0  0  0  0  0  0  0  0
   -2.6930    0.8430   -1.4070 C   0  0  0  0  0  0  0  0  0  0  0  0
   -3.2310   -0.5050   -1.2210 C   0  0  0  0  0  0  0  0  0  0  0  0
   -2.3400   -1.4440   -1.2850 O   0  0  0  0  0  0  0  0  0  0  0  0
   -4.5410   -0.9220   -0.9850 N   0  0  0  0  0  0  0  0  0  0  0  0
   -4.7810   -2.3510   -0.8560 C   0  0  0  0  0  0  0  0  0  0  0  0
   -6.2350   -2.7590    0.1050 S   0  0  0  0  0  0  0  0  0  0  0  0
   -6.5940   -1.2460    1.0550 C   0  0  0  0  0  0  0  0  0  0  0  0
   -6.5770   -0.1310    0.1010 C   0  0  0  0  0  0  0  0  0  0  0  0
   -7.4070    0.8900   -0.0460 N   0  0  0  0  0  0  0  0  0  0  0  0
   -7.0370    1.6900   -1.0390 N   0  0  0  0  0  0  0  0  0  0  0  0
   -5.9140    1.1580   -1.5570 C   0  0  0  0  0  0  0  0  0  0  0  0
   -5.2850    1.6430   -2.5090 O   0  0  0  0  0  0  0  0  0  0  0  0
   -5.5940    0.0130   -0.8660 C   0  0  0  0  0  0  0  0  0  0  0  0
    5.6380    0.9630    0.8610 C   0  0  0  0  0  0  0  0  0  0  0  0
    7.0100    0.8500    0.8390 C   0  0  0  0  0  0  0  0  0  0  0  0
  1  2  1  0
  2  3  2  0
  2 28  1  0
  3  4  1  0
  4  5  2  0
  5  6  1  0
  5 27  1  0
  6  7  1  0
  7  8  2  0
  7  9  1  0
  9 10  1  0
 10 11  1  0
 11 12  2  0
 11 13  1  0
 13 14  1  0
 14 15  1  0
 15 16  2  0
 15 17  1  0
 17 18  1  0
 17 26  1  0
 18 19  1  0
 19 20  1  0
 20 21  1  0
 21 22  1  0
 21 26  2  0
 22 23  1  0
 23 24  1  0
 24 25  2  0
 24 26  1  0
 27 28  2  0
M  END
