
     RDKit          3D

 44 47  0  0  0  0  0  0  0  0999 V2000
   -8.3960   -4.6240    0.1400 C   0  0  0  0  0  0  0  0  0  0  0  0
   -8.3630   -3.1490   -0.0980 C   0  0  2  0  0  0  0  0  0  0  0  0
   -7.7190   -2.7810   -1.4140 C   0  0  0  0  0  0  0  0  0  0  0  0
   -6.2530   -3.0880   -1.4580 C   0  0  0  0  0  0  0  0  0  0  0  0
   -5.5800   -2.5230   -0.2250 C   0  0  0  0  0  0  0  0  0  0  0  0
   -6.5450   -1.7500    0.5250 N   0  0  0  0  0  0  0  0  0  0  0  0
   -6.3960   -0.3570    0.7340 C   0  0  0  0  0  0  0  0  0  0  0  0
   -7.3130    0.2700    1.3770 O   0  0  0  0  0  0  0  0  0  0  0  0
   -5.2510    0.4270    0.2540 C   0  0  1  0  0  0  0  0  0  0  0  0
   -5.6340    1.8300    0.3420 O   0  0  0  0  0  0  0  0  0  0  0  0
   -5.5170    2.6230   -0.8090 C   0  0  0  0  0  0  0  0  0  0  0  0
   -5.0910    2.0650   -1.8410 O   0  0  0  0  0  0  0  0  0  0  0  0
   -5.8740    4.0490   -0.8140 C   0  0  0  0  0  0  0  0  0  0  0  0
   -6.3210    4.6310    0.2600 C   0  0  0  0  0  0  0  0  0  0  0  0
   -6.7740    6.2990    0.3610 Cl  0  0  0  0  0  0  0  0  0  0  0  0
   -5.6960    4.8110   -2.0660 C   0  0  0  0  0  0  0  0  0  0  0  0
   -4.3270    4.7160   -2.3910 O   0  0  0  0  0  0  0  0  0  0  0  0
   -4.1170    0.2690    1.2170 C   0  0  0  0  0  0  0  0  0  0  0  0
   -4.0540   -0.7300    2.1260 C   0  0  0  0  0  0  0  0  0  0  0  0
   -2.9540   -0.8010    2.9950 C   0  0  0  0  0  0  0  0  0  0  0  0
   -1.9340    0.1170    2.9580 C   0  0  0  0  0  0  0  0  0  0  0  0
   -0.8190    0.0770    3.8610 C   0  0  0  0  0  0  0  0  0  0  0  0
    0.3950    0.3840    3.4490 C   0  0  0  0  0  0  0  0  0  0  0  0
    0.9870    0.8840    1.8360 S   0  0  0  0  0  0  0  0  0  0  0  0
    2.7100    1.1310    2.3470 C   0  0  0  0  0  0  0  0  0  0  0  0
    3.8120    1.5700    1.4260 C   0  0  0  0  0  0  0  0  0  0  0  0
    4.4480    0.3890    0.7640 C   0  0  0  0  0  0  0  0  0  0  0  0
    5.5330    0.8190   -0.1910 C   0  0  0  0  0  0  0  0  0  0  0  0
    5.5640    1.9950   -0.5600 O   0  0  0  0  0  0  0  0  0  0  0  0
    6.4920   -0.1240   -0.6440 N   0  0  0  0  0  0  0  0  0  0  0  0
    7.5420    0.2270   -1.5750 C   0  0  2  0  0  0  0  0  0  0  0  0
    7.6220   -0.8100   -2.6430 C   0  0  0  0  0  0  0  0  0  0  0  0
    8.9260   -1.5780   -2.6660 C   0  0  0  0  0  0  0  0  0  0  0  0
    9.2320   -1.9220   -1.2180 C   0  0  0  0  0  0  0  0  0  0  0  0
    9.5900   -0.6840   -0.4330 C   0  0  0  0  0  0  0  0  0  0  0  0
    8.8620    0.5310   -0.9160 C   0  0  2  0  0  0  0  0  0  0  0  0
    8.5850    1.4130    0.2750 C   0  0  0  0  0  0  0  0  0  0  0  0
    9.7430    1.3160   -1.8740 C   0  0  0  0  0  0  0  0  0  0  0  0
    2.7490    0.8450    3.5710 N   0  0  0  0  0  0  0  0  0  0  0  0
    1.6220    0.4480    4.2370 C   0  0  0  0  0  0  0  0  0  0  0  0
    1.5950    0.1350    5.4930 O   0  0  0  0  0  0  0  0  0  0  0  0
   -2.0330    1.1180    2.0230 C   0  0  0  0  0  0  0  0  0  0  0  0
   -3.0970    1.2130    1.1560 C   0  0  0  0  0  0  0  0  0  0  0  0
   -7.6950   -2.4490    1.0700 C   0  0  0  0  0  0  0  0  0  0  0  0
  2  1  1  1
  2  3  1  0
  2 44  1  0
  3  4  1  0
  4  5  1  0
  5  6  1  0
  6  7  1  0
  6 44  1  0
  7  8  2  0
  7  9  1  0
  9 10  1  1
  9 18  1  0
 10 11  1  0
 11 12  2  0
 11 13  1  0
 13 14  2  3
 13 16  1  0
 14 15  1  0
 16 17  1  0
 18 19  2  0
 18 43  1  0
 19 20  1  0
 20 21  2  0
 21 22  1  0
 21 42  1  0
 22 23  2  3
 23 24  1  0
 23 40  1  0
 24 25  1  0
 25 26  1  0
 25 39  2  0
 26 27  1  0
 27 28  1  0
 28 29  2  0
 28 30  1  0
 31 30  1  1
 31 32  1  0
 31 36  1  0
 32 33  1  0
 33 34  1  0
 34 35  1  0
 35 36  1  0
 36 37  1  1
 36 38  1  0
 39 40  1  0
 40 41  2  0
 42 43  2  0
M  END
