
     RDKit          3D

 44 48  0  0  0  0  0  0  0  0999 V2000
   -8.2010   -2.1220   -0.4130 C   0  0  0  0  0  0  0  0  0  0  0  0
   -7.0680   -1.4070   -0.8160 O   0  0  0  0  0  0  0  0  0  0  0  0
   -7.0240   -0.0510   -0.6760 C   0  0  0  0  0  0  0  0  0  0  0  0
   -8.1260    0.6690   -0.3260 C   0  0  0  0  0  0  0  0  0  0  0  0
   -8.1190    1.9910   -0.2400 C   0  0  0  0  0  0  0  0  0  0  0  0
   -9.3840    2.7830    0.0670 C   0  0  0  0  0  0  0  0  0  0  0  0
   -6.8900    2.6800   -0.5380 C   0  0  0  0  0  0  0  0  0  0  0  0
   -5.8550    1.9990   -0.8660 C   0  0  0  0  0  0  0  0  0  0  0  0
   -5.8300    0.5120   -0.9640 C   0  0  0  0  0  0  0  0  0  0  0  0
   -4.6210   -0.0230   -1.4870 C   0  0  0  0  0  0  0  0  0  0  0  0
   -3.7910   -0.8780   -0.5690 C   0  0  0  0  0  0  0  0  0  0  0  0
   -4.0440   -1.7310    0.3110 C   0  0  0  0  0  0  0  0  0  0  0  0
   -2.8030   -2.2870    0.8830 C   0  0  0  0  0  0  0  0  0  0  0  0
   -2.8310   -3.3430    1.8220 O   0  0  0  0  0  0  0  0  0  0  0  0
   -3.0190   -2.9430    3.2410 C   0  0  0  0  0  0  0  0  0  0  0  0
   -4.2350   -2.0970    3.5360 C   0  0  0  0  0  0  0  0  0  0  0  0
   -4.0630   -0.4550    2.8790 Cl  0  0  0  0  0  0  0  0  0  0  0  0
   -1.7660   -1.7080    0.3800 C   0  0  0  0  0  0  0  0  0  0  0  0
   -0.3170   -1.9670    0.5340 C   0  0  0  0  0  0  0  0  0  0  0  0
    0.4210   -2.7820    0.7770 O   0  0  0  0  0  0  0  0  0  0  0  0
    0.5180   -0.4550    0.3220 N   0  0  0  0  0  0  0  0  0  0  0  0
    1.5970   -0.8380   -0.4950 C   0  0  0  0  0  0  0  0  0  0  0  0
    1.8410   -1.7180   -1.2070 O   0  0  0  0  0  0  0  0  0  0  0  0
    2.4960    0.3210   -0.2710 N   0  0  0  0  0  0  0  0  0  0  0  0
    3.4660    0.7500   -1.2620 C   0  0  0  0  0  0  0  0  0  0  0  0
    2.9440    1.4790   -2.3280 C   0  0  0  0  0  0  0  0  0  0  0  0
    1.2070    1.3750   -2.6020 Cl  0  0  0  0  0  0  0  0  0  0  0  0
    3.7840    2.2030   -3.1230 C   0  0  0  0  0  0  0  0  0  0  0  0
    5.1020    2.2420   -2.9210 C   0  0  0  0  0  0  0  0  0  0  0  0
    5.6190    1.5190   -1.8620 C   0  0  0  0  0  0  0  0  0  0  0  0
    4.7810    0.7670   -1.0460 C   0  0  0  0  0  0  0  0  0  0  0  0
    5.3410   -0.1990   -0.0760 C   0  0  2  0  0  0  0  0  0  0  0  0
    4.4650   -1.0700    0.4980 O   0  0  0  0  0  0  0  0  0  0  0  0
    6.4260    0.1310    0.7730 C   0  0  2  0  0  0  0  0  0  0  0  0
    6.2970    1.3460    1.6300 C   0  0  0  0  0  0  0  0  0  0  0  0
    5.2180    1.9390    1.7590 O   0  0  0  0  0  0  0  0  0  0  0  0
    7.5010    1.6040    2.1440 N   0  0  0  0  0  0  0  0  0  0  0  0
    8.4870    0.8210    1.3990 C   0  0  0  0  0  0  0  0  0  0  0  0
    9.8640    0.8670    1.5090 C   0  0  0  0  0  0  0  0  0  0  0  0
   10.6320    0.1700    0.5700 C   0  0  0  0  0  0  0  0  0  0  0  0
    9.9880   -0.5730   -0.4300 C   0  0  0  0  0  0  0  0  0  0  0  0
    8.6000   -0.5910   -0.5110 C   0  0  0  0  0  0  0  0  0  0  0  0
    7.8850    0.0980    0.4260 C   0  0  0  0  0  0  0  0  0  0  0  0
   -2.2830   -0.6750   -0.5000 C   0  0  0  0  0  0  0  0  0  0  0  0
  1  2  1  0
  2  3  1  0
  3  4  2  0
  3  9  1  0
  4  5  1  0
  5  6  1  0
  5  7  2  0
  7  8  1  0
  8  9  2  0
  9 10  1  0
 10 11  1  0
 11 12  2  0
 11 44  1  0
 12 13  1  0
 13 14  1  0
 13 18  2  0
 14 15  1  0
 15 16  1  0
 16 17  1  0
 18 19  1  0
 18 44  1  0
 19 20  2  0
 19 21  1  0
 21 22  1  0
 22 23  2  0
 22 24  1  0
 24 25  1  0
 25 26  2  0
 25 31  1  0
 26 27  1  0
 26 28  1  0
 28 29  2  0
 29 30  1  0
 30 31  2  0
 31 32  1  0
 32 33  1  1
 32 34  1  0
 34 35  1  6
 34 43  1  0
 35 36  2  0
 35 37  1  0
 37 38  1  0
 38 39  2  0
 38 43  1  0
 39 40  1  0
 40 41  2  0
 41 42  1  0
 42 43  2  0
M  END
