
     RDKit          3D

 44 47  0  0  0  0  0  0  0  0999 V2000
    7.5580   -3.1120   -2.1790 C   0  0  0  0  0  0  0  0  0  0  0  0
    6.4580   -3.5520   -1.4120 O   0  0  0  0  0  0  0  0  0  0  0  0
    5.7950   -2.6760   -0.5690 C   0  0  0  0  0  0  0  0  0  0  0  0
    6.1690   -1.3700   -0.4290 C   0  0  0  0  0  0  0  0  0  0  0  0
    5.4630   -0.5240    0.4330 C   0  0  0  0  0  0  0  0  0  0  0  0
    5.9790    0.8710    0.4910 C   0  0  0  0  0  0  0  0  0  0  0  0
    6.0080    1.4230   -0.8490 C   0  0  0  0  0  0  0  0  0  0  0  0
    7.0020    1.5040   -1.7850 C   0  0  0  0  0  0  0  0  0  0  0  0
    6.7590    2.0530   -2.9730 C   0  0  0  0  0  0  0  0  0  0  0  0
    5.5150    2.5460   -3.2770 C   0  0  0  0  0  0  0  0  0  0  0  0
    4.8600    3.2980   -4.6820 Cl  0  0  0  0  0  0  0  0  0  0  0  0
    4.6150    2.1890   -1.7190 S   0  0  0  0  0  0  0  0  0  0  0  0
    4.4180   -1.0350    1.1120 C   0  0  0  0  0  0  0  0  0  0  0  0
    4.0010   -2.3590    1.0010 C   0  0  0  0  0  0  0  0  0  0  0  0
    2.8730   -2.9140    1.7510 C   0  0  0  0  0  0  0  0  0  0  0  0
    2.2260   -1.9510    2.6350 N   0  0  0  0  0  0  0  0  0  0  0  0
    1.5090   -0.8330    2.1540 C   0  0  0  0  0  0  0  0  0  0  0  0
    1.4560   -0.8240    0.8610 O   0  0  0  0  0  0  0  0  0  0  0  0
    0.8680    0.2260    2.8960 C   0  0  0  0  0  0  0  0  0  0  0  0
    1.2130    0.5530    4.1800 C   0  0  0  0  0  0  0  0  0  0  0  0
    2.1600   -0.2200    5.0090 C   0  0  0  0  0  0  0  0  0  0  0  0
    0.7000    1.7180    4.7840 C   0  0  0  0  0  0  0  0  0  0  0  0
   -0.1460    2.5320    4.0810 C   0  0  0  0  0  0  0  0  0  0  0  0
   -0.6920    3.7720    4.7330 C   0  0  0  0  0  0  0  0  0  0  0  0
   -0.4780    2.1840    2.7950 C   0  0  0  0  0  0  0  0  0  0  0  0
   -0.0060    1.0540    2.1670 C   0  0  0  0  0  0  0  0  0  0  0  0
   -0.4930    0.6040    0.9220 N   0  0  0  0  0  0  0  0  0  0  0  0
   -1.0680    1.4030   -0.0970 C   0  0  0  0  0  0  0  0  0  0  0  0
   -1.1580    2.6390    0.0600 O   0  0  0  0  0  0  0  0  0  0  0  0
   -1.5810    0.7660   -1.3780 C   0  0  1  0  0  0  0  0  0  0  0  0
   -1.3100   -0.6400   -1.6600 C   0  0  0  0  0  0  0  0  0  0  0  0
   -2.5900   -0.3430   -1.0120 C   0  0  2  0  0  0  0  0  0  0  0  0
   -3.8260   -0.4710   -1.8520 C   0  0  0  0  0  0  0  0  0  0  0  0
   -3.6860   -0.5590   -3.0830 O   0  0  0  0  0  0  0  0  0  0  0  0
   -5.0790   -0.4910   -1.2220 N   0  0  0  0  0  0  0  0  0  0  0  0
   -6.3440   -0.6480   -1.9110 C   0  0  1  0  0  0  0  0  0  0  0  0
   -7.2550   -1.5060   -1.0920 C   0  0  0  0  0  0  0  0  0  0  0  0
   -8.4910   -1.7010   -1.6870 O   0  0  0  0  0  0  0  0  0  0  0  0
   -6.9720    0.6970   -2.2830 C   0  0  1  0  0  0  0  0  0  0  0  0
   -7.2320    1.5500   -1.0650 C   0  0  0  0  0  0  0  0  0  0  0  0
   -6.1120    1.4150   -3.3080 C   0  0  0  0  0  0  0  0  0  0  0  0
   -8.3170    0.4580   -2.9640 C   0  0  0  0  0  0  0  0  0  0  0  0
    4.6930   -3.1810    0.1570 C   0  0  0  0  0  0  0  0  0  0  0  0
    4.4100   -4.5310   -0.0720 O   0  0  0  0  0  0  0  0  0  0  0  0
  1  2  1  0
  2  3  1  0
  3  4  2  0
  3 43  1  0
  4  5  1  0
  5  6  1  0
  5 13  2  0
  6  7  1  0
  7  8  2  0
  7 12  1  0
  8  9  1  0
  9 10  2  0
 10 11  1  0
 10 12  1  0
 13 14  1  0
 14 15  1  0
 14 43  2  0
 15 16  1  0
 16 17  1  0
 17 18  2  0
 17 19  1  0
 19 20  2  0
 19 26  1  0
 20 21  1  0
 20 22  1  0
 22 23  2  0
 23 24  1  0
 23 25  1  0
 25 26  2  0
 26 27  1  0
 27 28  1  0
 28 29  2  0
 30 28  1  1
 30 31  1  0
 30 32  1  0
 31 32  1  0
 32 33  1  6
 33 34  2  0
 33 35  1  0
 35 36  1  0
 36 37  1  1
 36 39  1  0
 37 38  1  0
 39 40  1  1
 39 41  1  0
 39 42  1  0
 43 44  1  0
M  END
