
     RDKit          3D

 29 32  0  0  0  0  0  0  0  0999 V2000
   -6.9540   -0.5200    2.9120 C   0  0  0  0  0  0  0  0  0  0  0  0
   -5.6580   -1.0250    2.7660 O   0  0  0  0  0  0  0  0  0  0  0  0
   -4.7780   -0.6140    1.7750 C   0  0  0  0  0  0  0  0  0  0  0  0
   -5.1630    0.3430    0.8630 C   0  0  0  0  0  0  0  0  0  0  0  0
   -4.2590    0.7180   -0.1010 C   0  0  0  0  0  0  0  0  0  0  0  0
   -2.9800    0.1520   -0.1640 C   0  0  0  0  0  0  0  0  0  0  0  0
   -2.6150   -0.8020    0.7550 C   0  0  0  0  0  0  0  0  0  0  0  0
   -3.5240   -1.1790    1.7240 C   0  0  0  0  0  0  0  0  0  0  0  0
   -1.3260   -1.1600    0.4400 C   0  0  0  0  0  0  0  0  0  0  0  0
   -0.8980   -0.4270   -0.6730 C   0  0  0  0  0  0  0  0  0  0  0  0
    0.4480   -0.5700   -1.2950 C   0  0  0  0  0  0  0  0  0  0  0  0
    0.8890    0.6390   -1.9140 N   0  0  0  0  0  0  0  0  0  0  0  0
    2.4690    0.3010   -2.5930 S   0  0  1  0  0  0  0  0  0  0  0  0
    2.3820   -0.8660   -3.5280 O   0  0  0  0  0  0  0  0  0  0  0  0
    2.9810    1.4840   -3.3630 O   0  0  0  0  0  0  0  0  0  0  0  0
    3.5990   -0.1450   -1.3220 C   0  0  0  0  0  0  0  0  0  0  0  0
    4.7760    0.5250   -1.0070 C   0  0  0  0  0  0  0  0  0  0  0  0
    5.3850   -0.1290    0.0440 C   0  0  0  0  0  0  0  0  0  0  0  0
    6.5300    0.0410    0.7780 C   0  0  0  0  0  0  0  0  0  0  0  0
    6.8760   -0.8100    1.8010 C   0  0  0  0  0  0  0  0  0  0  0  0
    6.0220   -1.8600    2.0730 C   0  0  0  0  0  0  0  0  0  0  0  0
    4.8620   -2.0520    1.3470 C   0  0  0  0  0  0  0  0  0  0  0  0
    4.5250   -1.1980    0.3290 C   0  0  0  0  0  0  0  0  0  0  0  0
    3.5130   -1.1550   -0.4920 O   0  0  0  0  0  0  0  0  0  0  0  0
   -1.9360    0.3520   -1.0010 N   0  0  0  0  0  0  0  0  0  0  0  0
   -1.9550    1.2950   -2.1060 C   0  0  0  0  0  0  0  0  0  0  0  0
   -1.5040    2.6420   -1.6850 C   0  0  0  0  0  0  0  0  0  0  0  0
   -1.1490    2.9380   -0.5210 O   0  0  0  0  0  0  0  0  0  0  0  0
   -1.4760    3.6370   -2.6500 O   0  0  0  0  0  0  0  0  0  0  0  0
  1  2  1  0
  2  3  1  0
  3  4  2  0
  3  8  1  0
  4  5  1  0
  5  6  2  0
  6  7  1  0
  6 25  1  0
  7  8  2  0
  7  9  1  0
  9 10  2  0
 10 11  1  0
 10 25  1  0
 11 12  1  0
 13 12  1  1
 13 14  2  0
 13 15  2  0
 13 16  1  0
 16 17  2  0
 16 24  1  0
 17 18  1  0
 18 19  2  0
 18 23  1  0
 19 20  1  0
 20 21  2  0
 21 22  1  0
 22 23  2  0
 23 24  1  0
 25 26  1  0
 26 27  1  0
 27 28  2  0
 27 29  1  0
M  END
