
     RDKit          3D

 31 32  0  0  0  0  0  0  0  0999 V2000
    6.8050    0.8230    1.2220 C   0  0  0  0  0  0  0  0  0  0  0  0
    5.7960   -0.1230    1.7610 C   0  0  0  0  0  0  0  0  0  0  0  0
    5.9710   -0.7920    2.7970 O   0  0  0  0  0  0  0  0  0  0  0  0
    4.5380   -0.2500    1.0040 C   0  0  0  0  0  0  0  0  0  0  0  0
    4.2940    0.4780   -0.1380 C   0  0  0  0  0  0  0  0  0  0  0  0
    3.1240    0.3530   -0.8490 C   0  0  0  0  0  0  0  0  0  0  0  0
    2.1220   -0.5300   -0.4350 C   0  0  0  0  0  0  0  0  0  0  0  0
    0.9320   -0.6470   -1.2100 N   0  0  0  0  0  0  0  0  0  0  0  0
    0.1870    0.5480   -1.4720 C   0  0  0  0  0  0  0  0  0  0  0  0
   -0.4170    1.2110   -0.2650 C   0  0  1  0  0  0  0  0  0  0  0  0
   -1.3570    2.2810   -0.6130 C   0  0  0  0  0  0  0  0  0  0  0  0
   -1.0740    3.5940   -0.4930 C   0  0  0  0  0  0  0  0  0  0  0  0
    0.2580    4.0200    0.0210 C   0  0  0  0  0  0  0  0  0  0  0  0
   -2.0820    4.6130   -0.8650 C   0  0  0  0  0  0  0  0  0  0  0  0
   -0.8590    0.2920    0.8020 C   0  0  0  0  0  0  0  0  0  0  0  0
   -1.9710   -0.3160    1.0470 C   0  0  0  0  0  0  0  0  0  0  0  0
   -3.2940   -0.4500    0.4920 C   0  0  1  0  0  0  0  0  0  0  0  0
   -4.2980    0.5330    1.1600 C   0  0  0  0  0  0  0  0  0  0  0  0
   -3.5760   -0.3900   -0.9450 C   0  0  0  0  0  0  0  0  0  0  0  0
   -3.8600   -1.7260    0.9380 O   0  0  0  0  0  0  0  0  0  0  0  0
   -3.3230   -2.9390    0.6350 C   0  0  0  0  0  0  0  0  0  0  0  0
   -4.1460   -3.9200    0.7310 O   0  0  0  0  0  0  0  0  0  0  0  0
   -1.9050   -3.1990    0.2150 C   0  0  1  0  0  0  0  0  0  0  0  0
   -1.7240   -4.7310    0.1800 C   0  0  0  0  0  0  0  0  0  0  0  0
   -1.7290   -2.6070   -1.0160 O   0  0  0  0  0  0  0  0  0  0  0  0
   -0.6900   -2.5320   -1.8840 C   0  0  0  0  0  0  0  0  0  0  0  0
   -0.8530   -3.0270   -3.0780 O   0  0  0  0  0  0  0  0  0  0  0  0
    0.6230   -1.9580   -1.6670 C   0  0  0  0  0  0  0  0  0  0  0  0
    1.6170   -2.7440   -1.9240 O   0  0  0  0  0  0  0  0  0  0  0  0
    2.3830   -1.2470    0.7060 C   0  0  0  0  0  0  0  0  0  0  0  0
    3.5550   -1.1220    1.4190 C   0  0  0  0  0  0  0  0  0  0  0  0
  1  2  1  0
  2  3  2  0
  2  4  1  0
  4  5  2  0
  4 31  1  0
  5  6  1  0
  6  7  2  0
  7  8  1  0
  7 30  1  0
  8  9  1  0
  8 28  1  0
  9 10  1  0
 10 11  1  6
 10 15  1  0
 11 12  2  3
 12 13  1  0
 12 14  1  0
 15 16  2  0
 16 17  1  0
 17 18  1  1
 17 19  1  0
 17 20  1  0
 20 21  1  0
 21 22  2  0
 21 23  1  0
 23 24  1  6
 23 25  1  0
 25 26  1  0
 26 27  2  0
 26 28  1  0
 28 29  2  0
 30 31  2  0
M  END
