
     RDKit          3D

 31 32  0  0  0  0  0  0  0  0999 V2000
   -0.2860    4.6840    3.2540 C   0  0  0  0  0  0  0  0  0  0  0  0
   -0.6050    3.7730    2.3700 C   0  0  0  0  0  0  0  0  0  0  0  0
   -0.4350    4.0280    1.0820 O   0  0  0  0  0  0  0  0  0  0  0  0
   -0.7830    3.0580    0.3200 C   0  0  0  0  0  0  0  0  0  0  0  0
   -1.2350    2.0240    1.1160 C   0  0  0  0  0  0  0  0  0  0  0  0
   -1.1160    2.5090    2.4420 C   0  0  0  0  0  0  0  0  0  0  0  0
   -1.4680    1.8810    3.5200 C   0  0  0  0  0  0  0  0  0  0  0  0
   -1.3870    2.3950    4.8820 C   0  0  0  0  0  0  0  0  0  0  0  0
   -1.6910    0.7450    0.5580 C   0  0  0  0  0  0  0  0  0  0  0  0
   -1.2840   -0.5400    1.1360 C   0  0  1  0  0  0  0  0  0  0  0  0
   -1.5410   -1.5520    0.1030 O   0  0  0  0  0  0  0  0  0  0  0  0
   -2.5150   -2.5080    0.2400 C   0  0  0  0  0  0  0  0  0  0  0  0
   -3.2090   -2.5170    1.2870 O   0  0  0  0  0  0  0  0  0  0  0  0
   -2.7890   -3.5430   -0.8010 C   0  0  1  0  0  0  0  0  0  0  0  0
   -3.1210   -2.8090   -2.0820 C   0  0  0  0  0  0  0  0  0  0  0  0
   -1.6380   -4.4910   -1.0020 C   0  0  0  0  0  0  0  0  0  0  0  0
   -3.9890   -4.3600   -0.4090 C   0  0  0  0  0  0  0  0  0  0  0  0
    0.0740   -0.7290    1.6540 C   0  0  0  0  0  0  0  0  0  0  0  0
    0.2060   -0.7130    2.9400 O   0  0  0  0  0  0  0  0  0  0  0  0
    1.2690   -0.9300    0.9740 N   0  0  0  0  0  0  0  0  0  0  0  0
    1.8200   -0.2140   -0.1560 C   0  0  2  0  0  0  0  0  0  0  0  0
    2.8740   -1.0150   -0.8260 C   0  0  0  0  0  0  0  0  0  0  0  0
    3.1540   -2.1430   -0.3300 O   0  0  0  0  0  0  0  0  0  0  0  0
    3.5680   -0.6300   -1.9400 O   0  0  0  0  0  0  0  0  0  0  0  0
    4.5620   -1.3720   -2.5830 C   0  0  0  0  0  0  0  0  0  0  0  0
    4.1020   -2.7130   -3.0770 C   0  0  0  0  0  0  0  0  0  0  0  0
    2.5330    1.0610    0.3200 C   0  0  0  0  0  0  0  0  0  0  0  0
    2.7600    1.9490   -0.8700 C   0  0  0  0  0  0  0  0  0  0  0  0
    1.8040    3.1280   -0.8830 C   0  0  0  0  0  0  0  0  0  0  0  0
    0.6260    2.9310   -1.7420 C   0  0  0  0  0  0  0  0  0  0  0  0
   -0.7230    3.0360   -1.1750 C   0  0  0  0  0  0  0  0  0  0  0  0
  1  2  2  0
  2  3  1  0
  2  6  1  0
  3  4  1  0
  4  5  2  0
  4 31  1  0
  5  6  1  0
  5  9  1  0
  6  7  2  3
  7  8  1  0
  9 10  1  0
 10 11  1  6
 10 18  1  0
 11 12  1  0
 12 13  2  0
 12 14  1  0
 14 15  1  6
 14 16  1  0
 14 17  1  0
 18 19  2  0
 18 20  1  0
 20 21  1  0
 21 22  1  1
 21 27  1  0
 22 23  2  0
 22 24  1  0
 24 25  1  0
 25 26  1  0
 27 28  1  0
 28 29  1  0
 29 30  1  0
 30 31  1  0
M  END
