
     RDKit          3D

 29 31  0  0  0  0  0  0  0  0999 V2000
   -3.5310    2.7230    2.6330 C   0  0  0  0  0  0  0  0  0  0  0  0
   -2.3500    1.9580    1.5210 S   0  0  0  0  0  0  0  0  0  0  0  0
   -3.0910    0.7720    0.4320 C   0  0  0  0  0  0  0  0  0  0  0  0
   -4.3920    0.5390    0.5140 C   0  0  0  0  0  0  0  0  0  0  0  0
   -5.1330   -0.4360   -0.3480 C   0  0  0  0  0  0  0  0  0  0  0  0
   -4.2900   -1.6220   -0.6080 C   0  0  0  0  0  0  0  0  0  0  0  0
   -4.7370   -2.7350   -0.8850 O   0  0  0  0  0  0  0  0  0  0  0  0
   -2.8280   -1.3970   -0.5140 C   0  0  0  0  0  0  0  0  0  0  0  0
   -2.0440   -2.4320   -0.3560 C   0  0  0  0  0  0  0  0  0  0  0  0
   -2.6240   -3.7630   -0.2780 N   0  0  0  0  0  0  0  0  0  0  0  0
   -0.7030   -2.2480   -0.2640 O   0  0  0  0  0  0  0  0  0  0  0  0
   -0.1200   -0.9350   -0.3370 C   0  0  0  0  0  0  0  0  0  0  0  0
    1.3360   -1.0300   -0.2070 C   0  0  0  0  0  0  0  0  0  0  0  0
    1.8010   -2.2230   -0.0830 O   0  0  0  0  0  0  0  0  0  0  0  0
    2.2800   -0.0310   -0.1970 N   0  0  0  0  0  0  0  0  0  0  0  0
    3.6860    0.0120   -0.0790 C   0  0  0  0  0  0  0  0  0  0  0  0
    4.3610    1.7680   -0.1380 S   0  0  1  0  0  0  0  0  0  0  0  0
    2.9540    2.8620   -0.3040 C   0  0  0  0  0  0  0  0  0  0  0  0
    4.6390   -0.8580    0.0670 C   0  0  0  0  0  0  0  0  0  0  0  0
    6.0360   -0.2650    0.1390 C   0  0  0  0  0  0  0  0  0  0  0  0
    6.9960   -1.0590    0.2810 O   0  0  0  0  0  0  0  0  0  0  0  0
    6.2960    1.0660    0.0600 O   0  0  0  0  0  0  0  0  0  0  0  0
    4.6100   -2.3170    0.1790 C   0  0  2  0  0  0  0  0  0  0  0  0
    4.2480   -2.8990   -1.0070 F   0  0  0  0  0  0  0  0  0  0  0  0
    3.9610   -2.8290    1.2520 F   0  0  0  0  0  0  0  0  0  0  0  0
    5.9910   -2.7720    0.3320 F   0  0  0  0  0  0  0  0  0  0  0  0
   -0.8780    0.0840   -0.4920 C   0  0  0  0  0  0  0  0  0  0  0  0
   -0.3180    1.4760   -0.5790 C   0  0  0  0  0  0  0  0  0  0  0  0
   -2.3460   -0.0170   -0.5980 C   0  0  2  0  0  0  0  0  0  0  0  0
  1  2  1  0
  2  3  1  0
  3  4  2  0
 29  3  1  1
  4  5  1  0
  5  6  1  0
  6  7  2  0
  6  8  1  0
  8  9  2  0
  8 29  1  0
  9 10  1  0
  9 11  1  0
 11 12  1  0
 12 13  1  0
 12 27  2  0
 13 14  2  0
 13 15  1  0
 15 16  1  0
 16 17  1  0
 16 19  2  0
 17 18  1  0
 19 20  1  0
 19 23  1  0
 20 21  2  0
 20 22  1  0
 23 24  1  6
 23 25  1  0
 23 26  1  0
 27 28  1  0
 27 29  1  0
 22 17  1  0
M  END
