
     RDKit          3D

 39 42  0  0  0  0  0  0  0  0999 V2000
  -12.5490    0.0070    0.2310 C   0  0  0  0  0  0  0  0  0  0  0  0
  -11.0800   -0.0290    0.5560 C   0  0  0  0  0  0  0  0  0  0  0  0
  -10.7050   -0.8120    1.4650 O   0  0  0  0  0  0  0  0  0  0  0  0
  -10.2240    0.8130   -0.1830 N   0  0  0  0  0  0  0  0  0  0  0  0
   -8.8600    0.8300    0.0450 N   0  0  0  0  0  0  0  0  0  0  0  0
   -7.8940    1.0610   -0.9570 C   0  0  0  0  0  0  0  0  0  0  0  0
   -8.3370    1.2700   -2.1260 O   0  0  0  0  0  0  0  0  0  0  0  0
   -6.4430    1.0720   -0.7340 C   0  0  0  0  0  0  0  0  0  0  0  0
   -5.7250    2.2370   -0.5960 C   0  0  0  0  0  0  0  0  0  0  0  0
   -4.3600    2.2490   -0.3990 C   0  0  0  0  0  0  0  0  0  0  0  0
   -3.6350    1.0630   -0.3300 C   0  0  0  0  0  0  0  0  0  0  0  0
   -4.3360   -0.0990   -0.4640 C   0  0  0  0  0  0  0  0  0  0  0  0
   -5.7290   -0.0980   -0.6650 C   0  0  0  0  0  0  0  0  0  0  0  0
   -3.6630   -1.3500   -0.4080 N   0  0  0  0  0  0  0  0  0  0  0  0
   -2.2290   -1.3590   -0.6210 C   0  0  1  0  0  0  0  0  0  0  0  0
   -1.9680   -1.1700   -2.0960 C   0  0  0  0  0  0  0  0  0  0  0  0
   -1.5850   -0.2530    0.2220 C   0  0  1  0  0  0  0  0  0  0  0  0
   -0.1290   -0.3170    0.1070 C   0  0  0  0  0  0  0  0  0  0  0  0
    0.7030    0.7460   -0.1770 C   0  0  0  0  0  0  0  0  0  0  0  0
    2.0660    0.5960   -0.2860 C   0  0  0  0  0  0  0  0  0  0  0  0
    2.6940   -0.6070   -0.1230 C   0  0  0  0  0  0  0  0  0  0  0  0
    4.1330   -0.8200   -0.1900 C   0  0  0  0  0  0  0  0  0  0  0  0
    4.5870   -2.0400   -0.7140 C   0  0  0  0  0  0  0  0  0  0  0  0
    5.9250   -2.3630   -0.7610 C   0  0  0  0  0  0  0  0  0  0  0  0
    6.8300   -1.4610   -0.2810 N   0  0  0  0  0  0  0  0  0  0  0  0
    6.4510   -0.2780    0.2320 C   0  0  0  0  0  0  0  0  0  0  0  0
    7.4010    0.6520    0.7820 C   0  0  0  0  0  0  0  0  0  0  0  0
    6.9980    1.7540    1.2760 O   0  0  0  0  0  0  0  0  0  0  0  0
    8.7970    0.4460    0.8280 N   0  0  0  0  0  0  0  0  0  0  0  0
    9.7130    1.3470    1.3800 N   0  0  0  0  0  0  0  0  0  0  0  0
   10.9850    0.6350    1.5230 C   0  0  0  0  0  0  0  0  0  0  0  0
   12.0470    1.5100    2.1450 C   0  0  2  0  0  0  0  0  0  0  0  0
   12.2730    2.6180    1.3760 F   0  0  0  0  0  0  0  0  0  0  0  0
   13.2330    0.8360    2.3040 F   0  0  0  0  0  0  0  0  0  0  0  0
   11.6160    1.8480    3.4140 F   0  0  0  0  0  0  0  0  0  0  0  0
    5.0870    0.0450    0.2760 C   0  0  0  0  0  0  0  0  0  0  0  0
    1.8650   -1.6970    0.1660 C   0  0  0  0  0  0  0  0  0  0  0  0
    0.5090   -1.5420    0.2750 C   0  0  0  0  0  0  0  0  0  0  0  0
   -2.1690    1.0720   -0.1260 C   0  0  0  0  0  0  0  0  0  0  0  0
  1  2  1  0
  2  3  2  0
  2  4  1  0
  4  5  1  0
  5  6  1  0
  6  7  2  0
  6  8  1  0
  8  9  2  0
  8 13  1  0
  9 10  1  0
 10 11  2  0
 11 12  1  0
 11 39  1  0
 12 13  2  0
 12 14  1  0
 14 15  1  0
 15 16  1  6
 15 17  1  0
 17 18  1  6
 17 39  1  0
 18 19  2  0
 18 38  1  0
 19 20  1  0
 20 21  2  0
 21 22  1  0
 21 37  1  0
 22 23  2  0
 22 36  1  0
 23 24  1  0
 24 25  2  0
 25 26  1  0
 26 27  1  0
 26 36  2  0
 27 28  2  0
 27 29  1  0
 29 30  1  0
 30 31  1  0
 31 32  1  0
 32 33  1  6
 32 34  1  0
 32 35  1  0
 37 38  2  0
M  CHG  1  25   1
M  END
