
     RDKit          3D

 39 42  0  0  0  0  0  0  0  0999 V2000
    9.8530    1.2420    0.3330 C   0  0  0  0  0  0  0  0  0  0  0  0
    9.2660    0.0100    0.3080 N   0  0  0  0  0  0  0  0  0  0  0  0
    8.5680   -0.7660    1.2290 C   0  0  0  0  0  0  0  0  0  0  0  0
    7.1100   -0.5320    0.8850 C   0  0  0  0  0  0  0  0  0  0  0  0
    6.6710    0.8180    0.9640 C   0  0  0  0  0  0  0  0  0  0  0  0
    5.3390    1.0470    0.7640 C   0  0  0  0  0  0  0  0  0  0  0  0
    4.9040    2.4130    0.9980 N   0  0  0  0  0  0  0  0  0  0  0  0
    4.3950    0.0950    0.4790 C   0  0  0  0  0  0  0  0  0  0  0  0
    3.1210    0.5530   -0.0630 C   0  0  0  0  0  0  0  0  0  0  0  0
    3.0250    1.7330   -0.4690 O   0  0  0  0  0  0  0  0  0  0  0  0
    1.9500   -0.2420   -0.1970 N   0  0  0  0  0  0  0  0  0  0  0  0
    1.6920   -1.5100    0.3810 C   0  0  0  0  0  0  0  0  0  0  0  0
    0.2480   -1.6310    0.8860 C   0  0  0  0  0  0  0  0  0  0  0  0
   -0.7500   -0.6170    0.5610 C   0  0  2  0  0  0  0  0  0  0  0  0
   -1.8250   -1.1460   -0.2580 N   0  0  0  0  0  0  0  0  0  0  0  0
   -3.1060   -0.5130    0.0010 C   0  0  0  0  0  0  0  0  0  0  0  0
   -4.0530   -0.6670   -1.0470 C   0  0  0  0  0  0  0  0  0  0  0  0
   -3.9170   -1.1720   -2.1880 O   0  0  0  0  0  0  0  0  0  0  0  0
   -5.4260   -0.1570   -0.8740 N   0  0  0  0  0  0  0  0  0  0  0  0
   -6.2590    0.1460   -1.9510 C   0  0  0  0  0  0  0  0  0  0  0  0
   -5.8150    0.3810   -3.2490 C   0  0  0  0  0  0  0  0  0  0  0  0
   -6.7000    0.7130   -4.2400 C   0  0  0  0  0  0  0  0  0  0  0  0
   -6.2580    0.9710   -5.5270 F   0  0  0  0  0  0  0  0  0  0  0  0
   -8.0340    0.8010   -3.9740 C   0  0  0  0  0  0  0  0  0  0  0  0
   -8.4920    0.5620   -2.6840 C   0  0  0  0  0  0  0  0  0  0  0  0
   -9.8370    0.6440   -2.3910 F   0  0  0  0  0  0  0  0  0  0  0  0
   -7.6430    0.2490   -1.7260 C   0  0  0  0  0  0  0  0  0  0  0  0
   -5.9270   -0.1650    0.4470 C   0  0  0  0  0  0  0  0  0  0  0  0
   -5.6450    0.7260    1.4240 C   0  0  0  0  0  0  0  0  0  0  0  0
   -6.0820    0.5950    2.6940 C   0  0  0  0  0  0  0  0  0  0  0  0
   -5.7990    1.5210    3.6730 F   0  0  0  0  0  0  0  0  0  0  0  0
   -6.8620   -0.4740    3.1020 C   0  0  0  0  0  0  0  0  0  0  0  0
   -7.1260   -1.3640    2.0610 C   0  0  0  0  0  0  0  0  0  0  0  0
   -6.7200   -1.2590    0.8220 N   0  0  0  0  0  0  0  0  0  0  0  0
   -0.1970    0.6420   -0.0510 C   0  0  0  0  0  0  0  0  0  0  0  0
    0.8900    0.2730   -1.0620 C   0  0  0  0  0  0  0  0  0  0  0  0
    4.8210   -1.2130    0.4140 C   0  0  0  0  0  0  0  0  0  0  0  0
    6.2000   -1.5100    0.6250 C   0  0  0  0  0  0  0  0  0  0  0  0
    6.6340   -2.8140    0.5640 O   0  0  0  0  0  0  0  0  0  0  0  0
  1  2  1  0
  2  3  1  0
  3  4  1  0
  4  5  2  0
  4 38  1  0
  5  6  1  0
  6  7  1  0
  6  8  2  0
  8  9  1  0
  8 37  1  0
  9 10  2  0
  9 11  1  0
 11 12  1  0
 11 36  1  0
 12 13  1  0
 13 14  1  0
 14 15  1  6
 14 35  1  0
 15 16  1  0
 16 17  1  0
 17 18  2  0
 17 19  1  0
 19 20  1  0
 19 28  1  0
 20 21  2  0
 20 27  1  0
 21 22  1  0
 22 23  1  0
 22 24  2  0
 24 25  1  0
 25 26  1  0
 25 27  2  0
 28 29  2  0
 28 34  1  0
 29 30  1  0
 30 31  1  0
 30 32  2  0
 32 33  1  0
 33 34  2  0
 35 36  1  0
 37 38  2  0
 38 39  1  0
M  CHG  1  15   1
M  END
