
     RDKit          3D

 39 42  0  0  0  0  0  0  0  0999 V2000
   -4.1690    0.4590   -0.9090 C   0  0  0  0  0  0  0  0  0  0  0  0
   -3.5410   -0.6890   -0.2050 C   0  0  0  0  0  0  0  0  0  0  0  0
   -2.6280   -1.4850   -0.8740 C   0  0  0  0  0  0  0  0  0  0  0  0
   -2.0030   -2.5680   -0.2950 C   0  0  0  0  0  0  0  0  0  0  0  0
   -1.0280   -3.4210   -1.0120 C   0  0  1  0  0  0  0  0  0  0  0  0
   -1.7380   -4.3290   -2.0240 C   0  0  0  0  0  0  0  0  0  0  0  0
   -1.6520   -3.5250   -3.3010 C   0  0  0  0  0  0  0  0  0  0  0  0
   -0.4690   -2.5990   -3.1480 C   0  0  0  0  0  0  0  0  0  0  0  0
   -0.0530   -2.6860   -1.7700 N   0  0  0  0  0  0  0  0  0  0  0  0
    1.1330   -2.1330   -1.2270 C   0  0  0  0  0  0  0  0  0  0  0  0
    1.4280   -2.2590   -0.0010 O   0  0  0  0  0  0  0  0  0  0  0  0
    2.0230   -1.3940   -2.1580 C   0  0  0  0  0  0  0  0  0  0  0  0
    3.2080   -0.8840   -1.4520 N   0  0  0  0  0  0  0  0  0  0  0  0
    4.3150   -1.7100   -1.4090 C   0  0  0  0  0  0  0  0  0  0  0  0
    5.5750   -1.4960   -0.8150 N   0  0  0  0  0  0  0  0  0  0  0  0
    4.2250   -2.8660   -1.9910 O   0  0  0  0  0  0  0  0  0  0  0  0
    3.1490    0.4050   -0.8610 C   0  0  0  0  0  0  0  0  0  0  0  0
    2.0370    1.0630   -0.9810 O   0  0  0  0  0  0  0  0  0  0  0  0
    4.1620    1.0610   -0.1530 N   0  0  0  0  0  0  0  0  0  0  0  0
    4.1460    2.3350    0.4490 C   0  0  0  0  0  0  0  0  0  0  0  0
    3.0880    3.1870    0.4540 C   0  0  0  0  0  0  0  0  0  0  0  0
    3.1330    4.4500    1.0760 C   0  0  0  0  0  0  0  0  0  0  0  0
    2.0250    5.2280    1.0280 F   0  0  0  0  0  0  0  0  0  0  0  0
    4.2640    4.8680    1.7060 C   0  0  0  0  0  0  0  0  0  0  0  0
    5.3510    4.0340    1.7210 C   0  0  0  0  0  0  0  0  0  0  0  0
    6.4900    4.4490    2.3520 F   0  0  0  0  0  0  0  0  0  0  0  0
    5.2940    2.8030    1.1090 C   0  0  0  0  0  0  0  0  0  0  0  0
    6.4260    1.9600    1.1360 N   0  0  0  0  0  0  0  0  0  0  0  0
   -2.3450   -2.8270    1.0300 C   0  0  0  0  0  0  0  0  0  0  0  0
   -3.2470   -2.0500    1.7120 C   0  0  0  0  0  0  0  0  0  0  0  0
   -3.8570   -0.9660    1.0930 C   0  0  0  0  0  0  0  0  0  0  0  0
   -4.8230   -0.1750    1.8890 C   0  0  0  0  0  0  0  0  0  0  0  0
   -4.2820    1.1270    2.3560 C   0  0  0  0  0  0  0  0  0  0  0  0
   -4.6680    2.3230    1.7730 C   0  0  0  0  0  0  0  0  0  0  0  0
   -4.1580    3.5280    2.2270 C   0  0  0  0  0  0  0  0  0  0  0  0
   -3.2760    3.6030    3.2390 N   0  0  0  0  0  0  0  0  0  0  0  0
   -2.9010    2.4430    3.8040 C   0  0  0  0  0  0  0  0  0  0  0  0
   -3.3730    1.2130    3.3980 C   0  0  0  0  0  0  0  0  0  0  0  0
   -2.9620    0.0580    4.0040 F   0  0  0  0  0  0  0  0  0  0  0  0
  1  2  1  0
  2  3  2  0
  2 31  1  0
  3  4  1  0
  5  4  1  6
  4 29  2  0
  5  6  1  0
  5  9  1  0
  6  7  1  0
  7  8  1  0
  8  9  1  0
  9 10  1  0
 10 11  2  0
 10 12  1  0
 12 13  1  0
 13 14  1  0
 13 17  1  0
 14 15  1  0
 14 16  2  0
 17 18  2  0
 17 19  1  0
 19 20  1  0
 20 21  2  0
 20 27  1  0
 21 22  1  0
 22 23  1  0
 22 24  2  0
 24 25  1  0
 25 26  1  0
 25 27  2  0
 27 28  1  0
 29 30  1  0
 30 31  2  0
 31 32  1  0
 32 33  1  0
 33 34  2  0
 33 38  1  0
 34 35  1  0
 35 36  2  0
 36 37  1  0
 37 38  2  0
 38 39  1  0
M  CHG  1  36   1
M  END
