
     RDKit          3D

 31 34  0  0  0  0  0  0  0  0999 V2000
   -4.1350    3.4940   -0.8560 C   0  0  0  0  0  0  0  0  0  0  0  0
   -4.8560    2.2980   -0.3870 C   0  0  0  0  0  0  0  0  0  0  0  0
   -6.1790    2.2670   -0.1720 C   0  0  0  0  0  0  0  0  0  0  0  0
   -6.5790    0.9720    0.2730 C   0  0  0  0  0  0  0  0  0  0  0  0
   -5.5040    0.2200    0.3270 C   0  0  0  0  0  0  0  0  0  0  0  0
   -4.2860    1.0070   -0.0960 C   0  0  0  0  0  0  0  0  0  0  0  0
   -3.1020    0.4870   -0.0290 C   0  0  0  0  0  0  0  0  0  0  0  0
   -1.7720    0.7480   -0.1550 N   0  0  0  0  0  0  0  0  0  0  0  0
   -0.8650    1.7570   -0.4390 C   0  0  0  0  0  0  0  0  0  0  0  0
   -1.3130    2.8870   -0.6910 O   0  0  0  0  0  0  0  0  0  0  0  0
    0.6350    1.6150   -0.4720 C   0  0  0  0  0  0  0  0  0  0  0  0
    1.1870    0.3690   -0.1880 N   0  0  0  0  0  0  0  0  0  0  0  0
    2.6400    0.2810   -0.2250 C   0  0  0  0  0  0  0  0  0  0  0  0
    3.3150    1.2980   -0.5040 O   0  0  0  0  0  0  0  0  0  0  0  0
    3.3190   -0.9970    0.0640 C   0  0  0  0  0  0  0  0  0  0  0  0
    4.7580   -0.7620   -0.0300 N   0  0  0  0  0  0  0  0  0  0  0  0
    5.4740   -0.3700    1.0440 C   0  0  0  0  0  0  0  0  0  0  0  0
    6.8180   -0.1630    0.8970 C   0  0  0  0  0  0  0  0  0  0  0  0
    7.8350    0.2180    1.7030 N   0  0  0  0  0  0  0  0  0  0  0  0
    8.9900    0.2510    0.9830 C   0  0  0  0  0  0  0  0  0  0  0  0
    8.7230   -0.1050   -0.2820 N   0  0  0  0  0  0  0  0  0  0  0  0
    7.4000   -0.3810   -0.4300 C   0  0  0  0  0  0  0  0  0  0  0  0
    6.6260   -0.7680   -1.4440 N   0  0  0  0  0  0  0  0  0  0  0  0
    5.3070   -0.9590   -1.2460 C   0  0  0  0  0  0  0  0  0  0  0  0
    4.5920   -1.3280   -2.2270 O   0  0  0  0  0  0  0  0  0  0  0  0
   -3.2270   -1.0540    0.1520 C   0  0  0  0  0  0  0  0  0  0  0  0
   -3.9870   -1.7820   -0.6960 C   0  0  0  0  0  0  0  0  0  0  0  0
   -4.0610   -3.1490   -0.4570 C   0  0  0  0  0  0  0  0  0  0  0  0
   -3.4190   -3.7520    0.5600 N   0  0  0  0  0  0  0  0  0  0  0  0
   -2.6730   -3.0070    1.3840 C   0  0  0  0  0  0  0  0  0  0  0  0
   -2.5630   -1.6320    1.1930 C   0  0  0  0  0  0  0  0  0  0  0  0
  1  2  1  0
  2  3  2  0
  2  6  1  0
  3  4  1  0
  4  5  2  0
  5  6  1  0
  6  7  2  3
  7  8  1  0
  7 26  1  0
  8  9  1  0
  9 10  2  0
  9 11  1  0
 11 12  1  0
 12 13  1  0
 13 14  2  0
 13 15  1  0
 15 16  1  0
 16 17  1  0
 16 24  1  0
 17 18  2  0
 18 19  1  0
 18 22  1  0
 19 20  2  0
 20 21  1  0
 21 22  2  0
 22 23  1  0
 23 24  1  0
 24 25  2  0
 26 27  2  0
 26 31  1  0
 27 28  1  0
 28 29  2  0
 29 30  1  0
 30 31  2  0
M  CHG  1  29   1
M  END
