
     RDKit          3D

 29 32  0  0  0  0  0  0  0  0999 V2000
    3.3970    4.7140    1.2880 C   0  0  0  0  0  0  0  0  0  0  0  0
    3.1450    3.2960    0.9290 C   0  0  0  0  0  0  0  0  0  0  0  0
    4.2220    2.4950    0.6900 C   0  0  0  0  0  0  0  0  0  0  0  0
    4.0050    1.1890    0.3620 C   0  0  0  0  0  0  0  0  0  0  0  0
    2.7260    0.5610    0.2430 C   0  0  0  0  0  0  0  0  0  0  0  0
    1.6540    1.3910    0.4850 C   0  0  0  0  0  0  0  0  0  0  0  0
    1.8950    2.7510    0.8270 C   0  0  0  0  0  0  0  0  0  0  0  0
    0.2650    1.1280    0.3610 N   0  0  0  0  0  0  0  0  0  0  0  0
   -0.3290   -0.0900    0.6470 C   0  0  0  0  0  0  0  0  0  0  0  0
   -1.6620   -0.4500    0.2700 C   0  0  0  0  0  0  0  0  0  0  0  0
   -2.5810    0.4410   -0.0900 N   0  0  0  0  0  0  0  0  0  0  0  0
   -3.8480    0.0450   -0.4360 C   0  0  0  0  0  0  0  0  0  0  0  0
   -4.9380    0.7810   -0.8330 C   0  0  0  0  0  0  0  0  0  0  0  0
   -5.9590   -0.0960   -1.0600 C   0  0  0  0  0  0  0  0  0  0  0  0
   -7.3210    0.3000   -1.5070 C   0  0  0  0  0  0  0  0  0  0  0  0
   -5.4750   -1.3230   -0.8000 N   0  0  0  0  0  0  0  0  0  0  0  0
   -4.1990   -1.2440   -0.4220 N   0  0  0  0  0  0  0  0  0  0  0  0
   -3.2800   -2.1560   -0.0610 C   0  0  0  0  0  0  0  0  0  0  0  0
   -3.6310   -3.3650   -0.0550 O   0  0  0  0  0  0  0  0  0  0  0  0
   -1.9780   -1.7940    0.2990 C   0  0  0  0  0  0  0  0  0  0  0  0
   -0.9790   -2.7710    0.6840 C   0  0  0  0  0  0  0  0  0  0  0  0
   -0.3910   -2.6670    1.9870 N   0  0  0  0  0  0  0  0  0  0  0  0
    0.8920   -2.4110    2.4630 C   0  0  0  0  0  0  0  0  0  0  0  0
    0.9440   -2.1680    3.7450 O   0  0  0  0  0  0  0  0  0  0  0  0
    2.1390   -2.3680    1.7990 N   0  0  0  0  0  0  0  0  0  0  0  0
    2.5970   -1.9870    0.5340 C   0  0  0  0  0  0  0  0  0  0  0  0
    2.8390   -0.8630   -0.1050 C   0  0  0  0  0  0  0  0  0  0  0  0
    3.4870   -1.0910   -1.4860 C   0  0  0  0  0  0  0  0  0  0  0  0
    2.7020   -0.6290   -2.5690 N   0  0  0  0  0  0  0  0  0  0  0  0
  1  2  1  0
  2  3  2  0
  2  7  1  0
  3  4  1  0
  4  5  2  0
  5  6  1  0
  5 27  1  0
  6  7  2  0
  6  8  1  0
  8  9  1  0
  9 10  1  0
 10 11  1  0
 10 20  2  0
 11 12  1  0
 12 13  2  0
 12 17  1  0
 13 14  1  0
 14 15  1  0
 14 16  2  0
 16 17  1  0
 17 18  1  0
 18 19  2  0
 18 20  1  0
 20 21  1  0
 21 22  1  0
 22 23  1  0
 23 24  2  0
 23 25  1  0
 25 26  1  0
 26 27  2  0
 27 28  1  0
 28 29  1  0
M  CHG  1  29   1
M  END
