
     RDKit          3D

 29 32  0  0  0  0  0  0  0  0999 V2000
   -3.0650   -2.5700    2.4710 C   0  0  0  0  0  0  0  0  0  0  0  0
   -2.0870   -2.0460    1.4390 C   0  0  0  0  0  0  0  0  0  0  0  0
   -1.6260   -0.7000    1.9220 C   0  0  0  0  0  0  0  0  0  0  0  0
   -0.7280   -0.0060    1.0310 N   0  0  0  0  0  0  0  0  0  0  0  0
    0.5600   -0.4620    0.9370 C   0  0  0  0  0  0  0  0  0  0  0  0
    1.2500   -0.5870    2.1940 N   0  0  0  0  0  0  0  0  0  0  0  0
    1.2000   -0.8050   -0.0970 N   0  0  0  0  0  0  0  0  0  0  0  0
    1.5890   -1.2490   -1.2280 C   0  0  0  0  0  0  0  0  0  0  0  0
    2.9120   -1.6670   -1.5220 C   0  0  0  0  0  0  0  0  0  0  0  0
    3.9640   -1.4440   -0.6800 C   0  0  0  0  0  0  0  0  0  0  0  0
    4.0250   -0.4990    0.3570 C   0  0  0  0  0  0  0  0  0  0  0  0
    3.6260    0.7190    0.3490 N   0  0  0  0  0  0  0  0  0  0  0  0
    2.9910    1.7880    0.0130 C   0  0  0  0  0  0  0  0  0  0  0  0
    3.4510    2.4290   -1.2350 N   0  0  0  0  0  0  0  0  0  0  0  0
    2.0150    2.4940    0.5860 N   0  0  0  0  0  0  0  0  0  0  0  0
    0.7570    2.6660    0.7980 C   0  0  0  0  0  0  0  0  0  0  0  0
    0.5120    3.4210    1.8880 O   0  0  0  0  0  0  0  0  0  0  0  0
   -0.4980    2.3170    0.2430 C   0  0  0  0  0  0  0  0  0  0  0  0
   -1.2020    1.1190    0.3770 C   0  0  0  0  0  0  0  0  0  0  0  0
   -2.4900    1.2980   -0.2960 C   0  0  0  0  0  0  0  0  0  0  0  0
   -3.6110    0.3030   -0.4090 C   0  0  2  0  0  0  0  0  0  0  0  0
   -3.8610   -0.3150   -1.7330 C   0  0  0  0  0  0  0  0  0  0  0  0
   -4.8090    0.7390   -1.2580 C   0  0  0  0  0  0  0  0  0  0  0  0
   -2.4850    2.5110   -0.7820 C   0  0  0  0  0  0  0  0  0  0  0  0
   -1.3110    3.2060   -0.5180 N   0  0  0  0  0  0  0  0  0  0  0  0
    4.9840   -2.3790   -1.0830 C   0  0  0  0  0  0  0  0  0  0  0  0
    6.1500   -2.5930   -0.6350 O   0  0  0  0  0  0  0  0  0  0  0  0
    4.4900   -3.1400   -2.1730 O   0  0  0  0  0  0  0  0  0  0  0  0
    3.4260   -2.3740   -2.6990 C   0  0  0  0  0  0  0  0  0  0  0  0
  1  2  1  0
  2  3  1  0
  3  4  1  0
  4  5  1  0
  4 19  1  0
  5  6  1  0
  5  7  2  0
  7  8  1  0
  8  9  2  0
  9 10  1  0
  9 29  1  0
 10 11  2  0
 10 26  1  0
 11 12  1  0
 12 13  2  0
 13 14  1  0
 13 15  1  0
 15 16  1  0
 16 17  2  0
 16 18  1  0
 18 19  2  0
 18 25  1  0
 19 20  1  0
 21 20  1  6
 20 24  2  0
 21 22  1  0
 21 23  1  0
 22 23  1  0
 24 25  1  0
 26 27  2  0
 26 28  1  0
 28 29  1  0
M  CHG  1  25   1
M  END
