
     RDKit          3D

 29 32  0  0  0  0  0  0  0  0999 V2000
   -2.8600   -2.1360   -0.3590 C   0  0  0  0  0  0  0  0  0  0  0  0
   -3.9520   -1.8860    0.3180 C   0  0  0  0  0  0  0  0  0  0  0  0
   -4.3830   -2.7640    1.2470 F   0  0  0  0  0  0  0  0  0  0  0  0
   -4.7130   -0.6650    0.1140 C   0  0  0  0  0  0  0  0  0  0  0  0
   -4.0840    0.5500    0.0510 C   0  0  0  0  0  0  0  0  0  0  0  0
   -2.6620    0.7120    0.3170 C   0  0  0  0  0  0  0  0  0  0  0  0
   -2.0870    1.8740    0.2200 N   0  0  0  0  0  0  0  0  0  0  0  0
   -0.7000    2.0240    0.4810 C   0  0  0  0  0  0  0  0  0  0  0  0
   -0.0830    3.0840    0.9490 C   0  0  0  0  0  0  0  0  0  0  0  0
    1.3680    2.8490    1.0830 C   0  0  0  0  0  0  0  0  0  0  0  0
    2.2000    3.7190    1.5140 O   0  0  0  0  0  0  0  0  0  0  0  0
    1.5860    1.4900    0.6340 C   0  0  0  0  0  0  0  0  0  0  0  0
    2.7360    0.8100    0.5650 C   0  0  0  0  0  0  0  0  0  0  0  0
    3.9910    1.4200    0.9700 C   0  0  0  0  0  0  0  0  0  0  0  0
    5.0480    1.6300   -0.0560 C   0  0  0  0  0  0  0  0  0  0  0  0
    6.2050    2.3500    0.6950 C   0  0  0  0  0  0  0  0  0  0  0  0
    2.6980   -0.6120    0.1380 C   0  0  0  0  0  0  0  0  0  0  0  0
    3.3670   -0.9110   -1.0870 N   0  0  0  0  0  0  0  0  0  0  0  0
    4.4420   -1.8750   -0.9670 C   0  0  2  0  0  0  0  0  0  0  0  0
    4.1540   -3.2950   -1.4940 C   0  0  0  0  0  0  0  0  0  0  0  0
    4.3320   -3.0130   -0.0550 C   0  0  0  0  0  0  0  0  0  0  0  0
    0.2960    1.0040    0.2680 N   0  0  0  0  0  0  0  0  0  0  0  0
   -4.8710    1.6730   -0.2180 C   0  0  0  0  0  0  0  0  0  0  0  0
   -6.2260    1.5810   -0.4130 C   0  0  0  0  0  0  0  0  0  0  0  0
   -6.8210    0.3370   -0.3390 C   0  0  0  0  0  0  0  0  0  0  0  0
   -6.0930   -0.7860   -0.0800 C   0  0  0  0  0  0  0  0  0  0  0  0
   -7.0090   -1.9440   -0.0660 C   0  0  0  0  0  0  0  0  0  0  0  0
   -8.2800   -1.3780   -0.0200 O   0  0  0  0  0  0  0  0  0  0  0  0
   -8.1700   -0.1200   -0.4820 N   0  0  0  0  0  0  0  0  0  0  0  0
  1  2  2  0
  2  3  1  0
  2  4  1  0
  4  5  2  0
  4 26  1  0
  5  6  1  0
  5 23  1  0
  6  7  2  3
  7  8  1  0
  8  9  2  0
  8 22  1  0
  9 10  1  0
 10 11  2  0
 10 12  1  0
 12 13  2  3
 12 22  1  0
 13 14  1  0
 13 17  1  0
 14 15  1  0
 15 16  1  0
 17 18  1  0
 19 18  1  1
 19 20  1  0
 19 21  1  0
 20 21  1  0
 23 24  2  0
 24 25  1  0
 25 26  2  0
 25 29  1  0
 26 27  1  0
 27 28  1  0
 28 29  1  0
M  CHG  1  18   1
M  END
