
     RDKit          3D

 29 29  0  0  0  0  0  0  0  0999 V2000
   -6.9370    2.1340    1.6060 C   0  0  0  0  0  0  0  0  0  0  0  0
   -6.9540    1.8160    0.3260 C   0  0  0  0  0  0  0  0  0  0  0  0
   -6.9310    0.3850   -0.0750 C   0  0  0  0  0  0  0  0  0  0  0  0
   -5.7260    0.0950   -0.9140 C   0  0  2  0  0  0  0  0  0  0  0  0
   -4.5310    0.3980   -0.1320 N   0  0  0  0  0  0  0  0  0  0  0  0
   -3.5740   -0.5920    0.2020 C   0  0  0  0  0  0  0  0  0  0  0  0
   -3.7920   -1.7630   -0.2060 O   0  0  0  0  0  0  0  0  0  0  0  0
   -2.4120   -0.3580    0.9490 N   0  0  0  0  0  0  0  0  0  0  0  0
   -1.4380   -1.4270    1.2730 C   0  0  1  0  0  0  0  0  0  0  0  0
   -0.1580   -0.9190    0.5830 C   0  0  0  0  0  0  0  0  0  0  0  0
    0.9840   -1.8700    0.7700 C   0  0  0  0  0  0  0  0  0  0  0  0
    2.2000   -1.3500    0.0370 C   0  0  0  0  0  0  0  0  0  0  0  0
    2.6670   -0.0170    0.5250 C   0  0  0  0  0  0  0  0  0  0  0  0
    3.8290    0.4820   -0.1560 N   0  0  0  0  0  0  0  0  0  0  0  0
    5.0590   -0.2060   -0.1270 C   0  0  0  0  0  0  0  0  0  0  0  0
    5.0840   -1.2930    0.5410 O   0  0  0  0  0  0  0  0  0  0  0  0
    6.2680    0.2470   -0.8010 C   0  0  0  0  0  0  0  0  0  0  0  0
    7.3870   -0.5510   -0.7590 C   0  0  0  0  0  0  0  0  0  0  0  0
    8.5400   -0.1210   -1.3990 C   0  0  0  0  0  0  0  0  0  0  0  0
    8.5530    1.0810   -2.0600 C   0  0  0  0  0  0  0  0  0  0  0  0
   10.3310    1.7040   -3.0250 I   0  0  0  0  0  0  0  0  0  0  0  0
    7.4410    1.8930   -2.1120 C   0  0  0  0  0  0  0  0  0  0  0  0
    6.2840    1.4370   -1.4560 C   0  0  0  0  0  0  0  0  0  0  0  0
   -1.1670   -1.4240    2.7250 C   0  0  0  0  0  0  0  0  0  0  0  0
   -1.7210   -0.5390    3.4250 O   0  0  0  0  0  0  0  0  0  0  0  0
   -0.3550   -2.3140    3.3920 O   0  0  0  0  0  0  0  0  0  0  0  0
   -5.7330    0.8340   -2.1940 C   0  0  0  0  0  0  0  0  0  0  0  0
   -4.7650    1.5930   -2.4460 O   0  0  0  0  0  0  0  0  0  0  0  0
   -6.7530    0.7260   -3.1180 O   0  0  0  0  0  0  0  0  0  0  0  0
  1  2  2  0
  2  3  1  0
  4  3  1  1
  4  5  1  0
  4 27  1  0
  5  6  1  0
  6  7  2  0
  6  8  1  0
  8  9  1  0
  9 10  1  6
  9 24  1  0
 10 11  1  0
 11 12  1  0
 12 13  1  0
 13 14  1  0
 14 15  1  0
 15 16  2  0
 15 17  1  0
 17 18  2  0
 17 23  1  0
 18 19  1  0
 19 20  2  0
 20 21  1  0
 20 22  1  0
 22 23  2  0
 24 25  2  0
 24 26  1  0
 27 28  2  0
 27 29  1  0
M  END
