
     RDKit          3D

 29 31  0  0  0  0  0  0  0  0999 V2000
   -3.0870   -2.6580   -0.4210 C   0  0  0  0  0  0  0  0  0  0  0  0
   -4.0700   -1.6860    0.1650 C   0  0  2  0  0  0  0  0  0  0  0  0
   -4.6390   -2.1590    1.4830 C   0  0  0  0  0  0  0  0  0  0  0  0
   -5.2450   -1.4320   -0.7650 C   0  0  0  0  0  0  0  0  0  0  0  0
   -5.7530   -0.1220   -0.1410 C   0  0  0  0  0  0  0  0  0  0  0  0
   -4.5170    0.6510   -0.0530 N   0  0  0  0  0  0  0  0  0  0  0  0
   -4.4920    2.0540   -0.2590 C   0  0  0  0  0  0  0  0  0  0  0  0
   -5.6970    2.7720   -0.4170 C   0  0  0  0  0  0  0  0  0  0  0  0
   -5.6920    4.1340   -0.6100 C   0  0  0  0  0  0  0  0  0  0  0  0
   -4.5290    4.8290   -0.6530 C   0  0  0  0  0  0  0  0  0  0  0  0
   -3.3620    4.1370   -0.5000 C   0  0  0  0  0  0  0  0  0  0  0  0
   -2.1570    4.7680   -0.5320 F   0  0  0  0  0  0  0  0  0  0  0  0
   -3.3160    2.7410   -0.3000 C   0  0  0  0  0  0  0  0  0  0  0  0
   -2.0520    2.1200   -0.1470 N   0  0  0  0  0  0  0  0  0  0  0  0
   -1.4140    1.9730    1.1110 C   0  0  0  0  0  0  0  0  0  0  0  0
   -2.0830    2.4530    2.0980 O   0  0  0  0  0  0  0  0  0  0  0  0
   -0.1250    1.3560    1.3890 C   0  0  0  0  0  0  0  0  0  0  0  0
    0.5910    0.8320    0.2620 N   0  0  0  0  0  0  0  0  0  0  0  0
    1.8710    0.2060    0.4410 C   0  0  0  0  0  0  0  0  0  0  0  0
    2.3040    0.1540    1.6220 O   0  0  0  0  0  0  0  0  0  0  0  0
    2.6180   -0.3350   -0.6980 C   0  0  0  0  0  0  0  0  0  0  0  0
    3.9200   -0.9240   -0.1710 C   0  0  0  0  0  0  0  0  0  0  0  0
    4.7050   -1.4780   -1.2600 N   0  0  0  0  0  0  0  0  0  0  0  0
    6.0850   -1.6580   -0.9000 C   0  0  2  0  0  0  0  0  0  0  0  0
    6.2460   -2.1290    0.5180 C   0  0  0  0  0  0  0  0  0  0  0  0
    7.6530   -1.7170    0.8820 C   0  0  0  0  0  0  0  0  0  0  0  0
    7.7830   -0.3660    0.2440 C   0  0  0  0  0  0  0  0  0  0  0  0
    6.8230   -0.3550   -0.9350 C   0  0  0  0  0  0  0  0  0  0  0  0
   -3.4720   -0.2850    0.2810 C   0  0  0  0  0  0  0  0  0  0  0  0
  2  1  1  6
  2  3  1  0
  2  4  1  0
  2 29  1  0
  4  5  1  0
  5  6  1  0
  6  7  1  0
  6 29  1  0
  7  8  2  0
  7 13  1  0
  8  9  1  0
  9 10  2  0
 10 11  1  0
 11 12  1  0
 11 13  2  0
 13 14  1  0
 14 15  1  0
 15 16  2  0
 15 17  1  0
 17 18  1  0
 18 19  1  0
 19 20  2  0
 19 21  1  0
 21 22  1  0
 22 23  1  0
 24 23  1  1
 24 25  1  0
 24 28  1  0
 25 26  1  0
 26 27  1  0
 27 28  1  0
M  CHG  1  23   1
M  END
