
     RDKit          3D

 29 31  0  0  0  0  0  0  0  0999 V2000
    8.8500   -2.0150   -0.3600 C   0  0  0  0  0  0  0  0  0  0  0  0
    9.3240   -1.3120    0.8800 C   0  0  0  0  0  0  0  0  0  0  0  0
    9.0190    0.0530    0.9330 O   0  0  0  0  0  0  0  0  0  0  0  0
    7.7600    0.6110    0.9150 C   0  0  0  0  0  0  0  0  0  0  0  0
    6.6460   -0.1860    0.8440 C   0  0  0  0  0  0  0  0  0  0  0  0
    5.3530    0.3700    0.8250 C   0  0  0  0  0  0  0  0  0  0  0  0
    5.1190    1.7140    0.8750 C   0  0  0  0  0  0  0  0  0  0  0  0
    3.8720    2.3650    0.8590 N   0  0  0  0  0  0  0  0  0  0  0  0
    2.5920    1.7240    0.7790 C   0  0  0  0  0  0  0  0  0  0  0  0
    2.5860    0.4950    0.7200 O   0  0  0  0  0  0  0  0  0  0  0  0
    1.4150    2.6170    0.7780 C   0  0  0  0  0  0  0  0  0  0  0  0
    0.1470    1.9320    0.7150 C   0  0  0  0  0  0  0  0  0  0  0  0
   -0.1880    0.6860    0.6860 C   0  0  0  0  0  0  0  0  0  0  0  0
   -1.5630    0.2180    0.6210 C   0  0  0  0  0  0  0  0  0  0  0  0
   -1.8440   -1.1550    0.6070 C   0  0  0  0  0  0  0  0  0  0  0  0
   -3.1150   -1.6640    0.5430 C   0  0  0  0  0  0  0  0  0  0  0  0
   -4.1730   -0.8050    0.4890 C   0  0  0  0  0  0  0  0  0  0  0  0
   -5.5550   -1.3350    0.4210 C   0  0  0  0  0  0  0  0  0  0  0  0
   -5.9290   -1.6130   -0.9280 N   0  0  0  0  0  0  0  0  0  0  0  0
   -5.9150   -0.5080   -1.8270 C   0  0  0  0  0  0  0  0  0  0  0  0
   -7.2080    0.2770   -1.8750 C   0  0  0  0  0  0  0  0  0  0  0  0
   -8.2730   -0.6790   -2.1640 N   0  0  0  0  0  0  0  0  0  0  0  0
   -8.3390   -1.5220   -1.0400 N   0  0  0  0  0  0  0  0  0  0  0  0
   -7.1510   -2.3450   -0.9940 C   0  0  0  0  0  0  0  0  0  0  0  0
   -3.9770    0.5450    0.4990 C   0  0  0  0  0  0  0  0  0  0  0  0
   -2.6630    1.0300    0.5650 C   0  0  0  0  0  0  0  0  0  0  0  0
    6.2810    2.5060    0.9470 C   0  0  0  0  0  0  0  0  0  0  0  0
    6.0990    3.8600    1.0000 F   0  0  0  0  0  0  0  0  0  0  0  0
    7.5440    1.9690    0.9660 C   0  0  0  0  0  0  0  0  0  0  0  0
  1  2  1  0
  2  3  1  0
  3  4  1  0
  4  5  2  0
  4 29  1  0
  5  6  1  0
  6  7  2  0
  7  8  1  0
  7 27  1  0
  8  9  1  0
  9 10  2  0
  9 11  1  0
 11 12  1  0
 12 13  2  3
 13 14  1  0
 14 15  2  0
 14 26  1  0
 15 16  1  0
 16 17  2  0
 17 18  1  0
 17 25  1  0
 18 19  1  0
 19 20  1  0
 19 24  1  0
 20 21  1  0
 21 22  1  0
 22 23  1  0
 23 24  1  0
 25 26  2  0
 27 28  1  0
 27 29  2  0
M  CHG  1  22   1
M  END
