
     RDKit          3D

 30 33  0  0  0  0  0  0  0  0999 V2000
    3.0510    1.6720    1.0660 O   0  0  0  0  0  0  0  0  0  0  0  0
    3.1450    0.4530    1.2630 C   0  0  0  0  0  0  0  0  0  0  0  0
    4.1820   -0.2800    0.6630 N   0  0  0  0  0  0  0  0  0  0  0  0
    5.2150    0.1450   -0.1910 C   0  0  0  0  0  0  0  0  0  0  0  0
    5.3110    1.3770   -0.6000 C   0  0  0  0  0  0  0  0  0  0  0  0
    6.2970    2.0460   -1.4870 C   0  0  0  0  0  0  0  0  0  0  0  0
    7.5240    1.7950   -1.7230 N   0  0  0  0  0  0  0  0  0  0  0  0
    8.4580    0.4780   -1.0020 S   0  0  0  0  0  0  0  0  0  0  0  0
    7.4010   -0.9580   -0.8550 C   0  0  0  0  0  0  0  0  0  0  0  0
    6.1290   -0.9670   -0.5260 C   0  0  0  0  0  0  0  0  0  0  0  0
    5.4180   -2.5670   -0.4830 Cl  0  0  0  0  0  0  0  0  0  0  0  0
    2.1190   -0.1620    2.1480 C   0  0  1  0  0  0  0  0  0  0  0  0
    1.2110    0.7950    2.6050 O   0  0  0  0  0  0  0  0  0  0  0  0
   -0.0600    0.2420    2.6960 C   0  0  0  0  0  0  0  0  0  0  0  0
   -1.0040    0.7760    3.3220 O   0  0  0  0  0  0  0  0  0  0  0  0
   -0.0730   -1.0100    1.9610 N   0  0  0  0  0  0  0  0  0  0  0  0
   -1.1660   -1.8980    1.8690 C   0  0  0  0  0  0  0  0  0  0  0  0
   -2.1260   -1.6800    0.8060 C   0  0  0  0  0  0  0  0  0  0  0  0
   -3.1180   -2.5520    0.7560 O   0  0  0  0  0  0  0  0  0  0  0  0
   -2.1970   -0.7090   -0.1790 N   0  0  0  0  0  0  0  0  0  0  0  0
   -1.3290    0.3760   -0.4840 C   0  0  0  0  0  0  0  0  0  0  0  0
   -2.0180    1.6930   -0.1040 C   0  0  0  0  0  0  0  0  0  0  0  0
   -3.4330    1.6340   -0.6170 C   0  0  0  0  0  0  0  0  0  0  0  0
   -3.5720    0.5730   -1.6850 C   0  0  2  0  0  0  0  0  0  0  0  0
   -5.0430    0.5410   -2.1090 C   0  0  0  0  0  0  0  0  0  0  0  0
   -5.7070   -0.0740   -0.8950 C   0  0  0  0  0  0  0  0  0  0  0  0
   -4.6510   -1.0080   -0.2990 C   0  0  0  0  0  0  0  0  0  0  0  0
   -3.3910   -0.7820   -1.0880 C   0  0  2  0  0  0  0  0  0  0  0  0
    1.2610   -1.1280    1.4520 C   0  0  0  0  0  0  0  0  0  0  0  0
    1.6060   -1.9250    0.5690 O   0  0  0  0  0  0  0  0  0  0  0  0
  1  2  2  0
  2  3  1  0
 12  2  1  6
  3  4  1  0
  4  5  2  0
  4 10  1  0
  5  6  1  0
  6  7  2  0
  7  8  1  0
  8  9  1  0
  9 10  2  0
 10 11  1  0
 12 13  1  0
 12 29  1  0
 13 14  1  0
 14 15  2  0
 14 16  1  0
 16 17  1  0
 16 29  1  0
 17 18  1  0
 18 19  2  0
 18 20  1  0
 20 21  1  0
 20 28  1  0
 21 22  1  0
 22 23  1  0
 24 23  1  1
 24 25  1  0
 24 28  1  0
 25 26  1  0
 26 27  1  0
 28 27  1  1
 29 30  2  0
M  END
