
     RDKit          3D

 29 31  0  0  0  0  0  0  0  0999 V2000
   -6.7320    0.0560    0.2230 C   0  0  0  0  0  0  0  0  0  0  0  0
   -5.7760    1.1260    0.6010 C   0  0  0  0  0  0  0  0  0  0  0  0
   -4.7110    1.4800   -0.3580 C   0  0  1  0  0  0  0  0  0  0  0  0
   -5.1290    2.0290   -1.6840 C   0  0  0  0  0  0  0  0  0  0  0  0
   -5.9870    1.1530   -2.5290 C   0  0  0  0  0  0  0  0  0  0  0  0
   -6.2370    1.8000   -3.7500 F   0  0  0  0  0  0  0  0  0  0  0  0
   -3.7570    2.2910    0.2540 O   0  0  0  0  0  0  0  0  0  0  0  0
   -2.4730    1.8420    0.2250 C   0  0  0  0  0  0  0  0  0  0  0  0
   -2.2080    0.5250    0.8480 C   0  0  0  0  0  0  0  0  0  0  0  0
   -3.0660   -0.1920    1.3740 O   0  0  0  0  0  0  0  0  0  0  0  0
   -0.8600    0.0850    0.8220 N   0  0  0  0  0  0  0  0  0  0  0  0
   -0.3390   -1.1120    1.3390 C   0  0  0  0  0  0  0  0  0  0  0  0
   -1.0410   -2.0050    2.1230 C   0  0  0  0  0  0  0  0  0  0  0  0
   -0.4690   -3.1660    2.6640 C   0  0  0  0  0  0  0  0  0  0  0  0
   -1.3160   -4.0630    3.4950 C   0  0  0  0  0  0  0  0  0  0  0  0
    0.8510   -3.4270    2.4020 C   0  0  0  0  0  0  0  0  0  0  0  0
    1.5870   -2.5670    1.6270 C   0  0  0  0  0  0  0  0  0  0  0  0
    0.9860   -1.4100    1.0980 C   0  0  0  0  0  0  0  0  0  0  0  0
    1.7570   -0.5820    0.2750 N   0  0  0  0  0  0  0  0  0  0  0  0
    1.5420   -0.5710   -1.1550 C   0  0  0  0  0  0  0  0  0  0  0  0
    2.8790   -0.8280   -1.8640 C   0  0  0  0  0  0  0  0  0  0  0  0
    3.9280    0.0690   -1.3410 C   0  0  0  0  0  0  0  0  0  0  0  0
    3.8770    0.5540   -0.1400 C   0  0  0  0  0  0  0  0  0  0  0  0
    4.8530    1.4730    0.5420 C   0  0  0  0  0  0  0  0  0  0  0  0
    6.1890    1.0970    0.1390 N   0  0  0  0  0  0  0  0  0  0  0  0
    6.4010    1.6900   -1.1840 C   0  0  0  0  0  0  0  0  0  0  0  0
    6.2850    0.6370   -2.2450 C   0  0  0  0  0  0  0  0  0  0  0  0
    4.9100    0.2490   -2.3830 N   0  0  0  0  0  0  0  0  0  0  0  0
    2.7840    0.2580    0.7980 C   0  0  0  0  0  0  0  0  0  0  0  0
  1  2  1  0
  3  2  1  1
  3  4  1  0
  3  7  1  0
  4  5  1  0
  5  6  1  0
  7  8  1  0
  8  9  1  0
  9 10  2  0
  9 11  1  0
 11 12  1  0
 12 13  2  0
 12 18  1  0
 13 14  1  0
 14 15  1  0
 14 16  2  0
 16 17  1  0
 17 18  2  0
 18 19  1  0
 19 20  1  0
 19 29  1  0
 20 21  1  0
 21 22  1  0
 22 23  2  0
 22 28  1  0
 23 24  1  0
 23 29  1  0
 24 25  1  0
 25 26  1  0
 26 27  1  0
 27 28  1  0
M  CHG  1  25   1
M  END
