
     RDKit          3D

 12 12  0  0  0  0  0  0  0  0999 V2000
    1.9530   -1.5430    1.0150 C   0  0  0  0  0  0  0  0  0  0  0  0
    1.9900   -0.2480    0.2400 C   0  0  0  0  0  0  0  0  0  0  0  0
    2.9810    0.6590    0.2350 N   0  0  0  0  0  0  0  0  0  0  0  0
    2.6540    1.6530   -0.5680 N   0  0  0  0  0  0  0  0  0  0  0  0
    1.4470    1.4250   -1.1060 C   0  0  0  0  0  0  0  0  0  0  0  0
    0.7990    2.1490   -1.9220 O   0  0  0  0  0  0  0  0  0  0  0  0
    1.0470    0.2330   -0.5900 N   0  0  0  0  0  0  0  0  0  0  0  0
   -0.2150   -0.3800   -0.9330 C   0  0  0  0  0  0  0  0  0  0  0  0
   -1.3250    0.0620   -0.0430 C   0  0  2  0  0  0  0  0  0  0  0  0
   -1.0410   -0.2860    1.3750 C   0  0  0  0  0  0  0  0  0  0  0  0
   -2.6160   -0.6700   -0.4310 C   0  0  0  0  0  0  0  0  0  0  0  0
   -1.6270    1.4760   -0.1710 N   0  0  0  0  0  0  0  0  0  0  0  0
  1  2  1  0
  2  3  2  0
  2  7  1  0
  3  4  1  0
  4  5  1  0
  5  6  2  0
  5  7  1  0
  7  8  1  0
  8  9  1  0
  9 10  1  1
  9 11  1  0
  9 12  1  0
M  END
