
     RDKit          3D

 12 12  0  0  0  0  0  0  0  0999 V2000
   -0.9260    2.2300    0.0360 C   0  0  0  0  0  0  0  0  0  0  0  0
   -0.8310    0.9470    0.1980 C   0  0  0  0  0  0  0  0  0  0  0  0
   -1.6600    0.3490    1.2230 N   0  0  0  0  0  0  0  0  0  0  0  0
   -2.1580   -0.9850    1.1930 C   0  0  0  0  0  0  0  0  0  0  0  0
   -1.8520   -1.9780    0.3500 C   0  0  0  0  0  0  0  0  0  0  0  0
   -0.9490   -1.9950   -0.7530 N   0  0  0  0  0  0  0  0  0  0  0  0
   -0.1370   -1.0700   -1.1830 C   0  0  0  0  0  0  0  0  0  0  0  0
    0.0780    0.2610   -0.6520 N   0  0  0  0  0  0  0  0  0  0  0  0
    1.3060    0.9110   -1.0120 C   0  0  0  0  0  0  0  0  0  0  0  0
    2.4760    0.2210   -0.3860 C   0  0  0  0  0  0  0  0  0  0  0  0
    2.3540   -0.9140    0.4530 N   0  0  0  0  0  0  0  0  0  0  0  0
    3.6130    0.6800   -0.6240 O   0  0  0  0  0  0  0  0  0  0  0  0
  1  2  2  0
  2  3  1  0
  2  8  1  0
  3  4  1  0
  4  5  2  0
  5  6  1  0
  6  7  2  0
  7  8  1  0
  8  9  1  0
  9 10  1  0
 10 11  1  0
 10 12  2  0
M  END
