
     RDKit          3D

 12 12  0  0  0  0  0  0  0  0999 V2000
    3.3750    0.2070    0.0630 C   0  0  0  0  0  0  0  0  0  0  0  0
    1.9840    0.7970    0.0470 C   0  0  0  0  0  0  0  0  0  0  0  0
    0.9620   -0.2150    0.0380 N   0  0  0  0  0  0  0  0  0  0  0  0
    1.2390   -1.5790    0.0720 N   0  0  0  0  0  0  0  0  0  0  0  0
    0.3790   -2.5190    0.0690 C   0  0  0  0  0  0  0  0  0  0  0  0
   -1.0590   -2.2510    0.0280 C   0  0  0  0  0  0  0  0  0  0  0  0
   -1.4260   -0.8580   -0.0070 N   0  0  0  0  0  0  0  0  0  0  0  0
   -0.4430    0.1660   -0.0040 C   0  0  0  0  0  0  0  0  0  0  0  0
   -0.6940    1.4500   -0.0420 C   0  0  0  0  0  0  0  0  0  0  0  0
   -1.9500    2.1190   -0.0870 C   0  0  0  0  0  0  0  0  0  0  0  0
   -3.1960    1.4570   -0.0990 N   0  0  0  0  0  0  0  0  0  0  0  0
   -1.9730    3.4250   -0.1200 O   0  0  0  0  0  0  0  0  0  0  0  0
  1  2  1  0
  2  3  1  0
  3  4  1  0
  3  8  1  0
  4  5  2  0
  5  6  1  0
  6  7  1  0
  7  8  1  0
  8  9  2  3
  9 10  1  0
 10 11  1  0
 10 12  2  0
M  END
