
     RDKit          3D

 12 12  0  0  0  0  0  0  0  0999 V2000
   -1.3360    0.0390    2.3300 C   0  0  0  0  0  0  0  0  0  0  0  0
   -1.2430   -0.3280    0.9350 N   0  0  0  0  0  0  0  0  0  0  0  0
   -2.2860   -1.0950    0.2800 C   0  0  0  0  0  0  0  0  0  0  0  0
   -2.4370   -0.4530   -1.0990 C   0  0  0  0  0  0  0  0  0  0  0  0
   -1.3420   -0.5830   -1.8840 O   0  0  0  0  0  0  0  0  0  0  0  0
   -0.1260   -0.4070   -1.3120 C   0  0  0  0  0  0  0  0  0  0  0  0
   -0.1480    0.0220    0.1000 C   0  0  0  0  0  0  0  0  0  0  0  0
    0.7970    0.7180    0.6430 N   0  0  0  0  0  0  0  0  0  0  0  0
    1.8970    1.0730   -0.1830 C   0  0  0  0  0  0  0  0  0  0  0  0
    1.8350    2.3620   -0.8050 N   0  0  0  0  0  0  0  0  0  0  0  0
    2.9170    0.2710   -0.3710 C   0  0  0  0  0  0  0  0  0  0  0  0
    2.9130   -0.9930    0.2760 N   0  0  0  0  0  0  0  0  0  0  0  0
  1  2  1  0
  2  3  1  0
  2  7  1  0
  3  4  1  0
  4  5  1  0
  5  6  1  0
  6  7  1  0
  7  8  2  3
  8  9  1  0
  9 10  1  0
  9 11  2  3
 11 12  1  0
M  END
