
     RDKit          3D

 12 12  0  0  0  0  0  0  0  0999 V2000
   -0.4140   -1.5550   -0.2600 C   0  0  0  0  0  0  0  0  0  0  0  0
    0.1280   -0.2510    0.1670 C   0  0  0  0  0  0  0  0  0  0  0  0
   -0.6080    0.6200    0.7540 N   0  0  0  0  0  0  0  0  0  0  0  0
   -1.9830    0.4120    1.0400 C   0  0  0  0  0  0  0  0  0  0  0  0
   -2.9190    0.7210    0.1840 C   0  0  0  0  0  0  0  0  0  0  0  0
   -4.2840    0.5170    0.4640 N   0  0  0  0  0  0  0  0  0  0  0  0
    1.5230    0.0650   -0.0770 C   0  0  0  0  0  0  0  0  0  0  0  0
    2.1960    1.2330    0.2540 C   0  0  0  0  0  0  0  0  0  0  0  0
    3.4740    1.0850   -0.1630 N   0  0  0  0  0  0  0  0  0  0  0  0
    3.6300   -0.1130   -0.7350 C   0  0  0  0  0  0  0  0  0  0  0  0
    4.7130   -0.5500   -1.2250 O   0  0  0  0  0  0  0  0  0  0  0  0
    2.4400   -0.7370   -0.6830 N   0  0  0  0  0  0  0  0  0  0  0  0
  1  2  1  0
  2  3  2  3
  2  7  1  0
  3  4  1  0
  4  5  2  3
  5  6  1  0
  7  8  2  0
  7 12  1  0
  8  9  1  0
  9 10  1  0
 10 11  2  0
 10 12  1  0
M  END
