
     RDKit          3D

 33 36  0  0  0  0  0  0  0  0999 V2000
   -7.2600   -0.6080    0.1330 C   0  0  0  0  0  0  0  0  0  0  0  0
   -6.8580    0.6630   -0.4240 C   0  0  0  0  0  0  0  0  0  0  0  0
   -5.7390    1.2770   -0.6920 C   0  0  0  0  0  0  0  0  0  0  0  0
   -5.8300    2.6530   -1.2940 C   0  0  0  0  0  0  0  0  0  0  0  0
   -6.9910    3.1730   -1.5110 N   0  0  0  0  0  0  0  0  0  0  0  0
   -4.6360    3.3940   -1.6280 C   0  0  0  0  0  0  0  0  0  0  0  0
   -3.4830    2.8350   -1.3920 C   0  0  0  0  0  0  0  0  0  0  0  0
   -3.3590    1.5310   -0.8220 C   0  0  0  0  0  0  0  0  0  0  0  0
   -4.4200    0.7530   -0.4730 C   0  0  0  0  0  0  0  0  0  0  0  0
   -4.1380   -0.5590    0.0950 C   0  0  0  0  0  0  0  0  0  0  0  0
   -2.8300   -0.9900    0.2260 N   0  0  0  0  0  0  0  0  0  0  0  0
   -2.7710   -2.1940    0.7570 C   0  0  0  0  0  0  0  0  0  0  0  0
   -1.6400   -3.0380    1.0720 C   0  0  0  0  0  0  0  0  0  0  0  0
   -1.8510   -4.1630    1.5880 O   0  0  0  0  0  0  0  0  0  0  0  0
   -0.3270   -2.6290    0.8170 N   0  0  0  0  0  0  0  0  0  0  0  0
    0.0420   -1.3670    0.2220 C   0  0  0  0  0  0  0  0  0  0  0  0
    1.4380   -1.5140   -0.3650 C   0  0  0  0  0  0  0  0  0  0  0  0
    2.3620   -1.8630    0.6710 N   0  0  0  0  0  0  0  0  0  0  0  0
    3.7040   -1.4230    0.6660 C   0  0  0  0  0  0  0  0  0  0  0  0
    4.4640   -1.7650    1.6010 O   0  0  0  0  0  0  0  0  0  0  0  0
    4.1750   -0.5640   -0.4540 C   0  0  0  0  0  0  0  0  0  0  0  0
    5.6350   -0.1880   -0.1940 C   0  0  0  0  0  0  0  0  0  0  0  0
    6.0710    0.6640   -1.3160 C   0  0  0  0  0  0  0  0  0  0  0  0
    5.9530    0.2700   -2.4880 O   0  0  0  0  0  0  0  0  0  0  0  0
    6.6370    1.9660   -1.0250 C   0  0  0  0  0  0  0  0  0  0  0  0
    6.8570    2.6100    0.1380 C   0  0  0  0  0  0  0  0  0  0  0  0
    7.3970    3.8360    0.1130 C   0  0  0  0  0  0  0  0  0  0  0  0
    7.7100    4.3970   -1.0710 C   0  0  0  0  0  0  0  0  0  0  0  0
    7.2160    3.1280   -2.2710 S   0  0  0  0  0  0  0  0  0  0  0  0
    1.9090   -2.7050    1.7770 C   0  0  0  0  0  0  0  0  0  0  0  0
    0.7830   -3.5440    1.1870 C   0  0  0  0  0  0  0  0  0  0  0  0
   -4.1040   -2.5430    0.9740 C   0  0  0  0  0  0  0  0  0  0  0  0
   -4.8050   -1.5450    0.5640 O   0  0  0  0  0  0  0  0  0  0  0  0
  1  2  1  0
  2  3  2  3
  3  4  1  0
  3  9  1  0
  4  5  2  0
  4  6  1  0
  6  7  2  0
  7  8  1  0
  8  9  2  0
  9 10  1  0
 10 11  2  0
 10 33  1  0
 11 12  1  0
 12 13  1  0
 12 32  2  0
 13 14  2  0
 13 15  1  0
 15 16  1  0
 15 31  1  0
 16 17  1  0
 17 18  1  0
 18 19  1  0
 18 30  1  0
 19 20  2  0
 19 21  1  0
 21 22  1  0
 22 23  1  0
 23 24  2  0
 23 25  1  0
 25 26  2  0
 25 29  1  0
 26 27  1  0
 27 28  2  0
 28 29  1  0
 30 31  1  0
 32 33  1  0
M  END
