
     RDKit          3D

 32 33  0  0  0  0  0  0  0  0999 V2000
    0.1190    4.7500    1.1960 C   0  0  0  0  0  0  0  0  0  0  0  0
   -0.4400    4.6510   -0.1720 C   0  0  0  0  0  0  0  0  0  0  0  0
   -0.4750    3.2980   -0.7810 C   0  0  0  0  0  0  0  0  0  0  0  0
   -1.5970    3.2900   -1.8650 C   0  0  0  0  0  0  0  0  0  0  0  0
   -2.8730    3.5210   -1.3040 N   0  0  0  0  0  0  0  0  0  0  0  0
   -3.3980    4.7940   -1.8080 C   0  0  0  0  0  0  0  0  0  0  0  0
    0.2340    2.2630   -0.6890 C   0  0  0  0  0  0  0  0  0  0  0  0
   -0.2220    1.0940   -1.4600 N   0  0  0  0  0  0  0  0  0  0  0  0
   -1.3640    0.3680   -1.1010 C   0  0  0  0  0  0  0  0  0  0  0  0
   -1.2290   -0.4490    0.1380 C   0  0  0  0  0  0  0  0  0  0  0  0
   -2.5110   -1.1120    0.4340 N   0  0  2  0  0  0  0  0  0  0  0  0
   -2.4780   -1.5950    1.7890 C   0  0  0  0  0  0  0  0  0  0  0  0
   -3.8820   -1.6510    2.3350 C   0  0  0  0  0  0  0  0  0  0  0  0
   -4.8160   -2.3990    1.4110 C   0  0  0  0  0  0  0  0  0  0  0  0
   -4.2010   -3.6660    0.8880 C   0  0  0  0  0  0  0  0  0  0  0  0
   -3.0650   -3.4720   -0.0510 C   0  0  0  0  0  0  0  0  0  0  0  0
   -2.8600   -2.0820   -0.5510 C   0  0  0  0  0  0  0  0  0  0  0  0
    1.6520    2.0900   -0.3130 C   0  0  0  0  0  0  0  0  0  0  0  0
    2.1250    0.8600   -0.1500 C   0  0  0  0  0  0  0  0  0  0  0  0
    3.4130    0.4140    0.2090 C   0  0  0  0  0  0  0  0  0  0  0  0
    4.4210    1.1180    0.4500 O   0  0  0  0  0  0  0  0  0  0  0  0
    3.6320   -1.0300    0.3230 N   0  0  0  0  0  0  0  0  0  0  0  0
    2.5490   -1.9240    0.1560 C   0  0  0  0  0  0  0  0  0  0  0  0
    2.8140   -3.2880    0.7130 C   0  0  1  0  0  0  0  0  0  0  0  0
    2.3410   -4.4110   -0.2300 C   0  0  0  0  0  0  0  0  0  0  0  0
    4.1160   -3.5900    1.0190 O   0  0  0  0  0  0  0  0  0  0  0  0
    4.9880   -2.9610    0.1690 C   0  0  2  0  0  0  0  0  0  0  0  0
    6.3960   -3.5070    0.2540 C   0  0  0  0  0  0  0  0  0  0  0  0
    4.9650   -1.4820    0.5870 C   0  0  0  0  0  0  0  0  0  0  0  0
    2.6240    3.1490   -0.3460 C   0  0  0  0  0  0  0  0  0  0  0  0
    2.4390    4.5370   -0.5810 N   0  0  0  0  0  0  0  0  0  0  0  0
    3.8870    2.9370   -0.1500 O   0  0  0  0  0  0  0  0  0  0  0  0
  1  2  1  0
  2  3  1  0
  3  4  1  0
  3  7  2  3
  4  5  1  0
  5  6  1  0
  7  8  1  0
  7 18  1  0
  8  9  1  0
  9 10  1  0
 11 10  1  6
 11 12  1  0
 11 17  1  0
 12 13  1  0
 13 14  1  0
 14 15  1  0
 15 16  1  0
 16 17  1  0
 18 19  2  3
 18 30  1  0
 19 20  1  0
 20 21  2  0
 20 22  1  0
 22 23  1  0
 22 29  1  0
 23 24  1  0
 24 25  1  6
 24 26  1  0
 26 27  1  0
 27 28  1  1
 27 29  1  0
 30 31  1  0
 30 32  2  0
M  CHG  2   5   1  11   1
M  END
