
     RDKit          3D

 33 35  0  0  0  0  0  0  0  0999 V2000
   -7.7320   -1.6520    3.6260 C   0  0  0  0  0  0  0  0  0  0  0  0
   -7.5100   -0.7720    2.6760 C   0  0  0  0  0  0  0  0  0  0  0  0
   -6.6690   -1.0720    1.5480 C   0  0  0  0  0  0  0  0  0  0  0  0
   -6.3360   -0.3340    0.5340 C   0  0  0  0  0  0  0  0  0  0  0  0
   -5.4210   -0.8890   -0.5550 C   0  0  0  0  0  0  0  0  0  0  0  0
   -5.1610    0.1620   -1.4450 N   0  0  0  0  0  0  0  0  0  0  0  0
   -3.8540    0.4300   -1.8770 C   0  0  1  0  0  0  0  0  0  0  0  0
   -2.9980    0.8250   -0.6930 C   0  0  0  0  0  0  0  0  0  0  0  0
   -1.5610    1.0470   -1.1370 C   0  0  0  0  0  0  0  0  0  0  0  0
   -1.0640   -0.2240   -1.5970 N   0  0  0  0  0  0  0  0  0  0  0  0
    0.3270   -0.4650   -1.6360 C   0  0  0  0  0  0  0  0  0  0  0  0
    0.7560   -1.5710   -2.0330 O   0  0  0  0  0  0  0  0  0  0  0  0
    1.2300    0.5250   -1.2340 N   0  0  0  0  0  0  0  0  0  0  0  0
    2.6540    0.3360   -1.2480 C   0  0  0  0  0  0  0  0  0  0  0  0
    3.1250   -0.7600   -1.6400 O   0  0  0  0  0  0  0  0  0  0  0  0
    3.6010    1.3900   -0.8140 C   0  0  0  0  0  0  0  0  0  0  0  0
    4.9210    0.9510   -0.9170 O   0  0  0  0  0  0  0  0  0  0  0  0
    5.3910   -0.1540   -0.2250 C   0  0  0  0  0  0  0  0  0  0  0  0
    4.6270   -0.7960    0.5210 O   0  0  0  0  0  0  0  0  0  0  0  0
    6.8200   -0.5780   -0.3750 C   0  0  0  0  0  0  0  0  0  0  0  0
    7.0770   -1.7990    0.4620 C   0  0  0  0  0  0  0  0  0  0  0  0
    8.8020   -2.2810    0.2770 S   0  0  0  0  0  0  0  0  0  0  0  0
    9.8300   -1.0380    1.0810 C   0  0  0  0  0  0  0  0  0  0  0  0
    9.4610    0.0050    1.7950 C   0  0  0  0  0  0  0  0  0  0  0  0
   10.6510    0.7360    2.2500 C   0  0  0  0  0  0  0  0  0  0  0  0
   11.7700   -0.0610    1.6910 C   0  0  0  0  0  0  0  0  0  0  0  0
   11.2890   -1.0790    1.0180 C   0  0  0  0  0  0  0  0  0  0  0  0
   -1.9970   -1.2500   -2.0170 C   0  0  0  0  0  0  0  0  0  0  0  0
   -3.2150   -0.6680   -2.6920 C   0  0  0  0  0  0  0  0  0  0  0  0
   -6.2490    0.8130   -2.0560 C   0  0  0  0  0  0  0  0  0  0  0  0
   -7.1670    1.4120   -1.0050 C   0  0  0  0  0  0  0  0  0  0  0  0
   -6.7400    1.0100    0.3330 N   0  0  0  0  0  0  0  0  0  0  0  0
   -6.7160    1.9420    1.4230 C   0  0  0  0  0  0  0  0  0  0  0  0
  1  2  2  0
  2  3  1  0
  3  4  2  3
  4  5  1  0
  4 32  1  0
  5  6  1  0
  7  6  1  1
  6 30  1  0
  7  8  1  0
  7 29  1  0
  8  9  1  0
  9 10  1  0
 10 11  1  0
 10 28  1  0
 11 12  2  0
 11 13  1  0
 13 14  1  0
 14 15  2  0
 14 16  1  0
 16 17  1  0
 17 18  1  0
 18 19  2  0
 18 20  1  0
 20 21  1  0
 21 22  1  0
 22 23  1  0
 23 24  2  0
 23 27  1  0
 24 25  1  0
 25 26  1  0
 26 27  2  0
 28 29  1  0
 30 31  1  0
 31 32  1  0
 32 33  1  0
M  END
