
     RDKit          3D

 16 17  0  0  0  0  0  0  0  0999 V2000
    1.6810   -4.0070    0.2580 C   0  0  0  0  0  0  0  0  0  0  0  0
    2.1380   -2.7970    0.0090 C   0  0  0  0  0  0  0  0  0  0  0  0
    1.3200   -1.6500    0.3600 C   0  0  0  0  0  0  0  0  0  0  0  0
    1.7830   -0.4460    0.1090 C   0  0  0  0  0  0  0  0  0  0  0  0
    1.0440    0.7290    0.4220 N   0  0  0  0  0  0  0  0  0  0  0  0
    1.7310    1.7520    1.1850 C   0  0  0  0  0  0  0  0  0  0  0  0
    0.8190    2.6270    1.9290 C   0  0  0  0  0  0  0  0  0  0  0  0
    1.2750    3.2290    2.9370 O   0  0  0  0  0  0  0  0  0  0  0  0
   -0.5300    2.7580    1.4880 N   0  0  0  0  0  0  0  0  0  0  0  0
   -1.0950    1.8830    0.5180 C   0  0  0  0  0  0  0  0  0  0  0  0
   -2.4010    2.0060    0.0870 C   0  0  0  0  0  0  0  0  0  0  0  0
   -2.8910    1.1590   -0.8280 N   0  0  0  0  0  0  0  0  0  0  0  0
   -2.1620    0.1830   -1.3520 C   0  0  0  0  0  0  0  0  0  0  0  0
   -2.6970   -0.7600   -2.3670 C   0  0  0  0  0  0  0  0  0  0  0  0
   -0.8500    0.0420   -0.9330 C   0  0  0  0  0  0  0  0  0  0  0  0
   -0.2870    0.8890    0.0110 C   0  0  0  0  0  0  0  0  0  0  0  0
  1  2  2  0
  2  3  1  0
  3  4  2  3
  4  5  1  0
  5  6  1  0
  5 16  1  0
  6  7  1  0
  7  8  2  0
  7  9  1  0
  9 10  1  0
 10 11  2  0
 10 16  1  0
 11 12  1  0
 12 13  2  0
 13 14  1  0
 13 15  1  0
 15 16  2  0
M  END
