
     RDKit          3D

 16 16  0  0  0  0  0  0  0  0999 V2000
   -2.6140   -2.6750   -0.1250 C   0  0  0  0  0  0  0  0  0  0  0  0
   -2.8800   -1.4860   -0.6890 C   0  0  0  0  0  0  0  0  0  0  0  0
   -4.2740   -1.1740   -1.0060 C   0  0  0  0  0  0  0  0  0  0  0  0
   -1.8070   -0.5800   -0.9550 C   0  0  0  0  0  0  0  0  0  0  0  0
   -1.8230    0.6010   -1.4820 C   0  0  0  0  0  0  0  0  0  0  0  0
   -2.9870    1.3260   -1.9520 C   0  0  0  0  0  0  0  0  0  0  0  0
   -0.4900   -1.1290   -0.5430 N   0  0  0  0  0  0  0  0  0  0  0  0
    0.0820   -0.6830    0.5000 C   0  0  0  0  0  0  0  0  0  0  0  0
   -0.5760    0.3390    1.2400 N   0  0  0  0  0  0  0  0  0  0  0  0
    1.3990   -1.2340    0.9100 C   0  0  0  0  0  0  0  0  0  0  0  0
    2.3700   -0.2080    0.8800 N   0  0  0  0  0  0  0  0  0  0  0  0
    2.2720    0.8350    1.8270 C   0  0  0  0  0  0  0  0  0  0  0  0
    3.5180    1.6970    1.7560 C   0  0  0  0  0  0  0  0  0  0  0  0
    3.7200    2.1520    0.4430 O   0  0  0  0  0  0  0  0  0  0  0  0
    4.0630    1.0460   -0.3190 C   0  0  0  0  0  0  0  0  0  0  0  0
    2.8550    0.1360   -0.4050 C   0  0  0  0  0  0  0  0  0  0  0  0
  1  2  2  0
  2  3  1  0
  2  4  1  0
  4  5  2  3
  4  7  1  0
  5  6  1  0
  7  8  2  3
  8  9  1  0
  8 10  1  0
 10 11  1  0
 11 12  1  0
 11 16  1  0
 12 13  1  0
 13 14  1  0
 14 15  1  0
 15 16  1  0
M  END
