
     RDKit          3D

 16 17  0  0  0  0  0  0  0  0999 V2000
   -1.9050    2.2030   -0.6910 N   0  0  0  0  0  0  0  0  0  0  0  0
   -1.7860    0.8450   -0.3110 C   0  0  0  0  0  0  0  0  0  0  0  0
   -0.6120    0.2460   -0.2340 C   0  0  0  0  0  0  0  0  0  0  0  0
    0.6110    0.9780   -0.5420 C   0  0  0  0  0  0  0  0  0  0  0  0
    0.4960    2.1760   -0.8760 O   0  0  0  0  0  0  0  0  0  0  0  0
    1.9050    0.4050   -0.4820 N   0  0  0  0  0  0  0  0  0  0  0  0
    1.9730   -0.9920   -0.0870 C   0  0  0  0  0  0  0  0  0  0  0  0
    3.3560   -1.5660   -0.3040 C   0  0  0  0  0  0  0  0  0  0  0  0
    4.3120   -0.5820    0.3870 C   0  0  0  0  0  0  0  0  0  0  0  0
    4.3720    0.6210   -0.5220 C   0  0  0  0  0  0  0  0  0  0  0  0
    3.0440    1.2020   -0.8050 C   0  0  0  0  0  0  0  0  0  0  0  0
   -2.9610    0.1290   -0.0120 N   0  0  0  0  0  0  0  0  0  0  0  0
   -4.0450    0.6040    0.7550 C   0  0  0  0  0  0  0  0  0  0  0  0
   -5.1030   -0.1980    0.5900 C   0  0  0  0  0  0  0  0  0  0  0  0
   -4.7540   -1.2960   -0.3390 C   0  0  0  0  0  0  0  0  0  0  0  0
   -3.2650   -1.2100   -0.4350 C   0  0  0  0  0  0  0  0  0  0  0  0
  1  2  1  0
  2  3  2  3
  2 12  1  0
  3  4  1  0
  4  5  2  0
  4  6  1  0
  6  7  1  0
  6 11  1  0
  7  8  1  0
  8  9  1  0
  9 10  1  0
 10 11  1  0
 12 13  1  0
 12 16  1  0
 13 14  2  0
 14 15  1  0
 15 16  1  0
M  END
