
     RDKit          3D

 16 17  0  0  0  0  0  0  0  0999 V2000
   -3.1180    2.5600   -0.1360 C   0  0  0  0  0  0  0  0  0  0  0  0
   -2.1740    1.9370    0.7930 N   0  0  0  0  0  0  0  0  0  0  0  0
   -1.8980    0.5550    0.7080 C   0  0  0  0  0  0  0  0  0  0  0  0
   -0.6740    0.1300    0.5000 C   0  0  0  0  0  0  0  0  0  0  0  0
   -0.4420   -1.2280    0.4220 C   0  0  0  0  0  0  0  0  0  0  0  0
   -1.4360   -2.1830    0.5530 O   0  0  0  0  0  0  0  0  0  0  0  0
   -2.1770   -2.6820   -0.5440 C   0  0  0  0  0  0  0  0  0  0  0  0
    0.8470   -1.6520    0.2040 C   0  0  0  0  0  0  0  0  0  0  0  0
    1.1350   -3.0980    0.1150 C   0  0  0  0  0  0  0  0  0  0  0  0
    1.8810   -0.7420    0.0660 C   0  0  0  0  0  0  0  0  0  0  0  0
    1.6110    0.6110    0.1490 C   0  0  0  0  0  0  0  0  0  0  0  0
    0.3340    1.0740    0.3670 C   0  0  0  0  0  0  0  0  0  0  0  0
    0.3600    2.3720    0.4010 N   0  0  0  0  0  0  0  0  0  0  0  0
    1.6640    2.8330    0.2060 N   0  0  0  0  0  0  0  0  0  0  0  0
    2.4430    1.8070    0.0510 C   0  0  0  0  0  0  0  0  0  0  0  0
    3.9090    1.7730   -0.1840 C   0  0  0  0  0  0  0  0  0  0  0  0
  1  2  1  0
  2  3  1  0
  3  4  2  3
  4  5  1  0
  4 12  1  0
  5  6  1  0
  5  8  2  0
  6  7  1  0
  8  9  1  0
  8 10  1  0
 10 11  2  0
 11 12  1  0
 11 15  1  0
 12 13  2  0
 13 14  1  0
 14 15  2  0
 15 16  1  0
M  END
