
     RDKit          3D

  9  8  0  0  0  0  0  0  0  0999 V2000
    2.5850    0.2300    0.9240 N   0  0  0  0  0  0  0  0  0  0  0  0
    2.2510   -0.7190   -0.1150 C   0  0  0  0  0  0  0  0  0  0  0  0
    0.9830   -0.3410   -0.8430 C   0  0  0  0  0  0  0  0  0  0  0  0
   -0.1310   -0.3040    0.1560 C   0  0  0  0  0  0  0  0  0  0  0  0
   -1.4650    0.0640   -0.4480 C   0  0  2  0  0  0  0  0  0  0  0  0
   -1.4750    1.3530   -1.0700 N   0  0  0  0  0  0  0  0  0  0  0  0
   -2.4750   -0.0720    0.6350 C   0  0  0  0  0  0  0  0  0  0  0  0
   -3.2000    0.9080    0.8850 O   0  0  0  0  0  0  0  0  0  0  0  0
   -2.5330   -1.2940    1.2910 O   0  0  0  0  0  0  0  0  0  0  0  0
  1  2  1  0
  2  3  1  0
  3  4  1  0
  4  5  1  0
  5  6  1  1
  5  7  1  0
  7  8  2  0
  7  9  1  0
M  CHG  2   1   1   6   1
M  END
