
     RDKit          3D

 22 25  0  0  0  0  0  0  0  0999 V2000
   -0.8550   -1.3490    3.6410 N   0  0  0  0  0  0  0  0  0  0  0  0
   -0.9490   -0.8710    2.5960 C   0  0  0  0  0  0  0  0  0  0  0  0
   -1.0620   -0.2960    1.2810 C   0  0  0  0  0  0  0  0  0  0  0  0
   -0.1140   -0.0460    0.3370 C   0  0  0  0  0  0  0  0  0  0  0  0
    1.3160   -0.3070    0.4220 C   0  0  0  0  0  0  0  0  0  0  0  0
    1.9700   -0.8580    1.4770 C   0  0  0  0  0  0  0  0  0  0  0  0
    3.3520   -1.0770    1.4820 C   0  0  0  0  0  0  0  0  0  0  0  0
    4.0450   -0.7070    0.3530 C   0  0  0  0  0  0  0  0  0  0  0  0
    3.4330   -0.1480   -0.7380 C   0  0  0  0  0  0  0  0  0  0  0  0
    2.0720    0.0490   -0.6970 C   0  0  0  0  0  0  0  0  0  0  0  0
    4.4230    0.1020   -1.6940 O   0  0  0  0  0  0  0  0  0  0  0  0
    5.6230   -0.4740   -1.2790 C   0  0  0  0  0  0  0  0  0  0  0  0
    5.4010   -0.7940    0.0560 O   0  0  0  0  0  0  0  0  0  0  0  0
   -0.7670    0.5070   -0.7220 N   0  0  0  0  0  0  0  0  0  0  0  0
   -2.0770    0.6080   -0.4720 C   0  0  0  0  0  0  0  0  0  0  0  0
   -3.1380    1.0760   -1.1790 N   0  0  0  0  0  0  0  0  0  0  0  0
   -4.3850    1.0690   -0.6970 C   0  0  0  0  0  0  0  0  0  0  0  0
   -5.5090    1.5420   -1.3920 N   0  0  0  0  0  0  0  0  0  0  0  0
   -4.5980    0.5750    0.5480 N   0  0  0  0  0  0  0  0  0  0  0  0
   -3.5860    0.0990    1.2920 C   0  0  0  0  0  0  0  0  0  0  0  0
   -3.7610   -0.3640    2.4510 O   0  0  0  0  0  0  0  0  0  0  0  0
   -2.3170    0.1140    0.7820 C   0  0  0  0  0  0  0  0  0  0  0  0
  1  2  3  0
  2  3  1  0
  3  4  2  0
  3 22  1  0
  4  5  1  0
  4 14  1  0
  5  6  2  0
  5 10  1  0
  6  7  1  0
  7  8  2  0
  8  9  1  0
  8 13  1  0
  9 10  2  0
  9 11  1  0
 11 12  1  0
 12 13  1  0
 14 15  1  0
 15 16  1  0
 15 22  2  0
 16 17  2  0
 17 18  1  0
 17 19  1  0
 19 20  1  0
 20 21  2  0
 20 22  1  0
M  END
