
     RDKit          3D

 21 22  0  0  0  0  0  0  0  0999 V2000
   -2.1430   -2.4450   -0.2840 C   0  0  0  0  0  0  0  0  0  0  0  0
   -2.2810   -2.0740    1.1900 C   0  0  0  0  0  0  0  0  0  0  0  0
   -2.0540   -0.5280    1.3230 C   0  0  0  0  0  0  0  0  0  0  0  0
   -0.6800   -0.2850    0.8210 C   0  0  0  0  0  0  0  0  0  0  0  0
    0.3000   -0.7150    1.5930 C   0  0  0  0  0  0  0  0  0  0  0  0
    0.0840   -1.3830    2.8940 C   0  0  0  0  0  0  0  0  0  0  0  0
    1.7040   -0.6490    1.1100 C   0  0  0  0  0  0  0  0  0  0  0  0
    2.6030   -1.0680    1.8720 O   0  0  0  0  0  0  0  0  0  0  0  0
    1.9890   -0.1150   -0.1980 C   0  0  0  0  0  0  0  0  0  0  0  0
    3.3040   -0.0130   -0.7650 C   0  0  0  0  0  0  0  0  0  0  0  0
    4.5140   -0.2820   -0.4470 C   0  0  0  0  0  0  0  0  0  0  0  0
    5.5940    0.0570   -1.5040 C   0  0  0  0  0  0  0  0  0  0  0  0
    5.0950   -0.8680    0.7610 C   0  0  0  0  0  0  0  0  0  0  0  0
    0.9430    0.3170   -0.9370 C   0  0  0  0  0  0  0  0  0  0  0  0
   -0.4980    0.2760   -0.4810 C   0  0  0  0  0  0  0  0  0  0  0  0
   -1.3050    1.0650   -1.1300 C   0  0  0  0  0  0  0  0  0  0  0  0
   -2.5160    1.7640   -1.0750 C   0  0  0  0  0  0  0  0  0  0  0  0
   -2.9990    2.4430   -2.1630 C   0  0  0  0  0  0  0  0  0  0  0  0
   -4.2750    3.1040   -1.8410 C   0  0  0  0  0  0  0  0  0  0  0  0
   -4.4760    2.8270   -0.4370 C   0  0  0  0  0  0  0  0  0  0  0  0
   -3.4740    2.0690   -0.0530 C   0  0  0  0  0  0  0  0  0  0  0  0
  1  2  1  0
  2  3  1  0
  3  4  1  0
  4  5  2  0
  4 15  1  0
  5  6  1  0
  5  7  1  0
  7  8  2  0
  7  9  1  0
  9 10  1  0
  9 14  2  0
 10 11  2  3
 11 12  1  0
 11 13  1  0
 14 15  1  0
 15 16  2  3
 16 17  1  0
 17 18  2  0
 17 21  1  0
 18 19  1  0
 19 20  1  0
 20 21  2  0
M  END
