
     RDKit          3D

 21 22  0  0  0  0  0  0  0  0999 V2000
   -3.5410    0.9570   -0.3020 C   0  0  0  0  0  0  0  0  0  0  0  0
   -3.2140    2.0260    0.7070 C   0  0  2  0  0  0  0  0  0  0  0  0
   -4.2650    2.1140    1.7610 C   0  0  0  0  0  0  0  0  0  0  0  0
   -3.1270    3.3650   -0.0070 C   0  0  0  0  0  0  0  0  0  0  0  0
   -1.8280    1.7510    1.2820 C   0  0  0  0  0  0  0  0  0  0  0  0
   -1.7420    0.4410    1.9540 C   0  0  0  0  0  0  0  0  0  0  0  0
   -0.4590    0.0650    2.5650 C   0  0  0  0  0  0  0  0  0  0  0  0
    0.7580   -0.1410    1.7960 C   0  0  2  0  0  0  0  0  0  0  0  0
    1.8540   -0.5100    2.8440 C   0  0  0  0  0  0  0  0  0  0  0  0
    1.2550    1.0170    0.9700 C   0  0  0  0  0  0  0  0  0  0  0  0
    2.7070    0.7300    0.5870 C   0  0  0  0  0  0  0  0  0  0  0  0
    2.6530   -0.2890   -0.5630 C   0  0  0  0  0  0  0  0  0  0  0  0
    1.5970   -1.2870   -0.3850 C   0  0  0  0  0  0  0  0  0  0  0  0
    1.3460   -2.2150   -1.2620 C   0  0  0  0  0  0  0  0  0  0  0  0
    2.0200   -2.4390   -2.5180 C   0  0  0  0  0  0  0  0  0  0  0  0
    1.6280   -3.4620   -3.3300 C   0  0  0  0  0  0  0  0  0  0  0  0
    2.4720   -3.4670   -4.5340 C   0  0  0  0  0  0  0  0  0  0  0  0
    3.4040   -2.3610   -4.3690 C   0  0  0  0  0  0  0  0  0  0  0  0
    3.1160   -1.7740   -3.1770 C   0  0  0  0  0  0  0  0  0  0  0  0
    0.7430   -1.2940    0.8370 C   0  0  0  0  0  0  0  0  0  0  0  0
    0.0140   -2.2600    1.0630 O   0  0  0  0  0  0  0  0  0  0  0  0
  2  1  1  6
  2  3  1  0
  2  4  1  0
  2  5  1  0
  5  6  1  0
  6  7  1  0
  7  8  1  0
  8  9  1  1
  8 10  1  0
  8 20  1  0
 10 11  1  0
 11 12  1  0
 12 13  1  0
 13 14  2  3
 13 20  1  0
 14 15  1  0
 15 16  2  0
 15 19  1  0
 16 17  1  0
 17 18  1  0
 18 19  2  0
 20 21  2  0
M  END
