
     RDKit          3D

 21 22  0  0  0  0  0  0  0  0999 V2000
   -1.7470   -2.0720    3.2900 C   0  0  0  0  0  0  0  0  0  0  0  0
   -1.6140   -1.5380    2.0950 C   0  0  0  0  0  0  0  0  0  0  0  0
   -0.5060   -1.8460    1.1840 C   0  0  0  0  0  0  0  0  0  0  0  0
   -0.6620   -1.1380    0.0500 C   0  0  0  0  0  0  0  0  0  0  0  0
    0.2240   -1.1430   -1.1400 C   0  0  2  0  0  0  0  0  0  0  0  0
   -0.6440   -1.7360   -2.2840 C   0  0  0  0  0  0  0  0  0  0  0  0
    1.3470   -2.1050   -0.9500 C   0  0  0  0  0  0  0  0  0  0  0  0
    0.6840    0.2280   -1.5590 C   0  0  0  0  0  0  0  0  0  0  0  0
    1.4310    1.0380   -0.5870 C   0  0  0  0  0  0  0  0  0  0  0  0
    2.7380    0.4730   -0.0870 C   0  0  0  0  0  0  0  0  0  0  0  0
    3.3180    1.5170    0.8720 C   0  0  0  0  0  0  0  0  0  0  0  0
    4.6190    1.0050    1.4000 C   0  0  0  0  0  0  0  0  0  0  0  0
    5.6010    0.8370    0.3250 C   0  0  0  0  0  0  0  0  0  0  0  0
    5.4650    1.1460   -0.8420 O   0  0  0  0  0  0  0  0  0  0  0  0
   -1.8870   -0.3270    0.1570 C   0  0  0  0  0  0  0  0  0  0  0  0
   -2.4170   -0.5870    1.3670 C   0  0  0  0  0  0  0  0  0  0  0  0
   -3.6680    0.2210    1.5500 C   0  0  0  0  0  0  0  0  0  0  0  0
   -3.3990    1.3970    0.6230 C   0  0  0  0  0  0  0  0  0  0  0  0
   -2.7410    0.6370   -0.5210 C   0  0  0  0  0  0  0  0  0  0  0  0
   -2.9460    0.8410   -1.8010 C   0  0  0  0  0  0  0  0  0  0  0  0
   -3.9160    1.9470   -2.1670 C   0  0  0  0  0  0  0  0  0  0  0  0
  1  2  2  0
  2  3  1  0
  2 16  1  0
  3  4  2  0
  4  5  1  0
  4 15  1  0
  5  6  1  6
  5  7  1  0
  5  8  1  0
  8  9  1  0
  9 10  1  0
 10 11  1  0
 11 12  1  0
 12 13  1  0
 13 14  2  0
 15 16  2  0
 15 19  1  0
 16 17  1  0
 17 18  1  0
 18 19  1  0
 19 20  2  3
 20 21  1  0
M  END
