
     RDKit          3D

 21 21  0  0  0  0  0  0  0  0999 V2000
   -3.8800    1.8400    4.3240 C   0  0  0  0  0  0  0  0  0  0  0  0
   -3.0350    1.8480    3.4280 C   0  0  0  0  0  0  0  0  0  0  0  0
   -2.0230    1.8390    2.3260 C   0  0  0  0  0  0  0  0  0  0  0  0
   -1.3820    2.9900    2.1370 C   0  0  0  0  0  0  0  0  0  0  0  0
   -0.3920    2.9930    0.9930 C   0  0  1  0  0  0  0  0  0  0  0  0
    0.6230    4.0850    1.2990 C   0  0  0  0  0  0  0  0  0  0  0  0
   -0.2000    5.3800    1.2930 C   0  0  0  0  0  0  0  0  0  0  0  0
    0.0640    1.6970    0.6760 C   0  0  0  0  0  0  0  0  0  0  0  0
    1.2760    1.6270    0.1560 O   0  0  0  0  0  0  0  0  0  0  0  0
   -0.7040    0.4560    0.8810 C   0  0  0  0  0  0  0  0  0  0  0  0
   -0.2760   -0.8320    0.3800 C   0  0  0  0  0  0  0  0  0  0  0  0
    0.6690   -0.8390   -0.5160 C   0  0  0  0  0  0  0  0  0  0  0  0
    1.3830   -1.8950   -1.2150 C   0  0  0  0  0  0  0  0  0  0  0  0
    2.2020   -1.6000   -2.1450 C   0  0  0  0  0  0  0  0  0  0  0  0
    3.1050   -2.1350   -3.0670 C   0  0  0  0  0  0  0  0  0  0  0  0
    3.6280   -1.1800   -3.9080 C   0  0  0  0  0  0  0  0  0  0  0  0
    3.6810   -3.4630   -3.2200 C   0  0  0  0  0  0  0  0  0  0  0  0
   -0.7540   -2.1730    0.7590 C   0  0  0  0  0  0  0  0  0  0  0  0
   -2.1470   -2.5370    0.3800 C   0  0  0  0  0  0  0  0  0  0  0  0
   -2.3950   -3.9980    0.8070 C   0  0  0  0  0  0  0  0  0  0  0  0
   -1.7020    0.5760    1.7040 C   0  0  0  0  0  0  0  0  0  0  0  0
  1  2  3  0
  2  3  1  0
  3  4  2  0
  3 21  1  0
  4  5  1  0
  5  6  1  1
  5  8  1  0
  6  7  1  0
  8  9  2  0
  8 10  1  0
 10 11  1  0
 10 21  2  0
 11 12  2  3
 11 18  1  0
 12 13  1  0
 13 14  2  3
 14 15  1  0
 15 16  2  0
 15 17  1  0
 18 19  1  0
 19 20  1  0
M  END
