
     RDKit          3D

 24 27  0  0  0  0  0  0  0  0999 V2000
   -3.6200   -3.4350   -0.1290 N   0  0  0  0  0  0  0  0  0  0  0  0
   -3.6720   -2.0170   -0.0570 C   0  0  0  0  0  0  0  0  0  0  0  0
   -4.8650   -1.3320   -0.0320 C   0  0  0  0  0  0  0  0  0  0  0  0
   -4.9380    0.0300    0.0370 C   0  0  0  0  0  0  0  0  0  0  0  0
   -3.7740    0.7540    0.0850 C   0  0  0  0  0  0  0  0  0  0  0  0
   -2.5450    0.0810    0.0610 C   0  0  0  0  0  0  0  0  0  0  0  0
   -2.4890   -1.2860   -0.0080 C   0  0  0  0  0  0  0  0  0  0  0  0
   -1.2190    0.6950    0.0990 C   0  0  0  0  0  0  0  0  0  0  0  0
   -0.0450    0.0500   -0.1960 C   0  0  0  0  0  0  0  0  0  0  0  0
    0.9310    0.9580   -0.0410 N   0  0  0  0  0  0  0  0  0  0  0  0
    2.3390    0.7240   -0.2450 C   0  0  0  0  0  0  0  0  0  0  0  0
    3.1550    1.6630   -0.0670 O   0  0  0  0  0  0  0  0  0  0  0  0
    2.8530   -0.5890   -0.6590 C   0  0  0  0  0  0  0  0  0  0  0  0
    4.3290   -0.5510   -0.7940 C   0  0  0  0  0  0  0  0  0  0  0  0
    5.1230   -0.8530    0.2990 C   0  0  0  0  0  0  0  0  0  0  0  0
    6.4790   -0.8010    0.1100 C   0  0  0  0  0  0  0  0  0  0  0  0
    7.0550   -0.4770   -1.0610 N   0  0  0  0  0  0  0  0  0  0  0  0
    6.2530   -0.1910   -2.0950 C   0  0  0  0  0  0  0  0  0  0  0  0
    4.9280   -0.2290   -1.9580 N   0  0  0  0  0  0  0  0  0  0  0  0
    0.4040    2.1130    0.3300 N   0  0  0  0  0  0  0  0  0  0  0  0
   -0.9320    2.0240    0.4380 C   0  0  0  0  0  0  0  0  0  0  0  0
   -1.8370    3.1030    0.8190 C   0  0  0  0  0  0  0  0  0  0  0  0
   -3.1570    3.1850    0.7120 C   0  0  0  0  0  0  0  0  0  0  0  0
   -3.9910    2.1620    0.1640 N   0  0  0  0  0  0  0  0  0  0  0  0
  1  2  1  0
  2  3  2  0
  2  7  1  0
  3  4  1  0
  4  5  2  0
  5  6  1  0
  5 24  1  0
  6  7  2  0
  6  8  1  0
  8  9  2  0
  8 21  1  0
  9 10  1  0
 10 11  1  0
 10 20  1  0
 11 12  2  0
 11 13  1  0
 13 14  1  0
 14 15  2  0
 14 19  1  0
 15 16  1  0
 16 17  2  0
 17 18  1  0
 18 19  2  0
 20 21  2  0
 21 22  1  0
 22 23  2  0
 23 24  1  0
M  END
