
     RDKit          3D

 24 27  0  0  0  0  0  0  0  0999 V2000
   -6.9250   -1.4130    0.2480 C   0  0  0  0  0  0  0  0  0  0  0  0
   -5.4440   -1.4100    0.2570 C   0  0  0  0  0  0  0  0  0  0  0  0
   -4.7500   -0.3270   -0.1350 C   0  0  0  0  0  0  0  0  0  0  0  0
   -5.2640    0.9510   -0.6080 C   0  0  0  0  0  0  0  0  0  0  0  0
   -6.5160    1.2500   -0.7270 N   0  0  0  0  0  0  0  0  0  0  0  0
   -4.1330    1.7550   -0.8950 N   0  0  0  0  0  0  0  0  0  0  0  0
   -2.9160    1.0380   -0.6230 C   0  0  0  0  0  0  0  0  0  0  0  0
   -1.6010    1.4290   -0.7570 C   0  0  0  0  0  0  0  0  0  0  0  0
   -0.6060    0.5200   -0.4160 C   0  0  0  0  0  0  0  0  0  0  0  0
    0.7380    0.6180   -0.4420 N   0  0  0  0  0  0  0  0  0  0  0  0
    1.2190   -0.5800    0.0000 C   0  0  0  0  0  0  0  0  0  0  0  0
    2.6330   -0.9120    0.1320 C   0  0  0  0  0  0  0  0  0  0  0  0
    2.9640   -2.0440    0.5500 O   0  0  0  0  0  0  0  0  0  0  0  0
    3.6350    0.0320   -0.2070 N   0  0  0  0  0  0  0  0  0  0  0  0
    5.0310   -0.2710   -0.0860 C   0  0  0  0  0  0  0  0  0  0  0  0
    5.5300   -1.4360    0.3450 N   0  0  0  0  0  0  0  0  0  0  0  0
    6.8680   -1.3720    0.3320 C   0  0  0  0  0  0  0  0  0  0  0  0
    7.2000   -0.1220   -0.1250 C   0  0  0  0  0  0  0  0  0  0  0  0
    6.0640    0.5240   -0.3700 N   0  0  0  0  0  0  0  0  0  0  0  0
    5.9260    1.8910   -0.8720 C   0  0  0  0  0  0  0  0  0  0  0  0
    0.1790   -1.4310    0.3050 C   0  0  0  0  0  0  0  0  0  0  0  0
   -0.9750   -0.7270    0.0390 C   0  0  0  0  0  0  0  0  0  0  0  0
   -2.3000   -1.0860    0.1610 C   0  0  0  0  0  0  0  0  0  0  0  0
   -3.2990   -0.2010   -0.1710 C   0  0  0  0  0  0  0  0  0  0  0  0
  1  2  1  0
  2  3  2  3
  3  4  1  0
  3 24  1  0
  4  5  2  0
  4  6  1  0
  6  7  1  0
  7  8  2  0
  7 24  1  0
  8  9  1  0
  9 10  1  0
  9 22  2  0
 10 11  1  0
 11 12  1  0
 11 21  2  0
 12 13  2  0
 12 14  1  0
 14 15  1  0
 15 16  2  0
 15 19  1  0
 16 17  1  0
 17 18  2  0
 18 19  1  0
 19 20  1  0
 21 22  1  0
 22 23  1  0
 23 24  2  0
M  END
