
     RDKit          3D

 24 27  0  0  0  0  0  0  0  0999 V2000
    6.4010    0.4360    0.6500 C   0  0  0  0  0  0  0  0  0  0  0  0
    6.1520   -0.9390    0.1200 C   0  0  0  0  0  0  0  0  0  0  0  0
    5.1000   -0.9470   -0.8160 O   0  0  0  0  0  0  0  0  0  0  0  0
    3.8010   -0.5610   -0.5220 C   0  0  0  0  0  0  0  0  0  0  0  0
    2.9050   -0.6360   -1.5950 C   0  0  0  0  0  0  0  0  0  0  0  0
    1.5850   -0.2670   -1.3800 C   0  0  0  0  0  0  0  0  0  0  0  0
    1.1940    0.1560   -0.1400 C   0  0  0  0  0  0  0  0  0  0  0  0
   -0.1380    0.5260    0.1660 N   0  0  0  0  0  0  0  0  0  0  0  0
   -0.3980    1.6800    0.9500 N   0  0  0  0  0  0  0  0  0  0  0  0
   -1.5890    2.0420    1.2600 C   0  0  0  0  0  0  0  0  0  0  0  0
   -1.7940    3.2060    2.0480 N   0  0  0  0  0  0  0  0  0  0  0  0
   -2.6770    1.2640    0.8040 N   0  0  0  0  0  0  0  0  0  0  0  0
   -2.5380    0.0950    0.0170 C   0  0  0  0  0  0  0  0  0  0  0  0
   -3.4300   -0.8020   -0.5170 C   0  0  0  0  0  0  0  0  0  0  0  0
   -4.8690   -0.8540   -0.4670 C   0  0  0  0  0  0  0  0  0  0  0  0
   -5.7860   -0.1030    0.0720 C   0  0  0  0  0  0  0  0  0  0  0  0
   -7.1310   -0.6570   -0.2090 C   0  0  0  0  0  0  0  0  0  0  0  0
   -6.9050   -1.7190   -0.9090 C   0  0  0  0  0  0  0  0  0  0  0  0
   -5.6240   -1.9420   -1.1300 C   0  0  0  0  0  0  0  0  0  0  0  0
   -2.6260   -1.7040   -1.1550 N   0  0  0  0  0  0  0  0  0  0  0  0
   -1.3560   -1.3860   -1.0220 N   0  0  0  0  0  0  0  0  0  0  0  0
   -1.2190   -0.2650   -0.2980 C   0  0  0  0  0  0  0  0  0  0  0  0
    2.0950    0.2280    0.9280 C   0  0  0  0  0  0  0  0  0  0  0  0
    3.3950   -0.1350    0.7140 C   0  0  0  0  0  0  0  0  0  0  0  0
  1  2  1  0
  2  3  1  0
  3  4  1  0
  4  5  2  0
  4 24  1  0
  5  6  1  0
  6  7  2  0
  7  8  1  0
  7 23  1  0
  8  9  1  0
  8 22  1  0
  9 10  2  0
 10 11  1  0
 10 12  1  0
 12 13  1  0
 13 14  1  0
 13 22  2  0
 14 15  1  0
 14 20  2  0
 15 16  2  0
 15 19  1  0
 16 17  1  0
 17 18  2  0
 18 19  2  0
 20 21  1  0
 21 22  1  0
 23 24  2  0
M  END
