
     RDKit          3D

 19 21  0  0  0  0  0  0  0  0999 V2000
    5.6790    1.4150   -0.4450 N   0  0  0  0  0  0  0  0  0  0  0  0
    4.4080    0.7660   -0.2570 C   0  0  0  0  0  0  0  0  0  0  0  0
    4.2360   -0.5220   -0.6010 N   0  0  0  0  0  0  0  0  0  0  0  0
    3.0630   -1.1450   -0.4360 C   0  0  0  0  0  0  0  0  0  0  0  0
    2.5850   -2.3790   -0.6650 N   0  0  0  0  0  0  0  0  0  0  0  0
    1.3000   -2.4650   -0.2980 C   0  0  0  0  0  0  0  0  0  0  0  0
    0.9220   -1.2080    0.1990 C   0  0  0  0  0  0  0  0  0  0  0  0
   -0.4610   -0.8960    0.6910 C   0  0  0  0  0  0  0  0  0  0  0  0
   -1.2410   -0.1870   -0.3390 C   0  0  0  0  0  0  0  0  0  0  0  0
   -2.6000    0.1920   -0.0150 C   0  0  0  0  0  0  0  0  0  0  0  0
   -2.9720    1.3920    0.5570 C   0  0  0  0  0  0  0  0  0  0  0  0
   -4.2910    1.6770    0.8380 C   0  0  0  0  0  0  0  0  0  0  0  0
   -5.2980    0.7790    0.5610 C   0  0  0  0  0  0  0  0  0  0  0  0
   -4.9430   -0.4220   -0.0100 C   0  0  0  0  0  0  0  0  0  0  0  0
   -3.6180   -0.7000   -0.2880 C   0  0  0  0  0  0  0  0  0  0  0  0
    2.0230   -0.3900    0.1110 C   0  0  0  0  0  0  0  0  0  0  0  0
    2.1970    0.9210    0.4620 C   0  0  0  0  0  0  0  0  0  0  0  0
    1.2380    1.5580    0.9520 O   0  0  0  0  0  0  0  0  0  0  0  0
    3.4000    1.4880    0.2710 N   0  0  0  0  0  0  0  0  0  0  0  0
  1  2  1  0
  2  3  2  0
  2 19  1  0
  3  4  1  0
  4  5  1  0
  4 16  2  0
  5  6  1  0
  6  7  2  0
  7  8  1  0
  7 16  1  0
  8  9  1  0
  9 10  1  0
 10 11  2  0
 10 15  1  0
 11 12  1  0
 12 13  2  0
 13 14  1  0
 14 15  2  0
 16 17  1  0
 17 18  2  0
 17 19  1  0
M  END
