
     RDKit          3D

 24 27  0  0  0  0  0  0  0  0999 V2000
   -6.7250    0.7510   -1.3560 N   0  0  0  0  0  0  0  0  0  0  0  0
   -5.6000    0.1240   -0.7570 C   0  0  0  0  0  0  0  0  0  0  0  0
   -5.5760   -1.2500   -0.6020 C   0  0  0  0  0  0  0  0  0  0  0  0
   -4.4910   -1.8690   -0.0230 C   0  0  0  0  0  0  0  0  0  0  0  0
   -3.4230   -1.1080    0.4020 C   0  0  0  0  0  0  0  0  0  0  0  0
   -3.4480    0.2660    0.2450 C   0  0  0  0  0  0  0  0  0  0  0  0
   -2.3450    1.0650    0.6830 N   0  0  0  0  0  0  0  0  0  0  0  0
   -2.4370    2.1540    1.4240 N   0  0  0  0  0  0  0  0  0  0  0  0
   -1.2080    2.6620    1.6540 C   0  0  0  0  0  0  0  0  0  0  0  0
   -0.2990    1.8330    1.0130 C   0  0  0  0  0  0  0  0  0  0  0  0
    1.0690    1.8550    0.9040 C   0  0  0  0  0  0  0  0  0  0  0  0
    1.7640    0.8750    0.1820 C   0  0  0  0  0  0  0  0  0  0  0  0
    3.1670    1.0320    0.1230 N   0  0  0  0  0  0  0  0  0  0  0  0
    4.0190   -0.0720   -0.0580 C   0  0  0  0  0  0  0  0  0  0  0  0
    3.6810   -1.3400    0.3270 C   0  0  0  0  0  0  0  0  0  0  0  0
    4.5770   -2.3860    0.0840 C   0  0  0  0  0  0  0  0  0  0  0  0
    5.7530   -2.2140   -0.5060 N   0  0  0  0  0  0  0  0  0  0  0  0
    6.1070   -0.9770   -0.8920 C   0  0  0  0  0  0  0  0  0  0  0  0
    7.3530   -0.8490   -1.5080 O   0  0  0  0  0  0  0  0  0  0  0  0
    5.2710    0.0810   -0.6810 C   0  0  0  0  0  0  0  0  0  0  0  0
    1.0320   -0.1080   -0.4150 C   0  0  0  0  0  0  0  0  0  0  0  0
   -0.3580   -0.1250   -0.3000 C   0  0  0  0  0  0  0  0  0  0  0  0
   -1.0500    0.8320    0.4080 C   0  0  0  0  0  0  0  0  0  0  0  0
   -4.5350    0.8150   -0.3270 N   0  0  0  0  0  0  0  0  0  0  0  0
  1  2  1  0
  2  3  2  0
  2 24  1  0
  3  4  1  0
  4  5  2  0
  5  6  1  0
  6  7  1  0
  6 24  2  0
  7  8  1  0
  7 23  1  0
  8  9  2  0
  9 10  1  0
 10 11  2  0
 10 23  1  0
 11 12  1  0
 12 13  1  0
 12 21  2  0
 13 14  1  0
 14 15  2  0
 14 20  1  0
 15 16  1  0
 16 17  2  0
 17 18  1  0
 18 19  1  0
 18 20  2  0
 21 22  1  0
 22 23  2  0
M  END
