
     RDKit          3D

 31 32  0  0  0  0  0  0  0  0999 V2000
   -1.3680    1.6990    0.9890 C   0  0  0  0  0  0  0  0  0  0  0  0
   -1.6570    2.0750   -0.4340 C   0  0  2  0  0  0  0  0  0  0  0  0
   -3.0620    2.4320   -0.7220 C   0  0  0  0  0  0  0  0  0  0  0  0
   -4.1180    1.4360   -0.4960 C   0  0  0  0  0  0  0  0  0  0  0  0
   -4.3440    0.9400    0.8050 N   0  0  0  0  0  0  0  0  0  0  0  0
   -5.2810   -0.1030    1.0180 C   0  0  0  0  0  0  0  0  0  0  0  0
   -5.5490   -0.6220    2.2700 C   0  0  0  0  0  0  0  0  0  0  0  0
   -6.4570   -1.6400    2.4600 C   0  0  0  0  0  0  0  0  0  0  0  0
   -7.1270   -2.1710    1.3840 C   0  0  0  0  0  0  0  0  0  0  0  0
   -6.8610   -1.6550    0.1360 C   0  0  0  0  0  0  0  0  0  0  0  0
   -5.9530   -0.6430   -0.0130 N   0  0  0  0  0  0  0  0  0  0  0  0
   -7.6500   -2.3470   -0.7630 O   0  0  0  0  0  0  0  0  0  0  0  0
   -8.6590   -3.0130   -0.0440 C   0  0  2  0  0  0  0  0  0  0  0  0
   -9.9580   -2.2390   -0.0270 C   0  0  0  0  0  0  0  0  0  0  0  0
   -8.0850   -3.1800    1.2290 O   0  0  0  0  0  0  0  0  0  0  0  0
   -1.1020    1.0420   -1.4000 C   0  0  0  0  0  0  0  0  0  0  0  0
    0.2920    0.8750   -1.3070 O   0  0  0  0  0  0  0  0  0  0  0  0
    1.2420    1.8240   -1.5190 C   0  0  0  0  0  0  0  0  0  0  0  0
    0.9270    2.9750   -1.8270 O   0  0  0  0  0  0  0  0  0  0  0  0
    2.6940    1.3720   -1.3520 C   0  0  1  0  0  0  0  0  0  0  0  0
    2.8450    0.2590   -2.3770 C   0  0  0  0  0  0  0  0  0  0  0  0
    3.6230    2.5140   -1.5950 C   0  0  0  0  0  0  0  0  0  0  0  0
    2.7710    0.8850    0.0490 C   0  0  0  0  0  0  0  0  0  0  0  0
    4.0100    0.4350    0.5280 N   0  0  0  0  0  0  0  0  0  0  0  0
    4.4970   -0.7640   -0.0150 C   0  0  0  0  0  0  0  0  0  0  0  0
    5.7730   -1.1990    0.7320 C   0  0  0  0  0  0  0  0  0  0  0  0
    6.8150   -0.1200    0.5840 C   0  0  0  0  0  0  0  0  0  0  0  0
    8.0980   -0.4810    1.2880 C   0  0  0  0  0  0  0  0  0  0  0  0
    8.7660   -2.0450    0.5630 P   0  0  0  0  0  0  0  0  0  0  0  0
    8.5570   -3.3270    1.6930 O   0  0  0  0  0  0  0  0  0  0  0  0
    8.0550   -2.4170   -0.9630 O   0  0  0  0  0  0  0  0  0  0  0  0
  2  1  1  1
  2  3  1  0
  2 16  1  0
  3  4  1  0
  4  5  1  0
  5  6  1  0
  6  7  2  0
  6 11  1  0
  7  8  1  0
  8  9  2  0
  9 10  1  0
  9 15  1  0
 10 11  2  0
 10 12  1  0
 12 13  1  0
 13 14  1  1
 13 15  1  0
 16 17  1  0
 17 18  1  0
 18 19  2  0
 18 20  1  0
 20 21  1  6
 20 22  1  0
 20 23  1  0
 23 24  1  0
 24 25  1  0
 25 26  1  0
 26 27  1  0
 27 28  1  0
 28 29  1  0
 29 30  1  0
 29 31  1  0
M  END
