
     RDKit          3D

 32 34  0  0  0  0  0  0  0  0999 V2000
   -5.7840    4.0630    0.6040 N   0  0  0  0  0  0  0  0  0  0  0  0
   -5.6610    2.8450   -0.1100 C   0  0  0  0  0  0  0  0  0  0  0  0
   -4.6130    2.0510    0.1670 N   0  0  0  0  0  0  0  0  0  0  0  0
   -4.4410    0.8910   -0.4710 C   0  0  0  0  0  0  0  0  0  0  0  0
   -5.3870    0.5540   -1.4200 C   0  0  0  0  0  0  0  0  0  0  0  0
   -4.9840   -0.6470   -1.9080 N   0  0  0  0  0  0  0  0  0  0  0  0
   -3.8490   -1.0070   -1.2760 C   0  0  0  0  0  0  0  0  0  0  0  0
   -3.5000   -0.0640   -0.3820 N   0  0  0  0  0  0  0  0  0  0  0  0
   -2.3250   -0.0900    0.5020 C   0  0  2  0  0  0  0  0  0  0  0  0
   -1.1530    0.1140   -0.1830 O   0  0  0  0  0  0  0  0  0  0  0  0
   -0.1740   -0.5080    0.5870 C   0  0  2  0  0  0  0  0  0  0  0  0
    1.1300   -0.6320   -0.1630 C   0  0  0  0  0  0  0  0  0  0  0  0
    2.0830   -1.2540    0.6270 O   0  0  0  0  0  0  0  0  0  0  0  0
    3.5600   -1.4220   -0.1550 P   0  0  2  0  0  0  0  0  0  0  0  0
    3.4400   -1.1360   -1.6330 O   0  0  0  0  0  0  0  0  0  0  0  0
    4.0040   -3.0720   -0.0330 O   0  0  0  0  0  0  0  0  0  0  0  0
    4.7850   -0.5410    0.5710 O   0  0  0  0  0  0  0  0  0  0  0  0
    5.1840    0.8610   -0.2120 P   0  0  2  0  0  0  0  0  0  0  0  0
    5.4730    1.9710    0.8000 O   0  0  0  0  0  0  0  0  0  0  0  0
    4.0080    1.4280   -1.2600 O   0  0  0  0  0  0  0  0  0  0  0  0
    6.6200    0.6330   -1.0790 O   0  0  0  0  0  0  0  0  0  0  0  0
    7.8260    0.2050    0.0280 P   0  0  1  0  0  0  0  0  0  0  0  0
    8.2580    1.3810    0.8710 O   0  0  0  0  0  0  0  0  0  0  0  0
    7.1350   -0.9580    1.0730 O   0  0  0  0  0  0  0  0  0  0  0  0
    9.1720   -0.4450   -0.7670 O   0  0  0  0  0  0  0  0  0  0  0  0
   -0.8140   -1.8630    0.8290 C   0  0  1  0  0  0  0  0  0  0  0  0
   -0.2070   -2.5180    1.8950 O   0  0  0  0  0  0  0  0  0  0  0  0
   -2.2310   -1.4460    1.1620 C   0  0  1  0  0  0  0  0  0  0  0  0
   -2.3150   -1.2970    2.5390 O   0  0  0  0  0  0  0  0  0  0  0  0
   -6.4600    1.3660   -1.7050 C   0  0  0  0  0  0  0  0  0  0  0  0
   -7.3250    1.0760   -2.5610 O   0  0  0  0  0  0  0  0  0  0  0  0
   -6.5840    2.5190   -1.0350 N   0  0  0  0  0  0  0  0  0  0  0  0
  1  2  1  0
  2  3  2  0
  2 32  1  0
  3  4  1  0
  4  5  2  0
  4  8  1  0
  5  6  1  0
  5 30  1  0
  6  7  2  0
  7  8  1  0
  9  8  1  6
  9 10  1  0
  9 28  1  0
 10 11  1  0
 11 12  1  6
 11 26  1  0
 12 13  1  0
 13 14  1  0
 14 15  2  0
 14 16  1  6
 14 17  1  0
 17 18  1  0
 18 19  2  0
 18 20  1  6
 18 21  1  0
 21 22  1  0
 22 23  2  0
 22 24  1  1
 22 25  1  0
 26 27  1  1
 26 28  1  0
 28 29  1  1
 30 31  2  0
 30 32  1  0
M  END
