
     RDKit          3D

 32 33  0  0  0  0  0  0  0  0999 V2000
    7.4350   -4.2050   -3.7410 C   0  0  0  0  0  0  0  0  0  0  0  0
    6.0130   -3.7140   -3.7210 C   0  0  0  0  0  0  0  0  0  0  0  0
    5.8980   -2.5240   -2.7620 C   0  0  0  0  0  0  0  0  0  0  0  0
    4.4570   -2.0580   -2.7830 C   0  0  0  0  0  0  0  0  0  0  0  0
    4.2160   -0.9260   -1.9190 N   0  0  0  0  0  0  0  0  0  0  0  0
    4.4180   -0.9400   -0.5280 C   0  0  0  0  0  0  0  0  0  0  0  0
    4.8290   -1.9900    0.0170 O   0  0  0  0  0  0  0  0  0  0  0  0
    4.1640    0.2320    0.3150 C   0  0  2  0  0  0  0  0  0  0  0  0
    4.3070    0.0750    1.6510 O   0  0  0  0  0  0  0  0  0  0  0  0
    3.7220   -0.9270    2.3200 C   0  0  0  0  0  0  0  0  0  0  0  0
    2.3440   -1.3530    1.9990 C   0  0  0  0  0  0  0  0  0  0  0  0
    1.4420   -0.3150    1.6620 O   0  0  0  0  0  0  0  0  0  0  0  0
    1.6560    0.6320    0.6670 C   0  0  0  0  0  0  0  0  0  0  0  0
    0.4880    1.2970    0.3610 C   0  0  0  0  0  0  0  0  0  0  0  0
   -0.7410    1.0350    1.0090 N   0  0  0  0  0  0  0  0  0  0  0  0
   -1.9120    1.7520    0.6150 C   0  0  0  0  0  0  0  0  0  0  0  0
   -3.1400    1.4680    1.4470 C   0  0  1  0  0  0  0  0  0  0  0  0
   -2.8810    1.6300    2.9120 C   0  0  0  0  0  0  0  0  0  0  0  0
   -4.1150    1.3530    3.7360 C   0  0  0  0  0  0  0  0  0  0  0  0
   -4.5240   -0.0120    3.4870 N   0  0  0  0  0  0  0  0  0  0  0  0
   -5.6790   -0.5350    4.1420 C   0  0  0  0  0  0  0  0  0  0  0  0
   -6.3320    0.1810    4.9290 O   0  0  0  0  0  0  0  0  0  0  0  0
   -6.1150   -1.8380    3.9300 O   0  0  0  0  0  0  0  0  0  0  0  0
   -4.1580    2.2230    0.9250 O   0  0  0  0  0  0  0  0  0  0  0  0
   -5.2210    1.5220    0.4080 C   0  0  0  0  0  0  0  0  0  0  0  0
   -6.3050    2.4350   -0.1370 C   0  0  0  0  0  0  0  0  0  0  0  0
   -7.3990    1.5080   -0.6760 C   0  0  0  0  0  0  0  0  0  0  0  0
   -8.4050    2.3220   -1.1800 O   0  0  0  0  0  0  0  0  0  0  0  0
    0.5740    2.2800   -0.6300 C   0  0  0  0  0  0  0  0  0  0  0  0
    1.7720    2.5540   -1.2550 C   0  0  0  0  0  0  0  0  0  0  0  0
    2.9240    1.8820   -0.9390 C   0  0  0  0  0  0  0  0  0  0  0  0
    2.8630    0.9130    0.0320 C   0  0  0  0  0  0  0  0  0  0  0  0
  1  2  1  0
  2  3  1  0
  3  4  1  0
  4  5  1  0
  5  6  1  0
  6  7  2  0
  8  6  1  6
  8  9  1  0
  8 32  1  0
  9 10  1  0
 10 11  1  0
 11 12  1  0
 12 13  1  0
 13 14  2  0
 13 32  1  0
 14 15  1  0
 14 29  1  0
 15 16  1  0
 17 16  1  6
 17 18  1  0
 17 24  1  0
 18 19  1  0
 19 20  1  0
 20 21  1  0
 21 22  2  0
 21 23  1  0
 24 25  1  0
 25 26  1  0
 26 27  1  0
 27 28  1  0
 29 30  2  0
 30 31  1  0
 31 32  2  0
M  END
