
     RDKit          3D

 32 33  0  0  0  0  0  0  0  0999 V2000
   -6.9760   -1.5010    2.5700 C   0  0  0  0  0  0  0  0  0  0  0  0
   -6.4650   -0.2780    2.9090 O   0  0  0  0  0  0  0  0  0  0  0  0
   -5.9840    0.4870    1.8640 C   0  0  0  0  0  0  0  0  0  0  0  0
   -4.7560    0.0110    1.2260 C   0  0  0  0  0  0  0  0  0  0  0  0
   -4.0740   -1.0830    1.7110 C   0  0  0  0  0  0  0  0  0  0  0  0
   -2.9020   -1.5390    1.1450 C   0  0  0  0  0  0  0  0  0  0  0  0
   -2.4000   -0.8680    0.0540 C   0  0  0  0  0  0  0  0  0  0  0  0
   -1.1600   -1.3590   -0.5440 N   0  0  0  0  0  0  0  0  0  0  0  0
   -0.6560   -0.5650   -1.6090 C   0  0  0  0  0  0  0  0  0  0  0  0
    0.6020   -0.9300   -2.2850 C   0  0  0  0  0  0  0  0  0  0  0  0
    1.7630   -0.9990   -1.6600 O   0  0  0  0  0  0  0  0  0  0  0  0
    2.1400   -1.8700   -0.7180 C   0  0  2  0  0  0  0  0  0  0  0  0
    2.2530   -1.2040    0.6260 C   0  0  0  0  0  0  0  0  0  0  0  0
    3.3460   -2.6910   -1.0690 C   0  0  0  0  0  0  0  0  0  0  0  0
    4.5450   -2.0260   -1.4200 N   0  0  0  0  0  0  0  0  0  0  0  0
    5.3400   -1.2110   -0.6240 C   0  0  0  0  0  0  0  0  0  0  0  0
    5.0960   -0.9740    0.5730 O   0  0  0  0  0  0  0  0  0  0  0  0
    6.5370   -0.5640   -1.1330 N   0  0  0  0  0  0  0  0  0  0  0  0
    7.3320    0.2650   -0.3020 C   0  0  0  0  0  0  0  0  0  0  0  0
    8.5910    0.0110   -0.0510 C   0  0  0  0  0  0  0  0  0  0  0  0
    9.4830    0.8310    0.8060 C   0  0  1  0  0  0  0  0  0  0  0  0
   10.5860    1.1760    0.0250 O   0  0  0  0  0  0  0  0  0  0  0  0
    8.8010    1.9200    1.3120 O   0  0  0  0  0  0  0  0  0  0  0  0
    7.4870    2.2120    1.0680 C   0  0  0  0  0  0  0  0  0  0  0  0
    6.7250    1.4440    0.2920 C   0  0  0  0  0  0  0  0  0  0  0  0
   -3.0760    0.2160   -0.4230 C   0  0  0  0  0  0  0  0  0  0  0  0
   -4.2620    0.7060    0.1220 C   0  0  0  0  0  0  0  0  0  0  0  0
   -4.8020    1.7880   -0.4650 O   0  0  0  0  0  0  0  0  0  0  0  0
   -6.1620    2.7560   -0.1930 P   0  0  0  0  0  0  0  0  0  0  0  0
   -5.7200    4.2920    0.7620 C   0  0  0  0  0  0  0  0  0  0  0  0
   -7.0870    3.1350   -1.6010 O   0  0  0  0  0  0  0  0  0  0  0  0
   -7.5150    1.9170   -2.1470 C   0  0  0  0  0  0  0  0  0  0  0  0
  1  2  1  0
  2  3  1  0
  3  4  1  0
  4  5  2  0
  4 27  1  0
  5  6  1  0
  6  7  2  0
  7  8  1  0
  7 26  1  0
  8  9  1  0
  9 10  1  0
 10 11  1  0
 11 12  1  0
 12 13  1  1
 12 14  1  0
 14 15  1  0
 15 16  1  0
 16 17  2  0
 16 18  1  0
 18 19  1  0
 19 20  2  0
 19 25  1  0
 20 21  1  0
 21 22  1  6
 21 23  1  0
 23 24  1  0
 24 25  2  0
 26 27  2  0
 27 28  1  0
 28 29  1  0
 29 30  1  0
 29 31  1  0
 31 32  1  0
M  END
