
     RDKit          3D

 32 32  0  0  0  0  0  0  0  0999 V2000
    7.3640   -1.6290    2.6440 C   0  0  0  0  0  0  0  0  0  0  0  0
    7.6270   -0.6910    1.5520 C   0  0  0  0  0  0  0  0  0  0  0  0
    6.6760   -0.1040    0.8870 C   0  0  0  0  0  0  0  0  0  0  0  0
    5.2820   -0.3690    1.2190 C   0  0  0  0  0  0  0  0  0  0  0  0
    4.9770   -1.1710    2.1450 O   0  0  0  0  0  0  0  0  0  0  0  0
    4.2400    0.2520    0.5280 N   0  0  0  0  0  0  0  0  0  0  0  0
    2.8450    0.1060    0.7200 C   0  0  0  0  0  0  0  0  0  0  0  0
    2.2540   -0.5850    1.7440 C   0  0  0  0  0  0  0  0  0  0  0  0
    0.8540   -0.6970    1.8550 C   0  0  0  0  0  0  0  0  0  0  0  0
    0.0120   -0.1190    0.9400 C   0  0  0  0  0  0  0  0  0  0  0  0
    0.6020    0.5780   -0.0930 C   0  0  0  0  0  0  0  0  0  0  0  0
   -0.2870    1.1940   -1.0850 C   0  0  0  0  0  0  0  0  0  0  0  0
    0.2140    1.8400   -2.0110 O   0  0  0  0  0  0  0  0  0  0  0  0
   -1.6610    1.0730   -1.0140 O   0  0  0  0  0  0  0  0  0  0  0  0
   -2.4870    1.6840   -1.9930 C   0  0  0  0  0  0  0  0  0  0  0  0
   -3.9720    1.3500   -1.6460 C   0  0  0  0  0  0  0  0  0  0  0  0
   -4.1230   -0.0260   -1.6640 N   0  0  0  0  0  0  0  0  0  0  0  0
   -5.2930   -0.7280   -1.5180 C   0  0  0  0  0  0  0  0  0  0  0  0
   -6.0380   -0.8730   -0.2450 C   0  0  1  0  0  0  0  0  0  0  0  0
   -6.5460    0.3480    0.4350 C   0  0  1  0  0  0  0  0  0  0  0  0
   -5.6360    1.0560    1.3600 C   0  0  0  0  0  0  0  0  0  0  0  0
   -7.2790    1.1730   -0.4030 O   0  0  0  0  0  0  0  0  0  0  0  0
   -7.2150   -1.7220   -0.6310 N   0  0  0  0  0  0  0  0  0  0  0  0
   -7.3330   -3.0030   -0.0120 C   0  0  0  0  0  0  0  0  0  0  0  0
   -8.1630   -1.2580   -1.5760 C   0  0  0  0  0  0  0  0  0  0  0  0
   -9.1290   -2.0080   -1.8620 O   0  0  0  0  0  0  0  0  0  0  0  0
    1.9670    0.6910   -0.2050 C   0  0  0  0  0  0  0  0  0  0  0  0
    6.9920    0.8200   -0.2250 C   0  0  2  0  0  0  0  0  0  0  0  0
    6.5080    0.3440   -1.5680 C   0  0  0  0  0  0  0  0  0  0  0  0
    8.7960    1.1750   -0.3180 P   0  0  0  0  0  0  0  0  0  0  0  0
    9.4910    0.5620   -1.7900 O   0  0  0  0  0  0  0  0  0  0  0  0
    9.1270    2.8440   -0.1010 O   0  0  0  0  0  0  0  0  0  0  0  0
  1  2  1  0
  2  3  2  3
  3  4  1  0
  3 28  1  0
  4  5  2  0
  4  6  1  0
  6  7  1  0
  7  8  2  0
  7 27  1  0
  8  9  1  0
  9 10  2  0
 10 11  1  0
 11 12  1  0
 11 27  2  0
 12 13  2  0
 12 14  1  0
 14 15  1  0
 15 16  1  0
 16 17  1  0
 17 18  1  0
 19 18  1  6
 19 20  1  0
 19 23  1  0
 20 21  1  6
 20 22  1  0
 23 24  1  0
 23 25  1  0
 25 26  2  0
 28 29  1  6
 28 30  1  0
 30 31  1  0
 30 32  1  0
M  END
