
     RDKit          3D

 19 19  0  0  0  0  0  0  0  0999 V2000
   -3.1290   -1.0360   -1.4900 C   0  0  0  0  0  0  0  0  0  0  0  0
   -3.1300    0.1660   -0.6230 C   0  0  2  0  0  0  0  0  0  0  0  0
   -3.8650   -0.1020    0.7050 C   0  0  0  0  0  0  0  0  0  0  0  0
   -3.9920    1.1100   -1.2560 O   0  0  0  0  0  0  0  0  0  0  0  0
   -1.8620    0.8920   -0.4180 C   0  0  0  0  0  0  0  0  0  0  0  0
   -0.7110    0.2080    0.1940 C   0  0  1  0  0  0  0  0  0  0  0  0
   -1.0340   -0.2550    1.4620 O   0  0  0  0  0  0  0  0  0  0  0  0
   -0.2010   -0.9600   -0.5910 C   0  0  0  0  0  0  0  0  0  0  0  0
    1.2500   -1.1870   -0.0960 C   0  0  1  0  0  0  0  0  0  0  0  0
    1.9450   -1.7500   -1.2610 C   0  0  0  0  0  0  0  0  0  0  0  0
    3.3380   -2.1200   -1.1670 C   0  0  0  0  0  0  0  0  0  0  0  0
    3.9910   -2.0540   -0.1080 O   0  0  0  0  0  0  0  0  0  0  0  0
    4.0080   -2.5740   -2.2900 O   0  0  0  0  0  0  0  0  0  0  0  0
    1.6740    0.0790    0.5030 C   0  0  2  0  0  0  0  0  0  0  0  0
    3.0020    0.6400    0.1750 C   0  0  0  0  0  0  0  0  0  0  0  0
    1.7100   -0.1370    2.0350 C   0  0  0  0  0  0  0  0  0  0  0  0
    0.5430    1.0740    0.2200 C   0  0  2  0  0  0  0  0  0  0  0  0
    0.4560    2.1380    1.2860 C   0  0  0  0  0  0  0  0  0  0  0  0
    0.6970    1.7690   -1.0900 C   0  0  0  0  0  0  0  0  0  0  0  0
  2  1  1  6
  2  3  1  0
  2  4  1  0
  2  5  1  0
  5  6  1  0
  6  7  1  1
  6  8  1  0
  6 17  1  0
  8  9  1  0
  9 10  1  6
  9 14  1  0
 10 11  1  0
 11 12  2  0
 11 13  1  0
 14 15  1  6
 14 16  1  0
 14 17  1  0
 17 18  1  1
 17 19  1  0
M  END
