
     RDKit          3D

 19 19  0  0  0  0  0  0  0  0999 V2000
    5.3820    1.1470   -0.7060 C   0  0  0  0  0  0  0  0  0  0  0  0
    4.2990    0.1020   -0.5730 C   0  0  1  0  0  0  0  0  0  0  0  0
    5.0100   -1.2190   -0.2750 C   0  0  0  0  0  0  0  0  0  0  0  0
    3.4290    0.3430    0.4570 O   0  0  0  0  0  0  0  0  0  0  0  0
    2.0820    0.3610    0.0160 C   0  0  0  0  0  0  0  0  0  0  0  0
    1.2530    0.6290    1.2160 C   0  0  0  0  0  0  0  0  0  0  0  0
   -0.2000    0.7360    1.1290 C   0  0  0  0  0  0  0  0  0  0  0  0
   -1.0490   -0.3910    0.6830 C   0  0  1  0  0  0  0  0  0  0  0  0
   -0.7700   -1.4650    1.5750 O   0  0  0  0  0  0  0  0  0  0  0  0
   -2.5310   -0.0850    1.0920 C   0  0  1  0  0  0  0  0  0  0  0  0
   -2.4560    0.7830    2.1930 O   0  0  0  0  0  0  0  0  0  0  0  0
   -3.3130    0.5620    0.0270 C   0  0  2  0  0  0  0  0  0  0  0  0
   -3.2440    2.0910    0.0830 C   0  0  0  0  0  0  0  0  0  0  0  0
   -4.8000    0.2250    0.2280 C   0  0  0  0  0  0  0  0  0  0  0  0
   -3.0140    0.1250   -1.2580 O   0  0  0  0  0  0  0  0  0  0  0  0
   -2.4630   -1.1430   -1.1220 C   0  0  0  0  0  0  0  0  0  0  0  0
   -0.9920   -0.8730   -0.7020 C   0  0  1  0  0  0  0  0  0  0  0  0
   -0.4890    0.0910   -1.7400 C   0  0  0  0  0  0  0  0  0  0  0  0
   -0.3040   -2.2140   -0.8680 C   0  0  0  0  0  0  0  0  0  0  0  0
  2  1  1  1
  2  3  1  0
  2  4  1  0
  4  5  1  0
  5  6  1  0
  6  7  1  0
  7  8  1  0
  8  9  1  1
  8 10  1  0
  8 17  1  0
 10 11  1  1
 10 12  1  0
 12 13  1  6
 12 14  1  0
 12 15  1  0
 15 16  1  0
 16 17  1  0
 17 18  1  6
 17 19  1  0
M  END
