
     RDKit          3D

 19 19  0  0  0  0  0  0  0  0999 V2000
    3.6070   -0.8050   -1.5650 C   0  0  0  0  0  0  0  0  0  0  0  0
    3.4840   -0.0910   -0.4650 C   0  0  0  0  0  0  0  0  0  0  0  0
    4.6530    0.6040    0.0530 C   0  0  0  0  0  0  0  0  0  0  0  0
    4.5650    1.3390    1.1680 C   0  0  0  0  0  0  0  0  0  0  0  0
    5.6540    2.0010    1.6730 O   0  0  0  0  0  0  0  0  0  0  0  0
    2.1690   -0.0110    0.2140 C   0  0  0  0  0  0  0  0  0  0  0  0
    1.2570   -0.7630   -0.4990 O   0  0  0  0  0  0  0  0  0  0  0  0
   -0.0220   -0.7580    0.0420 C   0  0  2  0  0  0  0  0  0  0  0  0
   -0.4380   -2.1250    0.5010 C   0  0  0  0  0  0  0  0  0  0  0  0
   -1.7060   -2.0320    1.3180 C   0  0  0  0  0  0  0  0  0  0  0  0
   -2.2930   -0.6460    1.2000 C   0  0  0  0  0  0  0  0  0  0  0  0
   -2.3590   -0.3470   -0.3090 C   0  0  1  0  0  0  0  0  0  0  0  0
   -2.8650   -1.5730   -0.8450 O   0  0  0  0  0  0  0  0  0  0  0  0
   -3.4400    0.6440   -0.4900 C   0  0  0  0  0  0  0  0  0  0  0  0
   -3.1120    1.9010    0.0090 O   0  0  0  0  0  0  0  0  0  0  0  0
   -1.0470   -0.1380   -0.9340 C   0  0  2  0  0  0  0  0  0  0  0  0
   -0.9570   -0.9660   -2.2100 C   0  0  0  0  0  0  0  0  0  0  0  0
   -0.5520    1.2500   -1.1440 C   0  0  0  0  0  0  0  0  0  0  0  0
   -1.2910    2.1290   -2.0740 C   0  0  0  0  0  0  0  0  0  0  0  0
  1  2  2  0
  2  3  1  0
  2  6  1  0
  3  4  2  3
  4  5  1  0
  6  7  1  0
  8  7  1  6
  8  9  1  0
  8 16  1  0
  9 10  1  0
 10 11  1  0
 11 12  1  0
 12 13  1  6
 12 14  1  0
 12 16  1  0
 14 15  1  0
 16 17  1  6
 16 18  1  0
 18 19  1  0
M  END
