
     RDKit          3D

 19 19  0  0  0  0  0  0  0  0999 V2000
   -0.7180    0.3920    2.6260 C   0  0  0  0  0  0  0  0  0  0  0  0
   -1.6840    0.1460    1.4630 C   0  0  0  0  0  0  0  0  0  0  0  0
   -2.9360    0.5010    1.6160 C   0  0  0  0  0  0  0  0  0  0  0  0
   -3.8850    0.2870    0.5380 C   0  0  0  0  0  0  0  0  0  0  0  0
   -5.1990    0.6680    0.7260 O   0  0  0  0  0  0  0  0  0  0  0  0
   -3.4580   -0.2660   -0.5870 C   0  0  0  0  0  0  0  0  0  0  0  0
   -2.0800   -0.6870   -0.8450 C   0  0  2  0  0  0  0  0  0  0  0  0
   -1.6550    0.0800   -2.1100 C   0  0  0  0  0  0  0  0  0  0  0  0
   -2.1560   -2.1460   -1.3080 C   0  0  0  0  0  0  0  0  0  0  0  0
   -1.1600   -0.4880    0.2630 C   0  0  2  0  0  0  0  0  0  0  0  0
   -0.7190   -1.7760    0.6820 O   0  0  0  0  0  0  0  0  0  0  0  0
    0.1010    0.2310   -0.1380 C   0  0  0  0  0  0  0  0  0  0  0  0
    1.2470   -0.2080    0.3450 C   0  0  0  0  0  0  0  0  0  0  0  0
    2.5640    0.4320    0.0120 C   0  0  1  0  0  0  0  0  0  0  0  0
    3.1360    0.8860    1.3370 C   0  0  0  0  0  0  0  0  0  0  0  0
    3.4700   -0.5510   -0.6550 C   0  0  0  0  0  0  0  0  0  0  0  0
    4.7640    0.0470   -1.0120 C   0  0  0  0  0  0  0  0  0  0  0  0
    5.7010    0.2820   -0.2470 O   0  0  0  0  0  0  0  0  0  0  0  0
    4.9540    0.3830   -2.3690 O   0  0  0  0  0  0  0  0  0  0  0  0
  1  2  1  0
  2  3  2  0
  2 10  1  0
  3  4  1  0
  4  5  1  0
  4  6  2  0
  6  7  1  0
  7  8  1  6
  7  9  1  0
  7 10  1  0
 10 11  1  1
 10 12  1  0
 12 13  2  3
 13 14  1  0
 14 15  1  1
 14 16  1  0
 16 17  1  0
 17 18  2  0
 17 19  1  0
M  END
