
     RDKit          3D

 37 40  0  0  0  0  0  0  0  0999 V2000
   -3.7800    4.4970    0.3130 C   0  0  0  0  0  0  0  0  0  0  0  0
   -2.3080    4.2790   -0.0020 C   0  0  0  0  0  0  0  0  0  0  0  0
   -1.8130    3.0580    0.5490 N   0  0  0  0  0  0  0  0  0  0  0  0
   -0.4130    2.8790    0.2400 C   0  0  1  0  0  0  0  0  0  0  0  0
    0.2280    1.8100    1.0430 C   0  0  0  0  0  0  0  0  0  0  0  0
   -0.0420    1.6950    2.4800 C   0  0  0  0  0  0  0  0  0  0  0  0
   -0.9210    0.8590    3.0020 C   0  0  0  0  0  0  0  0  0  0  0  0
   -1.8020   -0.0930    2.4280 C   0  0  0  0  0  0  0  0  0  0  0  0
   -2.8540   -0.3440    3.2290 O   0  0  0  0  0  0  0  0  0  0  0  0
   -1.9270   -0.8940    1.2260 C   0  0  0  0  0  0  0  0  0  0  0  0
   -1.0080   -1.6960    0.6590 C   0  0  0  0  0  0  0  0  0  0  0  0
   -1.4250   -2.4200   -0.5790 C   0  0  0  0  0  0  0  0  0  0  0  0
   -2.6050   -2.3310   -1.1250 C   0  0  0  0  0  0  0  0  0  0  0  0
   -2.8890   -3.1140   -2.3890 C   0  0  0  0  0  0  0  0  0  0  0  0
   -3.6900   -1.5710   -0.5120 C   0  0  2  0  0  0  0  0  0  0  0  0
   -4.4640   -0.7750   -1.5760 C   0  0  0  0  0  0  0  0  0  0  0  0
   -5.5760    0.0030   -0.9890 C   0  0  0  0  0  0  0  0  0  0  0  0
   -5.4620    1.1190   -0.4310 O   0  0  0  0  0  0  0  0  0  0  0  0
   -6.8670   -0.5390   -1.0530 O   0  0  0  0  0  0  0  0  0  0  0  0
   -3.2810   -0.6900    0.5450 C   0  0  0  0  0  0  0  0  0  0  0  0
    0.3240   -1.9780    1.0730 N   0  0  0  0  0  0  0  0  0  0  0  0
    1.5090   -1.2460    1.2550 C   0  0  0  0  0  0  0  0  0  0  0  0
    1.8160   -1.0320    2.4640 O   0  0  0  0  0  0  0  0  0  0  0  0
    2.4570   -0.6910    0.1840 C   0  0  0  0  0  0  0  0  0  0  0  0
    1.9650   -0.2060   -0.9550 C   0  0  0  0  0  0  0  0  0  0  0  0
    3.5740    0.2680   -1.8720 S   0  0  0  0  0  0  0  0  0  0  0  0
    4.6230   -0.2170   -0.6770 C   0  0  0  0  0  0  0  0  0  0  0  0
    3.8200   -0.7160    0.3740 C   0  0  0  0  0  0  0  0  0  0  0  0
    4.7390   -1.1650    1.5030 C   0  0  0  0  0  0  0  0  0  0  0  0
    5.6320   -2.2250    0.8930 C   0  0  0  0  0  0  0  0  0  0  0  0
    6.4960   -1.7030   -0.2190 C   0  0  1  0  0  0  0  0  0  0  0  0
    6.2290   -2.4420   -1.5310 C   0  0  0  0  0  0  0  0  0  0  0  0
    6.1440   -0.2560   -0.4530 C   0  0  0  0  0  0  0  0  0  0  0  0
    0.6950    0.0380   -1.5720 C   0  0  0  0  0  0  0  0  0  0  0  0
    0.3970   -0.7170   -2.5860 O   0  0  0  0  0  0  0  0  0  0  0  0
   -0.3360    0.9540   -1.3100 N   0  0  0  0  0  0  0  0  0  0  0  0
   -0.2780    2.4080   -1.2070 C   0  0  0  0  0  0  0  0  0  0  0  0
  1  2  1  0
  2  3  1  0
  4  3  1  1
  4  5  1  0
  4 37  1  0
  5  6  1  0
  6  7  2  0
  7  8  1  0
  8  9  2  0
  8 10  1  0
 10 11  2  0
 10 20  1  0
 11 12  1  0
 11 21  1  0
 12 13  2  0
 13 14  1  0
 13 15  1  0
 15 16  1  6
 15 20  1  0
 16 17  1  0
 17 18  2  0
 17 19  1  0
 21 22  1  0
 22 23  2  0
 22 24  1  0
 24 25  2  0
 24 28  1  0
 25 26  1  0
 25 34  1  0
 26 27  1  0
 27 28  2  0
 27 33  1  0
 28 29  1  0
 29 30  1  0
 30 31  1  0
 31 32  1  6
 31 33  1  0
 34 35  2  0
 34 36  1  0
 36 37  1  0
M  END
