
     RDKit          3D

 36 39  0  0  0  0  0  0  0  0999 V2000
   -0.4300    3.2370    1.3390 C   0  0  0  0  0  0  0  0  0  0  0  0
    0.9930    3.4740    1.6970 C   0  0  0  0  0  0  0  0  0  0  0  0
    1.9290    2.3840    1.7480 C   0  0  0  0  0  0  0  0  0  0  0  0
    2.3140    1.5730    0.5280 C   0  0  1  0  0  0  0  0  0  0  0  0
    2.9290    2.3710   -0.5320 C   0  0  0  0  0  0  0  0  0  0  0  0
    3.2690    0.5830    1.1140 N   0  0  0  0  0  0  0  0  0  0  0  0
    3.9350   -0.3420    0.2920 C   0  0  0  0  0  0  0  0  0  0  0  0
    3.7930   -0.3940   -0.9300 O   0  0  0  0  0  0  0  0  0  0  0  0
    4.8240   -1.2720    0.9000 N   0  0  0  0  0  0  0  0  0  0  0  0
    5.5600   -2.2660    0.1560 C   0  0  2  0  0  0  0  0  0  0  0  0
    5.1540   -3.6330    0.7030 C   0  0  0  0  0  0  0  0  0  0  0  0
    6.4320   -4.3970    0.6290 C   0  0  0  0  0  0  0  0  0  0  0  0
    7.4020   -3.5640    0.1060 O   0  0  0  0  0  0  0  0  0  0  0  0
    7.0280   -2.2580    0.4310 C   0  0  0  0  0  0  0  0  0  0  0  0
    1.1620    0.7930    0.0880 C   0  0  0  0  0  0  0  0  0  0  0  0
    0.8250   -0.0800    0.9690 O   0  0  0  0  0  0  0  0  0  0  0  0
    0.3150    0.7890   -1.1180 C   0  0  2  0  0  0  0  0  0  0  0  0
    0.8240   -0.1410   -2.2010 C   0  0  0  0  0  0  0  0  0  0  0  0
    0.2500   -1.4190   -2.3350 N   0  0  0  0  0  0  0  0  0  0  0  0
    1.7220    0.1990   -2.9600 O   0  0  0  0  0  0  0  0  0  0  0  0
   -0.0310    2.0810   -1.6990 C   0  0  0  0  0  0  0  0  0  0  0  0
   -1.2710    2.4860   -1.8480 C   0  0  0  0  0  0  0  0  0  0  0  0
   -1.5770    3.8210   -2.4520 C   0  0  0  0  0  0  0  0  0  0  0  0
   -2.4200    1.6750   -1.4220 C   0  0  0  0  0  0  0  0  0  0  0  0
   -2.1700    0.5000   -0.8690 C   0  0  0  0  0  0  0  0  0  0  0  0
   -3.2880   -0.3660   -0.4180 C   0  0  0  0  0  0  0  0  0  0  0  0
   -2.9990   -1.5900    0.1560 C   0  0  0  0  0  0  0  0  0  0  0  0
   -3.9880   -2.4450    0.5970 C   0  0  0  0  0  0  0  0  0  0  0  0
   -5.3280   -2.1000    0.4770 C   0  0  0  0  0  0  0  0  0  0  0  0
   -5.6150   -0.8860   -0.0920 C   0  0  0  0  0  0  0  0  0  0  0  0
   -4.6060   -0.0200   -0.5390 C   0  0  0  0  0  0  0  0  0  0  0  0
   -7.0200   -0.4570   -0.2460 C   0  0  0  0  0  0  0  0  0  0  0  0
   -7.7790   -0.4780    1.0480 C   0  0  0  0  0  0  0  0  0  0  0  0
   -7.7770   -2.1730    1.6820 S   0  0  0  0  0  0  0  0  0  0  0  0
   -6.3730   -3.0400    0.9580 C   0  0  0  0  0  0  0  0  0  0  0  0
   -0.8900    0.1060   -0.7210 O   0  0  0  0  0  0  0  0  0  0  0  0
  1  2  1  0
  2  3  1  0
  3  4  1  0
  4  5  1  6
  4  6  1  0
  4 15  1  0
  6  7  1  0
  7  8  2  0
  7  9  1  0
 10  9  1  1
 10 11  1  0
 10 14  1  0
 11 12  1  0
 12 13  1  0
 13 14  1  0
 15 16  2  0
 17 15  1  1
 17 18  1  0
 17 21  1  0
 17 36  1  0
 18 19  1  0
 18 20  2  0
 21 22  2  0
 22 23  1  0
 22 24  1  0
 24 25  2  0
 25 26  1  0
 25 36  1  0
 26 27  2  0
 26 31  1  0
 27 28  1  0
 28 29  2  0
 29 30  1  0
 29 35  1  0
 30 31  2  0
 30 32  1  0
 32 33  1  0
 33 34  1  0
 34 35  1  0
M  END
