
     RDKit          3D

 37 39  0  0  0  0  0  0  0  0999 V2000
   12.2730    2.0150    2.5340 C   0  0  0  0  0  0  0  0  0  0  0  0
   11.1270    1.7680    2.0270 C   0  0  0  0  0  0  0  0  0  0  0  0
    9.8670    1.5150    1.4810 C   0  0  0  0  0  0  0  0  0  0  0  0
    8.7430    1.2840    1.0160 C   0  0  0  0  0  0  0  0  0  0  0  0
    7.4780    1.0060    0.4790 C   0  0  0  0  0  0  0  0  0  0  0  0
    6.7470    1.8240   -0.3290 C   0  0  0  0  0  0  0  0  0  0  0  0
    5.4440    1.4890   -0.7290 C   0  0  0  0  0  0  0  0  0  0  0  0
    4.8290    0.3410   -0.3430 C   0  0  0  0  0  0  0  0  0  0  0  0
    3.4650   -0.0590   -0.5790 C   0  0  0  0  0  0  0  0  0  0  0  0
    2.8150   -0.5240    0.4820 O   0  0  0  0  0  0  0  0  0  0  0  0
    2.6770   -0.0510   -1.7320 N   0  0  0  0  0  0  0  0  0  0  0  0
    1.3280   -0.5410   -1.4820 N   0  0  0  0  0  0  0  0  0  0  0  0
    0.2450    0.3190   -1.5770 C   0  0  0  0  0  0  0  0  0  0  0  0
    0.4520    1.5150   -1.9870 O   0  0  0  0  0  0  0  0  0  0  0  0
   -1.1200   -0.0960   -1.2040 N   0  0  0  0  0  0  0  0  0  0  0  0
   -1.3220   -1.3770   -0.6390 C   0  0  1  0  0  0  0  0  0  0  0  0
   -1.8040   -1.2960    0.8090 C   0  0  0  0  0  0  0  0  0  0  0  0
   -1.9610   -2.4540   -1.4110 C   0  0  0  0  0  0  0  0  0  0  0  0
   -3.3240   -2.4940   -1.8970 C   0  0  0  0  0  0  0  0  0  0  0  0
   -4.3990   -2.5720   -0.7940 C   0  0  1  0  0  0  0  0  0  0  0  0
   -5.6540   -2.5810   -1.4340 O   0  0  0  0  0  0  0  0  0  0  0  0
   -4.3230   -3.9740   -0.1490 C   0  0  0  0  0  0  0  0  0  0  0  0
   -5.5290   -4.0690    1.1240 S   0  0  2  0  0  0  0  0  0  0  0  0
   -6.7020   -3.2050    0.7350 O   0  0  0  0  0  0  0  0  0  0  0  0
   -4.9150   -3.4940    2.3930 O   0  0  0  0  0  0  0  0  0  0  0  0
   -2.0580    0.9250   -1.4590 C   0  0  1  0  0  0  0  0  0  0  0  0
   -3.4570    0.7430   -1.7140 C   0  0  0  0  0  0  0  0  0  0  0  0
   -3.9680    2.2130   -1.5460 C   0  0  0  0  0  0  0  0  0  0  0  0
   -3.2340    2.5370   -0.2760 C   0  0  0  0  0  0  0  0  0  0  0  0
   -3.4750    3.4390    0.7720 C   0  0  0  0  0  0  0  0  0  0  0  0
   -2.5920    3.5200    1.8290 C   0  0  0  0  0  0  0  0  0  0  0  0
   -1.4520    2.7550    1.9380 C   0  0  0  0  0  0  0  0  0  0  0  0
   -0.4970    2.8410    3.0660 C   0  0  0  0  0  0  0  0  0  0  0  0
   -1.2290    1.8660    0.8920 C   0  0  0  0  0  0  0  0  0  0  0  0
   -2.1100    1.7940   -0.1540 C   0  0  0  0  0  0  0  0  0  0  0  0
    5.5800   -0.5280    0.4950 C   0  0  0  0  0  0  0  0  0  0  0  0
    6.8380   -0.2020    0.8810 C   0  0  0  0  0  0  0  0  0  0  0  0
  1  2  3  0
  2  3  1  0
  3  4  3  0
  4  5  1  0
  5  6  2  0
  5 37  1  0
  6  7  1  0
  7  8  2  0
  8  9  1  0
  8 36  1  0
  9 10  2  0
  9 11  1  0
 11 12  1  0
 12 13  1  0
 13 14  2  0
 13 15  1  0
 15 16  1  0
 26 15  1  1
 16 17  1  1
 16 18  1  0
 18 19  1  0
 19 20  1  0
 20 21  1  6
 20 22  1  0
 23 22  1  6
 23 24  2  0
 23 25  2  0
 26 27  1  0
 26 35  1  0
 27 28  1  0
 28 29  1  0
 29 30  2  0
 29 35  1  0
 30 31  1  0
 31 32  2  0
 32 33  1  0
 32 34  1  0
 34 35  2  0
 36 37  2  0
M  END
