
     RDKit          3D

 37 39  0  0  0  0  0  0  0  0999 V2000
   -8.2300    3.4680    2.3620 C   0  0  0  0  0  0  0  0  0  0  0  0
   -7.4650    2.3620    2.1880 C   0  0  0  0  0  0  0  0  0  0  0  0
   -7.9470    1.0380    2.6420 C   0  0  0  0  0  0  0  0  0  0  0  0
   -8.0540   -0.0330    1.6210 C   0  0  0  0  0  0  0  0  0  0  0  0
   -6.7930   -0.4590    0.9770 C   0  0  0  0  0  0  0  0  0  0  0  0
   -5.7300    0.0120    1.4270 O   0  0  0  0  0  0  0  0  0  0  0  0
   -6.8360   -1.3760   -0.1030 N   0  0  0  0  0  0  0  0  0  0  0  0
   -5.7070   -1.8490   -0.7940 C   0  0  0  0  0  0  0  0  0  0  0  0
   -4.4120   -1.5660   -0.5120 C   0  0  0  0  0  0  0  0  0  0  0  0
   -3.3930   -2.0880   -1.2900 C   0  0  0  0  0  0  0  0  0  0  0  0
   -2.0320   -1.9030   -1.0520 N   0  0  0  0  0  0  0  0  0  0  0  0
   -1.6220   -2.4060    0.5820 C   0  0  0  0  0  0  0  0  0  0  0  0
   -2.6170   -2.6370    0.7320 O   0  0  0  0  0  0  0  0  0  0  0  0
   -0.1980   -2.1030    0.4520 C   0  0  0  0  0  0  0  0  0  0  0  0
    1.0220   -1.8570    0.3520 C   0  0  0  0  0  0  0  0  0  0  0  0
    2.3610   -1.5850    0.2230 C   0  0  0  0  0  0  0  0  0  0  0  0
    3.2070   -2.5480   -0.2970 C   0  0  0  0  0  0  0  0  0  0  0  0
    4.5440   -2.3080   -0.4440 C   0  0  0  0  0  0  0  0  0  0  0  0
    5.0920   -1.0710   -0.0650 C   0  0  0  0  0  0  0  0  0  0  0  0
    6.4690   -0.8930   -0.2510 N   0  0  0  0  0  0  0  0  0  0  0  0
    7.2460    0.2180    0.1000 C   0  0  0  0  0  0  0  0  0  0  0  0
    6.7240    1.2140    0.6470 O   0  0  0  0  0  0  0  0  0  0  0  0
    8.7230    0.2840   -0.1500 C   0  0  1  0  0  0  0  0  0  0  0  0
    9.0830   -0.0620   -1.5430 C   0  0  0  0  0  0  0  0  0  0  0  0
   10.4790    0.9500   -2.1820 S   0  0  0  0  0  0  0  0  0  0  0  0
   10.5640    2.5140   -1.2560 C   0  0  0  0  0  0  0  0  0  0  0  0
    9.2130    2.5580   -0.4840 C   0  0  2  0  0  0  0  0  0  0  0  0
    9.1130    3.8840    0.2610 C   0  0  0  0  0  0  0  0  0  0  0  0
    9.2110    1.4580    0.3500 O   0  0  0  0  0  0  0  0  0  0  0  0
    4.2440   -0.1440    0.4430 C   0  0  0  0  0  0  0  0  0  0  0  0
    2.9150   -0.3660    0.5930 C   0  0  0  0  0  0  0  0  0  0  0  0
   -3.6990   -2.9120   -2.3770 C   0  0  0  0  0  0  0  0  0  0  0  0
   -5.0000   -3.2090   -2.6710 C   0  0  0  0  0  0  0  0  0  0  0  0
   -6.0000   -2.6820   -1.8840 C   0  0  0  0  0  0  0  0  0  0  0  0
   -7.3830   -3.0360   -2.2310 C   0  0  0  0  0  0  0  0  0  0  0  0
   -6.2480    2.5410    1.5780 O   0  0  0  0  0  0  0  0  0  0  0  0
   -5.5920    3.8000    1.5460 C   0  0  0  0  0  0  0  0  0  0  0  0
  1  2  2  0
  2  3  1  0
  2 36  1  0
  3  4  1  0
  4  5  1  0
  5  6  2  0
  5  7  1  0
  7  8  1  0
  8  9  2  0
  8 34  1  0
  9 10  1  0
 10 11  1  0
 10 32  2  0
 11 12  1  0
 12 13  2  0
 12 14  1  0
 14 15  3  0
 15 16  1  0
 16 17  2  0
 16 31  1  0
 17 18  1  0
 18 19  2  0
 19 20  1  0
 19 30  1  0
 20 21  1  0
 21 22  2  0
 23 21  1  6
 23 24  1  0
 23 29  1  0
 24 25  1  0
 25 26  1  0
 26 27  1  0
 27 28  1  1
 27 29  1  0
 30 31  2  0
 32 33  1  0
 33 34  2  0
 34 35  1  0
 36 37  1  0
M  END
