
     RDKit          3D

 37 39  0  0  0  0  0  0  0  0999 V2000
   -3.7170    1.6500   -3.0020 C   0  0  0  0  0  0  0  0  0  0  0  0
   -2.7380    1.6210   -1.9830 O   0  0  0  0  0  0  0  0  0  0  0  0
   -3.1960    2.2180   -0.8130 C   0  0  1  0  0  0  0  0  0  0  0  0
   -3.1560    1.2240    0.3190 C   0  0  0  0  0  0  0  0  0  0  0  0
   -3.3220   -0.1990   -0.1430 C   0  0  0  0  0  0  0  0  0  0  0  0
   -2.1640   -0.7510   -0.8910 C   0  0  0  0  0  0  0  0  0  0  0  0
   -1.8850   -2.2220   -0.5770 C   0  0  0  0  0  0  0  0  0  0  0  0
   -0.9030   -2.3550    0.5930 C   0  0  1  0  0  0  0  0  0  0  0  0
   -1.6390   -3.1860    1.6050 C   0  0  0  0  0  0  0  0  0  0  0  0
   -1.7870   -4.5370    1.3960 C   0  0  0  0  0  0  0  0  0  0  0  0
   -2.4790   -5.2460    2.3730 C   0  0  0  0  0  0  0  0  0  0  0  0
   -2.9970   -4.6390    3.4980 C   0  0  0  0  0  0  0  0  0  0  0  0
   -2.8420   -3.2840    3.6960 C   0  0  0  0  0  0  0  0  0  0  0  0
   -2.1470   -2.5630    2.7190 C   0  0  0  0  0  0  0  0  0  0  0  0
    0.2300   -3.0610    0.2650 O   0  0  0  0  0  0  0  0  0  0  0  0
    1.5660   -2.8710    0.4000 C   0  0  0  0  0  0  0  0  0  0  0  0
    2.2890   -3.1800    1.4060 O   0  0  0  0  0  0  0  0  0  0  0  0
    2.3040   -2.2350   -0.7290 C   0  0  1  0  0  0  0  0  0  0  0  0
    1.8300   -2.8110   -2.0490 C   0  0  0  0  0  0  0  0  0  0  0  0
    2.1560   -0.7310   -0.7690 C   0  0  1  0  0  0  0  0  0  0  0  0
    1.2870   -0.4110   -1.8270 O   0  0  0  0  0  0  0  0  0  0  0  0
    1.6130   -0.2220    0.3910 O   0  0  0  0  0  0  0  0  0  0  0  0
    2.0350    1.0970    0.5180 C   0  0  1  0  0  0  0  0  0  0  0  0
    0.9620    1.8510    1.3010 C   0  0  1  0  0  0  0  0  0  0  0  0
    1.6790    2.9080    2.0460 C   0  0  0  0  0  0  0  0  0  0  0  0
   -0.1500    2.2850    0.3730 C   0  0  0  0  0  0  0  0  0  0  0  0
   -1.2250    2.9660    0.5200 C   0  0  0  0  0  0  0  0  0  0  0  0
   -2.3390    3.4020   -0.4110 C   0  0  1  0  0  0  0  0  0  0  0  0
   -1.9490    4.2120   -1.4410 O   0  0  0  0  0  0  0  0  0  0  0  0
   -2.5080    5.4460   -1.5060 C   0  0  0  0  0  0  0  0  0  0  0  0
    3.3710    1.1090    1.1150 C   0  0  1  0  0  0  0  0  0  0  0  0
    3.4860    0.4360    2.4570 C   0  0  0  0  0  0  0  0  0  0  0  0
    4.2670    0.3080    0.1530 C   0  0  2  0  0  0  0  0  0  0  0  0
    5.3650    1.0280   -0.2470 O   0  0  0  0  0  0  0  0  0  0  0  0
    3.4860   -0.0900   -1.0780 C   0  0  1  0  0  0  0  0  0  0  0  0
    4.3090   -1.0140   -1.7570 O   0  0  0  0  0  0  0  0  0  0  0  0
    4.6830   -0.5560   -3.0080 C   0  0  0  0  0  0  0  0  0  0  0  0
  1  2  1  0
  3  2  1  6
  3  4  1  0
  3 28  1  0
  4  5  1  0
  5  6  1  0
  6  7  1  0
  7  8  1  0
  8  9  1  1
  8 15  1  0
  9 10  2  0
  9 14  1  0
 10 11  1  0
 11 12  2  0
 12 13  1  0
 13 14  2  0
 15 16  1  0
 16 17  2  0
 16 18  1  0
 18 19  1  6
 18 20  1  0
 20 21  1  6
 20 22  1  0
 20 35  1  0
 23 22  1  1
 23 24  1  0
 23 31  1  0
 24 25  1  6
 24 26  1  0
 26 27  2  0
 27 28  1  0
 28 29  1  6
 29 30  1  0
 31 32  1  1
 31 33  1  0
 33 34  1  6
 33 35  1  0
 35 36  1  1
 36 37  1  0
M  END
