
     RDKit          3D

 28 29  0  0  0  0  0  0  0  0999 V2000
    4.2240   -4.2020    1.1050 C   0  0  0  0  0  0  0  0  0  0  0  0
    3.2100   -3.2590    0.5470 C   0  0  0  0  0  0  0  0  0  0  0  0
    3.1520   -2.0330    0.9890 C   0  0  0  0  0  0  0  0  0  0  0  0
    4.0430   -1.6320    1.9760 O   0  0  0  0  0  0  0  0  0  0  0  0
    3.7270   -1.9340    3.3370 C   0  0  0  0  0  0  0  0  0  0  0  0
    2.1670   -1.1090    0.4500 C   0  0  0  0  0  0  0  0  0  0  0  0
    2.0960    0.1700    0.8980 C   0  0  0  0  0  0  0  0  0  0  0  0
    1.1150    1.2050    0.4040 C   0  0  0  0  0  0  0  0  0  0  0  0
    0.5200    1.8530    1.5800 C   0  0  0  0  0  0  0  0  0  0  0  0
   -0.3810    2.7130    1.6470 O   0  0  0  0  0  0  0  0  0  0  0  0
    1.0110    1.5050    2.8540 O   0  0  0  0  0  0  0  0  0  0  0  0
    0.4580    2.1600    3.9840 C   0  0  0  0  0  0  0  0  0  0  0  0
    0.9130    1.6800   -0.7900 C   0  0  0  0  0  0  0  0  0  0  0  0
    0.1480    2.5690   -1.6540 C   0  0  0  0  0  0  0  0  0  0  0  0
   -1.1820    2.5200   -1.8790 C   0  0  0  0  0  0  0  0  0  0  0  0
   -1.7520    3.5070   -2.7800 N   0  0  0  0  0  0  0  0  0  0  0  0
   -2.8310    4.3700   -2.3720 C   0  0  0  0  0  0  0  0  0  0  0  0
   -2.1460    1.5710   -1.3230 C   0  0  0  0  0  0  0  0  0  0  0  0
   -2.0260    0.4860   -0.6100 C   0  0  0  0  0  0  0  0  0  0  0  0
   -2.7140   -0.7250   -1.1710 C   0  0  1  0  0  0  0  0  0  0  0  0
   -3.5680   -0.3380   -2.3920 C   0  0  0  0  0  0  0  0  0  0  0  0
   -4.4710    0.7370   -1.7640 C   0  0  0  0  0  0  0  0  0  0  0  0
   -3.5570    1.8440   -1.5920 O   0  0  0  0  0  0  0  0  0  0  0  0
   -1.9490   -1.8660   -1.4250 N   0  0  0  0  0  0  0  0  0  0  0  0
   -1.1080   -2.6570   -0.6170 C   0  0  0  0  0  0  0  0  0  0  0  0
   -1.4170   -3.9230   -0.4340 O   0  0  0  0  0  0  0  0  0  0  0  0
    0.0380   -2.2140    0.0140 N   0  0  0  0  0  0  0  0  0  0  0  0
    1.2170   -1.5980   -0.5930 C   0  0  0  0  0  0  0  0  0  0  0  0
  1  2  1  0
  2  3  2  3
  3  4  1  0
  3  6  1  0
  4  5  1  0
  6  7  2  0
  6 28  1  0
  7  8  1  0
  8  9  1  0
  8 13  2  0
  9 10  2  0
  9 11  1  0
 11 12  1  0
 13 14  1  0
 14 15  2  0
 15 16  1  0
 15 18  1  0
 16 17  1  0
 18 19  2  0
 18 23  1  0
 19 20  1  0
 20 21  1  6
 20 24  1  0
 21 22  1  0
 22 23  1  0
 24 25  1  0
 25 26  2  0
 25 27  1  0
 27 28  1  0
M  END
