
     RDKit          3D

 28 30  0  0  0  0  0  0  0  0999 V2000
   -7.5140   -1.0590    0.7840 C   0  0  0  0  0  0  0  0  0  0  0  0
   -7.2050    0.3320    1.2970 C   0  0  0  0  0  0  0  0  0  0  0  0
   -5.7130    0.5960    1.2590 C   0  0  0  0  0  0  0  0  0  0  0  0
   -5.1630    0.4890   -0.1450 C   0  0  1  0  0  0  0  0  0  0  0  0
   -5.7880    1.4610   -1.0950 C   0  0  0  0  0  0  0  0  0  0  0  0
   -4.8850    2.6280   -1.3830 C   0  0  0  0  0  0  0  0  0  0  0  0
   -5.2660    3.8240   -1.3480 O   0  0  0  0  0  0  0  0  0  0  0  0
   -3.5140    2.3010   -1.7150 C   0  0  0  0  0  0  0  0  0  0  0  0
   -2.9800    1.2470   -1.0690 C   0  0  0  0  0  0  0  0  0  0  0  0
   -1.5920    0.8580   -1.3660 C   0  0  0  0  0  0  0  0  0  0  0  0
   -0.9290    1.5560   -2.2260 O   0  0  0  0  0  0  0  0  0  0  0  0
   -0.9260   -0.2290   -0.7820 N   0  0  0  0  0  0  0  0  0  0  0  0
   -1.4380   -1.1260    0.2120 C   0  0  0  0  0  0  0  0  0  0  0  0
   -0.4140   -2.2000    0.3840 C   0  0  0  0  0  0  0  0  0  0  0  0
    0.3320   -2.1840   -0.9610 C   0  0  0  0  0  0  0  0  0  0  0  0
    0.4390   -0.6470   -1.1560 C   0  0  2  0  0  0  0  0  0  0  0  0
    1.4580   -0.2030   -0.2580 C   0  0  0  0  0  0  0  0  0  0  0  0
    1.4910    0.0550    0.8680 O   0  0  0  0  0  0  0  0  0  0  0  0
    2.9760   -0.0210   -1.0930 N   0  0  0  0  0  0  0  0  0  0  0  0
    3.7440    0.3190    0.0390 C   0  0  0  0  0  0  0  0  0  0  0  0
    3.5710    0.3660    1.2160 O   0  0  0  0  0  0  0  0  0  0  0  0
    5.1000    0.7050   -0.4780 N   0  0  0  0  0  0  0  0  0  0  0  0
    6.1460    1.1180    0.3360 C   0  0  0  0  0  0  0  0  0  0  0  0
    6.5720    0.1130    1.3870 C   0  0  1  0  0  0  0  0  0  0  0  0
    7.0280   -1.2160    0.8820 C   0  0  0  0  0  0  0  0  0  0  0  0
    8.4360   -0.7170    0.7780 C   0  0  0  0  0  0  0  0  0  0  0  0
    8.0490    0.3670    1.7670 C   0  0  0  0  0  0  0  0  0  0  0  0
   -3.7700    0.5950   -0.1630 O   0  0  0  0  0  0  0  0  0  0  0  0
  1  2  1  0
  2  3  1  0
  4  3  1  1
  4  5  1  0
  4 28  1  0
  5  6  1  0
  6  7  2  0
  6  8  1  0
  8  9  2  0
  9 10  1  0
  9 28  1  0
 10 11  2  0
 10 12  1  0
 12 13  1  0
 12 16  1  0
 13 14  1  0
 14 15  1  0
 15 16  1  0
 16 17  1  1
 17 18  2  0
 17 19  1  0
 19 20  1  0
 20 21  2  0
 20 22  1  0
 22 23  1  0
 24 23  1  6
 24 25  1  0
 24 27  1  0
 25 26  1  0
 26 27  1  0
M  END
