
     RDKit          3D

 28 31  0  0  0  0  0  0  0  0999 V2000
   -4.3140    3.1960   -0.4070 C   0  0  0  0  0  0  0  0  0  0  0  0
   -4.7960    1.9080   -0.7250 O   0  0  0  0  0  0  0  0  0  0  0  0
   -4.5630    0.8170    0.0820 C   0  0  0  0  0  0  0  0  0  0  0  0
   -3.8980    0.9880    1.1330 O   0  0  0  0  0  0  0  0  0  0  0  0
   -5.0580   -0.5270   -0.2350 C   0  0  1  0  0  0  0  0  0  0  0  0
   -5.7810   -0.5740   -1.4220 O   0  0  0  0  0  0  0  0  0  0  0  0
   -6.1110   -1.8640   -1.7440 C   0  0  0  0  0  0  0  0  0  0  0  0
   -5.9940   -2.8330   -0.5890 C   0  0  0  0  0  0  0  0  0  0  0  0
   -4.5570   -2.8970   -0.1110 C   0  0  0  0  0  0  0  0  0  0  0  0
   -3.9470   -1.5580   -0.3660 C   0  0  2  0  0  0  0  0  0  0  0  0
   -2.9190   -1.2030    0.5730 N   0  0  0  0  0  0  0  0  0  0  0  0
   -1.5750   -0.8840    0.1970 C   0  0  0  0  0  0  0  0  0  0  0  0
   -1.3330   -0.9290   -1.0160 O   0  0  0  0  0  0  0  0  0  0  0  0
   -0.6170   -0.5440    1.1760 N   0  0  0  0  0  0  0  0  0  0  0  0
    0.7160   -0.2180    0.8930 C   0  0  0  0  0  0  0  0  0  0  0  0
    1.5460    0.0740    1.9860 C   0  0  0  0  0  0  0  0  0  0  0  0
    2.8720    0.4080    1.8240 C   0  0  0  0  0  0  0  0  0  0  0  0
    3.4400    0.4680    0.5620 C   0  0  0  0  0  0  0  0  0  0  0  0
    2.6680    0.1910   -0.5290 C   0  0  0  0  0  0  0  0  0  0  0  0
    1.3230   -0.1450   -0.3250 C   0  0  0  0  0  0  0  0  0  0  0  0
    3.4420    0.3090   -1.7260 N   0  0  0  0  0  0  0  0  0  0  0  0
    4.7510    0.6760   -1.3460 C   0  0  0  0  0  0  0  0  0  0  0  0
    5.7190    0.8730   -2.1470 O   0  0  0  0  0  0  0  0  0  0  0  0
    4.7850    0.7860    0.1080 C   0  0  1  0  0  0  0  0  0  0  0  0
    5.2940    2.1220    0.5940 C   0  0  0  0  0  0  0  0  0  0  0  0
    6.7700    2.0330    0.1880 C   0  0  0  0  0  0  0  0  0  0  0  0
    7.1160    0.5670    0.2670 C   0  0  0  0  0  0  0  0  0  0  0  0
    5.8400   -0.1640    0.6260 C   0  0  0  0  0  0  0  0  0  0  0  0
  1  2  1  0
  2  3  1  0
  3  4  2  0
  5  3  1  6
  5  6  1  0
  5 10  1  0
  6  7  1  0
  7  8  1  0
  8  9  1  0
  9 10  1  0
 10 11  1  1
 11 12  1  0
 12 13  2  0
 12 14  1  0
 14 15  1  0
 15 16  2  0
 15 20  1  0
 16 17  1  0
 17 18  2  0
 18 19  1  0
 18 24  1  0
 19 20  2  0
 19 21  1  0
 21 22  1  0
 22 23  2  0
 22 24  1  0
 24 25  1  6
 24 28  1  0
 25 26  1  0
 26 27  1  0
 27 28  1  0
M  END
