
     RDKit          3D

 37 39  0  0  0  0  0  0  0  0999 V2000
    6.1810    2.8570    2.3760 O   0  0  0  0  0  0  0  0  0  0  0  0
    5.8690    4.1370    1.5900 P   0  0  0  0  0  0  0  0  0  0  0  0
    4.2720    4.4380    0.9350 O   0  0  0  0  0  0  0  0  0  0  0  0
    3.4490    3.5790    1.5030 O   0  0  0  0  0  0  0  0  0  0  0  0
    3.3400    2.3990    0.7830 C   0  0  0  0  0  0  0  0  0  0  0  0
    2.7070    2.7460   -0.9030 P   0  0  0  0  0  0  0  0  0  0  0  0
    3.1900    0.9790   -2.1830 P   0  0  0  0  0  0  0  0  0  0  0  0
    4.0320   -0.2320   -1.3910 O   0  0  0  0  0  0  0  0  0  0  0  0
    3.7220   -0.5430   -0.1840 O   0  0  0  0  0  0  0  0  0  0  0  0
    3.7580   -1.9420    0.0260 C   0  0  0  0  0  0  0  0  0  0  0  0
    2.8360   -2.3560    1.1130 C   0  0  0  0  0  0  0  0  0  0  0  0
    3.3680   -2.5920    2.2310 O   0  0  0  0  0  0  0  0  0  0  0  0
    1.4930   -2.4940    0.9940 O   0  0  0  0  0  0  0  0  0  0  0  0
    0.5310   -3.0920   -0.2940 P   0  0  0  0  0  0  0  0  0  0  0  0
    0.0150   -4.7020    0.0980 O   0  0  0  0  0  0  0  0  0  0  0  0
    0.8400   -5.2870    0.9210 O   0  0  0  0  0  0  0  0  0  0  0  0
   -0.9290   -2.0120   -0.7290 C   0  0  2  0  0  0  0  0  0  0  0  0
   -2.1560   -2.8280   -0.4620 C   0  0  0  0  0  0  0  0  0  0  0  0
   -3.0120   -3.1060   -1.3390 O   0  0  0  0  0  0  0  0  0  0  0  0
   -2.4200   -3.3370    0.8110 O   0  0  0  0  0  0  0  0  0  0  0  0
   -0.9990   -1.6960   -2.0350 O   0  0  0  0  0  0  0  0  0  0  0  0
   -0.1900   -0.8710   -2.6490 C   0  0  0  0  0  0  0  0  0  0  0  0
    0.8210   -0.0840   -1.8600 C   0  0  1  0  0  0  0  0  0  0  0  0
    1.6240    0.5500   -2.7820 O   0  0  0  0  0  0  0  0  0  0  0  0
    0.2510    0.7300   -0.7680 C   0  0  2  0  0  0  0  0  0  0  0  0
    0.8910    0.4900    0.4790 O   0  0  0  0  0  0  0  0  0  0  0  0
   -1.1760    0.2940   -0.5430 C   0  0  2  0  0  0  0  0  0  0  0  0
   -1.9790    1.2790    0.2600 C   0  0  0  0  0  0  0  0  0  0  0  0
   -3.2390    0.7180    0.4570 O   0  0  0  0  0  0  0  0  0  0  0  0
   -4.0660    1.5610    1.1970 C   0  0  0  0  0  0  0  0  0  0  0  0
   -5.4040    0.9790    1.4120 C   0  0  0  0  0  0  0  0  0  0  0  0
   -5.7490   -0.1470    0.9750 O   0  0  0  0  0  0  0  0  0  0  0  0
   -6.3370    1.7070    2.1350 O   0  0  0  0  0  0  0  0  0  0  0  0
   -7.5730    1.2550    2.3770 O   0  0  0  0  0  0  0  0  0  0  0  0
   -1.0570   -0.9370    0.1490 O   0  0  0  0  0  0  0  0  0  0  0  0
    0.4650    2.5630   -0.9530 P   0  0  0  0  0  0  0  0  0  0  0  0
   -0.0770    3.1210   -2.4990 O   0  0  0  0  0  0  0  0  0  0  0  0
  1  2  2  0
  2  3  1  0
  3  4  1  0
  4  5  1  0
  5  6  1  0
  6  7  1  0
  6 36  1  0
  7  8  1  0
  7 24  1  0
  8  9  1  0
  9 10  1  0
 10 11  1  0
 11 12  2  0
 11 13  1  0
 13 14  1  0
 14 15  1  0
 14 17  1  0
 15 16  1  0
 17 18  1  1
 17 21  1  0
 17 35  1  0
 18 19  2  0
 18 20  1  0
 21 22  1  0
 23 22  1  6
 23 24  1  0
 23 25  1  0
 25 26  1  1
 25 27  1  0
 25 36  1  0
 27 28  1  1
 27 35  1  0
 28 29  1  0
 29 30  1  0
 30 31  1  0
 31 32  2  0
 31 33  1  0
 33 34  1  0
 36 37  1  0
M  END
