
     RDKit          3D

 36 38  0  0  0  0  0  0  0  0999 V2000
    9.1170    2.6880    1.1710 O   0  0  0  0  0  0  0  0  0  0  0  0
    8.1450    2.0800    0.6120 C   0  0  0  0  0  0  0  0  0  0  0  0
    7.5230    0.9980    1.1940 C   0  0  0  0  0  0  0  0  0  0  0  0
    6.4600    0.3650    0.5380 C   0  0  0  0  0  0  0  0  0  0  0  0
    6.0430    0.8100   -0.6580 N   0  0  0  0  0  0  0  0  0  0  0  0
    4.9580    0.1920   -1.3590 C   0  0  2  0  0  0  0  0  0  0  0  0
    3.7110    0.5770   -0.8710 O   0  0  0  0  0  0  0  0  0  0  0  0
    2.8860   -0.3840   -1.3930 C   0  0  2  0  0  0  0  0  0  0  0  0
    1.4960   -0.3700   -0.9010 C   0  0  0  0  0  0  0  0  0  0  0  0
    1.5130   -0.5520    0.4820 O   0  0  0  0  0  0  0  0  0  0  0  0
    0.1640   -0.5770    1.2290 P   0  0  0  0  0  0  0  0  0  0  0  0
    0.9310   -0.6690    2.6710 O   0  0  0  0  0  0  0  0  0  0  0  0
   -0.2050    0.9110    0.5900 O   0  0  0  0  0  0  0  0  0  0  0  0
   -1.1960   -0.5830    1.9400 O   0  0  0  0  0  0  0  0  0  0  0  0
   -2.1710    0.5240    2.3070 P   0  0  0  0  0  0  0  0  0  0  0  0
   -2.8530   -0.2030    3.5920 O   0  0  0  0  0  0  0  0  0  0  0  0
   -0.8400    1.5270    2.5650 O   0  0  0  0  0  0  0  0  0  0  0  0
   -2.8590    0.4920    0.8210 O   0  0  0  0  0  0  0  0  0  0  0  0
   -4.1940    0.2180    0.8460 C   0  0  1  0  0  0  0  0  0  0  0  0
   -4.9920    1.1230    0.1990 O   0  0  0  0  0  0  0  0  0  0  0  0
   -5.7060    0.6120   -0.8540 C   0  0  2  0  0  0  0  0  0  0  0  0
   -6.6370    1.7160   -1.3550 C   0  0  0  0  0  0  0  0  0  0  0  0
   -5.8030    2.7670   -1.7430 O   0  0  0  0  0  0  0  0  0  0  0  0
   -6.5540   -0.5820   -0.5220 C   0  0  1  0  0  0  0  0  0  0  0  0
   -7.0410   -1.0860   -1.7340 O   0  0  0  0  0  0  0  0  0  0  0  0
   -5.7750   -1.6390    0.2060 C   0  0  2  0  0  0  0  0  0  0  0  0
   -6.2490   -1.8210    1.5100 O   0  0  0  0  0  0  0  0  0  0  0  0
   -4.3530   -1.1960    0.2880 C   0  0  1  0  0  0  0  0  0  0  0  0
   -3.6530   -1.3220   -0.9140 O   0  0  0  0  0  0  0  0  0  0  0  0
    3.5710   -1.6710   -0.9520 C   0  0  1  0  0  0  0  0  0  0  0  0
    3.1240   -2.7760   -1.6640 O   0  0  0  0  0  0  0  0  0  0  0  0
    5.0150   -1.3160   -1.3290 C   0  0  1  0  0  0  0  0  0  0  0  0
    5.1990   -1.8620   -2.6090 O   0  0  0  0  0  0  0  0  0  0  0  0
    6.6620    1.8670   -1.2100 C   0  0  0  0  0  0  0  0  0  0  0  0
    6.2660    2.2740   -2.3240 O   0  0  0  0  0  0  0  0  0  0  0  0
    7.6960    2.4920   -0.5850 N   0  0  0  0  0  0  0  0  0  0  0  0
  1  2  2  0
  2  3  1  0
  2 36  1  0
  3  4  2  0
  4  5  1  0
  6  5  1  1
  5 34  1  0
  6  7  1  0
  6 32  1  0
  7  8  1  0
  8  9  1  1
  8 30  1  0
  9 10  1  0
 10 11  1  0
 11 12  1  0
 11 13  1  0
 11 14  1  0
 14 15  1  0
 15 16  1  0
 15 17  1  0
 15 18  1  0
 19 18  1  6
 19 20  1  0
 19 28  1  0
 20 21  1  0
 21 22  1  1
 21 24  1  0
 22 23  1  0
 24 25  1  6
 24 26  1  0
 26 27  1  1
 26 28  1  0
 28 29  1  6
 30 31  1  6
 30 32  1  0
 32 33  1  6
 34 35  2  0
 34 36  1  0
M  END
