
     RDKit          3D

 37 38  0  0  0  0  0  0  0  0999 V2000
   -5.2780   -0.6140   -3.0160 O   0  0  0  0  0  0  0  0  0  0  0  0
   -4.0260   -0.6700   -2.0940 P   0  0  0  0  0  0  0  0  0  0  0  0
   -4.2540    0.0250   -0.3630 C   0  0  1  0  0  0  0  0  0  0  0  0
   -5.3930   -0.6900    0.3270 C   0  0  0  0  0  0  0  0  0  0  0  0
   -5.6670   -0.2370    1.6160 O   0  0  0  0  0  0  0  0  0  0  0  0
   -6.0720    1.0530    1.8390 C   0  0  0  0  0  0  0  0  0  0  0  0
   -6.2030    1.8470    0.8830 O   0  0  0  0  0  0  0  0  0  0  0  0
   -6.3340    1.4630    3.1440 O   0  0  0  0  0  0  0  0  0  0  0  0
   -2.9860   -0.2750    0.4070 C   0  0  1  0  0  0  0  0  0  0  0  0
   -2.8240   -1.6740    0.4340 O   0  0  0  0  0  0  0  0  0  0  0  0
   -1.8610    0.2220   -0.2510 O   0  0  0  0  0  0  0  0  0  0  0  0
   -0.7100   -0.1280    0.4270 C   0  0  2  0  0  0  0  0  0  0  0  0
    0.0210    1.0860    0.9060 C   0  0  0  0  0  0  0  0  0  0  0  0
    0.4890    0.9870    2.2290 O   0  0  0  0  0  0  0  0  0  0  0  0
    1.7450    1.3260    2.6870 C   0  0  0  0  0  0  0  0  0  0  0  0
    1.8910    1.3470    3.9360 O   0  0  0  0  0  0  0  0  0  0  0  0
    2.7520    1.6160    1.8300 O   0  0  0  0  0  0  0  0  0  0  0  0
    2.8330    2.5000    0.8580 O   0  0  0  0  0  0  0  0  0  0  0  0
    4.0900    2.8420    0.6920 O   0  0  0  0  0  0  0  0  0  0  0  0
    4.9550    1.7320    0.6160 C   0  0  0  0  0  0  0  0  0  0  0  0
    5.7330    1.7290   -0.6440 C   0  0  0  0  0  0  0  0  0  0  0  0
    6.6850    2.5410   -0.7300 O   0  0  0  0  0  0  0  0  0  0  0  0
    5.3690    0.8440   -1.6360 O   0  0  0  0  0  0  0  0  0  0  0  0
    4.6950   -0.7410   -1.4390 P   0  0  0  0  0  0  0  0  0  0  0  0
    5.0470   -1.6740   -2.8590 O   0  0  0  0  0  0  0  0  0  0  0  0
    2.8520   -0.6200   -1.2780 C   0  0  1  0  0  0  0  0  0  0  0  0
    2.1860   -0.6840   -2.5000 O   0  0  0  0  0  0  0  0  0  0  0  0
    0.5270   -0.2810   -2.0750 P   0  0  0  0  0  0  0  0  0  0  0  0
   -0.5580   -0.8290   -3.3170 O   0  0  0  0  0  0  0  0  0  0  0  0
    0.1760   -1.0410   -0.4450 C   0  0  1  0  0  0  0  0  0  0  0  0
    1.2100   -1.5600    0.2400 O   0  0  0  0  0  0  0  0  0  0  0  0
    2.4190   -1.6940   -0.3340 C   0  0  2  0  0  0  0  0  0  0  0  0
    3.3820   -1.7430    0.6740 O   0  0  0  0  0  0  0  0  0  0  0  0
    2.5640   -3.3190   -1.2560 P   0  0  0  0  0  0  0  0  0  0  0  0
    3.8950   -4.0370   -1.4730 O   0  0  0  0  0  0  0  0  0  0  0  0
   -3.1270    0.3160    2.1440 P   0  0  0  0  0  0  0  0  0  0  0  0
   -2.9880    1.8250    2.4580 O   0  0  0  0  0  0  0  0  0  0  0  0
  1  2  2  0
  2  3  1  0
  3  4  1  1
  3  9  1  0
  4  5  1  0
  5  6  1  0
  6  7  2  0
  6  8  1  0
  9 10  1  1
  9 11  1  0
  9 36  1  0
 12 11  1  6
 12 13  1  0
 12 30  1  0
 13 14  1  0
 14 15  1  0
 15 16  2  0
 15 17  1  0
 17 18  1  0
 18 19  1  0
 19 20  1  0
 20 21  1  0
 21 22  2  0
 21 23  1  0
 23 24  1  0
 24 25  1  0
 26 24  1  6
 26 27  1  0
 26 32  1  0
 27 28  1  0
 28 29  1  0
 28 30  1  0
 30 31  1  1
 31 32  1  0
 32 33  1  1
 32 34  1  0
 34 35  2  0
 36 37  2  0
M  END
