
     RDKit          3D

 37 41  0  0  0  0  0  0  0  0999 V2000
   -0.6790   -3.5350   -2.2330 C   0  0  0  0  0  0  0  0  0  0  0  0
   -1.3300   -2.6740   -1.1680 C   0  0  2  0  0  0  0  0  0  0  0  0
   -0.9460   -3.2490    0.1790 C   0  0  0  0  0  0  0  0  0  0  0  0
   -2.8520   -2.7860   -1.2680 C   0  0  0  0  0  0  0  0  0  0  0  0
   -3.4110   -1.9560   -0.3090 O   0  0  0  0  0  0  0  0  0  0  0  0
   -4.1890   -2.6140    0.5310 O   0  0  0  0  0  0  0  0  0  0  0  0
   -4.9240   -1.7040    1.1480 O   0  0  0  0  0  0  0  0  0  0  0  0
   -3.8760   -0.4760    1.7490 P   0  0  0  0  0  0  0  0  0  0  0  0
   -4.6780    1.0310    1.9680 O   0  0  0  0  0  0  0  0  0  0  0  0
   -2.3970   -0.3590    0.9060 O   0  0  0  0  0  0  0  0  0  0  0  0
   -2.1170    1.1490    0.1700 P   0  0  0  0  0  0  0  0  0  0  0  0
   -3.2110    2.7880    1.0890 P   0  0  0  0  0  0  0  0  0  0  0  0
   -2.5270    3.1850    2.6400 O   0  0  0  0  0  0  0  0  0  0  0  0
   -3.2650    4.5490   -0.2130 P   0  0  0  0  0  0  0  0  0  0  0  0
   -2.8120    4.1860   -1.8310 O   0  0  0  0  0  0  0  0  0  0  0  0
   -4.8150    5.3250   -0.1420 O   0  0  0  0  0  0  0  0  0  0  0  0
   -0.4990    1.5060   -0.1870 O   0  0  0  0  0  0  0  0  0  0  0  0
    0.3500    0.3740   -0.1700 C   0  0  1  0  0  0  0  0  0  0  0  0
   -0.4990   -0.7270   -0.0800 O   0  0  0  0  0  0  0  0  0  0  0  0
   -0.8870   -1.2310   -1.2940 C   0  0  0  0  0  0  0  0  0  0  0  0
    1.0170    0.3130   -1.3510 O   0  0  0  0  0  0  0  0  0  0  0  0
    2.3580    0.2040   -1.3430 C   0  0  2  0  0  0  0  0  0  0  0  0
    2.7300   -0.6570   -2.4030 O   0  0  0  0  0  0  0  0  0  0  0  0
    2.5690   -1.8650   -1.9960 O   0  0  0  0  0  0  0  0  0  0  0  0
    2.7410   -1.9650   -0.6450 C   0  0  0  0  0  0  0  0  0  0  0  0
    2.9530   -0.5100   -0.1890 C   0  0  1  0  0  0  0  0  0  0  0  0
    4.3020   -0.3290   -0.1330 O   0  0  0  0  0  0  0  0  0  0  0  0
    4.5940    1.1520   -1.0140 P   0  0  0  0  0  0  0  0  0  0  0  0
    5.2040    2.4040    0.1950 C   0  0  0  0  0  0  0  0  0  0  0  0
    6.1830    1.8070    1.0210 O   0  0  0  0  0  0  0  0  0  0  0  0
    7.2000    1.3710    0.3120 O   0  0  0  0  0  0  0  0  0  0  0  0
    2.9310    1.4590   -1.4880 O   0  0  0  0  0  0  0  0  0  0  0  0
    2.3590   -0.2750    1.0260 O   0  0  0  0  0  0  0  0  0  0  0  0
    1.2570    0.5330    1.0000 C   0  0  1  0  0  0  0  0  0  0  0  0
    1.4700    1.9880    1.3560 C   0  0  0  0  0  0  0  0  0  0  0  0
    0.2920    1.9300    2.1400 O   0  0  0  0  0  0  0  0  0  0  0  0
    0.6040    0.5920    2.3530 C   0  0  0  0  0  0  0  0  0  0  0  0
  2  1  1  6
  2  3  1  0
  2  4  1  0
  2 20  1  0
  4  5  1  0
  5  6  1  0
  6  7  1  0
  7  8  1  0
  8  9  1  0
  8 10  1  0
 10 11  1  0
 11 12  1  0
 11 17  1  0
 12 13  1  0
 12 14  1  0
 14 15  1  0
 14 16  1  0
 18 17  1  6
 18 19  1  0
 18 21  1  0
 18 34  1  0
 19 20  1  0
 22 21  1  1
 22 23  1  0
 22 26  1  0
 22 32  1  0
 23 24  1  0
 24 25  1  0
 26 25  1  6
 26 27  1  0
 26 33  1  0
 27 28  1  0
 28 29  1  0
 28 32  1  0
 29 30  1  0
 30 31  1  0
 33 34  1  0
 34 35  1  6
 34 37  1  0
 35 36  1  0
 36 37  1  0
M  END
