
     RDKit          3D

 12 13  0  0  0  0  0  0  0  0999 V2000
    3.0620    0.1250    0.1280 C   0  0  0  0  0  0  0  0  0  0  0  0
    1.5580    0.1750    0.0760 C   0  0  0  0  0  0  0  0  0  0  0  0
    0.7130   -0.9040   -0.0720 C   0  0  0  0  0  0  0  0  0  0  0  0
   -0.6140   -0.4440   -0.0740 C   0  0  0  0  0  0  0  0  0  0  0  0
   -1.7440   -1.1540   -0.1930 N   0  0  0  0  0  0  0  0  0  0  0  0
   -2.9720   -0.6220   -0.1840 C   0  0  0  0  0  0  0  0  0  0  0  0
   -4.0010   -1.3590   -0.3020 O   0  0  0  0  0  0  0  0  0  0  0  0
   -3.0640    1.0640   -0.0070 S   0  0  0  0  0  0  0  0  0  0  0  0
   -1.5310    1.8100    0.1320 C   0  0  0  0  0  0  0  0  0  0  0  0
   -1.3340    3.0480    0.2720 O   0  0  0  0  0  0  0  0  0  0  0  0
   -0.4910    0.9010    0.0750 C   0  0  0  0  0  0  0  0  0  0  0  0
    0.8030    1.2270    0.1590 O   0  0  0  0  0  0  0  0  0  0  0  0
  1  2  1  0
  2  3  2  0
  2 12  1  0
  3  4  1  0
  4  5  1  0
  4 11  2  0
  5  6  1  0
  6  7  2  0
  6  8  1  0
  8  9  1  0
  9 10  2  0
  9 11  1  0
 11 12  1  0
M  END
