
     RDKit          3D

 12 13  0  0  0  0  0  0  0  0999 V2000
    3.9960    0.2460   -0.1310 C   0  0  0  0  0  0  0  0  0  0  0  0
    2.6400    0.0650   -0.5120 O   0  0  0  0  0  0  0  0  0  0  0  0
    1.6240    0.2020    0.4220 C   0  0  0  0  0  0  0  0  0  0  0  0
    1.9750    0.4890    1.5950 O   0  0  0  0  0  0  0  0  0  0  0  0
    0.2160    0.0260    0.0780 C   0  0  0  0  0  0  0  0  0  0  0  0
   -0.2980   -0.2940   -1.1890 C   0  0  0  0  0  0  0  0  0  0  0  0
   -1.6450   -0.3720   -1.1150 C   0  0  0  0  0  0  0  0  0  0  0  0
   -2.0060   -0.1080    0.1850 C   0  0  0  0  0  0  0  0  0  0  0  0
   -0.8430    0.1260    0.8650 N   0  0  0  0  0  0  0  0  0  0  0  0
   -3.4440   -0.1700    0.4310 C   0  0  0  0  0  0  0  0  0  0  0  0
   -4.1630    0.1800   -0.7030 O   0  0  0  0  0  0  0  0  0  0  0  0
   -3.2010   -0.6460   -1.9160 S   0  0  0  0  0  0  0  0  0  0  0  0
  1  2  1  0
  2  3  1  0
  3  4  2  0
  3  5  1  0
  5  6  2  0
  5  9  1  0
  6  7  1  0
  7  8  2  0
  7 12  1  0
  8  9  1  0
  8 10  1  0
 10 11  1  0
 11 12  1  0
M  END
