
     RDKit          3D

 12 13  0  0  0  0  0  0  0  0999 V2000
   -2.2520    2.4220    0.3340 O   0  0  0  0  0  0  0  0  0  0  0  0
   -1.8110    1.2530    0.1720 C   0  0  0  0  0  0  0  0  0  0  0  0
   -2.5130    0.0030   -0.0340 C   0  0  0  0  0  0  0  0  0  0  0  0
   -1.6140   -0.9550   -0.1500 C   0  0  0  0  0  0  0  0  0  0  0  0
   -0.2430   -0.4240   -0.0320 C   0  0  0  0  0  0  0  0  0  0  0  0
   -0.3910    0.9310    0.1660 C   0  0  0  0  0  0  0  0  0  0  0  0
    1.0720    1.8040    0.3380 S   0  0  0  0  0  0  0  0  0  0  0  0
    2.4620    0.7990    0.2290 C   0  0  0  0  0  0  0  0  0  0  0  0
    3.6190    1.2570    0.3300 O   0  0  0  0  0  0  0  0  0  0  0  0
    2.1760   -0.4920    0.0280 N   0  0  0  0  0  0  0  0  0  0  0  0
    0.9780   -1.0590   -0.0910 C   0  0  0  0  0  0  0  0  0  0  0  0
    0.9370   -2.3350   -0.2820 O   0  0  0  0  0  0  0  0  0  0  0  0
  1  2  2  0
  2  3  1  0
  2  6  1  0
  3  4  2  0
  4  5  1  0
  5  6  2  0
  5 11  1  0
  6  7  1  0
  7  8  1  0
  8  9  2  0
  8 10  1  0
 10 11  1  0
 11 12  2  0
M  END
