
     RDKit          3D

 12 13  0  0  0  0  0  0  0  0999 V2000
    3.9140   -1.4930    0.4160 O   0  0  0  0  0  0  0  0  0  0  0  0
    2.7600   -0.9650    0.3100 C   0  0  0  0  0  0  0  0  0  0  0  0
    2.6320    0.3240   -0.0860 N   0  0  0  0  0  0  0  0  0  0  0  0
    1.4910    0.9810   -0.2330 C   0  0  0  0  0  0  0  0  0  0  0  0
    1.6120    2.2020   -0.6200 O   0  0  0  0  0  0  0  0  0  0  0  0
    0.2180    0.4970   -0.0170 C   0  0  0  0  0  0  0  0  0  0  0  0
   -0.0640   -0.7850    0.3970 C   0  0  0  0  0  0  0  0  0  0  0  0
    1.2980   -1.7690    0.6350 S   0  0  0  0  0  0  0  0  0  0  0  0
   -1.4690   -1.1520    0.5830 C   0  0  0  0  0  0  0  0  0  0  0  0
   -2.3160   -0.4310   -0.4240 C   0  0  0  0  0  0  0  0  0  0  0  0
   -2.1050    0.8890   -0.5510 O   0  0  0  0  0  0  0  0  0  0  0  0
   -0.9140    1.4330   -0.2510 C   0  0  0  0  0  0  0  0  0  0  0  0
  1  2  2  0
  2  3  1  0
  2  8  1  0
  3  4  1  0
  4  5  2  0
  4  6  1  0
  6  7  2  0
  6 12  1  0
  7  8  1  0
  7  9  1  0
  9 10  1  0
 10 11  1  0
 11 12  1  0
M  END
