
     RDKit          3D

 12 13  0  0  0  0  0  0  0  0999 V2000
    0.8370    2.7350    0.3300 O   0  0  0  0  0  0  0  0  0  0  0  0
    0.9430    1.5080    0.1530 C   0  0  0  0  0  0  0  0  0  0  0  0
    2.1620    0.9460    0.0470 N   0  0  0  0  0  0  0  0  0  0  0  0
    2.3290   -0.3770   -0.1440 C   0  0  0  0  0  0  0  0  0  0  0  0
    3.9700   -1.1080   -0.2840 S   0  0  0  0  0  0  0  0  0  0  0  0
    1.1860   -1.1460   -0.2280 C   0  0  0  0  0  0  0  0  0  0  0  0
   -0.0870   -0.5900   -0.1210 C   0  0  0  0  0  0  0  0  0  0  0  0
   -0.2300    0.7680    0.0740 C   0  0  0  0  0  0  0  0  0  0  0  0
   -1.4770    1.3750    0.1880 O   0  0  0  0  0  0  0  0  0  0  0  0
   -2.6130    0.5370    0.3500 C   0  0  0  0  0  0  0  0  0  0  0  0
   -2.4460   -0.7220   -0.4840 C   0  0  0  0  0  0  0  0  0  0  0  0
   -1.2240   -1.3810   -0.2090 O   0  0  0  0  0  0  0  0  0  0  0  0
  1  2  2  0
  2  3  1  0
  2  8  1  0
  3  4  1  0
  4  5  1  0
  4  6  2  0
  6  7  1  0
  7  8  2  0
  7 12  1  0
  8  9  1  0
  9 10  1  0
 10 11  1  0
 11 12  1  0
M  END
