
     RDKit          3D

 10 10  0  0  0  0  0  0  0  0999 V2000
   -1.9630    1.6030    0.1040 C   0  0  0  0  0  0  0  0  0  0  0  0
   -0.8200    0.9030   -0.5190 C   0  0  0  0  0  0  0  0  0  0  0  0
   -0.5140    1.1980   -1.8680 N   0  0  0  0  0  0  0  0  0  0  0  0
   -0.1330    0.0440    0.1790 C   0  0  0  0  0  0  0  0  0  0  0  0
   -0.4810   -0.2360    1.5740 C   0  0  0  0  0  0  0  0  0  0  0  0
    0.2380   -1.1130    2.2510 C   0  0  0  0  0  0  0  0  0  0  0  0
    1.3350   -1.7710    1.6180 N   0  0  0  0  0  0  0  0  0  0  0  0
    1.6700   -1.4990    0.2640 C   0  0  0  0  0  0  0  0  0  0  0  0
    0.9920   -0.6330   -0.4680 C   0  0  0  0  0  0  0  0  0  0  0  0
    1.3360   -0.3620   -1.8340 N   0  0  0  0  0  0  0  0  0  0  0  0
  1  2  1  0
  2  3  1  0
  2  4  2  3
  4  5  1  0
  4  9  1  0
  5  6  2  0
  6  7  1  0
  7  8  1  0
  8  9  2  0
  9 10  1  0
M  END
