
     RDKit          3D

 10 10  0  0  0  0  0  0  0  0999 V2000
   -2.1000   -1.1920   -0.0710 C   0  0  0  0  0  0  0  0  0  0  0  0
   -0.8400   -0.4040   -0.1350 C   0  0  0  0  0  0  0  0  0  0  0  0
   -1.0380    0.9020   -0.0580 C   0  0  0  0  0  0  0  0  0  0  0  0
   -2.3890    1.3430    0.0700 N   0  0  0  0  0  0  0  0  0  0  0  0
    0.0110    1.9240   -0.0940 C   0  0  0  0  0  0  0  0  0  0  0  0
    1.3320    1.7720   -0.0160 C   0  0  0  0  0  0  0  0  0  0  0  0
    2.1180    0.5370    0.1280 C   0  0  0  0  0  0  0  0  0  0  0  0
    1.7100   -0.7270    0.0200 C   0  0  0  0  0  0  0  0  0  0  0  0
    2.6890   -1.7350    0.2100 N   0  0  0  0  0  0  0  0  0  0  0  0
    0.3820   -1.1500   -0.2670 N   0  0  0  0  0  0  0  0  0  0  0  0
  1  2  1  0
  2  3  2  0
  2 10  1  0
  3  4  1  0
  3  5  1  0
  5  6  2  0
  6  7  1  0
  7  8  2  0
  8  9  1  0
  8 10  1  0
M  END
