
     RDKit          3D

 10 10  0  0  0  0  0  0  0  0999 V2000
    3.2210   -0.4310    0.2840 N   0  0  0  0  0  0  0  0  0  0  0  0
    1.8450   -0.2540    0.0520 C   0  0  0  0  0  0  0  0  0  0  0  0
    1.4000    0.9950    0.1730 C   0  0  0  0  0  0  0  0  0  0  0  0
    0.1090    1.6610    0.0370 C   0  0  0  0  0  0  0  0  0  0  0  0
   -1.1530    1.2620   -0.0680 C   0  0  0  0  0  0  0  0  0  0  0  0
   -1.8590   -0.0280   -0.0980 C   0  0  0  0  0  0  0  0  0  0  0  0
   -3.2670    0.0590    0.0400 N   0  0  0  0  0  0  0  0  0  0  0  0
   -1.3780   -1.2530   -0.2340 C   0  0  0  0  0  0  0  0  0  0  0  0
   -0.0980   -1.8850   -0.4010 N   0  0  0  0  0  0  0  0  0  0  0  0
    1.1260   -1.4940   -0.2890 C   0  0  0  0  0  0  0  0  0  0  0  0
  1  2  1  0
  2  3  2  0
  2 10  1  0
  3  4  1  0
  4  5  2  0
  5  6  1  0
  6  7  1  0
  6  8  2  0
  8  9  1  0
  9 10  2  0
M  END
