
     RDKit          3D

 10  9  0  0  0  0  0  0  0  0999 V2000
    5.0430   -0.2560   -0.1890 N   0  0  0  0  0  0  0  0  0  0  0  0
    3.7280   -0.5920    0.2220 C   0  0  0  0  0  0  0  0  0  0  0  0
    2.7020    0.0010   -0.3550 C   0  0  0  0  0  0  0  0  0  0  0  0
    1.3280   -0.3410    0.0650 C   0  0  0  0  0  0  0  0  0  0  0  0
    0.2860    0.2410   -0.5020 C   0  0  0  0  0  0  0  0  0  0  0  0
   -1.0550   -0.0960   -0.0880 C   0  0  0  0  0  0  0  0  0  0  0  0
   -1.2640   -1.0490    0.9240 N   0  0  0  0  0  0  0  0  0  0  0  0
   -2.1000    0.4750   -0.6420 C   0  0  0  0  0  0  0  0  0  0  0  0
   -3.4850    0.1350   -0.2230 C   0  0  0  0  0  0  0  0  0  0  0  0
   -4.2140    1.2620    0.2820 N   0  0  0  0  0  0  0  0  0  0  0  0
  1  2  1  0
  2  3  2  3
  3  4  1  0
  4  5  2  3
  5  6  1  0
  6  7  1  0
  6  8  2  3
  8  9  1  0
  9 10  1  0
M  END
