
     RDKit          3D

 17 18  0  0  0  0  0  0  0  0999 V2000
    3.7400   -1.4830    2.7490 O   0  0  0  0  0  0  0  0  0  0  0  0
    2.6510   -1.3160    2.0790 C   0  0  0  0  0  0  0  0  0  0  0  0
    1.5570   -2.0520    2.4660 O   0  0  0  0  0  0  0  0  0  0  0  0
    2.6440   -0.3750    0.9740 C   0  0  0  0  0  0  0  0  0  0  0  0
    3.8510    0.3040    0.7260 C   0  0  0  0  0  0  0  0  0  0  0  0
    3.9550    1.2210   -0.2840 C   0  0  0  0  0  0  0  0  0  0  0  0
    5.5800    2.1640   -0.6510 Br  0  0  0  0  0  0  0  0  0  0  0  0
    2.8370    1.4660   -1.0620 C   0  0  0  0  0  0  0  0  0  0  0  0
    1.6580    0.8060   -0.8230 C   0  0  0  0  0  0  0  0  0  0  0  0
    1.5360   -0.1390    0.2110 C   0  0  0  0  0  0  0  0  0  0  0  0
    0.2910   -0.7910    0.3790 N   0  0  0  0  0  0  0  0  0  0  0  0
   -0.8590   -0.4080   -0.4420 C   0  0  1  0  0  0  0  0  0  0  0  0
   -2.0340   -1.3000   -0.1440 C   0  0  0  0  0  0  0  0  0  0  0  0
   -3.2830   -0.7390   -0.7710 C   0  0  0  0  0  0  0  0  0  0  0  0
   -3.5830    0.6150   -0.1980 C   0  0  0  0  0  0  0  0  0  0  0  0
   -2.4850    1.0370    0.6520 N   0  0  0  0  0  0  0  0  0  0  0  0
   -1.2790    1.0160   -0.1440 C   0  0  0  0  0  0  0  0  0  0  0  0
  1  2  2  0
  2  3  1  0
  2  4  1  0
  4  5  2  0
  4 10  1  0
  5  6  1  0
  6  7  1  0
  6  8  2  0
  8  9  1  0
  9 10  2  0
 10 11  1  0
 12 11  1  1
 12 13  1  0
 12 17  1  0
 13 14  1  0
 14 15  1  0
 15 16  1  0
 16 17  1  0
M  CHG  1  16   1
M  END
