
     RDKit          3D

 23 25  0  0  0  0  0  0  0  0999 V2000
   -6.0100   -1.8900   -2.5200 C   0  0  0  0  0  0  0  0  0  0  0  0
   -4.6320   -1.6470   -2.7460 O   0  0  0  0  0  0  0  0  0  0  0  0
   -3.8570   -1.1090   -1.7310 C   0  0  0  0  0  0  0  0  0  0  0  0
   -2.5210   -0.8700   -1.9410 C   0  0  0  0  0  0  0  0  0  0  0  0
   -1.6980   -0.3260   -0.9400 C   0  0  0  0  0  0  0  0  0  0  0  0
   -2.1860   -0.0040    0.3010 C   0  0  0  0  0  0  0  0  0  0  0  0
   -1.4640    0.5310    1.3490 O   0  0  0  0  0  0  0  0  0  0  0  0
   -0.0960    0.8000    1.2570 C   0  0  0  0  0  0  0  0  0  0  0  0
    0.6380   -0.0930    0.7020 N   0  0  0  0  0  0  0  0  0  0  0  0
    2.0300    0.0240    0.5330 C   0  0  0  0  0  0  0  0  0  0  0  0
    2.4220   -1.0710   -0.0660 N   0  0  0  0  0  0  0  0  0  0  0  0
    3.7040   -1.5130   -0.4910 C   0  0  0  0  0  0  0  0  0  0  0  0
    3.6410   -3.1070   -1.2580 Cl  0  0  0  0  0  0  0  0  0  0  0  0
    4.9560   -1.0860   -0.4860 C   0  0  0  0  0  0  0  0  0  0  0  0
    5.6090    0.1240   -0.0020 C   0  0  0  0  0  0  0  0  0  0  0  0
    5.1780    1.2180    0.6040 C   0  0  0  0  0  0  0  0  0  0  0  0
    3.9010    1.7270    1.0620 C   0  0  0  0  0  0  0  0  0  0  0  0
    3.9970    3.2990    1.8170 Cl  0  0  0  0  0  0  0  0  0  0  0  0
    2.6490    1.2430    1.0290 C   0  0  0  0  0  0  0  0  0  0  0  0
    1.8390    2.2240    1.6420 N   0  0  0  0  0  0  0  0  0  0  0  0
    0.4330    2.0640    1.7880 C   0  0  0  0  0  0  0  0  0  0  0  0
   -3.5550   -0.2540    0.5010 C   0  0  0  0  0  0  0  0  0  0  0  0
   -4.3480   -0.7870   -0.4870 C   0  0  0  0  0  0  0  0  0  0  0  0
  1  2  1  0
  2  3  1  0
  3  4  2  0
  3 23  1  0
  4  5  1  0
  5  6  2  0
  6  7  1  0
  6 22  1  0
  7  8  1  0
  8  9  2  0
  8 21  1  0
  9 10  1  0
 10 11  2  0
 10 19  1  0
 11 12  1  0
 12 13  1  0
 12 14  2  0
 14 15  1  0
 15 16  2  0
 16 17  1  0
 17 18  1  0
 17 19  2  0
 19 20  1  0
 20 21  1  0
 22 23  2  0
M  END
