
     RDKit          3D

 22 24  0  0  0  0  0  0  0  0999 V2000
   -1.9960    3.4260    0.5790 C   0  0  0  0  0  0  0  0  0  0  0  0
   -1.0840    2.9390    1.4740 O   0  0  0  0  0  0  0  0  0  0  0  0
   -0.1570    2.0740    0.9920 C   0  0  0  0  0  0  0  0  0  0  0  0
   -0.6910    0.7530    0.6380 C   0  0  0  0  0  0  0  0  0  0  0  0
   -1.9440    0.3810    0.9070 N   0  0  0  0  0  0  0  0  0  0  0  0
   -2.4140   -0.8660    0.6200 C   0  0  0  0  0  0  0  0  0  0  0  0
   -3.6260   -1.1490    0.9060 O   0  0  0  0  0  0  0  0  0  0  0  0
   -1.5760   -1.7810    0.0340 C   0  0  0  0  0  0  0  0  0  0  0  0
   -1.7470   -3.0930   -0.3700 C   0  0  0  0  0  0  0  0  0  0  0  0
   -3.0050   -3.8690   -0.2430 C   0  0  0  0  0  0  0  0  0  0  0  0
   -0.5750   -3.4670   -0.8730 N   0  0  0  0  0  0  0  0  0  0  0  0
    0.3210   -2.4950   -0.8170 N   0  0  0  0  0  0  0  0  0  0  0  0
   -0.2810   -1.4080   -0.2470 C   0  0  0  0  0  0  0  0  0  0  0  0
    0.2010   -0.1560    0.0380 C   0  0  0  0  0  0  0  0  0  0  0  0
    1.5750    0.2280   -0.2640 C   0  0  0  0  0  0  0  0  0  0  0  0
    1.9010    0.9400   -1.3990 C   0  0  0  0  0  0  0  0  0  0  0  0
    3.2200    1.2930   -1.6610 C   0  0  0  0  0  0  0  0  0  0  0  0
    4.2330    0.9420   -0.7980 C   0  0  0  0  0  0  0  0  0  0  0  0
    5.9090    1.3780   -1.1100 Cl  0  0  0  0  0  0  0  0  0  0  0  0
    3.9150    0.2210    0.3550 C   0  0  0  0  0  0  0  0  0  0  0  0
    5.1820   -0.2450    1.4830 Cl  0  0  0  0  0  0  0  0  0  0  0  0
    2.6090   -0.1120    0.5870 C   0  0  0  0  0  0  0  0  0  0  0  0
  1  2  1  0
  2  3  1  0
  3  4  1  0
  4  5  1  0
  4 14  2  0
  5  6  1  0
  6  7  2  0
  6  8  1  0
  8  9  1  0
  8 13  2  0
  9 10  1  0
  9 11  2  0
 11 12  1  0
 12 13  1  0
 13 14  1  0
 14 15  1  0
 15 16  2  0
 15 22  1  0
 16 17  1  0
 17 18  2  0
 18 19  1  0
 18 20  1  0
 20 21  1  0
 20 22  2  0
M  END
