
     RDKit          3D

 23 25  0  0  0  0  0  0  0  0999 V2000
   -4.9940   -0.0030    0.8670 C   0  0  0  0  0  0  0  0  0  0  0  0
   -3.6030   -0.3980    1.1330 C   0  0  0  0  0  0  0  0  0  0  0  0
   -3.2760   -1.3410    2.0750 C   0  0  0  0  0  0  0  0  0  0  0  0
   -1.9780   -1.7240    2.3360 C   0  0  0  0  0  0  0  0  0  0  0  0
   -1.6210   -2.9270    3.5670 Cl  0  0  0  0  0  0  0  0  0  0  0  0
   -0.9960   -1.1160    1.6040 C   0  0  0  0  0  0  0  0  0  0  0  0
   -1.2590   -0.1370    0.6170 C   0  0  0  0  0  0  0  0  0  0  0  0
   -0.1480    0.5580    0.0920 N   0  0  0  0  0  0  0  0  0  0  0  0
    1.1310    0.0420   -0.1750 C   0  0  0  0  0  0  0  0  0  0  0  0
    1.3870   -1.2860   -0.2250 C   0  0  0  0  0  0  0  0  0  0  0  0
    2.6820   -1.7660   -0.3940 C   0  0  0  0  0  0  0  0  0  0  0  0
    3.7310   -0.8780   -0.5160 C   0  0  0  0  0  0  0  0  0  0  0  0
    5.0240   -1.0150   -0.6790 O   0  0  0  0  0  0  0  0  0  0  0  0
    5.6150    0.1410   -0.7340 C   0  0  0  0  0  0  0  0  0  0  0  0
    7.0840    0.3860   -0.9160 C   0  0  0  0  0  0  0  0  0  0  0  0
    7.8200    0.3200    0.7180 Cl  0  0  0  0  0  0  0  0  0  0  0  0
    4.6400    1.0880   -0.6010 N   0  0  0  0  0  0  0  0  0  0  0  0
    3.4460    0.4500   -0.4650 C   0  0  0  0  0  0  0  0  0  0  0  0
    2.2060    0.8910   -0.3020 N   0  0  0  0  0  0  0  0  0  0  0  0
   -2.5620    0.2110    0.3880 C   0  0  0  0  0  0  0  0  0  0  0  0
   -2.9880    1.1800   -0.6000 C   0  0  1  0  0  0  0  0  0  0  0  0
   -2.0180    1.3990   -1.7210 C   0  0  0  0  0  0  0  0  0  0  0  0
   -4.2440    0.9110   -1.1730 O   0  0  0  0  0  0  0  0  0  0  0  0
  1  2  1  0
  2  3  2  0
  2 20  1  0
  3  4  1  0
  4  5  1  0
  4  6  2  0
  6  7  1  0
  7  8  1  0
  7 20  2  0
  8  9  1  0
  9 10  2  0
  9 19  1  0
 10 11  1  0
 11 12  2  0
 12 13  1  0
 12 18  1  0
 13 14  1  0
 14 15  1  0
 14 17  2  0
 15 16  1  0
 17 18  1  0
 18 19  2  0
 20 21  1  0
 21 22  1  6
 21 23  1  0
M  END
