
     RDKit          3D

 23 25  0  0  0  0  0  0  0  0999 V2000
   -5.8280    3.0140   -0.2460 C   0  0  0  0  0  0  0  0  0  0  0  0
   -4.8980    1.8500   -0.1980 C   0  0  0  0  0  0  0  0  0  0  0  0
   -3.5140    1.9110   -0.0480 C   0  0  0  0  0  0  0  0  0  0  0  0
   -3.0380    0.6180   -0.0540 C   0  0  0  0  0  0  0  0  0  0  0  0
   -1.6350    0.1680    0.0770 C   0  0  0  0  0  0  0  0  0  0  0  0
   -1.3090   -1.1140    0.0480 N   0  0  0  0  0  0  0  0  0  0  0  0
   -0.0280   -1.4790    0.1700 C   0  0  0  0  0  0  0  0  0  0  0  0
    0.9900   -0.5280    0.3310 C   0  0  0  0  0  0  0  0  0  0  0  0
    2.3710   -0.9660    0.4970 C   0  0  0  0  0  0  0  0  0  0  0  0
    3.3880   -0.5560   -0.2120 C   0  0  0  0  0  0  0  0  0  0  0  0
    3.0470    0.6260   -1.4810 Cl  0  0  0  0  0  0  0  0  0  0  0  0
    4.7620   -0.9900   -0.0510 C   0  0  0  0  0  0  0  0  0  0  0  0
    5.7610   -0.5190   -0.8060 O   0  0  0  0  0  0  0  0  0  0  0  0
    6.8820   -1.0720   -0.4530 C   0  0  0  0  0  0  0  0  0  0  0  0
    6.6470   -1.9490    0.5730 C   0  0  0  0  0  0  0  0  0  0  0  0
    5.2770   -1.8990    0.8380 C   0  0  0  0  0  0  0  0  0  0  0  0
    4.4790   -2.8480    2.0750 Cl  0  0  0  0  0  0  0  0  0  0  0  0
    0.6480    0.7970    0.3620 C   0  0  0  0  0  0  0  0  0  0  0  0
    1.6010    1.8290    0.5550 N   0  0  0  0  0  0  0  0  0  0  0  0
   -0.6730    1.0880    0.2300 N   0  0  0  0  0  0  0  0  0  0  0  0
   -4.1500   -0.1820   -0.2070 C   0  0  0  0  0  0  0  0  0  0  0  0
   -4.1290   -1.6630   -0.2700 C   0  0  0  0  0  0  0  0  0  0  0  0
   -5.2020    0.5870   -0.2850 O   0  0  0  0  0  0  0  0  0  0  0  0
  1  2  1  0
  2  3  2  0
  2 23  1  0
  3  4  1  0
  4  5  1  0
  4 21  2  0
  5  6  2  0
  5 20  1  0
  6  7  1  0
  7  8  2  0
  8  9  1  0
  8 18  1  0
  9 10  2  3
 10 11  1  0
 10 12  1  0
 12 13  1  0
 12 16  2  0
 13 14  1  0
 14 15  2  0
 15 16  1  0
 16 17  1  0
 18 19  1  0
 18 20  2  0
 21 22  1  0
 21 23  1  0
M  END
