
     RDKit          3D

 29 32  0  0  0  0  0  0  0  0999 V2000
    3.8850   -2.5760   -1.6220 C   0  0  0  0  0  0  0  0  0  0  0  0
    3.4110   -1.3930   -1.3070 C   0  0  0  0  0  0  0  0  0  0  0  0
    3.0790   -0.5040   -2.3890 N   0  0  0  0  0  0  0  0  0  0  0  0
    1.7090   -0.0660   -2.2030 C   0  0  0  0  0  0  0  0  0  0  0  0
    1.6650    1.0970   -1.2020 C   0  0  1  0  0  0  0  0  0  0  0  0
    0.6560    2.1040   -1.6150 C   0  0  0  0  0  0  0  0  0  0  0  0
    1.5140    0.6000    0.1310 N   0  0  0  0  0  0  0  0  0  0  0  0
    0.3770    0.9100    0.9500 C   0  0  0  0  0  0  0  0  0  0  0  0
   -0.8880    0.3420    0.3840 C   0  0  0  0  0  0  0  0  0  0  0  0
   -1.0350   -0.9210   -0.0450 N   0  0  0  0  0  0  0  0  0  0  0  0
   -2.2840   -1.1360   -0.4900 C   0  0  0  0  0  0  0  0  0  0  0  0
   -2.8720   -2.3840   -1.0540 C   0  0  2  0  0  0  0  0  0  0  0  0
   -3.5080   -2.1290   -2.4070 C   0  0  0  0  0  0  0  0  0  0  0  0
   -3.9640   -2.9290   -0.1520 C   0  0  0  0  0  0  0  0  0  0  0  0
   -2.9000    0.0420   -0.3200 N   0  0  0  0  0  0  0  0  0  0  0  0
   -2.0650    0.9530    0.2110 N   0  0  0  0  0  0  0  0  0  0  0  0
   -2.4300    2.3000    0.5080 C   0  0  0  0  0  0  0  0  0  0  0  0
   -3.4770    2.7090    1.3060 C   0  0  0  0  0  0  0  0  0  0  0  0
   -3.5010    4.0950    1.3300 C   0  0  0  0  0  0  0  0  0  0  0  0
   -2.4820    4.4840    0.5600 N   0  0  0  0  0  0  0  0  0  0  0  0
   -1.8490    3.4280    0.0730 N   0  0  0  0  0  0  0  0  0  0  0  0
    2.4670   -0.2710    0.7830 C   0  0  0  0  0  0  0  0  0  0  0  0
    2.5340   -0.2340    2.2350 C   0  0  0  0  0  0  0  0  0  0  0  0
    2.6050   -1.2790    3.1240 C   0  0  0  0  0  0  0  0  0  0  0  0
    2.6560   -0.7870    4.4310 C   0  0  0  0  0  0  0  0  0  0  0  0
    2.6110    0.5910    4.2460 C   0  0  0  0  0  0  0  0  0  0  0  0
    2.5410    0.8700    2.9870 O   0  0  0  0  0  0  0  0  0  0  0  0
    3.2760   -1.1240    0.1270 C   0  0  0  0  0  0  0  0  0  0  0  0
    4.3650   -2.0600    1.1060 Cl  0  0  0  0  0  0  0  0  0  0  0  0
  1  2  2  0
  2  3  1  0
  2 28  1  0
  3  4  1  0
  4  5  1  0
  5  6  1  6
  5  7  1  0
  7  8  1  0
  7 22  1  0
  8  9  1  0
  9 10  2  0
  9 16  1  0
 10 11  1  0
 11 12  1  0
 11 15  2  0
 12 13  1  6
 12 14  1  0
 15 16  1  0
 16 17  1  0
 17 18  1  0
 17 21  2  0
 18 19  2  0
 19 20  1  0
 20 21  1  0
 22 23  1  0
 22 28  2  0
 23 24  2  0
 23 27  1  0
 24 25  1  0
 25 26  2  0
 26 27  1  0
 28 29  1  0
M  CHG  1   3   1
M  END
