
     RDKit          3D

 29 31  0  0  0  0  0  0  0  0999 V2000
    5.9130    0.9130    2.5380 C   0  0  0  0  0  0  0  0  0  0  0  0
    5.7860   -0.2960    1.6430 C   0  0  2  0  0  0  0  0  0  0  0  0
    6.5770    0.0640    0.3740 C   0  0  0  0  0  0  0  0  0  0  0  0
    4.3780   -0.4680    1.2380 C   0  0  0  0  0  0  0  0  0  0  0  0
    3.7670    0.6760    0.6290 C   0  0  0  0  0  0  0  0  0  0  0  0
    2.4690    0.4520    0.1960 C   0  0  0  0  0  0  0  0  0  0  0  0
    1.7430   -0.6840    0.2730 C   0  0  0  0  0  0  0  0  0  0  0  0
    0.4200   -0.6720   -0.3090 N   0  0  0  0  0  0  0  0  0  0  0  0
   -0.4840    0.0250   -0.1220 C   0  0  0  0  0  0  0  0  0  0  0  0
   -1.5830    0.7890    0.0360 N   0  0  0  0  0  0  0  0  0  0  0  0
   -1.1860    1.7640    1.2110 C   0  0  0  0  0  0  0  0  0  0  0  0
   -0.0640    1.5620    1.6260 O   0  0  0  0  0  0  0  0  0  0  0  0
   -2.1480    2.7360    1.6190 C   0  0  1  0  0  0  0  0  0  0  0  0
   -1.5940    4.1100    1.8360 C   0  0  0  0  0  0  0  0  0  0  0  0
   -2.7240    4.9970    1.2920 C   0  0  0  0  0  0  0  0  0  0  0  0
   -3.2710    4.0990    0.2180 C   0  0  0  0  0  0  0  0  0  0  0  0
   -3.2470    2.8270    0.8080 O   0  0  0  0  0  0  0  0  0  0  0  0
   -1.4880   -1.2280   -0.9550 C   0  0  0  0  0  0  0  0  0  0  0  0
   -2.5530   -0.8490   -1.4020 C   0  0  0  0  0  0  0  0  0  0  0  0
   -3.4890   -1.8070   -2.1060 C   0  0  0  0  0  0  0  0  0  0  0  0
   -4.8340   -1.6780   -1.9380 C   0  0  0  0  0  0  0  0  0  0  0  0
   -5.6500   -2.6600   -2.5820 C   0  0  0  0  0  0  0  0  0  0  0  0
   -5.1130   -3.6310   -3.2930 N   0  0  0  0  0  0  0  0  0  0  0  0
   -3.7690   -3.7580   -3.4620 C   0  0  0  0  0  0  0  0  0  0  0  0
   -2.9740   -2.8310   -2.8620 C   0  0  0  0  0  0  0  0  0  0  0  0
   -0.9120   -2.5030   -0.6590 C   0  0  0  0  0  0  0  0  0  0  0  0
    0.2750   -2.9650   -1.2740 N   0  0  0  0  0  0  0  0  0  0  0  0
    2.3650   -1.7350    0.8540 C   0  0  0  0  0  0  0  0  0  0  0  0
    3.6510   -1.6320    1.3230 C   0  0  0  0  0  0  0  0  0  0  0  0
  2  1  1  1
  2  3  1  0
  2  4  1  0
  4  5  2  0
  4 29  1  0
  5  6  1  0
  6  7  2  0
  7  8  1  0
  7 28  1  0
  8  9  2  3
  9 10  1  0
  9 18  1  0
 10 11  1  0
 11 12  2  0
 13 11  1  6
 13 14  1  0
 13 17  1  0
 14 15  1  0
 15 16  1  0
 16 17  1  0
 18 19  2  3
 18 26  1  0
 19 20  1  0
 20 21  2  0
 20 25  1  0
 21 22  1  0
 22 23  2  0
 23 24  1  0
 24 25  2  0
 26 27  1  0
 28 29  2  0
M  CHG  1  23   1
M  END
