
     RDKit          3D

 22 24  0  0  0  0  0  0  0  0999 V2000
   -2.9870   -1.1180    3.3360 O   0  0  0  0  0  0  0  0  0  0  0  0
   -2.0050   -0.2130    2.9370 C   0  0  0  0  0  0  0  0  0  0  0  0
   -2.0250   -0.1600    1.4400 C   0  0  0  0  0  0  0  0  0  0  0  0
   -0.9600    0.8250    0.8910 C   0  0  0  0  0  0  0  0  0  0  0  0
   -1.0970    0.7600   -0.5140 N   0  0  0  0  0  0  0  0  0  0  0  0
   -2.3210    1.3130   -1.1190 C   0  0  0  0  0  0  0  0  0  0  0  0
   -2.8460    0.4600   -2.2050 C   0  0  0  0  0  0  0  0  0  0  0  0
   -2.0070   -0.6820   -2.4650 N   0  0  0  0  0  0  0  0  0  0  0  0
   -0.5850   -0.5820   -2.3190 C   0  0  0  0  0  0  0  0  0  0  0  0
   -0.0930    0.1660   -1.3070 C   0  0  0  0  0  0  0  0  0  0  0  0
    1.3070    0.3230   -1.1310 C   0  0  1  0  0  0  0  0  0  0  0  0
    1.9830    0.0230    0.1470 C   0  0  0  0  0  0  0  0  0  0  0  0
    2.6480    0.9640    0.7730 C   0  0  0  0  0  0  0  0  0  0  0  0
    3.3950    0.9670    2.0130 C   0  0  1  0  0  0  0  0  0  0  0  0
    2.8450    1.8390    2.9830 O   0  0  0  0  0  0  0  0  0  0  0  0
    3.4260   -0.6540    2.7860 S   0  0  0  0  0  0  0  0  0  0  0  0
    2.4800   -1.7390    1.7750 C   0  0  0  0  0  0  0  0  0  0  0  0
    1.9160   -1.3320    0.6780 C   0  0  0  0  0  0  0  0  0  0  0  0
    0.9980   -2.5890   -0.1940 Cl  0  0  0  0  0  0  0  0  0  0  0  0
    2.0970   -0.4300   -2.1280 N   0  0  0  0  0  0  0  0  0  0  0  0
    1.5590   -1.1930   -3.1590 C   0  0  0  0  0  0  0  0  0  0  0  0
    0.2520   -1.2800   -3.2710 C   0  0  0  0  0  0  0  0  0  0  0  0
  1  2  1  0
  2  3  1  0
  3  4  1  0
  4  5  1  0
  5  6  1  0
  5 10  1  0
  6  7  1  0
  7  8  1  0
  8  9  1  0
  9 10  2  0
  9 22  1  0
 10 11  1  0
 11 12  1  1
 11 20  1  0
 12 13  2  0
 12 18  1  0
 13 14  1  0
 14 15  1  1
 14 16  1  0
 16 17  1  0
 17 18  2  0
 18 19  1  0
 20 21  1  0
 21 22  2  0
M  END
