
     RDKit          3D

 22 24  0  0  0  0  0  0  0  0999 V2000
   -5.1230   -0.0630    2.2470 C   0  0  0  0  0  0  0  0  0  0  0  0
   -5.7090    0.5750    1.0820 N   0  0  0  0  0  0  0  0  0  0  0  0
   -5.2590    1.9820    1.0540 C   0  0  0  0  0  0  0  0  0  0  0  0
   -3.8050    2.0050    0.8760 C   0  0  0  0  0  0  0  0  0  0  0  0
   -3.3160    0.9840    0.1650 C   0  0  0  0  0  0  0  0  0  0  0  0
   -1.8860    0.7830   -0.1500 C   0  0  0  0  0  0  0  0  0  0  0  0
   -1.3270   -0.4270    0.5680 C   0  0  0  0  0  0  0  0  0  0  0  0
    0.0650   -0.6750    0.2810 N   0  0  0  0  0  0  0  0  0  0  0  0
    1.0420    0.2650    0.5930 C   0  0  0  0  0  0  0  0  0  0  0  0
    0.7420    1.3530    1.1350 O   0  0  0  0  0  0  0  0  0  0  0  0
    2.4780    0.0590    0.3160 C   0  0  0  0  0  0  0  0  0  0  0  0
    3.4920    0.8680    0.5630 C   0  0  0  0  0  0  0  0  0  0  0  0
    4.7340    0.2470    0.1190 C   0  0  0  0  0  0  0  0  0  0  0  0
    4.3850   -0.9270   -0.3800 C   0  0  0  0  0  0  0  0  0  0  0  0
    5.5830   -1.6410   -0.8620 C   0  0  0  0  0  0  0  0  0  0  0  0
    6.5160   -0.4910   -1.1800 C   0  0  0  0  0  0  0  0  0  0  0  0
    6.2240    0.4240    0.0130 C   0  0  0  0  0  0  0  0  0  0  0  0
    2.9760   -1.1050   -0.2850 N   0  0  0  0  0  0  0  0  0  0  0  0
   -4.6930    0.0690   -0.2770 S   0  0  2  0  0  0  0  0  0  0  0  0
   -5.3590    0.4450   -1.5580 O   0  0  0  0  0  0  0  0  0  0  0  0
   -4.5620   -1.4810   -0.3790 C   0  0  0  0  0  0  0  0  0  0  0  0
   -3.7280   -2.1540   -1.7280 Cl  0  0  0  0  0  0  0  0  0  0  0  0
  1  2  1  0
  2  3  1  0
 19  2  1  1
  3  4  1  0
  4  5  2  0
  5  6  1  0
  5 19  1  0
  6  7  1  0
  7  8  1  0
  8  9  1  0
  9 10  2  0
  9 11  1  0
 11 12  2  0
 11 18  1  0
 12 13  1  0
 13 14  2  0
 13 17  1  0
 14 15  1  0
 14 18  1  0
 15 16  1  0
 16 17  1  0
 19 20  2  0
 19 21  2  0
 21 22  1  0
M  CHG  1  18   1
M  END
