
     RDKit          3D

 21 24  0  0  0  0  0  0  0  0999 V2000
   -3.2620   -1.4110   -0.3450 C   0  0  0  0  0  0  0  0  0  0  0  0
   -2.1800   -0.6790    0.4870 C   0  0  2  0  0  0  0  0  0  0  0  0
   -2.9170    0.4060    1.1210 N   0  0  0  0  0  0  0  0  0  0  0  0
   -3.4200    1.3900    0.2400 C   0  0  0  0  0  0  0  0  0  0  0  0
   -2.5530    1.7860   -0.8940 C   0  0  0  0  0  0  0  0  0  0  0  0
   -1.9700    0.5720   -1.5710 C   0  0  0  0  0  0  0  0  0  0  0  0
   -1.2020   -0.1150   -0.4180 C   0  0  0  0  0  0  0  0  0  0  0  0
    0.0800   -0.0710   -0.4110 C   0  0  0  0  0  0  0  0  0  0  0  0
    0.9300    0.7650   -1.7970 S   0  0  0  0  0  0  0  0  0  0  0  0
    2.5830    0.5190   -1.2490 C   0  0  0  0  0  0  0  0  0  0  0  0
    3.7730    0.8740   -1.7740 N   0  0  0  0  0  0  0  0  0  0  0  0
    4.8890    0.5390   -1.1060 C   0  0  0  0  0  0  0  0  0  0  0  0
    5.9930    0.8680   -1.5920 O   0  0  0  0  0  0  0  0  0  0  0  0
    4.7410   -0.1530    0.0830 C   0  0  0  0  0  0  0  0  0  0  0  0
    5.7950   -0.4600    0.6970 O   0  0  0  0  0  0  0  0  0  0  0  0
    3.5330   -0.4880    0.5720 N   0  0  0  0  0  0  0  0  0  0  0  0
    3.4450   -1.1570    1.7330 C   0  0  0  0  0  0  0  0  0  0  0  0
    2.2200   -1.5070    2.2530 C   0  0  0  0  0  0  0  0  0  0  0  0
    1.0820   -1.1560    1.5540 C   0  0  0  0  0  0  0  0  0  0  0  0
    1.1600   -0.4520    0.3290 C   0  0  0  0  0  0  0  0  0  0  0  0
    2.3870   -0.1500   -0.1040 C   0  0  0  0  0  0  0  0  0  0  0  0
  2  1  1  6
  2  3  1  0
  2  7  1  0
  3  4  1  0
  4  5  1  0
  5  6  1  0
  6  7  1  0
  7  8  2  3
  8  9  1  0
  8 20  1  0
  9 10  1  0
 10 11  1  0
 10 21  2  0
 11 12  1  0
 12 13  2  0
 12 14  1  0
 14 15  2  0
 14 16  1  0
 16 17  1  0
 16 21  1  0
 17 18  2  0
 18 19  1  0
 19 20  2  0
 20 21  1  0
M  CHG  1   3   1
M  END
