
     RDKit          3D

 22 24  0  0  0  0  0  0  0  0999 V2000
   -5.5410    0.1190   -0.0040 C   0  0  0  0  0  0  0  0  0  0  0  0
   -4.1470    0.2810    0.0520 C   0  0  0  0  0  0  0  0  0  0  0  0
   -3.8730    1.4790    0.8770 C   0  0  0  0  0  0  0  0  0  0  0  0
   -3.4200   -0.6810   -0.6520 C   0  0  0  0  0  0  0  0  0  0  0  0
   -4.6820   -1.8620   -1.4320 Cl  0  0  0  0  0  0  0  0  0  0  0  0
   -2.2770   -1.0900   -0.9840 C   0  0  0  0  0  0  0  0  0  0  0  0
   -2.2380   -2.2670   -1.8130 O   0  0  0  0  0  0  0  0  0  0  0  0
   -1.1270   -2.8660   -2.2770 N   0  0  0  0  0  0  0  0  0  0  0  0
    0.1330   -2.3700   -1.9780 C   0  0  0  0  0  0  0  0  0  0  0  0
    1.1940   -2.8930   -2.3870 O   0  0  0  0  0  0  0  0  0  0  0  0
    0.2180   -1.1760   -1.1420 C   0  0  0  0  0  0  0  0  0  0  0  0
    1.4560   -0.6490   -0.8180 C   0  0  0  0  0  0  0  0  0  0  0  0
    1.5750    0.4690   -0.0340 C   0  0  0  0  0  0  0  0  0  0  0  0
    2.8760    1.0050    0.2930 C   0  0  0  0  0  0  0  0  0  0  0  0
    3.1680    2.0470    1.0160 C   0  0  0  0  0  0  0  0  0  0  0  0
    4.5410    2.3450    1.1740 C   0  0  0  0  0  0  0  0  0  0  0  0
    5.4130    1.5630    0.5890 C   0  0  0  0  0  0  0  0  0  0  0  0
    4.4230    0.3380   -0.2370 S   0  0  0  0  0  0  0  0  0  0  0  0
    4.6620   -1.0170    0.5130 N   0  0  0  0  0  0  0  0  0  0  0  0
    0.4180    1.0000    0.3840 N   0  0  0  0  0  0  0  0  0  0  0  0
   -0.7950    0.5350    0.1030 C   0  0  0  0  0  0  0  0  0  0  0  0
   -0.9590   -0.5960   -0.6880 C   0  0  0  0  0  0  0  0  0  0  0  0
  1  2  2  0
  2  3  1  0
  2  4  1  0
  4  5  1  0
  4  6  2  3
  6  7  1  0
  6 22  1  0
  7  8  1  0
  8  9  1  0
  9 10  2  0
  9 11  1  0
 11 12  2  0
 11 22  1  0
 12 13  1  0
 13 14  1  0
 13 20  2  0
 14 15  2  0
 14 18  1  0
 15 16  1  0
 16 17  2  0
 18 17  1  1
 18 19  2  0
 20 21  1  0
 21 22  2  0
M  CHG  1  19   1
M  END
