
     RDKit          3D

 16 16  0  0  0  0  0  0  0  0999 V2000
    5.1900    0.9590    0.1740 C   0  0  0  0  0  0  0  0  0  0  0  0
    4.0890    1.7280   -0.4460 C   0  0  0  0  0  0  0  0  0  0  0  0
    2.8680    1.1810   -0.5050 C   0  0  0  0  0  0  0  0  0  0  0  0
    2.6330   -0.1470    0.0300 C   0  0  0  0  0  0  0  0  0  0  0  0
    1.4870   -0.7610    0.0190 C   0  0  0  0  0  0  0  0  0  0  0  0
    1.2290   -2.4070    0.6910 S   0  0  0  0  0  0  0  0  0  0  0  0
   -0.5640   -2.3430    0.5800 C   0  0  0  0  0  0  0  0  0  0  0  0
   -1.3110   -3.1890    1.1050 O   0  0  0  0  0  0  0  0  0  0  0  0
   -0.8650   -1.1910   -0.1850 N   0  0  0  0  0  0  0  0  0  0  0  0
   -2.2340   -0.9410   -0.6080 C   0  0  0  0  0  0  0  0  0  0  0  0
   -2.9900   -0.1230    0.4070 C   0  0  0  0  0  0  0  0  0  0  0  0
   -4.3670    0.1130   -0.0460 C   0  0  0  0  0  0  0  0  0  0  0  0
   -5.2980    0.8560    0.7200 N   0  0  0  0  0  0  0  0  0  0  0  0
   -4.7290   -0.3620   -1.1500 O   0  0  0  0  0  0  0  0  0  0  0  0
    0.2090   -0.3600   -0.4810 C   0  0  0  0  0  0  0  0  0  0  0  0
    0.0910    0.7170   -1.1650 O   0  0  0  0  0  0  0  0  0  0  0  0
  1  2  1  0
  2  3  2  3
  3  4  1  0
  4  5  2  3
  5  6  1  0
  5 15  1  0
  6  7  1  0
  7  8  2  0
  7  9  1  0
  9 10  1  0
  9 15  1  0
 10 11  1  0
 11 12  1  0
 12 13  1  0
 12 14  2  0
 15 16  2  0
M  END
