
     RDKit          3D

 16 16  0  0  0  0  0  0  0  0999 V2000
   -3.1610   -2.2410    0.5660 C   0  0  0  0  0  0  0  0  0  0  0  0
   -3.3980   -1.2610   -0.5350 C   0  0  0  0  0  0  0  0  0  0  0  0
   -2.5180   -0.1150   -0.2980 N   0  0  0  0  0  0  0  0  0  0  0  0
   -1.1060   -0.3830   -0.2880 C   0  0  0  0  0  0  0  0  0  0  0  0
   -0.3920   -1.9680   -0.5400 S   0  0  0  0  0  0  0  0  0  0  0  0
    1.2860   -1.4600   -0.3810 C   0  0  0  0  0  0  0  0  0  0  0  0
    2.4350   -2.3700   -0.4930 C   0  0  0  0  0  0  0  0  0  0  0  0
    3.7350   -1.8810   -0.3430 N   0  0  0  0  0  0  0  0  0  0  0  0
    2.2160   -3.6020   -0.7270 O   0  0  0  0  0  0  0  0  0  0  0  0
    1.1880   -0.1170   -0.1480 C   0  0  0  0  0  0  0  0  0  0  0  0
    2.5000    0.6300    0.0330 C   0  0  0  0  0  0  0  0  0  0  0  0
   -0.0260    0.4400   -0.0980 C   0  0  0  0  0  0  0  0  0  0  0  0
   -0.2950    1.8790    0.1510 C   0  0  0  0  0  0  0  0  0  0  0  0
   -1.4810    2.3400    0.1870 O   0  0  0  0  0  0  0  0  0  0  0  0
    0.6870    2.8190    0.3600 O   0  0  0  0  0  0  0  0  0  0  0  0
    0.3890    4.1780    0.5940 C   0  0  0  0  0  0  0  0  0  0  0  0
  1  2  1  0
  2  3  1  0
  3  4  1  0
  4  5  1  0
  4 12  2  0
  5  6  1  0
  6  7  1  0
  6 10  2  0
  7  8  1  0
  7  9  2  0
 10 11  1  0
 10 12  1  0
 12 13  1  0
 13 14  2  0
 13 15  1  0
 15 16  1  0
M  END
