
     RDKit          3D

 16 16  0  0  0  0  0  0  0  0999 V2000
    4.5160    1.2950    0.2760 C   0  0  0  0  0  0  0  0  0  0  0  0
    3.8030    0.1540   -0.9040 S   0  0  1  0  0  0  0  0  0  0  0  0
    3.5390    0.9640   -2.1580 O   0  0  0  0  0  0  0  0  0  0  0  0
    4.7550   -0.9270   -1.2620 O   0  0  0  0  0  0  0  0  0  0  0  0
    2.3010   -0.4490   -0.2470 C   0  0  0  0  0  0  0  0  0  0  0  0
    2.3200   -1.5270    0.4820 C   0  0  0  0  0  0  0  0  0  0  0  0
    3.5340   -2.2020    0.7430 N   0  0  0  0  0  0  0  0  0  0  0  0
    1.0830    0.2910   -0.5510 C   0  0  0  0  0  0  0  0  0  0  0  0
    1.1230    1.3380   -1.2690 O   0  0  0  0  0  0  0  0  0  0  0  0
   -0.2110   -0.0570   -0.1020 N   0  0  0  0  0  0  0  0  0  0  0  0
   -1.4070    0.6990   -0.4200 C   0  0  1  0  0  0  0  0  0  0  0  0
   -2.2820   -0.2450   -1.2560 C   0  0  0  0  0  0  0  0  0  0  0  0
   -3.7460    0.0710   -1.0680 C   0  0  0  0  0  0  0  0  0  0  0  0
   -4.1020   -0.3240    0.3560 C   0  0  0  0  0  0  0  0  0  0  0  0
   -3.0870    0.1360    1.3500 C   0  0  0  0  0  0  0  0  0  0  0  0
   -2.1280    1.1600    0.8200 C   0  0  0  0  0  0  0  0  0  0  0  0
  2  1  1  1
  2  3  2  0
  2  4  2  0
  2  5  1  0
  5  6  2  3
  5  8  1  0
  6  7  1  0
  8  9  2  0
  8 10  1  0
 11 10  1  1
 11 12  1  0
 11 16  1  0
 12 13  1  0
 13 14  1  0
 14 15  1  0
 15 16  1  0
M  END
