
     RDKit          3D

 27 29  0  0  0  0  0  0  0  0999 V2000
    7.1910   -1.8730    1.1000 N   0  0  0  0  0  0  0  0  0  0  0  0
    5.8250   -1.8600    0.7390 C   0  0  0  0  0  0  0  0  0  0  0  0
    5.1280   -2.9820    0.4960 N   0  0  0  0  0  0  0  0  0  0  0  0
    3.8310   -2.9000    0.1570 C   0  0  0  0  0  0  0  0  0  0  0  0
    3.1820   -1.7210    0.0460 N   0  0  0  0  0  0  0  0  0  0  0  0
    3.8320   -0.5700    0.2780 C   0  0  0  0  0  0  0  0  0  0  0  0
    5.1640   -0.6350    0.6270 C   0  0  0  0  0  0  0  0  0  0  0  0
    5.5630    0.6300    0.7980 N   0  0  0  0  0  0  0  0  0  0  0  0
    4.5310    1.4280    0.5660 C   0  0  0  0  0  0  0  0  0  0  0  0
    3.4310    0.7260    0.2380 N   0  0  0  0  0  0  0  0  0  0  0  0
    2.1340    1.2490   -0.0780 C   0  0  2  0  0  0  0  0  0  0  0  0
    1.1000    0.5680    0.5160 O   0  0  0  0  0  0  0  0  0  0  0  0
   -0.0360    1.1770   -0.0670 C   0  0  2  0  0  0  0  0  0  0  0  0
   -1.1710    0.2540    0.1210 C   0  0  0  0  0  0  0  0  0  0  0  0
   -2.3720    0.7090   -0.4000 O   0  0  0  0  0  0  0  0  0  0  0  0
   -3.6070   -0.1960   -0.2460 P   0  0  0  0  0  0  0  0  0  0  0  0
   -2.8190   -1.5070   -0.8830 O   0  0  0  0  0  0  0  0  0  0  0  0
   -3.5250    0.0300    1.4040 O   0  0  0  0  0  0  0  0  0  0  0  0
   -4.8840   -1.0400   -0.0900 O   0  0  0  0  0  0  0  0  0  0  0  0
   -6.2940   -0.4610    0.2340 P   0  0  0  0  0  0  0  0  0  0  0  0
   -5.6470    0.4530    1.4160 O   0  0  0  0  0  0  0  0  0  0  0  0
   -6.3950    0.1730   -1.2900 O   0  0  0  0  0  0  0  0  0  0  0  0
   -7.7570   -0.1350    0.5270 O   0  0  0  0  0  0  0  0  0  0  0  0
    0.3050    1.2980   -1.5440 C   0  0  1  0  0  0  0  0  0  0  0  0
    0.0310    2.5950   -1.9720 O   0  0  0  0  0  0  0  0  0  0  0  0
    1.8100    1.1160   -1.5610 C   0  0  1  0  0  0  0  0  0  0  0  0
    2.4520    2.0800   -2.3230 O   0  0  0  0  0  0  0  0  0  0  0  0
  1  2  1  0
  2  3  2  0
  2  7  1  0
  3  4  1  0
  4  5  2  0
  5  6  1  0
  6  7  2  0
  6 10  1  0
  7  8  1  0
  8  9  2  0
  9 10  1  0
 11 10  1  6
 11 12  1  0
 11 26  1  0
 12 13  1  0
 13 14  1  6
 13 24  1  0
 14 15  1  0
 15 16  1  0
 16 17  1  0
 16 18  1  0
 16 19  1  0
 19 20  1  0
 20 21  1  0
 20 22  1  0
 20 23  1  0
 24 25  1  1
 24 26  1  0
 26 27  1  6
M  END
