
     RDKit          3D

 20 20  0  0  0  0  0  0  0  0999 V2000
   -1.9390    1.6900    0.4080 N   0  0  0  0  0  0  0  0  0  0  0  0
   -1.7490    0.8300   -0.6960 C   0  0  2  0  0  0  0  0  0  0  0  0
   -2.9840    0.9370   -1.5720 C   0  0  0  0  0  0  0  0  0  0  0  0
   -4.0730    1.0510   -0.7430 O   0  0  0  0  0  0  0  0  0  0  0  0
   -4.7890   -0.4190   -0.2770 P   0  0  0  0  0  0  0  0  0  0  0  0
   -5.8890   -0.1190    1.0340 O   0  0  0  0  0  0  0  0  0  0  0  0
   -3.6870   -1.6320    0.2140 O   0  0  0  0  0  0  0  0  0  0  0  0
   -2.5360   -1.0400    0.7340 C   0  0  0  0  0  0  0  0  0  0  0  0
   -1.5770   -0.6280   -0.3620 C   0  0  1  0  0  0  0  0  0  0  0  0
   -1.9660   -1.3340   -1.5070 O   0  0  0  0  0  0  0  0  0  0  0  0
   -0.1860   -1.0120   -0.0820 C   0  0  0  0  0  0  0  0  0  0  0  0
    0.4690   -1.8270   -0.7820 O   0  0  0  0  0  0  0  0  0  0  0  0
    0.4640   -0.4380    1.0350 N   0  0  0  0  0  0  0  0  0  0  0  0
    1.8200   -0.7030    1.4450 C   0  0  0  0  0  0  0  0  0  0  0  0
    2.7360   -0.2780    0.3000 C   0  0  0  0  0  0  0  0  0  0  0  0
    4.1890   -0.5300    0.6780 C   0  0  0  0  0  0  0  0  0  0  0  0
    4.9990   -0.1350   -0.3860 O   0  0  0  0  0  0  0  0  0  0  0  0
    5.0720    1.1410   -0.8960 C   0  0  0  0  0  0  0  0  0  0  0  0
    4.3920    2.0570   -0.4170 O   0  0  0  0  0  0  0  0  0  0  0  0
    5.9350    1.3780   -1.9720 O   0  0  0  0  0  0  0  0  0  0  0  0
  2  1  1  1
  2  3  1  0
  2  9  1  0
  3  4  1  0
  4  5  1  0
  5  6  1  0
  5  7  1  0
  7  8  1  0
  8  9  1  0
  9 10  1  6
  9 11  1  0
 11 12  2  0
 11 13  1  0
 13 14  1  0
 14 15  1  0
 15 16  1  0
 16 17  1  0
 17 18  1  0
 18 19  2  0
 18 20  1  0
M  END
