
     RDKit          3D

 20 21  0  0  0  0  0  0  0  0999 V2000
   -1.8760   -1.5370   -0.8240 N   0  0  0  0  0  0  0  0  0  0  0  0
   -2.4170   -0.4430   -0.1210 C   0  0  2  0  0  0  0  0  0  0  0  0
   -1.5020    0.6480    0.2770 C   0  0  0  0  0  0  0  0  0  0  0  0
   -0.2000    0.6290    0.4570 C   0  0  0  0  0  0  0  0  0  0  0  0
    0.7220   -0.4860    0.3190 C   0  0  0  0  0  0  0  0  0  0  0  0
    0.3980   -1.6550    0.0020 O   0  0  0  0  0  0  0  0  0  0  0  0
    2.1320   -0.2840    0.5530 N   0  0  0  0  0  0  0  0  0  0  0  0
    3.0780   -1.3610    0.4270 C   0  0  0  0  0  0  0  0  0  0  0  0
    4.3480   -0.9330    0.6940 O   0  0  0  0  0  0  0  0  0  0  0  0
    4.9290    0.3090   -0.3230 P   0  0  0  0  0  0  0  0  0  0  0  0
    6.1100   -0.2430   -1.4610 O   0  0  0  0  0  0  0  0  0  0  0  0
    5.5060    1.6850    0.5570 O   0  0  0  0  0  0  0  0  0  0  0  0
    0.2700    1.9980    0.8470 C   0  0  0  0  0  0  0  0  0  0  0  0
   -0.8850    2.7530    0.9710 O   0  0  0  0  0  0  0  0  0  0  0  0
   -1.9660    2.0110    0.6020 C   0  0  0  0  0  0  0  0  0  0  0  0
   -3.1960    2.3830    0.5330 O   0  0  0  0  0  0  0  0  0  0  0  0
   -3.3570   -0.8750    0.9900 C   0  0  0  0  0  0  0  0  0  0  0  0
   -4.4700   -1.3070    0.2160 O   0  0  0  0  0  0  0  0  0  0  0  0
   -4.5890   -0.2110   -0.6200 C   0  0  0  0  0  0  0  0  0  0  0  0
   -3.3560    0.1430   -1.0110 O   0  0  0  0  0  0  0  0  0  0  0  0
  2  1  1  6
  2  3  1  0
  2 17  1  0
  2 20  1  0
  3  4  2  0
  3 15  1  0
  4  5  1  0
  4 13  1  0
  5  6  2  0
  5  7  1  0
  7  8  1  0
  8  9  1  0
  9 10  1  0
 10 11  1  0
 10 12  1  0
 13 14  1  0
 14 15  1  0
 15 16  2  0
 17 18  1  0
 18 19  1  0
 19 20  1  0
M  END
