
     RDKit          3D

 20 21  0  0  0  0  0  0  0  0999 V2000
   -3.1780    2.8230    1.5400 N   0  0  0  0  0  0  0  0  0  0  0  0
   -2.8140    1.8740    0.7280 C   0  0  0  0  0  0  0  0  0  0  0  0
   -1.4560    1.4320    0.8160 N   0  0  0  0  0  0  0  0  0  0  0  0
   -0.8860    0.3940    0.3030 C   0  0  0  0  0  0  0  0  0  0  0  0
    0.5350    0.1920    0.5620 C   0  0  0  0  0  0  0  0  0  0  0  0
    1.3230    0.9500    1.2670 C   0  0  0  0  0  0  0  0  0  0  0  0
    2.6230    0.4630    1.3090 O   0  0  0  0  0  0  0  0  0  0  0  0
    2.5800   -0.8190    0.6660 C   0  0  2  0  0  0  0  0  0  0  0  0
    3.6600   -0.7790   -0.3980 C   0  0  0  0  0  0  0  0  0  0  0  0
    4.9120   -0.5550    0.1700 O   0  0  0  0  0  0  0  0  0  0  0  0
    6.1670   -0.5020   -0.9980 P   0  0  0  0  0  0  0  0  0  0  0  0
    7.1450    0.8990   -0.7080 O   0  0  0  0  0  0  0  0  0  0  0  0
    7.2030   -1.9040   -0.9020 O   0  0  0  0  0  0  0  0  0  0  0  0
    1.2940   -0.8600    0.0930 O   0  0  0  0  0  0  0  0  0  0  0  0
   -1.5320   -0.5520   -0.4830 O   0  0  0  0  0  0  0  0  0  0  0  0
   -2.9030   -0.8890   -0.4670 C   0  0  0  0  0  0  0  0  0  0  0  0
   -3.7740    0.2280   -0.9820 C   0  0  1  0  0  0  0  0  0  0  0  0
   -5.2120   -0.3050   -0.9610 C   0  0  0  0  0  0  0  0  0  0  0  0
   -5.5790   -0.6430    0.3400 O   0  0  0  0  0  0  0  0  0  0  0  0
   -3.7500    1.3610   -0.1540 O   0  0  0  0  0  0  0  0  0  0  0  0
  1  2  2  0
  2  3  1  0
  2 20  1  0
  3  4  2  0
  4  5  1  0
  4 15  1  0
  5  6  2  0
  5 14  1  0
  6  7  1  0
  7  8  1  0
  8  9  1  6
  8 14  1  0
  9 10  1  0
 10 11  1  0
 11 12  1  0
 11 13  1  0
 15 16  1  0
 16 17  1  0
 17 18  1  1
 17 20  1  0
 18 19  1  0
M  END
