
     RDKit          3D

 20 21  0  0  0  0  0  0  0  0999 V2000
   -5.0400   -0.2420   -2.4320 O   0  0  0  0  0  0  0  0  0  0  0  0
   -4.7860   -0.1950   -1.1980 C   0  0  0  0  0  0  0  0  0  0  0  0
   -3.7880   -1.0430   -0.4130 C   0  0  0  0  0  0  0  0  0  0  0  0
   -3.2750    0.0340    0.5190 C   0  0  2  0  0  0  0  0  0  0  0  0
   -4.5480    0.8350    0.8640 C   0  0  0  0  0  0  0  0  0  0  0  0
   -5.3330    0.6740   -0.2460 O   0  0  0  0  0  0  0  0  0  0  0  0
   -2.2730    0.7940   -0.0390 O   0  0  0  0  0  0  0  0  0  0  0  0
   -1.1620   -0.0200    0.3390 C   0  0  1  0  0  0  0  0  0  0  0  0
    0.0960    0.4760   -0.2400 C   0  0  0  0  0  0  0  0  0  0  0  0
    0.2640    1.3770   -1.0740 O   0  0  0  0  0  0  0  0  0  0  0  0
    1.3210   -0.1740    0.1350 N   0  0  0  0  0  0  0  0  0  0  0  0
    2.5630    0.1000   -0.4240 C   0  0  0  0  0  0  0  0  0  0  0  0
    3.2560    1.3840   -0.4180 C   0  0  0  0  0  0  0  0  0  0  0  0
    4.4610    1.0500   -1.1650 O   0  0  0  0  0  0  0  0  0  0  0  0
    5.4790    0.0670   -0.1330 P   0  0  0  0  0  0  0  0  0  0  0  0
    5.2530   -1.5940   -0.7530 O   0  0  0  0  0  0  0  0  0  0  0  0
    7.1410    0.3960   -0.4380 O   0  0  0  0  0  0  0  0  0  0  0  0
   -1.3030   -0.1180    1.7370 N   0  0  0  0  0  0  0  0  0  0  0  0
   -2.7210   -0.4580    1.8270 C   0  0  0  0  0  0  0  0  0  0  0  0
   -3.2360   -1.0150    2.8140 O   0  0  0  0  0  0  0  0  0  0  0  0
  1  2  2  0
  2  3  1  0
  2  6  1  0
  4  3  1  6
  4  5  1  0
  4  7  1  0
  4 19  1  0
  5  6  1  0
  7  8  1  0
  8  9  1  1
  8 18  1  0
  9 10  2  0
  9 11  1  0
 11 12  1  0
 12 13  1  0
 13 14  1  0
 14 15  1  0
 15 16  1  0
 15 17  1  0
 18 19  1  0
 19 20  2  0
M  END
