
     RDKit          3D

 21 22  0  0  0  0  0  0  0  0999 V2000
    5.6270    1.1940    1.9360 O   0  0  0  0  0  0  0  0  0  0  0  0
    5.7800    0.6760    0.4030 P   0  0  0  0  0  0  0  0  0  0  0  0
    4.2370    0.7970   -0.5080 O   0  0  0  0  0  0  0  0  0  0  0  0
    3.9470   -0.6370   -0.7130 C   0  0  0  0  0  0  0  0  0  0  0  0
    2.6190   -0.6820   -0.1070 C   0  0  0  0  0  0  0  0  0  0  0  0
    1.4270   -0.1490   -0.5750 N   0  0  0  0  0  0  0  0  0  0  0  0
    1.2440    1.0250   -1.3310 C   0  0  0  0  0  0  0  0  0  0  0  0
    2.2010    1.4390   -1.9980 O   0  0  0  0  0  0  0  0  0  0  0  0
    0.0270    1.7120   -1.3650 O   0  0  0  0  0  0  0  0  0  0  0  0
   -1.0400    1.2700   -0.6380 C   0  0  0  0  0  0  0  0  0  0  0  0
   -1.9950    2.0110   -0.2960 O   0  0  0  0  0  0  0  0  0  0  0  0
   -1.0750   -0.1670   -0.2220 C   0  0  2  0  0  0  0  0  0  0  0  0
   -1.8630   -1.0530   -1.1620 C   0  0  0  0  0  0  0  0  0  0  0  0
   -3.1970   -0.7450   -0.8470 O   0  0  0  0  0  0  0  0  0  0  0  0
   -3.1920   -0.8740    0.5940 C   0  0  2  0  0  0  0  0  0  0  0  0
   -4.2930    0.0630    1.0240 C   0  0  0  0  0  0  0  0  0  0  0  0
   -5.0830    0.5060    0.2020 O   0  0  0  0  0  0  0  0  0  0  0  0
   -4.3720    0.4140    2.3890 O   0  0  0  0  0  0  0  0  0  0  0  0
   -1.9610   -0.2220    0.9500 N   0  0  0  0  0  0  0  0  0  0  0  0
    0.2460   -0.6980    0.1610 C   0  0  0  0  0  0  0  0  0  0  0  0
    0.3760   -1.5060    1.0400 O   0  0  0  0  0  0  0  0  0  0  0  0
  1  2  2  0
  2  3  1  0
  3  4  1  0
  4  5  1  0
  5  6  1  0
  6  7  1  0
  6 20  1  0
  7  8  2  0
  7  9  1  0
  9 10  1  0
 10 11  2  0
 10 12  1  0
 12 13  1  6
 12 19  1  0
 12 20  1  0
 13 14  1  0
 14 15  1  0
 15 16  1  1
 15 19  1  0
 16 17  2  0
 16 18  1  0
 20 21  2  0
M  END
