
     RDKit          3D

 31 32  0  0  0  0  0  0  0  0999 V2000
   -0.3170   -0.3180   -2.8980 N   0  0  0  0  0  0  0  0  0  0  0  0
   -0.2870   -1.3550   -1.9310 C   0  0  0  0  0  0  0  0  0  0  0  0
   -0.9550   -2.3780   -2.2470 O   0  0  0  0  0  0  0  0  0  0  0  0
    0.4350   -1.3160   -0.6520 C   0  0  2  0  0  0  0  0  0  0  0  0
    0.3010   -2.6090    0.1080 C   0  0  0  0  0  0  0  0  0  0  0  0
   -1.0090   -2.7680    0.8210 C   0  0  0  0  0  0  0  0  0  0  0  0
   -2.1070   -2.2890    0.1100 O   0  0  0  0  0  0  0  0  0  0  0  0
   -3.1360   -1.8970    0.9960 C   0  0  0  0  0  0  0  0  0  0  0  0
   -4.2590   -1.2640    0.2620 C   0  0  0  0  0  0  0  0  0  0  0  0
   -4.8590   -2.0160   -0.5530 O   0  0  0  0  0  0  0  0  0  0  0  0
   -4.5710    0.0330    0.4950 O   0  0  0  0  0  0  0  0  0  0  0  0
   -4.0340    1.2330    0.0100 C   0  0  1  0  0  0  0  0  0  0  0  0
   -5.0160    1.7030   -0.9130 O   0  0  0  0  0  0  0  0  0  0  0  0
   -4.0350    2.2930    1.0940 C   0  0  0  0  0  0  0  0  0  0  0  0
   -3.5250    3.4920    0.6210 O   0  0  0  0  0  0  0  0  0  0  0  0
   -2.7840    1.1260   -0.7620 C   0  0  0  0  0  0  0  0  0  0  0  0
   -1.4960    1.4310   -0.0990 C   0  0  0  0  0  0  0  0  0  0  0  0
   -0.9370    0.3540    0.4470 O   0  0  0  0  0  0  0  0  0  0  0  0
    0.2650   -0.1110    0.2140 C   0  0  2  0  0  0  0  0  0  0  0  0
    1.3080    0.5720   -0.6040 C   0  0  0  0  0  0  0  0  0  0  0  0
    1.8410   -0.8080   -0.8930 C   0  0  2  0  0  0  0  0  0  0  0  0
    2.2240   -0.9940   -2.2350 O   0  0  0  0  0  0  0  0  0  0  0  0
    2.8660   -1.2450    0.0910 C   0  0  0  0  0  0  0  0  0  0  0  0
    4.2560   -0.7810   -0.1070 C   0  0  1  0  0  0  0  0  0  0  0  0
    4.7750   -1.1790   -1.3650 O   0  0  0  0  0  0  0  0  0  0  0  0
    4.6180    0.6130    0.1310 C   0  0  0  0  0  0  0  0  0  0  0  0
    4.2390    1.1810    1.3470 O   0  0  0  0  0  0  0  0  0  0  0  0
    4.5870    2.5110    1.5690 C   0  0  0  0  0  0  0  0  0  0  0  0
    5.2250    3.1640    0.6830 O   0  0  0  0  0  0  0  0  0  0  0  0
    4.2690    3.1810    2.7290 O   0  0  0  0  0  0  0  0  0  0  0  0
    4.6290    4.4610    2.8880 O   0  0  0  0  0  0  0  0  0  0  0  0
  1  2  1  0
  2  3  2  0
  4  2  1  6
  4  5  1  0
  4 19  1  0
  4 21  1  0
  5  6  1  0
  6  7  1  0
  7  8  1  0
  8  9  1  0
  9 10  2  0
  9 11  1  0
 11 12  1  0
 12 13  1  6
 12 14  1  0
 12 16  1  0
 14 15  1  0
 16 17  1  0
 17 18  1  0
 18 19  1  0
 19 20  1  6
 20 21  1  0
 21 22  1  6
 21 23  1  0
 23 24  1  0
 24 25  1  6
 24 26  1  0
 26 27  1  0
 27 28  1  0
 28 29  2  0
 28 30  1  0
 30 31  1  0
M  CHG  1  31  -1
M  END
