
     RDKit          3D

 31 31  0  0  0  0  0  0  0  0999 V2000
   -3.7030    4.5610   -1.5760 C   0  0  0  0  0  0  0  0  0  0  0  0
   -2.9770    3.8490   -0.6030 O   0  0  0  0  0  0  0  0  0  0  0  0
   -2.5870    2.5290   -0.7620 C   0  0  0  0  0  0  0  0  0  0  0  0
   -2.9100    1.9600   -1.8380 O   0  0  0  0  0  0  0  0  0  0  0  0
   -1.8200    1.8120    0.2910 C   0  0  0  0  0  0  0  0  0  0  0  0
   -1.5350    0.4440   -0.1170 N   0  0  0  0  0  0  0  0  0  0  0  0
   -0.8130   -0.4570    0.7110 C   0  0  0  0  0  0  0  0  0  0  0  0
   -0.4500    0.0530    1.8270 O   0  0  0  0  0  0  0  0  0  0  0  0
   -0.5020   -1.8390    0.3480 C   0  0  2  0  0  0  0  0  0  0  0  0
    0.3110   -1.9580   -0.9360 C   0  0  2  0  0  0  0  0  0  0  0  0
    1.6940   -1.4560   -0.8090 C   0  0  2  0  0  0  0  0  0  0  0  0
    2.2900   -2.0930    0.2950 O   0  0  0  0  0  0  0  0  0  0  0  0
    1.8260   -0.0060   -0.5950 C   0  0  0  0  0  0  0  0  0  0  0  0
    1.3480    0.7570   -1.4750 O   0  0  0  0  0  0  0  0  0  0  0  0
    2.4260    0.5920    0.4780 O   0  0  0  0  0  0  0  0  0  0  0  0
    2.5730    1.9510    0.7200 C   0  0  1  0  0  0  0  0  0  0  0  0
    1.9980    2.4560    1.9870 C   0  0  0  0  0  0  0  0  0  0  0  0
    2.5880    1.8170    3.0760 O   0  0  0  0  0  0  0  0  0  0  0  0
    4.0460    2.3690    0.6500 C   0  0  1  0  0  0  0  0  0  0  0  0
    4.7550    1.6570    1.6070 O   0  0  0  0  0  0  0  0  0  0  0  0
    4.5430    1.8730   -0.7140 C   0  0  2  0  0  0  0  0  0  0  0  0
    5.9110    1.9660   -0.8300 O   0  0  0  0  0  0  0  0  0  0  0  0
    3.8650    2.5530   -1.7110 O   0  0  0  0  0  0  0  0  0  0  0  0
   -0.4380   -1.4560   -1.9560 O   0  0  0  0  0  0  0  0  0  0  0  0
   -1.3880   -2.4050   -2.3130 C   0  0  0  0  0  0  0  0  0  0  0  0
   -1.9110   -3.2290   -1.2130 C   0  0  0  0  0  0  0  0  0  0  0  0
   -1.6820   -2.7380    0.1780 C   0  0  2  0  0  0  0  0  0  0  0  0
   -2.9510   -2.1540    0.7830 C   0  0  0  0  0  0  0  0  0  0  0  0
   -2.7860   -1.9400    2.1430 O   0  0  0  0  0  0  0  0  0  0  0  0
   -1.4070   -4.0020    1.0170 C   0  0  0  0  0  0  0  0  0  0  0  0
   -2.4760   -4.8810    0.8990 O   0  0  0  0  0  0  0  0  0  0  0  0
  1  2  1  0
  2  3  1  0
  3  4  2  0
  3  5  1  0
  5  6  1  0
  6  7  1  0
  7  8  2  0
  9  7  1  6
  9 10  1  0
  9 27  1  0
 10 11  1  0
 10 24  1  6
 11 12  1  1
 11 13  1  0
 13 14  2  0
 13 15  1  0
 15 16  1  0
 16 17  1  1
 16 19  1  0
 17 18  1  0
 19 20  1  1
 19 21  1  0
 21 22  1  1
 21 23  1  0
 24 25  1  0
 25 26  1  0
 26 27  1  0
 27 28  1  1
 27 30  1  0
 28 29  1  0
 30 31  1  0
M  CHG  1  22  -1
M  END
