
     RDKit          3D

 31 31  0  0  0  0  0  0  0  0999 V2000
    0.9170   -2.9390   -1.7280 C   0  0  0  0  0  0  0  0  0  0  0  0
    0.2950   -2.2740   -0.5020 C   0  0  1  0  0  0  0  0  0  0  0  0
    0.4060   -3.1710    0.7000 C   0  0  0  0  0  0  0  0  0  0  0  0
    1.0100   -1.0980   -0.2300 O   0  0  0  0  0  0  0  0  0  0  0  0
    2.3750   -1.4000    0.0420 C   0  0  0  0  0  0  0  0  0  0  0  0
    3.1250   -0.4390    0.2960 O   0  0  0  0  0  0  0  0  0  0  0  0
    3.8620    0.5350    0.5080 C   0  0  0  0  0  0  0  0  0  0  0  0
    5.0420    0.7320   -0.4630 C   0  0  0  0  0  0  0  0  0  0  0  0
    5.7770    1.8570   -0.1050 O   0  0  0  0  0  0  0  0  0  0  0  0
    6.8210    1.9860   -1.0070 C   0  0  2  0  0  0  0  0  0  0  0  0
    8.0050    1.8060   -0.2720 O   0  0  0  0  0  0  0  0  0  0  0  0
    6.8380    3.3490   -1.6650 C   0  0  0  0  0  0  0  0  0  0  0  0
    6.9830    4.3110   -0.6680 O   0  0  0  0  0  0  0  0  0  0  0  0
   -1.1360   -1.9180   -0.8190 C   0  0  1  0  0  0  0  0  0  0  0  0
   -1.2050   -1.1320   -1.9580 O   0  0  0  0  0  0  0  0  0  0  0  0
   -2.0490   -3.1030   -0.9440 C   0  0  0  0  0  0  0  0  0  0  0  0
   -3.2350   -2.7270   -1.5770 O   0  0  0  0  0  0  0  0  0  0  0  0
   -3.7680   -1.5430   -1.1060 C   0  0  0  0  0  0  0  0  0  0  0  0
   -3.2180   -1.1140    0.2040 C   0  0  2  0  0  0  0  0  0  0  0  0
   -3.8790    0.1550    0.7250 C   0  0  2  0  0  0  0  0  0  0  0  0
   -3.3150    0.5010    1.9170 O   0  0  0  0  0  0  0  0  0  0  0  0
   -5.3450   -0.2130    0.9970 C   0  0  0  0  0  0  0  0  0  0  0  0
   -5.4060   -1.2390    1.9310 O   0  0  0  0  0  0  0  0  0  0  0  0
   -3.8750    1.2580   -0.2520 C   0  0  0  0  0  0  0  0  0  0  0  0
   -4.5420    2.3670    0.1920 O   0  0  0  0  0  0  0  0  0  0  0  0
   -4.0620    3.0630    1.2500 C   0  0  1  0  0  0  0  0  0  0  0  0
   -3.8500    4.4180    0.8420 O   0  0  0  0  0  0  0  0  0  0  0  0
   -5.0850    3.1740    2.2220 O   0  0  0  0  0  0  0  0  0  0  0  0
   -4.6540    2.8500    3.4050 O   0  0  0  0  0  0  0  0  0  0  0  0
   -1.7340   -1.0790    0.3290 C   0  0  2  0  0  0  0  0  0  0  0  0
   -1.1430    0.2190    0.3820 N   0  0  0  0  0  0  0  0  0  0  0  0
  2  1  1  6
  2  3  1  0
  2  4  1  0
  2 14  1  0
  4  5  1  0
  5  6  1  0
  6  7  1  0
  7  8  1  0
  8  9  1  0
  9 10  1  0
 10 11  1  1
 10 12  1  0
 12 13  1  0
 14 15  1  6
 14 16  1  0
 14 30  1  0
 16 17  1  0
 17 18  1  0
 19 18  1  6
 19 20  1  0
 19 30  1  0
 20 21  1  1
 20 22  1  0
 20 24  1  0
 22 23  1  0
 24 25  1  0
 25 26  1  0
 26 27  1  6
 26 28  1  0
 28 29  1  0
 30 31  1  6
M  CHG  1  23  -1
M  END
