
     RDKit          3D

 31 32  0  0  0  0  0  0  0  0999 V2000
   -3.3080    3.1120    1.7910 N   0  0  0  0  0  0  0  0  0  0  0  0
   -3.9590    1.8700    1.4630 C   0  0  0  0  0  0  0  0  0  0  0  0
   -5.1640    1.6700    1.7610 O   0  0  0  0  0  0  0  0  0  0  0  0
   -3.2780    0.8690    0.8150 O   0  0  0  0  0  0  0  0  0  0  0  0
   -3.8420   -0.3500    0.4670 C   0  0  0  0  0  0  0  0  0  0  0  0
   -3.1450   -1.2950   -0.1470 C   0  0  0  0  0  0  0  0  0  0  0  0
   -1.7470   -1.2210   -0.5410 C   0  0  0  0  0  0  0  0  0  0  0  0
   -1.1620   -2.1560   -1.1170 O   0  0  0  0  0  0  0  0  0  0  0  0
   -1.0160   -0.0740   -0.2750 O   0  0  0  0  0  0  0  0  0  0  0  0
    0.3830    0.0110   -0.6650 C   0  0  0  0  0  0  0  0  0  0  0  0
    0.8350    1.3530   -0.2310 C   0  0  1  0  0  0  0  0  0  0  0  0
    0.7770    1.5590    1.1550 O   0  0  0  0  0  0  0  0  0  0  0  0
    2.0680    1.8270   -0.8770 C   0  0  0  0  0  0  0  0  0  0  0  0
    3.2880    1.3570   -0.5460 O   0  0  0  0  0  0  0  0  0  0  0  0
    3.5570    0.0810   -0.8660 C   0  0  1  0  0  0  0  0  0  0  0  0
    4.4810    0.1930   -1.9850 O   0  0  0  0  0  0  0  0  0  0  0  0
    5.6350    0.8200   -1.6150 C   0  0  0  0  0  0  0  0  0  0  0  0
    5.8030    1.1210   -0.1670 C   0  0  2  0  0  0  0  0  0  0  0  0
    7.1950    1.2680    0.0510 O   0  0  0  0  0  0  0  0  0  0  0  0
    5.3430    0.0610    0.7740 C   0  0  0  0  0  0  0  0  0  0  0  0
    4.2510   -0.7790    0.1280 C   0  0  1  0  0  0  0  0  0  0  0  0
    3.4140   -1.4690    1.1330 C   0  0  0  0  0  0  0  0  0  0  0  0
    2.6880   -0.6360    1.9520 O   0  0  0  0  0  0  0  0  0  0  0  0
   -3.9490   -2.4160   -0.3800 O   0  0  0  0  0  0  0  0  0  0  0  0
   -5.3060   -1.9460   -0.3870 C   0  0  1  0  0  0  0  0  0  0  0  0
   -5.5470   -1.3890   -1.7740 C   0  0  0  0  0  0  0  0  0  0  0  0
   -6.8160   -0.8920   -1.9500 O   0  0  0  0  0  0  0  0  0  0  0  0
   -6.2240   -3.0310   -0.0440 C   0  0  0  0  0  0  0  0  0  0  0  0
   -5.8110   -4.1900    0.2100 O   0  0  0  0  0  0  0  0  0  0  0  0
   -7.5810   -2.7760    0.0020 O   0  0  0  0  0  0  0  0  0  0  0  0
   -5.2020   -0.8690    0.6610 C   0  0  0  0  0  0  0  0  0  0  0  0
  1  2  1  0
  2  3  2  0
  2  4  1  0
  4  5  1  0
  5  6  2  0
  5 31  1  0
  6  7  1  0
  6 24  1  0
  7  8  2  0
  7  9  1  0
  9 10  1  0
 10 11  1  0
 11 12  1  1
 11 13  1  0
 13 14  1  0
 15 14  1  1
 15 16  1  0
 15 21  1  0
 16 17  1  0
 17 18  1  0
 18 19  1  6
 18 20  1  0
 20 21  1  0
 21 22  1  1
 22 23  1  0
 24 25  1  0
 25 26  1  6
 25 28  1  0
 25 31  1  0
 26 27  1  0
 28 29  2  0
 28 30  1  0
M  CHG  1  30  -1
M  END
