
     RDKit          3D

 31 32  0  0  0  0  0  0  0  0999 V2000
    4.4960    1.2180    1.1440 C   0  0  0  0  0  0  0  0  0  0  0  0
    3.9720   -0.1110    0.6470 C   0  0  2  0  0  0  0  0  0  0  0  0
    4.5180   -0.3980   -0.5820 O   0  0  0  0  0  0  0  0  0  0  0  0
    2.4930   -0.0150    0.5590 C   0  0  0  0  0  0  0  0  0  0  0  0
    1.8180    0.2420    1.5880 O   0  0  0  0  0  0  0  0  0  0  0  0
    1.7950   -0.2060   -0.6580 N   0  0  0  0  0  0  0  0  0  0  0  0
    0.3270   -0.1130   -0.7550 C   0  0  1  0  0  0  0  0  0  0  0  0
    0.0420    0.7730   -1.7360 O   0  0  0  0  0  0  0  0  0  0  0  0
   -0.7590    1.8390   -1.4130 C   0  0  2  0  0  0  0  0  0  0  0  0
   -1.0000    2.5830   -2.7310 C   0  0  0  0  0  0  0  0  0  0  0  0
    0.2570    2.9710   -3.1940 O   0  0  0  0  0  0  0  0  0  0  0  0
    0.0330    2.7950   -0.5480 C   0  0  0  0  0  0  0  0  0  0  0  0
   -0.7340    3.8800   -0.2110 O   0  0  0  0  0  0  0  0  0  0  0  0
   -2.0950    1.4830   -0.8520 C   0  0  2  0  0  0  0  0  0  0  0  0
   -3.1410    1.7970   -1.7530 O   0  0  0  0  0  0  0  0  0  0  0  0
   -2.4420    2.2000    0.4350 C   0  0  0  0  0  0  0  0  0  0  0  0
   -3.4710    1.4370    1.0400 O   0  0  0  0  0  0  0  0  0  0  0  0
   -2.9450    0.4110    1.8240 C   0  0  0  0  0  0  0  0  0  0  0  0
   -3.6800   -0.8660    1.4910 C   0  0  2  0  0  0  0  0  0  0  0  0
   -4.8110   -0.9830    2.2980 O   0  0  0  0  0  0  0  0  0  0  0  0
   -2.8560   -2.0960    1.6680 C   0  0  0  0  0  0  0  0  0  0  0  0
   -2.1470   -2.4440    0.5100 O   0  0  0  0  0  0  0  0  0  0  0  0
   -0.8350   -2.6540    0.8950 C   0  0  0  0  0  0  0  0  0  0  0  0
    0.1570   -2.5480   -0.1940 C   0  0  1  0  0  0  0  0  0  0  0  0
    0.2630   -3.6960   -0.9790 O   0  0  0  0  0  0  0  0  0  0  0  0
    0.5420   -3.2960   -2.2650 C   0  0  0  0  0  0  0  0  0  0  0  0
    0.7190   -1.9300   -2.2660 O   0  0  0  0  0  0  0  0  0  0  0  0
   -0.1190   -1.4950   -1.2170 C   0  0  2  0  0  0  0  0  0  0  0  0
    4.4000   -1.1660    1.6670 C   0  0  2  0  0  0  0  0  0  0  0  0
    5.7970   -1.1590    1.6850 O   0  0  0  0  0  0  0  0  0  0  0  0
    3.9710   -2.4150    1.2710 O   0  0  0  0  0  0  0  0  0  0  0  0
  2  1  1  1
  2  3  1  0
  2  4  1  0
  2 29  1  0
  4  5  2  0
  4  6  1  0
  7  6  1  6
  7  8  1  0
  7 28  1  0
  8  9  1  0
  9 10  1  6
  9 12  1  0
  9 14  1  0
 10 11  1  0
 12 13  1  0
 14 15  1  6
 14 16  1  0
 16 17  1  0
 17 18  1  0
 18 19  1  0
 19 20  1  1
 19 21  1  0
 21 22  1  0
 22 23  1  0
 24 23  1  1
 24 25  1  0
 24 28  1  0
 25 26  1  0
 26 27  1  0
 28 27  1  6
 29 30  1  6
 29 31  1  0
M  CHG  1  30  -1
M  END
