
     RDKit          3D

 12 13  0  0  0  0  0  0  0  0999 V2000
   -3.1570    0.9200    0.8140 O   0  0  0  0  0  0  0  0  0  0  0  0
   -3.3230   -0.2940    0.6520 N   0  0  0  0  0  0  0  0  0  0  0  0
   -4.5580   -0.8250    0.8940 O   0  0  0  0  0  0  0  0  0  0  0  0
   -2.2510   -1.1530    0.2180 C   0  0  0  0  0  0  0  0  0  0  0  0
   -0.9740   -0.4450   -0.0240 C   0  0  0  0  0  0  0  0  0  0  0  0
   -0.8710    0.8230   -0.5420 C   0  0  0  0  0  0  0  0  0  0  0  0
    0.4230    1.1870   -0.6400 N   0  0  0  0  0  0  0  0  0  0  0  0
    1.1350    0.1430   -0.1810 C   0  0  0  0  0  0  0  0  0  0  0  0
    2.5850    0.1410   -0.1220 C   0  0  0  0  0  0  0  0  0  0  0  0
    3.7990    0.7550   -0.3250 C   0  0  0  0  0  0  0  0  0  0  0  0
    3.7700   -0.5530    0.2120 N   0  0  0  0  0  0  0  0  0  0  0  0
    0.2900   -0.8480    0.1930 N   0  0  0  0  0  0  0  0  0  0  0  0
  1  2  2  0
  2  3  1  0
  2  4  1  0
  4  5  1  0
  5  6  2  0
  5 12  1  0
  6  7  1  0
  7  8  1  0
  8  9  1  0
  8 12  2  0
  9 10  2  0
  9 11  1  0
 10 11  1  0
M  CHG  2   2   1   3  -1
M  END
