
     RDKit          3D

 12 12  0  0  0  0  0  0  0  0999 V2000
   -2.8030   -0.0690    0.2340 C   0  0  0  0  0  0  0  0  0  0  0  0
   -1.3400    0.1480    0.0350 C   0  0  0  0  0  0  0  0  0  0  0  0
   -0.9040    1.3880    0.1380 C   0  0  0  0  0  0  0  0  0  0  0  0
    0.4450    1.8790   -0.0050 N   0  0  0  0  0  0  0  0  0  0  0  0
    1.6350    1.1500   -0.0820 N   0  0  0  0  0  0  0  0  0  0  0  0
    1.8760   -0.2500   -0.0340 C   0  0  0  0  0  0  0  0  0  0  0  0
    3.2190   -0.6780    0.1030 N   0  0  0  0  0  0  0  0  0  0  0  0
    3.6450   -1.6330   -0.5650 O   0  0  0  0  0  0  0  0  0  0  0  0
    4.0790   -0.0570    0.9670 O   0  0  0  0  0  0  0  0  0  0  0  0
    0.9270   -1.1750   -0.1090 C   0  0  0  0  0  0  0  0  0  0  0  0
   -0.5390   -1.0360   -0.2530 C   0  0  0  0  0  0  0  0  0  0  0  0
   -1.1810   -2.0510   -0.6730 N   0  0  0  0  0  0  0  0  0  0  0  0
  1  2  1  0
  2  3  2  0
  2 11  1  0
  3  4  1  0
  4  5  1  0
  5  6  1  0
  6  7  1  0
  6 10  2  0
  7  8  2  0
  7  9  1  0
 10 11  1  0
 11 12  2  0
M  CHG  2   7   1   9  -1
M  END
