
     RDKit          3D

 12 12  0  0  0  0  0  0  0  0999 V2000
    2.3800    1.8590   -0.7930 C   0  0  0  0  0  0  0  0  0  0  0  0
    2.3060    0.3770   -0.5360 C   0  0  0  0  0  0  0  0  0  0  0  0
    1.1600   -0.2590   -0.5040 C   0  0  0  0  0  0  0  0  0  0  0  0
    1.1270   -1.7090   -0.2500 C   0  0  0  0  0  0  0  0  0  0  0  0
   -0.0730   -2.1490    0.5310 C   0  0  0  0  0  0  0  0  0  0  0  0
   -0.9580   -1.0480    0.8240 N   0  0  0  0  0  0  0  0  0  0  0  0
   -1.0920    0.0530   -0.0630 C   0  0  0  0  0  0  0  0  0  0  0  0
   -2.3690    0.7420   -0.2390 C   0  0  0  0  0  0  0  0  0  0  0  0
   -2.7820    1.3300    1.0070 N   0  0  0  0  0  0  0  0  0  0  0  0
   -2.9230    2.5740    1.0350 O   0  0  0  0  0  0  0  0  0  0  0  0
   -3.0290    0.6260    2.1560 O   0  0  0  0  0  0  0  0  0  0  0  0
   -0.0450    0.4360   -0.7140 N   0  0  0  0  0  0  0  0  0  0  0  0
  1  2  1  0
  2  3  2  3
  3  4  1  0
  3 12  1  0
  4  5  1  0
  5  6  1  0
  6  7  1  0
  7  8  1  0
  7 12  2  0
  8  9  1  0
  9 10  2  0
  9 11  1  0
M  CHG  2   9   1  11  -1
M  END
