
     RDKit          3D

 12 12  0  0  0  0  0  0  0  0999 V2000
    3.2470   -0.6550    0.2730 C   0  0  0  0  0  0  0  0  0  0  0  0
    1.9340   -0.6910    0.1100 C   0  0  0  0  0  0  0  0  0  0  0  0
    1.0730   -1.8270    0.0750 N   0  0  0  0  0  0  0  0  0  0  0  0
   -0.2260   -1.3520   -0.1200 N   0  0  0  0  0  0  0  0  0  0  0  0
   -0.2710   -0.0740   -0.2090 C   0  0  0  0  0  0  0  0  0  0  0  0
   -1.4910    0.7870   -0.4200 C   0  0  0  0  0  0  0  0  0  0  0  0
   -2.7030   -0.1140   -0.4770 C   0  0  0  0  0  0  0  0  0  0  0  0
   -2.8160   -0.8300    0.7770 N   0  0  0  0  0  0  0  0  0  0  0  0
   -2.0330   -0.6700    1.7100 O   0  0  0  0  0  0  0  0  0  0  0  0
   -3.8550   -1.7250    0.9170 O   0  0  0  0  0  0  0  0  0  0  0  0
    1.0590    0.4140   -0.0730 N   0  0  0  0  0  0  0  0  0  0  0  0
    1.4730    1.7970   -0.1120 C   0  0  0  0  0  0  0  0  0  0  0  0
  1  2  2  0
  2  3  1  0
  2 11  1  0
  3  4  1  0
  4  5  2  0
  5  6  1  0
  5 11  1  0
  6  7  1  0
  7  8  1  0
  8  9  2  0
  8 10  1  0
 11 12  1  0
M  CHG  2   8   1  10  -1
M  END
