
     RDKit          3D

 12 12  0  0  0  0  0  0  0  0999 V2000
   -3.7500    0.7220    0.2310 C   0  0  0  0  0  0  0  0  0  0  0  0
   -2.2900    0.4660    0.1900 C   0  0  0  0  0  0  0  0  0  0  0  0
   -1.8630   -0.6910   -0.2800 C   0  0  0  0  0  0  0  0  0  0  0  0
   -0.4190   -0.9620   -0.3270 C   0  0  0  0  0  0  0  0  0  0  0  0
    0.1700   -2.0940   -0.7790 N   0  0  0  0  0  0  0  0  0  0  0  0
    1.4600   -1.9050   -0.6390 N   0  0  0  0  0  0  0  0  0  0  0  0
    1.7000   -0.6920   -0.1140 C   0  0  0  0  0  0  0  0  0  0  0  0
    3.0070   -0.0680    0.2120 C   0  0  0  0  0  0  0  0  0  0  0  0
    3.4460    0.6540   -0.9670 N   0  0  0  0  0  0  0  0  0  0  0  0
    2.7840    0.6900   -2.0190 O   0  0  0  0  0  0  0  0  0  0  0  0
    4.6390    1.3370   -0.9560 O   0  0  0  0  0  0  0  0  0  0  0  0
    0.5210   -0.0920    0.0850 N   0  0  0  0  0  0  0  0  0  0  0  0
  1  2  1  0
  2  3  2  3
  3  4  1  0
  4  5  2  0
  4 12  1  0
  5  6  1  0
  6  7  2  0
  7  8  1  0
  7 12  1  0
  8  9  1  0
  9 10  2  0
  9 11  1  0
M  CHG  2   9   1  11  -1
M  END
