
     RDKit          3D

 15 15  0  0  0  0  0  0  0  0999 V2000
    4.6490   -0.6860   -0.7830 C   0  0  0  0  0  0  0  0  0  0  0  0
    3.5840   -0.3870    0.2270 C   0  0  1  0  0  0  0  0  0  0  0  0
    4.1120    0.7890    1.0620 C   0  0  0  0  0  0  0  0  0  0  0  0
    2.3800    0.0730   -0.3500 O   0  0  0  0  0  0  0  0  0  0  0  0
    1.1390   -0.4420   -0.1130 C   0  0  0  0  0  0  0  0  0  0  0  0
    1.0270   -1.4050    0.6800 O   0  0  0  0  0  0  0  0  0  0  0  0
   -0.0250    0.1810   -0.8210 C   0  0  0  0  0  0  0  0  0  0  0  0
   -1.3250   -0.4940   -0.4580 C   0  0  1  0  0  0  0  0  0  0  0  0
   -1.2940   -1.8630   -0.8070 O   0  0  0  0  0  0  0  0  0  0  0  0
   -1.6010   -0.4370    1.0110 C   0  0  0  0  0  0  0  0  0  0  0  0
   -3.0640   -0.2450    1.3310 C   0  0  0  0  0  0  0  0  0  0  0  0
   -3.5480    1.0720    0.8170 C   0  0  0  0  0  0  0  0  0  0  0  0
   -2.8430    1.4200   -0.4690 C   0  0  0  0  0  0  0  0  0  0  0  0
   -2.4120    0.2040   -1.2460 C   0  0  2  0  0  0  0  0  0  0  0  0
   -3.4750   -0.6390   -1.5350 O   0  0  0  0  0  0  0  0  0  0  0  0
  2  1  1  6
  2  3  1  0
  2  4  1  0
  4  5  1  0
  5  6  2  0
  5  7  1  0
  7  8  1  0
  8  9  1  6
  8 10  1  0
  8 14  1  0
 10 11  1  0
 11 12  1  0
 12 13  1  0
 13 14  1  0
 14 15  1  1
M  END
