
     RDKit          3D

 15 15  0  0  0  0  0  0  0  0999 V2000
   -0.5660   -1.2980    0.8480 O   0  0  0  0  0  0  0  0  0  0  0  0
    0.0320   -0.4350    0.1820 C   0  0  0  0  0  0  0  0  0  0  0  0
    1.2740   -0.7960   -0.5330 C   0  0  0  0  0  0  0  0  0  0  0  0
    2.4370   -0.1070    0.1700 C   0  0  0  0  0  0  0  0  0  0  0  0
    3.7450   -0.4230   -0.5280 C   0  0  0  0  0  0  0  0  0  0  0  0
    4.8940    0.2650    0.1520 C   0  0  0  0  0  0  0  0  0  0  0  0
    6.0760   -0.0440   -0.5140 O   0  0  0  0  0  0  0  0  0  0  0  0
   -0.4400    0.8540    0.0960 O   0  0  0  0  0  0  0  0  0  0  0  0
   -1.5990    1.3290    0.7080 C   0  0  0  0  0  0  0  0  0  0  0  0
   -2.8250    0.6320    0.2120 C   0  0  0  0  0  0  0  0  0  0  0  0
   -3.5660   -0.0230    1.0600 C   0  0  0  0  0  0  0  0  0  0  0  0
   -4.7850   -0.7190    0.5800 C   0  0  0  0  0  0  0  0  0  0  0  0
   -5.0130   -0.5570   -0.7810 O   0  0  0  0  0  0  0  0  0  0  0  0
   -4.2240    0.1320   -1.6570 C   0  0  0  0  0  0  0  0  0  0  0  0
   -3.1290    0.7400   -1.2150 C   0  0  0  0  0  0  0  0  0  0  0  0
  1  2  2  0
  2  3  1  0
  2  8  1  0
  3  4  1  0
  4  5  1  0
  5  6  1  0
  6  7  1  0
  8  9  1  0
  9 10  1  0
 10 11  2  0
 10 15  1  0
 11 12  1  0
 12 13  1  0
 13 14  1  0
 14 15  2  0
M  END
