
     RDKit          3D

 27 29  0  0  0  0  0  0  0  0999 V2000
    5.1030    1.4420   -2.3840 N   0  0  0  0  0  0  0  0  0  0  0  0
    5.8950    0.7750   -1.4270 C   0  0  0  0  0  0  0  0  0  0  0  0
    7.1350    0.7880   -1.5490 O   0  0  0  0  0  0  0  0  0  0  0  0
    5.3130    0.0680   -0.2970 C   0  0  0  0  0  0  0  0  0  0  0  0
    6.0920   -0.5840    0.6360 C   0  0  0  0  0  0  0  0  0  0  0  0
    5.5330   -1.2500    1.7020 C   0  0  0  0  0  0  0  0  0  0  0  0
    4.1650   -1.2830    1.8650 C   0  0  0  0  0  0  0  0  0  0  0  0
    3.3430   -0.6390    0.9460 C   0  0  0  0  0  0  0  0  0  0  0  0
    1.8890   -0.6920    1.1470 C   0  0  0  0  0  0  0  0  0  0  0  0
    0.9900   -0.0920    0.3030 C   0  0  0  0  0  0  0  0  0  0  0  0
   -0.4020   -0.1420    0.4940 C   0  0  0  0  0  0  0  0  0  0  0  0
   -1.2460    0.5030   -0.4230 N   0  0  0  0  0  0  0  0  0  0  0  0
   -2.6310    0.5510   -0.3840 C   0  0  0  0  0  0  0  0  0  0  0  0
   -3.3770   -0.0460    0.5900 C   0  0  0  0  0  0  0  0  0  0  0  0
   -4.7810    0.0460    0.5650 C   0  0  0  0  0  0  0  0  0  0  0  0
   -5.4270    0.7350   -0.4340 C   0  0  0  0  0  0  0  0  0  0  0  0
   -6.8030    0.7910   -0.4070 O   0  0  0  0  0  0  0  0  0  0  0  0
   -7.6110   -0.1970   -1.0590 C   0  0  1  0  0  0  0  0  0  0  0  0
   -8.9370    0.0620   -0.8990 F   0  0  0  0  0  0  0  0  0  0  0  0
   -7.3350   -0.2260   -2.4280 F   0  0  0  0  0  0  0  0  0  0  0  0
   -7.2230   -1.4180   -0.5410 F   0  0  0  0  0  0  0  0  0  0  0  0
   -4.6850    1.3400   -1.4200 C   0  0  0  0  0  0  0  0  0  0  0  0
   -3.3150    1.2460   -1.3890 C   0  0  0  0  0  0  0  0  0  0  0  0
   -0.7970   -0.8280    1.5760 N   0  0  0  0  0  0  0  0  0  0  0  0
    0.0480   -1.4240    2.4200 C   0  0  0  0  0  0  0  0  0  0  0  0
    1.3830   -1.3620    2.2150 N   0  0  0  0  0  0  0  0  0  0  0  0
    3.9320    0.0170   -0.1070 C   0  0  0  0  0  0  0  0  0  0  0  0
  1  2  1  0
  2  3  2  0
  2  4  1  0
  4  5  2  0
  4 27  1  0
  5  6  1  0
  6  7  2  0
  7  8  1  0
  8  9  1  0
  8 27  2  0
  9 10  2  0
  9 26  1  0
 10 11  1  0
 11 12  1  0
 11 24  2  0
 12 13  1  0
 13 14  2  0
 13 23  1  0
 14 15  1  0
 15 16  2  0
 16 17  1  0
 16 22  1  0
 17 18  1  0
 18 19  1  6
 18 20  1  0
 18 21  1  0
 22 23  2  0
 24 25  1  0
 25 26  2  0
M  END
