
     RDKit          3D

 27 29  0  0  0  0  0  0  0  0999 V2000
   -1.3160    0.1970    2.8770 C   0  0  0  0  0  0  0  0  0  0  0  0
   -2.5420    0.1850    2.5030 C   0  0  0  0  0  0  0  0  0  0  0  0
   -2.9900   -0.3400    1.1980 C   0  0  0  0  0  0  0  0  0  0  0  0
   -4.2870   -0.3070    0.9650 C   0  0  0  0  0  0  0  0  0  0  0  0
   -4.9870   -0.7500   -0.2420 C   0  0  0  0  0  0  0  0  0  0  0  0
   -5.8610   -1.7970   -0.0140 F   0  0  0  0  0  0  0  0  0  0  0  0
   -2.0660   -0.9830    0.2820 C   0  0  0  0  0  0  0  0  0  0  0  0
   -2.3840   -2.0260   -0.5570 C   0  0  0  0  0  0  0  0  0  0  0  0
   -1.5540   -2.5590   -1.5130 C   0  0  0  0  0  0  0  0  0  0  0  0
   -0.3020   -2.0060   -1.6370 C   0  0  0  0  0  0  0  0  0  0  0  0
    0.0610   -0.9520   -0.8080 C   0  0  0  0  0  0  0  0  0  0  0  0
    1.3410   -0.4030   -0.9560 N   0  0  0  0  0  0  0  0  0  0  0  0
    1.8520    0.7000   -0.2000 C   0  0  0  0  0  0  0  0  0  0  0  0
    1.0910    1.1990    0.6310 O   0  0  0  0  0  0  0  0  0  0  0  0
    3.1670    1.1880   -0.4000 N   0  0  0  0  0  0  0  0  0  0  0  0
    3.7620    2.2640    0.2870 C   0  0  0  0  0  0  0  0  0  0  0  0
    3.1330    3.0610    1.2070 C   0  0  0  0  0  0  0  0  0  0  0  0
    3.8220    4.1100    1.8440 C   0  0  0  0  0  0  0  0  0  0  0  0
    5.1450    4.3710    1.5680 C   0  0  0  0  0  0  0  0  0  0  0  0
    5.7400    3.5890    0.6740 N   0  0  0  0  0  0  0  0  0  0  0  0
    5.1080    2.5890    0.0580 C   0  0  0  0  0  0  0  0  0  0  0  0
   -0.7950   -0.4860    0.0960 N   0  0  0  0  0  0  0  0  0  0  0  0
    0.3940   -2.7300   -2.7060 C   0  0  0  0  0  0  0  0  0  0  0  0
   -0.4340   -3.7240   -3.1430 O   0  0  0  0  0  0  0  0  0  0  0  0
   -1.6500   -3.6430   -2.5120 C   0  0  1  0  0  0  0  0  0  0  0  0
   -2.0400   -4.8490   -1.9470 F   0  0  0  0  0  0  0  0  0  0  0  0
   -2.6040   -3.3570   -3.4930 F   0  0  0  0  0  0  0  0  0  0  0  0
  1  2  2  0
  2  3  1  0
  3  4  2  3
  3  7  1  0
  4  5  1  0
  5  6  1  0
  7  8  2  0
  7 22  1  0
  8  9  1  0
  9 10  2  0
  9 25  1  0
 10 11  1  0
 10 23  1  0
 11 12  1  0
 11 22  2  0
 12 13  1  0
 13 14  2  0
 13 15  1  0
 15 16  1  0
 16 17  2  0
 16 21  1  0
 17 18  1  0
 18 19  2  0
 19 20  1  0
 20 21  2  0
 23 24  1  0
 24 25  1  0
 25 26  1  1
 25 27  1  0
M  END
