
     RDKit          3D

 27 29  0  0  0  0  0  0  0  0999 V2000
   -8.2060    0.6490    0.9550 O   0  0  0  0  0  0  0  0  0  0  0  0
   -7.2230    1.0270    0.2890 C   0  0  0  0  0  0  0  0  0  0  0  0
   -5.9570    0.3240    0.4320 C   0  0  0  0  0  0  0  0  0  0  0  0
   -5.8770   -0.7470    1.3030 C   0  0  0  0  0  0  0  0  0  0  0  0
   -4.6820   -1.4120    1.4400 C   0  0  0  0  0  0  0  0  0  0  0  0
   -3.5460   -1.0300    0.7200 C   0  0  0  0  0  0  0  0  0  0  0  0
   -3.5970    0.0220   -0.1450 C   0  0  0  0  0  0  0  0  0  0  0  0
   -2.4910    0.4790   -0.8960 N   0  0  0  0  0  0  0  0  0  0  0  0
   -1.1500    0.0800   -0.7120 C   0  0  0  0  0  0  0  0  0  0  0  0
   -0.8250   -0.7420    0.1780 O   0  0  0  0  0  0  0  0  0  0  0  0
   -0.0920    0.5980   -1.5380 N   0  0  0  0  0  0  0  0  0  0  0  0
    1.3070    0.1910   -1.3440 C   0  0  0  0  0  0  0  0  0  0  0  0
    1.7570    0.6910   -0.0280 C   0  0  0  0  0  0  0  0  0  0  0  0
    0.9430    1.4660    0.8300 C   0  0  0  0  0  0  0  0  0  0  0  0
    1.7130    1.7190    1.8960 N   0  0  0  0  0  0  0  0  0  0  0  0
    2.8920    1.1710    1.7450 N   0  0  0  0  0  0  0  0  0  0  0  0
    2.9760    0.5080    0.5450 C   0  0  0  0  0  0  0  0  0  0  0  0
    4.1800   -0.1940    0.1260 C   0  0  0  0  0  0  0  0  0  0  0  0
    4.3360   -0.8230   -1.0660 C   0  0  0  0  0  0  0  0  0  0  0  0
    5.5360   -1.4720   -1.4030 C   0  0  0  0  0  0  0  0  0  0  0  0
    5.6300   -2.0820   -2.6100 F   0  0  0  0  0  0  0  0  0  0  0  0
    6.5930   -1.4950   -0.5460 C   0  0  0  0  0  0  0  0  0  0  0  0
    6.4250   -0.8510    0.6670 C   0  0  0  0  0  0  0  0  0  0  0  0
    7.4410   -0.8290    1.5860 F   0  0  0  0  0  0  0  0  0  0  0  0
    5.2700   -0.2140    1.0200 C   0  0  0  0  0  0  0  0  0  0  0  0
    5.1450    0.4140    2.2370 F   0  0  0  0  0  0  0  0  0  0  0  0
   -4.8320    0.6660   -0.2510 C   0  0  0  0  0  0  0  0  0  0  0  0
  1  2  2  0
  2  3  1  0
  3  4  2  0
  3 27  1  0
  4  5  1  0
  5  6  2  0
  6  7  1  0
  7  8  1  0
  7 27  2  0
  8  9  1  0
  9 10  2  0
  9 11  1  0
 11 12  1  0
 12 13  1  0
 13 14  2  0
 13 17  1  0
 14 15  1  0
 15 16  1  0
 16 17  2  0
 17 18  1  0
 18 19  2  0
 18 25  1  0
 19 20  1  0
 20 21  1  0
 20 22  2  0
 22 23  1  0
 23 24  1  0
 23 25  2  0
 25 26  1  0
M  END
