
     RDKit          3D

 27 29  0  0  0  0  0  0  0  0999 V2000
    1.5020    3.4360    1.0640 C   0  0  0  0  0  0  0  0  0  0  0  0
    0.9730    3.1930   -0.3130 C   0  0  0  0  0  0  0  0  0  0  0  0
   -0.1360    2.1850   -0.2280 C   0  0  0  0  0  0  0  0  0  0  0  0
   -1.4380    2.5750   -0.3390 C   0  0  0  0  0  0  0  0  0  0  0  0
   -2.4900    1.6830   -0.2750 C   0  0  0  0  0  0  0  0  0  0  0  0
   -2.1760    0.3300   -0.0870 C   0  0  0  0  0  0  0  0  0  0  0  0
   -0.8740   -0.0730    0.0260 C   0  0  0  0  0  0  0  0  0  0  0  0
    0.1550    0.8350   -0.0420 C   0  0  0  0  0  0  0  0  0  0  0  0
    1.5380    0.4980    0.0780 N   0  0  0  0  0  0  0  0  0  0  0  0
    2.0880   -0.7950    0.2160 C   0  0  0  0  0  0  0  0  0  0  0  0
    1.3540   -1.8100    0.2410 O   0  0  0  0  0  0  0  0  0  0  0  0
    3.5090   -0.9880    0.3310 N   0  0  0  0  0  0  0  0  0  0  0  0
    3.9960   -2.3530    0.4700 C   0  0  0  0  0  0  0  0  0  0  0  0
    5.4940   -2.3980    0.5770 C   0  0  0  0  0  0  0  0  0  0  0  0
    6.1190   -1.7990   -0.6660 C   0  0  1  0  0  0  0  0  0  0  0  0
    7.4770   -1.8310   -0.5870 F   0  0  0  0  0  0  0  0  0  0  0  0
    5.7480   -2.4870   -1.8030 F   0  0  0  0  0  0  0  0  0  0  0  0
   -3.3060   -0.6250    0.0050 C   0  0  0  0  0  0  0  0  0  0  0  0
   -4.6180   -0.1630   -0.0920 C   0  0  0  0  0  0  0  0  0  0  0  0
   -5.6490   -1.0880   -0.0290 C   0  0  0  0  0  0  0  0  0  0  0  0
   -6.9130   -0.6240   -0.1260 F   0  0  0  0  0  0  0  0  0  0  0  0
   -5.3320   -2.4110    0.1270 C   0  0  0  0  0  0  0  0  0  0  0  0
   -4.0850   -2.8430    0.2190 N   0  0  0  0  0  0  0  0  0  0  0  0
   -3.0370   -1.9500    0.1600 C   0  0  0  0  0  0  0  0  0  0  0  0
   -1.8960   -2.4400    0.2540 O   0  0  0  0  0  0  0  0  0  0  0  0
   -4.9280    1.2640   -0.2360 C   0  0  0  0  0  0  0  0  0  0  0  0
   -3.8190    2.1210   -0.4130 N   0  0  0  0  0  0  0  0  0  0  0  0
  1  2  1  0
  2  3  1  0
  3  4  2  0
  3  8  1  0
  4  5  1  0
  5  6  2  0
  5 27  1  0
  6  7  1  0
  6 18  1  0
  7  8  2  0
  8  9  1  0
  9 10  1  0
 10 11  2  0
 10 12  1  0
 12 13  1  0
 13 14  1  0
 14 15  1  0
 15 16  1  1
 15 17  1  0
 18 19  2  0
 18 24  1  0
 19 20  1  0
 19 26  1  0
 20 21  1  0
 20 22  2  0
 22 23  1  0
 23 24  1  0
 24 25  2  0
 26 27  1  0
M  END
