
     RDKit          3D

 27 29  0  0  0  0  0  0  0  0999 V2000
   -4.9410   -0.1700    1.7370 N   0  0  0  0  0  0  0  0  0  0  0  0
   -4.6670    1.1620    2.1180 C   0  0  0  0  0  0  0  0  0  0  0  0
   -4.9610    1.5240    3.2820 O   0  0  0  0  0  0  0  0  0  0  0  0
   -4.0440    2.1460    1.1920 C   0  0  0  0  0  0  0  0  0  0  0  0
   -3.8320    1.4830   -0.0850 N   0  0  0  0  0  0  0  0  0  0  0  0
   -4.6670    1.4250   -1.1370 C   0  0  0  0  0  0  0  0  0  0  0  0
   -5.8170    1.9520   -1.2230 O   0  0  0  0  0  0  0  0  0  0  0  0
   -4.1010    0.7030   -2.1310 N   0  0  0  0  0  0  0  0  0  0  0  0
   -2.8820    0.2870   -1.7180 C   0  0  0  0  0  0  0  0  0  0  0  0
   -1.8820   -0.4820   -2.3260 C   0  0  0  0  0  0  0  0  0  0  0  0
   -0.7560   -0.7310   -1.6280 C   0  0  0  0  0  0  0  0  0  0  0  0
   -0.5770   -0.2520   -0.3560 C   0  0  0  0  0  0  0  0  0  0  0  0
   -1.5520    0.4980    0.2340 C   0  0  0  0  0  0  0  0  0  0  0  0
   -2.7360    0.7840   -0.4440 C   0  0  0  0  0  0  0  0  0  0  0  0
    0.7090   -0.5710    0.3690 C   0  0  0  0  0  0  0  0  0  0  0  0
    1.2190   -1.8420    0.0300 N   0  0  0  0  0  0  0  0  0  0  0  0
    2.6720   -1.9030    0.0050 C   0  0  0  0  0  0  0  0  0  0  0  0
    3.1500   -1.7500    1.3890 C   0  0  0  0  0  0  0  0  0  0  0  0
    3.9530   -0.7880    1.7460 C   0  0  0  0  0  0  0  0  0  0  0  0
    4.4730    0.2290    0.8770 C   0  0  0  0  0  0  0  0  0  0  0  0
    5.3000    1.1860    1.3350 C   0  0  0  0  0  0  0  0  0  0  0  0
    5.7850    2.1900    0.3600 C   0  0  1  0  0  0  0  0  0  0  0  0
    4.7290    2.6450   -0.4210 F   0  0  0  0  0  0  0  0  0  0  0  0
    6.3510    3.2690    1.0090 F   0  0  0  0  0  0  0  0  0  0  0  0
    6.7370    1.6520   -0.4770 F   0  0  0  0  0  0  0  0  0  0  0  0
    0.6790   -2.5420   -1.0690 C   0  0  0  0  0  0  0  0  0  0  0  0
    0.3420   -1.5400   -2.1820 C   0  0  0  0  0  0  0  0  0  0  0  0
  1  2  1  0
  2  3  2  0
  2  4  1  0
  4  5  1  0
  5  6  1  0
  5 14  1  0
  6  7  2  0
  6  8  1  0
  8  9  1  0
  9 10  2  0
  9 14  1  0
 10 11  1  0
 11 12  2  0
 11 27  1  0
 12 13  1  0
 12 15  1  0
 13 14  2  0
 15 16  1  0
 16 17  1  0
 16 26  1  0
 17 18  1  0
 18 19  2  3
 19 20  1  0
 20 21  2  3
 21 22  1  0
 22 23  1  6
 22 24  1  0
 22 25  1  0
 26 27  1  0
M  END
