
     RDKit          3D

 26 28  0  0  0  0  0  0  0  0999 V2000
   -5.8450   -0.4680   -0.1030 C   0  0  0  0  0  0  0  0  0  0  0  0
   -4.8480    0.0280   -1.1240 C   0  0  0  0  0  0  0  0  0  0  0  0
   -3.5980    0.4910   -0.5250 C   0  0  0  0  0  0  0  0  0  0  0  0
   -3.3560    1.6650    0.1300 C   0  0  0  0  0  0  0  0  0  0  0  0
   -4.3660    2.7370    0.3640 C   0  0  0  0  0  0  0  0  0  0  0  0
   -2.0920    1.7390    0.5410 N   0  0  0  0  0  0  0  0  0  0  0  0
   -1.4820    0.5800    0.1450 C   0  0  0  0  0  0  0  0  0  0  0  0
   -0.0870    0.3450    0.4510 C   0  0  0  0  0  0  0  0  0  0  0  0
    0.5340    1.1810    1.1800 O   0  0  0  0  0  0  0  0  0  0  0  0
    0.6640   -0.7670   -0.0060 N   0  0  0  0  0  0  0  0  0  0  0  0
    2.0410   -0.8250    0.4100 C   0  0  0  0  0  0  0  0  0  0  0  0
    2.4380   -1.4510    1.5690 C   0  0  0  0  0  0  0  0  0  0  0  0
    1.5380   -1.9890    2.2830 O   0  0  0  0  0  0  0  0  0  0  0  0
    3.7180   -1.5060    1.9570 N   0  0  0  0  0  0  0  0  0  0  0  0
    4.6900   -0.9280    1.1930 C   0  0  0  0  0  0  0  0  0  0  0  0
    6.0940   -0.9880    1.6270 C   0  0  2  0  0  0  0  0  0  0  0  0
    6.6770    0.2680    1.7760 F   0  0  0  0  0  0  0  0  0  0  0  0
    6.8160   -1.6690    0.6720 F   0  0  0  0  0  0  0  0  0  0  0  0
    4.3560   -0.2920    0.0290 C   0  0  0  0  0  0  0  0  0  0  0  0
    5.3020    0.2990   -0.7670 C   0  0  0  0  0  0  0  0  0  0  0  0
    4.9130    0.9060   -1.8940 N   0  0  0  0  0  0  0  0  0  0  0  0
    3.6260    0.9690   -2.2950 C   0  0  0  0  0  0  0  0  0  0  0  0
    2.6360    0.3920   -1.5330 C   0  0  0  0  0  0  0  0  0  0  0  0
    3.0120   -0.2390   -0.3680 C   0  0  0  0  0  0  0  0  0  0  0  0
   -2.3910   -0.2020   -0.5130 C   0  0  0  0  0  0  0  0  0  0  0  0
   -2.2030   -1.5320   -1.1060 C   0  0  0  0  0  0  0  0  0  0  0  0
  1  2  1  0
  2  3  1  0
  3  4  2  0
  3 25  1  0
  4  5  1  0
  4  6  1  0
  6  7  1  0
  7  8  1  0
  7 25  2  0
  8  9  2  0
  8 10  1  0
 10 11  1  0
 11 12  1  0
 11 24  2  0
 12 13  2  0
 12 14  1  0
 14 15  1  0
 15 16  1  0
 15 19  2  0
 16 17  1  6
 16 18  1  0
 19 20  1  0
 19 24  1  0
 20 21  2  0
 21 22  1  0
 22 23  2  0
 23 24  1  0
 25 26  1  0
M  END
