
     RDKit          3D

 27 29  0  0  0  0  0  0  0  0999 V2000
    3.7620   -0.8480    4.0630 C   0  0  0  0  0  0  0  0  0  0  0  0
    3.7260   -1.1220    2.5830 C   0  0  0  0  0  0  0  0  0  0  0  0
    2.5960   -1.0340    1.7660 C   0  0  0  0  0  0  0  0  0  0  0  0
    2.9580   -1.3490    0.4810 C   0  0  0  0  0  0  0  0  0  0  0  0
    2.1440   -1.4040   -0.6760 N   0  0  0  0  0  0  0  0  0  0  0  0
    0.7650   -1.1300   -0.6720 C   0  0  0  0  0  0  0  0  0  0  0  0
    0.2190   -0.7870    0.3980 O   0  0  0  0  0  0  0  0  0  0  0  0
   -0.0540   -1.2390   -1.8950 C   0  0  0  0  0  0  0  0  0  0  0  0
    0.1840   -2.1910   -2.8430 C   0  0  0  0  0  0  0  0  0  0  0  0
   -0.6230   -2.2290   -3.9860 C   0  0  0  0  0  0  0  0  0  0  0  0
   -1.6410   -1.3370   -4.1780 C   0  0  0  0  0  0  0  0  0  0  0  0
   -1.8570   -0.4060   -3.2260 N   0  0  0  0  0  0  0  0  0  0  0  0
   -1.0810   -0.3500   -2.1000 C   0  0  0  0  0  0  0  0  0  0  0  0
   -1.3830    0.6900   -1.1220 C   0  0  0  0  0  0  0  0  0  0  0  0
   -0.6210    1.8360   -1.1520 C   0  0  0  0  0  0  0  0  0  0  0  0
    0.3840    2.0040   -2.0630 F   0  0  0  0  0  0  0  0  0  0  0  0
   -0.8910    2.8150   -0.2390 C   0  0  0  0  0  0  0  0  0  0  0  0
   -1.9070    2.7170    0.7310 C   0  0  0  0  0  0  0  0  0  0  0  0
   -2.0750    3.8550    1.6540 C   0  0  0  0  0  0  0  0  0  0  0  0
   -2.9430    3.5790    2.6630 O   0  0  0  0  0  0  0  0  0  0  0  0
   -2.6170    1.5660    0.7010 C   0  0  0  0  0  0  0  0  0  0  0  0
   -2.3870    0.5230   -0.2100 C   0  0  0  0  0  0  0  0  0  0  0  0
   -3.2390   -0.7110   -0.1670 C   0  0  2  0  0  0  0  0  0  0  0  0
   -2.5220   -1.8660   -0.0690 F   0  0  0  0  0  0  0  0  0  0  0  0
   -4.0010   -0.7800   -1.3340 F   0  0  0  0  0  0  0  0  0  0  0  0
    4.2800   -1.6200    0.5340 N   0  0  0  0  0  0  0  0  0  0  0  0
    4.7240   -1.4840    1.7750 N   0  0  0  0  0  0  0  0  0  0  0  0
  1  2  1  0
  2  3  1  0
  2 27  2  0
  3  4  2  0
  4  5  1  0
  4 26  1  0
  5  6  1  0
  6  7  2  0
  6  8  1  0
  8  9  2  0
  8 13  1  0
  9 10  1  0
 10 11  2  0
 11 12  1  0
 12 13  2  0
 13 14  1  0
 14 15  2  0
 14 22  1  0
 15 16  1  0
 15 17  1  0
 17 18  2  0
 18 19  1  0
 18 21  1  0
 19 20  1  0
 21 22  2  0
 22 23  1  0
 23 24  1  6
 23 25  1  0
 26 27  1  0
M  END
