
     RDKit          3D

 15 15  0  0  0  0  0  0  0  0999 V2000
   -4.1680    1.9920    1.0860 O   0  0  0  0  0  0  0  0  0  0  0  0
   -3.3910    1.2030    0.3770 O   0  0  0  0  0  0  0  0  0  0  0  0
   -3.7110   -0.0990    0.6960 C   0  0  0  0  0  0  0  0  0  0  0  0
   -2.8460   -1.0760   -0.0920 C   0  0  0  0  0  0  0  0  0  0  0  0
   -1.5210   -0.8100    0.2490 O   0  0  0  0  0  0  0  0  0  0  0  0
   -0.6940   -1.6770   -0.4470 C   0  0  0  0  0  0  0  0  0  0  0  0
    0.7600   -1.4020   -0.0870 C   0  0  0  0  0  0  0  0  0  0  0  0
    1.0390   -0.0840   -0.4390 O   0  0  0  0  0  0  0  0  0  0  0  0
    2.3420    0.2780   -0.1550 C   0  0  2  0  0  0  0  0  0  0  0  0
    2.2880    1.3980    0.8680 C   0  0  0  0  0  0  0  0  0  0  0  0
    3.3650    2.2440    0.7980 O   0  0  0  0  0  0  0  0  0  0  0  0
    4.3160    1.8530    0.0100 O   0  0  0  0  0  0  0  0  0  0  0  0
    3.8310    1.8520   -1.2230 O   0  0  0  0  0  0  0  0  0  0  0  0
    3.1390    0.6500   -1.3730 C   0  0  1  0  0  0  0  0  0  0  0  0
    4.4740   -0.7030   -1.7920 Br  0  0  0  0  0  0  0  0  0  0  0  0
  1  2  1  0
  2  3  1  0
  3  4  1  0
  4  5  1  0
  5  6  1  0
  6  7  1  0
  7  8  1  0
  9  8  1  6
  9 10  1  0
  9 14  1  0
 10 11  1  0
 11 12  1  0
 12 13  1  0
 13 14  1  0
 14 15  1  1
M  END
