
     RDKit          3D

 20 20  0  0  0  0  0  0  0  0999 V2000
    2.9020   -0.0560    1.0900 O   0  0  0  0  0  0  0  0  0  0  0  0
    2.7220   -0.5970   -0.0300 C   0  0  0  0  0  0  0  0  0  0  0  0
    3.8200   -1.2980   -0.7660 C   0  0  0  0  0  0  0  0  0  0  0  0
    5.0840   -1.2270    0.0390 C   0  0  0  0  0  0  0  0  0  0  0  0
    5.2830   -1.9430    1.0530 O   0  0  0  0  0  0  0  0  0  0  0  0
    6.1040   -0.3430   -0.3190 O   0  0  0  0  0  0  0  0  0  0  0  0
    7.2240   -0.2910    0.4080 O   0  0  0  0  0  0  0  0  0  0  0  0
    1.4410   -0.5310   -0.5930 N   0  0  0  0  0  0  0  0  0  0  0  0
    0.2940    0.0960   -0.0220 C   0  0  1  0  0  0  0  0  0  0  0  0
   -0.1340    1.2790   -0.9020 C   0  0  0  0  0  0  0  0  0  0  0  0
   -0.9070    2.1170   -0.0620 O   0  0  0  0  0  0  0  0  0  0  0  0
   -1.6550    1.4830    0.9260 C   0  0  0  0  0  0  0  0  0  0  0  0
   -2.0560    2.1550    1.9360 O   0  0  0  0  0  0  0  0  0  0  0  0
   -1.9890    0.0390    0.8140 C   0  0  1  0  0  0  0  0  0  0  0  0
   -3.2870   -0.0590    0.0350 C   0  0  0  0  0  0  0  0  0  0  0  0
   -4.2970    0.6400    0.7380 O   0  0  0  0  0  0  0  0  0  0  0  0
   -5.5890    0.7130    0.2490 C   0  0  0  0  0  0  0  0  0  0  0  0
   -5.8350    0.1260   -0.8590 O   0  0  0  0  0  0  0  0  0  0  0  0
   -6.6150    1.3900    0.9080 O   0  0  0  0  0  0  0  0  0  0  0  0
   -0.8900   -0.7710    0.1570 C   0  0  0  0  0  0  0  0  0  0  0  0
  1  2  2  0
  2  3  1  0
  2  8  1  0
  3  4  1  0
  4  5  2  0
  4  6  1  0
  6  7  1  0
  9  8  1  6
  9 10  1  0
  9 20  1  0
 10 11  1  0
 11 12  1  0
 12 13  2  0
 12 14  1  0
 14 15  1  6
 14 20  1  0
 15 16  1  0
 16 17  1  0
 17 18  2  0
 17 19  1  0
M  END
