
     RDKit          3D

 20 20  0  0  0  0  0  0  0  0999 V2000
    5.7020   -0.2970   -0.4410 N   0  0  0  0  0  0  0  0  0  0  0  0
    4.4450    0.2180   -0.8160 C   0  0  0  0  0  0  0  0  0  0  0  0
    4.3900    1.3580   -1.3810 O   0  0  0  0  0  0  0  0  0  0  0  0
    3.2400   -0.4430   -0.6080 O   0  0  0  0  0  0  0  0  0  0  0  0
    2.1090    0.1150   -0.9920 O   0  0  0  0  0  0  0  0  0  0  0  0
    0.8170   -0.3220    0.0470 P   0  0  0  0  0  0  0  0  0  0  0  0
    0.1890    1.1450    0.9600 C   0  0  0  0  0  0  0  0  0  0  0  0
    0.0850    2.2840   -0.0310 C   0  0  0  0  0  0  0  0  0  0  0  0
   -0.9880    3.1300    0.1920 O   0  0  0  0  0  0  0  0  0  0  0  0
   -2.1540    2.8820    0.8480 C   0  0  0  0  0  0  0  0  0  0  0  0
   -2.6380    3.5430    1.8040 O   0  0  0  0  0  0  0  0  0  0  0  0
   -2.9730    1.7170    0.4210 C   0  0  0  0  0  0  0  0  0  0  0  0
   -2.4240    1.0730   -0.7130 O   0  0  0  0  0  0  0  0  0  0  0  0
   -2.6670   -0.2400   -1.0360 C   0  0  0  0  0  0  0  0  0  0  0  0
   -2.9600   -0.6630   -2.1850 O   0  0  0  0  0  0  0  0  0  0  0  0
   -2.5810   -1.2520    0.0490 C   0  0  0  0  0  0  0  0  0  0  0  0
   -1.5760   -2.2920   -0.3980 C   0  0  0  0  0  0  0  0  0  0  0  0
   -0.8400   -2.7850    0.6680 O   0  0  0  0  0  0  0  0  0  0  0  0
    0.5170   -2.7870    0.4580 C   0  0  0  0  0  0  0  0  0  0  0  0
    1.1490   -1.6710    1.0450 O   0  0  0  0  0  0  0  0  0  0  0  0
  1  2  1  0
  2  3  2  0
  2  4  1  0
  4  5  1  0
  5  6  1  0
  6  7  1  0
  6 20  1  0
  7  8  1  0
  8  9  1  0
  9 10  1  0
 10 11  2  0
 10 12  1  0
 12 13  1  0
 13 14  1  0
 14 15  2  0
 14 16  1  0
 16 17  1  0
 17 18  1  0
 18 19  1  0
 19 20  1  0
M  END
