
     RDKit          3D

 20 20  0  0  0  0  0  0  0  0999 V2000
    6.4550    0.1860   -0.3700 O   0  0  0  0  0  0  0  0  0  0  0  0
    5.5130    0.1790   -1.2050 C   0  0  0  0  0  0  0  0  0  0  0  0
    5.7330    0.0790   -2.5790 O   0  0  0  0  0  0  0  0  0  0  0  0
    4.2220    0.2780   -0.6750 O   0  0  0  0  0  0  0  0  0  0  0  0
    4.0100    0.3790    0.7160 C   0  0  0  0  0  0  0  0  0  0  0  0
    2.5370    0.4660    0.9220 C   0  0  0  0  0  0  0  0  0  0  0  0
    1.7540   -0.1560    0.1210 N   0  0  0  0  0  0  0  0  0  0  0  0
    0.3600   -0.0570    0.3370 C   0  0  0  0  0  0  0  0  0  0  0  0
   -0.1870   -1.2040    0.7000 C   0  0  0  0  0  0  0  0  0  0  0  0
   -1.5100   -1.4980    0.9960 O   0  0  0  0  0  0  0  0  0  0  0  0
   -2.6330   -0.7800    0.5180 C   0  0  2  0  0  0  0  0  0  0  0  0
   -2.6170   -0.7440   -0.9890 C   0  0  0  0  0  0  0  0  0  0  0  0
   -3.7170   -0.0340   -1.4810 O   0  0  0  0  0  0  0  0  0  0  0  0
   -5.0110   -0.4370   -1.2600 C   0  0  0  0  0  0  0  0  0  0  0  0
   -5.2300   -1.4740   -0.6020 O   0  0  0  0  0  0  0  0  0  0  0  0
   -6.1100    0.2940   -1.7600 O   0  0  0  0  0  0  0  0  0  0  0  0
   -2.4550    0.6390    0.9780 C   0  0  0  0  0  0  0  0  0  0  0  0
   -3.2300    1.0350    1.8780 O   0  0  0  0  0  0  0  0  0  0  0  0
   -1.4980    1.4850    0.4560 O   0  0  0  0  0  0  0  0  0  0  0  0
   -0.1770    1.2800    0.1160 C   0  0  0  0  0  0  0  0  0  0  0  0
  1  2  2  0
  2  3  1  0
  2  4  1  0
  4  5  1  0
  5  6  1  0
  6  7  2  3
  7  8  1  0
  8  9  2  0
  8 20  1  0
  9 10  1  0
 10 11  1  0
 11 12  1  6
 11 17  1  0
 12 13  1  0
 13 14  1  0
 14 15  2  0
 14 16  1  0
 17 18  2  0
 17 19  1  0
 19 20  1  0
M  END
