
     RDKit          3D

 20 19  0  0  0  0  0  0  0  0999 V2000
   -5.6780    0.4980    0.9580 O   0  0  0  0  0  0  0  0  0  0  0  0
   -4.6850    0.5430    1.7060 C   0  0  0  0  0  0  0  0  0  0  0  0
   -4.9160    0.1770    3.0430 O   0  0  0  0  0  0  0  0  0  0  0  0
   -3.3380    0.9510    1.2480 C   0  0  0  0  0  0  0  0  0  0  0  0
   -2.7010   -0.2420    0.5680 C   0  0  2  0  0  0  0  0  0  0  0  0
   -1.3150    0.0390    0.0840 C   0  0  0  0  0  0  0  0  0  0  0  0
   -0.3590    0.4290    1.1530 C   0  0  0  0  0  0  0  0  0  0  0  0
    0.9090    0.6720    0.6000 O   0  0  0  0  0  0  0  0  0  0  0  0
    1.7080   -0.2090   -0.0690 C   0  0  0  0  0  0  0  0  0  0  0  0
    1.3040   -1.3880   -0.2310 O   0  0  0  0  0  0  0  0  0  0  0  0
    2.9520    0.1030   -0.5930 O   0  0  0  0  0  0  0  0  0  0  0  0
    3.7450   -0.8490   -1.2800 C   0  0  0  0  0  0  0  0  0  0  0  0
    5.0500   -0.2550   -1.7450 C   0  0  0  0  0  0  0  0  0  0  0  0
    6.0760    0.3760   -0.3540 P   0  0  0  0  0  0  0  0  0  0  0  0
    7.7380   -0.0040   -0.6780 O   0  0  0  0  0  0  0  0  0  0  0  0
    5.6040   -0.3240    1.1610 O   0  0  0  0  0  0  0  0  0  0  0  0
   -3.4610   -0.8020   -0.4970 N   0  0  0  0  0  0  0  0  0  0  0  0
   -4.0760    0.0220   -1.4610 C   0  0  0  0  0  0  0  0  0  0  0  0
   -3.9670    1.2460   -1.4140 O   0  0  0  0  0  0  0  0  0  0  0  0
   -4.8410   -0.5080   -2.5170 O   0  0  0  0  0  0  0  0  0  0  0  0
  1  2  2  0
  2  3  1  0
  2  4  1  0
  5  4  1  6
  5  6  1  0
  5 17  1  0
  6  7  1  0
  7  8  1  0
  8  9  1  0
  9 10  2  0
  9 11  1  0
 11 12  1  0
 12 13  1  0
 13 14  1  0
 14 15  1  0
 14 16  1  0
 17 18  1  0
 18 19  2  0
 18 20  1  0
M  END
