
     RDKit          3D

 20 20  0  0  0  0  0  0  0  0999 V2000
   -3.7990   -0.3070   -0.5500 C   0  0  0  0  0  0  0  0  0  0  0  0
   -3.5620    0.9940   -0.1220 O   0  0  0  0  0  0  0  0  0  0  0  0
   -1.8580    1.2250    0.3250 P   0  0  0  0  0  0  0  0  0  0  0  0
   -1.7610    0.4180    1.8310 O   0  0  0  0  0  0  0  0  0  0  0  0
   -2.8870    0.7670    2.6090 C   0  0  0  0  0  0  0  0  0  0  0  0
   -0.9340    0.3050   -0.9460 C   0  0  0  0  0  0  0  0  0  0  0  0
    0.1750   -0.3870   -0.6570 C   0  0  0  0  0  0  0  0  0  0  0  0
    0.9410   -0.4910    0.5830 C   0  0  0  0  0  0  0  0  0  0  0  0
    0.4460   -0.7810    1.6650 O   0  0  0  0  0  0  0  0  0  0  0  0
    2.2830   -0.2270    0.5290 O   0  0  0  0  0  0  0  0  0  0  0  0
    3.1180   -0.4100    1.7180 C   0  0  0  0  0  0  0  0  0  0  0  0
    4.5320   -0.0050    1.0540 C   0  0  0  0  0  0  0  0  0  0  0  0
    4.1990    1.3030    0.7970 O   0  0  0  0  0  0  0  0  0  0  0  0
    4.3690    1.7580   -0.3090 O   0  0  0  0  0  0  0  0  0  0  0  0
    0.6770   -1.1460   -1.6600 O   0  0  0  0  0  0  0  0  0  0  0  0
    0.1920   -1.2420   -2.8020 C   0  0  0  0  0  0  0  0  0  0  0  0
    0.7270   -2.0100   -3.6990 O   0  0  0  0  0  0  0  0  0  0  0  0
   -0.8950   -0.5580   -3.1240 N   0  0  0  0  0  0  0  0  0  0  0  0
   -1.4570    0.2150   -2.1950 C   0  0  0  0  0  0  0  0  0  0  0  0
   -2.4580    0.8640   -2.5160 O   0  0  0  0  0  0  0  0  0  0  0  0
  1  2  1  0
  2  3  1  0
  3  4  1  0
  3  6  1  0
  4  5  1  0
  6  7  2  0
  6 19  1  0
  7  8  1  0
  7 15  1  0
  8  9  2  0
  8 10  1  0
 10 11  1  0
 11 12  1  0
 12 13  1  0
 13 14  1  0
 15 16  1  0
 16 17  2  0
 16 18  1  0
 18 19  1  0
 19 20  2  0
M  END
