
     RDKit          3D

 29 30  0  0  0  0  0  0  0  0999 V2000
    7.8690    0.2960   -3.9630 N   0  0  0  0  0  0  0  0  0  0  0  0
    6.8990    0.4730   -2.9530 C   0  0  0  0  0  0  0  0  0  0  0  0
    6.7440    1.5710   -2.4060 O   0  0  0  0  0  0  0  0  0  0  0  0
    6.0950   -0.6760   -2.5800 C   0  0  0  0  0  0  0  0  0  0  0  0
    5.1820   -0.5140   -1.6290 C   0  0  0  0  0  0  0  0  0  0  0  0
    4.9360    0.5880   -0.9930 O   0  0  0  0  0  0  0  0  0  0  0  0
    3.9490    0.3370   -0.1180 C   0  0  0  0  0  0  0  0  0  0  0  0
    3.5080    1.2110    0.6310 O   0  0  0  0  0  0  0  0  0  0  0  0
    3.5790   -0.9530   -0.2210 C   0  0  0  0  0  0  0  0  0  0  0  0
    2.7120   -1.7350    0.3410 C   0  0  0  0  0  0  0  0  0  0  0  0
    1.7100   -1.7270    1.3120 C   0  0  0  0  0  0  0  0  0  0  0  0
    1.0850   -0.9640    2.1350 C   0  0  0  0  0  0  0  0  0  0  0  0
    0.0940   -1.6420    2.9090 F   0  0  0  0  0  0  0  0  0  0  0  0
    1.1450    0.4630    2.4500 C   0  0  2  0  0  0  0  0  0  0  0  0
    2.1550    0.8000    3.3080 F   0  0  0  0  0  0  0  0  0  0  0  0
   -0.2050    0.9160    3.1050 C   0  0  0  0  0  0  0  0  0  0  0  0
   -1.2180    0.6340    2.1130 N   0  0  0  0  0  0  0  0  0  0  0  0
   -2.6020    0.9120    2.3390 C   0  0  0  0  0  0  0  0  0  0  0  0
   -2.8650    1.4200    3.4680 O   0  0  0  0  0  0  0  0  0  0  0  0
   -3.6530    0.6450    1.3710 C   0  0  0  0  0  0  0  0  0  0  0  0
   -4.9520    0.9600    1.7130 C   0  0  0  0  0  0  0  0  0  0  0  0
   -5.9960    0.7230    0.8180 C   0  0  0  0  0  0  0  0  0  0  0  0
   -5.7350    0.1700   -0.4190 C   0  0  0  0  0  0  0  0  0  0  0  0
   -7.0710   -0.1600   -1.6270 P   0  0  0  0  0  0  0  0  0  0  0  0
   -6.6080   -1.4980   -2.5990 O   0  0  0  0  0  0  0  0  0  0  0  0
   -7.2890    1.2900   -2.5680 O   0  0  0  0  0  0  0  0  0  0  0  0
   -4.4480   -0.1510   -0.7780 C   0  0  0  0  0  0  0  0  0  0  0  0
   -3.4450    0.0980    0.1300 C   0  0  0  0  0  0  0  0  0  0  0  0
    4.3930   -1.4380   -1.1900 O   0  0  0  0  0  0  0  0  0  0  0  0
  1  2  1  0
  2  3  2  0
  2  4  1  0
  4  5  2  3
  5  6  1  0
  5 29  1  0
  6  7  1  0
  7  8  2  0
  7  9  1  0
  9 10  2  3
  9 29  1  0
 10 11  1  0
 11 12  2  3
 12 13  1  0
 12 14  1  0
 14 15  1  1
 14 16  1  0
 16 17  1  0
 17 18  1  0
 18 19  2  0
 18 20  1  0
 20 21  2  0
 20 28  1  0
 21 22  1  0
 22 23  2  0
 23 24  1  0
 23 27  1  0
 24 25  1  0
 24 26  1  0
 27 28  2  0
M  END
