
     RDKit          3D

 23 24  0  0  0  0  0  0  0  0999 V2000
    4.7080    2.5080   -0.5340 C   0  0  0  0  0  0  0  0  0  0  0  0
    4.4240    1.3060   -0.0680 C   0  0  0  0  0  0  0  0  0  0  0  0
    3.2060    0.6020   -0.5230 C   0  0  0  0  0  0  0  0  0  0  0  0
    2.8640   -0.5980   -0.0990 C   0  0  0  0  0  0  0  0  0  0  0  0
    1.6790   -1.2270   -0.5720 N   0  0  0  0  0  0  0  0  0  0  0  0
    0.6130   -1.6230    0.2750 C   0  0  0  0  0  0  0  0  0  0  0  0
    0.7860   -1.3770    1.5140 O   0  0  0  0  0  0  0  0  0  0  0  0
   -0.6200   -2.2770   -0.2190 C   0  0  0  0  0  0  0  0  0  0  0  0
   -1.5800   -2.5950    0.8940 C   0  0  0  0  0  0  0  0  0  0  0  0
   -2.1030   -1.1210    1.7910 S   0  0  0  0  0  0  0  0  0  0  0  0
   -3.0760   -0.0260    0.7750 C   0  0  0  0  0  0  0  0  0  0  0  0
   -2.5260    0.9780    0.0160 C   0  0  0  0  0  0  0  0  0  0  0  0
   -3.3660    1.7650   -0.7300 C   0  0  0  0  0  0  0  0  0  0  0  0
   -4.7520    1.6020   -0.7590 C   0  0  0  0  0  0  0  0  0  0  0  0
   -5.5460    2.4200   -1.5250 O   0  0  0  0  0  0  0  0  0  0  0  0
   -5.2800    0.5890    0.0100 C   0  0  0  0  0  0  0  0  0  0  0  0
   -6.6350    0.3150    0.0750 O   0  0  0  0  0  0  0  0  0  0  0  0
   -4.4370   -0.2140    0.7690 C   0  0  0  0  0  0  0  0  0  0  0  0
    3.7380   -1.2510    0.8650 C   0  0  0  0  0  0  0  0  0  0  0  0
    3.3680   -2.4080    1.2460 O   0  0  0  0  0  0  0  0  0  0  0  0
    4.9250   -0.6470    1.3530 N   0  0  0  0  0  0  0  0  0  0  0  0
    5.3080    0.6700    0.8930 C   0  0  0  0  0  0  0  0  0  0  0  0
    6.3810    1.2160    1.3350 N   0  0  0  0  0  0  0  0  0  0  0  0
  1  2  2  0
  2  3  1  0
  2 22  1  0
  3  4  2  0
  4  5  1  0
  4 19  1  0
  5  6  1  0
  6  7  2  0
  6  8  1  0
  8  9  1  0
  9 10  1  0
 10 11  1  0
 11 12  2  0
 11 18  1  0
 12 13  1  0
 13 14  2  0
 14 15  1  0
 14 16  1  0
 16 17  1  0
 16 18  2  0
 19 20  2  0
 19 21  1  0
 21 22  1  0
 22 23  2  0
M  END
