
     RDKit          3D

 23 24  0  0  0  0  0  0  0  0999 V2000
   -5.8460   -0.4100    0.0940 C   0  0  0  0  0  0  0  0  0  0  0  0
   -4.3860   -0.2190   -0.1200 C   0  0  0  0  0  0  0  0  0  0  0  0
   -3.8870    0.3440   -1.2720 C   0  0  0  0  0  0  0  0  0  0  0  0
   -2.5310    0.5150   -1.4560 C   0  0  0  0  0  0  0  0  0  0  0  0
   -2.0160    1.1190   -2.6940 C   0  0  0  0  0  0  0  0  0  0  0  0
   -1.5980    0.1270   -0.4860 C   0  0  0  0  0  0  0  0  0  0  0  0
   -0.2340    0.3390   -0.7580 N   0  0  0  0  0  0  0  0  0  0  0  0
    0.8670    0.0210    0.0830 C   0  0  0  0  0  0  0  0  0  0  0  0
    0.6410   -0.4990    1.1770 O   0  0  0  0  0  0  0  0  0  0  0  0
    2.2090    0.2800   -0.2950 N   0  0  0  0  0  0  0  0  0  0  0  0
    3.3480    0.0010    0.4650 C   0  0  0  0  0  0  0  0  0  0  0  0
    3.3810   -0.5640    1.6930 C   0  0  0  0  0  0  0  0  0  0  0  0
    4.5650   -0.8100    2.3890 C   0  0  0  0  0  0  0  0  0  0  0  0
    4.5700   -1.3370    3.5320 O   0  0  0  0  0  0  0  0  0  0  0  0
    5.7350   -0.4780    1.8310 N   0  0  0  0  0  0  0  0  0  0  0  0
    5.7450    0.0810    0.6220 C   0  0  0  0  0  0  0  0  0  0  0  0
    4.5920    0.3350   -0.0860 C   0  0  0  0  0  0  0  0  0  0  0  0
    4.6850    1.0770   -1.6810 S   0  0  2  0  0  0  0  0  0  0  0  0
    6.1000    1.0470   -2.1410 O   0  0  0  0  0  0  0  0  0  0  0  0
    4.2050    2.4870   -1.6650 O   0  0  0  0  0  0  0  0  0  0  0  0
   -2.1090   -0.4300    0.6500 C   0  0  0  0  0  0  0  0  0  0  0  0
   -3.4960   -0.6020    0.8330 C   0  0  0  0  0  0  0  0  0  0  0  0
   -4.0160   -1.2120    2.0830 C   0  0  0  0  0  0  0  0  0  0  0  0
  1  2  1  0
  2  3  2  0
  2 22  1  0
  3  4  1  0
  4  5  1  0
  4  6  2  0
  6  7  1  0
  6 21  1  0
  7  8  1  0
  8  9  2  0
  8 10  1  0
 10 11  1  0
 11 12  2  0
 11 17  1  0
 12 13  1  0
 13 14  2  0
 13 15  1  0
 15 16  1  0
 16 17  2  0
 18 17  1  1
 18 19  2  0
 18 20  2  0
 21 22  2  0
 22 23  1  0
M  END
