
     RDKit          3D

 23 24  0  0  0  0  0  0  0  0999 V2000
   -3.4850    3.2430    0.6070 C   0  0  0  0  0  0  0  0  0  0  0  0
   -2.4010    2.2990    0.7720 N   0  0  0  0  0  0  0  0  0  0  0  0
   -1.4580    2.0330   -0.2880 C   0  0  0  0  0  0  0  0  0  0  0  0
   -1.6320    2.6680   -1.3620 O   0  0  0  0  0  0  0  0  0  0  0  0
   -0.3570    1.0970   -0.1360 C   0  0  0  0  0  0  0  0  0  0  0  0
    0.9300    1.6410    0.0270 C   0  0  0  0  0  0  0  0  0  0  0  0
    1.0870    3.1270   -0.0160 C   0  0  0  0  0  0  0  0  0  0  0  0
    2.0340    0.8470    0.2220 C   0  0  0  0  0  0  0  0  0  0  0  0
    3.3780    1.4230    0.3880 C   0  0  0  0  0  0  0  0  0  0  0  0
    1.8800   -0.5210    0.2600 C   0  0  0  0  0  0  0  0  0  0  0  0
    3.2860   -1.4980    0.5130 S   0  0  2  0  0  0  0  0  0  0  0  0
    4.0000   -1.9130   -1.0870 C   0  0  0  0  0  0  0  0  0  0  0  0
    2.9950   -2.8030    1.1960 O   0  0  0  0  0  0  0  0  0  0  0  0
    4.3820   -0.7490    1.2460 O   0  0  0  0  0  0  0  0  0  0  0  0
    0.6250   -1.0940    0.1010 C   0  0  0  0  0  0  0  0  0  0  0  0
    0.2620   -2.3880    0.0990 N   0  0  0  0  0  0  0  0  0  0  0  0
   -1.0360   -2.4100   -0.0980 C   0  0  0  0  0  0  0  0  0  0  0  0
   -1.8800   -3.6300   -0.1800 C   0  0  0  0  0  0  0  0  0  0  0  0
   -1.5550   -1.1090   -0.2310 C   0  0  0  0  0  0  0  0  0  0  0  0
   -2.9340   -0.8070   -0.4700 C   0  0  0  0  0  0  0  0  0  0  0  0
   -3.9250   -1.8000   -0.1140 N   0  0  0  0  0  0  0  0  0  0  0  0
   -3.3560    0.2280   -0.9510 O   0  0  0  0  0  0  0  0  0  0  0  0
   -0.4950   -0.2680   -0.1000 C   0  0  0  0  0  0  0  0  0  0  0  0
  1  2  1  0
  2  3  1  0
  3  4  2  0
  3  5  1  0
  5  6  2  0
  5 23  1  0
  6  7  1  0
  6  8  1  0
  8  9  1  0
  8 10  2  0
 10 11  1  0
 10 15  1  0
 11 12  1  6
 11 13  2  0
 11 14  2  0
 15 16  1  0
 15 23  2  0
 16 17  1  0
 17 18  1  0
 17 19  2  0
 19 20  1  0
 19 23  1  0
 20 21  1  0
 20 22  2  0
M  END
