
     RDKit          3D

 23 24  0  0  0  0  0  0  0  0999 V2000
   -5.8950   -1.7720   -0.6620 C   0  0  0  0  0  0  0  0  0  0  0  0
   -5.7490   -0.2810   -0.7400 C   0  0  0  0  0  0  0  0  0  0  0  0
   -5.0540    0.1710    0.5670 C   0  0  0  0  0  0  0  0  0  0  0  0
   -3.7710   -0.5010    0.6000 C   0  0  0  0  0  0  0  0  0  0  0  0
   -2.6070    0.0900    0.6730 C   0  0  0  0  0  0  0  0  0  0  0  0
   -1.4310   -0.7250    0.6940 O   0  0  0  0  0  0  0  0  0  0  0  0
   -2.4400    1.5410    0.7360 C   0  0  0  0  0  0  0  0  0  0  0  0
   -1.5530    1.9730    2.2610 S   0  0  0  0  0  0  0  0  0  0  0  0
    0.1940    1.5240    2.1780 C   0  0  0  0  0  0  0  0  0  0  0  0
    0.8370    1.5350    3.2500 O   0  0  0  0  0  0  0  0  0  0  0  0
    0.8510    1.1670    0.9920 N   0  0  0  0  0  0  0  0  0  0  0  0
    2.2120    0.7900    0.8250 C   0  0  0  0  0  0  0  0  0  0  0  0
    3.1680    0.8680    1.8080 C   0  0  0  0  0  0  0  0  0  0  0  0
    4.4640    0.4760    1.5800 C   0  0  0  0  0  0  0  0  0  0  0  0
    4.8250   -0.0030    0.3550 C   0  0  0  0  0  0  0  0  0  0  0  0
    6.0910   -0.4010    0.0830 N   0  0  0  0  0  0  0  0  0  0  0  0
    6.4040   -0.8630   -1.1310 C   0  0  0  0  0  0  0  0  0  0  0  0
    7.5820   -1.2320   -1.3790 O   0  0  0  0  0  0  0  0  0  0  0  0
    5.4960   -0.9530   -2.1170 N   0  0  0  0  0  0  0  0  0  0  0  0
    4.2460   -0.5810   -1.9150 C   0  0  0  0  0  0  0  0  0  0  0  0
    3.3370   -0.6320   -2.7790 O   0  0  0  0  0  0  0  0  0  0  0  0
    3.8890   -0.0920   -0.6520 C   0  0  0  0  0  0  0  0  0  0  0  0
    2.5960    0.2980   -0.4270 C   0  0  0  0  0  0  0  0  0  0  0  0
  1  2  1  0
  2  3  1  0
  3  4  1  0
  4  5  2  3
  5  6  1  0
  5  7  1  0
  7  8  1  0
  8  9  1  0
  9 10  2  0
  9 11  1  0
 11 12  1  0
 12 13  2  0
 12 23  1  0
 13 14  1  0
 14 15  2  0
 15 16  1  0
 15 22  1  0
 16 17  1  0
 17 18  2  0
 17 19  1  0
 19 20  1  0
 20 21  2  0
 20 22  1  0
 22 23  2  0
M  END
