
     RDKit          3D

 38 42  0  0  0  0  0  0  0  0999 V2000
   -2.6670   -2.9780   -2.2980 C   0  0  0  0  0  0  0  0  0  0  0  0
   -3.5040   -1.9360   -1.7790 C   0  0  1  0  0  0  0  0  0  0  0  0
   -3.9870   -2.5290   -0.4070 N   0  0  0  0  0  0  0  0  0  0  0  0
   -3.1480   -0.5730   -1.3930 C   0  0  0  0  0  0  0  0  0  0  0  0
   -3.9400    0.4780   -1.9750 C   0  0  0  0  0  0  0  0  0  0  0  0
   -4.8820    0.3560   -3.4460 Cl  0  0  0  0  0  0  0  0  0  0  0  0
   -3.8150    1.5930   -1.2420 C   0  0  0  0  0  0  0  0  0  0  0  0
   -2.9740    1.3060   -0.2180 C   0  0  0  0  0  0  0  0  0  0  0  0
   -2.5470   -0.0390   -0.3230 N   0  0  0  0  0  0  0  0  0  0  0  0
   -1.6320   -0.5220    0.6600 C   0  0  0  0  0  0  0  0  0  0  0  0
   -0.1730   -0.1220    0.5320 C   0  0  0  0  0  0  0  0  0  0  0  0
    0.6960   -0.7080   -0.3410 N   0  0  0  0  0  0  0  0  0  0  0  0
    1.8210   -0.4700   -1.1710 C   0  0  0  0  0  0  0  0  0  0  0  0
    3.1440   -0.2030   -0.6570 C   0  0  0  0  0  0  0  0  0  0  0  0
    3.6480    1.0230   -0.2330 C   0  0  0  0  0  0  0  0  0  0  0  0
    4.9840    1.2660    0.0040 C   0  0  0  0  0  0  0  0  0  0  0  0
    5.6200    2.5020    0.1670 N   0  0  0  0  0  0  0  0  0  0  0  0
    6.1580    3.0760    1.3020 C   0  0  0  0  0  0  0  0  0  0  0  0
    6.8060    4.3870    1.1880 N   0  0  0  0  0  0  0  0  0  0  0  0
    6.0940    2.4670    2.3970 O   0  0  0  0  0  0  0  0  0  0  0  0
    5.9030    0.2040   -0.1790 C   0  0  0  0  0  0  0  0  0  0  0  0
    5.4280   -1.0000   -0.5840 C   0  0  0  0  0  0  0  0  0  0  0  0
    4.1060   -1.2220   -0.8260 C   0  0  0  0  0  0  0  0  0  0  0  0
    3.6560   -2.8410   -1.3490 Cl  0  0  0  0  0  0  0  0  0  0  0  0
    0.6110   -2.2380   -0.3220 C   0  0  0  0  0  0  0  0  0  0  0  0
    0.3110   -2.8910   -1.4650 C   0  0  0  0  0  0  0  0  0  0  0  0
    0.3810   -4.2700   -1.4590 C   0  0  0  0  0  0  0  0  0  0  0  0
    0.7470   -4.8860   -0.2940 C   0  0  0  0  0  0  0  0  0  0  0  0
    1.0530   -4.2240    0.8790 C   0  0  0  0  0  0  0  0  0  0  0  0
    0.9750   -2.8230    0.8440 C   0  0  0  0  0  0  0  0  0  0  0  0
    1.3730   -2.1620    2.0230 N   0  0  0  0  0  0  0  0  0  0  0  0
   -2.6820    2.2790    0.8450 C   0  0  0  0  0  0  0  0  0  0  0  0
   -3.2990    3.4780    0.7110 C   0  0  0  0  0  0  0  0  0  0  0  0
   -2.9150    4.3590    1.8690 C   0  0  0  0  0  0  0  0  0  0  0  0
   -2.8650    3.2910    2.9550 C   0  0  0  0  0  0  0  0  0  0  0  0
   -1.9960    2.2610    2.1460 C   0  0  0  0  0  0  0  0  0  0  0  0
   -4.1530    3.7860   -0.3450 N   0  0  0  0  0  0  0  0  0  0  0  0
   -4.4490    2.8830   -1.3530 N   0  0  0  0  0  0  0  0  0  0  0  0
  2  1  1  1
  2  3  1  0
  2  4  1  0
  4  5  2  0
  4  9  1  0
  5  6  1  0
  5  7  1  0
  7  8  2  0
  7 38  1  0
  8  9  1  0
  8 32  1  0
  9 10  1  0
 10 11  1  0
 11 12  1  0
 12 13  1  0
 12 25  1  0
 13 14  1  0
 14 15  2  0
 14 23  1  0
 15 16  1  0
 16 17  1  0
 16 21  2  0
 17 18  1  0
 18 19  1  0
 18 20  2  0
 21 22  1  0
 22 23  2  0
 23 24  1  0
 25 26  2  0
 25 30  1  0
 26 27  1  0
 27 28  2  0
 28 29  1  0
 29 30  2  0
 30 31  1  0
 32 33  2  0
 32 36  1  0
 33 34  1  0
 33 37  1  0
 34 35  1  0
 35 36  1  0
 37 38  1  0
M  CHG  1   3   1
M  END
