
     RDKit          3D

 38 41  0  0  0  0  0  0  0  0999 V2000
   -2.0520   -4.2870    0.8880 C   0  0  0  0  0  0  0  0  0  0  0  0
   -2.2570   -3.5630    2.1770 C   0  0  0  0  0  0  0  0  0  0  0  0
   -2.1930   -2.0900    2.0320 C   0  0  0  0  0  0  0  0  0  0  0  0
   -0.9290   -1.5150    1.5580 C   0  0  0  0  0  0  0  0  0  0  0  0
   -0.9210   -0.8210    0.4360 C   0  0  0  0  0  0  0  0  0  0  0  0
   -2.1260   -0.6090   -0.3460 C   0  0  0  0  0  0  0  0  0  0  0  0
   -3.0600    0.2590    0.1870 N   0  0  0  0  0  0  0  0  0  0  0  0
   -4.2100    0.4800   -0.4360 C   0  0  0  0  0  0  0  0  0  0  0  0
   -4.5400   -0.1320   -1.6300 C   0  0  0  0  0  0  0  0  0  0  0  0
   -3.6280   -0.9960   -2.1750 C   0  0  0  0  0  0  0  0  0  0  0  0
   -2.4210   -1.2250   -1.5170 C   0  0  0  0  0  0  0  0  0  0  0  0
   -1.2840   -2.3670   -2.2340 Cl  0  0  0  0  0  0  0  0  0  0  0  0
   -5.7380    0.1090   -2.2610 C   0  0  0  0  0  0  0  0  0  0  0  0
   -6.6140    0.9880   -1.6650 C   0  0  0  0  0  0  0  0  0  0  0  0
   -8.1480    1.3170   -2.4420 Cl  0  0  0  0  0  0  0  0  0  0  0  0
   -6.3040    1.6120   -0.4680 C   0  0  0  0  0  0  0  0  0  0  0  0
   -7.2050    2.4960    0.1140 C   0  0  0  0  0  0  0  0  0  0  0  0
   -8.4440    2.7480   -0.5360 N   0  0  0  0  0  0  0  0  0  0  0  0
   -6.8480    3.0680    1.2700 N   0  0  0  0  0  0  0  0  0  0  0  0
   -5.6890    2.8450    1.8960 C   0  0  0  0  0  0  0  0  0  0  0  0
   -4.8210    1.9800    1.3150 N   0  0  0  0  0  0  0  0  0  0  0  0
   -5.1190    1.3680    0.1480 C   0  0  0  0  0  0  0  0  0  0  0  0
    0.3580   -0.1170    0.0260 C   0  0  1  0  0  0  0  0  0  0  0  0
    0.2550    0.3880   -1.3780 C   0  0  0  0  0  0  0  0  0  0  0  0
    0.3220    1.1330    0.9220 C   0  0  0  0  0  0  0  0  0  0  0  0
    1.4710   -1.0130    0.3450 C   0  0  1  0  0  0  0  0  0  0  0  0
    0.9460   -2.3490    0.0710 O   0  0  0  0  0  0  0  0  0  0  0  0
    2.7740   -1.0200   -0.2770 C   0  0  0  0  0  0  0  0  0  0  0  0
    3.7580    0.0420   -0.3110 C   0  0  2  0  0  0  0  0  0  0  0  0
    3.3960    1.3020   -1.0130 C   0  0  0  0  0  0  0  0  0  0  0  0
    5.0440   -0.4660   -1.0340 C   0  0  0  0  0  0  0  0  0  0  0  0
    6.0160    0.5810   -1.0710 N   0  0  0  0  0  0  0  0  0  0  0  0
    6.6670    1.0740    0.0910 C   0  0  0  0  0  0  0  0  0  0  0  0
    6.8520    0.2370    1.0670 N   0  0  0  0  0  0  0  0  0  0  0  0
    7.1220    2.4950    0.1970 C   0  0  0  0  0  0  0  0  0  0  0  0
    8.0770    2.8230   -0.8460 N   0  0  0  0  0  0  0  0  0  0  0  0
    1.5470   -1.0880    1.8890 C   0  0  0  0  0  0  0  0  0  0  0  0
    0.3010   -1.6810    2.3020 N   0  0  0  0  0  0  0  0  0  0  0  0
  1  2  1  0
  2  3  1  0
  3  4  1  0
  4  5  2  0
  4 38  1  0
  5  6  1  0
  5 23  1  0
  6  7  2  0
  6 11  1  0
  7  8  1  0
  8  9  2  0
  8 22  1  0
  9 10  1  0
  9 13  1  0
 10 11  2  0
 11 12  1  0
 13 14  2  0
 14 15  1  0
 14 16  1  0
 16 17  2  0
 16 22  1  0
 17 18  1  0
 17 19  1  0
 19 20  2  0
 20 21  1  0
 21 22  2  0
 23 24  1  6
 23 25  1  0
 23 26  1  0
 26 27  1  6
 26 28  1  0
 26 37  1  0
 28 29  1  0
 29 30  1  6
 29 31  1  0
 31 32  1  0
 32 33  1  0
 33 34  2  0
 33 35  1  0
 35 36  1  0
 37 38  1  0
M  CHG  1  36   1
M  END
