
     RDKit          3D

 17 18  0  0  0  0  0  0  0  0999 V2000
    4.8170   -1.6010    0.3210 O   0  0  0  0  0  0  0  0  0  0  0  0
    4.0270   -0.8030   -0.2500 C   0  0  0  0  0  0  0  0  0  0  0  0
    4.4070   -0.1620   -1.3720 N   0  0  0  0  0  0  0  0  0  0  0  0
    3.5380    0.6830   -1.9560 C   0  0  0  0  0  0  0  0  0  0  0  0
    2.3080    0.9080   -1.4580 N   0  0  0  0  0  0  0  0  0  0  0  0
    1.9300    0.2590   -0.3250 C   0  0  0  0  0  0  0  0  0  0  0  0
    0.7560    0.2750    0.4220 C   0  0  0  0  0  0  0  0  0  0  0  0
   -0.4320    1.0970    0.0800 C   0  0  0  0  0  0  0  0  0  0  0  0
   -1.5090    0.9460    0.9910 N   0  0  0  0  0  0  0  0  0  0  0  0
   -2.5570    0.0720    0.5690 C   0  0  2  0  0  0  0  0  0  0  0  0
   -2.1150   -1.3020    0.1900 C   0  0  0  0  0  0  0  0  0  0  0  0
   -1.2170   -1.3550   -0.8450 O   0  0  0  0  0  0  0  0  0  0  0  0
   -3.4460    0.7020   -0.4920 C   0  0  0  0  0  0  0  0  0  0  0  0
   -4.0510    1.8650   -0.0190 O   0  0  0  0  0  0  0  0  0  0  0  0
    0.9110   -0.5770    1.4830 C   0  0  0  0  0  0  0  0  0  0  0  0
    2.1520   -1.1110    1.3980 N   0  0  0  0  0  0  0  0  0  0  0  0
    2.7760   -0.6180    0.3180 C   0  0  0  0  0  0  0  0  0  0  0  0
  1  2  2  0
  2  3  1  0
  2 17  1  0
  3  4  1  0
  4  5  2  0
  5  6  1  0
  6  7  1  0
  6 17  2  0
  7  8  1  0
  7 15  2  0
  8  9  1  0
  9 10  1  0
 10 11  1  6
 10 13  1  0
 11 12  1  0
 13 14  1  0
 15 16  1  0
 16 17  1  0
M  CHG  1   9   1
M  END
