
     RDKit          3D

 38 42  0  0  0  0  0  0  0  0999 V2000
    4.4700   -1.1640    1.4930 C   0  0  0  0  0  0  0  0  0  0  0  0
    4.6700   -0.6290    0.1650 N   0  0  0  0  0  0  0  0  0  0  0  0
    3.6420   -0.7720   -0.8060 C   0  0  0  0  0  0  0  0  0  0  0  0
    2.4570   -1.3990   -0.5420 C   0  0  0  0  0  0  0  0  0  0  0  0
    1.4330   -1.5660   -1.4490 C   0  0  0  0  0  0  0  0  0  0  0  0
    0.2130   -2.2540   -1.0470 C   0  0  0  0  0  0  0  0  0  0  0  0
   -0.9120   -1.4280   -0.7440 N   0  0  0  0  0  0  0  0  0  0  0  0
   -1.0680   -0.6790    0.4430 C   0  0  0  0  0  0  0  0  0  0  0  0
   -0.1950   -0.7040    1.3190 O   0  0  0  0  0  0  0  0  0  0  0  0
   -2.2780    0.1570    0.6750 C   0  0  0  0  0  0  0  0  0  0  0  0
   -2.5140    0.8960    1.7520 C   0  0  0  0  0  0  0  0  0  0  0  0
   -1.6010    0.9650    2.8600 N   0  0  0  0  0  0  0  0  0  0  0  0
   -3.7180    1.6980    1.6170 C   0  0  0  0  0  0  0  0  0  0  0  0
   -4.2050    1.4150    0.4380 C   0  0  0  0  0  0  0  0  0  0  0  0
   -5.4200    2.1700    0.1290 C   0  0  0  0  0  0  0  0  0  0  0  0
   -6.2150    2.1880   -0.9420 C   0  0  0  0  0  0  0  0  0  0  0  0
   -7.5220    3.2900   -0.7650 Cl  0  0  0  0  0  0  0  0  0  0  0  0
   -6.1690    1.4140   -2.2120 C   0  0  0  0  0  0  0  0  0  0  0  0
   -5.7480    0.1570   -2.4630 C   0  0  0  0  0  0  0  0  0  0  0  0
   -5.1990   -0.8390   -1.5390 C   0  0  0  0  0  0  0  0  0  0  0  0
   -4.2410   -0.8280   -0.5380 C   0  0  0  0  0  0  0  0  0  0  0  0
   -4.1300   -2.1100    0.0590 C   0  0  0  0  0  0  0  0  0  0  0  0
   -3.4160   -2.5070    1.0540 C   0  0  0  0  0  0  0  0  0  0  0  0
   -3.4910   -4.2390    1.5760 Cl  0  0  0  0  0  0  0  0  0  0  0  0
   -3.3980    0.3280   -0.2150 C   0  0  2  0  0  0  0  0  0  0  0  0
   -5.7020    3.0270    1.3060 C   0  0  0  0  0  0  0  0  0  0  0  0
   -4.6030    2.7060    2.2910 C   0  0  0  0  0  0  0  0  0  0  0  0
    1.6640   -1.0440   -2.7100 C   0  0  0  0  0  0  0  0  0  0  0  0
    2.8620   -0.4100   -2.9760 C   0  0  0  0  0  0  0  0  0  0  0  0
    3.8320   -0.2720   -2.0540 N   0  0  0  0  0  0  0  0  0  0  0  0
    5.8850    0.0200   -0.1320 C   0  0  0  0  0  0  0  0  0  0  0  0
    7.0030   -0.6200   -0.6330 C   0  0  0  0  0  0  0  0  0  0  0  0
    6.9460   -2.0180   -0.8770 N   0  0  0  0  0  0  0  0  0  0  0  0
    8.1140    0.0830   -0.8780 N   0  0  0  0  0  0  0  0  0  0  0  0
    8.2180    1.4070   -0.6650 C   0  0  0  0  0  0  0  0  0  0  0  0
    7.1280    2.0260   -0.1770 N   0  0  0  0  0  0  0  0  0  0  0  0
    5.9790    1.3780    0.0920 C   0  0  0  0  0  0  0  0  0  0  0  0
    4.8610    2.0840    0.6050 N   0  0  0  0  0  0  0  0  0  0  0  0
  1  2  1  0
  2  3  1  0
  2 31  1  0
  3  4  2  0
  3 30  1  0
  4  5  1  0
  5  6  1  0
  5 28  2  0
  6  7  1  0
  7  8  1  0
  8  9  2  0
  8 10  1  0
 10 11  2  0
 25 10  1  1
 11 12  1  0
 11 13  1  0
 13 14  2  0
 13 27  1  0
 14 15  1  0
 14 25  1  0
 15 16  2  0
 15 26  1  0
 16 17  1  0
 16 18  1  0
 18 19  2  0
 19 20  1  0
 20 21  2  0
 21 22  1  0
 21 25  1  0
 22 23  2  3
 23 24  1  0
 26 27  1  0
 28 29  1  0
 29 30  2  0
 31 32  2  0
 31 37  1  0
 32 33  1  0
 32 34  1  0
 34 35  2  0
 35 36  1  0
 36 37  2  0
 37 38  1  0
M  CHG  1  30   1
M  END
