
     RDKit          3D

 38 42  0  0  0  0  0  0  0  0999 V2000
    0.0650   -1.0930    1.7160 C   0  0  0  0  0  0  0  0  0  0  0  0
    0.0100   -1.7990    0.3970 C   0  0  2  0  0  0  0  0  0  0  0  0
    1.2210   -2.4960    0.0400 N   0  0  0  0  0  0  0  0  0  0  0  0
    1.7010   -3.5690    0.8300 C   0  0  0  0  0  0  0  0  0  0  0  0
    0.9760   -3.9860    1.9320 C   0  0  0  0  0  0  0  0  0  0  0  0
    1.4690   -5.0400    2.6780 C   0  0  0  0  0  0  0  0  0  0  0  0
    2.6510   -5.6670    2.3400 C   0  0  0  0  0  0  0  0  0  0  0  0
    3.3670   -5.2440    1.2380 C   0  0  0  0  0  0  0  0  0  0  0  0
    2.8940   -4.1990    0.4860 C   0  0  0  0  0  0  0  0  0  0  0  0
    3.7680   -3.6260   -0.9200 Cl  0  0  0  0  0  0  0  0  0  0  0  0
   -0.3540   -0.8050   -0.6810 C   0  0  0  0  0  0  0  0  0  0  0  0
    0.5650    0.2880   -0.9070 C   0  0  0  0  0  0  0  0  0  0  0  0
    0.2710    1.1720   -1.7760 O   0  0  0  0  0  0  0  0  0  0  0  0
    1.7970    0.4230   -0.1980 N   0  0  0  0  0  0  0  0  0  0  0  0
    2.6330    1.5590   -0.5100 C   0  0  2  0  0  0  0  0  0  0  0  0
    3.9930    1.1760   -0.9110 C   0  0  0  0  0  0  0  0  0  0  0  0
    4.2810    0.3110   -2.0260 N   0  0  0  0  0  0  0  0  0  0  0  0
    4.8400    1.7300   -0.1210 N   0  0  0  0  0  0  0  0  0  0  0  0
    4.1960    2.5200    0.8680 C   0  0  0  0  0  0  0  0  0  0  0  0
    4.7020    3.2940    1.9210 C   0  0  0  0  0  0  0  0  0  0  0  0
    3.8330    3.9410    2.7050 N   0  0  0  0  0  0  0  0  0  0  0  0
    2.5050    3.8700    2.5130 C   0  0  0  0  0  0  0  0  0  0  0  0
    1.9520    3.1280    1.4980 C   0  0  0  0  0  0  0  0  0  0  0  0
    2.8410    2.4400    0.6610 C   0  0  0  0  0  0  0  0  0  0  0  0
   -1.4730   -0.9370   -1.3330 C   0  0  0  0  0  0  0  0  0  0  0  0
   -2.5430   -2.2870   -0.9280 Cl  0  0  0  0  0  0  0  0  0  0  0  0
   -1.8560   -0.1040   -2.4360 C   0  0  0  0  0  0  0  0  0  0  0  0
   -1.1620   -0.0580   -3.6720 C   0  0  0  0  0  0  0  0  0  0  0  0
   -1.8460    0.8140   -4.4080 N   0  0  0  0  0  0  0  0  0  0  0  0
   -2.8730    1.2940   -3.7430 N   0  0  0  0  0  0  0  0  0  0  0  0
   -2.9270    0.7460   -2.4820 C   0  0  0  0  0  0  0  0  0  0  0  0
   -3.9600    1.0840   -1.5200 C   0  0  0  0  0  0  0  0  0  0  0  0
   -3.8660    0.7400   -0.2000 C   0  0  0  0  0  0  0  0  0  0  0  0
   -4.9030    1.0450    0.6740 C   0  0  0  0  0  0  0  0  0  0  0  0
   -6.0280    1.6930    0.2250 C   0  0  0  0  0  0  0  0  0  0  0  0
   -6.1550    2.0580   -1.1090 C   0  0  0  0  0  0  0  0  0  0  0  0
   -7.3320    2.7300   -1.5520 N   0  0  0  0  0  0  0  0  0  0  0  0
   -5.1200    1.7470   -1.9550 C   0  0  0  0  0  0  0  0  0  0  0  0
  2  1  1  1
  2  3  1  0
  2 11  1  0
  3  4  1  0
  4  5  2  0
  4  9  1  0
  5  6  1  0
  6  7  2  0
  7  8  1  0
  8  9  2  0
  9 10  1  0
 11 12  1  0
 11 25  2  3
 12 13  2  0
 12 14  1  0
 15 14  1  1
 15 16  1  0
 15 24  1  0
 16 17  1  0
 16 18  2  0
 18 19  1  0
 19 20  2  0
 19 24  1  0
 20 21  1  0
 21 22  2  0
 22 23  1  0
 23 24  2  0
 25 26  1  0
 25 27  1  0
 27 28  1  0
 27 31  2  0
 28 29  2  0
 29 30  1  0
 30 31  1  0
 31 32  1  0
 32 33  2  0
 32 38  1  0
 33 34  1  0
 34 35  2  0
 35 36  1  0
 36 37  1  0
 36 38  2  0
M  CHG  1  21   1
M  END
