
     RDKit          3D

 22 23  0  0  0  0  0  0  0  0999 V2000
    2.2690    1.4470    2.2270 O   0  0  0  0  0  0  0  0  0  0  0  0
    3.3230    1.3640    1.6080 C   0  0  0  0  0  0  0  0  0  0  0  0
    4.3960    2.1160    2.0850 O   0  0  0  0  0  0  0  0  0  0  0  0
    3.5380    0.5460    0.4190 C   0  0  0  0  0  0  0  0  0  0  0  0
    2.6380   -0.2200   -0.1590 C   0  0  0  0  0  0  0  0  0  0  0  0
    1.2920   -0.3090    0.3750 C   0  0  0  0  0  0  0  0  0  0  0  0
    0.3190   -1.0650   -0.1550 C   0  0  0  0  0  0  0  0  0  0  0  0
   -1.0270   -1.1500    0.3820 C   0  0  1  0  0  0  0  0  0  0  0  0
   -0.8870   -1.0750    1.7940 O   0  0  0  0  0  0  0  0  0  0  0  0
   -2.0520   -0.1820   -0.0120 C   0  0  2  0  0  0  0  0  0  0  0  0
   -2.4270   -0.0690   -1.4490 C   0  0  0  0  0  0  0  0  0  0  0  0
   -1.3890    0.3190   -2.4220 C   0  0  0  0  0  0  0  0  0  0  0  0
   -2.0140    0.3730   -3.7030 O   0  0  0  0  0  0  0  0  0  0  0  0
   -1.8490    1.2060    0.6010 C   0  0  0  0  0  0  0  0  0  0  0  0
   -2.3150    1.0750    2.0130 C   0  0  0  0  0  0  0  0  0  0  0  0
   -3.2270   -0.1040    2.0840 C   0  0  0  0  0  0  0  0  0  0  0  0
   -3.3620   -0.5880    0.6940 C   0  0  2  0  0  0  0  0  0  0  0  0
   -3.5360   -1.9680    0.5950 O   0  0  0  0  0  0  0  0  0  0  0  0
    3.0130   -0.9810   -1.3500 C   0  0  0  0  0  0  0  0  0  0  0  0
    4.2220   -0.9230   -1.8600 C   0  0  0  0  0  0  0  0  0  0  0  0
    5.2750   -0.0890   -1.2660 C   0  0  0  0  0  0  0  0  0  0  0  0
    4.8210    0.5790   -0.1570 O   0  0  0  0  0  0  0  0  0  0  0  0
  1  2  2  0
  2  3  1  0
  2  4  1  0
  4  5  2  0
  4 22  1  0
  5  6  1  0
  5 19  1  0
  6  7  2  3
  7  8  1  0
  8  9  1  1
  8 10  1  0
 10 11  1  6
 10 14  1  0
 10 17  1  0
 11 12  1  0
 12 13  1  0
 14 15  1  0
 15 16  1  0
 16 17  1  0
 17 18  1  1
 19 20  2  0
 20 21  1  0
 21 22  1  0
M  END
