
     RDKit          3D

 22 23  0  0  0  0  0  0  0  0999 V2000
    3.6950   -2.3700    2.6680 O   0  0  0  0  0  0  0  0  0  0  0  0
    2.9380   -1.6590    1.7420 C   0  0  0  0  0  0  0  0  0  0  0  0
    3.3970   -1.4530    0.5340 C   0  0  0  0  0  0  0  0  0  0  0  0
    4.6470   -1.9590    0.2050 O   0  0  0  0  0  0  0  0  0  0  0  0
    2.5900   -0.7020   -0.4310 C   0  0  0  0  0  0  0  0  0  0  0  0
    3.1290   -0.5480   -1.6240 C   0  0  0  0  0  0  0  0  0  0  0  0
    4.3830   -1.0980   -1.8480 O   0  0  0  0  0  0  0  0  0  0  0  0
    1.3160   -0.2050    0.0400 C   0  0  0  0  0  0  0  0  0  0  0  0
    0.4740    0.6750   -0.7530 C   0  0  1  0  0  0  0  0  0  0  0  0
    1.1460    1.9890   -1.0590 C   0  0  0  0  0  0  0  0  0  0  0  0
    1.5030    2.7460    0.2050 C   0  0  0  0  0  0  0  0  0  0  0  0
    0.3990    3.0410    0.9850 O   0  0  0  0  0  0  0  0  0  0  0  0
   -0.1900    0.0760   -1.9510 C   0  0  0  0  0  0  0  0  0  0  0  0
   -1.2910   -0.7570   -1.2800 C   0  0  0  0  0  0  0  0  0  0  0  0
   -1.6070    0.1000   -0.0960 C   0  0  2  0  0  0  0  0  0  0  0  0
   -1.7220   -0.7040    1.1710 C   0  0  0  0  0  0  0  0  0  0  0  0
   -3.0920   -0.6780    1.7810 C   0  0  0  0  0  0  0  0  0  0  0  0
   -4.1000   -1.1200    0.7470 C   0  0  0  0  0  0  0  0  0  0  0  0
   -4.0780   -0.1760   -0.4120 C   0  0  0  0  0  0  0  0  0  0  0  0
   -2.9400    0.7940   -0.4020 C   0  0  1  0  0  0  0  0  0  0  0  0
   -3.2120    1.8150    0.4770 O   0  0  0  0  0  0  0  0  0  0  0  0
   -0.6330    1.0340    0.0590 O   0  0  0  0  0  0  0  0  0  0  0  0
  1  2  1  0
  2  3  2  3
  3  4  1  0
  3  5  1  0
  5  6  2  3
  5  8  1  0
  6  7  1  0
  9  8  1  1
  9 10  1  0
  9 13  1  0
  9 22  1  0
 10 11  1  0
 11 12  1  0
 13 14  1  0
 15 14  1  6
 15 16  1  0
 15 20  1  0
 15 22  1  0
 16 17  1  0
 17 18  1  0
 18 19  1  0
 19 20  1  0
 20 21  1  1
M  END
