
     RDKit          3D

 23 25  0  0  0  0  0  0  0  0999 V2000
   -3.1720    2.1030   -0.8490 C   0  0  0  0  0  0  0  0  0  0  0  0
   -2.6720    1.2710    0.0600 C   0  0  0  0  0  0  0  0  0  0  0  0
   -1.2790    0.8140   -0.0170 C   0  0  0  0  0  0  0  0  0  0  0  0
   -0.7360   -0.0160    0.8730 C   0  0  0  0  0  0  0  0  0  0  0  0
    0.6770   -0.4550    0.7490 C   0  0  2  0  0  0  0  0  0  0  0  0
    1.3170    0.4060   -0.2620 C   0  0  0  0  0  0  0  0  0  0  0  0
    1.5030    1.8650   -0.1940 C   0  0  0  0  0  0  0  0  0  0  0  0
    2.0810    2.4480   -1.1190 O   0  0  0  0  0  0  0  0  0  0  0  0
    1.0330    2.5620    0.8920 O   0  0  0  0  0  0  0  0  0  0  0  0
    1.1700    3.9640    1.0360 C   0  0  0  0  0  0  0  0  0  0  0  0
    1.7340   -0.3350   -1.2620 C   0  0  0  0  0  0  0  0  0  0  0  0
    2.4100    0.1440   -2.4540 N   0  0  0  0  0  0  0  0  0  0  0  0
    1.4570   -1.7320   -0.9780 C   0  0  0  0  0  0  0  0  0  0  0  0
    1.7380   -2.8820   -1.7180 C   0  0  0  0  0  0  0  0  0  0  0  0
    1.4110   -4.1100   -1.2280 C   0  0  0  0  0  0  0  0  0  0  0  0
    0.8020   -4.2620   -0.0070 C   0  0  0  0  0  0  0  0  0  0  0  0
    0.5340   -3.1150    0.7030 C   0  0  0  0  0  0  0  0  0  0  0  0
    0.8360   -1.8300    0.2720 C   0  0  0  0  0  0  0  0  0  0  0  0
   -1.5820   -0.4710    1.9470 C   0  0  0  0  0  0  0  0  0  0  0  0
   -1.1210   -1.2500    2.8130 O   0  0  0  0  0  0  0  0  0  0  0  0
   -2.9960   -0.0450    2.0750 C   0  0  0  0  0  0  0  0  0  0  0  0
   -3.4780    0.7790    1.1670 C   0  0  0  0  0  0  0  0  0  0  0  0
   -5.1370    1.3140    1.2700 Cl  0  0  0  0  0  0  0  0  0  0  0  0
  1  2  2  0
  2  3  1  0
  2 22  1  0
  3  4  2  0
  5  4  1  6
  4 19  1  0
  5  6  1  0
  5 18  1  0
  6  7  1  0
  6 11  2  0
  7  8  2  0
  7  9  1  0
  9 10  1  0
 11 12  1  0
 11 13  1  0
 13 14  2  0
 13 18  1  0
 14 15  1  0
 15 16  2  0
 16 17  1  0
 17 18  2  0
 19 20  2  0
 19 21  1  0
 21 22  2  0
 22 23  1  0
M  END
