
     RDKit          3D

 22 23  0  0  0  0  0  0  0  0999 V2000
    5.8580    1.0480   -0.9850 C   0  0  0  0  0  0  0  0  0  0  0  0
    5.4980    0.8910    0.4810 C   0  0  0  0  0  0  0  0  0  0  0  0
    4.2100    0.1570    0.6690 C   0  0  0  0  0  0  0  0  0  0  0  0
    3.1330    0.7910    0.0730 O   0  0  0  0  0  0  0  0  0  0  0  0
    1.9730    0.0170    0.3090 C   0  0  2  0  0  0  0  0  0  0  0  0
    1.4650   -0.3830   -1.0420 C   0  0  0  0  0  0  0  0  0  0  0  0
   -0.0350   -0.3350   -1.1390 C   0  0  0  0  0  0  0  0  0  0  0  0
   -0.6980   -0.7470    0.1810 C   0  0  2  0  0  0  0  0  0  0  0  0
   -0.3730   -2.2520    0.2800 C   0  0  0  0  0  0  0  0  0  0  0  0
   -0.8810   -2.8320    1.4220 O   0  0  0  0  0  0  0  0  0  0  0  0
   -2.1650   -0.6500    0.1010 C   0  0  2  0  0  0  0  0  0  0  0  0
   -2.7480   -1.1270    1.4470 C   0  0  0  0  0  0  0  0  0  0  0  0
   -2.5960   -1.5800   -0.8500 O   0  0  0  0  0  0  0  0  0  0  0  0
   -2.8140    0.6020   -0.1900 C   0  0  0  0  0  0  0  0  0  0  0  0
   -2.2800    1.7830   -0.2050 C   0  0  0  0  0  0  0  0  0  0  0  0
   -3.0150    3.0340   -0.5190 C   0  0  0  0  0  0  0  0  0  0  0  0
   -4.3770    2.8580   -0.6750 O   0  0  0  0  0  0  0  0  0  0  0  0
   -4.9740    1.6250   -0.6680 C   0  0  0  0  0  0  0  0  0  0  0  0
   -4.2750    0.5460   -0.4450 C   0  0  0  0  0  0  0  0  0  0  0  0
   -4.9320   -0.6710   -0.4500 O   0  0  0  0  0  0  0  0  0  0  0  0
   -0.0250   -0.1000    1.3520 C   0  0  0  0  0  0  0  0  0  0  0  0
    1.0170    0.7480    0.9710 O   0  0  0  0  0  0  0  0  0  0  0  0
  1  2  1  0
  2  3  1  0
  3  4  1  0
  5  4  1  6
  5  6  1  0
  5 22  1  0
  6  7  1  0
  7  8  1  0
  8  9  1  1
  8 11  1  0
  8 21  1  0
  9 10  1  0
 11 12  1  1
 11 13  1  0
 11 14  1  0
 14 15  2  0
 14 19  1  0
 15 16  1  0
 16 17  1  0
 17 18  1  0
 18 19  2  0
 19 20  1  0
 21 22  1  0
M  END
