
     RDKit          3D

 23 25  0  0  0  0  0  0  0  0999 V2000
   -1.7850    2.1530   -0.0480 C   0  0  0  0  0  0  0  0  0  0  0  0
   -2.7280    1.0170   -0.1870 C   0  0  0  0  0  0  0  0  0  0  0  0
   -3.8810    1.2040   -0.9670 C   0  0  0  0  0  0  0  0  0  0  0  0
   -4.7990    0.1930   -1.1240 C   0  0  0  0  0  0  0  0  0  0  0  0
   -4.5570   -0.9960   -0.5000 C   0  0  0  0  0  0  0  0  0  0  0  0
   -3.4070   -1.1830    0.2790 C   0  0  0  0  0  0  0  0  0  0  0  0
   -2.4640   -0.1690    0.4490 C   0  0  0  0  0  0  0  0  0  0  0  0
   -1.2710   -0.3440    1.2570 C   0  0  1  0  0  0  0  0  0  0  0  0
   -1.1630   -1.7570    1.8730 C   0  0  0  0  0  0  0  0  0  0  0  0
   -0.6230   -2.6050    0.7410 C   0  0  0  0  0  0  0  0  0  0  0  0
   -0.3050   -1.5590   -0.3710 C   0  0  0  0  0  0  0  0  0  0  0  0
   -0.0140   -0.4510    0.4430 N   0  0  0  0  0  0  0  0  0  0  0  0
    1.0540    0.4040    0.6330 C   0  0  0  0  0  0  0  0  0  0  0  0
    0.8970    1.3750    1.5270 O   0  0  0  0  0  0  0  0  0  0  0  0
    2.3610    0.4510    0.0240 C   0  0  0  0  0  0  0  0  0  0  0  0
    2.9380   -0.5520   -0.7210 C   0  0  0  0  0  0  0  0  0  0  0  0
    4.2280   -0.4690   -1.2600 C   0  0  0  0  0  0  0  0  0  0  0  0
    4.9340   -1.7500   -2.1990 Cl  0  0  0  0  0  0  0  0  0  0  0  0
    4.9490    0.6750   -1.0280 C   0  0  0  0  0  0  0  0  0  0  0  0
    6.2290    0.8060   -1.5380 O   0  0  0  0  0  0  0  0  0  0  0  0
    4.4360    1.7170   -0.2910 C   0  0  0  0  0  0  0  0  0  0  0  0
    3.1580    1.5800    0.2150 C   0  0  0  0  0  0  0  0  0  0  0  0
    2.6760    2.6470    0.9490 O   0  0  0  0  0  0  0  0  0  0  0  0
  1  2  1  0
  2  3  2  0
  2  7  1  0
  3  4  1  0
  4  5  2  0
  5  6  1  0
  6  7  2  0
  8  7  1  6
  8  9  1  0
  8 12  1  0
  9 10  1  0
 10 11  1  0
 11 12  1  0
 12 13  1  0
 13 14  2  0
 13 15  1  0
 15 16  2  0
 15 22  1  0
 16 17  1  0
 17 18  1  0
 17 19  2  0
 19 20  1  0
 19 21  1  0
 21 22  2  0
 22 23  1  0
M  END
