
     RDKit          3D

 19 20  0  0  0  0  0  0  0  0999 V2000
   -1.6840    3.1630    0.1790 C   0  0  0  0  0  0  0  0  0  0  0  0
   -2.3850    2.1720   -0.2000 C   0  0  0  0  0  0  0  0  0  0  0  0
   -3.7640    2.7020   -0.5380 O   0  0  0  0  0  0  0  0  0  0  0  0
   -2.3040    0.8170   -0.4000 C   0  0  0  0  0  0  0  0  0  0  0  0
   -1.5630   -0.2490   -0.3670 C   0  0  0  0  0  0  0  0  0  0  0  0
   -2.0870   -1.5360   -0.7190 C   0  0  0  0  0  0  0  0  0  0  0  0
   -3.4500   -1.8930   -1.1520 C   0  0  0  0  0  0  0  0  0  0  0  0
   -1.0480   -2.4100   -0.5720 C   0  0  0  0  0  0  0  0  0  0  0  0
    0.0440   -1.7640   -0.1670 N   0  0  0  0  0  0  0  0  0  0  0  0
   -0.2380   -0.4450   -0.0340 C   0  0  0  0  0  0  0  0  0  0  0  0
    0.5950    0.5170    0.2880 C   0  0  0  0  0  0  0  0  0  0  0  0
    2.0050    0.4720    0.6650 C   0  0  0  0  0  0  0  0  0  0  0  0
    2.7070    1.5400    0.3560 C   0  0  0  0  0  0  0  0  0  0  0  0
    4.0900    1.8420    0.5660 C   0  0  0  0  0  0  0  0  0  0  0  0
    4.9410    1.1280    1.1030 O   0  0  0  0  0  0  0  0  0  0  0  0
    2.6230   -0.6580    1.3440 C   0  0  0  0  0  0  0  0  0  0  0  0
    2.6040   -1.9390    0.5720 C   0  0  0  0  0  0  0  0  0  0  0  0
    1.3120   -2.3630    0.0790 C   0  0  0  0  0  0  0  0  0  0  0  0
    1.2960   -3.6100   -0.2170 O   0  0  0  0  0  0  0  0  0  0  0  0
  1  2  2  0
  2  3  1  0
  2  4  1  0
  4  5  2  3
  5  6  1  0
  5 10  1  0
  6  7  1  0
  6  8  2  0
  8  9  1  0
  9 10  1  0
  9 18  1  0
 10 11  2  0
 11 12  1  0
 12 13  2  3
 12 16  1  0
 13 14  1  0
 14 15  2  0
 16 17  1  0
 17 18  1  0
 18 19  2  0
M  END
