
     RDKit          3D

 22 23  0  0  0  0  0  0  0  0999 V2000
    2.4590    2.8500    0.0800 N   0  0  0  0  0  0  0  0  0  0  0  0
    2.1480    1.6060    0.1080 C   0  0  0  0  0  0  0  0  0  0  0  0
    0.9010    1.1280    0.1120 N   0  0  0  0  0  0  0  0  0  0  0  0
    0.6150   -0.1870    0.1420 C   0  0  0  0  0  0  0  0  0  0  0  0
   -0.7940   -0.6590    0.1450 C   0  0  0  0  0  0  0  0  0  0  0  0
   -1.6600    0.4340    0.1140 O   0  0  0  0  0  0  0  0  0  0  0  0
   -3.0370    0.3450    0.1080 C   0  0  0  0  0  0  0  0  0  0  0  0
   -3.7110   -0.8690    0.1330 C   0  0  0  0  0  0  0  0  0  0  0  0
   -5.0860   -0.9150    0.1260 C   0  0  0  0  0  0  0  0  0  0  0  0
   -5.8910   -2.5060    0.1600 S   0  0  0  0  0  0  0  0  0  0  0  0
   -5.8480    0.2260    0.0940 C   0  0  0  0  0  0  0  0  0  0  0  0
   -5.1970    1.4510    0.0680 C   0  0  0  0  0  0  0  0  0  0  0  0
   -6.1430    2.9230    0.0270 Cl  0  0  0  0  0  0  0  0  0  0  0  0
   -3.8020    1.4910    0.0750 C   0  0  0  0  0  0  0  0  0  0  0  0
   -3.1790    2.7150    0.0490 O   0  0  0  0  0  0  0  0  0  0  0  0
    1.6530   -1.0470    0.1690 N   0  0  0  0  0  0  0  0  0  0  0  0
    2.9250   -0.6230    0.1660 C   0  0  0  0  0  0  0  0  0  0  0  0
    4.3030   -1.7840    0.2020 S   0  0  0  0  0  0  0  0  0  0  0  0
    5.8630   -0.8390    0.1890 C   0  0  0  0  0  0  0  0  0  0  0  0
    7.0360   -1.7130    0.2170 C   0  0  0  0  0  0  0  0  0  0  0  0
    7.5330   -2.0630    1.2660 O   0  0  0  0  0  0  0  0  0  0  0  0
    3.1580    0.7040    0.1360 N   0  0  0  0  0  0  0  0  0  0  0  0
  1  2  2  0
  2  3  1  0
  2 22  1  0
  3  4  2  0
  4  5  1  0
  4 16  1  0
  5  6  1  0
  6  7  1  0
  7  8  2  0
  7 14  1  0
  8  9  1  0
  9 10  1  0
  9 11  2  0
 11 12  1  0
 12 13  1  0
 12 14  2  0
 14 15  1  0
 16 17  2  0
 17 18  1  0
 17 22  1  0
 18 19  1  0
 19 20  1  0
 20 21  2  0
M  END
