
     RDKit          3D

 19 21  0  0  0  0  0  0  0  0999 V2000
   -1.9440   -2.3630    0.3660 C   0  0  0  0  0  0  0  0  0  0  0  0
   -1.3390   -1.0080    0.2870 C   0  0  0  0  0  0  0  0  0  0  0  0
   -2.2260    0.0610    0.2790 C   0  0  0  0  0  0  0  0  0  0  0  0
   -3.7030   -0.1280    0.3460 C   0  0  0  0  0  0  0  0  0  0  0  0
   -1.7450    1.3560    0.2080 C   0  0  0  0  0  0  0  0  0  0  0  0
   -0.3690    1.6120    0.1420 C   0  0  0  0  0  0  0  0  0  0  0  0
    0.4730    0.5280    0.1530 C   0  0  0  0  0  0  0  0  0  0  0  0
    0.0220   -0.7890    0.2240 C   0  0  0  0  0  0  0  0  0  0  0  0
    0.9080   -1.9490    0.2340 C   0  0  0  0  0  0  0  0  0  0  0  0
    2.3340   -1.7050   -0.0400 C   0  0  0  0  0  0  0  0  0  0  0  0
    2.7080   -0.3620   -0.5580 C   0  0  2  0  0  0  0  0  0  0  0  0
    4.1670   -0.1060   -0.2540 C   0  0  0  0  0  0  0  0  0  0  0  0
    1.9150    0.7360    0.0990 C   0  0  0  0  0  0  0  0  0  0  0  0
    2.4430    1.7700    0.5770 O   0  0  0  0  0  0  0  0  0  0  0  0
   -0.1340    3.0400    0.0730 C   0  0  0  0  0  0  0  0  0  0  0  0
    0.9250    3.6930    0.0020 O   0  0  0  0  0  0  0  0  0  0  0  0
   -1.4520    3.6570    0.1000 C   0  0  0  0  0  0  0  0  0  0  0  0
   -1.6710    4.8910    0.0580 O   0  0  0  0  0  0  0  0  0  0  0  0
   -2.4230    2.6050    0.1830 N   0  0  0  0  0  0  0  0  0  0  0  0
  1  2  1  0
  2  3  2  0
  2  8  1  0
  3  4  1  0
  3  5  1  0
  5  6  2  0
  5 19  1  0
  6  7  1  0
  6 15  1  0
  7  8  2  0
  7 13  1  0
  8  9  1  0
  9 10  1  0
 10 11  1  0
 11 12  1  1
 11 13  1  0
 13 14  2  0
 15 16  2  0
 15 17  1  0
 17 18  2  0
 17 19  1  0
M  END
