
     RDKit          3D

 31 33  0  0  0  0  0  0  0  0999 V2000
    0.5740    1.6060    0.5990 O   0  0  0  0  0  0  0  0  0  0  0  0
    1.7290    1.1590    0.7780 C   0  0  0  0  0  0  0  0  0  0  0  0
    2.7800    2.0960    0.9580 N   0  0  0  0  0  0  0  0  0  0  0  0
    2.5820    3.5260    0.9440 C   0  0  0  0  0  0  0  0  0  0  0  0
    2.0130    4.0330   -0.3600 C   0  0  0  0  0  0  0  0  0  0  0  0
    1.8800    5.4240   -0.2200 O   0  0  0  0  0  0  0  0  0  0  0  0
    1.9390   -0.2810    0.7940 C   0  0  0  0  0  0  0  0  0  0  0  0
    0.9360   -1.1200    0.6230 C   0  0  0  0  0  0  0  0  0  0  0  0
   -0.3730   -0.6210    0.4190 N   0  0  0  0  0  0  0  0  0  0  0  0
   -0.7990   -0.3480   -0.7670 C   0  0  0  0  0  0  0  0  0  0  0  0
   -0.0200   -0.5260   -1.8290 N   0  0  0  0  0  0  0  0  0  0  0  0
   -0.4140   -0.2600   -3.0840 C   0  0  0  0  0  0  0  0  0  0  0  0
   -1.6600    0.2110   -3.2560 N   0  0  0  0  0  0  0  0  0  0  0  0
   -2.4960    0.4100   -2.1890 C   0  0  0  0  0  0  0  0  0  0  0  0
   -2.0950    0.1370   -0.9080 C   0  0  0  0  0  0  0  0  0  0  0  0
   -2.9430    0.3990    0.2190 C   0  0  0  0  0  0  0  0  0  0  0  0
   -2.3830    0.9580    1.2240 O   0  0  0  0  0  0  0  0  0  0  0  0
   -4.3520    0.0850    0.3050 C   0  0  0  0  0  0  0  0  0  0  0  0
   -5.0240   -0.5360   -0.6190 C   0  0  0  0  0  0  0  0  0  0  0  0
   -6.4520   -0.8460   -0.5260 C   0  0  0  0  0  0  0  0  0  0  0  0
   -7.0430   -0.4330    0.6410 O   0  0  0  0  0  0  0  0  0  0  0  0
   -6.3630    0.2220    1.6320 C   0  0  0  0  0  0  0  0  0  0  0  0
   -5.0850    0.4920    1.5210 C   0  0  0  0  0  0  0  0  0  0  0  0
    1.1390   -2.5130    0.6390 O   0  0  0  0  0  0  0  0  0  0  0  0
    2.2360   -2.9790    1.4340 C   0  0  0  0  0  0  0  0  0  0  0  0
    3.4600   -2.2250    0.9660 C   0  0  1  0  0  0  0  0  0  0  0  0
    3.7700   -2.7020   -0.3090 O   0  0  0  0  0  0  0  0  0  0  0  0
    5.3690   -3.3730   -0.3670 P   0  0  0  0  0  0  0  0  0  0  0  0
    5.6310   -4.5290    0.9000 O   0  0  0  0  0  0  0  0  0  0  0  0
    6.5060   -2.0770   -0.1600 O   0  0  0  0  0  0  0  0  0  0  0  0
    3.1960   -0.8450    0.9890 O   0  0  0  0  0  0  0  0  0  0  0  0
  1  2  2  0
  2  3  1  0
  2  7  1  0
  3  4  1  0
  4  5  1  0
  5  6  1  0
  7  8  2  0
  7 31  1  0
  8  9  1  0
  8 24  1  0
  9 10  2  3
 10 11  1  0
 10 15  1  0
 11 12  2  0
 12 13  1  0
 13 14  1  0
 14 15  2  0
 15 16  1  0
 16 17  2  0
 16 18  1  0
 18 19  2  0
 18 23  1  0
 19 20  1  0
 20 21  1  0
 21 22  1  0
 22 23  2  0
 24 25  1  0
 25 26  1  0
 26 27  1  6
 26 31  1  0
 27 28  1  0
 28 29  1  0
 28 30  1  0
M  END
