
     RDKit          3D

 30 32  0  0  0  0  0  0  0  0999 V2000
   -1.2240   -3.3360   -2.5140 C   0  0  0  0  0  0  0  0  0  0  0  0
   -0.8550   -2.5100   -1.4580 O   0  0  0  0  0  0  0  0  0  0  0  0
    0.2420   -1.6670   -1.4240 C   0  0  0  0  0  0  0  0  0  0  0  0
    0.9580   -1.6660   -2.4580 O   0  0  0  0  0  0  0  0  0  0  0  0
    0.6250   -0.8050   -0.3180 C   0  0  2  0  0  0  0  0  0  0  0  0
   -0.5190    0.1410   -0.0880 C   0  0  0  0  0  0  0  0  0  0  0  0
   -1.8320   -0.1430   -0.0420 N   0  0  0  0  0  0  0  0  0  0  0  0
   -2.5400    0.9770    0.1850 C   0  0  0  0  0  0  0  0  0  0  0  0
   -3.9790    1.1300    0.3110 C   0  0  0  0  0  0  0  0  0  0  0  0
   -4.8560    0.0790    0.2080 C   0  0  0  0  0  0  0  0  0  0  0  0
   -6.2220    0.1970    0.3250 C   0  0  0  0  0  0  0  0  0  0  0  0
   -6.7350    1.4650    0.5610 C   0  0  0  0  0  0  0  0  0  0  0  0
   -8.0920    1.6740    0.6920 O   0  0  0  0  0  0  0  0  0  0  0  0
   -5.8370    2.4990    0.6590 C   0  0  0  0  0  0  0  0  0  0  0  0
   -4.5130    2.3480    0.5400 N   0  0  0  0  0  0  0  0  0  0  0  0
   -1.6380    1.9540    0.2770 N   0  0  0  0  0  0  0  0  0  0  0  0
   -0.4410    1.4490    0.1140 O   0  0  0  0  0  0  0  0  0  0  0  0
    1.8030    0.0410   -0.7340 C   0  0  0  0  0  0  0  0  0  0  0  0
    2.8890   -0.2270    0.1280 N   0  0  0  0  0  0  0  0  0  0  0  0
    3.7180    0.8860    0.4590 C   0  0  0  0  0  0  0  0  0  0  0  0
    4.4760    1.3110   -0.7770 C   0  0  1  0  0  0  0  0  0  0  0  0
    3.5540    1.6640   -1.7510 O   0  0  0  0  0  0  0  0  0  0  0  0
    5.6190    2.7310   -0.4140 P   0  0  0  0  0  0  0  0  0  0  0  0
    4.8130    4.1920   -0.8940 O   0  0  0  0  0  0  0  0  0  0  0  0
    5.9140    2.7760    1.2970 O   0  0  0  0  0  0  0  0  0  0  0  0
    2.4630   -1.0260    1.2320 C   0  0  0  0  0  0  0  0  0  0  0  0
    1.0630   -1.4730    0.9320 C   0  0  1  0  0  0  0  0  0  0  0  0
    0.1840   -0.9560    2.0650 C   0  0  0  0  0  0  0  0  0  0  0  0
    0.9320   -2.9640    0.9430 C   0  0  0  0  0  0  0  0  0  0  0  0
    1.6460   -3.6150   -0.0250 O   0  0  0  0  0  0  0  0  0  0  0  0
  1  2  1  0
  2  3  1  0
  3  4  2  0
  5  3  1  6
  5  6  1  0
  5 18  1  0
  5 27  1  0
  6  7  2  0
  6 17  1  0
  7  8  1  0
  8  9  1  0
  8 16  2  0
  9 10  2  0
  9 15  1  0
 10 11  1  0
 11 12  2  0
 12 13  1  0
 12 14  1  0
 14 15  2  0
 16 17  1  0
 18 19  1  0
 19 20  1  0
 19 26  1  0
 20 21  1  0
 21 22  1  6
 21 23  1  0
 23 24  1  0
 23 25  1  0
 26 27  1  0
 27 28  1  1
 27 29  1  0
 29 30  1  0
M  END
