
     RDKit          3D

 30 32  0  0  0  0  0  0  0  0999 V2000
   -4.6600    1.2130    2.8600 O   0  0  0  0  0  0  0  0  0  0  0  0
   -3.7030    0.5020    2.5410 C   0  0  0  0  0  0  0  0  0  0  0  0
   -2.3270    0.9620    2.5260 N   0  0  0  0  0  0  0  0  0  0  0  0
   -1.4440    0.0720    1.7790 C   0  0  0  0  0  0  0  0  0  0  0  0
   -0.3110   -0.1230    2.2530 O   0  0  0  0  0  0  0  0  0  0  0  0
   -1.9140   -0.5410    0.5380 C   0  0  2  0  0  0  0  0  0  0  0  0
   -1.9070    0.3240   -0.6520 C   0  0  0  0  0  0  0  0  0  0  0  0
   -3.1240    0.5580   -1.1340 O   0  0  0  0  0  0  0  0  0  0  0  0
   -0.9290    0.9490   -1.3850 N   0  0  0  0  0  0  0  0  0  0  0  0
   -1.4140    1.7720   -2.5450 C   0  0  0  0  0  0  0  0  0  0  0  0
   -1.0020    1.0470   -3.8230 C   0  0  0  0  0  0  0  0  0  0  0  0
    0.2730    0.4920   -3.6630 O   0  0  0  0  0  0  0  0  0  0  0  0
    0.9490    1.3030   -2.7710 C   0  0  0  0  0  0  0  0  0  0  0  0
    0.4940    0.9990   -1.2960 C   0  0  1  0  0  0  0  0  0  0  0  0
    1.0090    2.2090   -0.5530 C   0  0  0  0  0  0  0  0  0  0  0  0
    0.5990    2.3440    0.7360 O   0  0  0  0  0  0  0  0  0  0  0  0
    1.1640   -0.2810   -0.9690 C   0  0  0  0  0  0  0  0  0  0  0  0
    2.5840   -0.1810   -0.8890 N   0  0  0  0  0  0  0  0  0  0  0  0
    3.2730   -1.3860   -0.5860 C   0  0  0  0  0  0  0  0  0  0  0  0
    4.7560   -1.2440   -0.5110 C   0  0  0  0  0  0  0  0  0  0  0  0
    5.2070   -0.2660    0.5450 C   0  0  0  0  0  0  0  0  0  0  0  0
    4.6780   -0.7250    2.2410 P   0  0  0  0  0  0  0  0  0  0  0  0
    4.1820    0.6570    3.1620 O   0  0  0  0  0  0  0  0  0  0  0  0
    6.0150   -1.4600    3.0650 O   0  0  0  0  0  0  0  0  0  0  0  0
   -3.2620   -1.0540    0.8050 N   0  0  0  0  0  0  0  0  0  0  0  0
   -4.2470   -1.7080   -0.0210 C   0  0  0  0  0  0  0  0  0  0  0  0
   -3.9590   -2.3530   -1.0660 O   0  0  0  0  0  0  0  0  0  0  0  0
   -5.5480   -1.4570    0.6010 C   0  0  0  0  0  0  0  0  0  0  0  0
   -5.2220   -1.4070    2.0770 C   0  0  0  0  0  0  0  0  0  0  0  0
   -3.8090   -0.9360    2.1210 C   0  0  2  0  0  0  0  0  0  0  0  0
  1  2  2  0
  2  3  1  0
  2 30  1  0
  3  4  1  0
  4  5  2  0
  4  6  1  0
  6  7  1  6
  6 25  1  0
  7  8  2  0
  7  9  1  0
  9 10  1  0
  9 14  1  0
 10 11  1  0
 11 12  1  0
 12 13  1  0
 13 14  1  0
 14 15  1  1
 14 17  1  0
 15 16  1  0
 17 18  1  0
 18 19  1  0
 19 20  1  0
 20 21  1  0
 21 22  1  0
 22 23  1  0
 22 24  1  0
 25 26  1  0
 25 30  1  0
 26 27  2  0
 26 28  1  0
 28 29  1  0
 30 29  1  6
M  END
