
     RDKit          3D

 31 33  0  0  0  0  0  0  0  0999 V2000
    2.2070    4.9940   -3.3310 O   0  0  0  0  0  0  0  0  0  0  0  0
    3.3850    4.5840   -3.1550 C   0  0  0  0  0  0  0  0  0  0  0  0
    3.7030    3.3180   -2.5470 C   0  0  0  0  0  0  0  0  0  0  0  0
    2.7600    2.4820   -2.1240 C   0  0  0  0  0  0  0  0  0  0  0  0
    3.0900    1.2040   -1.5110 C   0  0  0  0  0  0  0  0  0  0  0  0
    2.1630    0.3760   -1.0930 C   0  0  0  0  0  0  0  0  0  0  0  0
    2.5170   -0.9270   -0.4670 C   0  0  0  0  0  0  0  0  0  0  0  0
    3.7010   -1.2300    0.0310 C   0  0  0  0  0  0  0  0  0  0  0  0
    3.9410   -2.5260    0.6180 C   0  0  0  0  0  0  0  0  0  0  0  0
    3.1890   -3.5430    0.7770 N   0  0  0  0  0  0  0  0  0  0  0  0
    3.8070   -4.5860    1.3840 O   0  0  0  0  0  0  0  0  0  0  0  0
    5.1810   -4.2380    1.4700 C   0  0  0  0  0  0  0  0  0  0  0  0
    5.2060   -2.8690    1.1580 O   0  0  0  0  0  0  0  0  0  0  0  0
    1.3710   -1.7450   -0.5130 N   0  0  0  0  0  0  0  0  0  0  0  0
    0.3210   -0.9850   -1.1480 C   0  0  0  0  0  0  0  0  0  0  0  0
   -0.6960   -1.4970   -1.6310 O   0  0  0  0  0  0  0  0  0  0  0  0
    0.7070    0.4400   -1.0960 C   0  0  1  0  0  0  0  0  0  0  0  0
    0.1080    1.1000    0.0920 C   0  0  0  0  0  0  0  0  0  0  0  0
   -1.0510    1.7790   -0.4380 N   0  0  0  0  0  0  0  0  0  0  0  0
   -1.9810    2.5030    0.3830 C   0  0  0  0  0  0  0  0  0  0  0  0
   -3.0990    1.6660    0.8840 C   0  0  0  0  0  0  0  0  0  0  0  0
   -3.9820    2.1840    1.6140 O   0  0  0  0  0  0  0  0  0  0  0  0
   -3.2270    0.2910    0.5800 N   0  0  0  0  0  0  0  0  0  0  0  0
   -4.2760   -0.5880    1.0310 C   0  0  0  0  0  0  0  0  0  0  0  0
   -4.2390   -0.6480    2.5330 C   0  0  0  0  0  0  0  0  0  0  0  0
   -5.5550   -1.7700    3.2100 P   0  0  0  0  0  0  0  0  0  0  0  0
   -7.0980   -1.3600    2.5760 O   0  0  0  0  0  0  0  0  0  0  0  0
   -5.1040   -3.3970    2.9010 O   0  0  0  0  0  0  0  0  0  0  0  0
   -1.0870    1.6020   -1.8490 C   0  0  0  0  0  0  0  0  0  0  0  0
   -2.1150    1.8400   -2.5260 O   0  0  0  0  0  0  0  0  0  0  0  0
    0.1740    1.1490   -2.2180 O   0  0  0  0  0  0  0  0  0  0  0  0
  1  2  2  0
  2  3  1  0
  3  4  2  3
  4  5  1  0
  5  6  2  3
  6  7  1  0
  6 17  1  0
  7  8  2  3
  7 14  1  0
  8  9  1  0
  9 10  2  0
  9 13  1  0
 10 11  1  0
 11 12  1  0
 12 13  1  0
 14 15  1  0
 15 16  2  0
 15 17  1  0
 17 18  1  1
 17 31  1  0
 18 19  1  0
 19 20  1  0
 19 29  1  0
 20 21  1  0
 21 22  2  0
 21 23  1  0
 23 24  1  0
 24 25  1  0
 25 26  1  0
 26 27  1  0
 26 28  1  0
 29 30  2  0
 29 31  1  0
M  END
