
     RDKit          3D

 31 33  0  0  0  0  0  0  0  0999 V2000
    9.0630    3.0520    0.8810 N   0  0  0  0  0  0  0  0  0  0  0  0
    8.0360    2.3690    0.1850 C   0  0  0  0  0  0  0  0  0  0  0  0
    7.5750    2.9000   -0.8830 O   0  0  0  0  0  0  0  0  0  0  0  0
    7.5020    1.1170    0.6340 N   0  0  0  0  0  0  0  0  0  0  0  0
    6.4520    0.5150   -0.1620 C   0  0  2  0  0  0  0  0  0  0  0  0
    5.2940   -0.0510    0.6530 C   0  0  0  0  0  0  0  0  0  0  0  0
    5.2610   -1.1500   -0.2810 N   0  0  0  0  0  0  0  0  0  0  0  0
    4.2680   -2.0250   -0.7770 C   0  0  0  0  0  0  0  0  0  0  0  0
    4.5240   -2.9350   -1.6240 O   0  0  0  0  0  0  0  0  0  0  0  0
    2.9480   -1.9410   -0.3630 O   0  0  0  0  0  0  0  0  0  0  0  0
    1.9350   -2.8030   -0.8410 C   0  0  0  0  0  0  0  0  0  0  0  0
    0.6800   -2.5040   -0.2610 O   0  0  0  0  0  0  0  0  0  0  0  0
    0.0470   -1.2910   -0.3790 C   0  0  0  0  0  0  0  0  0  0  0  0
    0.6070   -0.3820   -1.0420 O   0  0  0  0  0  0  0  0  0  0  0  0
   -1.2740   -0.9960    0.2380 C   0  0  2  0  0  0  0  0  0  0  0  0
   -2.2720   -1.9680   -0.3250 C   0  0  0  0  0  0  0  0  0  0  0  0
   -3.5910   -1.2620   -0.1590 C   0  0  0  0  0  0  0  0  0  0  0  0
   -3.2960    0.1380   -0.1700 N   0  0  0  0  0  0  0  0  0  0  0  0
   -4.1470    1.2610   -0.0710 C   0  0  0  0  0  0  0  0  0  0  0  0
   -3.5030    2.3950   -0.1360 O   0  0  0  0  0  0  0  0  0  0  0  0
   -5.5830    1.3010    0.0860 C   0  0  0  0  0  0  0  0  0  0  0  0
   -6.4000    0.2940    0.1760 C   0  0  0  0  0  0  0  0  0  0  0  0
   -7.8660    0.4350    0.3360 C   0  0  1  0  0  0  0  0  0  0  0  0
   -8.5100   -0.1900   -0.7470 O   0  0  0  0  0  0  0  0  0  0  0  0
   -8.4560   -0.4760    1.8580 P   0  0  0  0  0  0  0  0  0  0  0  0
   -8.7880    0.3490    3.1410 O   0  0  0  0  0  0  0  0  0  0  0  0
   -8.3320    1.7390    0.3880 O   0  0  0  0  0  0  0  0  0  0  0  0
   -7.5080    2.8140    0.2970 C   0  0  0  0  0  0  0  0  0  0  0  0
   -6.2210    2.6420    0.1560 C   0  0  0  0  0  0  0  0  0  0  0  0
   -1.8270    0.3200   -0.3020 C   0  0  0  0  0  0  0  0  0  0  0  0
    6.6770   -0.9600   -0.4840 C   0  0  0  0  0  0  0  0  0  0  0  0
  1  2  1  0
  2  3  2  0
  2  4  1  0
  5  4  1  1
  5  6  1  0
  5 31  1  0
  6  7  1  0
  7  8  1  0
  7 31  1  0
  8  9  2  0
  8 10  1  0
 10 11  1  0
 11 12  1  0
 12 13  1  0
 13 14  2  0
 15 13  1  6
 15 16  1  0
 15 30  1  0
 16 17  1  0
 17 18  1  0
 18 19  1  0
 18 30  1  0
 19 20  2  0
 19 21  1  0
 21 22  2  0
 21 29  1  0
 22 23  1  0
 23 24  1  6
 23 25  1  0
 23 27  1  0
 25 26  2  0
 27 28  1  0
 28 29  2  0
M  END
