
     RDKit          3D

 31 33  0  0  0  0  0  0  0  0999 V2000
   -4.4000    3.7180    0.3130 C   0  0  0  0  0  0  0  0  0  0  0  0
   -3.6020    2.9640   -0.7370 C   0  0  1  0  0  0  0  0  0  0  0  0
   -2.4610    2.3200   -0.0350 C   0  0  0  0  0  0  0  0  0  0  0  0
   -1.5740    2.9790    0.5570 O   0  0  0  0  0  0  0  0  0  0  0  0
   -2.6180    0.9170   -0.1910 N   0  0  0  0  0  0  0  0  0  0  0  0
   -1.9750   -0.3560    0.1690 C   0  0  0  0  0  0  0  0  0  0  0  0
   -0.9160   -0.3640    1.1380 C   0  0  0  0  0  0  0  0  0  0  0  0
   -0.2590    0.7680    1.2590 O   0  0  0  0  0  0  0  0  0  0  0  0
   -0.4550   -1.3570    2.0020 N   0  0  0  0  0  0  0  0  0  0  0  0
    0.7050   -1.1320    2.9000 C   0  0  0  0  0  0  0  0  0  0  0  0
    1.9650   -0.8410    2.1680 C   0  0  0  0  0  0  0  0  0  0  0  0
    2.3510   -1.8670    1.3090 O   0  0  0  0  0  0  0  0  0  0  0  0
    3.7500   -1.6240    0.4510 P   0  0  0  0  0  0  0  0  0  0  0  0
    4.8910   -2.8580    0.3690 O   0  0  0  0  0  0  0  0  0  0  0  0
    3.8270   -0.3120   -0.7700 C   0  0  1  0  0  0  0  0  0  0  0  0
    3.8850    1.0380   -0.0880 C   0  0  0  0  0  0  0  0  0  0  0  0
    4.8980    1.8870   -0.8120 C   0  0  0  0  0  0  0  0  0  0  0  0
    6.2540    1.2030   -0.6410 C   0  0  0  0  0  0  0  0  0  0  0  0
    6.2030   -0.1030   -1.0730 O   0  0  0  0  0  0  0  0  0  0  0  0
    5.0240   -0.4720   -1.6780 C   0  0  0  0  0  0  0  0  0  0  0  0
   -2.7350   -1.3320   -0.3580 C   0  0  0  0  0  0  0  0  0  0  0  0
   -2.4200   -2.7490   -0.2460 C   0  0  0  0  0  0  0  0  0  0  0  0
   -3.2300   -3.8260   -0.6660 N   0  0  0  0  0  0  0  0  0  0  0  0
   -1.3160   -3.1710    0.2550 O   0  0  0  0  0  0  0  0  0  0  0  0
   -3.8520   -0.7760   -1.0500 N   0  0  0  0  0  0  0  0  0  0  0  0
   -4.8850   -1.4040   -1.7620 C   0  0  0  0  0  0  0  0  0  0  0  0
   -5.8000   -0.6480   -2.2870 O   0  0  0  0  0  0  0  0  0  0  0  0
   -5.0480   -2.7210   -1.9740 O   0  0  0  0  0  0  0  0  0  0  0  0
   -3.7730    0.6740   -0.9400 C   0  0  0  0  0  0  0  0  0  0  0  0
   -4.3670    1.8100   -1.2740 C   0  0  0  0  0  0  0  0  0  0  0  0
   -5.5280    1.9410   -2.0130 O   0  0  0  0  0  0  0  0  0  0  0  0
  2  1  1  1
  2  3  1  0
  2 30  1  0
  3  4  2  0
  3  5  1  0
  5  6  1  0
  5 29  1  0
  6  7  1  0
  6 21  2  0
  7  8  2  0
  7  9  1  0
  9 10  1  0
 10 11  1  0
 11 12  1  0
 12 13  1  0
 13 14  1  0
 15 13  1  1
 15 16  1  0
 15 20  1  0
 16 17  1  0
 17 18  1  0
 18 19  1  0
 19 20  1  0
 21 22  1  0
 21 25  1  0
 22 23  1  0
 22 24  2  0
 25 26  1  0
 25 29  1  0
 26 27  2  0
 26 28  1  0
 29 30  2  0
 30 31  1  0
M  END
