
     RDKit          3D

 17 17  0  0  0  0  0  0  0  0999 V2000
    4.6030    1.3780    0.3990 C   0  0  0  0  0  0  0  0  0  0  0  0
    4.3130    0.0290   -0.1950 C   0  0  0  0  0  0  0  0  0  0  0  0
    2.9180   -0.1830   -0.2170 O   0  0  0  0  0  0  0  0  0  0  0  0
    2.5230   -1.7130   -0.8880 P   0  0  0  0  0  0  0  0  0  0  0  0
    2.8700   -1.7750   -2.5940 O   0  0  0  0  0  0  0  0  0  0  0  0
    0.8420   -2.0090   -0.6630 O   0  0  0  0  0  0  0  0  0  0  0  0
    0.2540   -0.9800    0.1020 C   0  0  2  0  0  0  0  0  0  0  0  0
   -0.1190   -1.5640    1.3350 O   0  0  0  0  0  0  0  0  0  0  0  0
   -0.9360   -0.8190    2.1590 C   0  0  0  0  0  0  0  0  0  0  0  0
   -0.9180   -0.9280    3.3980 O   0  0  0  0  0  0  0  0  0  0  0  0
   -1.8500    0.1300    1.4870 C   0  0  0  0  0  0  0  0  0  0  0  0
   -1.9700   -0.3910    0.0500 C   0  0  1  0  0  0  0  0  0  0  0  0
   -3.0230    0.2930   -0.6970 C   0  0  0  0  0  0  0  0  0  0  0  0
   -2.7200    0.8380   -1.7920 O   0  0  0  0  0  0  0  0  0  0  0  0
   -4.3180    0.3710   -0.2660 O   0  0  0  0  0  0  0  0  0  0  0  0
   -5.3590    1.0220   -0.9610 C   0  0  0  0  0  0  0  0  0  0  0  0
   -0.7490   -0.3430   -0.5700 O   0  0  0  0  0  0  0  0  0  0  0  0
  1  2  1  0
  2  3  1  0
  3  4  1  0
  4  5  1  0
  4  6  1  0
  7  6  1  6
  7  8  1  0
  7 17  1  0
  8  9  1  0
  9 10  2  0
  9 11  1  0
 11 12  1  0
 12 13  1  6
 12 17  1  0
 13 14  2  0
 13 15  1  0
 15 16  1  0
M  END
