
     RDKit          3D

 17 17  0  0  0  0  0  0  0  0999 V2000
   -0.5470   -3.8310    0.1370 O   0  0  0  0  0  0  0  0  0  0  0  0
   -0.2520   -2.6290   -0.0930 C   0  0  0  0  0  0  0  0  0  0  0  0
   -1.3500   -1.7250   -0.5240 C   0  0  0  0  0  0  0  0  0  0  0  0
   -2.3060   -1.4080    0.6080 C   0  0  0  0  0  0  0  0  0  0  0  0
   -3.0210   -0.0990    0.2680 C   0  0  0  0  0  0  0  0  0  0  0  0
   -2.1890    0.6820   -0.5130 O   0  0  0  0  0  0  0  0  0  0  0  0
   -2.2370    1.9950   -0.0620 C   0  0  0  0  0  0  0  0  0  0  0  0
   -0.8080    2.4020    0.3060 C   0  0  0  0  0  0  0  0  0  0  0  0
   -0.0140    1.2870    0.5650 O   0  0  0  0  0  0  0  0  0  0  0  0
    1.0490    1.3090   -0.3330 C   0  0  0  0  0  0  0  0  0  0  0  0
    1.9710    0.1240   -0.1320 C   0  0  2  0  0  0  0  0  0  0  0  0
    2.3060   -0.3570   -1.3980 O   0  0  0  0  0  0  0  0  0  0  0  0
    3.6020   -0.1970   -1.6260 O   0  0  0  0  0  0  0  0  0  0  0  0
    4.3200   -0.7800   -0.7150 O   0  0  0  0  0  0  0  0  0  0  0  0
    5.3510   -0.0230   -0.3800 O   0  0  0  0  0  0  0  0  0  0  0  0
    1.3230   -0.9130    0.7250 C   0  0  0  0  0  0  0  0  0  0  0  0
    1.0240   -2.1000    0.0310 O   0  0  0  0  0  0  0  0  0  0  0  0
  1  2  2  0
  2  3  1  0
  2 17  1  0
  3  4  1  0
  4  5  1  0
  5  6  1  0
  6  7  1  0
  7  8  1  0
  8  9  1  0
  9 10  1  0
 10 11  1  0
 11 12  1  6
 11 16  1  0
 12 13  1  0
 13 14  1  0
 14 15  1  0
 16 17  1  0
M  END
