
     RDKit          3D

 21 23  0  0  0  0  0  0  0  0999 V2000
   -4.1080   -1.6300   -0.4070 N   0  0  0  0  0  0  0  0  0  0  0  0
   -2.9180   -2.2290    0.0310 C   0  0  0  0  0  0  0  0  0  0  0  0
   -2.9080   -3.4640    0.2420 O   0  0  0  0  0  0  0  0  0  0  0  0
   -1.6970   -1.4580    0.2480 C   0  0  0  0  0  0  0  0  0  0  0  0
   -0.5480   -2.0720    0.6770 C   0  0  0  0  0  0  0  0  0  0  0  0
    0.6330   -1.3940    0.8980 C   0  0  0  0  0  0  0  0  0  0  0  0
    0.6670   -0.0400    0.6800 C   0  0  0  0  0  0  0  0  0  0  0  0
    1.8110    0.6610    0.8870 O   0  0  0  0  0  0  0  0  0  0  0  0
    3.0620    0.2510    1.3010 C   0  0  0  0  0  0  0  0  0  0  0  0
    3.7900   -0.9240    0.1370 P   0  0  1  0  0  0  0  0  0  0  0  0
    4.1850   -2.2370    0.7990 O   0  0  0  0  0  0  0  0  0  0  0  0
    2.6780   -1.1980   -1.1010 O   0  0  0  0  0  0  0  0  0  0  0  0
    5.2000   -0.1850   -0.4980 O   0  0  0  0  0  0  0  0  0  0  0  0
   -0.4920    0.6150    0.2420 C   0  0  0  0  0  0  0  0  0  0  0  0
   -1.6510   -0.0880    0.0310 C   0  0  0  0  0  0  0  0  0  0  0  0
   -2.7330    0.8130   -0.4270 C   0  0  0  0  0  0  0  0  0  0  0  0
   -2.0670    2.1080   -0.4550 C   0  0  0  0  0  0  0  0  0  0  0  0
   -2.2470    3.8490   -0.7990 S   0  0  0  0  0  0  0  0  0  0  0  0
   -0.5250    4.2940   -0.3860 C   0  0  0  0  0  0  0  0  0  0  0  0
   -0.0660    3.1630   -0.0660 N   0  0  0  0  0  0  0  0  0  0  0  0
   -0.7400    2.0520   -0.0700 C   0  0  0  0  0  0  0  0  0  0  0  0
  1  2  1  0
  2  3  2  0
  2  4  1  0
  4  5  2  0
  4 15  1  0
  5  6  1  0
  6  7  2  0
  7  8  1  0
  7 14  1  0
  8  9  1  0
  9 10  1  0
 10 11  2  0
 10 12  1  6
 10 13  1  0
 14 15  2  0
 14 21  1  0
 15 16  1  0
 16 17  1  0
 17 18  1  0
 17 21  2  0
 18 19  1  0
 19 20  2  0
 20 21  1  0
M  END
