
     RDKit          3D

 17 18  0  0  0  0  0  0  0  0999 V2000
   -3.6150    1.4490   -1.6100 O   0  0  0  0  0  0  0  0  0  0  0  0
   -2.6070    1.1500   -0.9230 C   0  0  0  0  0  0  0  0  0  0  0  0
   -1.3170    1.5420   -1.2570 O   0  0  0  0  0  0  0  0  0  0  0  0
   -0.3900    0.9990   -0.3160 C   0  0  1  0  0  0  0  0  0  0  0  0
    0.7460    1.7170   -0.1980 O   0  0  0  0  0  0  0  0  0  0  0  0
    1.8530    0.8930   -0.3370 C   0  0  0  0  0  0  0  0  0  0  0  0
    1.9530   -0.1800    0.7040 C   0  0  0  0  0  0  0  0  0  0  0  0
    3.2040   -0.9940    0.4270 C   0  0  0  0  0  0  0  0  0  0  0  0
    4.2960   -0.1170    0.4980 O   0  0  0  0  0  0  0  0  0  0  0  0
    5.4030   -0.7930    0.2610 O   0  0  0  0  0  0  0  0  0  0  0  0
    6.3960    0.0540    0.0830 O   0  0  0  0  0  0  0  0  0  0  0  0
   -1.2660    1.0200    0.9450 C   0  0  0  0  0  0  0  0  0  0  0  0
   -2.4880    0.3780    0.3140 C   0  0  2  0  0  0  0  0  0  0  0  0
   -2.1410   -0.9280   -0.0210 O   0  0  0  0  0  0  0  0  0  0  0  0
   -3.3870   -1.4350   -0.3900 C   0  0  0  0  0  0  0  0  0  0  0  0
   -4.2910   -0.7640    0.6190 C   0  0  0  0  0  0  0  0  0  0  0  0
   -3.5850    0.3430    1.1070 O   0  0  0  0  0  0  0  0  0  0  0  0
  1  2  2  0
  2  3  1  0
  2 13  1  0
  3  4  1  0
  4  5  1  1
  4 12  1  0
  5  6  1  0
  6  7  1  0
  7  8  1  0
  8  9  1  0
  9 10  1  0
 10 11  1  0
 13 12  1  1
 13 14  1  0
 13 17  1  0
 14 15  1  0
 15 16  1  0
 16 17  1  0
M  END
