
     RDKit          3D

 38 39  0  0  0  0  0  0  0  0999 V2000
   -1.2510   -7.3460    0.0460 C   0  0  0  0  0  0  0  0  0  0  0  0
    0.0410   -6.8830    0.0580 O   0  0  0  0  0  0  0  0  0  0  0  0
    0.1800   -5.5230    0.1980 C   0  0  0  0  0  0  0  0  0  0  0  0
   -0.4380   -5.0600    1.4910 C   0  0  0  0  0  0  0  0  0  0  0  0
   -0.3440   -3.6980    1.7190 O   0  0  0  0  0  0  0  0  0  0  0  0
   -0.8330   -2.6620    0.9650 C   0  0  0  0  0  0  0  0  0  0  0  0
   -2.0530   -2.6900    0.5420 C   0  0  0  0  0  0  0  0  0  0  0  0
   -2.7350   -1.6720   -0.2650 C   0  0  0  0  0  0  0  0  0  0  0  0
   -2.7400   -0.3230    0.0730 C   0  0  0  0  0  0  0  0  0  0  0  0
   -3.3390    0.6620   -0.6700 C   0  0  0  0  0  0  0  0  0  0  0  0
   -3.3700    2.0300   -0.3730 N   0  0  0  0  0  0  0  0  0  0  0  0
   -2.8200    2.6660    0.7390 C   0  0  0  0  0  0  0  0  0  0  0  0
   -2.2170    2.0070    1.6090 O   0  0  0  0  0  0  0  0  0  0  0  0
   -2.9010    4.1410    0.9820 C   0  0  2  0  0  0  0  0  0  0  0  0
   -3.5770    4.2840    2.3350 C   0  0  0  0  0  0  0  0  0  0  0  0
   -3.5500    4.8310   -0.0070 O   0  0  0  0  0  0  0  0  0  0  0  0
   -2.7550    5.8350   -0.5750 C   0  0  0  0  0  0  0  0  0  0  0  0
   -3.9760    0.2260   -1.8400 C   0  0  0  0  0  0  0  0  0  0  0  0
   -4.6050    1.1490   -2.6510 O   0  0  0  0  0  0  0  0  0  0  0  0
   -4.0100   -1.0920   -2.2330 C   0  0  0  0  0  0  0  0  0  0  0  0
   -3.3800   -2.0290   -1.4250 C   0  0  0  0  0  0  0  0  0  0  0  0
   -3.5880   -3.3260   -2.0970 C   0  0  0  0  0  0  0  0  0  0  0  0
   -3.7970   -2.9760   -3.4300 O   0  0  0  0  0  0  0  0  0  0  0  0
   -4.5910   -1.8290   -3.3850 C   0  0  0  0  0  0  0  0  0  0  0  0
    0.0670   -1.5340    0.6540 C   0  0  1  0  0  0  0  0  0  0  0  0
    0.2900   -0.8540    1.8440 O   0  0  0  0  0  0  0  0  0  0  0  0
    1.3490   -2.0320    0.0080 C   0  0  0  0  0  0  0  0  0  0  0  0
    2.2860   -1.0240   -0.3390 N   0  0  0  0  0  0  0  0  0  0  0  0
    2.9390   -0.1370    0.5220 C   0  0  0  0  0  0  0  0  0  0  0  0
    2.7300   -0.1780    1.7390 O   0  0  0  0  0  0  0  0  0  0  0  0
    3.8720    0.8540    0.0620 N   0  0  0  0  0  0  0  0  0  0  0  0
    4.5640    1.7800    0.9240 C   0  0  1  0  0  0  0  0  0  0  0  0
    5.9710    1.3440    1.1330 C   0  0  0  0  0  0  0  0  0  0  0  0
    5.9900    0.0670    1.7740 O   0  0  0  0  0  0  0  0  0  0  0  0
    4.2650    3.1980    0.7330 C   0  0  0  0  0  0  0  0  0  0  0  0
    4.4830    3.8800   -0.5410 C   0  0  0  0  0  0  0  0  0  0  0  0
    5.9090    3.8650   -0.9960 C   0  0  0  0  0  0  0  0  0  0  0  0
    6.7610    4.4600   -0.0630 O   0  0  0  0  0  0  0  0  0  0  0  0
  1  2  1  0
  2  3  1  0
  3  4  1  0
  4  5  1  0
  5  6  1  0
  6  7  2  3
  6 25  1  0
  7  8  1  0
  8  9  2  0
  8 21  1  0
  9 10  1  0
 10 11  1  0
 10 18  2  0
 11 12  1  0
 12 13  2  0
 12 14  1  0
 14 15  1  1
 14 16  1  0
 16 17  1  0
 18 19  1  0
 18 20  1  0
 20 21  2  0
 20 24  1  0
 21 22  1  0
 22 23  1  0
 23 24  1  0
 25 26  1  1
 25 27  1  0
 27 28  1  0
 28 29  1  0
 29 30  2  0
 29 31  1  0
 31 32  1  0
 32 33  1  6
 32 35  1  0
 33 34  1  0
 35 36  1  0
 36 37  1  0
 37 38  1  0
M  END
