
     RDKit          3D

 37 40  0  0  0  0  0  0  0  0999 V2000
   -4.5080    3.5490   -0.2280 C   0  0  0  0  0  0  0  0  0  0  0  0
   -4.0190    2.6450   -1.3130 C   0  0  0  0  0  0  0  0  0  0  0  0
   -3.4670    1.4010   -0.8120 N   0  0  0  0  0  0  0  0  0  0  0  0
   -2.0870    1.2790   -0.4900 C   0  0  0  0  0  0  0  0  0  0  0  0
   -1.3680    2.2990   -0.6610 O   0  0  0  0  0  0  0  0  0  0  0  0
   -1.5280    0.0300    0.0160 C   0  0  0  0  0  0  0  0  0  0  0  0
    0.0190    0.3210    0.3140 C   0  0  0  0  0  0  0  0  0  0  0  0
    0.0800    1.3530    1.2950 C   0  0  0  0  0  0  0  0  0  0  0  0
    1.1690    2.1520    1.8640 C   0  0  0  0  0  0  0  0  0  0  0  0
   -1.0800    1.7180    1.8470 O   0  0  0  0  0  0  0  0  0  0  0  0
    0.8030   -0.3470   -0.4120 C   0  0  0  0  0  0  0  0  0  0  0  0
    0.0660   -1.2290   -1.3700 O   0  0  0  0  0  0  0  0  0  0  0  0
    2.2130   -0.5560   -0.6210 C   0  0  0  0  0  0  0  0  0  0  0  0
    2.5210   -1.3830   -1.5800 O   0  0  0  0  0  0  0  0  0  0  0  0
    3.2800    0.0010    0.0620 N   0  0  0  0  0  0  0  0  0  0  0  0
    4.6530    0.0960    0.0990 C   0  0  0  0  0  0  0  0  0  0  0  0
    5.6070   -0.3140   -0.6440 C   0  0  0  0  0  0  0  0  0  0  0  0
    5.2160   -1.0490   -1.8910 C   0  0  0  0  0  0  0  0  0  0  0  0
    4.2520   -0.5650   -2.5250 O   0  0  0  0  0  0  0  0  0  0  0  0
    6.0070   -2.2190   -2.2210 C   0  0  0  0  0  0  0  0  0  0  0  0
    7.0240   -2.5900   -1.4380 C   0  0  0  0  0  0  0  0  0  0  0  0
    7.3670   -1.8520   -0.2570 C   0  0  1  0  0  0  0  0  0  0  0  0
    8.7890   -1.7650    0.0270 N   0  0  0  0  0  0  0  0  0  0  0  0
    8.9150   -0.6180    0.8560 C   0  0  0  0  0  0  0  0  0  0  0  0
    9.9010   -0.3540    1.5730 O   0  0  0  0  0  0  0  0  0  0  0  0
    7.6860    0.2170    0.7350 C   0  0  2  0  0  0  0  0  0  0  0  0
    6.8230    0.1140    1.9710 C   0  0  0  0  0  0  0  0  0  0  0  0
    5.3320    1.0810    1.5530 S   0  0  0  0  0  0  0  0  0  0  0  0
    7.0710   -0.3420   -0.4770 C   0  0  2  0  0  0  0  0  0  0  0  0
   -4.3230    0.2440   -0.6310 C   0  0  2  0  0  0  0  0  0  0  0  0
   -4.9270   -0.1840   -1.9600 C   0  0  0  0  0  0  0  0  0  0  0  0
   -5.7000   -1.4840   -1.7780 C   0  0  0  0  0  0  0  0  0  0  0  0
   -5.7740   -1.8520   -0.3090 C   0  0  0  0  0  0  0  0  0  0  0  0
   -6.2260   -0.7380    0.5720 C   0  0  2  0  0  0  0  0  0  0  0  0
   -7.6110   -0.5420    0.5140 O   0  0  0  0  0  0  0  0  0  0  0  0
   -8.2470   -0.7140    1.7190 C   0  0  0  0  0  0  0  0  0  0  0  0
   -5.4710    0.5290    0.3000 C   0  0  0  0  0  0  0  0  0  0  0  0
  1  2  1  0
  2  3  1  0
  3  4  1  0
 30  3  1  6
  4  5  2  0
  4  6  1  0
  6  7  1  0
  7  8  1  0
  7 11  2  3
  8  9  1  0
  8 10  2  0
 11 12  1  0
 11 13  1  0
 13 14  2  0
 13 15  1  0
 15 16  1  0
 16 17  2  0
 16 28  1  0
 17 18  1  0
 29 17  1  1
 18 19  2  0
 18 20  1  0
 20 21  2  0
 21 22  1  0
 22 23  1  6
 22 29  1  0
 23 24  1  0
 24 25  2  0
 24 26  1  0
 26 27  1  1
 26 29  1  0
 27 28  1  0
 30 31  1  0
 30 37  1  0
 31 32  1  0
 32 33  1  0
 33 34  1  0
 34 35  1  6
 34 37  1  0
 35 36  1  0
M  END
