
     RDKit          3D

 38 41  0  0  0  0  0  0  0  0999 V2000
    7.9430    2.5500   -2.6360 C   0  0  0  0  0  0  0  0  0  0  0  0
    7.5980    1.1820   -2.0570 C   0  0  0  0  0  0  0  0  0  0  0  0
    6.2990    1.3260   -1.3370 C   0  0  0  0  0  0  0  0  0  0  0  0
    5.8340    0.0020   -0.7060 C   0  0  2  0  0  0  0  0  0  0  0  0
    4.6590    0.1730   -0.0660 O   0  0  0  0  0  0  0  0  0  0  0  0
    3.5520    0.6290   -0.6540 C   0  0  0  0  0  0  0  0  0  0  0  0
    2.9080   -0.2180   -1.7100 C   0  0  2  0  0  0  0  0  0  0  0  0
    1.8010    0.5440   -2.1790 O   0  0  0  0  0  0  0  0  0  0  0  0
    2.3540   -1.5140   -1.1270 C   0  0  0  0  0  0  0  0  0  0  0  0
    1.3380   -1.2590   -0.1010 C   0  0  0  0  0  0  0  0  0  0  0  0
    1.7080   -1.1100    1.2100 C   0  0  0  0  0  0  0  0  0  0  0  0
    0.7910   -0.8770    2.1920 C   0  0  0  0  0  0  0  0  0  0  0  0
    1.2960   -0.7350    3.5830 C   0  0  0  0  0  0  0  0  0  0  0  0
   -0.5970   -0.7760    1.9120 C   0  0  0  0  0  0  0  0  0  0  0  0
   -1.6120   -0.5550    2.7590 C   0  0  0  0  0  0  0  0  0  0  0  0
   -2.8740   -0.4950    2.3020 C   0  0  0  0  0  0  0  0  0  0  0  0
   -4.1280   -0.2560    2.9610 C   0  0  0  0  0  0  0  0  0  0  0  0
   -4.0860   -0.0250    4.1940 O   0  0  0  0  0  0  0  0  0  0  0  0
   -5.3660   -0.2700    2.2990 N   0  0  0  0  0  0  0  0  0  0  0  0
   -6.6210   -0.0090    2.9580 C   0  0  0  0  0  0  0  0  0  0  0  0
   -7.5810   -0.9350    2.2630 C   0  0  2  0  0  0  0  0  0  0  0  0
   -7.5880   -2.2170    2.8030 O   0  0  0  0  0  0  0  0  0  0  0  0
   -7.0790   -0.9300    0.8400 C   0  0  0  0  0  0  0  0  0  0  0  0
   -5.6180   -0.5460    0.9270 C   0  0  1  0  0  0  0  0  0  0  0  0
   -5.2880    0.5690    0.0080 C   0  0  0  0  0  0  0  0  0  0  0  0
   -4.9500    1.6810    0.5050 O   0  0  0  0  0  0  0  0  0  0  0  0
   -5.3310    0.4570   -1.3940 N   0  0  0  0  0  0  0  0  0  0  0  0
   -5.6940   -0.7950   -2.0140 C   0  0  0  0  0  0  0  0  0  0  0  0
   -5.0220    1.5830   -2.2360 C   0  0  0  0  0  0  0  0  0  0  0  0
   -6.3140    2.3490   -2.5100 C   0  0  0  0  0  0  0  0  0  0  0  0
   -6.0340    3.4410   -3.3230 O   0  0  0  0  0  0  0  0  0  0  0  0
   -2.6690   -0.7660    0.5350 S   0  0  0  0  0  0  0  0  0  0  0  0
   -0.8700   -0.9380    0.5750 C   0  0  0  0  0  0  0  0  0  0  0  0
    0.0280   -1.1670   -0.3870 N   0  0  0  0  0  0  0  0  0  0  0  0
    6.8590   -0.3190    0.4170 C   0  0  0  0  0  0  0  0  0  0  0  0
    7.6650   -1.4130   -0.1570 C   0  0  0  0  0  0  0  0  0  0  0  0
    7.3540   -1.5740   -1.4750 O   0  0  0  0  0  0  0  0  0  0  0  0
    6.0190   -1.1400   -1.6130 C   0  0  0  0  0  0  0  0  0  0  0  0
  1  2  1  0
  2  3  1  0
  4  3  1  6
  4  5  1  0
  4 35  1  0
  4 38  1  0
  5  6  1  0
  6  7  1  0
  7  8  1  1
  7  9  1  0
  9 10  1  0
 10 11  2  0
 10 34  1  0
 11 12  1  0
 12 13  1  0
 12 14  2  0
 14 15  1  0
 14 33  1  0
 15 16  2  0
 16 17  1  0
 16 32  1  0
 17 18  2  0
 17 19  1  0
 19 20  1  0
 19 24  1  0
 20 21  1  0
 21 22  1  1
 21 23  1  0
 23 24  1  0
 24 25  1  6
 25 26  2  0
 25 27  1  0
 27 28  1  0
 27 29  1  0
 29 30  1  0
 30 31  1  0
 32 33  1  0
 33 34  2  0
 35 36  1  0
 36 37  1  0
 37 38  1  0
M  END
