
     RDKit          3D

 45 49  0  0  0  0  0  0  0  0999 V2000
   -3.8280   -2.1370    1.5530 C   0  0  0  0  0  0  0  0  0  0  0  0
   -3.5760   -2.1970    0.0900 C   0  0  2  0  0  0  0  0  0  0  0  0
   -4.8040   -1.9440   -0.7450 C   0  0  0  0  0  0  0  0  0  0  0  0
   -2.9860   -3.8880   -0.4050 S   0  0  0  0  0  0  0  0  0  0  0  0
   -1.5280   -3.2400   -1.3480 C   0  0  0  0  0  0  0  0  0  0  0  0
   -1.2130   -2.1650   -0.3800 N   0  0  0  0  0  0  0  0  0  0  0  0
   -0.0190   -2.0710    0.3300 C   0  0  0  0  0  0  0  0  0  0  0  0
    0.1180   -1.0520    1.1180 O   0  0  0  0  0  0  0  0  0  0  0  0
    1.1510   -2.9590    0.3300 C   0  0  1  0  0  0  0  0  0  0  0  0
    0.8020   -4.2050   -0.1720 O   0  0  0  0  0  0  0  0  0  0  0  0
    2.2250   -2.4450   -0.6270 C   0  0  2  0  0  0  0  0  0  0  0  0
    3.3000   -3.4980   -0.7490 C   0  0  0  0  0  0  0  0  0  0  0  0
    4.3870   -3.0880   -1.6650 C   0  0  0  0  0  0  0  0  0  0  0  0
    5.4930   -2.4000   -1.2230 C   0  0  0  0  0  0  0  0  0  0  0  0
    6.5220   -2.0150   -2.0720 C   0  0  0  0  0  0  0  0  0  0  0  0
    6.4390   -2.3290   -3.4220 C   0  0  0  0  0  0  0  0  0  0  0  0
    5.3520   -3.0130   -3.9060 C   0  0  0  0  0  0  0  0  0  0  0  0
    4.3380   -3.3870   -3.0300 C   0  0  0  0  0  0  0  0  0  0  0  0
    2.7340   -1.1460   -0.2620 N   0  0  0  0  0  0  0  0  0  0  0  0
    2.5030    0.0080   -1.0700 C   0  0  0  0  0  0  0  0  0  0  0  0
    1.8320   -0.0920   -2.1290 O   0  0  0  0  0  0  0  0  0  0  0  0
    3.0320    1.3560   -0.7110 C   0  0  0  0  0  0  0  0  0  0  0  0
    3.7990    1.2880    0.4730 O   0  0  0  0  0  0  0  0  0  0  0  0
    4.4340    2.3690    1.0610 C   0  0  0  0  0  0  0  0  0  0  0  0
    5.7460    2.6870    0.6980 C   0  0  0  0  0  0  0  0  0  0  0  0
    6.5540    1.7130   -0.4880 Cl  0  0  0  0  0  0  0  0  0  0  0  0
    6.3790    3.7620    1.2800 C   0  0  0  0  0  0  0  0  0  0  0  0
    5.6880    4.5070    2.2190 C   0  0  0  0  0  0  0  0  0  0  0  0
    4.3930    4.2140    2.5930 C   0  0  0  0  0  0  0  0  0  0  0  0
    3.7690    3.1210    1.9930 C   0  0  0  0  0  0  0  0  0  0  0  0
    2.1140    2.7760    2.4900 Cl  0  0  0  0  0  0  0  0  0  0  0  0
   -2.4290   -1.3730   -0.4050 C   0  0  2  0  0  0  0  0  0  0  0  0
   -2.3410   -0.0050    0.0420 C   0  0  0  0  0  0  0  0  0  0  0  0
   -1.2740    0.6940    0.1210 O   0  0  0  0  0  0  0  0  0  0  0  0
   -3.5230    0.6950    0.4490 N   0  0  0  0  0  0  0  0  0  0  0  0
   -3.4570    2.0790    0.9040 C   0  0  1  0  0  0  0  0  0  0  0  0
   -4.3190    2.8820    0.0010 C   0  0  0  0  0  0  0  0  0  0  0  0
   -4.1100    3.5760   -1.1580 C   0  0  0  0  0  0  0  0  0  0  0  0
   -5.1270    4.2660   -1.8100 C   0  0  0  0  0  0  0  0  0  0  0  0
   -6.3930    4.2630   -1.2910 C   0  0  0  0  0  0  0  0  0  0  0  0
   -6.6020    3.5620   -0.1220 C   0  0  0  0  0  0  0  0  0  0  0  0
   -5.6140    2.8740    0.5400 C   0  0  0  0  0  0  0  0  0  0  0  0
   -5.6280    2.0720    1.7930 C   0  0  0  0  0  0  0  0  0  0  0  0
   -4.1710    2.2440    2.2310 C   0  0  1  0  0  0  0  0  0  0  0  0
   -3.7840    1.2950    3.1550 O   0  0  0  0  0  0  0  0  0  0  0  0
  2  1  1  1
  2  3  1  0
  2  4  1  0
  2 32  1  0
  4  5  1  0
  5  6  1  0
  6  7  1  0
  6 32  1  0
  7  8  2  0
  7  9  1  0
  9 10  1  6
  9 11  1  0
 11 12  1  1
 11 19  1  0
 12 13  1  0
 13 14  2  0
 13 18  1  0
 14 15  1  0
 15 16  2  0
 16 17  1  0
 17 18  2  0
 19 20  1  0
 20 21  2  0
 20 22  1  0
 22 23  1  0
 23 24  1  0
 24 25  2  0
 24 30  1  0
 25 26  1  0
 25 27  1  0
 27 28  2  0
 28 29  1  0
 29 30  2  0
 30 31  1  0
 32 33  1  1
 33 34  2  0
 33 35  1  0
 36 35  1  6
 36 37  1  0
 36 44  1  0
 37 38  2  0
 37 42  1  0
 38 39  1  0
 39 40  2  0
 40 41  1  0
 41 42  2  0
 42 43  1  0
 43 44  1  0
 44 45  1  1
M  END
