
     RDKit          3D

 21 24  0  0  0  0  0  0  0  0999 V2000
   -0.4050   -3.0020   -1.1320 O   0  0  0  0  0  0  0  0  0  0  0  0
   -1.0950   -2.0540   -0.8070 C   0  0  0  0  0  0  0  0  0  0  0  0
   -2.2840   -2.4560   -0.0580 C   0  0  0  0  0  0  0  0  0  0  0  0
   -2.1780   -2.4320    1.4430 C   0  0  0  0  0  0  0  0  0  0  0  0
   -2.4030   -1.1330    2.1080 C   0  0  0  0  0  0  0  0  0  0  0  0
   -1.3090   -0.1200    2.0720 C   0  0  0  0  0  0  0  0  0  0  0  0
   -1.0160    0.4380    0.6740 C   0  0  1  0  0  0  0  0  0  0  0  0
   -1.1830    1.9280    0.5860 C   0  0  0  0  0  0  0  0  0  0  0  0
   -1.4010    2.3640   -0.7980 C   0  0  0  0  0  0  0  0  0  0  0  0
   -1.6780    1.4500   -1.8820 C   0  0  0  0  0  0  0  0  0  0  0  0
   -1.6010    0.0070   -1.8740 C   0  0  0  0  0  0  0  0  0  0  0  0
   -0.4560   -0.7590   -1.3110 C   0  0  1  0  0  0  0  0  0  0  0  0
    0.1110   -0.1770    0.0020 C   0  0  2  0  0  0  0  0  0  0  0  0
    0.5270   -1.2520    0.7990 O   0  0  0  0  0  0  0  0  0  0  0  0
    1.3950    0.5530   -0.2350 C   0  0  1  0  0  0  0  0  0  0  0  0
    1.9810    1.1090    1.0020 C   0  0  0  0  0  0  0  0  0  0  0  0
    3.2410    0.4270    1.3900 C   0  0  0  0  0  0  0  0  0  0  0  0
    3.4750   -0.6260    0.3660 C   0  0  0  0  0  0  0  0  0  0  0  0
    2.5110   -0.4080   -0.7260 C   0  0  2  0  0  0  0  0  0  0  0  0
    3.0390    0.6690   -1.6610 C   0  0  0  0  0  0  0  0  0  0  0  0
    1.6350    1.2450   -1.5260 C   0  0  0  0  0  0  0  0  0  0  0  0
  1  2  2  0
  2  3  1  0
  2 12  1  0
  3  4  1  0
  4  5  1  0
  5  6  1  0
  7  6  1  1
  7  8  1  0
  7 13  1  0
  8  9  1  0
  9 10  1  0
 10 11  1  0
 12 11  1  1
 12 13  1  0
 13 14  1  1
 13 15  1  0
 15 16  1  1
 15 19  1  0
 15 21  1  0
 16 17  1  0
 17 18  1  0
 19 18  1  1
 19 20  1  0
 20 21  1  0
M  END
