
     RDKit          3D

 21 24  0  0  0  0  0  0  0  0999 V2000
   -4.7330    0.2270   -0.7700 C   0  0  0  0  0  0  0  0  0  0  0  0
   -3.4200    0.5640   -0.0530 C   0  0  1  0  0  0  0  0  0  0  0  0
   -3.3830    2.0540    0.1440 C   0  0  0  0  0  0  0  0  0  0  0  0
   -3.3800   -0.2000    1.2370 C   0  0  0  0  0  0  0  0  0  0  0  0
   -2.0570   -0.0460    1.8720 C   0  0  0  0  0  0  0  0  0  0  0  0
   -1.0220    0.3440    1.1150 O   0  0  0  0  0  0  0  0  0  0  0  0
   -0.9700    0.0580   -0.1940 C   0  0  1  0  0  0  0  0  0  0  0  0
   -0.1920    1.2200   -0.8580 C   0  0  0  0  0  0  0  0  0  0  0  0
    1.2660    0.7860   -0.8610 C   0  0  1  0  0  0  0  0  0  0  0  0
    1.9560    1.6820    0.1470 C   0  0  0  0  0  0  0  0  0  0  0  0
    3.2210    1.1070    0.6870 C   0  0  2  0  0  0  0  0  0  0  0  0
    4.3510    1.3500   -0.2900 C   0  0  0  0  0  0  0  0  0  0  0  0
    5.5550    0.8230    0.1840 O   0  0  0  0  0  0  0  0  0  0  0  0
    3.1260   -0.3120    1.1300 C   0  0  0  0  0  0  0  0  0  0  0  0
    1.6820   -0.8190    1.0170 C   0  0  0  0  0  0  0  0  0  0  0  0
    1.2730   -0.5910   -0.3960 C   0  0  2  0  0  0  0  0  0  0  0  0
    1.9170   -1.6410   -1.2420 C   0  0  0  0  0  0  0  0  0  0  0  0
    1.1650   -2.8920   -0.7520 C   0  0  0  0  0  0  0  0  0  0  0  0
   -0.1520   -2.3680   -0.1480 C   0  0  0  0  0  0  0  0  0  0  0  0
   -0.1710   -1.0320   -0.6750 C   0  0  1  0  0  0  0  0  0  0  0  0
   -2.3100    0.0540   -0.9080 C   0  0  0  0  0  0  0  0  0  0  0  0
  2  1  1  6
  2  3  1  0
  2  4  1  0
  2 21  1  0
  4  5  1  0
  5  6  1  0
  6  7  1  0
  7  8  1  6
  7 20  1  0
  7 21  1  0
  9  8  1  1
  9 10  1  0
  9 16  1  0
 10 11  1  0
 11 12  1  6
 11 14  1  0
 12 13  1  0
 14 15  1  0
 16 15  1  1
 16 17  1  0
 16 20  1  0
 17 18  1  0
 18 19  1  0
 20 19  1  1
M  END
