
     RDKit          3D

 21 24  0  0  0  0  0  0  0  0999 V2000
   -2.3380    1.8360    2.4000 C   0  0  0  0  0  0  0  0  0  0  0  0
   -1.1900    2.3480    1.5750 C   0  0  0  0  0  0  0  0  0  0  0  0
   -1.0810    1.7920    0.2110 C   0  0  1  0  0  0  0  0  0  0  0  0
    0.1350    2.4970   -0.4260 C   0  0  0  0  0  0  0  0  0  0  0  0
    1.2930    2.2580    0.4540 C   0  0  0  0  0  0  0  0  0  0  0  0
    1.4420    0.9150    0.9970 C   0  0  2  0  0  0  0  0  0  0  0  0
    2.4190    0.0910    0.1860 C   0  0  1  0  0  0  0  0  0  0  0  0
    3.5950   -0.2740    0.8160 O   0  0  0  0  0  0  0  0  0  0  0  0
    4.0170   -1.4560    0.1620 C   0  0  0  0  0  0  0  0  0  0  0  0
    3.2630   -2.5700    0.8520 C   0  0  0  0  0  0  0  0  0  0  0  0
    1.8380   -2.1930    1.0360 C   0  0  0  0  0  0  0  0  0  0  0  0
    1.3900   -1.0150    0.1890 C   0  0  1  0  0  0  0  0  0  0  0  0
    0.3980   -0.1120    0.8260 C   0  0  1  0  0  0  0  0  0  0  0  0
    0.0200   -0.6250    2.0710 O   0  0  0  0  0  0  0  0  0  0  0  0
   -0.8210    0.3150    0.0600 C   0  0  1  0  0  0  0  0  0  0  0  0
   -1.9920   -0.5500    0.3960 C   0  0  0  0  0  0  0  0  0  0  0  0
   -3.0920   -0.4890   -0.6400 C   0  0  0  0  0  0  0  0  0  0  0  0
   -2.6880   -1.0530   -1.9570 C   0  0  0  0  0  0  0  0  0  0  0  0
   -1.1680   -1.1680   -1.9680 C   0  0  1  0  0  0  0  0  0  0  0  0
   -0.7270   -1.3060   -3.4210 C   0  0  0  0  0  0  0  0  0  0  0  0
   -0.6030    0.1040   -1.4430 C   0  0  0  0  0  0  0  0  0  0  0  0
  1  2  1  0
  3  2  1  1
  3  4  1  0
  3 15  1  0
  4  5  1  0
  6  5  1  6
  6  7  1  0
  6 13  1  0
  7  8  1  1
  7 12  1  0
  8  9  1  0
  9 10  1  0
 10 11  1  0
 12 11  1  1
 12 13  1  0
 13 14  1  1
 13 15  1  0
 15 16  1  1
 15 21  1  0
 16 17  1  0
 17 18  1  0
 18 19  1  0
 19 20  1  6
 19 21  1  0
M  END
