
     RDKit          3D

 32 35  0  0  0  0  0  0  0  0999 V2000
    8.8550   -2.2110   -0.0270 C   0  0  0  0  0  0  0  0  0  0  0  0
    9.0080   -0.8870    0.7030 C   0  0  1  0  0  0  0  0  0  0  0  0
   10.0060    0.2460   -0.3130 S   0  0  0  0  0  0  0  0  0  0  0  0
    7.6590   -0.2820    0.8760 C   0  0  0  0  0  0  0  0  0  0  0  0
    6.5080   -0.8320    0.3680 C   0  0  0  0  0  0  0  0  0  0  0  0
    5.2690   -0.2150    0.5620 C   0  0  0  0  0  0  0  0  0  0  0  0
    4.0480   -0.5300    0.1870 O   0  0  0  0  0  0  0  0  0  0  0  0
    3.1720    0.3540    0.5990 C   0  0  0  0  0  0  0  0  0  0  0  0
    1.7150    0.3170    0.3600 C   0  0  0  0  0  0  0  0  0  0  0  0
    1.0410    1.2460    0.8530 O   0  0  0  0  0  0  0  0  0  0  0  0
    1.1640   -0.7320   -0.3910 N   0  0  0  0  0  0  0  0  0  0  0  0
   -0.2110   -0.8590   -0.6710 C   0  0  0  0  0  0  0  0  0  0  0  0
   -0.5980   -1.8470   -1.5900 C   0  0  0  0  0  0  0  0  0  0  0  0
   -1.9070   -2.0700   -1.9330 C   0  0  0  0  0  0  0  0  0  0  0  0
   -2.9060   -1.2790   -1.3410 C   0  0  0  0  0  0  0  0  0  0  0  0
   -2.5810   -0.3020   -0.4380 C   0  0  0  0  0  0  0  0  0  0  0  0
   -3.5360    0.5420    0.1820 N   0  0  0  0  0  0  0  0  0  0  0  0
   -4.8720    0.6880   -0.2380 C   0  0  0  0  0  0  0  0  0  0  0  0
   -5.3220    0.0670   -1.2240 O   0  0  0  0  0  0  0  0  0  0  0  0
   -5.8230    1.5940    0.4740 C   0  0  2  0  0  0  0  0  0  0  0  0
   -5.8320    1.1880    1.7980 O   0  0  0  0  0  0  0  0  0  0  0  0
   -6.2650   -0.0480    1.9830 N   0  0  0  0  0  0  0  0  0  0  0  0
   -7.3150   -0.5110    1.1480 C   0  0  0  0  0  0  0  0  0  0  0  0
   -7.9970    0.6030    0.4270 C   0  0  0  0  0  0  0  0  0  0  0  0
   -7.1360    1.6130   -0.1080 N   0  0  2  0  0  0  0  0  0  0  0  0
   -7.1790    1.6010   -1.5350 C   0  0  0  0  0  0  0  0  0  0  0  0
   -1.2280   -0.1290   -0.1350 C   0  0  0  0  0  0  0  0  0  0  0  0
    3.8340    1.3350    1.2980 C   0  0  0  0  0  0  0  0  0  0  0  0
    5.1600    0.9640    1.2680 C   0  0  0  0  0  0  0  0  0  0  0  0
    6.3110    1.5200    1.7790 C   0  0  0  0  0  0  0  0  0  0  0  0
    7.5300    0.9110    1.5880 C   0  0  0  0  0  0  0  0  0  0  0  0
    8.9740    1.6430    2.2500 Cl  0  0  0  0  0  0  0  0  0  0  0  0
  2  1  1  6
  2  3  1  0
  2  4  1  0
  4  5  2  0
  4 31  1  0
  5  6  1  0
  6  7  1  0
  6 29  2  0
  7  8  1  0
  8  9  1  0
  8 28  2  0
  9 10  2  0
  9 11  1  0
 11 12  1  0
 12 13  2  0
 12 27  1  0
 13 14  1  0
 14 15  2  0
 15 16  1  0
 16 17  1  0
 16 27  2  0
 17 18  1  0
 18 19  2  0
 20 18  1  6
 20 21  1  0
 20 25  1  0
 21 22  1  0
 22 23  1  0
 23 24  1  0
 24 25  1  0
 25 26  1  6
 28 29  1  0
 29 30  1  0
 30 31  2  0
 31 32  1  0
M  CHG  1  25   1
M  END
