
     RDKit          3D

 32 35  0  0  0  0  0  0  0  0999 V2000
    9.1550    0.0350   -0.4050 N   0  0  0  0  0  0  0  0  0  0  0  0
    8.6020    0.2570    0.9290 C   0  0  0  0  0  0  0  0  0  0  0  0
    7.1370   -0.1360    0.8630 C   0  0  0  0  0  0  0  0  0  0  0  0
    6.4170    0.6880   -0.0750 N   0  0  0  0  0  0  0  0  0  0  0  0
    5.1660    0.1350   -0.4840 C   0  0  0  0  0  0  0  0  0  0  0  0
    4.0990    0.0330    0.5900 C   0  0  2  0  0  0  0  0  0  0  0  0
    3.0460   -0.8820    0.1320 C   0  0  0  0  0  0  0  0  0  0  0  0
    1.7650   -0.2370   -0.0810 N   0  0  0  0  0  0  0  0  0  0  0  0
    0.6910   -1.1050   -0.3690 C   0  0  0  0  0  0  0  0  0  0  0  0
    1.1180   -2.3550   -0.5550 O   0  0  0  0  0  0  0  0  0  0  0  0
   -0.7020   -0.9400   -0.5320 C   0  0  0  0  0  0  0  0  0  0  0  0
   -1.8940   -0.7900   -0.6690 N   0  0  0  0  0  0  0  0  0  0  0  0
   -3.0630   -0.4340   -0.4570 C   0  0  0  0  0  0  0  0  0  0  0  0
   -4.2720   -0.3880   -1.1720 C   0  0  0  0  0  0  0  0  0  0  0  0
   -5.4480   -0.5820   -1.4270 C   0  0  0  0  0  0  0  0  0  0  0  0
   -6.4980   -1.5580   -0.2840 S   0  0  0  0  0  0  0  0  0  0  0  0
   -7.8350   -0.3200    0.0320 C   0  0  0  0  0  0  0  0  0  0  0  0
   -8.5100   -0.3650    1.1940 C   0  0  0  0  0  0  0  0  0  0  0  0
   -9.7170    0.2530    1.2610 C   0  0  0  0  0  0  0  0  0  0  0  0
  -10.2630    0.9180    0.1460 C   0  0  0  0  0  0  0  0  0  0  0  0
   -9.5070    0.9270   -0.9920 C   0  0  0  0  0  0  0  0  0  0  0  0
   -8.2370    0.3010   -1.0970 C   0  0  0  0  0  0  0  0  0  0  0  0
   -7.5630    0.4720   -2.2860 O   0  0  0  0  0  0  0  0  0  0  0  0
   -6.2580    0.0560   -2.4860 C   0  0  0  0  0  0  0  0  0  0  0  0
   -5.6850    0.1980   -3.6140 O   0  0  0  0  0  0  0  0  0  0  0  0
   -3.1500    0.3460    0.7950 C   0  0  0  0  0  0  0  0  0  0  0  0
   -1.9030    0.4540    1.3680 C   0  0  0  0  0  0  0  0  0  0  0  0
   -0.7820   -0.0340    0.9260 C   0  0  0  0  0  0  0  0  0  0  0  0
    0.3560   -0.0460    1.5410 F   0  0  0  0  0  0  0  0  0  0  0  0
    1.6910    1.1650   -0.2430 C   0  0  0  0  0  0  0  0  0  0  0  0
    2.7670    1.9320    0.4070 C   0  0  0  0  0  0  0  0  0  0  0  0
    3.6940    1.2210    1.1620 O   0  0  0  0  0  0  0  0  0  0  0  0
  1  2  1  0
  2  3  1  0
  3  4  1  0
  4  5  1  0
  6  5  1  6
  6  7  1  0
  6 32  1  0
  7  8  1  0
  8  9  1  0
  8 30  1  0
  9 10  2  0
  9 11  1  0
 11 12  2  0
 11 28  1  0
 12 13  1  0
 13 14  1  0
 13 26  2  0
 14 15  2  3
 15 16  1  0
 15 24  1  0
 16 17  1  0
 17 18  2  0
 17 22  1  0
 18 19  1  0
 19 20  2  0
 20 21  1  0
 21 22  2  0
 22 23  1  0
 23 24  1  0
 24 25  2  0
 26 27  1  0
 27 28  2  0
 28 29  1  0
 30 31  1  0
 31 32  1  0
M  CHG  1   1   1
M  END
