
     RDKit          3D

 33 35  0  0  0  0  0  0  0  0999 V2000
   -3.0870   -2.4620    1.4490 C   0  0  0  0  0  0  0  0  0  0  0  0
   -4.0290   -1.8140    0.5430 C   0  0  0  0  0  0  0  0  0  0  0  0
   -3.7330   -0.6800   -0.1590 C   0  0  0  0  0  0  0  0  0  0  0  0
   -4.7570   -0.1430   -1.0200 C   0  0  0  0  0  0  0  0  0  0  0  0
   -4.7630    0.8810   -1.8130 C   0  0  0  0  0  0  0  0  0  0  0  0
   -3.7040    1.7350   -2.0130 O   0  0  0  0  0  0  0  0  0  0  0  0
   -2.4170   -0.0920    0.1060 C   0  0  2  0  0  0  0  0  0  0  0  0
   -2.4140    0.9110    1.2140 C   0  0  0  0  0  0  0  0  0  0  0  0
   -1.4640    0.7380    2.1590 C   0  0  0  0  0  0  0  0  0  0  0  0
   -1.3020    1.8240    3.5480 S   0  0  0  0  0  0  0  0  0  0  0  0
   -2.5040    3.0720    3.3390 O   0  0  0  0  0  0  0  0  0  0  0  0
   -3.3370    2.9610    2.2430 C   0  0  0  0  0  0  0  0  0  0  0  0
   -3.3040    2.0290    1.3200 C   0  0  0  0  0  0  0  0  0  0  0  0
   -1.7350    0.4050   -1.0880 N   0  0  0  0  0  0  0  0  0  0  0  0
   -0.5320    1.0400   -0.6950 C   0  0  0  0  0  0  0  0  0  0  0  0
    0.1450    1.7710   -1.8620 C   0  0  0  0  0  0  0  0  0  0  0  0
    0.8960    0.8530   -2.5700 O   0  0  0  0  0  0  0  0  0  0  0  0
    2.2390    0.5760   -2.5450 C   0  0  0  0  0  0  0  0  0  0  0  0
    2.8970    0.8420   -3.6340 O   0  0  0  0  0  0  0  0  0  0  0  0
    3.0180    0.0200   -1.4390 C   0  0  0  0  0  0  0  0  0  0  0  0
    3.8060    0.7890   -0.6930 N   0  0  0  0  0  0  0  0  0  0  0  0
    4.4680    0.0410    0.3250 C   0  0  1  0  0  0  0  0  0  0  0  0
    4.1960    0.5820    1.7140 C   0  0  1  0  0  0  0  0  0  0  0  0
    4.9650   -0.3130    2.6900 C   0  0  0  0  0  0  0  0  0  0  0  0
    4.7540    1.9820    1.8140 C   0  0  0  0  0  0  0  0  0  0  0  0
    4.0160   -1.3040    0.1610 N   0  0  0  0  0  0  0  0  0  0  0  0
    3.0940   -1.3300   -0.9660 C   0  0  0  0  0  0  0  0  0  0  0  0
    2.4650   -2.4070   -1.4710 C   0  0  0  0  0  0  0  0  0  0  0  0
    1.5640   -2.5020   -2.5920 C   0  0  0  0  0  0  0  0  0  0  0  0
    0.2760   -2.2150   -2.6400 C   0  0  0  0  0  0  0  0  0  0  0  0
   -0.3750   -2.3880   -3.8440 F   0  0  0  0  0  0  0  0  0  0  0  0
   -0.5900   -1.7300   -1.5500 C   0  0  0  0  0  0  0  0  0  0  0  0
   -1.5630   -0.6910   -2.0110 C   0  0  0  0  0  0  0  0  0  0  0  0
  1  2  1  0
  2  3  2  3
  3  4  1  0
  3  7  1  0
  4  5  2  3
  5  6  1  0
  7  8  1  0
  7 14  1  6
  8  9  2  0
  8 13  1  0
  9 10  1  0
 10 11  1  0
 11 12  1  0
 12 13  2  0
 14 15  1  0
 14 33  1  0
 15 16  1  0
 16 17  1  0
 17 18  1  0
 18 19  2  0
 18 20  1  0
 20 21  2  0
 20 27  1  0
 21 22  1  0
 22 23  1  0
 22 26  1  1
 23 24  1  1
 23 25  1  0
 26 27  1  0
 27 28  2  0
 28 29  1  0
 29 30  2  0
 30 31  1  0
 30 32  1  0
 32 33  1  0
M  END
