
     RDKit          3D

 33 36  0  0  0  0  0  0  0  0999 V2000
    1.8250    3.3270    2.9630 C   0  0  0  0  0  0  0  0  0  0  0  0
    1.8430    2.3030    1.8610 C   0  0  0  0  0  0  0  0  0  0  0  0
    0.7760    1.4350    1.7150 C   0  0  0  0  0  0  0  0  0  0  0  0
    0.7560    0.4830    0.7180 C   0  0  0  0  0  0  0  0  0  0  0  0
   -0.3660   -0.4240    0.5680 C   0  0  0  0  0  0  0  0  0  0  0  0
   -0.4510   -1.3780   -0.3670 N   0  0  0  0  0  0  0  0  0  0  0  0
   -1.6160   -2.0350   -0.2330 C   0  0  0  0  0  0  0  0  0  0  0  0
   -2.2500   -1.4650    0.8070 N   0  0  0  0  0  0  0  0  0  0  0  0
   -3.5540   -1.8960    1.2720 C   0  0  0  0  0  0  0  0  0  0  0  0
   -4.5990   -1.0810    0.4990 C   0  0  1  0  0  0  0  0  0  0  0  0
   -5.9970   -1.4310    0.8930 C   0  0  0  0  0  0  0  0  0  0  0  0
   -6.8380   -0.2230    1.2300 C   0  0  0  0  0  0  0  0  0  0  0  0
   -6.6600    0.9110    0.2450 C   0  0  2  0  0  0  0  0  0  0  0  0
   -7.1930    0.5800   -1.0870 C   0  0  0  0  0  0  0  0  0  0  0  0
   -8.0910    1.2610   -1.5930 O   0  0  0  0  0  0  0  0  0  0  0  0
   -6.7160   -0.5030   -1.8330 O   0  0  0  0  0  0  0  0  0  0  0  0
   -5.2250    1.3210    0.0920 C   0  0  0  0  0  0  0  0  0  0  0  0
   -4.2350    0.3600    0.6630 C   0  0  0  0  0  0  0  0  0  0  0  0
   -1.4870   -0.4840    1.2930 N   0  0  0  0  0  0  0  0  0  0  0  0
    1.8590    0.4440   -0.1260 C   0  0  0  0  0  0  0  0  0  0  0  0
    2.9190    1.2900    0.0010 C   0  0  0  0  0  0  0  0  0  0  0  0
    4.0800    1.2640   -0.8760 C   0  0  0  0  0  0  0  0  0  0  0  0
    5.0510    2.0550   -0.7260 O   0  0  0  0  0  0  0  0  0  0  0  0
    4.1840    0.3440   -1.9530 N   0  0  0  0  0  0  0  0  0  0  0  0
    5.3680    0.3410   -2.8200 C   0  0  0  0  0  0  0  0  0  0  0  0
    6.4510   -0.3190   -2.0700 C   0  0  0  0  0  0  0  0  0  0  0  0
    6.2910   -0.8690   -0.8100 C   0  0  0  0  0  0  0  0  0  0  0  0
    7.2880   -1.4800   -0.1060 C   0  0  0  0  0  0  0  0  0  0  0  0
    8.5520   -1.5650   -0.6790 C   0  0  0  0  0  0  0  0  0  0  0  0
    9.5820   -2.1640   -0.0220 F   0  0  0  0  0  0  0  0  0  0  0  0
    8.7560   -1.0350   -1.9250 C   0  0  0  0  0  0  0  0  0  0  0  0
    7.7250   -0.4190   -2.6170 C   0  0  0  0  0  0  0  0  0  0  0  0
    2.8560    2.1960    1.0100 N   0  0  0  0  0  0  0  0  0  0  0  0
  1  2  1  0
  2  3  2  0
  2 33  1  0
  3  4  1  0
  4  5  1  0
  4 20  2  0
  5  6  1  0
  5 19  2  0
  6  7  2  0
  7  8  1  0
  8  9  1  0
  8 19  1  0
 10  9  1  1
 10 11  1  0
 10 18  1  0
 11 12  1  0
 12 13  1  0
 13 14  1  6
 13 17  1  0
 14 15  2  0
 14 16  1  0
 17 18  1  0
 20 21  1  0
 21 22  1  0
 21 33  2  0
 22 23  2  0
 22 24  1  0
 24 25  1  0
 25 26  1  0
 26 27  2  0
 26 32  1  0
 27 28  1  0
 28 29  2  0
 29 30  1  0
 29 31  1  0
 31 32  2  0
M  END
