
     RDKit          3D

 33 36  0  0  0  0  0  0  0  0999 V2000
    9.0160    2.9970    2.9800 C   0  0  0  0  0  0  0  0  0  0  0  0
    7.7380    2.8230    2.3880 O   0  0  0  0  0  0  0  0  0  0  0  0
    7.4830    1.7520    1.5710 C   0  0  0  0  0  0  0  0  0  0  0  0
    8.3890    0.9200    1.3460 O   0  0  0  0  0  0  0  0  0  0  0  0
    6.1250    1.6260    0.9810 C   0  0  0  0  0  0  0  0  0  0  0  0
    5.1470    2.5660    1.2520 C   0  0  0  0  0  0  0  0  0  0  0  0
    3.7850    1.9090    0.3030 S   0  0  0  0  0  0  0  0  0  0  0  0
    4.6250    0.5050   -0.3320 C   0  0  0  0  0  0  0  0  0  0  0  0
    4.0540   -0.5370   -1.2470 C   0  0  1  0  0  0  0  0  0  0  0  0
    4.9930   -1.7220   -1.1620 C   0  0  0  0  0  0  0  0  0  0  0  0
    4.3450   -3.0050   -1.5620 C   0  0  0  0  0  0  0  0  0  0  0  0
    3.0120   -3.2790   -0.9500 C   0  0  0  0  0  0  0  0  0  0  0  0
    2.6520   -2.1320    0.0080 C   0  0  0  0  0  0  0  0  0  0  0  0
    2.7240   -0.9360   -0.7820 N   0  0  0  0  0  0  0  0  0  0  0  0
    1.6240   -0.1700   -1.1180 C   0  0  0  0  0  0  0  0  0  0  0  0
    1.7840    0.8850   -1.8180 O   0  0  0  0  0  0  0  0  0  0  0  0
    0.2710   -0.5160   -0.7050 C   0  0  0  0  0  0  0  0  0  0  0  0
   -0.7570    0.2280   -1.0340 C   0  0  0  0  0  0  0  0  0  0  0  0
   -2.1120   -0.1250   -0.6180 C   0  0  0  0  0  0  0  0  0  0  0  0
   -3.0810    0.6680   -0.9820 C   0  0  0  0  0  0  0  0  0  0  0  0
   -4.4960    0.5220   -0.6880 C   0  0  0  0  0  0  0  0  0  0  0  0
   -5.3520    1.4580   -1.1580 C   0  0  0  0  0  0  0  0  0  0  0  0
   -6.7630    1.2910   -0.8520 C   0  0  0  0  0  0  0  0  0  0  0  0
   -7.7880    2.0620   -0.6350 C   0  0  0  0  0  0  0  0  0  0  0  0
   -8.9400    1.2740   -0.3790 N   0  0  0  0  0  0  0  0  0  0  0  0
   -8.6550    0.0210   -0.4320 C   0  0  0  0  0  0  0  0  0  0  0  0
   -7.2390   -0.1200   -0.7430 C   0  0  2  0  0  0  0  0  0  0  0  0
   -6.3930   -0.7180    0.3710 C   0  0  2  0  0  0  0  0  0  0  0  0
   -6.7630    0.0280    1.6440 C   0  0  0  0  0  0  0  0  0  0  0  0
   -5.0500   -0.5030    0.0410 O   0  0  0  0  0  0  0  0  0  0  0  0
   -2.2670   -1.3400    0.1790 C   0  0  0  0  0  0  0  0  0  0  0  0
   -1.8130   -2.4420   -0.5710 F   0  0  0  0  0  0  0  0  0  0  0  0
    5.8230    0.6390    0.2030 N   0  0  0  0  0  0  0  0  0  0  0  0
  1  2  1  0
  2  3  1  0
  3  4  2  0
  3  5  1  0
  5  6  2  0
  5 33  1  0
  6  7  1  0
  7  8  1  0
  9  8  1  1
  8 33  2  0
  9 10  1  0
  9 14  1  0
 10 11  1  0
 11 12  1  0
 12 13  1  0
 13 14  1  0
 14 15  1  0
 15 16  2  0
 15 17  1  0
 17 18  2  3
 18 19  1  0
 19 20  2  3
 19 31  1  0
 20 21  1  0
 21 22  2  0
 21 30  1  0
 22 23  1  0
 23 24  2  0
 23 27  1  0
 24 25  1  0
 25 26  2  0
 27 26  1  1
 27 28  1  0
 28 29  1  1
 28 30  1  0
 31 32  1  0
M  CHG  1  25   1
M  END
