
     RDKit          3D

 30 31  0  0  0  0  0  0  0  0999 V2000
   -6.4260   -0.8230   -1.7270 C   0  0  0  0  0  0  0  0  0  0  0  0
   -5.1620   -0.7350   -1.1190 O   0  0  0  0  0  0  0  0  0  0  0  0
   -5.0430   -0.3450    0.2060 C   0  0  0  0  0  0  0  0  0  0  0  0
   -6.1690   -0.0410    0.9340 C   0  0  0  0  0  0  0  0  0  0  0  0
   -5.9960    0.3370    2.2340 C   0  0  0  0  0  0  0  0  0  0  0  0
   -4.7590    0.4140    2.7970 C   0  0  0  0  0  0  0  0  0  0  0  0
   -4.6320    0.8010    4.1140 O   0  0  0  0  0  0  0  0  0  0  0  0
   -3.6160    0.1020    2.0440 C   0  0  0  0  0  0  0  0  0  0  0  0
   -3.7500   -0.2760    0.7570 C   0  0  0  0  0  0  0  0  0  0  0  0
   -2.6470   -0.6130   -0.0880 N   0  0  0  0  0  0  0  0  0  0  0  0
   -1.3320   -0.6030    0.2840 C   0  0  0  0  0  0  0  0  0  0  0  0
   -1.0240   -0.3210    1.5080 O   0  0  0  0  0  0  0  0  0  0  0  0
   -0.1520   -0.8670   -0.5630 C   0  0  0  0  0  0  0  0  0  0  0  0
    0.9800   -0.9680    0.2200 C   0  0  0  0  0  0  0  0  0  0  0  0
    2.6200   -1.2570   -0.1990 S   0  0  0  0  0  0  0  0  0  0  0  0
    3.7550    0.0040    0.3930 C   0  0  0  0  0  0  0  0  0  0  0  0
    3.2540    1.0740    1.1100 C   0  0  0  0  0  0  0  0  0  0  0  0
    4.0950    2.0620    1.5810 C   0  0  0  0  0  0  0  0  0  0  0  0
    5.4380    1.9380    1.3090 C   0  0  0  0  0  0  0  0  0  0  0  0
    5.9380    0.8700    0.5930 C   0  0  0  0  0  0  0  0  0  0  0  0
    7.3750    0.7400    0.3040 C   0  0  0  0  0  0  0  0  0  0  0  0
    7.7870   -0.2470   -0.3500 O   0  0  0  0  0  0  0  0  0  0  0  0
    8.2630    1.6810    0.7400 O   0  0  0  0  0  0  0  0  0  0  0  0
    9.6180    1.6360    0.5150 N   0  0  0  0  0  0  0  0  0  0  0  0
    5.0660   -0.0530    0.1660 N   0  0  0  0  0  0  0  0  0  0  0  0
    0.0040   -1.0640   -1.9510 C   0  0  0  0  0  0  0  0  0  0  0  0
    1.4240   -1.6360   -2.3560 C   0  0  0  0  0  0  0  0  0  0  0  0
   -0.7320   -0.9540   -2.9900 C   0  0  0  0  0  0  0  0  0  0  0  0
   -2.0320   -0.5980   -3.4390 C   0  0  0  0  0  0  0  0  0  0  0  0
   -2.2940   -0.7070   -4.7210 O   0  0  0  0  0  0  0  0  0  0  0  0
  1  2  1  0
  2  3  1  0
  3  4  2  0
  3  9  1  0
  4  5  1  0
  5  6  2  0
  6  7  1  0
  6  8  1  0
  8  9  2  0
  9 10  1  0
 10 11  1  0
 11 12  2  0
 11 13  1  0
 13 14  2  3
 13 26  1  0
 14 15  1  0
 15 16  1  0
 16 17  2  0
 16 25  1  0
 17 18  1  0
 18 19  2  0
 19 20  1  0
 20 21  1  0
 20 25  2  0
 21 22  2  0
 21 23  1  0
 23 24  1  0
 26 27  1  0
 26 28  2  3
 28 29  1  0
 29 30  2  0
M  END
