
     RDKit          3D

 30 30  0  0  0  0  0  0  0  0999 V2000
    4.4440   -5.7080   -0.5510 C   0  0  0  0  0  0  0  0  0  0  0  0
    4.1380   -4.3420   -0.4170 O   0  0  0  0  0  0  0  0  0  0  0  0
    2.9030   -3.8180   -0.1140 C   0  0  0  0  0  0  0  0  0  0  0  0
    1.9570   -4.6400    0.0590 O   0  0  0  0  0  0  0  0  0  0  0  0
    2.7340   -2.3980   -0.0080 C   0  0  0  0  0  0  0  0  0  0  0  0
    1.5160   -1.8810    0.2940 C   0  0  0  0  0  0  0  0  0  0  0  0
    1.3610   -0.4800    0.3970 C   0  0  0  0  0  0  0  0  0  0  0  0
    0.3220    0.2890    0.6730 C   0  0  0  0  0  0  0  0  0  0  0  0
   -0.9210   -0.3770    0.9390 C   0  0  0  0  0  0  0  0  0  0  0  0
   -0.9280   -1.6640    0.9000 O   0  0  0  0  0  0  0  0  0  0  0  0
   -2.1990    0.1470    1.2510 N   0  0  0  0  0  0  0  0  0  0  0  0
   -3.3880   -0.6680    1.4840 C   0  0  0  0  0  0  0  0  0  0  0  0
   -3.8710   -1.4490    0.3630 C   0  0  0  0  0  0  0  0  0  0  0  0
   -2.9790   -2.7390   -0.4790 S   0  0  0  0  0  0  0  0  0  0  0  0
   -5.1210   -1.2030   -0.1000 C   0  0  0  0  0  0  0  0  0  0  0  0
   -5.9320   -0.1600    0.5500 C   0  0  0  0  0  0  0  0  0  0  0  0
   -5.7010   -1.9510   -1.2470 C   0  0  0  0  0  0  0  0  0  0  0  0
    0.5940    1.7140    0.5580 C   0  0  0  0  0  0  0  0  0  0  0  0
   -0.1020    2.7600    0.8100 C   0  0  0  0  0  0  0  0  0  0  0  0
    0.3080    4.1610    0.6480 C   0  0  0  0  0  0  0  0  0  0  0  0
    0.1160    5.0810    1.7100 C   0  0  0  0  0  0  0  0  0  0  0  0
    0.5510    6.3160    1.3230 C   0  0  0  0  0  0  0  0  0  0  0  0
    1.0030    6.1600    0.0440 C   0  0  0  0  0  0  0  0  0  0  0  0
    0.8370    4.8470   -0.3200 N   0  0  0  0  0  0  0  0  0  0  0  0
    1.9100    2.0020    0.0400 O   0  0  0  0  0  0  0  0  0  0  0  0
    2.1060    1.8140   -1.3560 C   0  0  0  0  0  0  0  0  0  0  0  0
    3.8040   -1.5560   -0.2100 O   0  0  0  0  0  0  0  0  0  0  0  0
    4.2050   -1.0170   -1.4030 C   0  0  0  0  0  0  0  0  0  0  0  0
    5.3260   -0.1390   -1.5440 N   0  0  0  0  0  0  0  0  0  0  0  0
    3.5490   -1.3110   -2.4350 O   0  0  0  0  0  0  0  0  0  0  0  0
  1  2  1  0
  2  3  1  0
  3  4  2  0
  3  5  1  0
  5  6  2  3
  5 27  1  0
  6  7  1  0
  7  8  2  3
  8  9  1  0
  8 18  1  0
  9 10  2  0
  9 11  1  0
 11 12  1  0
 12 13  1  0
 13 14  1  0
 13 15  2  3
 15 16  1  0
 15 17  1  0
 18 19  2  3
 18 25  1  0
 19 20  1  0
 20 21  2  0
 20 24  1  0
 21 22  1  0
 22 23  2  0
 23 24  1  0
 25 26  1  0
 27 28  1  0
 28 29  1  0
 28 30  2  0
M  END
