
     RDKit          3D

 30 31  0  0  0  0  0  0  0  0999 V2000
   10.0180    0.6900   -0.4150 C   0  0  0  0  0  0  0  0  0  0  0  0
    8.9900    1.4840   -0.9970 O   0  0  0  0  0  0  0  0  0  0  0  0
    7.6700    1.0300   -0.8470 C   0  0  0  0  0  0  0  0  0  0  0  0
    7.3820   -0.1320   -0.1710 C   0  0  0  0  0  0  0  0  0  0  0  0
    6.0690   -0.5760   -0.0260 C   0  0  0  0  0  0  0  0  0  0  0  0
    4.9970    0.0990   -0.5370 C   0  0  0  0  0  0  0  0  0  0  0  0
    3.6400   -0.2870   -0.4540 N   0  0  0  0  0  0  0  0  0  0  0  0
    3.2390   -1.5890   -0.1290 C   0  0  0  0  0  0  0  0  0  0  0  0
    4.0630   -2.4980    0.1000 O   0  0  0  0  0  0  0  0  0  0  0  0
    1.7700   -1.9000   -0.0530 C   0  0  0  0  0  0  0  0  0  0  0  0
    1.0630   -0.7100   -0.3220 O   0  0  0  0  0  0  0  0  0  0  0  0
   -0.3330   -0.7580   -0.2850 C   0  0  0  0  0  0  0  0  0  0  0  0
   -0.9310   -1.8590   -0.0170 O   0  0  0  0  0  0  0  0  0  0  0  0
   -1.1620    0.3620   -0.5290 N   0  0  0  0  0  0  0  0  0  0  0  0
   -2.6190    0.2690   -0.4650 C   0  0  0  0  0  0  0  0  0  0  0  0
   -3.3330    0.4740   -1.5290 C   0  0  0  0  0  0  0  0  0  0  0  0
   -4.7600    0.4070   -1.6090 C   0  0  0  0  0  0  0  0  0  0  0  0
   -5.6890    1.2540   -2.0710 C   0  0  0  0  0  0  0  0  0  0  0  0
   -6.9870    0.9100   -2.0890 C   0  0  0  0  0  0  0  0  0  0  0  0
   -7.3020   -0.3590   -1.6050 C   0  0  0  0  0  0  0  0  0  0  0  0
   -8.6730   -0.9700   -1.5180 C   0  0  0  0  0  0  0  0  0  0  0  0
   -5.7900   -1.0410   -1.1390 S   0  0  0  0  0  0  0  0  0  0  0  0
   -3.2340    0.0100    0.8300 C   0  0  0  0  0  0  0  0  0  0  0  0
   -4.4620   -0.0740    0.9290 O   0  0  0  0  0  0  0  0  0  0  0  0
   -2.4710   -0.1550    2.0180 N   0  0  0  0  0  0  0  0  0  0  0  0
   -2.9700   -0.4060    3.3300 C   0  0  0  0  0  0  0  0  0  0  0  0
   -3.8380    0.6710    3.9190 C   0  0  0  0  0  0  0  0  0  0  0  0
   -4.9760    0.9330    3.1880 O   0  0  0  0  0  0  0  0  0  0  0  0
    5.3110    1.2830   -1.2250 C   0  0  0  0  0  0  0  0  0  0  0  0
    6.6060    1.7270   -1.3700 C   0  0  0  0  0  0  0  0  0  0  0  0
  1  2  1  0
  2  3  1  0
  3  4  2  0
  3 30  1  0
  4  5  1  0
  5  6  2  0
  6  7  1  0
  6 29  1  0
  7  8  1  0
  8  9  2  0
  8 10  1  0
 10 11  1  0
 11 12  1  0
 12 13  2  0
 12 14  1  0
 14 15  1  0
 15 16  2  3
 15 23  1  0
 16 17  1  0
 17 18  2  0
 17 22  1  0
 18 19  1  0
 19 20  2  0
 20 21  1  0
 20 22  1  0
 23 24  2  0
 23 25  1  0
 25 26  1  0
 26 27  1  0
 27 28  1  0
 29 30  2  0
M  END
