
     RDKit          3D

 31 34  0  0  0  0  0  0  0  0999 V2000
    5.9270   -1.7300    0.4960 C   0  0  0  0  0  0  0  0  0  0  0  0
    4.7250   -1.0140    1.6160 S   0  0  2  0  0  0  0  0  0  0  0  0
    5.3870   -0.9390    2.9760 O   0  0  0  0  0  0  0  0  0  0  0  0
    3.5700   -1.9590    1.7480 O   0  0  0  0  0  0  0  0  0  0  0  0
    4.2290    0.5700    1.0770 C   0  0  0  0  0  0  0  0  0  0  0  0
    4.8700    1.7320    1.4570 C   0  0  0  0  0  0  0  0  0  0  0  0
    4.4700    2.9770    1.0250 C   0  0  0  0  0  0  0  0  0  0  0  0
    3.3820    3.0530    0.1780 C   0  0  0  0  0  0  0  0  0  0  0  0
    2.7100    1.9250   -0.2300 C   0  0  0  0  0  0  0  0  0  0  0  0
    1.6320    2.0890   -1.0790 O   0  0  0  0  0  0  0  0  0  0  0  0
    0.8920    0.9860   -1.5420 C   0  0  0  0  0  0  0  0  0  0  0  0
    1.2770    0.3690   -2.7120 C   0  0  0  0  0  0  0  0  0  0  0  0
    0.5230   -0.7110   -3.1290 C   0  0  0  0  0  0  0  0  0  0  0  0
   -0.5660   -1.1650   -2.4240 C   0  0  0  0  0  0  0  0  0  0  0  0
   -0.9390   -0.5350   -1.2510 C   0  0  0  0  0  0  0  0  0  0  0  0
   -2.0740   -1.0780   -0.5410 C   0  0  0  0  0  0  0  0  0  0  0  0
   -2.0910   -2.4060   -0.1300 C   0  0  0  0  0  0  0  0  0  0  0  0
   -3.1670   -2.8920    0.5770 C   0  0  0  0  0  0  0  0  0  0  0  0
   -4.2210   -2.1290    0.8950 N   0  0  0  0  0  0  0  0  0  0  0  0
   -4.2340   -0.8320    0.5080 C   0  0  0  0  0  0  0  0  0  0  0  0
   -5.3090   -0.0150    0.8070 C   0  0  0  0  0  0  0  0  0  0  0  0
   -6.4300   -0.6390    1.5830 C   0  0  2  0  0  0  0  0  0  0  0  0
   -6.9720   -1.7060    0.8850 F   0  0  0  0  0  0  0  0  0  0  0  0
   -7.4450    0.3100    1.7140 F   0  0  0  0  0  0  0  0  0  0  0  0
   -5.9860   -1.0070    2.8340 F   0  0  0  0  0  0  0  0  0  0  0  0
   -5.3600    1.3080    0.4200 C   0  0  0  0  0  0  0  0  0  0  0  0
   -4.3080    1.8390   -0.2910 C   0  0  0  0  0  0  0  0  0  0  0  0
   -3.2210    1.0260   -0.5980 C   0  0  0  0  0  0  0  0  0  0  0  0
   -3.1570   -0.2980   -0.2150 C   0  0  0  0  0  0  0  0  0  0  0  0
   -0.1930    0.5450   -0.8230 C   0  0  0  0  0  0  0  0  0  0  0  0
    3.1440    0.6950    0.2260 C   0  0  0  0  0  0  0  0  0  0  0  0
  2  1  1  6
  2  3  2  0
  2  4  2  0
  2  5  1  0
  5  6  2  0
  5 31  1  0
  6  7  1  0
  7  8  2  0
  8  9  1  0
  9 10  1  0
  9 31  2  0
 10 11  1  0
 11 12  2  0
 11 30  1  0
 12 13  1  0
 13 14  2  0
 14 15  1  0
 15 16  1  0
 15 30  2  0
 16 17  2  0
 16 29  1  0
 17 18  1  0
 18 19  2  0
 19 20  1  0
 20 21  2  0
 20 29  1  0
 21 22  1  0
 21 26  1  0
 22 23  1  6
 22 24  1  0
 22 25  1  0
 26 27  2  0
 27 28  1  0
 28 29  2  0
M  END
