
     RDKit          3D

 30 31  0  0  0  0  0  0  0  0999 V2000
   -3.2920   -2.4470   -1.4830 C   0  0  0  0  0  0  0  0  0  0  0  0
   -2.5040   -1.6350   -0.4640 C   0  0  0  0  0  0  0  0  0  0  0  0
   -3.0960   -1.1940    0.6340 C   0  0  0  0  0  0  0  0  0  0  0  0
   -4.4950   -1.5670    0.7410 N   0  0  0  0  0  0  0  0  0  0  0  0
   -2.5190   -0.3740    1.6700 C   0  0  0  0  0  0  0  0  0  0  0  0
   -3.2950   -0.0390    2.7070 C   0  0  0  0  0  0  0  0  0  0  0  0
   -2.8360    0.7610    3.7980 C   0  0  0  0  0  0  0  0  0  0  0  0
   -1.4900    1.2560    3.9610 N   0  0  0  0  0  0  0  0  0  0  0  0
   -3.6250    1.1120    4.7490 O   0  0  0  0  0  0  0  0  0  0  0  0
   -1.2220    0.0730    1.6360 O   0  0  0  0  0  0  0  0  0  0  0  0
   -0.7340    0.6900    0.4480 C   0  0  0  0  0  0  0  0  0  0  0  0
   -1.6140    1.3530   -0.2130 C   0  0  0  0  0  0  0  0  0  0  0  0
   -2.7240    1.9240   -0.6350 C   0  0  0  0  0  0  0  0  0  0  0  0
   -3.8590    1.8650    0.0480 O   0  0  0  0  0  0  0  0  0  0  0  0
   -3.0120    2.7340   -1.9110 C   0  0  0  0  0  0  0  0  0  0  0  0
   -1.7990    2.6670   -2.6340 O   0  0  0  0  0  0  0  0  0  0  0  0
   -1.9170    3.4280   -3.7700 C   0  0  0  0  0  0  0  0  0  0  0  0
    0.6690    0.5460    0.0310 C   0  0  0  0  0  0  0  0  0  0  0  0
    0.8620    1.1010   -1.1240 O   0  0  0  0  0  0  0  0  0  0  0  0
    1.7190   -0.0860    0.7120 N   0  0  0  0  0  0  0  0  0  0  0  0
    1.6630   -0.6150    2.0930 C   0  0  0  0  0  0  0  0  0  0  0  0
    3.2860    0.1790    2.5690 S   0  0  0  0  0  0  0  0  0  0  0  0
    4.0100   -0.2740    0.9560 C   0  0  0  0  0  0  0  0  0  0  0  0
    3.0000   -0.3480    0.1430 C   0  0  0  0  0  0  0  0  0  0  0  0
    3.1050   -0.6460   -1.3330 C   0  0  0  0  0  0  0  0  0  0  0  0
    4.4580   -1.1010   -1.7490 C   0  0  0  0  0  0  0  0  0  0  0  0
    5.0860   -2.1410   -0.9250 C   0  0  0  0  0  0  0  0  0  0  0  0
    6.0190   -1.6860    0.1460 C   0  0  0  0  0  0  0  0  0  0  0  0
    5.4420   -0.4660    0.8100 C   0  0  0  0  0  0  0  0  0  0  0  0
    6.1900    0.4250    1.2640 O   0  0  0  0  0  0  0  0  0  0  0  0
  1  2  1  0
  2  3  2  3
  3  4  1  0
  3  5  1  0
  5  6  2  3
  5 10  1  0
  6  7  1  0
  7  8  1  0
  7  9  2  0
 10 11  1  0
 11 12  2  3
 11 18  1  0
 12 13  1  0
 13 14  2  0
 13 15  1  0
 15 16  1  0
 16 17  1  0
 18 19  2  0
 18 20  1  0
 20 21  1  0
 20 24  1  0
 21 22  1  0
 22 23  1  0
 23 24  2  0
 23 29  1  0
 24 25  1  0
 25 26  1  0
 26 27  1  0
 27 28  1  0
 28 29  1  0
 29 30  2  0
M  END
