
     RDKit          3D

 18 19  0  0  0  0  0  0  0  0999 V2000
   -1.9070   -2.6770    0.3160 N   0  0  0  0  0  0  0  0  0  0  0  0
   -2.5520   -1.4560    0.0340 C   0  0  0  0  0  0  0  0  0  0  0  0
   -3.5600   -1.3370   -0.8440 N   0  0  0  0  0  0  0  0  0  0  0  0
   -4.1600   -0.1580   -1.0960 C   0  0  0  0  0  0  0  0  0  0  0  0
   -3.7810    1.0110   -0.4680 C   0  0  0  0  0  0  0  0  0  0  0  0
   -4.6120    2.5470   -0.8410 S   0  0  0  0  0  0  0  0  0  0  0  0
   -2.7470    0.9180    0.4400 C   0  0  0  0  0  0  0  0  0  0  0  0
   -2.1290   -0.3040    0.6970 C   0  0  0  0  0  0  0  0  0  0  0  0
   -0.8070   -0.3990    1.8650 S   0  0  0  0  0  0  0  0  0  0  0  0
    0.7950   -0.1370    1.0940 C   0  0  0  0  0  0  0  0  0  0  0  0
    1.3500    1.1200    0.9810 C   0  0  0  0  0  0  0  0  0  0  0  0
    2.5670    1.3630    0.4010 C   0  0  0  0  0  0  0  0  0  0  0  0
    3.3020    0.3020   -0.1090 C   0  0  0  0  0  0  0  0  0  0  0  0
    4.8610    0.5570   -0.8590 S   0  0  1  0  0  0  0  0  0  0  0  0
    4.6820    0.3610   -2.3360 O   0  0  0  0  0  0  0  0  0  0  0  0
    5.3460    1.9430   -0.5440 O   0  0  0  0  0  0  0  0  0  0  0  0
    2.7650   -0.9750   -0.0080 C   0  0  0  0  0  0  0  0  0  0  0  0
    1.5280   -1.1900    0.5860 C   0  0  0  0  0  0  0  0  0  0  0  0
  1  2  1  0
  2  3  2  0
  2  8  1  0
  3  4  1  0
  4  5  2  0
  5  6  1  0
  5  7  1  0
  7  8  2  0
  8  9  1  0
  9 10  1  0
 10 11  2  0
 10 18  1  0
 11 12  1  0
 12 13  2  0
 14 13  1  1
 13 17  1  0
 14 15  2  0
 14 16  2  0
 17 18  2  0
M  END
