
     RDKit          3D

 18 20  0  0  0  0  0  0  0  0999 V2000
    4.7220    0.9050   -0.1160 C   0  0  0  0  0  0  0  0  0  0  0  0
    3.7780   -0.2250   -0.3720 C   0  0  0  0  0  0  0  0  0  0  0  0
    3.3250   -0.3690   -1.4760 O   0  0  0  0  0  0  0  0  0  0  0  0
    3.4350   -1.1270    0.7460 C   0  0  0  0  0  0  0  0  0  0  0  0
    2.2560   -0.3890    1.8330 S   0  0  0  0  0  0  0  0  0  0  0  0
    0.6050   -0.2290    1.1960 C   0  0  0  0  0  0  0  0  0  0  0  0
   -0.3650    0.3630    1.9030 N   0  0  0  0  0  0  0  0  0  0  0  0
   -1.6310    0.5140    1.4330 C   0  0  0  0  0  0  0  0  0  0  0  0
   -3.0070    1.2550    2.2180 S   0  0  0  0  0  0  0  0  0  0  0  0
   -4.1070    0.9460    0.8190 C   0  0  0  0  0  0  0  0  0  0  0  0
   -5.7630    1.1460    0.1880 S   0  0  0  0  0  0  0  0  0  0  0  0
   -5.3720    0.3220   -1.4240 C   0  0  0  0  0  0  0  0  0  0  0  0
   -4.0870    0.0180   -1.2700 C   0  0  0  0  0  0  0  0  0  0  0  0
   -3.3410    0.2870   -0.1720 C   0  0  0  0  0  0  0  0  0  0  0  0
   -2.0350    0.0920    0.2250 C   0  0  0  0  0  0  0  0  0  0  0  0
   -0.9840   -0.5370   -0.5120 C   0  0  0  0  0  0  0  0  0  0  0  0
   -1.2170   -0.9860   -1.6710 O   0  0  0  0  0  0  0  0  0  0  0  0
    0.2400   -0.6640   -0.0120 N   0  0  0  0  0  0  0  0  0  0  0  0
  1  2  1  0
  2  3  2  0
  2  4  1  0
  4  5  1  0
  5  6  1  0
  6  7  2  0
  6 18  1  0
  7  8  1  0
  8  9  1  0
  8 15  2  0
  9 10  1  0
 10 11  1  0
 10 14  2  0
 11 12  1  0
 12 13  2  0
 13 14  1  0
 14 15  1  0
 15 16  1  0
 16 17  2  0
 16 18  1  0
M  END
