
     RDKit          3D

 18 20  0  0  0  0  0  0  0  0999 V2000
   -4.4650   -0.9730    2.3230 O   0  0  0  0  0  0  0  0  0  0  0  0
   -4.1990   -0.5540    1.1290 C   0  0  0  0  0  0  0  0  0  0  0  0
   -5.1850   -0.1750    0.2360 N   0  0  0  0  0  0  0  0  0  0  0  0
   -4.7660    0.2630   -1.0440 C   0  0  0  0  0  0  0  0  0  0  0  0
   -5.6860    0.9880   -2.1850 S   0  0  0  0  0  0  0  0  0  0  0  0
   -3.0200   -0.1620   -1.1090 S   0  0  0  0  0  0  0  0  0  0  0  0
   -2.8290   -0.4550    0.6450 C   0  0  0  0  0  0  0  0  0  0  0  0
   -1.7620   -0.5490    1.3620 C   0  0  0  0  0  0  0  0  0  0  0  0
   -0.4020   -0.4270    0.7600 C   0  0  0  0  0  0  0  0  0  0  0  0
    0.3220   -0.7180   -0.0910 N   0  0  0  0  0  0  0  0  0  0  0  0
    1.5580   -0.3700   -0.3310 C   0  0  0  0  0  0  0  0  0  0  0  0
    2.3940   -0.7620   -1.3860 C   0  0  0  0  0  0  0  0  0  0  0  0
    3.6660   -0.2800   -1.4490 C   0  0  0  0  0  0  0  0  0  0  0  0
    4.2300    0.5850   -0.5430 C   0  0  0  0  0  0  0  0  0  0  0  0
    5.5160    1.0150   -0.6880 O   0  0  0  0  0  0  0  0  0  0  0  0
    3.4120    0.9900    0.5210 C   0  0  0  0  0  0  0  0  0  0  0  0
    2.1170    0.4940    0.5770 C   0  0  0  0  0  0  0  0  0  0  0  0
    0.7740    0.7480    1.7490 S   0  0  0  0  0  0  0  0  0  0  0  0
  1  2  2  0
  2  3  1  0
  2  7  1  0
  3  4  1  0
  4  5  2  0
  4  6  1  0
  6  7  1  0
  7  8  2  3
  8  9  1  0
  9 10  2  0
  9 18  1  0
 10 11  1  0
 11 12  2  0
 11 17  1  0
 12 13  1  0
 13 14  2  0
 14 15  1  0
 14 16  1  0
 16 17  2  0
 17 18  1  0
M  END
