
     RDKit          3D

 12 11  0  0  0  0  0  0  0  0999 V2000
   -1.7840   -0.9340    2.4260 O   0  0  0  0  0  0  0  0  0  0  0  0
   -2.4580   -0.0770    1.5890 C   0  0  0  0  0  0  0  0  0  0  0  0
   -1.5360    0.5840    0.5950 C   0  0  0  0  0  0  0  0  0  0  0  0
   -0.9170   -0.3650   -0.1870 O   0  0  0  0  0  0  0  0  0  0  0  0
   -0.0620    0.1870   -1.1130 C   0  0  2  0  0  0  0  0  0  0  0  0
   -0.6060   -0.1950   -2.4900 C   0  0  0  0  0  0  0  0  0  0  0  0
   -1.8860    0.3240   -2.6040 O   0  0  0  0  0  0  0  0  0  0  0  0
    1.1940   -0.3420   -0.9820 O   0  0  0  0  0  0  0  0  0  0  0  0
    2.2220    0.5350   -0.8240 C   0  0  0  0  0  0  0  0  0  0  0  0
    2.0790    1.3020    0.3110 O   0  0  0  0  0  0  0  0  0  0  0  0
    2.0630    0.4930    1.4340 C   0  0  0  0  0  0  0  0  0  0  0  0
    3.2800   -0.2010    1.4750 O   0  0  0  0  0  0  0  0  0  0  0  0
  1  2  1  0
  2  3  1  0
  3  4  1  0
  4  5  1  0
  5  6  1  6
  5  8  1  0
  6  7  1  0
  8  9  1  0
  9 10  1  0
 10 11  1  0
 11 12  1  0
M  END
