
     RDKit          3D

 12 11  0  0  0  0  0  0  0  0999 V2000
   -2.8960   -1.1740   -0.2790 O   0  0  0  0  0  0  0  0  0  0  0  0
   -3.3570    0.0190    0.1900 C   0  0  0  0  0  0  0  0  0  0  0  0
   -2.2140    0.9700    0.4310 C   0  0  0  0  0  0  0  0  0  0  0  0
   -1.3320    0.5350    1.3340 O   0  0  0  0  0  0  0  0  0  0  0  0
   -0.6190   -0.5780    1.2620 C   0  0  0  0  0  0  0  0  0  0  0  0
    0.2310   -0.7090    0.2230 O   0  0  0  0  0  0  0  0  0  0  0  0
    1.2440    0.1780    0.0540 C   0  0  2  0  0  0  0  0  0  0  0  0
    1.4470    0.5150   -1.3800 C   0  0  0  0  0  0  0  0  0  0  0  0
    0.3510    1.0890   -1.9880 O   0  0  0  0  0  0  0  0  0  0  0  0
    2.5960   -0.5200    0.4530 C   0  0  2  0  0  0  0  0  0  0  0  0
    3.6440    0.3760    0.2850 O   0  0  0  0  0  0  0  0  0  0  0  0
    2.7990   -1.5960   -0.4010 O   0  0  0  0  0  0  0  0  0  0  0  0
  1  2  1  0
  2  3  1  0
  3  4  1  0
  4  5  1  0
  5  6  1  0
  6  7  1  0
  7  8  1  6
  7 10  1  0
  8  9  1  0
 10 11  1  6
 10 12  1  0
M  END
