
     RDKit          3D

 19 21  0  0  0  0  0  0  0  0999 V2000
    3.5260   -2.3780    0.8050 N   0  0  0  0  0  0  0  0  0  0  0  0
    3.1890   -1.1530    0.1450 C   0  0  1  0  0  0  0  0  0  0  0  0
    2.3260   -1.4100   -1.0970 C   0  0  0  0  0  0  0  0  0  0  0  0
    1.7920   -0.0210   -1.3600 C   0  0  0  0  0  0  0  0  0  0  0  0
    1.4660    0.4350   -0.0220 N   0  0  0  0  0  0  0  0  0  0  0  0
    0.5380    1.4840    0.2210 C   0  0  0  0  0  0  0  0  0  0  0  0
    1.0170    2.4610    0.8990 N   0  0  0  0  0  0  0  0  0  0  0  0
    0.4330    3.6580    1.3370 N   0  0  0  0  0  0  0  0  0  0  0  0
   -0.7560    4.2630    0.7960 C   0  0  0  0  0  0  0  0  0  0  0  0
   -1.7150    3.7060    0.0640 C   0  0  0  0  0  0  0  0  0  0  0  0
   -1.7620    2.2930   -0.3650 C   0  0  0  0  0  0  0  0  0  0  0  0
   -0.8160    1.3610   -0.2980 C   0  0  0  0  0  0  0  0  0  0  0  0
   -1.1460    0.1210   -0.7780 O   0  0  0  0  0  0  0  0  0  0  0  0
   -1.5270   -0.9710    0.0250 C   0  0  1  0  0  0  0  0  0  0  0  0
   -2.7660   -0.6870    0.8430 C   0  0  0  0  0  0  0  0  0  0  0  0
   -3.8320   -1.4760    0.1340 C   0  0  0  0  0  0  0  0  0  0  0  0
   -3.3570   -1.7270   -1.1380 O   0  0  0  0  0  0  0  0  0  0  0  0
   -2.0210   -2.0810   -0.8910 C   0  0  0  0  0  0  0  0  0  0  0  0
    2.2070   -0.3160    0.9740 C   0  0  0  0  0  0  0  0  0  0  0  0
  2  1  1  1
  2  3  1  0
  2 19  1  0
  3  4  1  0
  4  5  1  0
  5  6  1  0
  5 19  1  0
  6  7  2  0
  6 12  1  0
  7  8  1  0
  8  9  1  0
  9 10  2  0
 10 11  1  0
 11 12  2  0
 12 13  1  0
 14 13  1  6
 14 15  1  0
 14 18  1  0
 15 16  1  0
 16 17  1  0
 17 18  1  0
M  CHG  1   1   1
M  END
