
     RDKit          3D

 12 11  0  0  0  0  0  0  0  0999 V2000
   -3.6570    0.6780    0.9160 O   0  0  0  0  0  0  0  0  0  0  0  0
   -3.6570    0.0840   -0.3170 C   0  0  0  0  0  0  0  0  0  0  0  0
   -2.3280   -0.2470   -0.9060 C   0  0  0  0  0  0  0  0  0  0  0  0
   -1.6060   -1.1160   -0.1660 O   0  0  0  0  0  0  0  0  0  0  0  0
   -1.2630   -0.6820    1.0750 C   0  0  0  0  0  0  0  0  0  0  0  0
   -0.5000    0.5010    0.9080 O   0  0  0  0  0  0  0  0  0  0  0  0
    0.6240    0.1160    0.1430 C   0  0  0  0  0  0  0  0  0  0  0  0
    1.4420    1.3620   -0.0450 C   0  0  0  0  0  0  0  0  0  0  0  0
    2.5570    1.0750   -0.7820 O   0  0  0  0  0  0  0  0  0  0  0  0
    3.4370    0.1650   -0.2410 C   0  0  2  0  0  0  0  0  0  0  0  0
    4.6930    0.8170   -0.1870 O   0  0  0  0  0  0  0  0  0  0  0  0
    3.5340   -0.8900   -1.1780 O   0  0  0  0  0  0  0  0  0  0  0  0
  1  2  1  0
  2  3  1  0
  3  4  1  0
  4  5  1  0
  5  6  1  0
  6  7  1  0
  7  8  1  0
  8  9  1  0
  9 10  1  0
 10 11  1  6
 10 12  1  0
M  END
