
     RDKit          3D

 12 11  0  0  0  0  0  0  0  0999 V2000
    2.7540    0.8430    1.1560 O   0  0  0  0  0  0  0  0  0  0  0  0
    3.0850    0.8580   -0.1720 C   0  0  0  0  0  0  0  0  0  0  0  0
    2.8990   -0.2720   -0.8880 O   0  0  0  0  0  0  0  0  0  0  0  0
    1.6790   -0.8240   -1.0360 C   0  0  0  0  0  0  0  0  0  0  0  0
    0.9460   -1.2570    0.2100 C   0  0  1  0  0  0  0  0  0  0  0  0
    1.7510   -2.1650    0.9040 O   0  0  0  0  0  0  0  0  0  0  0  0
    0.4970   -0.1910    0.8820 O   0  0  0  0  0  0  0  0  0  0  0  0
   -0.8220    0.0130    1.0440 C   0  0  0  0  0  0  0  0  0  0  0  0
   -1.6500    0.1720   -0.1950 C   0  0  2  0  0  0  0  0  0  0  0  0
   -1.2470    1.2570   -0.9720 O   0  0  0  0  0  0  0  0  0  0  0  0
   -3.0810    0.4900    0.2560 C   0  0  0  0  0  0  0  0  0  0  0  0
   -3.9230    0.6490   -0.8360 O   0  0  0  0  0  0  0  0  0  0  0  0
  1  2  1  0
  2  3  1  0
  3  4  1  0
  4  5  1  0
  5  6  1  1
  5  7  1  0
  7  8  1  0
  8  9  1  0
  9 10  1  6
  9 11  1  0
 11 12  1  0
M  END
