
     RDKit          3D

 12 11  0  0  0  0  0  0  0  0999 V2000
    3.2200   -1.4260   -0.6720 O   0  0  0  0  0  0  0  0  0  0  0  0
    3.6120   -0.3020   -0.2770 C   0  0  0  0  0  0  0  0  0  0  0  0
    4.6940   -0.2850    0.5990 O   0  0  0  0  0  0  0  0  0  0  0  0
    2.9780    0.8410   -0.7100 O   0  0  0  0  0  0  0  0  0  0  0  0
    1.8920    0.8860   -1.5820 C   0  0  0  0  0  0  0  0  0  0  0  0
    0.7200    0.1310   -0.9240 C   0  0  0  0  0  0  0  0  0  0  0  0
    0.4160    0.7390    0.2520 O   0  0  0  0  0  0  0  0  0  0  0  0
   -0.5580    0.2320    1.0360 C   0  0  0  0  0  0  0  0  0  0  0  0
   -1.9110    0.1730    0.4290 C   0  0  1  0  0  0  0  0  0  0  0  0
   -1.9480   -0.6380   -0.6760 O   0  0  0  0  0  0  0  0  0  0  0  0
   -2.9770   -0.2290    1.4300 C   0  0  0  0  0  0  0  0  0  0  0  0
   -4.2220   -0.1160    0.8200 O   0  0  0  0  0  0  0  0  0  0  0  0
  1  2  2  0
  2  3  1  0
  2  4  1  0
  4  5  1  0
  5  6  1  0
  6  7  1  0
  7  8  1  0
  8  9  1  0
  9 10  1  6
  9 11  1  0
 11 12  1  0
M  END
