
     RDKit          3D

 12 11  0  0  0  0  0  0  0  0999 V2000
    1.3820    1.0220   -1.5920 O   0  0  0  0  0  0  0  0  0  0  0  0
    0.7190    0.4040   -0.7280 C   0  0  0  0  0  0  0  0  0  0  0  0
   -0.6910    0.7890   -0.4960 C   0  0  0  0  0  0  0  0  0  0  0  0
   -1.3050    0.0370    0.4740 O   0  0  0  0  0  0  0  0  0  0  0  0
   -2.6170    0.4510    0.6360 C   0  0  2  0  0  0  0  0  0  0  0  0
   -2.8000    0.9320    1.9440 O   0  0  0  0  0  0  0  0  0  0  0  0
   -3.5860   -0.7000    0.4490 C   0  0  0  0  0  0  0  0  0  0  0  0
   -3.4060   -1.1940   -0.8510 O   0  0  0  0  0  0  0  0  0  0  0  0
    1.3660   -0.6040   -0.0490 O   0  0  0  0  0  0  0  0  0  0  0  0
    2.6910   -0.9570   -0.2750 C   0  0  0  0  0  0  0  0  0  0  0  0
    3.6820    0.1460   -0.0330 C   0  0  0  0  0  0  0  0  0  0  0  0
    4.9500   -0.3690   -0.3030 O   0  0  0  0  0  0  0  0  0  0  0  0
  1  2  2  0
  2  3  1  0
  2  9  1  0
  3  4  1  0
  4  5  1  0
  5  6  1  1
  5  7  1  0
  7  8  1  0
  9 10  1  0
 10 11  1  0
 11 12  1  0
M  END
