
     RDKit          3D

 23 26  0  0  0  0  0  0  0  0999 V2000
    5.5060   -0.1520    1.0900 C   0  0  0  0  0  0  0  0  0  0  0  0
    4.6980    1.0320    0.6120 C   0  0  1  0  0  0  0  0  0  0  0  0
    5.3860    1.5640   -0.6510 C   0  0  0  0  0  0  0  0  0  0  0  0
    3.3560    0.5180    0.2160 C   0  0  0  0  0  0  0  0  0  0  0  0
    3.2080   -0.4270   -0.7290 N   0  0  0  0  0  0  0  0  0  0  0  0
    1.8860   -0.6550   -0.8370 C   0  0  0  0  0  0  0  0  0  0  0  0
    1.2430   -1.5060   -1.6410 N   0  0  0  0  0  0  0  0  0  0  0  0
   -0.0930   -1.5770   -1.5890 C   0  0  0  0  0  0  0  0  0  0  0  0
   -0.6150   -2.3870   -2.3690 O   0  0  0  0  0  0  0  0  0  0  0  0
   -0.8080   -0.7850   -0.7170 C   0  0  0  0  0  0  0  0  0  0  0  0
   -2.2480   -0.8950   -0.6020 C   0  0  0  0  0  0  0  0  0  0  0  0
   -2.9250   -1.8620   -1.1620 C   0  0  0  0  0  0  0  0  0  0  0  0
   -4.4050   -1.9880   -1.0560 C   0  0  0  0  0  0  0  0  0  0  0  0
   -5.0640   -1.1020   -0.3810 C   0  0  0  0  0  0  0  0  0  0  0  0
   -4.4420    0.0150    0.2840 N   0  0  0  0  0  0  0  0  0  0  0  0
   -5.2490    0.9450    1.0270 C   0  0  0  0  0  0  0  0  0  0  0  0
   -4.5150    2.0270    1.6230 N   0  0  0  0  0  0  0  0  0  0  0  0
   -3.2550    2.1400    1.5110 C   0  0  0  0  0  0  0  0  0  0  0  0
   -2.4620    1.1490    0.7520 C   0  0  0  0  0  0  0  0  0  0  0  0
   -3.0070    0.0980    0.1550 C   0  0  0  0  0  0  0  0  0  0  0  0
   -0.0870    0.0440    0.0580 N   0  0  0  0  0  0  0  0  0  0  0  0
    1.2080    0.1380    0.0310 N   0  0  0  0  0  0  0  0  0  0  0  0
    2.1490    0.8370    0.6530 N   0  0  0  0  0  0  0  0  0  0  0  0
  2  1  1  6
  2  3  1  0
  2  4  1  0
  4  5  1  0
  4 23  2  0
  5  6  2  0
  6  7  1  0
  6 22  1  0
  7  8  1  0
  8  9  2  0
  8 10  1  0
 10 11  1  0
 10 21  2  0
 11 12  2  0
 11 20  1  0
 12 13  1  0
 13 14  2  0
 14 15  1  0
 15 16  1  0
 15 20  1  0
 16 17  1  0
 17 18  2  0
 18 19  1  0
 19 20  2  0
 21 22  1  0
 22 23  1  0
M  END
