
     RDKit          3D

 23 26  0  0  0  0  0  0  0  0999 V2000
   -1.0790   -2.9660   -0.0930 C   0  0  0  0  0  0  0  0  0  0  0  0
   -1.6180   -1.6940   -0.6200 C   0  0  0  0  0  0  0  0  0  0  0  0
   -2.2310   -1.5880   -1.7480 N   0  0  0  0  0  0  0  0  0  0  0  0
   -2.6300   -0.2320   -1.9740 C   0  0  0  0  0  0  0  0  0  0  0  0
   -2.1430    0.4680   -0.7670 C   0  0  0  0  0  0  0  0  0  0  0  0
   -2.3110    1.9340   -0.5090 C   0  0  0  0  0  0  0  0  0  0  0  0
   -1.5310   -0.4060    0.0550 C   0  0  0  0  0  0  0  0  0  0  0  0
   -0.9600   -0.1220    1.3160 N   0  0  0  0  0  0  0  0  0  0  0  0
   -1.7250   -0.1700    2.4550 C   0  0  0  0  0  0  0  0  0  0  0  0
   -3.1750   -0.5120    2.4730 C   0  0  0  0  0  0  0  0  0  0  0  0
   -0.9400    0.1390    3.4930 N   0  0  0  0  0  0  0  0  0  0  0  0
    0.2700    0.3780    3.0710 N   0  0  0  0  0  0  0  0  0  0  0  0
    0.2560    0.2150    1.7200 C   0  0  0  0  0  0  0  0  0  0  0  0
    1.4370    0.3960    0.8690 C   0  0  0  0  0  0  0  0  0  0  0  0
    2.6570    0.7550    1.4600 C   0  0  0  0  0  0  0  0  0  0  0  0
    3.7990    0.9400    0.7180 C   0  0  0  0  0  0  0  0  0  0  0  0
    3.7530    0.7720   -0.6170 N   0  0  0  0  0  0  0  0  0  0  0  0
    4.7070    0.8890   -1.5530 C   0  0  0  0  0  0  0  0  0  0  0  0
    5.9250    1.1970   -1.3910 O   0  0  0  0  0  0  0  0  0  0  0  0
    4.1920    0.6220   -2.7730 N   0  0  0  0  0  0  0  0  0  0  0  0
    2.9170    0.3440   -2.5620 N   0  0  0  0  0  0  0  0  0  0  0  0
    2.6290    0.4300   -1.2540 C   0  0  0  0  0  0  0  0  0  0  0  0
    1.4700    0.2440   -0.4860 C   0  0  0  0  0  0  0  0  0  0  0  0
  1  2  1  0
  2  3  2  0
  2  7  1  0
  3  4  1  0
  4  5  1  0
  5  6  1  0
  5  7  2  0
  7  8  1  0
  8  9  1  0
  8 13  1  0
  9 10  1  0
  9 11  2  0
 11 12  1  0
 12 13  2  0
 13 14  1  0
 14 15  1  0
 14 23  2  0
 15 16  2  0
 16 17  1  0
 17 18  1  0
 17 22  1  0
 18 19  2  0
 18 20  1  0
 20 21  1  0
 21 22  2  0
 22 23  1  0
M  END
