
     RDKit          3D

 23 26  0  0  0  0  0  0  0  0999 V2000
   -2.8370    2.5190    0.4260 C   0  0  0  0  0  0  0  0  0  0  0  0
   -2.8810    1.1520   -0.2580 C   0  0  2  0  0  0  0  0  0  0  0  0
   -3.9770    0.3210    0.3790 C   0  0  0  0  0  0  0  0  0  0  0  0
   -3.4130   -1.0250    0.3930 C   0  0  0  0  0  0  0  0  0  0  0  0
   -3.7260   -2.3770    0.6430 C   0  0  0  0  0  0  0  0  0  0  0  0
   -2.5560   -3.0910    0.3780 N   0  0  0  0  0  0  0  0  0  0  0  0
   -1.6750   -2.2290    0.0070 N   0  0  0  0  0  0  0  0  0  0  0  0
   -2.0900   -0.9710   -0.0130 C   0  0  0  0  0  0  0  0  0  0  0  0
   -1.7070    0.4020   -0.2710 N   0  0  0  0  0  0  0  0  0  0  0  0
   -0.3550    0.8400   -0.6200 C   0  0  0  0  0  0  0  0  0  0  0  0
    0.0250    1.9340   -0.1180 O   0  0  0  0  0  0  0  0  0  0  0  0
    0.5340    0.1350   -1.4960 C   0  0  0  0  0  0  0  0  0  0  0  0
    1.6540   -0.6650   -0.9880 C   0  0  0  0  0  0  0  0  0  0  0  0
    1.6270   -2.0810   -1.0050 C   0  0  0  0  0  0  0  0  0  0  0  0
    2.8590   -2.5250   -0.6130 N   0  0  0  0  0  0  0  0  0  0  0  0
    3.5990   -1.4070   -0.3570 C   0  0  0  0  0  0  0  0  0  0  0  0
    4.8550   -1.2890    0.0980 N   0  0  0  0  0  0  0  0  0  0  0  0
    5.4470   -0.1630    0.3670 C   0  0  0  0  0  0  0  0  0  0  0  0
    4.7090    0.9980    0.1560 C   0  0  0  0  0  0  0  0  0  0  0  0
    5.2480    2.2210    0.7080 C   0  0  0  0  0  0  0  0  0  0  0  0
    5.6530    3.1870    1.1480 N   0  0  0  0  0  0  0  0  0  0  0  0
    3.4420    0.9190   -0.3140 C   0  0  0  0  0  0  0  0  0  0  0  0
    2.8760   -0.3000   -0.5710 N   0  0  0  0  0  0  0  0  0  0  0  0
  2  1  1  1
  2  3  1  0
  2  9  1  0
  3  4  1  0
  4  5  2  0
  4  8  1  0
  5  6  1  0
  6  7  1  0
  7  8  2  0
  8  9  1  0
  9 10  1  0
 10 11  2  0
 10 12  1  0
 12 13  1  0
 13 14  2  0
 13 23  1  0
 14 15  1  0
 15 16  2  0
 16 17  1  0
 16 23  1  0
 17 18  2  0
 18 19  1  0
 19 20  1  0
 19 22  2  0
 20 21  3  0
 22 23  1  0
M  END
