
     RDKit          3D

 15 15  0  0  0  0  0  0  0  0999 V2000
    6.0370    0.5750    0.1600 C   0  0  0  0  0  0  0  0  0  0  0  0
    4.6070    0.3920   -0.2440 C   0  0  0  0  0  0  0  0  0  0  0  0
    4.1620   -0.7590   -0.4560 O   0  0  0  0  0  0  0  0  0  0  0  0
    3.7340    1.4470   -0.3990 O   0  0  0  0  0  0  0  0  0  0  0  0
    2.4180    1.2320   -0.7710 C   0  0  0  0  0  0  0  0  0  0  0  0
    1.5790    0.4100    0.1380 C   0  0  0  0  0  0  0  0  0  0  0  0
    0.2950    0.3390   -0.4550 O   0  0  0  0  0  0  0  0  0  0  0  0
   -0.5690   -0.4190    0.3330 C   0  0  2  0  0  0  0  0  0  0  0  0
   -0.9840   -1.6450   -0.4530 C   0  0  0  0  0  0  0  0  0  0  0  0
   -2.2950   -2.2010    0.0320 C   0  0  0  0  0  0  0  0  0  0  0  0
   -3.4500   -1.2690   -0.1570 C   0  0  0  0  0  0  0  0  0  0  0  0
   -2.9000    0.1420   -0.3800 C   0  0  1  0  0  0  0  0  0  0  0  0
   -3.9180    1.1370   -0.1560 N   0  0  0  0  0  0  0  0  0  0  0  0
   -1.8250    0.3300    0.6920 C   0  0  2  0  0  0  0  0  0  0  0  0
   -1.6430    1.6720    0.8870 O   0  0  0  0  0  0  0  0  0  0  0  0
  1  2  1  0
  2  3  2  0
  2  4  1  0
  4  5  1  0
  5  6  1  0
  6  7  1  0
  8  7  1  6
  8  9  1  0
  8 14  1  0
  9 10  1  0
 10 11  1  0
 11 12  1  0
 12 13  1  1
 12 14  1  0
 14 15  1  6
M  CHG  1  13   1
M  END
