
     RDKit          3D

 14 14  0  0  0  0  0  0  0  0999 V2000
   -3.4380    0.9810    1.2570 C   0  0  0  0  0  0  0  0  0  0  0  0
   -2.3290    0.1660    1.4820 O   0  0  0  0  0  0  0  0  0  0  0  0
   -1.9240   -0.4400    0.3170 C   0  0  2  0  0  0  0  0  0  0  0  0
   -2.0210   -1.9330    0.4770 C   0  0  0  0  0  0  0  0  0  0  0  0
   -3.3420   -2.2610    0.7520 O   0  0  0  0  0  0  0  0  0  0  0  0
   -0.6190   -0.0170   -0.0060 O   0  0  0  0  0  0  0  0  0  0  0  0
   -0.3000    0.6500   -1.1760 C   0  0  0  0  0  0  0  0  0  0  0  0
   -1.2580    0.8770   -1.9790 O   0  0  0  0  0  0  0  0  0  0  0  0
    1.0980    1.0770   -1.4710 C   0  0  1  0  0  0  0  0  0  0  0  0
    1.6400    2.0060   -0.4490 C   0  0  0  0  0  0  0  0  0  0  0  0
    2.3120    1.3390    0.4750 C   0  0  0  0  0  0  0  0  0  0  0  0
    2.2920   -0.1140    0.1670 C   0  0  2  0  0  0  0  0  0  0  0  0
    3.5800   -0.7340    0.4230 N   0  0  0  0  0  0  0  0  0  0  0  0
    1.9940   -0.1280   -1.3120 C   0  0  0  0  0  0  0  0  0  0  0  0
  1  2  1  0
  2  3  1  0
  3  4  1  1
  3  6  1  0
  4  5  1  0
  6  7  1  0
  7  8  2  0
  9  7  1  1
  9 10  1  0
  9 14  1  0
 10 11  2  0
 11 12  1  0
 12 13  1  6
 12 14  1  0
M  CHG  1  13   1
M  END
