
     RDKit          3D

 22 25  0  0  0  0  0  0  0  0999 V2000
    0.3500   -0.7180   -2.0500 O   0  0  0  0  0  0  0  0  0  0  0  0
   -0.3570   -0.3250   -0.9260 C   0  0  0  0  0  0  0  0  0  0  0  0
   -1.6920   -0.2710   -0.8750 N   0  0  0  0  0  0  0  0  0  0  0  0
   -2.3710    0.1110    0.2210 C   0  0  0  0  0  0  0  0  0  0  0  0
   -3.8200    0.1530    0.2250 C   0  0  0  0  0  0  0  0  0  0  0  0
   -4.5550    0.5390    1.3250 C   0  0  0  0  0  0  0  0  0  0  0  0
   -5.9350    0.5700    1.3050 C   0  0  0  0  0  0  0  0  0  0  0  0
   -6.5980    0.2200    0.1980 N   0  0  0  0  0  0  0  0  0  0  0  0
   -5.9220   -0.1670   -0.9120 C   0  0  0  0  0  0  0  0  0  0  0  0
   -4.5220   -0.2030   -0.9030 C   0  0  0  0  0  0  0  0  0  0  0  0
   -1.6550    0.4520    1.3060 N   0  0  0  0  0  0  0  0  0  0  0  0
   -0.3020    0.4190    1.3180 C   0  0  0  0  0  0  0  0  0  0  0  0
    0.3550    0.0250    0.1870 C   0  0  0  0  0  0  0  0  0  0  0  0
    1.8270   -0.0190    0.1770 C   0  0  0  0  0  0  0  0  0  0  0  0
    2.6450    0.2930    1.1830 N   0  0  0  0  0  0  0  0  0  0  0  0
    3.9380    0.1340    0.8120 C   0  0  0  0  0  0  0  0  0  0  0  0
    5.1330    0.2990    1.4080 N   0  0  0  0  0  0  0  0  0  0  0  0
    6.2980    0.0540    0.7680 C   0  0  0  0  0  0  0  0  0  0  0  0
    6.2820   -0.3800   -0.5390 C   0  0  0  0  0  0  0  0  0  0  0  0
    5.0330   -0.5410   -1.1300 C   0  0  0  0  0  0  0  0  0  0  0  0
    3.8950   -0.2890   -0.4640 N   0  0  0  0  0  0  0  0  0  0  0  0
    2.6170   -0.3810   -0.8480 N   0  0  0  0  0  0  0  0  0  0  0  0
  1  2  1  0
  2  3  2  0
  2 13  1  0
  3  4  1  0
  4  5  1  0
  4 11  2  0
  5  6  2  0
  5 10  1  0
  6  7  1  0
  7  8  2  0
  8  9  1  0
  9 10  2  0
 11 12  1  0
 12 13  2  0
 13 14  1  0
 14 15  1  0
 14 22  2  0
 15 16  2  0
 16 17  1  0
 16 21  1  0
 17 18  2  0
 18 19  1  0
 19 20  2  0
 20 21  1  0
 21 22  1  0
M  END
