
     RDKit          3D

 20 22  0  0  0  0  0  0  0  0999 V2000
    0.3000    1.5340   -0.6780 O   0  0  0  0  0  0  0  0  0  0  0  0
   -0.3520    0.5730   -0.2040 C   0  0  0  0  0  0  0  0  0  0  0  0
    0.2880   -0.5430    0.3040 C   0  0  0  0  0  0  0  0  0  0  0  0
    1.7460   -0.5400    0.2590 C   0  0  0  0  0  0  0  0  0  0  0  0
    2.4190   -0.1370   -0.8820 C   0  0  0  0  0  0  0  0  0  0  0  0
    3.8060   -0.1270   -0.9450 C   0  0  0  0  0  0  0  0  0  0  0  0
    4.5590   -0.5240    0.1430 C   0  0  0  0  0  0  0  0  0  0  0  0
    5.9570   -0.5300    0.1260 O   0  0  0  0  0  0  0  0  0  0  0  0
    3.9030   -0.9270    1.2870 C   0  0  0  0  0  0  0  0  0  0  0  0
    2.5210   -0.9290    1.3270 C   0  0  0  0  0  0  0  0  0  0  0  0
   -0.4150   -1.6030    0.8270 C   0  0  0  0  0  0  0  0  0  0  0  0
   -1.7090   -1.5800    0.8550 O   0  0  0  0  0  0  0  0  0  0  0  0
   -2.3490   -0.5410    0.3830 C   0  0  0  0  0  0  0  0  0  0  0  0
   -3.7370   -0.5620    0.4350 C   0  0  0  0  0  0  0  0  0  0  0  0
   -4.4840    0.4900   -0.0400 C   0  0  0  0  0  0  0  0  0  0  0  0
   -5.8900    0.4420    0.0250 O   0  0  0  0  0  0  0  0  0  0  0  0
   -3.8660    1.5880   -0.5780 C   0  0  0  0  0  0  0  0  0  0  0  0
   -2.4570    1.6530   -0.6510 C   0  0  0  0  0  0  0  0  0  0  0  0
   -1.8890    2.7540   -1.1890 O   0  0  0  0  0  0  0  0  0  0  0  0
   -1.7410    0.5730   -0.1620 C   0  0  0  0  0  0  0  0  0  0  0  0
  1  2  2  0
  2  3  1  0
  2 20  1  0
  3  4  1  0
  3 11  2  0
  4  5  2  0
  4 10  1  0
  5  6  1  0
  6  7  2  0
  7  8  1  0
  7  9  1  0
  9 10  2  0
 11 12  1  0
 12 13  1  0
 13 14  2  0
 13 20  1  0
 14 15  1  0
 15 16  1  0
 15 17  2  0
 17 18  1  0
 18 19  1  0
 18 20  2  0
M  END
