
     RDKit          3D

 23 26  0  0  0  0  0  0  0  0999 V2000
   -5.4060   -0.6280    1.4580 C   0  0  0  0  0  0  0  0  0  0  0  0
   -4.9210    0.3650    0.4150 C   0  0  2  0  0  0  0  0  0  0  0  0
   -6.0600    1.1090    0.0370 O   0  0  0  0  0  0  0  0  0  0  0  0
   -4.3930   -0.3950   -0.7570 C   0  0  0  0  0  0  0  0  0  0  0  0
   -2.9460    0.0060   -1.0490 C   0  0  0  0  0  0  0  0  0  0  0  0
   -2.1700   -0.2460    0.2230 C   0  0  1  0  0  0  0  0  0  0  0  0
   -0.7360   -0.2480    0.0040 N   0  0  0  0  0  0  0  0  0  0  0  0
   -0.0760   -0.4660   -1.1220 C   0  0  0  0  0  0  0  0  0  0  0  0
    1.3080   -0.3720   -0.8790 C   0  0  0  0  0  0  0  0  0  0  0  0
    2.3390   -0.5500   -1.8710 C   0  0  0  0  0  0  0  0  0  0  0  0
    3.6010   -0.4770   -1.7130 C   0  0  0  0  0  0  0  0  0  0  0  0
    4.3070   -0.1950   -0.4850 C   0  0  0  0  0  0  0  0  0  0  0  0
    3.8370    0.0510    0.7420 N   0  0  0  0  0  0  0  0  0  0  0  0
    4.8200    0.2600    1.5850 N   0  0  0  0  0  0  0  0  0  0  0  0
    5.9790    0.1460    0.8760 C   0  0  0  0  0  0  0  0  0  0  0  0
    5.6790   -0.1310   -0.3860 N   0  0  0  0  0  0  0  0  0  0  0  0
    6.8530   -0.2550   -1.1410 N   0  0  0  0  0  0  0  0  0  0  0  0
    7.8950   -0.0690   -0.4190 C   0  0  0  0  0  0  0  0  0  0  0  0
    7.4570    0.2090    0.9600 C   0  0  0  0  0  0  0  0  0  0  0  0
    1.3560   -0.0920    0.4310 N   0  0  0  0  0  0  0  0  0  0  0  0
    0.1530   -0.0170    0.9620 N   0  0  0  0  0  0  0  0  0  0  0  0
   -2.5870    0.7520    1.2600 C   0  0  0  0  0  0  0  0  0  0  0  0
   -3.9480    1.3370    1.0090 C   0  0  0  0  0  0  0  0  0  0  0  0
  2  1  1  1
  2  3  1  0
  2  4  1  0
  2 23  1  0
  4  5  1  0
  5  6  1  0
  6  7  1  6
  6 22  1  0
  7  8  1  0
  7 21  1  0
  8  9  2  0
  9 10  1  0
  9 20  1  0
 10 11  2  3
 11 12  1  0
 12 13  2  0
 12 16  1  0
 13 14  1  0
 14 15  2  0
 15 16  1  0
 15 19  1  0
 16 17  1  0
 17 18  2  0
 18 19  1  0
 20 21  2  0
 22 23  1  0
M  END
