
     RDKit          3D

 23 26  0  0  0  0  0  0  0  0999 V2000
   -1.7820    2.1040   -2.1960 C   0  0  0  0  0  0  0  0  0  0  0  0
   -2.5040    0.8820   -1.5920 C   0  0  2  0  0  0  0  0  0  0  0  0
   -3.7180    1.3890   -0.8510 C   0  0  0  0  0  0  0  0  0  0  0  0
   -3.1440    1.9420    0.3900 C   0  0  0  0  0  0  0  0  0  0  0  0
   -3.2370    2.8020    1.4750 C   0  0  0  0  0  0  0  0  0  0  0  0
   -2.1470    2.6960    2.2580 N   0  0  0  0  0  0  0  0  0  0  0  0
   -1.3720    1.7890    1.6880 N   0  0  0  0  0  0  0  0  0  0  0  0
   -1.9070    1.3020    0.5750 C   0  0  0  0  0  0  0  0  0  0  0  0
   -1.6950    0.3850   -0.4930 N   0  0  0  0  0  0  0  0  0  0  0  0
   -0.8370   -0.7530   -0.5100 C   0  0  0  0  0  0  0  0  0  0  0  0
   -0.7380   -1.5190   -1.4830 O   0  0  0  0  0  0  0  0  0  0  0  0
    0.0090   -1.0380    0.7200 C   0  0  0  0  0  0  0  0  0  0  0  0
    1.4020   -0.6250    0.4480 C   0  0  0  0  0  0  0  0  0  0  0  0
    1.7500    0.7070    0.2690 C   0  0  0  0  0  0  0  0  0  0  0  0
    3.0710    0.7060    0.0500 N   0  0  0  0  0  0  0  0  0  0  0  0
    3.5180   -0.5830    0.0970 C   0  0  0  0  0  0  0  0  0  0  0  0
    4.7290   -1.1020   -0.0330 N   0  0  0  0  0  0  0  0  0  0  0  0
    4.9470   -2.4150    0.0750 C   0  0  0  0  0  0  0  0  0  0  0  0
    3.8900   -3.3140    0.3330 C   0  0  0  0  0  0  0  0  0  0  0  0
    4.1540   -4.6980    0.5140 C   0  0  0  0  0  0  0  0  0  0  0  0
    4.3840   -5.8650    0.6470 N   0  0  0  0  0  0  0  0  0  0  0  0
    2.6430   -2.7360    0.4610 C   0  0  0  0  0  0  0  0  0  0  0  0
    2.4720   -1.3970    0.3440 N   0  0  0  0  0  0  0  0  0  0  0  0
  2  1  1  1
  2  3  1  0
  2  9  1  0
  3  4  1  0
  4  5  2  0
  4  8  1  0
  5  6  1  0
  6  7  1  0
  7  8  2  0
  8  9  1  0
  9 10  1  0
 10 11  2  0
 10 12  1  0
 12 13  1  0
 13 14  2  0
 13 23  1  0
 14 15  1  0
 15 16  2  0
 16 17  1  0
 16 23  1  0
 17 18  2  0
 18 19  1  0
 19 20  1  0
 19 22  2  0
 20 21  3  0
 22 23  1  0
M  END
