
     RDKit          3D

 23 26  0  0  0  0  0  0  0  0999 V2000
    3.0830   -1.5520   -1.2620 O   0  0  0  0  0  0  0  0  0  0  0  0
    2.6270   -0.6970   -0.4640 C   0  0  0  0  0  0  0  0  0  0  0  0
    3.2920    0.1370    0.3620 N   0  0  0  0  0  0  0  0  0  0  0  0
    4.7010    0.1930    0.4750 C   0  0  0  0  0  0  0  0  0  0  0  0
    5.4350   -0.9520    0.3300 C   0  0  0  0  0  0  0  0  0  0  0  0
    6.7900   -0.8790    0.4420 N   0  0  0  0  0  0  0  0  0  0  0  0
    7.3950    0.2980    0.6900 C   0  0  0  0  0  0  0  0  0  0  0  0
    6.6220    1.4340    0.8300 C   0  0  0  0  0  0  0  0  0  0  0  0
    5.2990    1.3740    0.7230 N   0  0  0  0  0  0  0  0  0  0  0  0
    2.4020    0.8800    1.0340 N   0  0  0  0  0  0  0  0  0  0  0  0
    1.1650    0.5260    0.6420 C   0  0  0  0  0  0  0  0  0  0  0  0
    1.3370   -0.4520   -0.2860 N   0  0  0  0  0  0  0  0  0  0  0  0
    0.2040   -1.1090   -0.9660 C   0  0  0  0  0  0  0  0  0  0  0  0
   -0.7650   -0.0380   -1.3190 C   0  0  0  0  0  0  0  0  0  0  0  0
   -1.8510    0.2270   -0.3200 C   0  0  1  0  0  0  0  0  0  0  0  0
   -2.8640   -0.7900   -0.2860 N   0  0  0  0  0  0  0  0  0  0  0  0
   -3.5850   -0.9480   -1.5200 C   0  0  0  0  0  0  0  0  0  0  0  0
   -4.4920    0.2190   -1.7820 C   0  0  0  0  0  0  0  0  0  0  0  0
   -5.0280    0.8230   -0.7450 C   0  0  0  0  0  0  0  0  0  0  0  0
   -4.7910    0.4240    0.6480 C   0  0  0  0  0  0  0  0  0  0  0  0
   -3.7970   -0.6970    0.7870 C   0  0  0  0  0  0  0  0  0  0  0  0
   -1.3370    0.4240    1.0790 C   0  0  0  0  0  0  0  0  0  0  0  0
   -0.0480    1.0970    1.1370 N   0  0  0  0  0  0  0  0  0  0  0  0
  1  2  2  0
  2  3  1  0
  2 12  1  0
  3  4  1  0
  3 10  1  0
  4  5  2  0
  4  9  1  0
  5  6  1  0
  6  7  2  0
  7  8  1  0
  8  9  2  0
 10 11  2  0
 11 12  1  0
 11 23  1  0
 12 13  1  0
 13 14  1  0
 14 15  1  0
 15 16  1  1
 15 22  1  0
 16 17  1  0
 16 21  1  0
 17 18  1  0
 18 19  2  0
 19 20  1  0
 20 21  1  0
 22 23  1  0
M  END
