
     RDKit          3D

  9  8  0  0  0  0  0  0  0  0999 V2000
   -3.3890    0.8400    0.4110 N   0  0  0  0  0  0  0  0  0  0  0  0
   -3.1540   -0.1110   -0.6590 C   0  0  0  0  0  0  0  0  0  0  0  0
   -1.6640   -0.4020   -0.7350 C   0  0  0  0  0  0  0  0  0  0  0  0
   -1.2110   -0.9370    0.4580 O   0  0  0  0  0  0  0  0  0  0  0  0
    0.1210   -1.2120    0.4290 C   0  0  0  0  0  0  0  0  0  0  0  0
    1.0090   -0.0240    0.1730 C   0  0  0  0  0  0  0  0  0  0  0  0
    2.4310   -0.5470    0.1820 C   0  0  0  0  0  0  0  0  0  0  0  0
    3.4280    0.5610   -0.0670 C   0  0  0  0  0  0  0  0  0  0  0  0
    3.1640    1.1390   -1.3300 O   0  0  0  0  0  0  0  0  0  0  0  0
  1  2  1  0
  2  3  1  0
  3  4  1  0
  4  5  1  0
  5  6  1  0
  6  7  1  0
  7  8  1  0
  8  9  1  0
M  CHG  1   1   1
M  END
