
     RDKit          3D

  9  8  0  0  0  0  0  0  0  0999 V2000
   -2.3340   -0.8570   -1.1440 C   0  0  0  0  0  0  0  0  0  0  0  0
   -2.1330   -0.0400    0.1140 C   0  0  1  0  0  0  0  0  0  0  0  0
   -2.1800    1.4310   -0.2640 C   0  0  0  0  0  0  0  0  0  0  0  0
   -3.1300   -0.3870    1.0040 O   0  0  0  0  0  0  0  0  0  0  0  0
   -0.7460   -0.3160    0.6850 C   0  0  0  0  0  0  0  0  0  0  0  0
    0.1820    0.0690   -0.2900 O   0  0  0  0  0  0  0  0  0  0  0  0
    1.4380   -0.1870    0.2420 C   0  0  0  0  0  0  0  0  0  0  0  0
    2.5520    0.1830   -0.7120 C   0  0  0  0  0  0  0  0  0  0  0  0
    3.7960   -0.1370   -0.0260 N   0  0  0  0  0  0  0  0  0  0  0  0
  2  1  1  6
  2  3  1  0
  2  4  1  0
  2  5  1  0
  5  6  1  0
  6  7  1  0
  7  8  1  0
  8  9  1  0
M  CHG  1   9   1
M  END
