
     RDKit          3D

  9  8  0  0  0  0  0  0  0  0999 V2000
   -3.1530    1.4390    0.3570 C   0  0  0  0  0  0  0  0  0  0  0  0
   -1.7800    1.2530    0.2020 O   0  0  0  0  0  0  0  0  0  0  0  0
   -1.5480   -0.1100    0.2020 C   0  0  0  0  0  0  0  0  0  0  0  0
   -0.1050   -0.4460    0.0420 C   0  0  0  0  0  0  0  0  0  0  0  0
    0.8140    0.4940   -0.0820 C   0  0  0  0  0  0  0  0  0  0  0  0
    2.2570    0.3110   -0.2450 C   0  0  0  0  0  0  0  0  0  0  0  0
    2.9790    0.9410    0.8470 N   0  0  0  0  0  0  0  0  0  0  0  0
    0.2290   -1.8900    0.0360 C   0  0  0  0  0  0  0  0  0  0  0  0
   -0.4670   -2.4560   -1.0530 O   0  0  0  0  0  0  0  0  0  0  0  0
  1  2  1  0
  2  3  1  0
  3  4  1  0
  4  5  2  3
  4  8  1  0
  5  6  1  0
  6  7  1  0
  8  9  1  0
M  CHG  1   7   1
M  END
