
     RDKit          3D

 11 11  0  0  0  0  0  0  0  0999 V2000
    3.7950    0.1810   -0.3580 C   0  0  0  0  0  0  0  0  0  0  0  0
    2.9620   -0.9450    0.1870 C   0  0  0  0  0  0  0  0  0  0  0  0
    1.8440   -0.4570    1.0790 C   0  0  0  0  0  0  0  0  0  0  0  0
    0.9280    0.4230    0.4050 N   0  0  0  0  0  0  0  0  0  0  0  0
    0.0330   -0.2930   -0.4990 C   0  0  2  0  0  0  0  0  0  0  0  0
    0.3240    0.1960   -1.8880 C   0  0  0  0  0  0  0  0  0  0  0  0
   -1.3970   -0.0810   -0.1090 C   0  0  0  0  0  0  0  0  0  0  0  0
   -2.2120   -1.0690    0.2230 C   0  0  0  0  0  0  0  0  0  0  0  0
   -3.5760   -0.5900    0.5680 C   0  0  0  0  0  0  0  0  0  0  0  0
   -3.5910    0.8110    0.0570 C   0  0  0  0  0  0  0  0  0  0  0  0
   -2.1270    1.2240   -0.0280 C   0  0  0  0  0  0  0  0  0  0  0  0
  1  2  1  0
  2  3  1  0
  3  4  1  0
  4  5  1  0
  5  6  1  6
  5  7  1  0
  7  8  2  0
  7 11  1  0
  8  9  1  0
  9 10  1  0
 10 11  1  0
M  CHG  1   4   1
M  END
