
     RDKit          3D

 13 13  0  0  0  0  0  0  0  0999 V2000
   -2.0160    1.2440   -2.0320 C   0  0  0  0  0  0  0  0  0  0  0  0
   -2.2560    0.7030   -0.8640 C   0  0  0  0  0  0  0  0  0  0  0  0
   -3.8990    0.6020   -0.1020 S   0  0  0  0  0  0  0  0  0  0  0  0
   -3.4520   -0.8080    0.9640 C   0  0  0  0  0  0  0  0  0  0  0  0
   -1.9900   -0.6650    1.0090 C   0  0  0  0  0  0  0  0  0  0  0  0
   -1.4090    0.0650    0.1260 C   0  0  0  0  0  0  0  0  0  0  0  0
    0.0590    0.2820    0.0740 C   0  0  0  0  0  0  0  0  0  0  0  0
    0.6130    0.9960   -0.7900 O   0  0  0  0  0  0  0  0  0  0  0  0
    0.8750   -0.3180    1.0060 O   0  0  0  0  0  0  0  0  0  0  0  0
    2.2830   -0.1750    1.0420 C   0  0  0  0  0  0  0  0  0  0  0  0
    2.8880   -0.6720   -0.2310 C   0  0  0  0  0  0  0  0  0  0  0  0
    4.2960   -0.6200   -0.4070 N   0  0  0  0  0  0  0  0  0  0  0  0
    2.1430   -1.1240   -1.1160 O   0  0  0  0  0  0  0  0  0  0  0  0
  1  2  2  0
  2  3  1  0
  2  6  1  0
  3  4  1  0
  4  5  1  0
  5  6  2  0
  6  7  1  0
  7  8  2  0
  7  9  1  0
  9 10  1  0
 10 11  1  0
 11 12  1  0
 11 13  2  0
M  END
