
     RDKit          3D

 11 11  0  0  0  0  0  0  0  0999 V2000
    2.5290    0.0310    1.0620 C   0  0  0  0  0  0  0  0  0  0  0  0
    2.5900   -0.3390   -0.4040 C   0  0  0  0  0  0  0  0  0  0  0  0
    1.3890    0.2450   -1.1540 C   0  0  0  0  0  0  0  0  0  0  0  0
    0.1230   -0.2280   -0.6480 C   0  0  0  0  0  0  0  0  0  0  0  0
   -0.8600    0.4830   -0.1260 C   0  0  0  0  0  0  0  0  0  0  0  0
   -0.6900    1.9170   -0.0260 C   0  0  0  0  0  0  0  0  0  0  0  0
   -1.7000    2.7400   -0.7920 C   0  0  0  0  0  0  0  0  0  0  0  0
   -2.0330   -0.3130    0.3000 C   0  0  0  0  0  0  0  0  0  0  0  0
   -1.5450   -1.4320    1.1850 C   0  0  0  0  0  0  0  0  0  0  0  0
   -0.4250   -2.1370    0.6350 N   0  0  0  0  0  0  0  0  0  0  0  0
   -0.1280   -1.7210   -0.7190 C   0  0  0  0  0  0  0  0  0  0  0  0
  1  2  1  0
  2  3  1  0
  3  4  1  0
  4  5  2  0
  4 11  1  0
  5  6  1  0
  5  8  1  0
  6  7  1  0
  8  9  1  0
  9 10  1  0
 10 11  1  0
M  CHG  1  10   1
M  END
