
     RDKit          3D

 29 31  0  0  0  0  0  0  0  0999 V2000
   -4.3160   -3.2040    0.8080 C   0  0  0  0  0  0  0  0  0  0  0  0
   -3.3550   -2.4500   -0.1170 C   0  0  0  0  0  0  0  0  0  0  0  0
   -2.6780   -1.4040    0.7080 C   0  0  0  0  0  0  0  0  0  0  0  0
   -1.7330   -0.5910   -0.0010 N   0  0  0  0  0  0  0  0  0  0  0  0
   -0.3870   -0.9080   -0.0990 C   0  0  0  0  0  0  0  0  0  0  0  0
    0.3450   -2.3580    0.6050 S   0  0  0  0  0  0  0  0  0  0  0  0
    0.8860   -1.9730    2.2870 C   0  0  0  0  0  0  0  0  0  0  0  0
    2.0680   -1.0450    2.2970 C   0  0  0  0  0  0  0  0  0  0  0  0
    2.4420   -0.5310    3.3750 O   0  0  0  0  0  0  0  0  0  0  0  0
    2.6860   -0.8210    1.0480 N   0  0  0  0  0  0  0  0  0  0  0  0
    3.7860    0.0290    0.9020 C   0  0  0  0  0  0  0  0  0  0  0  0
    4.1650    0.9870    1.7950 C   0  0  0  0  0  0  0  0  0  0  0  0
    5.3020    1.7850    1.5800 C   0  0  0  0  0  0  0  0  0  0  0  0
    6.0590    1.6170    0.4610 C   0  0  0  0  0  0  0  0  0  0  0  0
    5.6820    0.6430   -0.4580 C   0  0  0  0  0  0  0  0  0  0  0  0
    6.6130    0.3720   -1.9220 S   0  0  1  0  0  0  0  0  0  0  0  0
    5.8180    0.9310   -3.0750 O   0  0  0  0  0  0  0  0  0  0  0  0
    7.9010    1.1090   -1.7840 O   0  0  0  0  0  0  0  0  0  0  0  0
    4.5720   -0.1390   -0.2520 C   0  0  0  0  0  0  0  0  0  0  0  0
    0.1900    0.0480   -0.7920 N   0  0  0  0  0  0  0  0  0  0  0  0
   -0.7150    0.9100   -1.1130 N   0  0  0  0  0  0  0  0  0  0  0  0
   -1.9510    0.5420   -0.6310 C   0  0  0  0  0  0  0  0  0  0  0  0
   -3.1360    1.3510   -0.8410 C   0  0  0  0  0  0  0  0  0  0  0  0
   -4.4260    1.0090   -0.5430 C   0  0  0  0  0  0  0  0  0  0  0  0
   -5.4790    1.9100   -0.7690 C   0  0  0  0  0  0  0  0  0  0  0  0
   -5.2750    3.1600   -1.2940 C   0  0  0  0  0  0  0  0  0  0  0  0
   -6.2390    3.9630   -1.4930 O   0  0  0  0  0  0  0  0  0  0  0  0
   -4.0090    3.4850   -1.5840 N   0  0  0  0  0  0  0  0  0  0  0  0
   -3.0000    2.6440   -1.3750 C   0  0  0  0  0  0  0  0  0  0  0  0
  1  2  1  0
  2  3  1  0
  3  4  1  0
  4  5  1  0
  4 22  1  0
  5  6  1  0
  5 20  2  0
  6  7  1  0
  7  8  1  0
  8  9  2  0
  8 10  1  0
 10 11  1  0
 11 12  2  0
 11 19  1  0
 12 13  1  0
 13 14  2  0
 14 15  1  0
 16 15  1  1
 15 19  2  0
 16 17  2  0
 16 18  2  0
 20 21  1  0
 21 22  2  0
 22 23  1  0
 23 24  1  0
 23 29  2  0
 24 25  2  0
 25 26  1  0
 26 27  2  0
 26 28  1  0
 28 29  1  0
M  END
