
     RDKit          3D

 29 31  0  0  0  0  0  0  0  0999 V2000
    5.1670   -1.5030   -2.8740 C   0  0  0  0  0  0  0  0  0  0  0  0
    4.8800   -1.8060   -1.6420 C   0  0  0  0  0  0  0  0  0  0  0  0
    4.9950   -3.0900   -1.2330 O   0  0  0  0  0  0  0  0  0  0  0  0
    4.6800   -3.2300   -0.0120 C   0  0  0  0  0  0  0  0  0  0  0  0
    4.6960   -4.6330    0.8280 S   0  0  0  0  0  0  0  0  0  0  0  0
    4.3260   -1.9930    0.4700 N   0  0  0  0  0  0  0  0  0  0  0  0
    3.9710   -1.7810    1.8140 C   0  0  0  0  0  0  0  0  0  0  0  0
    2.6180   -2.0450    2.2920 C   0  0  0  0  0  0  0  0  0  0  0  0
    1.4540   -1.4620    1.6810 C   0  0  0  0  0  0  0  0  0  0  0  0
    1.4520   -0.9460    0.5440 O   0  0  0  0  0  0  0  0  0  0  0  0
    0.1870   -1.4300    2.3530 N   0  0  0  0  0  0  0  0  0  0  0  0
   -0.9470   -0.8650    1.7850 C   0  0  0  0  0  0  0  0  0  0  0  0
   -2.2420   -0.7690    2.3430 N   0  0  0  0  0  0  0  0  0  0  0  0
   -3.1170   -0.2470    1.7190 N   0  0  0  0  0  0  0  0  0  0  0  0
   -3.0520    0.2980    0.4840 C   0  0  0  0  0  0  0  0  0  0  0  0
   -3.8950    0.9400   -0.4230 C   0  0  2  0  0  0  0  0  0  0  0  0
   -4.7270    1.9590    0.1900 N   0  0  0  0  0  0  0  0  0  0  0  0
   -4.7360    3.3150   -0.2680 C   0  0  0  0  0  0  0  0  0  0  0  0
   -5.5960    4.3320    0.3780 C   0  0  0  0  0  0  0  0  0  0  0  0
   -3.9790    3.5820   -1.2350 O   0  0  0  0  0  0  0  0  0  0  0  0
   -4.8450   -0.0400   -1.1010 C   0  0  1  0  0  0  0  0  0  0  0  0
   -5.8160    0.4890   -2.1030 C   0  0  0  0  0  0  0  0  0  0  0  0
   -4.6440   -0.3700   -2.5240 C   0  0  0  0  0  0  0  0  0  0  0  0
   -1.2270   -0.0840    0.2360 S   0  0  0  0  0  0  0  0  0  0  0  0
    4.4430   -1.0750   -0.5330 C   0  0  0  0  0  0  0  0  0  0  0  0
    4.2760    0.2270   -0.5200 C   0  0  0  0  0  0  0  0  0  0  0  0
    4.5730    1.0370   -1.7630 C   0  0  0  0  0  0  0  0  0  0  0  0
    3.7710    1.0010    0.5670 C   0  0  0  0  0  0  0  0  0  0  0  0
    3.7000    2.2790    0.4270 O   0  0  0  0  0  0  0  0  0  0  0  0
  1  2  2  0
  2  3  1  0
  2 25  1  0
  3  4  1  0
  4  5  2  0
  4  6  1  0
  6  7  1  0
  6 25  1  0
  7  8  1  0
  8  9  1  0
  9 10  2  0
  9 11  1  0
 11 12  1  0
 12 13  2  0
 12 24  1  0
 13 14  1  0
 14 15  2  0
 15 16  1  0
 15 24  1  0
 16 17  1  1
 16 21  1  0
 17 18  1  0
 18 19  1  0
 18 20  2  0
 21 22  1  6
 21 23  1  0
 22 23  1  0
 25 26  2  3
 26 27  1  0
 26 28  1  0
 28 29  2  0
M  END
