
     RDKit          3D

 29 31  0  0  0  0  0  0  0  0999 V2000
    8.0130   -0.3990    0.1750 C   0  0  0  0  0  0  0  0  0  0  0  0
    7.1300   -0.4500    1.2960 O   0  0  0  0  0  0  0  0  0  0  0  0
    5.7460   -0.6180    1.0890 C   0  0  0  0  0  0  0  0  0  0  0  0
    5.2820   -0.7270   -0.1960 C   0  0  0  0  0  0  0  0  0  0  0  0
    3.9280   -0.8920   -0.3960 C   0  0  0  0  0  0  0  0  0  0  0  0
    3.0860   -0.9410    0.7220 C   0  0  0  0  0  0  0  0  0  0  0  0
    1.3420   -1.1460    0.4850 S   0  0  0  0  0  0  0  0  0  0  0  0
    0.5130    0.4460    0.3470 C   0  0  0  0  0  0  0  0  0  0  0  0
    1.2230    1.5770    0.4430 N   0  0  0  0  0  0  0  0  0  0  0  0
    0.6350    2.7520    0.3390 N   0  0  0  0  0  0  0  0  0  0  0  0
   -0.6960    2.8500    0.1350 C   0  0  0  0  0  0  0  0  0  0  0  0
   -1.3490    4.1660    0.0040 C   0  0  0  0  0  0  0  0  0  0  0  0
   -1.6350    4.6160   -1.3840 C   0  0  0  0  0  0  0  0  0  0  0  0
   -2.7320    3.5160   -2.2880 S   0  0  0  0  0  0  0  0  0  0  0  0
   -1.3960    1.6350    0.0430 C   0  0  0  0  0  0  0  0  0  0  0  0
   -2.6120    1.7730   -0.1410 O   0  0  0  0  0  0  0  0  0  0  0  0
   -0.8420    0.4380    0.1410 N   0  0  0  0  0  0  0  0  0  0  0  0
   -1.4740   -0.7710    0.0620 N   0  0  0  0  0  0  0  0  0  0  0  0
   -2.8190   -1.1010   -0.1550 C   0  0  0  0  0  0  0  0  0  0  0  0
   -3.6670   -0.2150   -0.3190 O   0  0  0  0  0  0  0  0  0  0  0  0
   -3.2970   -2.5240   -0.2010 C   0  0  0  0  0  0  0  0  0  0  0  0
   -4.7480   -2.5880   -0.4460 C   0  0  0  0  0  0  0  0  0  0  0  0
   -5.3750   -2.6430   -1.6820 C   0  0  0  0  0  0  0  0  0  0  0  0
   -6.7420   -2.6920   -1.5030 C   0  0  0  0  0  0  0  0  0  0  0  0
   -6.9490   -2.6660   -0.1380 C   0  0  0  0  0  0  0  0  0  0  0  0
   -5.7480   -2.6050    0.4600 N   0  0  0  0  0  0  0  0  0  0  0  0
    3.5830   -0.8280    1.9990 C   0  0  0  0  0  0  0  0  0  0  0  0
    4.9290   -0.6650    2.1960 C   0  0  0  0  0  0  0  0  0  0  0  0
    5.4820   -0.5460    3.4440 O   0  0  0  0  0  0  0  0  0  0  0  0
  1  2  1  0
  2  3  1  0
  3  4  2  0
  3 28  1  0
  4  5  1  0
  5  6  2  0
  6  7  1  0
  6 27  1  0
  7  8  1  0
  8  9  2  0
  8 17  1  0
  9 10  1  0
 10 11  2  0
 11 12  1  0
 11 15  1  0
 12 13  1  0
 13 14  1  0
 15 16  2  0
 15 17  1  0
 17 18  1  0
 18 19  1  0
 19 20  2  0
 19 21  1  0
 21 22  1  0
 22 23  2  0
 22 26  1  0
 23 24  1  0
 24 25  2  0
 25 26  1  0
 27 28  2  0
 28 29  1  0
M  END
