
     RDKit          3D

 30 33  0  0  0  0  0  0  0  0999 V2000
    2.8600    2.5630   -0.9560 C   0  0  0  0  0  0  0  0  0  0  0  0
    3.8760    1.5450   -0.6060 C   0  0  0  0  0  0  0  0  0  0  0  0
    5.1650    1.5560   -0.8680 C   0  0  0  0  0  0  0  0  0  0  0  0
    5.7990    2.6140   -1.5690 N   0  0  0  0  0  0  0  0  0  0  0  0
    5.7970    0.3920   -0.3620 N   0  0  0  0  0  0  0  0  0  0  0  0
    4.9280   -0.3640    0.2230 C   0  0  0  0  0  0  0  0  0  0  0  0
    5.1990   -1.6050    0.8450 N   0  0  0  0  0  0  0  0  0  0  0  0
    4.6760   -2.8080    0.2500 C   0  0  0  0  0  0  0  0  0  0  0  0
    5.9800   -1.6860    2.0500 C   0  0  0  0  0  0  0  0  0  0  0  0
    3.5970    0.2830    0.1360 C   0  0  0  0  0  0  0  0  0  0  0  0
    2.5620   -0.1180    0.5520 N   0  0  0  0  0  0  0  0  0  0  0  0
    1.4990   -0.6620    1.0520 N   0  0  0  0  0  0  0  0  0  0  0  0
    0.1370   -0.4380    0.6230 C   0  0  0  0  0  0  0  0  0  0  0  0
   -0.4980   -1.3920   -0.1230 C   0  0  0  0  0  0  0  0  0  0  0  0
   -1.7870   -1.1220   -0.5280 C   0  0  0  0  0  0  0  0  0  0  0  0
   -2.4820   -2.0900   -1.3170 N   0  0  0  0  0  0  0  0  0  0  0  0
   -3.8410   -1.8750   -1.7640 C   0  0  2  0  0  0  0  0  0  0  0  0
   -4.7470   -1.7560   -0.5330 C   0  0  0  0  0  0  0  0  0  0  0  0
   -4.4900   -3.1530    0.0570 C   0  0  0  0  0  0  0  0  0  0  0  0
   -4.7560   -4.0250   -1.1540 C   0  0  0  0  0  0  0  0  0  0  0  0
   -4.3260   -3.2070   -2.3560 C   0  0  0  0  0  0  0  0  0  0  0  0
   -2.3540    0.0470   -0.1800 N   0  0  0  0  0  0  0  0  0  0  0  0
   -1.7360    0.9720    0.5440 C   0  0  0  0  0  0  0  0  0  0  0  0
   -2.4260    2.2220    0.8520 C   0  0  0  0  0  0  0  0  0  0  0  0
   -3.6530    2.6490    0.5470 C   0  0  0  0  0  0  0  0  0  0  0  0
   -4.0500    3.8750    0.9360 C   0  0  0  0  0  0  0  0  0  0  0  0
   -3.1650    4.6460    1.6390 C   0  0  0  0  0  0  0  0  0  0  0  0
   -3.2810    6.0010    2.1920 C   0  0  0  0  0  0  0  0  0  0  0  0
   -1.7270    3.5790    1.7440 S   0  0  0  0  0  0  0  0  0  0  0  0
   -0.4780    0.7360    0.9540 N   0  0  0  0  0  0  0  0  0  0  0  0
  1  2  1  0
  2  3  2  0
  2 10  1  0
  3  4  1  0
  3  5  1  0
  5  6  2  0
  6  7  1  0
  6 10  1  0
  7  8  1  0
  7  9  1  0
 10 11  2  3
 11 12  1  0
 12 13  1  0
 13 14  2  0
 13 30  1  0
 14 15  1  0
 15 16  1  0
 15 22  2  0
 17 16  1  1
 17 18  1  0
 17 21  1  0
 18 19  1  0
 19 20  1  0
 20 21  1  0
 22 23  1  0
 23 24  1  0
 23 30  2  0
 24 25  2  0
 24 29  1  0
 25 26  1  0
 26 27  2  0
 27 28  1  0
 27 29  1  0
M  CHG  1   5   1
M  END
