
     RDKit          3D

 29 31  0  0  0  0  0  0  0  0999 V2000
    8.5140   -0.1890   -1.7450 C   0  0  0  0  0  0  0  0  0  0  0  0
    8.7370    0.2220   -0.3190 C   0  0  0  0  0  0  0  0  0  0  0  0
    7.3840    1.2920    0.2140 S   0  0  0  0  0  0  0  0  0  0  0  0
    5.8040    0.3640    0.2670 C   0  0  0  0  0  0  0  0  0  0  0  0
    4.7500    1.3480    0.7200 C   0  0  0  0  0  0  0  0  0  0  0  0
    3.4400    0.7850    0.8180 N   0  0  0  0  0  0  0  0  0  0  0  0
    3.1720   -0.2950    1.6840 C   0  0  0  0  0  0  0  0  0  0  0  0
    4.1140   -0.7690    2.3850 O   0  0  0  0  0  0  0  0  0  0  0  0
    1.8580   -0.9180    1.8330 C   0  0  0  0  0  0  0  0  0  0  0  0
    1.5220   -1.9770    2.6530 C   0  0  0  0  0  0  0  0  0  0  0  0
    0.2300   -2.2200    2.4760 N   0  0  0  0  0  0  0  0  0  0  0  0
   -0.2710   -1.3530    1.5710 N   0  0  0  0  0  0  0  0  0  0  0  0
   -1.5010   -1.2000    1.0670 C   0  0  0  0  0  0  0  0  0  0  0  0
   -1.7620   -0.2280    0.1420 C   0  0  0  0  0  0  0  0  0  0  0  0
   -3.1330   -0.0800   -0.4000 C   0  0  0  0  0  0  0  0  0  0  0  0
   -3.3220    0.2470   -1.6080 O   0  0  0  0  0  0  0  0  0  0  0  0
   -4.2710   -0.2980    0.4090 N   0  0  0  0  0  0  0  0  0  0  0  0
   -5.6280   -0.1600   -0.0940 C   0  0  0  0  0  0  0  0  0  0  0  0
   -6.3890   -1.2250   -0.0400 C   0  0  0  0  0  0  0  0  0  0  0  0
   -7.7750   -1.3810   -0.4670 C   0  0  0  0  0  0  0  0  0  0  0  0
   -8.4420    0.0940   -1.1280 S   0  0  1  0  0  0  0  0  0  0  0  0
   -8.9320   -0.1460   -2.5340 O   0  0  0  0  0  0  0  0  0  0  0  0
   -9.6430    0.4750   -0.2930 O   0  0  0  0  0  0  0  0  0  0  0  0
   -7.2380    1.3540   -1.0890 C   0  0  0  0  0  0  0  0  0  0  0  0
   -6.0310    1.1240   -0.6090 C   0  0  0  0  0  0  0  0  0  0  0  0
   -0.7600    0.6010   -0.2790 C   0  0  0  0  0  0  0  0  0  0  0  0
   -1.0720    1.6500   -1.2860 C   0  0  0  0  0  0  0  0  0  0  0  0
    0.4590    0.4230    0.2430 N   0  0  0  0  0  0  0  0  0  0  0  0
    0.7100   -0.5400    1.1570 C   0  0  0  0  0  0  0  0  0  0  0  0
  1  2  1  0
  2  3  1  0
  3  4  1  0
  4  5  1  0
  5  6  1  0
  6  7  1  0
  7  8  2  0
  7  9  1  0
  9 10  1  0
  9 29  2  0
 10 11  2  0
 11 12  1  0
 12 13  1  0
 12 29  1  0
 13 14  2  0
 14 15  1  0
 14 26  1  0
 15 16  2  0
 15 17  1  0
 17 18  1  0
 18 19  2  0
 18 25  1  0
 19 20  1  0
 21 20  1  1
 21 22  2  0
 21 23  2  0
 21 24  1  0
 24 25  2  0
 26 27  1  0
 26 28  2  0
 28 29  1  0
M  END
