
     RDKit          3D

 29 31  0  0  0  0  0  0  0  0999 V2000
    7.5980    1.1090    1.7390 C   0  0  0  0  0  0  0  0  0  0  0  0
    6.8710   -0.1990    1.9500 C   0  0  0  0  0  0  0  0  0  0  0  0
    5.6510   -0.2790    1.1590 C   0  0  0  0  0  0  0  0  0  0  0  0
    4.0630   -0.0300    1.9020 S   0  0  0  0  0  0  0  0  0  0  0  0
    3.1500   -0.2890    0.2660 C   0  0  0  0  0  0  0  0  0  0  0  0
    1.6810   -0.1820    0.3060 N   0  0  0  0  0  0  0  0  0  0  0  0
    0.9630   -0.3810   -0.9060 C   0  0  0  0  0  0  0  0  0  0  0  0
    1.6400   -0.6370   -1.9230 O   0  0  0  0  0  0  0  0  0  0  0  0
   -0.4920   -0.2830   -0.9250 C   0  0  0  0  0  0  0  0  0  0  0  0
   -1.3310   -0.0110    0.0850 N   0  0  0  0  0  0  0  0  0  0  0  0
   -2.5940   -0.0040   -0.3190 N   0  0  0  0  0  0  0  0  0  0  0  0
   -3.7650    0.2440    0.4600 C   0  0  0  0  0  0  0  0  0  0  0  0
   -4.7820   -0.6580    0.6370 C   0  0  0  0  0  0  0  0  0  0  0  0
   -5.8710   -0.3070    1.4150 C   0  0  0  0  0  0  0  0  0  0  0  0
   -5.9630    0.9330    2.0220 C   0  0  0  0  0  0  0  0  0  0  0  0
   -7.3490    1.3330    2.9930 S   0  0  1  0  0  0  0  0  0  0  0  0
   -7.2120    2.7440    3.5080 O   0  0  0  0  0  0  0  0  0  0  0  0
   -8.6190    1.2860    2.1920 O   0  0  0  0  0  0  0  0  0  0  0  0
   -4.9460    1.8470    1.8510 C   0  0  0  0  0  0  0  0  0  0  0  0
   -3.8770    1.4900    1.0820 C   0  0  0  0  0  0  0  0  0  0  0  0
   -2.5560   -0.2830   -1.6410 C   0  0  0  0  0  0  0  0  0  0  0  0
   -3.7500   -0.3770   -2.5030 C   0  0  0  0  0  0  0  0  0  0  0  0
   -1.2570   -0.4660   -2.0670 C   0  0  0  0  0  0  0  0  0  0  0  0
   -0.7710   -0.7740   -3.3760 N   0  0  0  0  0  0  0  0  0  0  0  0
   -0.5850   -2.0690   -3.8800 C   0  0  0  0  0  0  0  0  0  0  0  0
   -0.8620   -3.0510   -3.1350 O   0  0  0  0  0  0  0  0  0  0  0  0
    4.0480   -0.4830   -0.4260 N   0  0  0  0  0  0  0  0  0  0  0  0
    5.3340   -0.5120   -0.1470 C   0  0  0  0  0  0  0  0  0  0  0  0
    6.4220   -0.7820   -1.1640 C   0  0  0  0  0  0  0  0  0  0  0  0
  1  2  1  0
  2  3  1  0
  3  4  1  0
  3 28  2  0
  4  5  1  0
  5  6  1  0
  5 27  2  0
  6  7  1  0
  7  8  2  0
  7  9  1  0
  9 10  2  0
  9 23  1  0
 10 11  1  0
 11 12  1  0
 11 21  1  0
 12 13  2  0
 12 20  1  0
 13 14  1  0
 14 15  2  0
 16 15  1  6
 15 19  1  0
 16 17  2  0
 16 18  2  0
 19 20  2  0
 21 22  1  0
 21 23  2  0
 23 24  1  0
 24 25  1  0
 25 26  2  0
 27 28  1  0
 28 29  1  0
M  END
