
     RDKit          3D

 27 28  0  0  0  0  0  0  0  0999 V2000
    4.5020    2.5320   -3.7620 C   0  0  0  0  0  0  0  0  0  0  0  0
    4.1410    1.2620   -3.4720 C   0  0  0  0  0  0  0  0  0  0  0  0
    2.8070    1.0100   -3.1710 C   0  0  0  0  0  0  0  0  0  0  0  0
    2.0130   -0.0390   -2.8630 C   0  0  0  0  0  0  0  0  0  0  0  0
    0.5950    0.3140   -2.5970 C   0  0  0  0  0  0  0  0  0  0  0  0
    0.1670   -0.3820   -1.3080 C   0  0  0  0  0  0  0  0  0  0  0  0
    0.7660   -1.4960   -0.9180 C   0  0  0  0  0  0  0  0  0  0  0  0
    0.2470   -2.1720    0.3370 C   0  0  0  0  0  0  0  0  0  0  0  0
   -0.8580   -1.4390    0.8460 O   0  0  0  0  0  0  0  0  0  0  0  0
   -2.0400   -1.4960    0.1380 C   0  0  0  0  0  0  0  0  0  0  0  0
   -2.0110   -2.2370   -0.9160 O   0  0  0  0  0  0  0  0  0  0  0  0
   -3.3010   -0.8270    0.4490 C   0  0  0  0  0  0  0  0  0  0  0  0
   -3.3240    0.1670    1.3850 O   0  0  0  0  0  0  0  0  0  0  0  0
   -2.9400    0.1130    2.6970 C   0  0  0  0  0  0  0  0  0  0  0  0
   -2.4760   -0.9330    3.2130 O   0  0  0  0  0  0  0  0  0  0  0  0
   -3.0790    1.3260    3.5270 C   0  0  1  0  0  0  0  0  0  0  0  0
   -4.5300    1.6750    3.7920 C   0  0  0  0  0  0  0  0  0  0  0  0
   -4.7570    1.9380    5.2690 C   0  0  0  0  0  0  0  0  0  0  0  0
   -3.7760    2.9560    5.8240 C   0  0  0  0  0  0  0  0  0  0  0  0
   -2.3660    2.7430    5.3410 C   0  0  0  0  0  0  0  0  0  0  0  0
   -2.2790    1.2980    4.8030 C   0  0  0  0  0  0  0  0  0  0  0  0
    1.8700   -2.0400   -1.5480 O   0  0  0  0  0  0  0  0  0  0  0  0
    2.5240   -1.3460   -2.6240 C   0  0  0  0  0  0  0  0  0  0  0  0
    3.4480   -1.9500   -3.2850 C   0  0  0  0  0  0  0  0  0  0  0  0
    4.2680   -1.6820   -4.4070 C   0  0  0  0  0  0  0  0  0  0  0  0
    5.1620   -2.6580   -4.7640 C   0  0  0  0  0  0  0  0  0  0  0  0
    5.2130   -3.8850   -3.9830 C   0  0  0  0  0  0  0  0  0  0  0  0
  1  2  2  0
  2  3  1  0
  3  4  2  3
  4  5  1  0
  4 23  1  0
  5  6  1  0
  6  7  2  0
  7  8  1  0
  7 22  1  0
  8  9  1  0
  9 10  1  0
 10 11  2  0
 10 12  1  0
 12 13  1  0
 13 14  1  0
 14 15  2  0
 16 14  1  1
 16 17  1  0
 16 21  1  0
 17 18  1  0
 18 19  1  0
 19 20  1  0
 20 21  1  0
 22 23  1  0
 23 24  2  3
 24 25  1  0
 25 26  2  3
 26 27  1  0
M  END
