
     RDKit          3D

 27 29  0  0  0  0  0  0  0  0999 V2000
    9.2720    0.0380    1.5460 C   0  0  0  0  0  0  0  0  0  0  0  0
    7.9810    0.2900    1.6780 C   0  0  0  0  0  0  0  0  0  0  0  0
    7.0790   -0.0240    0.5940 C   0  0  0  0  0  0  0  0  0  0  0  0
    7.5370   -0.5300   -0.4560 O   0  0  0  0  0  0  0  0  0  0  0  0
    5.6710    0.2430    0.7180 C   0  0  0  0  0  0  0  0  0  0  0  0
    4.8610   -0.0550   -0.2940 C   0  0  0  0  0  0  0  0  0  0  0  0
    5.2200   -0.6160   -1.5110 O   0  0  0  0  0  0  0  0  0  0  0  0
    4.1010   -0.7720   -2.2960 C   0  0  0  0  0  0  0  0  0  0  0  0
    4.0330   -1.2520   -3.4730 O   0  0  0  0  0  0  0  0  0  0  0  0
    2.9600   -0.2870   -1.5480 C   0  0  0  0  0  0  0  0  0  0  0  0
    1.6220   -0.2110   -1.8570 C   0  0  0  0  0  0  0  0  0  0  0  0
    0.7180    0.3130   -0.9280 C   0  0  0  0  0  0  0  0  0  0  0  0
   -0.7270    0.4070   -1.2430 C   0  0  1  0  0  0  0  0  0  0  0  0
   -1.1030    1.8400   -1.5680 C   0  0  0  0  0  0  0  0  0  0  0  0
   -1.0490   -0.4440   -2.4560 C   0  0  0  0  0  0  0  0  0  0  0  0
   -1.5040   -0.0910   -0.0950 C   0  0  0  0  0  0  0  0  0  0  0  0
   -1.0170   -0.5370    0.9760 O   0  0  0  0  0  0  0  0  0  0  0  0
   -2.9130   -0.0920   -0.1390 O   0  0  0  0  0  0  0  0  0  0  0  0
   -3.6980   -0.5610    0.9400 C   0  0  1  0  0  0  0  0  0  0  0  0
   -4.5500    0.5320    1.5220 C   0  0  0  0  0  0  0  0  0  0  0  0
   -5.8960    0.6570    0.8960 C   0  0  0  0  0  0  0  0  0  0  0  0
   -6.6350   -0.6470    0.7700 C   0  0  0  0  0  0  0  0  0  0  0  0
   -5.7860   -1.7900    1.3380 C   0  0  0  0  0  0  0  0  0  0  0  0
   -4.4960   -1.7810    0.5420 C   0  0  0  0  0  0  0  0  0  0  0  0
    1.2090    0.7410    0.2800 C   0  0  0  0  0  0  0  0  0  0  0  0
    2.5550    0.6780    0.6230 C   0  0  0  0  0  0  0  0  0  0  0  0
    3.4200    0.1590   -0.3090 C   0  0  0  0  0  0  0  0  0  0  0  0
  1  2  2  0
  2  3  1  0
  3  4  2  0
  3  5  1  0
  5  6  2  3
  6  7  1  0
  6 27  1  0
  7  8  1  0
  8  9  2  0
  8 10  1  0
 10 11  2  0
 10 27  1  0
 11 12  1  0
 12 13  1  0
 12 25  2  0
 13 14  1  6
 13 15  1  0
 13 16  1  0
 16 17  2  0
 16 18  1  0
 19 18  1  6
 19 20  1  0
 19 24  1  0
 20 21  1  0
 21 22  1  0
 22 23  1  0
 23 24  1  0
 25 26  1  0
 26 27  2  0
M  END
