
     RDKit          3D

 27 29  0  0  0  0  0  0  0  0999 V2000
   -3.7740   -2.9830   -0.0700 C   0  0  0  0  0  0  0  0  0  0  0  0
   -3.6500   -1.9900   -1.1820 C   0  0  0  0  0  0  0  0  0  0  0  0
   -2.9110   -0.7800   -0.6030 C   0  0  0  0  0  0  0  0  0  0  0  0
   -3.6150   -0.2690    0.5600 C   0  0  0  0  0  0  0  0  0  0  0  0
   -3.1480    0.6330    1.5940 C   0  0  0  0  0  0  0  0  0  0  0  0
   -4.8480   -0.6820    0.7240 O   0  0  0  0  0  0  0  0  0  0  0  0
   -1.7370   -0.4690   -1.0260 C   0  0  0  0  0  0  0  0  0  0  0  0
   -0.9990   -1.2660   -2.0720 C   0  0  0  0  0  0  0  0  0  0  0  0
    0.4200   -1.5480   -1.5440 C   0  0  0  0  0  0  0  0  0  0  0  0
    0.9500   -0.4950   -0.6570 C   0  0  0  0  0  0  0  0  0  0  0  0
    2.1020   -0.7050   -0.0330 C   0  0  0  0  0  0  0  0  0  0  0  0
    2.6950    0.2740    0.8650 C   0  0  0  0  0  0  0  0  0  0  0  0
    3.8640   -0.0000    1.4230 C   0  0  0  0  0  0  0  0  0  0  0  0
    4.5840   -1.2370    1.1780 C   0  0  0  0  0  0  0  0  0  0  0  0
    4.1160   -2.1750    0.3790 C   0  0  0  0  0  0  0  0  0  0  0  0
    4.8780   -3.4530    0.1380 C   0  0  0  0  0  0  0  0  0  0  0  0
    2.8200   -1.9350   -0.2750 C   0  0  0  0  0  0  0  0  0  0  0  0
    2.4300   -2.8720   -1.0300 O   0  0  0  0  0  0  0  0  0  0  0  0
    0.2890    0.7890   -0.4560 C   0  0  0  0  0  0  0  0  0  0  0  0
    0.6390    2.0210   -0.1360 O   0  0  0  0  0  0  0  0  0  0  0  0
   -0.3690    2.8320   -0.0990 C   0  0  0  0  0  0  0  0  0  0  0  0
   -0.3170    4.2420    0.2180 C   0  0  0  0  0  0  0  0  0  0  0  0
   -1.3640    4.9720    0.2290 O   0  0  0  0  0  0  0  0  0  0  0  0
    0.8620    4.8830    0.5270 O   0  0  0  0  0  0  0  0  0  0  0  0
    0.8920    6.2630    0.8350 C   0  0  0  0  0  0  0  0  0  0  0  0
   -1.4800    2.0870   -0.4200 C   0  0  0  0  0  0  0  0  0  0  0  0
   -1.0960    0.7840   -0.6480 C   0  0  0  0  0  0  0  0  0  0  0  0
  1  2  1  0
  2  3  1  0
  3  4  1  0
  3  7  2  3
  4  5  1  0
  4  6  2  0
  7  8  1  0
  7 27  1  0
  8  9  1  0
  9 10  1  0
 10 11  2  3
 10 19  1  0
 11 12  1  0
 11 17  1  0
 12 13  2  0
 13 14  1  0
 14 15  2  0
 15 16  1  0
 15 17  1  0
 17 18  2  0
 19 20  1  0
 19 27  2  0
 20 21  1  0
 21 22  1  0
 21 26  2  0
 22 23  2  0
 22 24  1  0
 24 25  1  0
 26 27  1  0
M  END
