
     RDKit          3D

 27 29  0  0  0  0  0  0  0  0999 V2000
   -5.1550   -2.7470    1.2000 C   0  0  0  0  0  0  0  0  0  0  0  0
   -3.8140   -2.3100    0.7780 C   0  0  0  0  0  0  0  0  0  0  0  0
   -2.7750   -3.2120    0.9150 C   0  0  0  0  0  0  0  0  0  0  0  0
   -1.5000   -2.8140    0.5210 C   0  0  0  0  0  0  0  0  0  0  0  0
   -0.3870   -3.7440    0.6540 C   0  0  0  0  0  0  0  0  0  0  0  0
    0.7680   -3.3900    0.2990 O   0  0  0  0  0  0  0  0  0  0  0  0
   -1.2910   -1.5520    0.0080 C   0  0  0  0  0  0  0  0  0  0  0  0
   -0.0130   -1.1860   -0.3750 O   0  0  0  0  0  0  0  0  0  0  0  0
    0.8720   -0.5930    0.4890 C   0  0  0  0  0  0  0  0  0  0  0  0
    0.4830   -0.3850    1.6670 O   0  0  0  0  0  0  0  0  0  0  0  0
    2.2300   -0.1990    0.0980 C   0  0  0  0  0  0  0  0  0  0  0  0
    3.0680    0.3930    1.0190 C   0  0  0  0  0  0  0  0  0  0  0  0
    4.3570    0.7820    0.6990 C   0  0  0  0  0  0  0  0  0  0  0  0
    4.7690    0.5480   -0.5970 C   0  0  0  0  0  0  0  0  0  0  0  0
    3.9580   -0.0430   -1.5450 C   0  0  0  0  0  0  0  0  0  0  0  0
    2.6860   -0.4130   -1.1850 C   0  0  0  0  0  0  0  0  0  0  0  0
    1.8030   -1.0140   -2.0750 O   0  0  0  0  0  0  0  0  0  0  0  0
    6.1650    1.0310   -0.7390 C   0  0  0  0  0  0  0  0  0  0  0  0
    6.2420    2.1060    0.3220 C   0  0  0  0  0  0  0  0  0  0  0  0
    5.4720    1.4330    1.4650 C   0  0  0  0  0  0  0  0  0  0  0  0
   -2.3150   -0.6470   -0.1330 C   0  0  0  0  0  0  0  0  0  0  0  0
   -2.0440    0.5830   -0.6460 O   0  0  0  0  0  0  0  0  0  0  0  0
   -2.9120    1.6410   -0.8750 C   0  0  2  0  0  0  0  0  0  0  0  0
   -3.5380    2.0360    0.4630 C   0  0  0  0  0  0  0  0  0  0  0  0
   -3.9950    1.3590   -1.8590 C   0  0  0  0  0  0  0  0  0  0  0  0
   -2.0690    2.8180   -1.3850 C   0  0  0  0  0  0  0  0  0  0  0  0
   -3.5730   -1.0470    0.2590 C   0  0  0  0  0  0  0  0  0  0  0  0
  1  2  1  0
  2  3  2  0
  2 27  1  0
  3  4  1  0
  4  5  1  0
  4  7  2  0
  5  6  2  0
  7  8  1  0
  7 21  1  0
  8  9  1  0
  9 10  2  0
  9 11  1  0
 11 12  2  0
 11 16  1  0
 12 13  1  0
 13 14  2  0
 13 20  1  0
 14 15  1  0
 14 18  1  0
 15 16  2  0
 16 17  1  0
 18 19  1  0
 19 20  1  0
 21 22  1  0
 21 27  2  0
 22 23  1  0
 23 24  1  1
 23 25  1  0
 23 26  1  0
M  END
