
     RDKit          3D

 24 26  0  0  0  0  0  0  0  0999 V2000
    4.5290    2.0000   -0.5170 C   0  0  0  0  0  0  0  0  0  0  0  0
    3.6240    0.8490   -0.1320 C   0  0  0  0  0  0  0  0  0  0  0  0
    3.9120   -0.4460   -0.1520 N   0  0  0  0  0  0  0  0  0  0  0  0
    2.8370   -1.1260    0.2630 N   0  0  0  0  0  0  0  0  0  0  0  0
    1.8680   -0.2920    0.5480 C   0  0  0  0  0  0  0  0  0  0  0  0
    0.4830   -0.5090    1.0390 C   0  0  0  0  0  0  0  0  0  0  0  0
   -0.5330   -0.6540   -0.0590 C   0  0  2  0  0  0  0  0  0  0  0  0
   -0.4540   -1.7800   -0.9720 C   0  0  0  0  0  0  0  0  0  0  0  0
   -0.6660   -3.1720   -0.5340 C   0  0  2  0  0  0  0  0  0  0  0  0
   -0.4440   -3.9200   -1.7600 O   0  0  0  0  0  0  0  0  0  0  0  0
   -2.1440   -3.4780   -0.3070 C   0  0  0  0  0  0  0  0  0  0  0  0
   -2.4670   -3.3110    1.1300 C   0  0  0  0  0  0  0  0  0  0  0  0
   -0.9600   -3.9100    1.9460 S   0  0  0  0  0  0  0  0  0  0  0  0
    0.1510   -3.8120    0.4760 C   0  0  0  0  0  0  0  0  0  0  0  0
   -0.4710    0.5960   -0.8400 N   0  0  0  0  0  0  0  0  0  0  0  0
   -0.9030    1.8420   -0.4030 C   0  0  0  0  0  0  0  0  0  0  0  0
   -1.6600    2.0020    0.7310 C   0  0  0  0  0  0  0  0  0  0  0  0
   -2.0680    3.2730    1.1510 C   0  0  0  0  0  0  0  0  0  0  0  0
   -2.8300    3.4350    2.2920 O   0  0  0  0  0  0  0  0  0  0  0  0
   -1.7220    4.4010    0.4390 C   0  0  0  0  0  0  0  0  0  0  0  0
   -0.9670    4.2430   -0.6920 C   0  0  0  0  0  0  0  0  0  0  0  0
   -0.6030    5.3520   -1.4280 O   0  0  0  0  0  0  0  0  0  0  0  0
   -0.5670    2.9780   -1.1010 C   0  0  0  0  0  0  0  0  0  0  0  0
    2.3680    0.9620    0.2970 N   0  0  0  0  0  0  0  0  0  0  0  0
  1  2  1  0
  2  3  2  0
  2 24  1  0
  3  4  1  0
  4  5  1  0
  5  6  1  0
  5 24  2  0
  7  6  1  1
  7  8  1  0
  7 15  1  0
  8  9  1  0
  9 10  1  6
  9 11  1  0
  9 14  1  0
 11 12  1  0
 12 13  1  0
 13 14  1  0
 15 16  1  0
 16 17  2  0
 16 23  1  0
 17 18  1  0
 18 19  1  0
 18 20  2  0
 20 21  1  0
 21 22  1  0
 21 23  2  0
M  CHG  1  24   1
M  END
