
     RDKit          3D

 24 25  0  0  0  0  0  0  0  0999 V2000
    5.2890    0.5500   -2.0610 C   0  0  0  0  0  0  0  0  0  0  0  0
    3.9460    0.4140   -1.4130 C   0  0  0  0  0  0  0  0  0  0  0  0
    2.8930   -0.1460   -2.1180 C   0  0  0  0  0  0  0  0  0  0  0  0
    1.6720   -0.2550   -1.4910 C   0  0  0  0  0  0  0  0  0  0  0  0
    1.4520    0.1630   -0.2070 C   0  0  0  0  0  0  0  0  0  0  0  0
    0.1840    0.0550    0.4710 N   0  0  0  0  0  0  0  0  0  0  0  0
   -0.3500   -1.2340    0.8150 C   0  0  0  0  0  0  0  0  0  0  0  0
   -1.0700   -1.9510   -0.2720 C   0  0  1  0  0  0  0  0  0  0  0  0
   -0.2850   -3.0910   -0.7710 N   0  0  0  0  0  0  0  0  0  0  0  0
   -2.3700   -2.5310    0.2340 C   0  0  0  0  0  0  0  0  0  0  0  0
   -3.0420   -1.4600    1.5030 S   0  0  0  0  0  0  0  0  0  0  0  0
   -4.7210   -0.9980    1.1890 C   0  0  0  0  0  0  0  0  0  0  0  0
   -5.1280    0.2590    1.1500 C   0  0  0  0  0  0  0  0  0  0  0  0
   -4.2520    1.3570    1.3560 N   0  0  0  0  0  0  0  0  0  0  0  0
   -4.0240    1.9490    0.0490 C   0  0  0  0  0  0  0  0  0  0  0  0
   -2.6530    1.4330   -0.4160 C   0  0  0  0  0  0  0  0  0  0  0  0
   -1.8080    1.5340    0.6800 O   0  0  0  0  0  0  0  0  0  0  0  0
   -0.4560    1.3110    0.7630 C   0  0  0  0  0  0  0  0  0  0  0  0
    0.3490    2.2540    1.1240 O   0  0  0  0  0  0  0  0  0  0  0  0
    2.5460    0.7230    0.4680 C   0  0  0  0  0  0  0  0  0  0  0  0
    3.7890    0.8610   -0.0990 C   0  0  0  0  0  0  0  0  0  0  0  0
    4.9280    1.4160    0.5370 N   0  0  0  0  0  0  0  0  0  0  0  0
    4.9960    1.9450    1.8340 C   0  0  0  0  0  0  0  0  0  0  0  0
    4.0000    1.9690    2.5700 O   0  0  0  0  0  0  0  0  0  0  0  0
  1  2  1  0
  2  3  2  0
  2 21  1  0
  3  4  1  0
  4  5  2  0
  5  6  1  0
  5 20  1  0
  6  7  1  0
  6 18  1  0
  7  8  1  0
  8  9  1  1
  8 10  1  0
 10 11  1  0
 11 12  1  0
 12 13  2  0
 13 14  1  0
 14 15  1  0
 15 16  1  0
 16 17  1  0
 17 18  1  0
 18 19  2  0
 20 21  2  0
 21 22  1  0
 22 23  1  0
 23 24  2  0
M  CHG  2   9   1  14   1
M  END
