
     RDKit          3D

 27 28  0  0  0  0  0  0  0  0999 V2000
   -5.4750    3.6540    0.0750 C   0  0  0  0  0  0  0  0  0  0  0  0
   -4.6610    2.6270   -0.5790 N   0  0  0  0  0  0  0  0  0  0  0  0
   -4.1280    1.5360    0.1480 C   0  0  0  0  0  0  0  0  0  0  0  0
   -4.3510    1.4340    1.3800 O   0  0  0  0  0  0  0  0  0  0  0  0
   -3.2850    0.4800   -0.5470 C   0  0  0  0  0  0  0  0  0  0  0  0
   -2.8480   -0.5380    0.3850 C   0  0  0  0  0  0  0  0  0  0  0  0
   -1.6730   -0.8730    0.7450 C   0  0  0  0  0  0  0  0  0  0  0  0
   -1.4960   -1.9350    1.7010 O   0  0  0  0  0  0  0  0  0  0  0  0
   -2.2210   -3.0820    1.4670 C   0  0  0  0  0  0  0  0  0  0  0  0
   -3.2840   -3.4600    2.1490 C   0  0  0  0  0  0  0  0  0  0  0  0
   -3.7410   -4.7390    1.5650 C   0  0  0  0  0  0  0  0  0  0  0  0
   -2.7600   -5.0780    0.7460 C   0  0  0  0  0  0  0  0  0  0  0  0
   -1.9540   -4.0740    0.4400 C   0  0  0  0  0  0  0  0  0  0  0  0
   -0.4370   -0.2520    0.2590 C   0  0  0  0  0  0  0  0  0  0  0  0
   -0.4780    0.6700   -0.5600 O   0  0  0  0  0  0  0  0  0  0  0  0
    0.8260   -0.6920    0.7150 N   0  0  0  0  0  0  0  0  0  0  0  0
    2.0490   -0.1430    0.3010 C   0  0  0  0  0  0  0  0  0  0  0  0
    3.2160   -0.8610    0.6220 C   0  0  0  0  0  0  0  0  0  0  0  0
    4.4520   -0.3980    0.2750 C   0  0  0  0  0  0  0  0  0  0  0  0
    4.6600    0.8020   -0.4150 C   0  0  0  0  0  0  0  0  0  0  0  0
    5.9860    1.1600   -0.7360 N   0  0  0  0  0  0  0  0  0  0  0  0
    7.1100    0.3400   -0.3140 C   0  0  0  0  0  0  0  0  0  0  0  0
    3.5290    1.5010   -0.7270 C   0  0  0  0  0  0  0  0  0  0  0  0
    3.6320    2.7310   -1.4280 N   0  0  0  0  0  0  0  0  0  0  0  0
    4.5870    3.4770   -1.2320 O   0  0  0  0  0  0  0  0  0  0  0  0
    2.6580    3.1170   -2.3130 O   0  0  0  0  0  0  0  0  0  0  0  0
    2.2490    1.0250   -0.3690 C   0  0  0  0  0  0  0  0  0  0  0  0
  1  2  1  0
  2  3  1  0
  3  4  2  0
  3  5  1  0
  5  6  1  0
  6  7  2  3
  7  8  1  0
  7 14  1  0
  8  9  1  0
  9 10  2  0
  9 13  1  0
 10 11  1  0
 11 12  2  0
 12 13  2  0
 14 15  2  0
 14 16  1  0
 16 17  1  0
 17 18  2  0
 17 27  1  0
 18 19  1  0
 19 20  2  0
 20 21  1  0
 20 23  1  0
 21 22  1  0
 23 24  1  0
 23 27  2  0
 24 25  2  0
 24 26  1  0
M  CHG  2  24   1  26  -1
M  END
