
     RDKit          3D

 27 28  0  0  0  0  0  0  0  0999 V2000
   -7.7770    1.3210    1.3470 C   0  0  0  0  0  0  0  0  0  0  0  0
   -6.5520    1.6650    2.1540 C   0  0  0  0  0  0  0  0  0  0  0  0
   -5.3780    1.4580    1.4800 O   0  0  0  0  0  0  0  0  0  0  0  0
   -5.1940    0.1360    1.0820 C   0  0  0  0  0  0  0  0  0  0  0  0
   -3.8860    0.0380    0.3610 C   0  0  0  0  0  0  0  0  0  0  0  0
   -3.4690   -1.1290   -0.1290 N   0  0  0  0  0  0  0  0  0  0  0  0
   -2.2800   -1.2540   -0.7920 C   0  0  0  0  0  0  0  0  0  0  0  0
   -1.8550   -2.5710   -1.3210 C   0  0  0  0  0  0  0  0  0  0  0  0
   -1.4370   -0.1610   -0.9900 C   0  0  0  0  0  0  0  0  0  0  0  0
   -0.1880   -0.3510   -1.6980 C   0  0  0  0  0  0  0  0  0  0  0  0
    0.1560   -1.4980   -2.1370 O   0  0  0  0  0  0  0  0  0  0  0  0
    0.7400    0.6830   -1.9640 N   0  0  0  0  0  0  0  0  0  0  0  0
    1.9830    0.4410   -2.6800 C   0  0  0  0  0  0  0  0  0  0  0  0
    2.8490   -0.5470   -1.9720 C   0  0  0  0  0  0  0  0  0  0  0  0
    2.4230   -1.0220   -0.8970 O   0  0  0  0  0  0  0  0  0  0  0  0
    4.0550   -0.8800   -2.5320 O   0  0  0  0  0  0  0  0  0  0  0  0
    4.8960   -1.7980   -1.8860 C   0  0  0  0  0  0  0  0  0  0  0  0
    5.3620   -1.2610   -0.6130 C   0  0  0  0  0  0  0  0  0  0  0  0
    5.0800   -0.0890   -0.0940 C   0  0  0  0  0  0  0  0  0  0  0  0
    5.6360    0.2970    1.2100 C   0  0  0  0  0  0  0  0  0  0  0  0
    5.4640    1.4210    1.8800 C   0  0  0  0  0  0  0  0  0  0  0  0
    6.2380    1.2930    3.1220 C   0  0  0  0  0  0  0  0  0  0  0  0
    6.8370    0.2060    3.0140 N   0  0  0  0  0  0  0  0  0  0  0  0
    6.5090   -0.5230    2.0280 C   0  0  0  0  0  0  0  0  0  0  0  0
   -1.8930    1.0280   -0.4740 C   0  0  0  0  0  0  0  0  0  0  0  0
   -1.2020    2.0760   -0.6010 O   0  0  0  0  0  0  0  0  0  0  0  0
   -3.0920    1.0960    0.1810 N   0  0  0  0  0  0  0  0  0  0  0  0
  1  2  1  0
  2  3  1  0
  3  4  1  0
  4  5  1  0
  5  6  2  0
  5 27  1  0
  6  7  1  0
  7  8  1  0
  7  9  2  0
  9 10  1  0
  9 25  1  0
 10 11  2  0
 10 12  1  0
 12 13  1  0
 13 14  1  0
 14 15  2  0
 14 16  1  0
 16 17  1  0
 17 18  1  0
 18 19  2  3
 19 20  1  0
 20 21  2  0
 20 24  1  0
 21 22  1  0
 22 23  2  0
 23 24  2  0
 25 26  2  0
 25 27  1  0
M  CHG  1  23   1
M  END
