
     RDKit          3D

 27 28  0  0  0  0  0  0  0  0999 V2000
   -5.7360   -4.4760   -2.1350 C   0  0  0  0  0  0  0  0  0  0  0  0
   -5.9560   -3.4530   -1.0200 C   0  0  0  0  0  0  0  0  0  0  0  0
   -5.4470   -2.2800   -1.1640 O   0  0  0  0  0  0  0  0  0  0  0  0
   -5.0060   -1.0970   -1.4080 C   0  0  0  0  0  0  0  0  0  0  0  0
   -5.4080   -0.3560   -2.4990 C   0  0  0  0  0  0  0  0  0  0  0  0
   -4.9680    0.9030   -2.7980 C   0  0  0  0  0  0  0  0  0  0  0  0
   -4.0530    1.5020   -1.9630 C   0  0  0  0  0  0  0  0  0  0  0  0
   -3.5630    2.7730   -2.2020 O   0  0  0  0  0  0  0  0  0  0  0  0
   -3.9410    3.5670   -3.3010 C   0  0  0  0  0  0  0  0  0  0  0  0
   -3.6280    0.7790   -0.8500 C   0  0  0  0  0  0  0  0  0  0  0  0
   -4.0580   -0.4730   -0.5450 C   0  0  0  0  0  0  0  0  0  0  0  0
   -3.6220   -1.1840    0.5630 O   0  0  0  0  0  0  0  0  0  0  0  0
   -2.6550   -0.7620    1.4830 C   0  0  0  0  0  0  0  0  0  0  0  0
   -1.3260   -0.6900    0.8110 C   0  0  0  0  0  0  0  0  0  0  0  0
   -0.2860   -0.2280    1.7420 N   0  0  0  0  0  0  0  0  0  0  0  0
    1.0460   -0.1090    1.2370 C   0  0  0  0  0  0  0  0  0  0  0  0
    1.2920   -0.4040    0.0430 O   0  0  0  0  0  0  0  0  0  0  0  0
    2.1190    0.3390    2.0460 N   0  0  0  0  0  0  0  0  0  0  0  0
    3.4650    0.4810    1.6200 C   0  0  0  0  0  0  0  0  0  0  0  0
    4.0070    0.0080    0.4290 C   0  0  0  0  0  0  0  0  0  0  0  0
    5.3410    0.3700    0.3850 C   0  0  0  0  0  0  0  0  0  0  0  0
    5.6270    1.0550    1.5260 N   0  0  0  0  0  0  0  0  0  0  0  0
    6.9100    1.6220    1.8820 C   0  0  0  0  0  0  0  0  0  0  0  0
    7.7360    0.6390    2.6540 C   0  0  0  0  0  0  0  0  0  0  0  0
    9.0340    1.1890    3.0170 N   0  0  0  0  0  0  0  0  0  0  0  0
    8.9550    2.5530    3.1150 O   0  0  0  0  0  0  0  0  0  0  0  0
    4.5070    1.1170    2.2540 C   0  0  0  0  0  0  0  0  0  0  0  0
  1  2  1  0
  2  3  1  0
  3  4  1  0
  4  5  2  0
  4 11  1  0
  5  6  1  0
  6  7  2  0
  7  8  1  0
  7 10  1  0
  8  9  1  0
 10 11  2  0
 11 12  1  0
 12 13  1  0
 13 14  1  0
 14 15  1  0
 15 16  1  0
 16 17  2  0
 16 18  1  0
 18 19  1  0
 19 20  1  0
 19 27  2  0
 20 21  2  0
 21 22  1  0
 22 23  1  0
 22 27  1  0
 23 24  1  0
 24 25  1  0
 25 26  1  0
M  CHG  2  25   1  26  -1
M  END
