
     RDKit          3D

 27 28  0  0  0  0  0  0  0  0999 V2000
   -7.2550    1.8540   -1.4500 C   0  0  0  0  0  0  0  0  0  0  0  0
   -6.1140    0.8600   -1.5150 C   0  0  0  0  0  0  0  0  0  0  0  0
   -4.8100    1.5880   -1.2360 C   0  0  0  0  0  0  0  0  0  0  0  0
   -3.7500    0.6210   -1.3040 N   0  0  0  0  0  0  0  0  0  0  0  0
   -3.1410    0.3970   -2.4830 O   0  0  0  0  0  0  0  0  0  0  0  0
   -3.2940   -0.1340   -0.1720 C   0  0  0  0  0  0  0  0  0  0  0  0
   -3.8740    0.0970    0.8960 O   0  0  0  0  0  0  0  0  0  0  0  0
   -2.2140   -1.1100   -0.2740 C   0  0  0  0  0  0  0  0  0  0  0  0
   -1.8230   -1.8170    0.9020 N   0  0  0  0  0  0  0  0  0  0  0  0
   -1.3140   -1.2350    2.0850 C   0  0  0  0  0  0  0  0  0  0  0  0
   -1.9770   -0.9520    3.2550 C   0  0  0  0  0  0  0  0  0  0  0  0
   -3.3850   -1.2290    3.6330 C   0  0  0  0  0  0  0  0  0  0  0  0
   -1.1350   -0.3640    4.1550 N   0  0  0  0  0  0  0  0  0  0  0  0
    0.0230   -0.2870    3.5590 N   0  0  0  0  0  0  0  0  0  0  0  0
   -0.0060   -0.7910    2.3130 C   0  0  0  0  0  0  0  0  0  0  0  0
    1.1100   -0.8860    1.3810 C   0  0  0  0  0  0  0  0  0  0  0  0
    1.0240   -1.3940    0.2470 O   0  0  0  0  0  0  0  0  0  0  0  0
    2.3860   -0.3970    1.7170 O   0  0  0  0  0  0  0  0  0  0  0  0
    3.4520   -0.4870    0.8300 C   0  0  0  0  0  0  0  0  0  0  0  0
    4.2940   -1.5840    0.8150 C   0  0  0  0  0  0  0  0  0  0  0  0
    5.3410   -1.6400   -0.0770 C   0  0  0  0  0  0  0  0  0  0  0  0
    5.6080   -0.6240   -0.9940 C   0  0  0  0  0  0  0  0  0  0  0  0
    4.7810    0.4720   -0.9910 C   0  0  0  0  0  0  0  0  0  0  0  0
    4.9550    1.5380   -1.8540 O   0  0  0  0  0  0  0  0  0  0  0  0
    6.0050    1.5630   -2.7680 C   0  0  0  0  0  0  0  0  0  0  0  0
    7.3380    1.5610   -2.0550 C   0  0  0  0  0  0  0  0  0  0  0  0
    3.7150    0.5120   -0.0710 C   0  0  0  0  0  0  0  0  0  0  0  0
  1  2  1  0
  2  3  1  0
  3  4  1  0
  4  5  1  0
  4  6  1  0
  6  7  2  0
  6  8  1  0
  8  9  1  0
  9 10  1  0
 10 11  1  0
 10 15  2  0
 11 12  1  0
 11 13  2  0
 13 14  1  0
 14 15  1  0
 15 16  1  0
 16 17  2  0
 16 18  1  0
 18 19  1  0
 19 20  2  0
 19 27  1  0
 20 21  1  0
 21 22  2  0
 22 23  1  0
 23 24  1  0
 23 27  2  0
 24 25  1  0
 25 26  1  0
M  CHG  1   5  -1
M  END
