
     RDKit          3D

 25 28  0  0  0  0  0  0  0  0999 V2000
    5.6690   -3.1400    0.6410 C   0  0  0  0  0  0  0  0  0  0  0  0
    5.1730   -1.7250    0.7130 C   0  0  0  0  0  0  0  0  0  0  0  0
    3.8710   -1.3530    0.4990 C   0  0  0  0  0  0  0  0  0  0  0  0
    3.7910    0.0100    0.6470 C   0  0  0  0  0  0  0  0  0  0  0  0
    2.6310    0.9090    0.5270 C   0  0  0  0  0  0  0  0  0  0  0  0
    1.4380    0.2230    0.2020 N   0  0  0  0  0  0  0  0  0  0  0  0
    1.3990   -0.4940   -1.0160 C   0  0  0  0  0  0  0  0  0  0  0  0
    0.3680    0.2130   -1.8930 C   0  0  0  0  0  0  0  0  0  0  0  0
   -0.5670    0.9290   -0.9090 C   0  0  1  0  0  0  0  0  0  0  0  0
   -0.9040    2.2890   -1.5200 C   0  0  0  0  0  0  0  0  0  0  0  0
   -1.8180    0.1730   -0.7600 N   0  0  0  0  0  0  0  0  0  0  0  0
   -2.8600    0.5730    0.0910 C   0  0  0  0  0  0  0  0  0  0  0  0
   -2.7170    1.7350    0.8550 C   0  0  0  0  0  0  0  0  0  0  0  0
   -3.7590    2.0890    1.6770 C   0  0  0  0  0  0  0  0  0  0  0  0
   -4.8730    1.3600    1.7530 N   0  0  0  0  0  0  0  0  0  0  0  0
   -5.0230    0.2240    1.0110 C   0  0  0  0  0  0  0  0  0  0  0  0
   -4.0230   -0.2010    0.1610 C   0  0  0  0  0  0  0  0  0  0  0  0
   -4.2310   -1.2910   -0.5170 C   0  0  0  0  0  0  0  0  0  0  0  0
   -5.4190   -2.1730   -0.5110 C   0  0  0  0  0  0  0  0  0  0  0  0
   -6.4680   -1.6940    0.4030 C   0  0  0  0  0  0  0  0  0  0  0  0
   -6.1420   -0.4650    1.1170 C   0  0  0  0  0  0  0  0  0  0  0  0
    0.2420    1.0140    0.3250 C   0  0  0  0  0  0  0  0  0  0  0  0
    5.0790    0.4660    0.9600 C   0  0  0  0  0  0  0  0  0  0  0  0
    5.4540    1.8930    1.2070 C   0  0  0  0  0  0  0  0  0  0  0  0
    5.8750   -0.6180    0.9870 N   0  0  0  0  0  0  0  0  0  0  0  0
  1  2  1  0
  2  3  2  0
  2 25  1  0
  3  4  1  0
  4  5  1  0
  4 23  2  0
  5  6  1  0
  6  7  1  0
  6 22  1  0
  7  8  1  0
  8  9  1  0
  9 10  1  6
  9 11  1  0
  9 22  1  0
 11 12  1  0
 12 13  2  0
 12 17  1  0
 13 14  1  0
 14 15  2  0
 15 16  1  0
 16 17  1  0
 16 21  2  0
 17 18  2  0
 18 19  1  0
 19 20  1  0
 20 21  1  0
 23 24  1  0
 23 25  1  0
M  END
