
     RDKit          3D

 26 27  0  0  0  0  0  0  0  0999 V2000
   -2.1720    3.6820    2.8620 C   0  0  0  0  0  0  0  0  0  0  0  0
   -1.4420    3.1070    1.7940 O   0  0  0  0  0  0  0  0  0  0  0  0
   -1.3700    1.7580    1.5560 C   0  0  0  0  0  0  0  0  0  0  0  0
   -1.9820    0.9800    2.3240 O   0  0  0  0  0  0  0  0  0  0  0  0
   -0.6320    1.1700    0.4760 N   0  0  0  0  0  0  0  0  0  0  0  0
    0.0730    2.0690   -0.4060 C   0  0  0  0  0  0  0  0  0  0  0  0
    1.5560    1.7740   -0.4770 C   0  0  0  0  0  0  0  0  0  0  0  0
    1.8210    0.3580    0.0080 C   0  0  2  0  0  0  0  0  0  0  0  0
    3.2040   -0.0800   -0.2350 C   0  0  0  0  0  0  0  0  0  0  0  0
    4.1190    0.8300    0.4810 N   0  0  0  0  0  0  0  0  0  0  0  0
    5.5140    0.6650    0.4340 C   0  0  0  0  0  0  0  0  0  0  0  0
    6.3550    1.5600    1.1350 N   0  0  0  0  0  0  0  0  0  0  0  0
    5.9630   -0.3040   -0.2530 O   0  0  0  0  0  0  0  0  0  0  0  0
    0.7320   -0.5180   -0.4870 C   0  0  0  0  0  0  0  0  0  0  0  0
    0.8010   -1.4080   -1.4260 C   0  0  0  0  0  0  0  0  0  0  0  0
    1.9630   -1.7810   -2.2460 C   0  0  0  0  0  0  0  0  0  0  0  0
   -0.4030   -2.1090   -1.6910 O   0  0  0  0  0  0  0  0  0  0  0  0
   -0.5670   -0.2310    0.2420 C   0  0  2  0  0  0  0  0  0  0  0  0
   -1.7340   -0.8760   -0.2940 C   0  0  0  0  0  0  0  0  0  0  0  0
   -2.2540   -1.9200    0.2890 N   0  0  0  0  0  0  0  0  0  0  0  0
   -3.4070   -2.6420   -0.1480 C   0  0  1  0  0  0  0  0  0  0  0  0
   -4.4380   -2.5370    0.9080 N   0  0  0  0  0  0  0  0  0  0  0  0
   -4.0440   -2.1620   -1.3410 N   0  0  0  0  0  0  0  0  0  0  0  0
   -3.5220   -1.0360   -2.0110 C   0  0  0  0  0  0  0  0  0  0  0  0
   -4.0500   -0.5790   -3.0650 O   0  0  0  0  0  0  0  0  0  0  0  0
   -2.3720   -0.4060   -1.4770 N   0  0  0  0  0  0  0  0  0  0  0  0
  1  2  1  0
  2  3  1  0
  3  4  2  0
  3  5  1  0
  5  6  1  0
  5 18  1  0
  6  7  1  0
  7  8  1  0
  8  9  1  6
  8 14  1  0
  9 10  1  0
 10 11  1  0
 11 12  1  0
 11 13  2  0
 14 15  2  3
 14 18  1  0
 15 16  1  0
 15 17  1  0
 18 19  1  6
 19 20  2  0
 19 26  1  0
 20 21  1  0
 21 22  1  1
 21 23  1  0
 23 24  1  0
 24 25  2  0
 24 26  1  0
M  CHG  2  20   1  22   1
M  END
