
     RDKit          3D

 25 28  0  0  0  0  0  0  0  0999 V2000
   -4.2930   -0.3350    0.4820 N   0  0  0  0  0  0  0  0  0  0  0  0
   -3.8830    0.9210    0.9890 C   0  0  0  0  0  0  0  0  0  0  0  0
   -4.8810    1.8360    1.2580 C   0  0  0  0  0  0  0  0  0  0  0  0
   -4.5410    3.0750    1.7580 C   0  0  0  0  0  0  0  0  0  0  0  0
   -3.2280    3.4050    1.9880 C   0  0  0  0  0  0  0  0  0  0  0  0
   -2.2440    2.4840    1.7160 C   0  0  0  0  0  0  0  0  0  0  0  0
   -2.5670    1.2390    1.2150 C   0  0  0  0  0  0  0  0  0  0  0  0
   -1.5570    0.3170    0.9460 N   0  0  0  0  0  0  0  0  0  0  0  0
   -1.3410   -0.2370   -0.1860 C   0  0  0  0  0  0  0  0  0  0  0  0
   -2.2260    0.1440   -1.2340 N   0  0  0  0  0  0  0  0  0  0  0  0
   -2.6450   -0.7060   -2.3260 C   0  0  0  0  0  0  0  0  0  0  0  0
   -1.4380   -1.2940   -2.9990 C   0  0  0  0  0  0  0  0  0  0  0  0
   -0.8690   -2.4870   -2.3200 C   0  0  0  0  0  0  0  0  0  0  0  0
   -0.7610   -2.4580   -0.8530 C   0  0  0  0  0  0  0  0  0  0  0  0
   -0.1820   -1.2090   -0.2450 C   0  0  2  0  0  0  0  0  0  0  0  0
    0.1900   -1.5000    1.1700 C   0  0  0  0  0  0  0  0  0  0  0  0
    1.6490   -1.7600    1.4290 C   0  0  0  0  0  0  0  0  0  0  0  0
    2.4860   -1.5860    0.1800 C   0  0  0  0  0  0  0  0  0  0  0  0
    2.1460   -0.3680   -0.4130 N   0  0  0  0  0  0  0  0  0  0  0  0
    2.2450    0.8630    0.2320 C   0  0  0  0  0  0  0  0  0  0  0  0
    3.5560    1.4650    0.5500 C   0  0  1  0  0  0  0  0  0  0  0  0
    4.5010    0.7750    1.4680 C   0  0  0  0  0  0  0  0  0  0  0  0
    5.6410    1.1530    0.5090 C   0  0  0  0  0  0  0  0  0  0  0  0
    4.5970    1.3400   -0.5600 C   0  0  0  0  0  0  0  0  0  0  0  0
    0.8590   -0.5600   -1.0880 C   0  0  0  0  0  0  0  0  0  0  0  0
  1  2  1  0
  2  3  2  0
  2  7  1  0
  3  4  1  0
  4  5  2  0
  5  6  1  0
  6  7  2  0
  7  8  1  0
  8  9  2  3
  9 10  1  0
  9 15  1  0
 10 11  1  0
 11 12  1  0
 12 13  1  0
 13 14  1  0
 15 14  1  6
 15 16  1  0
 15 25  1  0
 16 17  1  0
 17 18  1  0
 18 19  1  0
 19 20  1  0
 19 25  1  0
 21 20  1  6
 21 22  1  0
 21 24  1  0
 22 23  1  0
 23 24  1  0
M  END
