
     RDKit          3D

 25 26  0  0  0  0  0  0  0  0999 V2000
   -4.6900    1.1280    1.8790 C   0  0  0  0  0  0  0  0  0  0  0  0
   -4.7860    0.7580    0.5080 N   0  0  0  0  0  0  0  0  0  0  0  0
   -3.4970    0.7380   -0.1960 C   0  0  1  0  0  0  0  0  0  0  0  0
   -2.5570    1.7640    0.3020 C   0  0  0  0  0  0  0  0  0  0  0  0
   -3.0400   -0.6700   -0.2080 C   0  0  2  0  0  0  0  0  0  0  0  0
   -2.8240   -1.3220    1.1120 C   0  0  0  0  0  0  0  0  0  0  0  0
   -2.0250   -2.5720    0.7360 C   0  0  0  0  0  0  0  0  0  0  0  0
   -1.6850   -2.4630   -0.7230 C   0  0  2  0  0  0  0  0  0  0  0  0
   -0.3180   -2.9940   -1.0430 C   0  0  0  0  0  0  0  0  0  0  0  0
   -1.7380   -0.9370   -0.9180 C   0  0  2  0  0  0  0  0  0  0  0  0
   -0.5910   -0.4220   -0.2400 N   0  0  0  0  0  0  0  0  0  0  0  0
    0.4190    0.3610   -0.8680 C   0  0  0  0  0  0  0  0  0  0  0  0
    0.3060    0.6190   -2.0820 O   0  0  0  0  0  0  0  0  0  0  0  0
    1.5590    0.8470   -0.1070 C   0  0  0  0  0  0  0  0  0  0  0  0
    1.6780    0.5960    1.1200 O   0  0  0  0  0  0  0  0  0  0  0  0
    2.5780    1.6180   -0.7150 N   0  0  0  0  0  0  0  0  0  0  0  0
    3.6980    2.1140   -0.0470 N   0  0  0  0  0  0  0  0  0  0  0  0
    4.9750    1.5280   -0.1290 C   0  0  0  0  0  0  0  0  0  0  0  0
    5.8240    1.9180   -1.0890 N   0  0  0  0  0  0  0  0  0  0  0  0
    7.0550    1.4100   -1.2400 C   0  0  0  0  0  0  0  0  0  0  0  0
    7.8420    1.7920   -2.1540 O   0  0  0  0  0  0  0  0  0  0  0  0
    7.4790    0.4510   -0.3860 N   0  0  0  0  0  0  0  0  0  0  0  0
    6.6500    0.0400    0.5870 C   0  0  0  0  0  0  0  0  0  0  0  0
    7.0790   -0.8560    1.3640 O   0  0  0  0  0  0  0  0  0  0  0  0
    5.4070    0.5680    0.7210 N   0  0  0  0  0  0  0  0  0  0  0  0
  1  2  1  0
  2  3  1  0
  3  4  1  1
  3  5  1  0
  5  6  1  1
  5 10  1  0
  6  7  1  0
  7  8  1  0
  8  9  1  1
  8 10  1  0
 10 11  1  1
 11 12  1  0
 12 13  2  0
 12 14  1  0
 14 15  2  0
 14 16  1  0
 16 17  1  0
 17 18  1  0
 18 19  2  0
 18 25  1  0
 19 20  1  0
 20 21  2  0
 20 22  1  0
 22 23  1  0
 23 24  2  0
 23 25  1  0
M  CHG  1   2   1
M  END
