
     RDKit          3D

 25 28  0  0  0  0  0  0  0  0999 V2000
   -2.0260   -3.1760   -2.2920 C   0  0  0  0  0  0  0  0  0  0  0  0
   -1.1410   -2.2560   -1.6100 N   0  0  0  0  0  0  0  0  0  0  0  0
    0.1740   -2.3890   -1.5830 C   0  0  0  0  0  0  0  0  0  0  0  0
    0.6970   -1.3280   -0.8340 C   0  0  0  0  0  0  0  0  0  0  0  0
    2.1250   -1.1450   -0.5490 C   0  0  0  0  0  0  0  0  0  0  0  0
    2.8450   -0.1270   -0.0020 C   0  0  0  0  0  0  0  0  0  0  0  0
    4.2190   -0.4460    0.0250 C   0  0  0  0  0  0  0  0  0  0  0  0
    5.2920    0.3770    0.5330 C   0  0  0  0  0  0  0  0  0  0  0  0
    6.6080   -0.0200    0.5340 C   0  0  0  0  0  0  0  0  0  0  0  0
    7.6230    0.7750    1.0180 C   0  0  0  0  0  0  0  0  0  0  0  0
    7.3230    2.0070    1.5200 N   0  0  0  0  0  0  0  0  0  0  0  0
    6.0360    2.4390    1.5390 C   0  0  0  0  0  0  0  0  0  0  0  0
    5.0290    1.6330    1.0510 C   0  0  0  0  0  0  0  0  0  0  0  0
    4.2740   -1.6660   -0.5180 N   0  0  0  0  0  0  0  0  0  0  0  0
    3.0720   -2.0810   -0.8540 N   0  0  0  0  0  0  0  0  0  0  0  0
   -0.3670   -0.5540   -0.4150 C   0  0  0  0  0  0  0  0  0  0  0  0
   -0.4700    0.6000    0.3540 C   0  0  0  0  0  0  0  0  0  0  0  0
   -1.7440    1.1240    0.6050 C   0  0  0  0  0  0  0  0  0  0  0  0
   -2.8760    0.5380    0.1180 C   0  0  0  0  0  0  0  0  0  0  0  0
   -4.2440    1.0430    0.3640 C   0  0  2  0  0  0  0  0  0  0  0  0
   -4.9510    1.2670   -0.9500 C   0  0  0  0  0  0  0  0  0  0  0  0
   -4.2400    2.3830    1.0860 C   0  0  0  0  0  0  0  0  0  0  0  0
   -5.0140    0.0060    1.1760 C   0  0  0  0  0  0  0  0  0  0  0  0
   -2.7320   -0.5880   -0.6310 C   0  0  0  0  0  0  0  0  0  0  0  0
   -1.4980   -1.1710   -0.9220 C   0  0  0  0  0  0  0  0  0  0  0  0
  1  2  1  0
  2  3  1  0
  2 25  1  0
  3  4  2  0
  4  5  1  0
  4 16  1  0
  5  6  2  0
  5 15  1  0
  6  7  1  0
  7  8  1  0
  7 14  2  0
  8  9  2  0
  8 13  1  0
  9 10  1  0
 10 11  2  0
 11 12  1  0
 12 13  2  0
 14 15  1  0
 16 17  2  0
 16 25  1  0
 17 18  1  0
 18 19  2  0
 19 20  1  0
 19 24  1  0
 20 21  1  6
 20 22  1  0
 20 23  1  0
 24 25  2  0
M  END
