
     RDKit          3D

 25 28  0  0  0  0  0  0  0  0999 V2000
    7.9910    0.1860    0.5020 C   0  0  0  0  0  0  0  0  0  0  0  0
    6.7380   -0.1980   -0.1650 C   0  0  0  0  0  0  0  0  0  0  0  0
    5.5790    0.1390    0.3520 C   0  0  0  0  0  0  0  0  0  0  0  0
    4.3240   -0.2220   -0.2780 C   0  0  0  0  0  0  0  0  0  0  0  0
    3.1580    0.1160    0.2400 C   0  0  0  0  0  0  0  0  0  0  0  0
    1.8720   -0.2230   -0.3550 C   0  0  0  0  0  0  0  0  0  0  0  0
    1.7600   -0.9330   -1.5220 C   0  0  0  0  0  0  0  0  0  0  0  0
    0.5220   -1.2210   -2.0330 C   0  0  0  0  0  0  0  0  0  0  0  0
   -0.6320   -0.8070   -1.3910 C   0  0  0  0  0  0  0  0  0  0  0  0
   -0.5120   -0.0820   -0.2050 C   0  0  0  0  0  0  0  0  0  0  0  0
    0.7110    0.2090    0.3170 C   0  0  0  0  0  0  0  0  0  0  0  0
   -1.7000    0.2970    0.4270 C   0  0  0  0  0  0  0  0  0  0  0  0
   -1.6360    1.0500    1.5650 C   0  0  0  0  0  0  0  0  0  0  0  0
   -0.4320    1.5700    2.1860 C   0  0  0  0  0  0  0  0  0  0  0  0
   -2.8850    1.4170    2.1330 C   0  0  0  0  0  0  0  0  0  0  0  0
   -4.0350    1.0680    1.6140 N   0  0  0  0  0  0  0  0  0  0  0  0
   -4.1260    0.3130    0.4720 C   0  0  0  0  0  0  0  0  0  0  0  0
   -5.4160   -0.1430    0.1260 N   0  0  0  0  0  0  0  0  0  0  0  0
   -6.5890    0.4930    0.8170 C   0  0  0  0  0  0  0  0  0  0  0  0
   -2.9650   -0.0680   -0.1240 C   0  0  0  0  0  0  0  0  0  0  0  0
   -2.9650   -0.7830   -1.3080 C   0  0  0  0  0  0  0  0  0  0  0  0
   -4.0130   -1.2070   -2.0890 C   0  0  0  0  0  0  0  0  0  0  0  0
   -3.4460   -1.8250   -3.1750 N   0  0  0  0  0  0  0  0  0  0  0  0
   -2.1250   -1.7690   -3.0460 C   0  0  0  0  0  0  0  0  0  0  0  0
   -1.8250   -1.1290   -1.9030 N   0  0  0  0  0  0  0  0  0  0  0  0
  1  2  1  0
  2  3  2  3
  3  4  1  0
  4  5  2  3
  5  6  1  0
  6  7  2  0
  6 11  1  0
  7  8  1  0
  8  9  2  0
  9 10  1  0
  9 25  1  0
 10 11  2  0
 10 12  1  0
 12 13  2  0
 12 20  1  0
 13 14  1  0
 13 15  1  0
 15 16  2  0
 16 17  1  0
 17 18  1  0
 17 20  2  0
 18 19  1  0
 20 21  1  0
 21 22  2  0
 21 25  1  0
 22 23  1  0
 23 24  2  0
 24 25  1  0
M  END
