
     RDKit          3D

 25 28  0  0  0  0  0  0  0  0999 V2000
   -5.7500   -1.7350    1.7200 C   0  0  0  0  0  0  0  0  0  0  0  0
   -4.5900   -1.1490    1.7300 C   0  0  0  0  0  0  0  0  0  0  0  0
   -3.8260   -0.6320    0.6210 C   0  0  0  0  0  0  0  0  0  0  0  0
   -2.4490   -0.6450    0.6880 N   0  0  0  0  0  0  0  0  0  0  0  0
   -1.7210   -0.1560   -0.3150 C   0  0  0  0  0  0  0  0  0  0  0  0
   -0.2970   -0.1750   -0.2350 N   0  0  0  0  0  0  0  0  0  0  0  0
    0.4220    0.8610   -0.1200 C   0  0  0  0  0  0  0  0  0  0  0  0
   -0.1540    2.1330   -0.0620 C   0  0  0  0  0  0  0  0  0  0  0  0
    0.6550    3.2260    0.0640 C   0  0  0  0  0  0  0  0  0  0  0  0
    1.9880    3.0900    0.1330 N   0  0  0  0  0  0  0  0  0  0  0  0
    2.5920    1.8700    0.0810 C   0  0  0  0  0  0  0  0  0  0  0  0
    3.9280    1.8060    0.1560 N   0  0  0  0  0  0  0  0  0  0  0  0
    4.5310    0.6050    0.1070 C   0  0  0  0  0  0  0  0  0  0  0  0
    5.9160    0.5280    0.1850 C   0  0  0  0  0  0  0  0  0  0  0  0
    6.5670   -0.6830    0.1390 C   0  0  0  0  0  0  0  0  0  0  0  0
    5.8360   -1.8440    0.0120 C   0  0  0  0  0  0  0  0  0  0  0  0
    4.4460   -1.7840   -0.0680 C   0  0  0  0  0  0  0  0  0  0  0  0
    3.8040   -0.5600   -0.0200 C   0  0  0  0  0  0  0  0  0  0  0  0
    2.4010   -0.5170   -0.1010 C   0  0  0  0  0  0  0  0  0  0  0  0
    1.5690   -1.7110   -0.2400 C   0  0  0  0  0  0  0  0  0  0  0  0
    1.7960    0.7500   -0.0470 C   0  0  0  0  0  0  0  0  0  0  0  0
   -2.3130    0.3730   -1.4410 C   0  0  0  0  0  0  0  0  0  0  0  0
   -3.6770    0.4110   -1.5580 C   0  0  0  0  0  0  0  0  0  0  0  0
   -4.4300   -0.1080   -0.4910 C   0  0  0  0  0  0  0  0  0  0  0  0
   -5.9000   -0.0220   -0.6250 C   0  0  0  0  0  0  0  0  0  0  0  0
  1  2  2  0
  2  3  1  0
  3  4  2  0
  3 24  1  0
  4  5  1  0
  5  6  1  0
  5 22  2  0
  6  7  2  3
  7  8  1  0
  7 21  1  0
  8  9  2  0
  9 10  1  0
 10 11  1  0
 11 12  2  0
 11 21  1  0
 12 13  1  0
 13 14  2  0
 13 18  1  0
 14 15  1  0
 15 16  2  0
 16 17  1  0
 17 18  2  0
 18 19  1  0
 19 20  1  0
 19 21  2  0
 22 23  1  0
 23 24  2  0
 24 25  1  0
M  END
