
     RDKit          3D

 25 28  0  0  0  0  0  0  0  0999 V2000
   -5.9130    0.6710   -2.5450 C   0  0  0  0  0  0  0  0  0  0  0  0
   -4.6180    0.4860   -1.8500 C   0  0  0  0  0  0  0  0  0  0  0  0
   -4.6460    0.0880   -0.5640 C   0  0  0  0  0  0  0  0  0  0  0  0
   -5.9220   -0.1460    0.1000 C   0  0  0  0  0  0  0  0  0  0  0  0
   -5.7140   -0.5740    1.4990 C   0  0  0  0  0  0  0  0  0  0  0  0
   -4.5480   -0.7300    2.0870 C   0  0  0  0  0  0  0  0  0  0  0  0
   -4.4720   -1.1690    3.5120 C   0  0  0  0  0  0  0  0  0  0  0  0
   -3.3000   -0.4840    1.3840 C   0  0  0  0  0  0  0  0  0  0  0  0
   -1.9950   -0.5560    1.7120 N   0  0  0  0  0  0  0  0  0  0  0  0
   -1.2320   -0.2150    0.6670 C   0  0  0  0  0  0  0  0  0  0  0  0
    0.2500   -0.1800    0.6600 C   0  0  0  0  0  0  0  0  0  0  0  0
    0.9090    0.1680   -0.4160 C   0  0  0  0  0  0  0  0  0  0  0  0
    2.3510    0.2150   -0.4620 C   0  0  0  0  0  0  0  0  0  0  0  0
    3.0030    0.5940   -1.6420 C   0  0  0  0  0  0  0  0  0  0  0  0
    4.3720    0.6440   -1.7020 C   0  0  0  0  0  0  0  0  0  0  0  0
    5.1730    0.3290   -0.6250 C   0  0  0  0  0  0  0  0  0  0  0  0
    6.5900    0.3820   -0.6920 N   0  0  0  0  0  0  0  0  0  0  0  0
    7.4830   -0.3230    0.0330 C   0  0  0  0  0  0  0  0  0  0  0  0
    8.7340    0.0710   -0.3880 C   0  0  0  0  0  0  0  0  0  0  0  0
    8.5840    1.0200   -1.3720 C   0  0  0  0  0  0  0  0  0  0  0  0
    7.2560    1.1730   -1.5200 N   0  0  0  0  0  0  0  0  0  0  0  0
    4.5270   -0.0420    0.5280 C   0  0  0  0  0  0  0  0  0  0  0  0
    3.1370   -0.1020    0.6190 C   0  0  0  0  0  0  0  0  0  0  0  0
   -2.0760    0.0730   -0.3290 N   0  0  0  0  0  0  0  0  0  0  0  0
   -3.3720   -0.0820    0.0800 C   0  0  0  0  0  0  0  0  0  0  0  0
  1  2  1  0
  2  3  2  3
  3  4  1  0
  3 25  1  0
  4  5  1  0
  5  6  2  0
  6  7  1  0
  6  8  1  0
  8  9  1  0
  8 25  2  0
  9 10  1  0
 10 11  1  0
 10 24  2  0
 11 12  2  3
 12 13  1  0
 13 14  2  0
 13 23  1  0
 14 15  1  0
 15 16  2  0
 16 17  1  0
 16 22  1  0
 17 18  1  0
 17 21  1  0
 18 19  2  0
 19 20  1  0
 20 21  2  0
 22 23  2  0
 24 25  1  0
M  END
