
     RDKit          3D

 25 28  0  0  0  0  0  0  0  0999 V2000
   -4.2010   -2.0750    2.4930 C   0  0  0  0  0  0  0  0  0  0  0  0
   -4.6210   -1.3510    1.4900 C   0  0  0  0  0  0  0  0  0  0  0  0
   -3.9410   -1.4240    0.2430 N   0  0  0  0  0  0  0  0  0  0  0  0
   -4.7280   -2.0190   -0.8410 C   0  0  0  0  0  0  0  0  0  0  0  0
   -2.6900   -0.9810    0.1460 N   0  0  0  0  0  0  0  0  0  0  0  0
   -1.9690   -0.0400   -0.1040 C   0  0  0  0  0  0  0  0  0  0  0  0
   -2.3990    1.2080   -0.4680 C   0  0  0  0  0  0  0  0  0  0  0  0
   -3.7310    1.5360   -0.5920 C   0  0  0  0  0  0  0  0  0  0  0  0
   -4.1670    2.7950   -0.9590 C   0  0  0  0  0  0  0  0  0  0  0  0
   -3.2530    3.7920   -1.2210 C   0  0  0  0  0  0  0  0  0  0  0  0
   -1.9180    3.4830   -1.1030 C   0  0  0  0  0  0  0  0  0  0  0  0
   -1.4810    2.2280   -0.7370 C   0  0  0  0  0  0  0  0  0  0  0  0
   -0.1610    1.9940   -0.6400 N   0  0  0  0  0  0  0  0  0  0  0  0
    0.3190    0.7820   -0.2850 C   0  0  0  0  0  0  0  0  0  0  0  0
    1.6600    0.5670   -0.1930 N   0  0  0  0  0  0  0  0  0  0  0  0
    2.1930   -0.6040    0.1520 C   0  0  0  0  0  0  0  0  0  0  0  0
    3.6570   -0.8190    0.2460 C   0  0  1  0  0  0  0  0  0  0  0  0
    4.3150   -0.7010   -1.1300 C   0  0  0  0  0  0  0  0  0  0  0  0
    5.7130   -1.1440   -0.9310 C   0  0  0  0  0  0  0  0  0  0  0  0
    6.4140   -0.5350    0.0080 C   0  0  0  0  0  0  0  0  0  0  0  0
    5.6670    0.5450    0.7520 C   0  0  0  0  0  0  0  0  0  0  0  0
    4.3170    0.0760    1.2350 C   0  0  0  0  0  0  0  0  0  0  0  0
    1.3260   -1.6410    0.4260 C   0  0  0  0  0  0  0  0  0  0  0  0
   -0.0410   -1.4550    0.3420 C   0  0  0  0  0  0  0  0  0  0  0  0
   -0.5780   -0.2220   -0.0210 C   0  0  0  0  0  0  0  0  0  0  0  0
  1  2  2  0
  2  3  1  0
  3  4  1  0
  3  5  1  0
  5  6  2  3
  6  7  1  0
  6 25  1  0
  7  8  2  0
  7 12  1  0
  8  9  1  0
  9 10  2  0
 10 11  1  0
 11 12  2  0
 12 13  1  0
 13 14  1  0
 14 15  2  0
 14 25  1  0
 15 16  1  0
 17 16  1  6
 16 23  2  0
 17 18  1  0
 17 22  1  0
 18 19  1  0
 19 20  2  0
 20 21  1  0
 21 22  1  0
 23 24  1  0
 24 25  2  0
M  END
