
     RDKit          3D

 26 27  0  0  0  0  0  0  0  0999 V2000
    5.8300   -0.0220   -0.4800 C   0  0  0  0  0  0  0  0  0  0  0  0
    4.6410   -0.1560    0.4560 C   0  0  2  0  0  0  0  0  0  0  0  0
    3.5010   -0.6300   -0.2050 O   0  0  0  0  0  0  0  0  0  0  0  0
    2.8570   -1.8060    0.0660 C   0  0  0  0  0  0  0  0  0  0  0  0
    3.3260   -2.5310    0.9900 O   0  0  0  0  0  0  0  0  0  0  0  0
    1.6590   -2.1870   -0.7110 C   0  0  0  0  0  0  0  0  0  0  0  0
    1.4010   -1.1910   -1.6420 O   0  0  0  0  0  0  0  0  0  0  0  0
    0.2940   -1.4890   -2.4010 C   0  0  0  0  0  0  0  0  0  0  0  0
   -0.8890   -1.6280   -1.5130 C   0  0  0  0  0  0  0  0  0  0  0  0
   -1.6680   -0.5840   -1.1800 N   0  0  0  0  0  0  0  0  0  0  0  0
   -2.7440   -0.6600   -0.3860 C   0  0  0  0  0  0  0  0  0  0  0  0
   -3.5480    0.4550   -0.0530 N   0  0  0  0  0  0  0  0  0  0  0  0
   -3.2460    1.7700   -0.5660 C   0  0  0  0  0  0  0  0  0  0  0  0
   -4.6160    2.4280   -0.7900 C   0  0  0  0  0  0  0  0  0  0  0  0
   -5.1340    2.6920    0.4560 O   0  0  0  0  0  0  0  0  0  0  0  0
   -5.1210    1.6530    1.3460 C   0  0  0  0  0  0  0  0  0  0  0  0
   -4.6960    0.3290    0.8080 C   0  0  0  0  0  0  0  0  0  0  0  0
   -3.0380   -1.8980    0.0990 N   0  0  0  0  0  0  0  0  0  0  0  0
   -2.2990   -2.9800   -0.1970 C   0  0  0  0  0  0  0  0  0  0  0  0
   -2.6640   -4.4620    0.3930 S   0  0  0  0  0  0  0  0  0  0  0  0
   -1.2360   -2.8370   -0.9960 N   0  0  0  0  0  0  0  0  0  0  0  0
    4.3790    1.1260    1.1370 C   0  0  0  0  0  0  0  0  0  0  0  0
    3.2350    1.6490    1.0710 O   0  0  0  0  0  0  0  0  0  0  0  0
    5.3720    1.7650    1.8500 O   0  0  0  0  0  0  0  0  0  0  0  0
    5.1440    2.9210    2.4670 O   0  0  0  0  0  0  0  0  0  0  0  0
    6.1090    3.7860    2.2360 O   0  0  0  0  0  0  0  0  0  0  0  0
  2  1  1  6
  2  3  1  0
  2 22  1  0
  3  4  1  0
  4  5  2  0
  4  6  1  0
  6  7  1  0
  7  8  1  0
  8  9  1  0
  9 10  1  0
  9 21  2  0
 10 11  2  0
 11 12  1  0
 11 18  1  0
 12 13  1  0
 12 17  1  0
 13 14  1  0
 14 15  1  0
 15 16  1  0
 16 17  1  0
 18 19  1  0
 19 20  2  0
 19 21  1  0
 22 23  2  0
 22 24  1  0
 24 25  1  0
 25 26  1  0
M  END
