
     RDKit          3D

  8  7  0  0  0  0  0  0  0  0999 V2000
    3.0100   -0.0310    0.3020 N   0  0  0  0  0  0  0  0  0  0  0  0
    1.8990    0.4310   -0.4960 C   0  0  0  0  0  0  0  0  0  0  0  0
    0.5640    0.0270    0.1100 C   0  0  0  0  0  0  0  0  0  0  0  0
   -0.4640    0.4780   -0.6650 O   0  0  0  0  0  0  0  0  0  0  0  0
   -1.9140    0.0370   -0.0060 P   0  0  0  0  0  0  0  0  0  0  0  0
   -2.1500    1.4820    0.4450 O   0  0  0  0  0  0  0  0  0  0  0  0
   -1.5610   -1.4370   -0.2590 O   0  0  0  0  0  0  0  0  0  0  0  0
   -3.2180    0.0300   -0.9910 O   0  0  0  0  0  0  0  0  0  0  0  0
  1  2  1  0
  2  3  1  0
  3  4  1  0
  4  5  1  0
  5  6  1  0
  5  7  1  0
  5  8  1  0
M  CHG  1   1   1
M  END
