
     RDKit          3D

 26 27  0  0  0  0  0  0  0  0999 V2000
   -0.5440    1.2090   -2.8410 C   0  0  0  0  0  0  0  0  0  0  0  0
   -0.5340    1.3680   -1.4380 O   0  0  0  0  0  0  0  0  0  0  0  0
   -1.5180    0.8990   -0.6020 C   0  0  0  0  0  0  0  0  0  0  0  0
   -1.2430    0.4830    0.5980 C   0  0  0  0  0  0  0  0  0  0  0  0
    0.1990    0.5400    1.0270 C   0  0  0  0  0  0  0  0  0  0  0  0
    0.4150    0.9510    2.3090 N   0  0  0  0  0  0  0  0  0  0  0  0
    2.2540    0.8520    2.3880 S   0  0  0  0  0  0  0  0  0  0  0  0
    2.4480    0.2960    0.7560 C   0  0  0  0  0  0  0  0  0  0  0  0
    3.5670    0.0210    0.1590 N   0  0  0  0  0  0  0  0  0  0  0  0
    4.7670    0.1790    0.8820 C   0  0  0  0  0  0  0  0  0  0  0  0
    5.0600    1.3190    1.3120 O   0  0  0  0  0  0  0  0  0  0  0  0
    5.6500   -0.9850    1.1200 C   0  0  1  0  0  0  0  0  0  0  0  0
    5.0950   -2.1170    0.5350 O   0  0  0  0  0  0  0  0  0  0  0  0
    7.0590   -0.7430    0.6020 C   0  0  0  0  0  0  0  0  0  0  0  0
    7.0500   -0.5600   -0.7760 O   0  0  0  0  0  0  0  0  0  0  0  0
    8.3040   -0.3570   -1.1500 O   0  0  0  0  0  0  0  0  0  0  0  0
    1.1990    0.2230    0.2810 N   0  0  0  0  0  0  0  0  0  0  0  0
   -2.9170    0.8670   -1.0840 C   0  0  0  0  0  0  0  0  0  0  0  0
   -3.7910    0.3390   -0.0740 N   0  0  0  0  0  0  0  0  0  0  0  0
   -4.0430   -1.1100   -0.0490 C   0  0  0  0  0  0  0  0  0  0  0  0
   -5.5080   -1.4200   -0.1860 C   0  0  0  0  0  0  0  0  0  0  0  0
   -6.4220   -0.4840    0.5030 C   0  0  0  0  0  0  0  0  0  0  0  0
   -6.1250   -0.1710    1.8040 O   0  0  0  0  0  0  0  0  0  0  0  0
   -5.4440    1.0070    1.7680 O   0  0  0  0  0  0  0  0  0  0  0  0
   -4.3930    1.2350    0.8730 C   0  0  0  0  0  0  0  0  0  0  0  0
   -3.8700    2.3800    0.8630 O   0  0  0  0  0  0  0  0  0  0  0  0
  1  2  1  0
  2  3  1  0
  3  4  2  3
  3 18  1  0
  4  5  1  0
  5  6  2  0
  5 17  1  0
  6  7  1  0
  7  8  1  0
  8  9  2  3
  8 17  1  0
  9 10  1  0
 10 11  2  0
 10 12  1  0
 12 13  1  6
 12 14  1  0
 14 15  1  0
 15 16  1  0
 18 19  1  0
 19 20  1  0
 19 25  1  0
 20 21  1  0
 21 22  1  0
 22 23  1  0
 23 24  1  0
 24 25  1  0
 25 26  2  0
M  END
