
     RDKit          3D

 27 29  0  0  0  0  0  0  0  0999 V2000
    4.2330    2.1080    3.0140 C   0  0  0  0  0  0  0  0  0  0  0  0
    2.8410    1.7540    2.9770 O   0  0  0  0  0  0  0  0  0  0  0  0
    2.3810    1.1840    1.7360 C   0  0  0  0  0  0  0  0  0  0  0  0
    1.8960    1.3350    0.7430 N   0  0  0  0  0  0  0  0  0  0  0  0
    1.5900    0.5160   -0.2640 C   0  0  0  0  0  0  0  0  0  0  0  0
    1.9470   -0.7850   -0.0360 C   0  0  0  0  0  0  0  0  0  0  0  0
    2.7070   -0.6690    1.6760 S   0  0  0  0  0  0  0  0  0  0  0  0
    1.8940   -1.9350   -0.8220 N   0  0  0  0  0  0  0  0  0  0  0  0
    1.0540   -2.3700   -1.8570 C   0  0  0  0  0  0  0  0  0  0  0  0
   -0.0870   -3.0360   -1.8700 C   0  0  0  0  0  0  0  0  0  0  0  0
   -0.8210   -3.5270   -0.7670 N   0  0  0  0  0  0  0  0  0  0  0  0
   -1.1890   -2.8110    0.4230 C   0  0  0  0  0  0  0  0  0  0  0  0
   -0.9310   -3.3760    1.5700 O   0  0  0  0  0  0  0  0  0  0  0  0
   -1.7810   -1.6000    0.2860 O   0  0  0  0  0  0  0  0  0  0  0  0
   -1.4040   -0.3010    0.1730 C   0  0  2  0  0  0  0  0  0  0  0  0
   -2.5280    0.5890    0.8920 C   0  0  0  0  0  0  0  0  0  0  0  0
   -2.5690    0.1810    2.1970 O   0  0  0  0  0  0  0  0  0  0  0  0
   -3.4810    0.8940    2.8110 O   0  0  0  0  0  0  0  0  0  0  0  0
   -4.5270    0.1370    3.0550 O   0  0  0  0  0  0  0  0  0  0  0  0
   -5.6390    0.7360    2.6270 O   0  0  0  0  0  0  0  0  0  0  0  0
   -1.4120    0.3040   -1.1820 C   0  0  0  0  0  0  0  0  0  0  0  0
   -0.3980    0.8180   -1.8530 C   0  0  0  0  0  0  0  0  0  0  0  0
   -0.5740    1.4120   -3.2290 C   0  0  0  0  0  0  0  0  0  0  0  0
    0.5650    1.9150   -3.6520 C   0  0  0  0  0  0  0  0  0  0  0  0
    1.5490    1.6950   -2.6180 C   0  0  0  0  0  0  0  0  0  0  0  0
    2.7800    2.0470   -2.6440 O   0  0  0  0  0  0  0  0  0  0  0  0
    0.9430    0.9980   -1.4900 N   0  0  0  0  0  0  0  0  0  0  0  0
  1  2  1  0
  2  3  1  0
  3  4  2  0
  3  7  1  0
  4  5  1  0
  5  6  2  0
  5 27  1  0
  6  7  1  0
  6  8  1  0
  8  9  1  0
  9 10  2  0
 10 11  1  0
 11 12  1  0
 12 13  2  0
 12 14  1  0
 14 15  1  0
 15 16  1  1
 15 21  1  0
 16 17  1  0
 17 18  1  0
 18 19  1  0
 19 20  1  0
 21 22  2  0
 22 23  1  0
 22 27  1  0
 23 24  2  0
 24 25  1  0
 25 26  2  0
 25 27  1  0
M  END
