
     RDKit          3D

 26 28  0  0  0  0  0  0  0  0999 V2000
   -0.1870   -2.2050   -2.1390 O   0  0  0  0  0  0  0  0  0  0  0  0
   -0.3620   -1.3910   -1.1980 C   0  0  0  0  0  0  0  0  0  0  0  0
    0.7620   -0.9640   -0.4710 N   0  0  0  0  0  0  0  0  0  0  0  0
    2.1180   -1.4190   -0.7560 C   0  0  0  0  0  0  0  0  0  0  0  0
    3.0740   -0.7490    0.2290 C   0  0  0  0  0  0  0  0  0  0  0  0
    4.3290   -1.2070   -0.0790 O   0  0  0  0  0  0  0  0  0  0  0  0
    5.3690   -0.7670    0.6770 C   0  0  0  0  0  0  0  0  0  0  0  0
    5.4930    0.7340    0.5850 C   0  0  0  0  0  0  0  0  0  0  0  0
    6.5840    1.1590    1.3750 O   0  0  0  0  0  0  0  0  0  0  0  0
    6.6580    2.4590    1.2700 O   0  0  0  0  0  0  0  0  0  0  0  0
    7.4360    2.7660    0.2660 O   0  0  0  0  0  0  0  0  0  0  0  0
   -1.6830   -0.9460   -0.9180 N   0  0  0  0  0  0  0  0  0  0  0  0
   -1.8400   -0.0070    0.1760 C   0  0  0  0  0  0  0  0  0  0  0  0
   -3.2030    0.4090    0.4140 C   0  0  0  0  0  0  0  0  0  0  0  0
   -3.5270    1.2870    1.4040 C   0  0  0  0  0  0  0  0  0  0  0  0
   -4.7520    1.7300    1.7000 N   0  0  0  0  0  0  0  0  0  0  0  0
   -5.8160    1.2860    0.9640 C   0  0  0  0  0  0  0  0  0  0  0  0
   -7.0520    1.6020    1.1070 O   0  0  0  0  0  0  0  0  0  0  0  0
   -7.9320    1.2990    0.5760 C   0  0  0  0  0  0  0  0  0  0  0  0
   -9.3140    1.4080    0.4430 O   0  0  0  0  0  0  0  0  0  0  0  0
   -7.1890    0.1070   -0.7100 S   0  0  0  0  0  0  0  0  0  0  0  0
   -5.5310    0.4110   -0.0280 C   0  0  0  0  0  0  0  0  0  0  0  0
   -4.2610   -0.0640   -0.3550 C   0  0  0  0  0  0  0  0  0  0  0  0
   -4.0980   -0.9850   -1.4270 N   0  0  0  0  0  0  0  0  0  0  0  0
   -2.7770   -1.4200   -1.6940 C   0  0  0  0  0  0  0  0  0  0  0  0
   -2.5950   -2.2330   -2.6340 O   0  0  0  0  0  0  0  0  0  0  0  0
  1  2  2  0
  2  3  1  0
  2 12  1  0
  3  4  1  0
  4  5  1  0
  5  6  1  0
  6  7  1  0
  7  8  1  0
  8  9  1  0
  9 10  1  0
 10 11  1  0
 12 13  1  0
 12 25  1  0
 13 14  1  0
 14 15  2  0
 14 23  1  0
 15 16  1  0
 16 17  2  0
 17 18  1  0
 17 22  1  0
 18 19  1  0
 19 20  2  0
 19 21  1  0
 21 22  1  0
 22 23  2  0
 23 24  1  0
 24 25  1  0
 25 26  2  0
M  END
