
     RDKit          3D

 12 12  0  0  0  0  0  0  0  0999 V2000
    3.6260   -1.0360   -0.3500 C   0  0  0  0  0  0  0  0  0  0  0  0
    2.4890   -1.2480    0.4030 O   0  0  0  0  0  0  0  0  0  0  0  0
    1.8790   -0.0850    0.8500 C   0  0  0  0  0  0  0  0  0  0  0  0
    1.4490    0.8350   -0.2770 C   0  0  0  0  0  0  0  0  0  0  0  0
    0.4820    0.1400   -1.2020 C   0  0  0  0  0  0  0  0  0  0  0  0
   -0.7290   -0.2890   -0.5640 N   0  0  0  0  0  0  0  0  0  0  0  0
   -0.9690   -1.6430   -0.3450 N   0  0  0  0  0  0  0  0  0  0  0  0
   -2.0400   -2.0230    0.2390 C   0  0  0  0  0  0  0  0  0  0  0  0
   -3.0800   -1.0840    0.7130 C   0  0  0  0  0  0  0  0  0  0  0  0
   -2.7590    0.3370    0.4470 C   0  0  0  0  0  0  0  0  0  0  0  0
   -1.6580    0.7360   -0.1540 C   0  0  0  0  0  0  0  0  0  0  0  0
   -1.4370    2.1750   -0.3840 C   0  0  0  0  0  0  0  0  0  0  0  0
  1  2  1  0
  2  3  1  0
  3  4  1  0
  4  5  1  0
  5  6  1  0
  6  7  1  0
  6 11  1  0
  7  8  2  0
  8  9  1  0
  9 10  1  0
 10 11  2  0
 11 12  1  0
M  END
