
     RDKit          3D

 12 12  0  0  0  0  0  0  0  0999 V2000
    4.1590    0.6610   -0.2910 C   0  0  0  0  0  0  0  0  0  0  0  0
    3.1630   -0.3850   -0.7340 C   0  0  0  0  0  0  0  0  0  0  0  0
    1.9030    0.0150   -0.3550 O   0  0  0  0  0  0  0  0  0  0  0  0
    0.9150   -0.8940   -0.7240 C   0  0  0  0  0  0  0  0  0  0  0  0
   -0.4280   -0.4040   -0.2850 C   0  0  0  0  0  0  0  0  0  0  0  0
   -1.3840   -0.1710   -1.0920 N   0  0  0  0  0  0  0  0  0  0  0  0
   -2.6390    0.2810   -0.7350 N   0  0  0  0  0  0  0  0  0  0  0  0
   -3.6830    0.5220   -1.7410 C   0  0  0  0  0  0  0  0  0  0  0  0
   -2.9590    0.5310    0.6450 C   0  0  0  0  0  0  0  0  0  0  0  0
   -1.8230    0.2450    1.5160 C   0  0  0  0  0  0  0  0  0  0  0  0
   -0.6510   -0.1830    1.1330 C   0  0  0  0  0  0  0  0  0  0  0  0
    0.4600   -0.4470    2.1260 C   0  0  0  0  0  0  0  0  0  0  0  0
  1  2  1  0
  2  3  1  0
  3  4  1  0
  4  5  1  0
  5  6  2  0
  5 11  1  0
  6  7  1  0
  7  8  1  0
  7  9  1  0
  9 10  1  0
 10 11  2  0
 11 12  1  0
M  END
