
     RDKit          3D

 12 12  0  0  0  0  0  0  0  0999 V2000
   -3.2030   -0.2370    0.5790 C   0  0  0  0  0  0  0  0  0  0  0  0
   -1.7260   -0.4140    0.4230 C   0  0  0  0  0  0  0  0  0  0  0  0
   -1.1440    0.6510   -0.5450 C   0  0  0  0  0  0  0  0  0  0  0  0
    0.2650    0.3290   -0.5770 N   0  0  0  0  0  0  0  0  0  0  0  0
    0.6220   -0.9160   -1.2180 C   0  0  0  0  0  0  0  0  0  0  0  0
    1.6240   -1.7180   -0.8220 C   0  0  0  0  0  0  0  0  0  0  0  0
    2.5690   -1.5680    0.2890 C   0  0  0  0  0  0  0  0  0  0  0  0
    2.8330   -0.4250    0.9080 C   0  0  0  0  0  0  0  0  0  0  0  0
    2.2970    0.8880    0.6660 N   0  0  0  0  0  0  0  0  0  0  0  0
    1.1890    1.2210    0.0270 C   0  0  0  0  0  0  0  0  0  0  0  0
    0.8680    2.6170   -0.0690 C   0  0  0  0  0  0  0  0  0  0  0  0
    1.6090    3.4820    0.4550 O   0  0  0  0  0  0  0  0  0  0  0  0
  1  2  1  0
  2  3  1  0
  3  4  1  0
  4  5  1  0
  4 10  1  0
  5  6  2  0
  6  7  1  0
  7  8  2  0
  8  9  1  0
  9 10  2  0
 10 11  1  0
 11 12  2  0
M  END
