
     RDKit          3D

 12 12  0  0  0  0  0  0  0  0999 V2000
    3.7830   -1.1410    0.2970 C   0  0  0  0  0  0  0  0  0  0  0  0
    2.7950   -0.2980    0.1390 C   0  0  0  0  0  0  0  0  0  0  0  0
    2.5990    0.9440    0.9270 C   0  0  0  0  0  0  0  0  0  0  0  0
    1.4120    1.5150    0.4000 N   0  0  0  0  0  0  0  0  0  0  0  0
    0.9290    0.7860   -0.5460 C   0  0  0  0  0  0  0  0  0  0  0  0
   -0.3150    1.1730   -1.2580 C   0  0  0  0  0  0  0  0  0  0  0  0
   -1.3860    0.1150   -1.1070 C   0  0  0  0  0  0  0  0  0  0  0  0
   -1.7070   -0.0660    0.3770 C   0  0  0  0  0  0  0  0  0  0  0  0
   -2.7770   -1.1210    0.5550 C   0  0  0  0  0  0  0  0  0  0  0  0
   -4.0070   -0.7540   -0.1310 C   0  0  0  0  0  0  0  0  0  0  0  0
   -4.9950   -0.4400   -0.6770 N   0  0  0  0  0  0  0  0  0  0  0  0
    1.7280   -0.3360   -0.7530 O   0  0  0  0  0  0  0  0  0  0  0  0
  1  2  2  0
  2  3  1  0
  2 12  1  0
  3  4  1  0
  4  5  2  0
  5  6  1  0
  5 12  1  0
  6  7  1  0
  7  8  1  0
  8  9  1  0
  9 10  1  0
 10 11  3  0
M  END
