
     RDKit          3D

 12 12  0  0  0  0  0  0  0  0999 V2000
    2.8900   -1.9130    0.4760 C   0  0  0  0  0  0  0  0  0  0  0  0
    2.4410   -0.6520    0.0120 O   0  0  0  0  0  0  0  0  0  0  0  0
    1.1200   -0.2560    0.0360 C   0  0  0  0  0  0  0  0  0  0  0  0
    0.8020    1.0260    0.0120 C   0  0  0  0  0  0  0  0  0  0  0  0
    1.8770    2.0170   -0.0400 C   0  0  0  0  0  0  0  0  0  0  0  0
    2.7310    2.7960   -0.0620 N   0  0  0  0  0  0  0  0  0  0  0  0
   -0.5400    1.4660    0.0360 N   0  0  0  0  0  0  0  0  0  0  0  0
   -0.7670    2.9280    0.0060 C   0  0  0  0  0  0  0  0  0  0  0  0
   -1.6530    0.5590    0.0870 C   0  0  0  0  0  0  0  0  0  0  0  0
   -1.2290   -0.8410    0.1110 C   0  0  0  0  0  0  0  0  0  0  0  0
   -2.3310   -1.8700    0.1650 C   0  0  0  0  0  0  0  0  0  0  0  0
    0.0300   -1.2150    0.0880 C   0  0  0  0  0  0  0  0  0  0  0  0
  1  2  1  0
  2  3  1  0
  3  4  2  0
  3 12  1  0
  4  5  1  0
  4  7  1  0
  5  6  3  0
  7  8  1  0
  7  9  1  0
  9 10  1  0
 10 11  1  0
 10 12  2  0
M  END
