
     RDKit          3D

 21 22  0  0  0  0  0  0  0  0999 V2000
    4.7410    1.7500   -0.3890 C   0  0  0  0  0  0  0  0  0  0  0  0
    4.4730    0.4430    0.2400 C   0  0  0  0  0  0  0  0  0  0  0  0
    3.6160   -0.4700   -0.1720 C   0  0  0  0  0  0  0  0  0  0  0  0
    2.7470   -0.3530   -1.3630 C   0  0  0  0  0  0  0  0  0  0  0  0
    1.3030   -0.4420   -1.0750 C   0  0  0  0  0  0  0  0  0  0  0  0
    0.2790   -1.9030   -1.3990 S   0  0  0  0  0  0  0  0  0  0  0  0
   -1.2220   -1.2300   -0.8100 C   0  0  0  0  0  0  0  0  0  0  0  0
   -0.8790    0.0340   -0.4070 C   0  0  0  0  0  0  0  0  0  0  0  0
    0.4220    0.4100   -0.5550 C   0  0  0  0  0  0  0  0  0  0  0  0
    0.9290    1.7980   -0.1450 C   0  0  0  0  0  0  0  0  0  0  0  0
   -2.0000    0.8820    0.1900 C   0  0  0  0  0  0  0  0  0  0  0  0
   -3.2300    0.2440    0.1330 N   0  0  0  0  0  0  0  0  0  0  0  0
   -4.3970    1.0440    0.5710 C   0  0  0  0  0  0  0  0  0  0  0  0
   -3.5140   -1.0670   -0.2920 C   0  0  0  0  0  0  0  0  0  0  0  0
   -4.9100   -1.5730   -0.1970 C   0  0  0  0  0  0  0  0  0  0  0  0
   -5.0240   -2.8760   -0.6550 O   0  0  0  0  0  0  0  0  0  0  0  0
   -2.5490   -1.7780   -0.7470 N   0  0  0  0  0  0  0  0  0  0  0  0
    3.5140   -1.7240    0.6280 C   0  0  2  0  0  0  0  0  0  0  0  0
    4.3850   -1.7180    1.7130 F   0  0  0  0  0  0  0  0  0  0  0  0
    3.7580   -2.8540   -0.1090 F   0  0  0  0  0  0  0  0  0  0  0  0
    2.2340   -1.8470    1.1820 F   0  0  0  0  0  0  0  0  0  0  0  0
  1  2  1  0
  2  3  2  3
  3  4  1  0
  3 18  1  0
  4  5  1  0
  5  6  1  0
  5  9  2  0
  6  7  1  0
  7  8  2  0
  7 17  1  0
  8  9  1  0
  8 11  1  0
  9 10  1  0
 11 12  1  0
 12 13  1  0
 12 14  1  0
 14 15  1  0
 14 17  2  0
 15 16  1  0
 18 19  1  1
 18 20  1  0
 18 21  1  0
M  END
