
     RDKit          3D

 21 21  0  0  0  0  0  0  0  0999 V2000
    5.2860   -0.5470    2.1130 C   0  0  0  0  0  0  0  0  0  0  0  0
    4.2080   -1.1800    1.4320 O   0  0  0  0  0  0  0  0  0  0  0  0
    3.3090   -0.4620    0.6490 C   0  0  0  0  0  0  0  0  0  0  0  0
    3.4980    0.7890    0.5740 O   0  0  0  0  0  0  0  0  0  0  0  0
    2.2510   -1.1300   -0.0120 N   0  0  0  0  0  0  0  0  0  0  0  0
    1.3350   -0.3290   -0.8200 C   0  0  1  0  0  0  0  0  0  0  0  0
    1.4780   -0.8210   -2.2210 C   0  0  0  0  0  0  0  0  0  0  0  0
    1.1340   -2.1910   -2.3130 O   0  0  0  0  0  0  0  0  0  0  0  0
    0.0520   -0.3710   -0.2990 O   0  0  0  0  0  0  0  0  0  0  0  0
   -0.4360    0.8060    0.1840 C   0  0  2  0  0  0  0  0  0  0  0  0
   -0.7670    0.6370    1.6880 C   0  0  2  0  0  0  0  0  0  0  0  0
   -0.1550   -0.4730    2.2010 O   0  0  0  0  0  0  0  0  0  0  0  0
   -2.2130    0.5090    1.2750 C   0  0  2  0  0  0  0  0  0  0  0  0
   -2.6910   -0.8960    1.2590 C   0  0  2  0  0  0  0  0  0  0  0  0
   -2.5410   -1.4090    2.5710 O   0  0  0  0  0  0  0  0  0  0  0  0
   -2.0310   -1.7590    0.4190 O   0  0  0  0  0  0  0  0  0  0  0  0
   -1.8540    1.1810   -0.0030 C   0  0  1  0  0  0  0  0  0  0  0  0
   -2.0300    2.5910    0.1630 O   0  0  0  0  0  0  0  0  0  0  0  0
   -2.5880    0.7700   -1.2250 C   0  0  0  0  0  0  0  0  0  0  0  0
   -2.0150    1.2950   -2.5000 C   0  0  0  0  0  0  0  0  0  0  0  0
   -1.9920    2.6890   -2.5500 O   0  0  0  0  0  0  0  0  0  0  0  0
  1  2  1  0
  2  3  1  0
  3  4  2  0
  3  5  1  0
  5  6  1  0
  6  7  1  6
  6  9  1  0
  7  8  1  0
 10  9  1  6
 10 11  1  0
 10 17  1  0
 11 12  1  6
 11 13  1  0
 13 14  1  6
 13 17  1  0
 14 15  1  1
 14 16  1  0
 17 18  1  1
 17 19  1  0
 19 20  1  0
 20 21  1  0
M  END
