
     RDKit          3D

 21 21  0  0  0  0  0  0  0  0999 V2000
   -0.4730   -1.1060   -1.8050 C   0  0  0  0  0  0  0  0  0  0  0  0
   -0.5540   -0.3190   -0.4880 C   0  0  2  0  0  0  0  0  0  0  0  0
    0.8220    0.2560   -0.2440 C   0  0  2  0  0  0  0  0  0  0  0  0
    1.1570    1.1160   -1.3170 O   0  0  0  0  0  0  0  0  0  0  0  0
    1.8220   -0.8750   -0.3120 C   0  0  0  0  0  0  0  0  0  0  0  0
    3.2170   -0.3710   -0.0850 C   0  0  0  0  0  0  0  0  0  0  0  0
    3.4170    0.8150    0.2440 O   0  0  0  0  0  0  0  0  0  0  0  0
    4.3400   -1.2260   -0.2410 N   0  0  0  0  0  0  0  0  0  0  0  0
    5.6180   -0.9260   -0.0820 O   0  0  0  0  0  0  0  0  0  0  0  0
    5.9550    0.1580    0.6640 C   0  0  0  0  0  0  0  0  0  0  0  0
    7.3750    0.2050    0.6630 O   0  0  0  0  0  0  0  0  0  0  0  0
   -0.8440   -1.3300    0.5900 C   0  0  0  0  0  0  0  0  0  0  0  0
   -2.3060   -1.7120    0.4230 C   0  0  0  0  0  0  0  0  0  0  0  0
   -3.0620   -0.6040    0.6510 O   0  0  0  0  0  0  0  0  0  0  0  0
   -2.5720    0.6020    0.2460 C   0  0  2  0  0  0  0  0  0  0  0  0
   -2.2120    1.3510    1.3850 O   0  0  0  0  0  0  0  0  0  0  0  0
   -3.7450    1.3560   -0.3740 C   0  0  2  0  0  0  0  0  0  0  0  0
   -3.3650    2.6070   -0.8250 O   0  0  0  0  0  0  0  0  0  0  0  0
   -4.8330    1.4360    0.6610 C   0  0  0  0  0  0  0  0  0  0  0  0
   -5.9780    2.0650    0.1610 O   0  0  0  0  0  0  0  0  0  0  0  0
   -1.5250    0.6250   -0.6140 O   0  0  0  0  0  0  0  0  0  0  0  0
  2  1  1  6
  2  3  1  0
  2 12  1  0
  2 21  1  0
  3  4  1  6
  3  5  1  0
  5  6  1  0
  6  7  2  0
  6  8  1  0
  8  9  1  0
  9 10  1  0
 10 11  1  0
 12 13  1  0
 13 14  1  0
 14 15  1  0
 15 16  1  1
 15 17  1  0
 15 21  1  0
 17 18  1  1
 17 19  1  0
 19 20  1  0
M  END
