
     RDKit          3D

 20 20  0  0  0  0  0  0  0  0999 V2000
    4.1270    1.2780    1.2500 C   0  0  0  0  0  0  0  0  0  0  0  0
    3.4450    1.9630    0.2950 O   0  0  0  0  0  0  0  0  0  0  0  0
    3.7020    1.5890   -0.9780 C   0  0  0  0  0  0  0  0  0  0  0  0
    3.3930    0.1790   -1.3700 C   0  0  1  0  0  0  0  0  0  0  0  0
    4.1640   -0.7130   -0.6600 O   0  0  0  0  0  0  0  0  0  0  0  0
    1.9070   -0.0440   -1.0460 C   0  0  0  0  0  0  0  0  0  0  0  0
    1.4950   -1.2780   -1.3550 O   0  0  0  0  0  0  0  0  0  0  0  0
    0.2150   -1.6320   -1.1610 C   0  0  0  0  0  0  0  0  0  0  0  0
   -0.3920   -1.7810    0.1790 C   0  0  2  0  0  0  0  0  0  0  0  0
   -1.7480   -2.1240   -0.0860 O   0  0  0  0  0  0  0  0  0  0  0  0
   -2.6580   -1.1870    0.2740 C   0  0  2  0  0  0  0  0  0  0  0  0
   -3.7480   -1.2810   -0.7220 N   0  0  0  0  0  0  0  0  0  0  0  0
   -2.2680    0.2400    0.3220 C   0  0  2  0  0  0  0  0  0  0  0  0
   -2.9140    0.8630    1.5720 C   0  0  0  0  0  0  0  0  0  0  0  0
   -2.6340    2.2000    1.6900 O   0  0  0  0  0  0  0  0  0  0  0  0
   -2.6720    1.0070   -0.8960 C   0  0  0  0  0  0  0  0  0  0  0  0
   -4.0200    0.8880   -1.1990 O   0  0  0  0  0  0  0  0  0  0  0  0
   -0.8780    0.4540    0.5110 O   0  0  0  0  0  0  0  0  0  0  0  0
   -0.4390   -0.6860    1.1470 C   0  0  2  0  0  0  0  0  0  0  0  0
    0.5950   -0.5430    2.0390 O   0  0  0  0  0  0  0  0  0  0  0  0
  1  2  1  0
  2  3  1  0
  3  4  1  0
  4  5  1  1
  4  6  1  0
  6  7  1  0
  7  8  1  0
  9  8  1  6
  9 10  1  0
  9 19  1  0
 10 11  1  0
 11 12  1  6
 11 13  1  0
 13 14  1  1
 13 16  1  0
 13 18  1  0
 14 15  1  0
 16 17  1  0
 18 19  1  0
 19 20  1  6
M  END
