
     RDKit          3D

 21 23  0  0  0  0  0  0  0  0999 V2000
   -0.2340   -0.4890   -2.6500 O   0  0  0  0  0  0  0  0  0  0  0  0
   -1.1140   -0.1590   -1.7880 C   0  0  0  0  0  0  0  0  0  0  0  0
   -2.0620    0.7630   -1.9190 N   0  0  0  0  0  0  0  0  0  0  0  0
   -2.7940    0.8110   -0.7650 C   0  0  0  0  0  0  0  0  0  0  0  0
   -2.3030   -0.1020    0.1080 C   0  0  0  0  0  0  0  0  0  0  0  0
   -1.2460   -0.6800   -0.5750 N   0  0  0  0  0  0  0  0  0  0  0  0
   -0.2800   -1.6210   -0.0200 C   0  0  0  0  0  0  0  0  0  0  0  0
    1.0350   -0.9150    0.1190 C   0  0  0  0  0  0  0  0  0  0  0  0
    1.1510    0.4640    0.2400 C   0  0  0  0  0  0  0  0  0  0  0  0
    2.3900    1.0770    0.2560 C   0  0  0  0  0  0  0  0  0  0  0  0
    3.5430    0.3430    0.1580 C   0  0  0  0  0  0  0  0  0  0  0  0
    4.8830    0.9220    0.1490 C   0  0  1  0  0  0  0  0  0  0  0  0
    5.6170    0.4590   -0.9430 F   0  0  0  0  0  0  0  0  0  0  0  0
    4.8590    2.3180    0.0050 F   0  0  0  0  0  0  0  0  0  0  0  0
    5.5780    0.5790    1.2780 F   0  0  0  0  0  0  0  0  0  0  0  0
    3.4410   -1.0240    0.0440 C   0  0  0  0  0  0  0  0  0  0  0  0
    2.1940   -1.6460    0.0250 C   0  0  0  0  0  0  0  0  0  0  0  0
   -2.8510   -0.4760    1.2380 C   0  0  0  0  0  0  0  0  0  0  0  0
   -4.1030   -0.0260    1.8120 C   0  0  0  0  0  0  0  0  0  0  0  0
   -4.6140    1.5430    1.0900 S   0  0  0  0  0  0  0  0  0  0  0  0
   -3.8020    1.6470   -0.4790 C   0  0  0  0  0  0  0  0  0  0  0  0
  1  2  2  0
  2  3  1  0
  2  6  1  0
  3  4  1  0
  4  5  1  0
  4 21  2  0
  5  6  1  0
  5 18  2  0
  6  7  1  0
  7  8  1  0
  8  9  2  0
  8 17  1  0
  9 10  1  0
 10 11  2  0
 11 12  1  0
 11 16  1  0
 12 13  1  6
 12 14  1  0
 12 15  1  0
 16 17  2  0
 18 19  1  0
 19 20  1  0
 20 21  1  0
M  END
