
     RDKit          3D

 21 21  0  0  0  0  0  0  0  0999 V2000
    3.4410    1.0900   -1.5790 C   0  0  0  0  0  0  0  0  0  0  0  0
    2.4260    0.8300   -0.4810 C   0  0  1  0  0  0  0  0  0  0  0  0
    3.0630    0.8020    0.8790 C   0  0  2  0  0  0  0  0  0  0  0  0
    3.7070    2.0160    1.0690 O   0  0  0  0  0  0  0  0  0  0  0  0
    4.0160   -0.3300    1.0700 C   0  0  0  0  0  0  0  0  0  0  0  0
    5.1280   -0.2890    0.1520 N   0  0  0  0  0  0  0  0  0  0  0  0
    1.5220    1.8790   -0.5140 O   0  0  0  0  0  0  0  0  0  0  0  0
    0.2610    1.3520   -0.3680 C   0  0  0  0  0  0  0  0  0  0  0  0
    0.5320   -0.1090   -0.0780 C   0  0  1  0  0  0  0  0  0  0  0  0
   -0.6110   -0.8800   -0.6070 C   0  0  0  0  0  0  0  0  0  0  0  0
   -0.5700   -1.6600   -1.5810 O   0  0  0  0  0  0  0  0  0  0  0  0
   -1.8180   -0.7120    0.0440 O   0  0  0  0  0  0  0  0  0  0  0  0
   -3.0030   -1.3690   -0.3280 C   0  0  1  0  0  0  0  0  0  0  0  0
   -3.4740   -2.1810    0.7940 C   0  0  0  0  0  0  0  0  0  0  0  0
   -2.8540   -2.2220    1.8780 O   0  0  0  0  0  0  0  0  0  0  0  0
   -4.6290   -2.9290    0.6800 O   0  0  0  0  0  0  0  0  0  0  0  0
   -3.9910   -0.3280   -0.7780 C   0  0  1  0  0  0  0  0  0  0  0  0
   -5.1810   -0.9140   -1.1600 O   0  0  0  0  0  0  0  0  0  0  0  0
   -4.1970    0.7530    0.2610 C   0  0  0  0  0  0  0  0  0  0  0  0
   -3.0000    1.3400    0.6430 O   0  0  0  0  0  0  0  0  0  0  0  0
    1.7060   -0.3270   -0.7750 O   0  0  0  0  0  0  0  0  0  0  0  0
  2  1  1  6
  2  3  1  0
  2  7  1  0
  2 21  1  0
  3  4  1  6
  3  5  1  0
  5  6  1  0
  7  8  1  0
  8  9  1  0
  9 10  1  6
  9 21  1  0
 10 11  2  0
 10 12  1  0
 13 12  1  1
 13 14  1  0
 13 17  1  0
 14 15  2  0
 14 16  1  0
 17 18  1  1
 17 19  1  0
 19 20  1  0
M  END
