
     RDKit          3D

 20 20  0  0  0  0  0  0  0  0999 V2000
    6.2270   -0.0060   -1.5400 N   0  0  0  0  0  0  0  0  0  0  0  0
    5.0120    0.4090   -1.1180 O   0  0  0  0  0  0  0  0  0  0  0  0
    4.7090   -0.3040    0.0350 C   0  0  0  0  0  0  0  0  0  0  0  0
    3.3230    0.1270    0.5730 C   0  0  2  0  0  0  0  0  0  0  0  0
    3.2000   -0.6950    1.7250 O   0  0  0  0  0  0  0  0  0  0  0  0
    2.2660   -0.1580   -0.4130 C   0  0  0  0  0  0  0  0  0  0  0  0
    0.8780    0.2960    0.0740 C   0  0  2  0  0  0  0  0  0  0  0  0
    1.1010    1.7060    0.2640 O   0  0  0  0  0  0  0  0  0  0  0  0
    0.4380   -0.2960    1.3350 C   0  0  0  0  0  0  0  0  0  0  0  0
   -0.6940    0.4080    1.8260 O   0  0  0  0  0  0  0  0  0  0  0  0
   -0.0850    0.1420   -1.0440 C   0  0  0  0  0  0  0  0  0  0  0  0
   -1.4840    0.5060   -0.7610 C   0  0  1  0  0  0  0  0  0  0  0  0
   -2.1750    0.3320   -2.0160 O   0  0  0  0  0  0  0  0  0  0  0  0
   -3.3800    1.0030   -1.9470 C   0  0  0  0  0  0  0  0  0  0  0  0
   -4.2590    0.2100   -0.9830 C   0  0  1  0  0  0  0  0  0  0  0  0
   -4.5870   -1.0240   -1.5340 O   0  0  0  0  0  0  0  0  0  0  0  0
   -3.4470    0.0610    0.2810 C   0  0  1  0  0  0  0  0  0  0  0  0
   -4.1920   -0.8910    1.2110 C   0  0  0  0  0  0  0  0  0  0  0  0
   -4.2370   -2.1500    0.6420 O   0  0  0  0  0  0  0  0  0  0  0  0
   -2.1670   -0.3970    0.0830 O   0  0  0  0  0  0  0  0  0  0  0  0
  1  2  1  0
  2  3  1  0
  3  4  1  0
  4  5  1  1
  4  6  1  0
  6  7  1  0
  7  8  1  1
  7  9  1  0
  7 11  1  0
  9 10  1  0
 12 11  1  6
 12 13  1  0
 12 20  1  0
 13 14  1  0
 14 15  1  0
 15 16  1  6
 15 17  1  0
 17 18  1  1
 17 20  1  0
 18 19  1  0
M  END
