
     RDKit          3D

 13 12  0  0  0  0  0  0  0  0999 V2000
    4.9290    0.0650   -0.6520 C   0  0  0  0  0  0  0  0  0  0  0  0
    4.0230   -0.3890    0.3710 N   0  0  0  0  0  0  0  0  0  0  0  0
    2.7480    0.1990    0.4780 C   0  0  0  0  0  0  0  0  0  0  0  0
    1.8540   -0.0400   -0.4560 C   0  0  0  0  0  0  0  0  0  0  0  0
    0.5430    0.4960   -0.4510 N   0  0  0  0  0  0  0  0  0  0  0  0
   -0.4980   -0.1240   -0.0870 C   0  0  0  0  0  0  0  0  0  0  0  0
   -0.4710   -1.4780    0.3750 N   0  0  0  0  0  0  0  0  0  0  0  0
   -1.7900    0.5500   -0.1340 C   0  0  0  0  0  0  0  0  0  0  0  0
   -1.8320    1.9230   -0.6000 C   0  0  0  0  0  0  0  0  0  0  0  0
   -0.7880    2.5190   -0.9570 O   0  0  0  0  0  0  0  0  0  0  0  0
   -2.9090   -0.0550    0.2370 C   0  0  0  0  0  0  0  0  0  0  0  0
   -4.1900    0.6890    0.1650 C   0  0  0  0  0  0  0  0  0  0  0  0
   -2.9350   -1.3850    0.6990 N   0  0  0  0  0  0  0  0  0  0  0  0
  1  2  1  0
  2  3  1  0
  3  4  2  3
  4  5  1  0
  5  6  2  3
  6  7  1  0
  6  8  1  0
  8  9  1  0
  8 11  2  3
  9 10  2  0
 11 12  1  0
 11 13  1  0
M  END
