
     RDKit          3D

 27 29  0  0  0  0  0  0  0  0999 V2000
    2.0460   -0.3920    0.5830 O   0  0  0  0  0  0  0  0  0  0  0  0
    2.5950    0.7270    0.3820 C   0  0  0  0  0  0  0  0  0  0  0  0
    1.8210    1.9350    0.5100 N   0  0  0  0  0  0  0  0  0  0  0  0
    0.4200    1.7770    0.8690 C   0  0  0  0  0  0  0  0  0  0  0  0
   -0.2550    0.9940   -0.1740 C   0  0  0  0  0  0  0  0  0  0  0  0
    0.4010    0.5980   -1.1680 O   0  0  0  0  0  0  0  0  0  0  0  0
   -1.6220    0.6770   -0.0750 N   0  0  0  0  0  0  0  0  0  0  0  0
   -2.3900    1.1980    1.0300 C   0  0  0  0  0  0  0  0  0  0  0  0
   -3.1180    2.4440    0.7420 C   0  0  0  0  0  0  0  0  0  0  0  0
   -4.4530    2.5500    0.8580 C   0  0  0  0  0  0  0  0  0  0  0  0
   -4.8810    3.9040    0.5030 C   0  0  0  0  0  0  0  0  0  0  0  0
   -3.6270    4.5860    0.1540 C   0  0  0  0  0  0  0  0  0  0  0  0
   -2.6270    3.7220    0.3010 C   0  0  0  0  0  0  0  0  0  0  0  0
   -2.2430   -0.1480   -1.0690 C   0  0  0  0  0  0  0  0  0  0  0  0
   -2.2280   -1.5970   -0.8610 C   0  0  2  0  0  0  0  0  0  0  0  0
   -2.8910   -2.1190    0.3810 C   0  0  0  0  0  0  0  0  0  0  0  0
   -2.6090   -3.6230    0.1980 C   0  0  0  0  0  0  0  0  0  0  0  0
   -1.3240   -3.6360   -0.6250 C   0  0  0  0  0  0  0  0  0  0  0  0
   -0.9440   -2.2340   -0.7790 N   0  0  0  0  0  0  0  0  0  0  0  0
    3.9470    0.8410    0.0340 N   0  0  0  0  0  0  0  0  0  0  0  0
    4.8300   -0.2480   -0.1370 C   0  0  0  0  0  0  0  0  0  0  0  0
    4.4500   -1.5570   -0.1850 C   0  0  0  0  0  0  0  0  0  0  0  0
    5.3980   -2.5770   -0.3450 C   0  0  0  0  0  0  0  0  0  0  0  0
    6.7270   -2.2480   -0.4550 C   0  0  0  0  0  0  0  0  0  0  0  0
    7.9020   -3.5140   -0.6530 Cl  0  0  0  0  0  0  0  0  0  0  0  0
    7.1440   -0.9470   -0.4120 C   0  0  0  0  0  0  0  0  0  0  0  0
    6.1940    0.0350   -0.2540 C   0  0  0  0  0  0  0  0  0  0  0  0
  1  2  2  0
  2  3  1  0
  2 20  1  0
  3  4  1  0
  4  5  1  0
  5  6  2  0
  5  7  1  0
  7  8  1  0
  7 14  1  0
  8  9  1  0
  9 10  2  0
  9 13  1  0
 10 11  1  0
 11 12  1  0
 12 13  2  0
 15 14  1  1
 15 16  1  0
 15 19  1  0
 16 17  1  0
 17 18  1  0
 18 19  1  0
 20 21  1  0
 21 22  2  0
 21 27  1  0
 22 23  1  0
 23 24  2  0
 24 25  1  0
 24 26  1  0
 26 27  2  0
M  CHG  1  19   1
M  END
