
     RDKit          3D

 27 29  0  0  0  0  0  0  0  0999 V2000
   -1.9830    3.0820    0.2970 C   0  0  0  0  0  0  0  0  0  0  0  0
   -2.9720    2.6320    0.9940 C   0  0  0  0  0  0  0  0  0  0  0  0
   -3.4500    1.3280    1.1540 C   0  0  0  0  0  0  0  0  0  0  0  0
   -4.5700    1.1870    1.9120 C   0  0  0  0  0  0  0  0  0  0  0  0
   -5.2870   -0.1000    2.2290 C   0  0  0  0  0  0  0  0  0  0  0  0
   -5.8360   -0.7250    0.9770 C   0  0  0  0  0  0  0  0  0  0  0  0
   -5.0780   -0.5440   -0.2560 C   0  0  0  0  0  0  0  0  0  0  0  0
   -5.7420   -0.7380   -1.3190 O   0  0  0  0  0  0  0  0  0  0  0  0
   -3.6920   -0.1800   -0.5330 N   0  0  0  0  0  0  0  0  0  0  0  0
   -2.7900    0.1110    0.5650 C   0  0  1  0  0  0  0  0  0  0  0  0
   -1.4050    0.2410    0.4180 C   0  0  0  0  0  0  0  0  0  0  0  0
   -0.3710   -0.3280   -0.1490 C   0  0  0  0  0  0  0  0  0  0  0  0
    0.8930    0.2630    0.0130 N   0  0  0  0  0  0  0  0  0  0  0  0
    1.8240   -0.4220   -0.5900 C   0  0  0  0  0  0  0  0  0  0  0  0
    3.3140   -0.0910   -0.6410 C   0  0  1  0  0  0  0  0  0  0  0  0
    3.9870   -0.3440    0.6610 C   0  0  0  0  0  0  0  0  0  0  0  0
    5.3630   -0.0410    0.7560 N   0  0  0  0  0  0  0  0  0  0  0  0
    5.8990    1.2760    0.7200 C   0  0  0  0  0  0  0  0  0  0  0  0
    7.4010    1.4320    0.8010 C   0  0  0  0  0  0  0  0  0  0  0  0
    5.1590    2.2860    0.6240 O   0  0  0  0  0  0  0  0  0  0  0  0
    4.0020   -0.6050   -1.8840 C   0  0  0  0  0  0  0  0  0  0  0  0
    3.7010    0.8540   -1.7170 C   0  0  0  0  0  0  0  0  0  0  0  0
    1.2340   -1.4660   -1.1570 N   0  0  0  0  0  0  0  0  0  0  0  0
   -0.1360   -1.4410   -0.9000 C   0  0  0  0  0  0  0  0  0  0  0  0
   -0.8610   -2.4530   -1.2650 C   0  0  0  0  0  0  0  0  0  0  0  0
   -2.2450   -2.8350   -1.0140 C   0  0  0  0  0  0  0  0  0  0  0  0
   -2.3670   -4.6400   -1.1710 Cl  0  0  0  0  0  0  0  0  0  0  0  0
  1  2  2  0
  2  3  1  0
  3  4  2  0
  3 10  1  0
  4  5  1  0
  5  6  1  0
  6  7  1  0
  7  8  2  0
  7  9  1  0
  9 10  1  0
 10 11  1  6
 11 12  2  3
 12 13  1  0
 12 24  1  0
 13 14  2  0
 14 15  1  0
 14 23  1  0
 15 16  1  1
 15 21  1  0
 15 22  1  0
 16 17  1  0
 17 18  1  0
 18 19  1  0
 18 20  2  0
 21 22  1  0
 23 24  1  0
 24 25  2  3
 25 26  1  0
 26 27  1  0
M  END
