
     RDKit          3D

 13 12  0  0  0  0  0  0  0  0999 V2000
    1.8680    3.3770    0.3310 C   0  0  0  0  0  0  0  0  0  0  0  0
    1.7840    1.9170    0.1040 C   0  0  0  0  0  0  0  0  0  0  0  0
    0.6310    1.3210    0.1900 C   0  0  0  0  0  0  0  0  0  0  0  0
    0.4540   -0.0630   -0.0100 N   0  0  0  0  0  0  0  0  0  0  0  0
    1.3130   -0.9690    0.6470 C   0  0  0  0  0  0  0  0  0  0  0  0
    2.4460   -1.4010    0.1750 C   0  0  0  0  0  0  0  0  0  0  0  0
    3.2260   -2.3120    0.9250 N   0  0  0  0  0  0  0  0  0  0  0  0
   -0.5540   -0.5080   -0.8430 N   0  0  0  0  0  0  0  0  0  0  0  0
   -1.3640   -1.6300   -0.5090 C   0  0  0  0  0  0  0  0  0  0  0  0
   -2.6450   -1.5360   -0.3420 C   0  0  0  0  0  0  0  0  0  0  0  0
   -3.3390   -0.2600   -0.4880 C   0  0  0  0  0  0  0  0  0  0  0  0
   -4.7460   -0.1550   -0.3050 N   0  0  0  0  0  0  0  0  0  0  0  0
   -2.7130    0.7900   -0.7820 O   0  0  0  0  0  0  0  0  0  0  0  0
  1  2  1  0
  2  3  2  3
  3  4  1  0
  4  5  1  0
  4  8  1  0
  5  6  2  3
  6  7  1  0
  8  9  1  0
  9 10  2  3
 10 11  1  0
 11 12  1  0
 11 13  2  0
M  END
