
     RDKit          3D

 13 12  0  0  0  0  0  0  0  0999 V2000
    4.3660    0.8030    0.7190 C   0  0  0  0  0  0  0  0  0  0  0  0
    3.3050    0.1260    0.8650 N   0  0  0  0  0  0  0  0  0  0  0  0
    2.2850   -0.0410   -0.1070 C   0  0  0  0  0  0  0  0  0  0  0  0
    2.5330   -0.4230   -1.3410 C   0  0  0  0  0  0  0  0  0  0  0  0
    3.9110   -0.7060   -1.8010 C   0  0  0  0  0  0  0  0  0  0  0  0
    0.8750    0.2440    0.3460 C   0  0  0  0  0  0  0  0  0  0  0  0
   -0.0290    0.0270   -0.7620 N   0  0  0  0  0  0  0  0  0  0  0  0
   -1.3720    0.3280   -0.3250 C   0  0  0  0  0  0  0  0  0  0  0  0
   -1.9260   -0.6390    0.6800 C   0  0  0  0  0  0  0  0  0  0  0  0
   -3.2590   -0.2560    1.0470 N   0  0  0  0  0  0  0  0  0  0  0  0
   -4.3630   -0.1780    0.1650 C   0  0  0  0  0  0  0  0  0  0  0  0
   -5.6580    0.2150    0.5920 N   0  0  0  0  0  0  0  0  0  0  0  0
   -4.1460   -0.4790   -1.0540 O   0  0  0  0  0  0  0  0  0  0  0  0
  1  2  2  0
  2  3  1  0
  3  4  2  3
  3  6  1  0
  4  5  1  0
  6  7  1  0
  7  8  1  0
  8  9  1  0
  9 10  1  0
 10 11  1  0
 11 12  1  0
 11 13  2  0
M  END
