
     RDKit          3D

 17 18  0  0  0  0  0  0  0  0999 V2000
   -0.0540   -1.2300   -0.0750 O   0  0  0  0  0  0  0  0  0  0  0  0
   -0.1210    0.0090   -0.2470 C   0  0  0  0  0  0  0  0  0  0  0  0
    1.0310    0.8440   -0.3510 C   0  0  0  0  0  0  0  0  0  0  0  0
    2.2650    0.4600   -0.2840 C   0  0  0  0  0  0  0  0  0  0  0  0
    2.7160   -0.8760   -0.0940 C   0  0  0  0  0  0  0  0  0  0  0  0
    3.9950   -1.1760   -0.0380 C   0  0  0  0  0  0  0  0  0  0  0  0
    5.1110   -0.2300   -0.1560 C   0  0  0  0  0  0  0  0  0  0  0  0
    6.0660   -0.7460   -1.5780 Cl  0  0  0  0  0  0  0  0  0  0  0  0
   -1.4360    0.6260   -0.3470 N   0  0  0  0  0  0  0  0  0  0  0  0
   -1.6820    1.9020   -0.5260 N   0  0  0  0  0  0  0  0  0  0  0  0
   -2.9880    2.1550   -0.5760 C   0  0  0  0  0  0  0  0  0  0  0  0
   -3.6160    0.9310   -0.4130 C   0  0  0  0  0  0  0  0  0  0  0  0
   -4.7970    0.2640   -0.3330 N   0  0  0  0  0  0  0  0  0  0  0  0
   -4.5070   -1.0410   -0.1490 C   0  0  0  0  0  0  0  0  0  0  0  0
   -3.1820   -1.2250   -0.1090 N   0  0  0  0  0  0  0  0  0  0  0  0
   -2.4530   -2.3770    0.0580 O   0  0  0  0  0  0  0  0  0  0  0  0
   -2.6160   -0.0090   -0.2720 C   0  0  0  0  0  0  0  0  0  0  0  0
  1  2  2  0
  2  3  1  0
  2  9  1  0
  3  4  2  3
  4  5  1  0
  5  6  2  3
  6  7  1  0
  7  8  1  0
  9 10  1  0
  9 17  1  0
 10 11  2  0
 11 12  1  0
 12 13  1  0
 12 17  2  0
 13 14  1  0
 14 15  2  0
 15 16  1  0
 15 17  1  0
M  CHG  2  15   1  16  -1
M  END
