
     RDKit          3D

 27 29  0  0  0  0  0  0  0  0999 V2000
    5.4550    1.9900    0.6260 C   0  0  0  0  0  0  0  0  0  0  0  0
    4.1930    2.7000    0.2000 C   0  0  0  0  0  0  0  0  0  0  0  0
    3.1750    1.7300   -0.1980 C   0  0  0  0  0  0  0  0  0  0  0  0
    3.3520    0.3890    0.0520 C   0  0  0  0  0  0  0  0  0  0  0  0
    2.3760   -0.5470   -0.3360 C   0  0  0  0  0  0  0  0  0  0  0  0
    2.6640   -1.9330   -0.0280 C   0  0  0  0  0  0  0  0  0  0  0  0
    2.1360   -3.0360   -0.5480 C   0  0  0  0  0  0  0  0  0  0  0  0
    2.7320   -4.2070    0.0890 C   0  0  0  0  0  0  0  0  0  0  0  0
    3.6900   -3.6600    1.0820 C   0  0  0  0  0  0  0  0  0  0  0  0
    3.6300   -2.3510    0.9910 C   0  0  0  0  0  0  0  0  0  0  0  0
    1.2370   -0.1650   -0.9590 C   0  0  0  0  0  0  0  0  0  0  0  0
    0.2650   -1.0110   -1.3380 O   0  0  0  0  0  0  0  0  0  0  0  0
   -0.8940   -1.4400   -0.7500 C   0  0  1  0  0  0  0  0  0  0  0  0
   -1.5090   -2.4670   -1.7480 C   0  0  0  0  0  0  0  0  0  0  0  0
   -0.7600   -2.2340    0.5340 C   0  0  0  0  0  0  0  0  0  0  0  0
   -1.9990   -0.4620   -0.5550 C   0  0  0  0  0  0  0  0  0  0  0  0
   -2.3230   -0.0120    0.6990 C   0  0  0  0  0  0  0  0  0  0  0  0
   -3.4210    0.7960    0.9270 C   0  0  0  0  0  0  0  0  0  0  0  0
   -4.2330    1.1770   -0.1190 C   0  0  0  0  0  0  0  0  0  0  0  0
   -5.4800    1.9810    0.1170 C   0  0  2  0  0  0  0  0  0  0  0  0
   -6.6830    1.0270   -0.0840 C   0  0  0  0  0  0  0  0  0  0  0  0
   -5.5640    3.0770   -0.6870 O   0  0  0  0  0  0  0  0  0  0  0  0
   -3.9240    0.7460   -1.3730 C   0  0  0  0  0  0  0  0  0  0  0  0
   -2.8070   -0.0750   -1.5910 C   0  0  0  0  0  0  0  0  0  0  0  0
    1.0640    1.2080   -1.2110 C   0  0  0  0  0  0  0  0  0  0  0  0
    2.0020    2.1450   -0.8460 C   0  0  0  0  0  0  0  0  0  0  0  0
    1.8520    3.5870   -1.0920 C   0  0  0  0  0  0  0  0  0  0  0  0
  1  2  1  0
  2  3  1  0
  3  4  2  0
  3 26  1  0
  4  5  1  0
  5  6  1  0
  5 11  2  0
  6  7  2  0
  6 10  1  0
  7  8  1  0
  8  9  1  0
  9 10  2  0
 11 12  1  0
 11 25  1  0
 12 13  1  0
 13 14  1  6
 13 15  1  0
 13 16  1  0
 16 17  2  0
 16 24  1  0
 17 18  1  0
 18 19  2  0
 19 20  1  0
 19 23  1  0
 20 21  1  6
 20 22  1  0
 23 24  2  0
 25 26  2  0
 26 27  1  0
M  END
