
     RDKit          3D

 27 29  0  0  0  0  0  0  0  0999 V2000
   -1.9380   -4.0420    0.0430 C   0  0  0  0  0  0  0  0  0  0  0  0
   -0.4980   -4.2010    0.1720 C   0  0  0  0  0  0  0  0  0  0  0  0
    0.4820   -3.3620    0.2200 C   0  0  0  0  0  0  0  0  0  0  0  0
    0.6600   -1.9760    0.1680 C   0  0  0  0  0  0  0  0  0  0  0  0
    1.7950   -1.3240    0.3280 C   0  0  0  0  0  0  0  0  0  0  0  0
    3.1600   -1.6600    0.5910 C   0  0  0  0  0  0  0  0  0  0  0  0
    3.7740   -2.9560    0.8280 C   0  0  0  0  0  0  0  0  0  0  0  0
    5.0660   -2.9280    1.0290 O   0  0  0  0  0  0  0  0  0  0  0  0
    4.0640   -0.6550    0.6810 C   0  0  0  0  0  0  0  0  0  0  0  0
    3.7800    0.7430    0.5420 C   0  0  0  0  0  0  0  0  0  0  0  0
    2.9050    1.4890    1.2840 C   0  0  0  0  0  0  0  0  0  0  0  0
    2.6720    2.8240    1.0690 C   0  0  0  0  0  0  0  0  0  0  0  0
    3.3210    3.5030    0.0730 C   0  0  0  0  0  0  0  0  0  0  0  0
    4.2100    2.7830   -0.6930 C   0  0  0  0  0  0  0  0  0  0  0  0
    4.4440    1.4490   -0.4800 C   0  0  0  0  0  0  0  0  0  0  0  0
    5.3590    0.8140   -1.3070 O   0  0  0  0  0  0  0  0  0  0  0  0
   -0.4860   -1.0570   -0.0800 C   0  0  0  0  0  0  0  0  0  0  0  0
   -1.4790   -1.2660   -0.9710 C   0  0  0  0  0  0  0  0  0  0  0  0
   -2.5630   -0.3960   -1.0300 C   0  0  0  0  0  0  0  0  0  0  0  0
   -2.6430    0.6880   -0.1880 C   0  0  0  0  0  0  0  0  0  0  0  0
   -3.7920    1.6130   -0.2480 C   0  0  0  0  0  0  0  0  0  0  0  0
   -3.9910    2.6810    0.4950 C   0  0  0  0  0  0  0  0  0  0  0  0
   -5.2560    3.3370    0.1280 C   0  0  0  0  0  0  0  0  0  0  0  0
   -5.7830    2.4860   -0.9570 C   0  0  0  0  0  0  0  0  0  0  0  0
   -4.9250    1.5060   -1.1520 C   0  0  0  0  0  0  0  0  0  0  0  0
   -1.6300    0.8780    0.6990 C   0  0  0  0  0  0  0  0  0  0  0  0
   -0.5320    0.0420    0.7970 C   0  0  0  0  0  0  0  0  0  0  0  0
  1  2  1  0
  2  3  2  3
  3  4  1  0
  4  5  2  3
  4 17  1  0
  5  6  1  0
  6  7  1  0
  6  9  2  3
  7  8  2  0
  9 10  1  0
 10 11  2  0
 10 15  1  0
 11 12  1  0
 12 13  2  0
 13 14  1  0
 14 15  2  0
 15 16  1  0
 17 18  2  0
 17 27  1  0
 18 19  1  0
 19 20  2  0
 20 21  1  0
 20 26  1  0
 21 22  2  0
 21 25  1  0
 22 23  1  0
 23 24  1  0
 24 25  2  0
 26 27  2  0
M  END
