
     RDKit          3D

 17 18  0  0  0  0  0  0  0  0999 V2000
   -0.2650   -1.9010   -1.0190 C   0  0  0  0  0  0  0  0  0  0  0  0
   -0.3990   -0.4840   -0.7420 N   0  0  0  0  0  0  0  0  0  0  0  0
    0.6120    0.4800   -1.0190 C   0  0  0  0  0  0  0  0  0  0  0  0
    1.8250    0.3560   -0.1650 C   0  0  0  0  0  0  0  0  0  0  0  0
    2.0840   -0.4930    0.7870 C   0  0  0  0  0  0  0  0  0  0  0  0
    3.4210   -0.2120    1.3360 C   0  0  0  0  0  0  0  0  0  0  0  0
    3.8630    0.9390    0.5230 C   0  0  0  0  0  0  0  0  0  0  0  0
    2.9310    1.2190   -0.3050 N   0  0  0  0  0  0  0  0  0  0  0  0
    3.0470    2.2740   -1.2260 O   0  0  0  0  0  0  0  0  0  0  0  0
   -1.6180   -0.0500   -0.1640 C   0  0  0  0  0  0  0  0  0  0  0  0
   -1.6980    0.5210    1.0860 C   0  0  0  0  0  0  0  0  0  0  0  0
   -2.8800    0.9070    1.5780 N   0  0  0  0  0  0  0  0  0  0  0  0
   -4.0380    0.7680    0.9040 C   0  0  0  0  0  0  0  0  0  0  0  0
   -5.5520    1.3090    1.6400 Cl  0  0  0  0  0  0  0  0  0  0  0  0
   -3.9940    0.2180   -0.3100 N   0  0  0  0  0  0  0  0  0  0  0  0
   -2.8350   -0.1860   -0.8480 C   0  0  0  0  0  0  0  0  0  0  0  0
   -2.8010   -0.7110   -2.0110 O   0  0  0  0  0  0  0  0  0  0  0  0
  1  2  1  0
  2  3  1  0
  2 10  1  0
  3  4  1  0
  4  5  2  0
  4  8  1  0
  5  6  1  0
  6  7  1  0
  7  8  2  0
  8  9  1  0
 10 11  2  0
 10 16  1  0
 11 12  1  0
 12 13  2  0
 13 14  1  0
 13 15  1  0
 15 16  1  0
 16 17  2  0
M  CHG  2   8   1   9  -1
M  END
