
     RDKit          3D

 17 18  0  0  0  0  0  0  0  0999 V2000
    5.9060    0.8990   -0.6590 C   0  0  0  0  0  0  0  0  0  0  0  0
    4.5960    0.6190   -0.0230 C   0  0  0  0  0  0  0  0  0  0  0  0
    3.5740    0.1500   -0.6840 C   0  0  0  0  0  0  0  0  0  0  0  0
    3.6890   -0.1050   -2.0330 O   0  0  0  0  0  0  0  0  0  0  0  0
    3.9160   -1.7120   -2.6120 Cl  0  0  0  0  0  0  0  0  0  0  0  0
    2.3190   -0.1060   -0.0140 C   0  0  0  0  0  0  0  0  0  0  0  0
    2.0700    0.0970    1.2930 N   0  0  0  0  0  0  0  0  0  0  0  0
    0.8370   -0.2320    1.5920 N   0  0  0  0  0  0  0  0  0  0  0  0
    0.2710   -0.6590    0.4490 C   0  0  0  0  0  0  0  0  0  0  0  0
   -1.1460   -1.1230    0.3940 C   0  0  0  0  0  0  0  0  0  0  0  0
   -2.0700   -0.0640    0.1080 N   0  0  1  0  0  0  0  0  0  0  0  0
   -1.4840    1.0890   -0.2570 O   0  0  0  0  0  0  0  0  0  0  0  0
   -3.0450   -0.4570   -0.9090 C   0  0  0  0  0  0  0  0  0  0  0  0
   -4.3310    0.2230   -0.5660 C   0  0  0  0  0  0  0  0  0  0  0  0
   -4.1490    0.8120    0.8250 C   0  0  0  0  0  0  0  0  0  0  0  0
   -2.9080    0.1080    1.2930 C   0  0  0  0  0  0  0  0  0  0  0  0
    1.1780   -0.5840   -0.5420 N   0  0  0  0  0  0  0  0  0  0  0  0
  1  2  1  0
  2  3  2  3
  3  4  1  0
  3  6  1  0
  4  5  1  0
  6  7  2  0
  6 17  1  0
  7  8  1  0
  8  9  1  0
  9 10  1  0
  9 17  2  0
 10 11  1  0
 11 12  1  6
 11 13  1  0
 11 16  1  0
 13 14  1  0
 14 15  1  0
 15 16  1  0
M  CHG  2  11   1  12  -1
M  END
