
     RDKit          3D

 16 15  0  0  0  0  0  0  0  0999 V2000
   -4.0160    1.4720   -0.1320 O   0  0  0  0  0  0  0  0  0  0  0  0
   -4.6420    0.3850   -0.1380 C   0  0  0  0  0  0  0  0  0  0  0  0
   -6.0200    0.4300   -0.3840 O   0  0  0  0  0  0  0  0  0  0  0  0
   -3.9630   -0.7930    0.0930 O   0  0  0  0  0  0  0  0  0  0  0  0
   -2.5830   -0.8900    0.3410 C   0  0  0  0  0  0  0  0  0  0  0  0
   -1.8200   -0.3600   -0.8430 C   0  0  2  0  0  0  0  0  0  0  0  0
   -2.1120   -1.0740   -2.0040 O   0  0  0  0  0  0  0  0  0  0  0  0
   -0.3770   -0.5590   -0.5410 C   0  0  0  0  0  0  0  0  0  0  0  0
    0.3980    0.4600   -0.4930 N   0  0  0  0  0  0  0  0  0  0  0  0
    1.7120    0.2990   -0.2200 O   0  0  0  0  0  0  0  0  0  0  0  0
    2.5950    1.4080   -0.3150 C   0  0  0  0  0  0  0  0  0  0  0  0
    3.9730    0.8960    0.0490 C   0  0  0  0  0  0  0  0  0  0  0  0
    3.9240    0.3980    1.3360 O   0  0  0  0  0  0  0  0  0  0  0  0
    5.0770   -0.0710    1.7440 O   0  0  0  0  0  0  0  0  0  0  0  0
    0.1410   -1.8140   -0.3130 O   0  0  0  0  0  0  0  0  0  0  0  0
    1.2540   -1.9280    0.4080 O   0  0  0  0  0  0  0  0  0  0  0  0
  1  2  2  0
  2  3  1  0
  2  4  1  0
  4  5  1  0
  5  6  1  0
  6  7  1  6
  6  8  1  0
  8  9  2  3
  8 15  1  0
  9 10  1  0
 10 11  1  0
 11 12  1  0
 12 13  1  0
 13 14  1  0
 15 16  1  0
M  END
