
     RDKit          3D

 16 16  0  0  0  0  0  0  0  0999 V2000
    0.3390    1.6690    0.8960 O   0  0  0  0  0  0  0  0  0  0  0  0
   -0.2610    0.6120    0.6510 C   0  0  0  0  0  0  0  0  0  0  0  0
   -1.6730    0.5920    0.1530 C   0  0  0  0  0  0  0  0  0  0  0  0
   -2.1030   -0.6930   -0.0400 O   0  0  0  0  0  0  0  0  0  0  0  0
   -3.4020   -0.6940   -0.4960 C   0  0  0  0  0  0  0  0  0  0  0  0
   -4.2190   -0.0700    0.4500 O   0  0  0  0  0  0  0  0  0  0  0  0
   -5.4730   -0.0330    0.0830 O   0  0  0  0  0  0  0  0  0  0  0  0
    0.3650   -0.6380    0.8310 N   0  0  0  0  0  0  0  0  0  0  0  0
    1.7110   -0.7920    1.2890 C   0  0  0  0  0  0  0  0  0  0  0  0
    2.6840   -0.1940    0.3410 C   0  0  2  0  0  0  0  0  0  0  0  0
    2.5490   -0.8020   -0.9140 O   0  0  0  0  0  0  0  0  0  0  0  0
    4.0170   -0.4120    0.7870 O   0  0  0  0  0  0  0  0  0  0  0  0
    4.7320    0.3930   -0.0290 O   0  0  0  0  0  0  0  0  0  0  0  0
    3.9720    1.5560   -0.1880 C   0  0  0  0  0  0  0  0  0  0  0  0
    4.4100    2.6430   -0.6150 O   0  0  0  0  0  0  0  0  0  0  0  0
    2.6950    1.1980    0.2270 O   0  0  0  0  0  0  0  0  0  0  0  0
  1  2  2  0
  2  3  1  0
  2  8  1  0
  3  4  1  0
  4  5  1  0
  5  6  1  0
  6  7  1  0
  8  9  1  0
  9 10  1  0
 10 11  1  6
 10 12  1  0
 10 16  1  0
 12 13  1  0
 13 14  1  0
 14 15  2  0
 14 16  1  0
M  END
