
     RDKit          3D

 16 16  0  0  0  0  0  0  0  0999 V2000
    3.5060   -0.3850   -1.2710 O   0  0  0  0  0  0  0  0  0  0  0  0
    3.7010    0.6640   -0.5690 C   0  0  0  0  0  0  0  0  0  0  0  0
    4.3700    1.7650   -1.0860 O   0  0  0  0  0  0  0  0  0  0  0  0
    3.2000    0.6190    0.7280 O   0  0  0  0  0  0  0  0  0  0  0  0
    2.5180   -0.5010    1.2540 C   0  0  1  0  0  0  0  0  0  0  0  0
    3.1600   -1.0700    2.3270 O   0  0  0  0  0  0  0  0  0  0  0  0
    1.1290   -0.1740    1.6510 C   0  0  0  0  0  0  0  0  0  0  0  0
    0.7240   -0.4260    2.8110 O   0  0  0  0  0  0  0  0  0  0  0  0
    0.2110    0.4160    0.7890 O   0  0  0  0  0  0  0  0  0  0  0  0
   -1.0490    0.7040    1.1740 O   0  0  0  0  0  0  0  0  0  0  0  0
   -1.8580   -0.2760    0.5750 C   0  0  2  0  0  0  0  0  0  0  0  0
   -1.4920   -1.5620    1.0000 O   0  0  0  0  0  0  0  0  0  0  0  0
   -1.6550   -0.1250   -0.8660 N   0  0  0  0  0  0  0  0  0  0  0  0
   -2.5860    0.9830   -1.1200 C   0  0  0  0  0  0  0  0  0  0  0  0
   -3.7750    0.4840   -0.2890 C   0  0  0  0  0  0  0  0  0  0  0  0
   -3.1900   -0.0710    0.8220 O   0  0  0  0  0  0  0  0  0  0  0  0
  1  2  2  0
  2  3  1  0
  2  4  1  0
  4  5  1  0
  5  6  1  1
  5  7  1  0
  7  8  2  0
  7  9  1  0
  9 10  1  0
 10 11  1  0
 11 12  1  1
 11 13  1  0
 11 16  1  0
 13 14  1  0
 14 15  1  0
 15 16  1  0
M  END
