
     RDKit          3D

 23 22  0  0  0  0  0  0  0  0999 V2000
    8.0390    0.9940    1.3940 C   0  0  0  0  0  0  0  0  0  0  0  0
    8.3280   -0.3890    0.8480 C   0  0  0  0  0  0  0  0  0  0  0  0
    7.3380   -0.6980   -0.2810 C   0  0  0  0  0  0  0  0  0  0  0  0
    5.9620   -0.6290    0.3360 C   0  0  0  0  0  0  0  0  0  0  0  0
    4.8770   -0.9180   -0.6810 C   0  0  0  0  0  0  0  0  0  0  0  0
    4.9140    0.0680   -1.8070 C   0  0  0  0  0  0  0  0  0  0  0  0
    3.8510   -0.2040   -2.8190 C   0  0  0  0  0  0  0  0  0  0  0  0
    2.4480   -0.1410   -2.2480 C   0  0  0  0  0  0  0  0  0  0  0  0
    2.1440    1.2120   -1.6710 C   0  0  0  0  0  0  0  0  0  0  0  0
    0.7560    1.2940   -1.1110 C   0  0  0  0  0  0  0  0  0  0  0  0
    0.5180    0.3020    0.0030 C   0  0  0  0  0  0  0  0  0  0  0  0
   -0.9060    0.4340    0.5460 C   0  0  0  0  0  0  0  0  0  0  0  0
   -1.0770   -0.4760    1.5470 O   0  0  0  0  0  0  0  0  0  0  0  0
   -2.6480   -0.3020    2.1300 P   0  0  0  0  0  0  0  0  0  0  0  0
   -2.9990   -1.6720    1.5780 O   0  0  0  0  0  0  0  0  0  0  0  0
   -2.9590   -0.7750    3.6990 O   0  0  0  0  0  0  0  0  0  0  0  0
   -3.7500    0.5260    1.2970 O   0  0  0  0  0  0  0  0  0  0  0  0
   -4.9630   -0.0580    1.0480 C   0  0  0  0  0  0  0  0  0  0  0  0
   -5.8980    0.8170    0.2590 C   0  0  0  0  0  0  0  0  0  0  0  0
   -7.1680    0.2060   -0.0010 N   0  0  1  0  0  0  0  0  0  0  0  0
   -7.1300   -0.8580   -0.9510 C   0  0  0  0  0  0  0  0  0  0  0  0
   -7.6820   -0.3480    1.2560 C   0  0  0  0  0  0  0  0  0  0  0  0
   -8.1520    1.1770   -0.4400 C   0  0  0  0  0  0  0  0  0  0  0  0
  1  2  1  0
  2  3  1  0
  3  4  1  0
  4  5  1  0
  5  6  1  0
  6  7  1  0
  7  8  1  0
  8  9  1  0
  9 10  1  0
 10 11  1  0
 11 12  1  0
 12 13  1  0
 13 14  1  0
 14 15  1  0
 14 16  1  0
 14 17  1  0
 17 18  1  0
 18 19  1  0
 19 20  1  0
 20 21  1  6
 20 22  1  0
 20 23  1  0
M  CHG  1  20   1
M  END
