
     RDKit          3D

 20 21  0  0  0  0  0  0  0  0999 V2000
   -4.2740   -0.1430   -1.6440 C   0  0  0  0  0  0  0  0  0  0  0  0
   -3.7320   -0.6780   -0.4780 O   0  0  0  0  0  0  0  0  0  0  0  0
   -2.5410   -0.2900    0.0970 C   0  0  0  0  0  0  0  0  0  0  0  0
   -1.7300    0.6940   -0.4250 C   0  0  0  0  0  0  0  0  0  0  0  0
   -0.5240    1.0800    0.1660 C   0  0  0  0  0  0  0  0  0  0  0  0
    0.3030    2.1520   -0.4360 C   0  0  0  0  0  0  0  0  0  0  0  0
    1.6030    2.0900    0.1010 O   0  0  0  0  0  0  0  0  0  0  0  0
    2.4400    0.9930   -0.0310 C   0  0  0  0  0  0  0  0  0  0  0  0
    2.0860   -0.1530   -0.7110 C   0  0  0  0  0  0  0  0  0  0  0  0
    2.9440   -1.2410   -0.8300 C   0  0  0  0  0  0  0  0  0  0  0  0
    2.5660   -2.3620   -1.5090 F   0  0  0  0  0  0  0  0  0  0  0  0
    4.1940   -1.2130   -0.2660 C   0  0  0  0  0  0  0  0  0  0  0  0
    5.0860   -2.2290   -0.3380 F   0  0  0  0  0  0  0  0  0  0  0  0
    4.5570   -0.0720    0.4150 C   0  0  0  0  0  0  0  0  0  0  0  0
    3.7120    1.0120    0.5380 C   0  0  0  0  0  0  0  0  0  0  0  0
    4.0650    2.1310    1.2050 F   0  0  0  0  0  0  0  0  0  0  0  0
   -0.1350    0.4530    1.3110 C   0  0  0  0  0  0  0  0  0  0  0  0
   -0.9140   -0.5290    1.8590 C   0  0  0  0  0  0  0  0  0  0  0  0
   -2.1200   -0.9060    1.2570 C   0  0  0  0  0  0  0  0  0  0  0  0
   -2.9210   -1.9310    1.8410 N   0  0  0  0  0  0  0  0  0  0  0  0
  1  2  1  0
  2  3  1  0
  3  4  2  0
  3 19  1  0
  4  5  1  0
  5  6  1  0
  5 17  2  0
  6  7  1  0
  7  8  1  0
  8  9  2  0
  8 15  1  0
  9 10  1  0
 10 11  1  0
 10 12  2  0
 12 13  1  0
 12 14  1  0
 14 15  2  0
 15 16  1  0
 17 18  1  0
 18 19  2  0
 19 20  1  0
M  END
