
     RDKit          3D

 20 21  0  0  0  0  0  0  0  0999 V2000
   -4.3390   -1.0670    0.0400 C   0  0  0  0  0  0  0  0  0  0  0  0
   -2.9830   -0.5300   -0.4610 C   0  0  0  0  0  0  0  0  0  0  0  0
   -2.4690    0.4070    0.5530 C   0  0  0  0  0  0  0  0  0  0  0  0
   -1.1990    1.1320    0.3070 C   0  0  1  0  0  0  0  0  0  0  0  0
   -1.0340    1.9380    1.4940 O   0  0  0  0  0  0  0  0  0  0  0  0
    0.0220    0.3510    0.2840 C   0  0  0  0  0  0  0  0  0  0  0  0
    1.1990    0.8730   -0.1910 C   0  0  0  0  0  0  0  0  0  0  0  0
    2.3920    0.1790   -0.2110 C   0  0  0  0  0  0  0  0  0  0  0  0
    3.5700    0.7050   -0.6810 C   0  0  0  0  0  0  0  0  0  0  0  0
    4.7450   -0.0270   -0.6830 C   0  0  0  0  0  0  0  0  0  0  0  0
    4.7050   -1.3140   -0.1920 C   0  0  0  0  0  0  0  0  0  0  0  0
    3.5770   -1.8840    0.2850 C   0  0  0  0  0  0  0  0  0  0  0  0
    2.4090   -1.1290    0.2760 C   0  0  0  0  0  0  0  0  0  0  0  0
    1.2060   -1.6020    0.7340 C   0  0  0  0  0  0  0  0  0  0  0  0
    1.2160   -2.7920    1.1720 O   0  0  0  0  0  0  0  0  0  0  0  0
    0.0480   -0.9000    0.7460 N   0  0  0  0  0  0  0  0  0  0  0  0
   -1.4330    2.1180   -0.7900 C   0  0  1  0  0  0  0  0  0  0  0  0
   -1.8150    1.5860   -1.9900 F   0  0  0  0  0  0  0  0  0  0  0  0
   -2.5760    2.8430   -0.3620 F   0  0  0  0  0  0  0  0  0  0  0  0
   -0.4940    3.0620   -0.9800 F   0  0  0  0  0  0  0  0  0  0  0  0
  1  2  1  0
  2  3  1  0
  3  4  1  0
  4  5  1  1
  4  6  1  0
  4 17  1  0
  6  7  2  0
  6 16  1  0
  7  8  1  0
  8  9  2  0
  8 13  1  0
  9 10  1  0
 10 11  2  0
 11 12  1  0
 12 13  2  0
 13 14  1  0
 14 15  2  0
 14 16  1  0
 17 18  1  6
 17 19  1  0
 17 20  1  0
M  END
