
     RDKit          3D

 20 21  0  0  0  0  0  0  0  0999 V2000
   -4.2930    0.7230    0.0570 C   0  0  0  0  0  0  0  0  0  0  0  0
   -2.9450    0.0340   -0.0420 C   0  0  0  0  0  0  0  0  0  0  0  0
   -2.9610   -1.4010    0.3060 C   0  0  0  0  0  0  0  0  0  0  0  0
   -1.8880    0.7450   -0.3810 C   0  0  0  0  0  0  0  0  0  0  0  0
   -0.5990    0.1040   -0.4840 C   0  0  0  0  0  0  0  0  0  0  0  0
    0.4600    0.5140    0.2940 C   0  0  0  0  0  0  0  0  0  0  0  0
    0.4060    1.5460    1.2030 O   0  0  0  0  0  0  0  0  0  0  0  0
    0.6930    2.8570    0.8050 C   0  0  2  0  0  0  0  0  0  0  0  0
    1.9780    2.9720    0.2670 F   0  0  0  0  0  0  0  0  0  0  0  0
    0.6400    3.7070    1.9250 F   0  0  0  0  0  0  0  0  0  0  0  0
   -0.1510    3.3840   -0.1470 F   0  0  0  0  0  0  0  0  0  0  0  0
    1.7020   -0.1270    0.1910 C   0  0  0  0  0  0  0  0  0  0  0  0
    2.7730    0.2510    0.9920 C   0  0  0  0  0  0  0  0  0  0  0  0
    4.0130   -0.3900    0.9210 C   0  0  0  0  0  0  0  0  0  0  0  0
    4.1640   -1.4240    0.0290 C   0  0  0  0  0  0  0  0  0  0  0  0
    3.0890   -1.7960   -0.7640 C   0  0  0  0  0  0  0  0  0  0  0  0
    1.8580   -1.1650   -0.6970 C   0  0  0  0  0  0  0  0  0  0  0  0
    0.8200   -1.5560   -1.4560 N   0  0  0  0  0  0  0  0  0  0  0  0
   -0.3730   -0.9520   -1.3640 C   0  0  0  0  0  0  0  0  0  0  0  0
   -1.3360   -1.3260   -2.0830 O   0  0  0  0  0  0  0  0  0  0  0  0
  1  2  1  0
  2  3  1  0
  2  4  2  3
  4  5  1  0
  5  6  2  0
  5 19  1  0
  6  7  1  0
  6 12  1  0
  7  8  1  0
  8  9  1  6
  8 10  1  0
  8 11  1  0
 12 13  2  0
 12 17  1  0
 13 14  1  0
 14 15  2  0
 15 16  1  0
 16 17  2  0
 17 18  1  0
 18 19  1  0
 19 20  2  0
M  END
