
     RDKit          3D

 20 21  0  0  0  0  0  0  0  0999 V2000
    1.9270   -2.1360    1.4700 N   0  0  0  0  0  0  0  0  0  0  0  0
    1.2180   -1.0720    0.8340 C   0  0  0  0  0  0  0  0  0  0  0  0
   -0.1740   -1.0070    0.8960 C   0  0  0  0  0  0  0  0  0  0  0  0
   -0.8570    0.0210    0.2810 C   0  0  0  0  0  0  0  0  0  0  0  0
   -2.3220    0.1030    0.3400 C   0  0  0  0  0  0  0  0  0  0  0  0
   -3.1260   -0.7580   -0.3720 C   0  0  0  0  0  0  0  0  0  0  0  0
   -4.4990   -0.6690   -0.3080 C   0  0  0  0  0  0  0  0  0  0  0  0
   -5.0920    0.2980    0.4810 C   0  0  0  0  0  0  0  0  0  0  0  0
   -6.4430    0.4260    0.5770 F   0  0  0  0  0  0  0  0  0  0  0  0
   -4.3180    1.1880    1.2160 C   0  0  0  0  0  0  0  0  0  0  0  0
   -2.9480    1.0600    1.1210 C   0  0  0  0  0  0  0  0  0  0  0  0
   -2.1250    1.8940    1.8130 F   0  0  0  0  0  0  0  0  0  0  0  0
   -0.1100    0.9660   -0.3880 C   0  0  0  0  0  0  0  0  0  0  0  0
   -0.7790    1.9810   -0.9960 F   0  0  0  0  0  0  0  0  0  0  0  0
    1.2820    0.9040   -0.4520 C   0  0  0  0  0  0  0  0  0  0  0  0
    1.9620   -0.1250    0.1630 C   0  0  0  0  0  0  0  0  0  0  0  0
    3.3460   -0.2440    0.1370 O   0  0  0  0  0  0  0  0  0  0  0  0
    4.2290    0.6280   -0.4950 C   0  0  0  0  0  0  0  0  0  0  0  0
    5.6120    0.1570   -0.2930 C   0  0  0  0  0  0  0  0  0  0  0  0
    6.5330    0.7830   -0.7620 O   0  0  0  0  0  0  0  0  0  0  0  0
  1  2  1  0
  2  3  2  0
  2 16  1  0
  3  4  1  0
  4  5  1  0
  4 13  2  0
  5  6  2  0
  5 11  1  0
  6  7  1  0
  7  8  2  0
  8  9  1  0
  8 10  1  0
 10 11  2  0
 11 12  1  0
 13 14  1  0
 13 15  1  0
 15 16  2  0
 16 17  1  0
 17 18  1  0
 18 19  1  0
 19 20  2  0
M  END
