
     RDKit          3D

 22 23  0  0  0  0  0  0  0  0999 V2000
   -5.6230   -0.2160    2.3720 C   0  0  0  0  0  0  0  0  0  0  0  0
   -5.4680   -0.8200    0.9750 C   0  0  0  0  0  0  0  0  0  0  0  0
   -4.8180    0.1760    0.1590 N   0  0  0  0  0  0  0  0  0  0  0  0
   -5.5860    1.1600   -0.5950 C   0  0  0  0  0  0  0  0  0  0  0  0
   -5.9150    0.6490   -1.9800 C   0  0  0  0  0  0  0  0  0  0  0  0
   -3.4100    0.2100    0.0780 C   0  0  0  0  0  0  0  0  0  0  0  0
   -2.8320    1.0840   -0.6330 O   0  0  0  0  0  0  0  0  0  0  0  0
   -2.6240   -0.7860    0.8340 C   0  0  0  0  0  0  0  0  0  0  0  0
   -1.2040   -0.6300    0.6640 N   0  0  0  0  0  0  0  0  0  0  0  0
   -0.5530   -0.7160   -0.5990 C   0  0  0  0  0  0  0  0  0  0  0  0
   -1.2930   -0.9430   -1.5900 O   0  0  0  0  0  0  0  0  0  0  0  0
    0.9070   -0.5570   -0.7870 C   0  0  0  0  0  0  0  0  0  0  0  0
    1.7860   -0.2410    0.7430 S   0  0  0  0  0  0  0  0  0  0  0  0
    3.5340   -0.0750    0.3290 C   0  0  0  0  0  0  0  0  0  0  0  0
    4.3870    0.1580    1.2620 N   0  0  0  0  0  0  0  0  0  0  0  0
    5.7880    0.3030    1.0290 C   0  0  0  0  0  0  0  0  0  0  0  0
    6.7970    0.5380    1.8310 C   0  0  0  0  0  0  0  0  0  0  0  0
    8.0600    0.5950    1.0630 C   0  0  0  0  0  0  0  0  0  0  0  0
    7.6100    0.3520   -0.3250 C   0  0  0  0  0  0  0  0  0  0  0  0
    6.3070    0.1880   -0.3220 C   0  0  0  0  0  0  0  0  0  0  0  0
    5.3610   -0.0800   -1.4300 C   0  0  0  0  0  0  0  0  0  0  0  0
    4.0070   -0.1920   -0.9880 N   0  0  0  0  0  0  0  0  0  0  0  0
  1  2  1  0
  2  3  1  0
  3  4  1  0
  3  6  1  0
  4  5  1  0
  6  7  2  0
  6  8  1  0
  8  9  1  0
  9 10  1  0
 10 11  2  0
 10 12  1  0
 12 13  1  0
 13 14  1  0
 14 15  2  0
 14 22  1  0
 15 16  1  0
 16 17  2  0
 16 20  1  0
 17 18  1  0
 18 19  1  0
 19 20  2  0
 20 21  1  0
 21 22  1  0
M  END
