
     RDKit          3D

 22 23  0  0  0  0  0  0  0  0999 V2000
    6.7360   -1.2430   -0.0830 C   0  0  0  0  0  0  0  0  0  0  0  0
    6.0690   -0.9880    1.2690 C   0  0  0  0  0  0  0  0  0  0  0  0
    5.6400    0.3730    1.2570 O   0  0  0  0  0  0  0  0  0  0  0  0
    4.7190    0.8070    0.3130 C   0  0  0  0  0  0  0  0  0  0  0  0
    4.3160   -0.1070   -0.4930 O   0  0  0  0  0  0  0  0  0  0  0  0
    4.2150    2.1860    0.2060 C   0  0  0  0  0  0  0  0  0  0  0  0
    2.8130    2.5010    1.2860 S   0  0  0  0  0  0  0  0  0  0  0  0
    1.3510    1.5680    0.8110 C   0  0  0  0  0  0  0  0  0  0  0  0
    0.3820    1.9430   -0.0190 N   0  0  0  0  0  0  0  0  0  0  0  0
   -0.5930    0.9750   -0.1410 C   0  0  0  0  0  0  0  0  0  0  0  0
   -1.7600    1.1240   -0.9890 C   0  0  0  0  0  0  0  0  0  0  0  0
   -1.9760    2.2350   -1.8400 C   0  0  0  0  0  0  0  0  0  0  0  0
   -3.1400    2.0970   -2.4720 N   0  0  0  0  0  0  0  0  0  0  0  0
   -3.6550    0.9810   -2.0710 N   0  0  0  0  0  0  0  0  0  0  0  0
   -2.8420    0.3390   -1.1530 C   0  0  0  0  0  0  0  0  0  0  0  0
   -3.2020   -0.9430   -0.5480 C   0  0  2  0  0  0  0  0  0  0  0  0
   -2.2860   -2.0860   -0.7840 C   0  0  0  0  0  0  0  0  0  0  0  0
   -4.5650   -1.3520   -1.1920 C   0  0  0  0  0  0  0  0  0  0  0  0
   -3.5550   -0.8580    0.9280 C   0  0  0  0  0  0  0  0  0  0  0  0
   -4.7450    0.0620    1.1430 C   0  0  0  0  0  0  0  0  0  0  0  0
   -0.1470   -0.0090    0.6700 C   0  0  0  0  0  0  0  0  0  0  0  0
    1.0400    0.3470    1.2550 N   0  0  0  0  0  0  0  0  0  0  0  0
  1  2  1  0
  2  3  1  0
  3  4  1  0
  4  5  2  0
  4  6  1  0
  6  7  1  0
  7  8  1  0
  8  9  2  0
  8 22  1  0
  9 10  1  0
 10 11  1  0
 10 21  2  0
 11 12  2  0
 11 15  1  0
 12 13  1  0
 13 14  1  0
 14 15  2  0
 15 16  1  0
 16 17  1  1
 16 18  1  0
 16 19  1  0
 19 20  1  0
 21 22  1  0
M  END
