
     RDKit          3D

  9  8  0  0  0  0  0  0  0  0999 V2000
   -2.7110   -1.7360   -0.5550 C   0  0  0  0  0  0  0  0  0  0  0  0
   -2.6910   -0.3240   -0.4890 O   0  0  0  0  0  0  0  0  0  0  0  0
   -1.4930    0.3520   -0.1160 C   0  0  0  0  0  0  0  0  0  0  0  0
   -0.4220   -0.3410    0.1510 C   0  0  0  0  0  0  0  0  0  0  0  0
    0.9210    0.0240    0.5490 C   0  0  0  0  0  0  0  0  0  0  0  0
    1.8580   -0.5060   -0.5620 C   0  0  0  0  0  0  0  0  0  0  0  0
    3.2120   -0.1600   -0.1990 N   0  0  0  0  0  0  0  0  0  0  0  0
   -1.5480    1.8190   -0.0570 C   0  0  0  0  0  0  0  0  0  0  0  0
   -0.3900    2.4490    0.3010 O   0  0  0  0  0  0  0  0  0  0  0  0
  1  2  1  0
  2  3  1  0
  3  4  2  3
  3  8  1  0
  4  5  1  0
  5  6  1  0
  6  7  1  0
  8  9  1  0
M  CHG  1   7   1
M  END
