
     RDKit          3D

  9  8  0  0  0  0  0  0  0  0999 V2000
   -0.9620   -1.5470    0.3270 C   0  0  0  0  0  0  0  0  0  0  0  0
   -0.8090   -0.2000   -0.3440 C   0  0  1  0  0  0  0  0  0  0  0  0
   -0.7910   -0.3180   -1.7150 O   0  0  0  0  0  0  0  0  0  0  0  0
   -2.0080    0.6390    0.0720 C   0  0  0  0  0  0  0  0  0  0  0  0
   -1.9690    1.9840   -0.5250 C   0  0  0  0  0  0  0  0  0  0  0  0
   -2.8590    2.7570   -0.2800 O   0  0  0  0  0  0  0  0  0  0  0  0
    0.4860    0.4420    0.0930 C   0  0  0  0  0  0  0  0  0  0  0  0
    1.6110   -0.4870   -0.3190 C   0  0  0  0  0  0  0  0  0  0  0  0
    2.9090    0.0670    0.0720 N   0  0  0  0  0  0  0  0  0  0  0  0
  2  1  1  1
  2  3  1  0
  2  4  1  0
  2  7  1  0
  4  5  1  0
  5  6  2  0
  7  8  1  0
  8  9  1  0
M  CHG  1   9   1
M  END
