
     RDKit          3D

  9  8  0  0  0  0  0  0  0  0999 V2000
    2.6150    0.5860    0.1960 C   0  0  0  0  0  0  0  0  0  0  0  0
    1.2830    0.8160    0.2180 O   0  0  0  0  0  0  0  0  0  0  0  0
    0.4350   -0.1830   -0.1220 C   0  0  1  0  0  0  0  0  0  0  0  0
    0.7630   -0.5920   -1.5670 C   0  0  0  0  0  0  0  0  0  0  0  0
    0.5290   -1.4330    0.6810 C   0  0  0  0  0  0  0  0  0  0  0  0
   -0.9700    0.4140   -0.1310 C   0  0  1  0  0  0  0  0  0  0  0  0
   -1.9690   -0.5790   -0.4850 N   0  0  0  0  0  0  0  0  0  0  0  0
   -1.3110    1.1220    1.1430 C   0  0  0  0  0  0  0  0  0  0  0  0
   -2.5410    1.7510    0.9500 O   0  0  0  0  0  0  0  0  0  0  0  0
  1  2  1  0
  2  3  1  0
  3  4  1  6
  3  5  1  0
  3  6  1  0
  6  7  1  1
  6  8  1  0
  8  9  1  0
M  CHG  1   7   1
M  END
