
     RDKit          3D

 22 23  0  0  0  0  0  0  0  0999 V2000
    8.1160   -0.7540    0.0600 C   0  0  0  0  0  0  0  0  0  0  0  0
    7.0230   -1.7070    0.4490 C   0  0  0  0  0  0  0  0  0  0  0  0
    5.7120   -0.9630    0.4470 C   0  0  0  0  0  0  0  0  0  0  0  0
    4.5010   -1.4680    0.7320 N   0  0  0  0  0  0  0  0  0  0  0  0
    3.6200   -0.5080    0.6230 O   0  0  0  0  0  0  0  0  0  0  0  0
    4.2050    0.6070    0.2770 C   0  0  0  0  0  0  0  0  0  0  0  0
    3.5220    1.9040    0.0590 C   0  0  0  0  0  0  0  0  0  0  0  0
    2.1010    1.7900    0.1990 N   0  0  0  0  0  0  0  0  0  0  0  0
    1.2910    0.9440   -0.6070 C   0  0  0  0  0  0  0  0  0  0  0  0
    1.8530    0.2550   -1.4930 O   0  0  0  0  0  0  0  0  0  0  0  0
   -0.2040    0.8640   -0.4170 C   0  0  0  0  0  0  0  0  0  0  0  0
   -0.8280   -0.0800   -1.3830 C   0  0  0  0  0  0  0  0  0  0  0  0
   -2.2800   -0.0790   -1.1300 N   0  0  0  0  0  0  0  0  0  0  0  0
   -3.1740    0.4680   -2.0750 C   0  0  0  0  0  0  0  0  0  0  0  0
   -4.4510    0.5130   -1.7910 C   0  0  0  0  0  0  0  0  0  0  0  0
   -5.0260    0.0150   -0.5190 C   0  0  0  0  0  0  0  0  0  0  0  0
   -6.5070    0.1220   -0.3650 C   0  0  0  0  0  0  0  0  0  0  0  0
   -4.2060   -0.4970    0.3610 C   0  0  0  0  0  0  0  0  0  0  0  0
   -4.7520   -1.1170    1.9070 S   0  0  0  0  0  0  0  0  0  0  0  0
   -6.3660   -0.7900    2.4780 C   0  0  0  0  0  0  0  0  0  0  0  0
   -2.7130   -0.6470    0.0880 C   0  0  0  0  0  0  0  0  0  0  0  0
    5.5140    0.3340    0.1640 N   0  0  0  0  0  0  0  0  0  0  0  0
  1  2  1  0
  2  3  1  0
  3  4  2  0
  3 22  1  0
  4  5  1  0
  5  6  1  0
  6  7  1  0
  6 22  2  0
  7  8  1  0
  8  9  1  0
  9 10  2  0
  9 11  1  0
 11 12  1  0
 12 13  1  0
 13 14  1  0
 13 21  1  0
 14 15  2  0
 15 16  1  0
 16 17  1  0
 16 18  2  0
 18 19  1  0
 18 21  1  0
 19 20  1  0
M  END
