
     RDKit          3D

 16 18  0  0  0  0  0  0  0  0999 V2000
   -1.1180    3.3470    0.3600 N   0  0  0  0  0  0  0  0  0  0  0  0
   -0.3910    2.1130    0.2000 C   0  0  0  0  0  0  0  0  0  0  0  0
    0.9370    2.1180    0.0840 N   0  0  0  0  0  0  0  0  0  0  0  0
    1.5660    0.9390   -0.0620 C   0  0  0  0  0  0  0  0  0  0  0  0
    2.9430    1.0220   -0.1760 C   0  0  0  0  0  0  0  0  0  0  0  0
    3.6220   -0.1600   -0.3280 C   0  0  0  0  0  0  0  0  0  0  0  0
    3.0060   -1.3720   -0.3690 C   0  0  0  0  0  0  0  0  0  0  0  0
    1.6050   -1.4570   -0.2530 C   0  0  0  0  0  0  0  0  0  0  0  0
    0.9040   -0.2980   -0.1010 C   0  0  0  0  0  0  0  0  0  0  0  0
   -0.4690   -0.3130    0.0180 C   0  0  0  0  0  0  0  0  0  0  0  0
   -1.1810   -1.4600   -0.0100 C   0  0  0  0  0  0  0  0  0  0  0  0
   -0.6910   -2.7530   -0.1530 N   0  0  0  0  0  0  0  0  0  0  0  0
   -2.5880   -1.3470    0.1220 C   0  0  0  0  0  0  0  0  0  0  0  0
   -3.2110   -0.1370    0.2710 C   0  0  0  0  0  0  0  0  0  0  0  0
   -2.4630    1.0090    0.2950 C   0  0  0  0  0  0  0  0  0  0  0  0
   -1.1030    0.9370    0.1710 C   0  0  0  0  0  0  0  0  0  0  0  0
  1  2  1  0
  2  3  2  0
  2 16  1  0
  3  4  1  0
  4  5  2  0
  4  9  1  0
  5  6  1  0
  6  7  2  0
  7  8  1  0
  8  9  2  0
  9 10  1  0
 10 11  2  0
 10 16  1  0
 11 12  1  0
 11 13  1  0
 13 14  2  0
 14 15  1  0
 15 16  2  0
M  END
