
     RDKit          3D

 37 41  0  0  0  0  0  0  0  0999 V2000
   -7.2020    2.4380   -0.7800 C   0  0  0  0  0  0  0  0  0  0  0  0
   -5.9820    1.5170   -0.5720 C   0  0  1  0  0  0  0  0  0  0  0  0
   -4.7700    2.0350   -1.2690 C   0  0  0  0  0  0  0  0  0  0  0  0
   -5.7830    0.9230    0.7800 C   0  0  2  0  0  0  0  0  0  0  0  0
   -4.4300    0.6830    1.3380 C   0  0  0  0  0  0  0  0  0  0  0  0
   -3.9950    0.9100    2.6230 C   0  0  0  0  0  0  0  0  0  0  0  0
   -2.6730    0.5400    2.6750 C   0  0  0  0  0  0  0  0  0  0  0  0
   -2.3680    0.1020    1.4090 C   0  0  0  0  0  0  0  0  0  0  0  0
   -1.0770   -0.4050    0.9320 C   0  0  0  0  0  0  0  0  0  0  0  0
   -0.8960   -0.8080   -0.3300 N   0  0  0  0  0  0  0  0  0  0  0  0
    0.2940   -1.2740   -0.7640 C   0  0  0  0  0  0  0  0  0  0  0  0
    0.5030   -1.7050   -2.1000 N   0  0  0  0  0  0  0  0  0  0  0  0
    1.3450   -1.3360    0.1080 C   0  0  0  0  0  0  0  0  0  0  0  0
    2.6030   -1.8050   -0.2650 C   0  0  0  0  0  0  0  0  0  0  0  0
    2.7760   -2.1840   -1.4500 O   0  0  0  0  0  0  0  0  0  0  0  0
    3.6470   -1.8580    0.6340 C   0  0  0  0  0  0  0  0  0  0  0  0
    4.9490   -2.3330    0.2830 N   0  0  0  0  0  0  0  0  0  0  0  0
    5.9540   -1.4520   -0.2140 C   0  0  0  0  0  0  0  0  0  0  0  0
    7.2080   -1.9110   -0.5450 C   0  0  0  0  0  0  0  0  0  0  0  0
    8.1800   -1.0480   -1.0290 C   0  0  0  0  0  0  0  0  0  0  0  0
    9.4200   -1.4850   -1.3600 F   0  0  0  0  0  0  0  0  0  0  0  0
    7.9190    0.2970   -1.1920 C   0  0  0  0  0  0  0  0  0  0  0  0
    8.8810    1.1410   -1.6690 F   0  0  0  0  0  0  0  0  0  0  0  0
    6.6680    0.7610   -0.8630 C   0  0  0  0  0  0  0  0  0  0  0  0
    6.3620    2.1420   -1.0180 N   0  0  0  0  0  0  0  0  0  0  0  0
    5.0490    2.6410   -0.6750 C   0  0  0  0  0  0  0  0  0  0  0  0
    4.7590    2.4200    0.6420 F   0  0  0  0  0  0  0  0  0  0  0  0
    5.7030   -0.1040   -0.3810 C   0  0  0  0  0  0  0  0  0  0  0  0
    3.4050   -1.4270    1.9350 C   0  0  0  0  0  0  0  0  0  0  0  0
    4.4680   -1.4670    2.9000 N   0  0  0  0  0  0  0  0  0  0  0  0
    2.1950   -0.9840    2.2660 N   0  0  0  0  0  0  0  0  0  0  0  0
    1.1620   -0.9250    1.3990 C   0  0  0  0  0  0  0  0  0  0  0  0
   -0.0550   -0.4630    1.7920 N   0  0  0  0  0  0  0  0  0  0  0  0
   -3.4280    0.2010    0.6480 O   0  0  0  0  0  0  0  0  0  0  0  0
   -6.2410    0.0850   -0.3870 C   0  0  1  0  0  0  0  0  0  0  0  0
   -7.6670   -0.4160   -0.2210 C   0  0  0  0  0  0  0  0  0  0  0  0
   -5.3260   -0.9500   -0.9640 C   0  0  0  0  0  0  0  0  0  0  0  0
  2  1  1  1
  2  3  1  0
  2  4  1  0
  2 35  1  0
  4  5  1  6
  4 35  1  0
  5  6  2  0
  5 34  1  0
  6  7  1  0
  7  8  2  0
  8  9  1  0
  8 34  1  0
  9 10  2  0
  9 33  1  0
 10 11  1  0
 11 12  1  0
 11 13  2  0
 13 14  1  0
 13 32  1  0
 14 15  2  0
 14 16  1  0
 16 17  1  0
 16 29  2  0
 17 18  1  0
 18 19  2  0
 18 28  1  0
 19 20  1  0
 20 21  1  0
 20 22  2  0
 22 23  1  0
 22 24  1  0
 24 25  1  0
 24 28  2  0
 25 26  1  0
 26 27  1  0
 29 30  1  0
 29 31  1  0
 31 32  1  0
 32 33  2  0
 35 36  1  1
 35 37  1  0
M  END
