
     RDKit          3D

 37 41  0  0  0  0  0  0  0  0999 V2000
   -4.2770    3.0600    1.7570 N   0  0  0  0  0  0  0  0  0  0  0  0
   -4.8520    1.8090    1.3800 C   0  0  0  0  0  0  0  0  0  0  0  0
   -6.0430    1.5420    1.7300 N   0  0  0  0  0  0  0  0  0  0  0  0
   -6.8610    0.3990    1.5040 C   0  0  0  0  0  0  0  0  0  0  0  0
   -8.0190    0.3590    2.2340 C   0  0  0  0  0  0  0  0  0  0  0  0
   -8.2660    1.3810    3.0790 F   0  0  0  0  0  0  0  0  0  0  0  0
   -8.9370   -0.6900    2.1340 C   0  0  0  0  0  0  0  0  0  0  0  0
   -8.6640   -1.7260    1.2630 C   0  0  0  0  0  0  0  0  0  0  0  0
   -7.5120   -1.7200    0.5140 C   0  0  0  0  0  0  0  0  0  0  0  0
   -6.6260   -0.6640    0.6400 C   0  0  0  0  0  0  0  0  0  0  0  0
   -5.4920   -0.8130   -0.2000 N   0  0  0  0  0  0  0  0  0  0  0  0
   -4.2190   -0.1840   -0.0920 C   0  0  0  0  0  0  0  0  0  0  0  0
   -3.2720   -0.8760   -0.7790 C   0  0  0  0  0  0  0  0  0  0  0  0
   -1.9410   -0.4090   -0.7910 C   0  0  0  0  0  0  0  0  0  0  0  0
   -0.9850   -1.1410   -1.5240 N   0  0  0  0  0  0  0  0  0  0  0  0
    0.4260   -0.9690   -1.4840 C   0  0  0  0  0  0  0  0  0  0  0  0
    0.9050   -0.1020   -0.7360 O   0  0  0  0  0  0  0  0  0  0  0  0
    1.2960   -1.7550   -2.2670 N   0  0  0  0  0  0  0  0  0  0  0  0
    2.6900   -1.6650   -2.2980 C   0  0  0  0  0  0  0  0  0  0  0  0
    3.4620   -0.8130   -1.5790 C   0  0  0  0  0  0  0  0  0  0  0  0
    4.8730   -0.7920   -1.6740 C   0  0  0  0  0  0  0  0  0  0  0  0
    5.5200    0.1650   -0.8740 N   0  0  0  0  0  0  0  0  0  0  0  0
    6.8700    0.1420   -0.5590 C   0  0  0  0  0  0  0  0  0  0  0  0
    7.6460   -0.7430   -0.9560 O   0  0  0  0  0  0  0  0  0  0  0  0
    7.4280    1.2130    0.2860 C   0  0  0  0  0  0  0  0  0  0  0  0
    6.7660    2.2550    0.8070 N   0  0  0  0  0  0  0  0  0  0  0  0
    7.5810    3.0350    1.5260 C   0  0  0  0  0  0  0  0  0  0  0  0
    8.8380    2.4330    1.4440 C   0  0  0  0  0  0  0  0  0  0  0  0
    8.7390    1.3020    0.6730 C   0  0  0  0  0  0  0  0  0  0  0  0
    9.7410    0.4590    0.3690 F   0  0  0  0  0  0  0  0  0  0  0  0
    5.5120   -1.6540   -2.5170 C   0  0  0  0  0  0  0  0  0  0  0  0
    4.7480   -2.5330   -3.2620 C   0  0  0  0  0  0  0  0  0  0  0  0
    3.3910   -2.5350   -3.1540 C   0  0  0  0  0  0  0  0  0  0  0  0
    2.6600   -3.3980   -3.8860 F   0  0  0  0  0  0  0  0  0  0  0  0
   -1.6850    0.7370   -0.0950 C   0  0  0  0  0  0  0  0  0  0  0  0
   -2.6430    1.4610    0.6160 C   0  0  0  0  0  0  0  0  0  0  0  0
   -3.9300    0.9770    0.6070 C   0  0  0  0  0  0  0  0  0  0  0  0
  1  2  1  0
  2  3  2  0
  2 37  1  0
  3  4  1  0
  4  5  2  0
  4 10  1  0
  5  6  1  0
  5  7  1  0
  7  8  2  0
  8  9  1  0
  9 10  2  0
 10 11  1  0
 11 12  1  0
 12 13  2  0
 12 37  1  0
 13 14  1  0
 14 15  1  0
 14 35  2  0
 15 16  1  0
 16 17  2  0
 16 18  1  0
 18 19  1  0
 19 20  2  0
 19 33  1  0
 20 21  1  0
 21 22  1  0
 21 31  2  0
 22 23  1  0
 23 24  2  0
 23 25  1  0
 25 26  1  0
 25 29  2  0
 26 27  1  0
 27 28  2  0
 28 29  1  0
 29 30  1  0
 31 32  1  0
 32 33  2  0
 33 34  1  0
 35 36  1  0
 36 37  2  0
M  END
