
     RDKit          3D

 37 41  0  0  0  0  0  0  0  0999 V2000
   -9.0200    0.6500    1.4940 C   0  0  0  0  0  0  0  0  0  0  0  0
   -7.8560    0.4840    0.6710 N   0  0  0  0  0  0  0  0  0  0  0  0
   -6.6900    1.0780    1.3290 C   0  0  0  0  0  0  0  0  0  0  0  0
   -5.5070    0.8820    0.4410 C   0  0  0  0  0  0  0  0  0  0  0  0
   -4.4530    0.1800    0.7740 C   0  0  0  0  0  0  0  0  0  0  0  0
   -4.3370   -0.5070    2.0970 C   0  0  2  0  0  0  0  0  0  0  0  0
   -4.1410   -1.8870    1.8260 F   0  0  0  0  0  0  0  0  0  0  0  0
   -5.5020   -0.5470    2.8330 F   0  0  0  0  0  0  0  0  0  0  0  0
   -3.3900    0.0350    2.9180 F   0  0  0  0  0  0  0  0  0  0  0  0
   -3.3560    0.0430   -0.2200 C   0  0  0  0  0  0  0  0  0  0  0  0
   -3.4740    0.6300   -1.4400 C   0  0  0  0  0  0  0  0  0  0  0  0
   -2.3280    0.3890   -2.1220 N   0  0  0  0  0  0  0  0  0  0  0  0
   -1.5030   -0.3220   -1.3830 C   0  0  0  0  0  0  0  0  0  0  0  0
   -0.2240   -0.8210   -1.5920 C   0  0  0  0  0  0  0  0  0  0  0  0
    0.4230   -0.5590   -2.8970 C   0  0  0  0  0  0  0  0  0  0  0  0
    0.4420   -1.5360   -0.6410 C   0  0  0  0  0  0  0  0  0  0  0  0
    1.7480   -2.0640   -0.8140 N   0  0  0  0  0  0  0  0  0  0  0  0
    2.9100   -1.3050   -0.4600 C   0  0  0  0  0  0  0  0  0  0  0  0
    2.6940   -0.1800   -0.0030 O   0  0  0  0  0  0  0  0  0  0  0  0
    4.2120   -1.7770   -0.6100 N   0  0  0  0  0  0  0  0  0  0  0  0
    5.4090   -1.0950   -0.2900 C   0  0  0  0  0  0  0  0  0  0  0  0
    6.6370   -1.7720   -0.3970 C   0  0  0  0  0  0  0  0  0  0  0  0
    7.7860   -1.1630   -0.1110 N   0  0  0  0  0  0  0  0  0  0  0  0
    7.8610    0.1250    0.2960 C   0  0  0  0  0  0  0  0  0  0  0  0
    6.6990    0.8480    0.4230 C   0  0  0  0  0  0  0  0  0  0  0  0
    5.5040    0.2030    0.1220 C   0  0  0  0  0  0  0  0  0  0  0  0
    6.7540    2.2030    0.8480 N   0  0  0  0  0  0  0  0  0  0  0  0
    8.0160    2.8100    1.1420 C   0  0  0  0  0  0  0  0  0  0  0  0
    8.0810    3.8870    1.7760 O   0  0  0  0  0  0  0  0  0  0  0  0
    9.2770    2.1720    0.6990 C   0  0  0  0  0  0  0  0  0  0  0  0
    9.1140    0.7410    0.5950 N   0  0  0  0  0  0  0  0  0  0  0  0
   -0.1830   -1.7640    0.5620 C   0  0  0  0  0  0  0  0  0  0  0  0
    0.5050   -2.5360    1.6240 C   0  0  0  0  0  0  0  0  0  0  0  0
   -1.4550   -1.2820    0.8040 C   0  0  0  0  0  0  0  0  0  0  0  0
   -2.1160   -0.5660   -0.1580 C   0  0  0  0  0  0  0  0  0  0  0  0
   -4.6670    1.3610   -1.8860 C   0  0  0  0  0  0  0  0  0  0  0  0
   -5.6700    1.6080   -0.8750 C   0  0  0  0  0  0  0  0  0  0  0  0
  1  2  1  0
  2  3  1  0
  3  4  1  0
  4  5  2  0
  4 37  1  0
  5  6  1  0
  5 10  1  0
  6  7  1  6
  6  8  1  0
  6  9  1  0
 10 11  2  0
 10 35  1  0
 11 12  1  0
 11 36  1  0
 12 13  1  0
 13 14  2  0
 13 35  1  0
 14 15  1  0
 14 16  1  0
 16 17  1  0
 16 32  2  0
 17 18  1  0
 18 19  2  0
 18 20  1  0
 20 21  1  0
 21 22  2  0
 21 26  1  0
 22 23  1  0
 23 24  2  0
 24 25  1  0
 24 31  1  0
 25 26  2  0
 25 27  1  0
 27 28  1  0
 28 29  2  0
 28 30  1  0
 30 31  1  0
 32 33  1  0
 32 34  1  0
 34 35  2  0
 36 37  1  0
M  END
