
     RDKit          3D

 37 41  0  0  0  0  0  0  0  0999 V2000
   -4.4310   -2.8270   -2.7020 C   0  0  0  0  0  0  0  0  0  0  0  0
   -4.1000   -1.6640   -1.8380 C   0  0  0  0  0  0  0  0  0  0  0  0
   -5.0520   -1.0930   -1.0050 C   0  0  0  0  0  0  0  0  0  0  0  0
   -4.7170   -0.0200   -0.2170 C   0  0  0  0  0  0  0  0  0  0  0  0
   -5.6540    0.5410    0.6040 C   0  0  0  0  0  0  0  0  0  0  0  0
   -6.9690    0.0410    0.6530 N   0  0  0  0  0  0  0  0  0  0  0  0
   -7.9230    0.6640    1.5860 C   0  0  0  0  0  0  0  0  0  0  0  0
   -7.4010    0.4690    2.8740 F   0  0  0  0  0  0  0  0  0  0  0  0
   -5.2980    1.6300    1.3990 C   0  0  0  0  0  0  0  0  0  0  0  0
   -4.0080    2.1570    1.3730 C   0  0  0  0  0  0  0  0  0  0  0  0
   -3.0820    1.5840    0.5470 C   0  0  0  0  0  0  0  0  0  0  0  0
   -3.4300    0.4980   -0.2480 C   0  0  0  0  0  0  0  0  0  0  0  0
   -2.5050   -0.0890   -1.0850 C   0  0  0  0  0  0  0  0  0  0  0  0
   -1.1780    0.4260   -1.1280 N   0  0  0  0  0  0  0  0  0  0  0  0
   -0.1630   -0.0850   -0.2490 C   0  0  0  0  0  0  0  0  0  0  0  0
   -0.4920   -1.0650    0.6220 N   0  0  0  0  0  0  0  0  0  0  0  0
    0.4640   -1.5440    1.4330 C   0  0  0  0  0  0  0  0  0  0  0  0
    0.2420   -2.4600    2.2780 O   0  0  0  0  0  0  0  0  0  0  0  0
    1.7280   -1.0620    1.3840 N   0  0  0  0  0  0  0  0  0  0  0  0
    2.0680   -0.0840    0.5180 C   0  0  0  0  0  0  0  0  0  0  0  0
    3.4370    0.4250    0.4630 C   0  0  0  0  0  0  0  0  0  0  0  0
    4.5630   -0.2860    0.5530 C   0  0  0  0  0  0  0  0  0  0  0  0
    4.5730   -1.7010    0.7240 N   0  0  0  0  0  0  0  0  0  0  0  0
    5.7410    0.5460    0.4620 C   0  0  0  0  0  0  0  0  0  0  0  0
    5.3140    1.8450    0.3060 C   0  0  0  0  0  0  0  0  0  0  0  0
    6.2580    2.8460    0.1950 C   0  0  0  0  0  0  0  0  0  0  0  0
    7.6230    2.5900    0.2350 C   0  0  0  0  0  0  0  0  0  0  0  0
    8.5650    3.5630    0.1270 F   0  0  0  0  0  0  0  0  0  0  0  0
    8.0460    1.2990    0.3890 C   0  0  0  0  0  0  0  0  0  0  0  0
    9.3890    1.0030    0.4330 F   0  0  0  0  0  0  0  0  0  0  0  0
    7.1170    0.2940    0.5010 C   0  0  0  0  0  0  0  0  0  0  0  0
    7.6000   -1.0980    0.6630 C   0  0  0  0  0  0  0  0  0  0  0  0
    3.8610    1.8100    0.3020 C   0  0  0  0  0  0  0  0  0  0  0  0
    3.1010    2.8130    0.1780 O   0  0  0  0  0  0  0  0  0  0  0  0
    1.1020    0.3850   -0.2850 N   0  0  0  0  0  0  0  0  0  0  0  0
   -2.8410   -1.1670   -1.8780 C   0  0  0  0  0  0  0  0  0  0  0  0
   -1.8160   -1.7220   -2.7260 N   0  0  0  0  0  0  0  0  0  0  0  0
  1  2  1  0
  2  3  2  0
  2 36  1  0
  3  4  1  0
  4  5  2  0
  4 12  1  0
  5  6  1  0
  5  9  1  0
  6  7  1  0
  7  8  1  0
  9 10  2  0
 10 11  1  0
 11 12  2  0
 12 13  1  0
 13 14  1  0
 13 36  2  0
 14 15  1  0
 15 16  2  0
 15 35  1  0
 16 17  1  0
 17 18  2  0
 17 19  1  0
 19 20  2  0
 20 21  1  0
 20 35  1  0
 21 22  2  0
 21 33  1  0
 22 23  1  0
 22 24  1  0
 24 25  2  0
 24 31  1  0
 25 26  1  0
 25 33  1  0
 26 27  2  0
 27 28  1  0
 27 29  1  0
 29 30  1  0
 29 31  2  0
 31 32  1  0
 33 34  2  0
 36 37  1  0
M  END
