
     RDKit          3D

 37 41  0  0  0  0  0  0  0  0999 V2000
    4.5420   -4.8990    0.4140 C   0  0  0  0  0  0  0  0  0  0  0  0
    3.9330   -3.5550    0.2290 C   0  0  0  0  0  0  0  0  0  0  0  0
    4.4280   -2.6330   -0.6640 C   0  0  0  0  0  0  0  0  0  0  0  0
    3.8250   -1.4050   -0.7940 C   0  0  0  0  0  0  0  0  0  0  0  0
    2.7020   -1.0240   -0.0490 C   0  0  0  0  0  0  0  0  0  0  0  0
    2.1450    0.3010   -0.3030 C   0  0  0  0  0  0  0  0  0  0  0  0
    2.8790    1.1010   -0.9610 O   0  0  0  0  0  0  0  0  0  0  0  0
    0.8910    0.7710    0.1060 N   0  0  0  0  0  0  0  0  0  0  0  0
    0.3230    2.0430   -0.1080 C   0  0  0  0  0  0  0  0  0  0  0  0
   -0.9120    2.2820    0.3720 C   0  0  0  0  0  0  0  0  0  0  0  0
   -1.6640    1.2640    1.0920 C   0  0  0  0  0  0  0  0  0  0  0  0
   -2.1720    1.4710    2.3230 N   0  0  0  0  0  0  0  0  0  0  0  0
   -2.9220    0.5720    2.9670 C   0  0  0  0  0  0  0  0  0  0  0  0
   -3.2050   -0.6430    2.3520 C   0  0  0  0  0  0  0  0  0  0  0  0
   -3.9820   -1.5740    2.9860 C   0  0  0  0  0  0  0  0  0  0  0  0
   -4.4860   -1.3540    4.2280 F   0  0  0  0  0  0  0  0  0  0  0  0
   -4.2570   -2.7650    2.3460 C   0  0  0  0  0  0  0  0  0  0  0  0
   -3.7670   -3.0310    1.0870 C   0  0  0  0  0  0  0  0  0  0  0  0
   -4.0450   -4.1920    0.4810 F   0  0  0  0  0  0  0  0  0  0  0  0
   -2.9800   -2.0670    0.4680 C   0  0  0  0  0  0  0  0  0  0  0  0
   -2.4770   -2.2970   -0.8400 N   0  0  0  0  0  0  0  0  0  0  0  0
   -1.2770   -2.9810   -1.0740 C   0  0  0  0  0  0  0  0  0  0  0  0
   -0.7400   -3.2240   -2.3550 N   0  0  0  0  0  0  0  0  0  0  0  0
   -0.6400   -3.4030   -0.0640 O   0  0  0  0  0  0  0  0  0  0  0  0
   -2.7050   -0.8730    1.1140 C   0  0  0  0  0  0  0  0  0  0  0  0
   -1.9430    0.0890    0.5110 N   0  0  0  0  0  0  0  0  0  0  0  0
   -1.4730    3.5680    0.1500 N   0  0  0  0  0  0  0  0  0  0  0  0
   -0.8050    4.6050   -0.5480 C   0  0  0  0  0  0  0  0  0  0  0  0
   -1.3630    5.8490   -0.7590 C   0  0  0  0  0  0  0  0  0  0  0  0
   -0.6720    6.8290   -1.4480 C   0  0  0  0  0  0  0  0  0  0  0  0
    0.5980    6.6210   -1.9560 C   0  0  0  0  0  0  0  0  0  0  0  0
    1.1400    5.3620   -1.7330 C   0  0  0  0  0  0  0  0  0  0  0  0
    0.4590    4.3830   -1.0490 C   0  0  0  0  0  0  0  0  0  0  0  0
    1.0140    3.0770   -0.8150 N   0  0  0  0  0  0  0  0  0  0  0  0
    2.2310   -1.9470    0.8260 C   0  0  0  0  0  0  0  0  0  0  0  0
    1.1600   -1.6510    1.6020 F   0  0  0  0  0  0  0  0  0  0  0  0
    2.8320   -3.2070    0.9740 C   0  0  0  0  0  0  0  0  0  0  0  0
  1  2  1  0
  2  3  2  0
  2 37  1  0
  3  4  1  0
  4  5  2  0
  5  6  1  0
  5 35  1  0
  6  7  2  0
  6  8  1  0
  8  9  1  0
  9 10  2  0
  9 34  1  0
 10 11  1  0
 10 27  1  0
 11 12  2  0
 11 26  1  0
 12 13  1  0
 13 14  2  0
 14 15  1  0
 14 25  1  0
 15 16  1  0
 15 17  2  0
 17 18  1  0
 18 19  1  0
 18 20  2  0
 20 21  1  0
 20 25  1  0
 21 22  1  0
 22 23  1  0
 22 24  2  0
 25 26  2  0
 27 28  1  0
 28 29  2  0
 28 33  1  0
 29 30  1  0
 30 31  2  0
 31 32  1  0
 32 33  2  0
 33 34  1  0
 35 36  1  0
 35 37  2  0
M  END
