
     RDKit          3D

 37 41  0  0  0  0  0  0  0  0999 V2000
   -6.5280    5.4550   -2.2740 N   0  0  0  0  0  0  0  0  0  0  0  0
   -5.6560    4.7740   -1.8960 C   0  0  0  0  0  0  0  0  0  0  0  0
   -4.5990    3.9240   -1.4150 C   0  0  0  0  0  0  0  0  0  0  0  0
   -3.7240    4.4060   -0.4830 C   0  0  0  0  0  0  0  0  0  0  0  0
   -2.7210    3.5720   -0.0320 C   0  0  0  0  0  0  0  0  0  0  0  0
   -2.5920    2.2950   -0.4940 C   0  0  0  0  0  0  0  0  0  0  0  0
   -3.4610    1.7990   -1.4290 C   0  0  0  0  0  0  0  0  0  0  0  0
   -4.4810    2.6270   -1.8950 C   0  0  0  0  0  0  0  0  0  0  0  0
   -3.2860    0.4940   -1.9090 N   0  0  0  0  0  0  0  0  0  0  0  0
   -2.3790   -0.4600   -1.3430 C   0  0  2  0  0  0  0  0  0  0  0  0
   -3.2000   -1.5350   -0.6870 C   0  0  0  0  0  0  0  0  0  0  0  0
   -2.9620   -2.8560   -0.9710 C   0  0  0  0  0  0  0  0  0  0  0  0
   -3.7240   -3.8490   -0.3540 C   0  0  0  0  0  0  0  0  0  0  0  0
   -4.7160   -3.5150    0.5410 C   0  0  0  0  0  0  0  0  0  0  0  0
   -5.4370   -4.5210    1.1230 F   0  0  0  0  0  0  0  0  0  0  0  0
   -4.9570   -2.1920    0.8300 C   0  0  0  0  0  0  0  0  0  0  0  0
   -5.9560   -1.8810    1.7300 O   0  0  0  0  0  0  0  0  0  0  0  0
   -4.1850   -1.2040    0.2030 C   0  0  0  0  0  0  0  0  0  0  0  0
   -1.4080    0.1180   -0.4070 C   0  0  0  0  0  0  0  0  0  0  0  0
   -1.5470    1.4380    0.0200 C   0  0  0  0  0  0  0  0  0  0  0  0
   -0.5690    1.7090    0.8810 N   0  0  0  0  0  0  0  0  0  0  0  0
    0.1730    0.6470    1.0170 N   0  0  0  0  0  0  0  0  0  0  0  0
   -0.2930   -0.3660    0.2480 C   0  0  0  0  0  0  0  0  0  0  0  0
    0.2780   -1.6790    0.1350 N   0  0  0  0  0  0  0  0  0  0  0  0
    1.4140   -1.9960    0.8600 N   0  0  0  0  0  0  0  0  0  0  0  0
    2.6540   -1.3100    0.5800 C   0  0  0  0  0  0  0  0  0  0  0  0
    2.6930   -0.4310   -0.3060 O   0  0  0  0  0  0  0  0  0  0  0  0
    3.8310   -1.6240    1.2990 N   0  0  0  0  0  0  0  0  0  0  0  0
    5.1060   -1.0380    1.1330 C   0  0  0  0  0  0  0  0  0  0  0  0
    5.4160   -0.0070    0.2800 C   0  0  0  0  0  0  0  0  0  0  0  0
    6.7110    0.5280    0.1690 C   0  0  0  0  0  0  0  0  0  0  0  0
    6.9750    1.6470   -0.7730 C   0  0  0  0  0  0  0  0  0  0  0  0
    7.3290    1.2220   -2.0280 F   0  0  0  0  0  0  0  0  0  0  0  0
    7.7350    0.0270    0.9250 C   0  0  0  0  0  0  0  0  0  0  0  0
    7.4310   -1.0100    1.7840 C   0  0  0  0  0  0  0  0  0  0  0  0
    6.1720   -1.5390    1.9010 C   0  0  0  0  0  0  0  0  0  0  0  0
    5.9450   -2.5710    2.7760 F   0  0  0  0  0  0  0  0  0  0  0  0
  1  2  3  0
  2  3  1  0
  3  4  2  0
  3  8  1  0
  4  5  1  0
  5  6  2  0
  6  7  1  0
  6 20  1  0
  7  8  2  0
  7  9  1  0
  9 10  1  0
 10 11  1  1
 10 19  1  0
 11 12  2  0
 11 18  1  0
 12 13  1  0
 13 14  2  0
 14 15  1  0
 14 16  1  0
 16 17  1  0
 16 18  2  0
 19 20  1  0
 19 23  2  0
 20 21  2  0
 21 22  1  0
 22 23  1  0
 23 24  1  0
 24 25  1  0
 25 26  1  0
 26 27  2  0
 26 28  1  0
 28 29  1  0
 29 30  2  0
 29 36  1  0
 30 31  1  0
 31 32  1  0
 31 34  2  0
 32 33  1  0
 34 35  1  0
 35 36  2  0
 36 37  1  0
M  END
