
     RDKit          3D

 14 14  0  0  0  0  0  0  0  0999 V2000
    3.9510   -0.7340   -0.7670 O   0  0  0  0  0  0  0  0  0  0  0  0
    2.5960   -1.1330   -0.6810 C   0  0  0  0  0  0  0  0  0  0  0  0
    1.8710   -0.0510    0.0460 C   0  0  0  0  0  0  0  0  0  0  0  0
    0.4790   -0.2710    0.2340 N   0  0  2  0  0  0  0  0  0  0  0  0
   -0.0900   -1.2790   -0.6050 C   0  0  0  0  0  0  0  0  0  0  0  0
   -1.5470   -1.4350   -0.3690 C   0  0  2  0  0  0  0  0  0  0  0  0
   -2.2780   -1.2030   -1.5580 O   0  0  0  0  0  0  0  0  0  0  0  0
   -2.1200   -0.4920    0.6490 C   0  0  1  0  0  0  0  0  0  0  0  0
   -1.8820   -0.8450    1.9490 O   0  0  0  0  0  0  0  0  0  0  0  0
   -1.6830    0.9040    0.2950 C   0  0  2  0  0  0  0  0  0  0  0  0
   -2.3230    1.2390   -0.9080 O   0  0  0  0  0  0  0  0  0  0  0  0
   -0.1990    1.0100    0.0560 C   0  0  1  0  0  0  0  0  0  0  0  0
    0.3580    1.9860    1.0700 C   0  0  0  0  0  0  0  0  0  0  0  0
   -0.3260    3.2010    0.8580 O   0  0  0  0  0  0  0  0  0  0  0  0
  1  2  1  0
  2  3  1  0
  4  3  1  6
  4  5  1  0
  4 12  1  0
  5  6  1  0
  6  7  1  6
  6  8  1  0
  8  9  1  1
  8 10  1  0
 10 11  1  6
 10 12  1  0
 12 13  1  1
 13 14  1  0
M  CHG  1   4   1
M  END
