
     RDKit          3D

 19 20  0  0  0  0  0  0  0  0999 V2000
    1.7610    2.8370   -0.5080 O   0  0  0  0  0  0  0  0  0  0  0  0
    1.1160    1.6090   -0.4730 C   0  0  0  0  0  0  0  0  0  0  0  0
   -0.2180    1.4770   -0.7400 C   0  0  0  0  0  0  0  0  0  0  0  0
   -0.8840    0.2730   -0.7110 C   0  0  0  0  0  0  0  0  0  0  0  0
   -2.3280    0.1910   -1.0120 C   0  0  0  0  0  0  0  0  0  0  0  0
   -3.1960    0.0290    0.1490 C   0  0  0  0  0  0  0  0  0  0  0  0
   -3.7170    1.0510    0.9120 C   0  0  0  0  0  0  0  0  0  0  0  0
   -4.4680    0.5150    1.8800 N   0  0  0  0  0  0  0  0  0  0  0  0
   -4.4220   -0.8390    1.7300 C   0  0  0  0  0  0  0  0  0  0  0  0
   -3.6380   -1.1270    0.6630 N   0  0  0  0  0  0  0  0  0  0  0  0
   -0.2030   -0.8760   -0.4020 C   0  0  0  0  0  0  0  0  0  0  0  0
   -0.8270   -2.0970   -0.3610 F   0  0  0  0  0  0  0  0  0  0  0  0
    1.1610   -0.7600   -0.1260 C   0  0  0  0  0  0  0  0  0  0  0  0
    1.8460    0.4300   -0.1490 C   0  0  0  0  0  0  0  0  0  0  0  0
    3.2310    0.5890    0.1470 C   0  0  0  0  0  0  0  0  0  0  0  0
    4.1740   -0.2500    0.3730 C   0  0  0  0  0  0  0  0  0  0  0  0
    4.0830   -1.7090    0.3880 C   0  0  2  0  0  0  0  0  0  0  0  0
    3.6060   -2.1830    1.5890 F   0  0  0  0  0  0  0  0  0  0  0  0
    5.4330   -2.1710    0.2410 F   0  0  0  0  0  0  0  0  0  0  0  0
  1  2  1  0
  2  3  2  0
  2 14  1  0
  3  4  1  0
  4  5  1  0
  4 11  2  0
  5  6  1  0
  6  7  2  0
  6 10  1  0
  7  8  1  0
  8  9  2  0
  9 10  1  0
 11 12  1  0
 11 13  1  0
 13 14  2  0
 14 15  1  0
 15 16  2  3
 16 17  1  0
 17 18  1  1
 17 19  1  0
M  END
