
     RDKit          3D

 19 20  0  0  0  0  0  0  0  0999 V2000
   -5.2760   -0.0480    0.0540 C   0  0  0  0  0  0  0  0  0  0  0  0
   -3.7740    0.0080    0.0150 C   0  0  0  0  0  0  0  0  0  0  0  0
   -3.0500   -1.1430    0.0270 C   0  0  0  0  0  0  0  0  0  0  0  0
   -1.6470   -1.1070   -0.0110 C   0  0  0  0  0  0  0  0  0  0  0  0
   -0.9390    0.0670   -0.0600 C   0  0  0  0  0  0  0  0  0  0  0  0
    0.5240    0.1400   -0.0980 C   0  0  0  0  0  0  0  0  0  0  0  0
    1.2190   -1.0220   -0.0770 C   0  0  0  0  0  0  0  0  0  0  0  0
    2.6820   -1.0500   -0.1100 C   0  0  0  0  0  0  0  0  0  0  0  0
    3.4460   -1.9350   -0.8600 C   0  0  0  0  0  0  0  0  0  0  0  0
    4.7550   -1.6950   -0.6460 N   0  0  0  0  0  0  0  0  0  0  0  0
    4.8320   -0.6940    0.2080 N   0  0  0  0  0  0  0  0  0  0  0  0
    3.5860   -0.2700    0.5610 C   0  0  0  0  0  0  0  0  0  0  0  0
    3.3080    0.6630    1.3570 O   0  0  0  0  0  0  0  0  0  0  0  0
    1.2870    1.2390   -0.1540 O   0  0  0  0  0  0  0  0  0  0  0  0
    1.2460    2.5560   -0.4120 C   0  0  2  0  0  0  0  0  0  0  0  0
    0.7800    2.7570   -1.7250 F   0  0  0  0  0  0  0  0  0  0  0  0
    2.5920    3.0410   -0.3980 F   0  0  0  0  0  0  0  0  0  0  0  0
   -1.7100    1.2280   -0.0710 C   0  0  0  0  0  0  0  0  0  0  0  0
   -3.0980    1.1980   -0.0350 C   0  0  0  0  0  0  0  0  0  0  0  0
  1  2  1  0
  2  3  2  0
  2 19  1  0
  3  4  1  0
  4  5  2  0
  5  6  1  0
  5 18  1  0
  6  7  2  3
  6 14  1  0
  7  8  1  0
  8  9  2  0
  8 12  1  0
  9 10  1  0
 10 11  1  0
 11 12  1  0
 12 13  2  0
 14 15  1  0
 15 16  1  6
 15 17  1  0
 18 19  2  0
M  END
