
     RDKit          3D

 20 21  0  0  0  0  0  0  0  0999 V2000
    0.1310    0.5080   -1.2180 O   0  0  0  0  0  0  0  0  0  0  0  0
    0.1150    0.2000    0.0020 C   0  0  0  0  0  0  0  0  0  0  0  0
    1.3230   -0.1720    0.6240 N   0  0  0  0  0  0  0  0  0  0  0  0
    2.5430   -0.1930   -0.1370 C   0  0  0  0  0  0  0  0  0  0  0  0
    3.5360    0.5770    0.2350 C   0  0  0  0  0  0  0  0  0  0  0  0
    3.4420    1.4730    1.4230 C   0  0  1  0  0  0  0  0  0  0  0  0
    2.1080    1.8180    1.6610 F   0  0  0  0  0  0  0  0  0  0  0  0
    3.8960    0.8540    2.5600 F   0  0  0  0  0  0  0  0  0  0  0  0
    4.1280    2.6490    1.1690 F   0  0  0  0  0  0  0  0  0  0  0  0
    2.6900   -1.0510   -1.3090 C   0  0  0  0  0  0  0  0  0  0  0  0
    3.8260   -1.1160   -2.0750 C   0  0  0  0  0  0  0  0  0  0  0  0
    3.5790   -2.0210   -3.0700 C   0  0  0  0  0  0  0  0  0  0  0  0
    2.2960   -2.4700   -2.8640 C   0  0  0  0  0  0  0  0  0  0  0  0
    1.8210   -1.8730   -1.8240 O   0  0  0  0  0  0  0  0  0  0  0  0
   -1.1370    0.2520    0.6650 N   0  0  0  0  0  0  0  0  0  0  0  0
   -2.3770    0.6370    0.0120 C   0  0  2  0  0  0  0  0  0  0  0  0
   -3.1190    1.7040    0.7670 C   0  0  0  0  0  0  0  0  0  0  0  0
   -4.2980    1.0210    1.4440 C   0  0  0  0  0  0  0  0  0  0  0  0
   -3.9530   -0.4450    1.4190 C   0  0  0  0  0  0  0  0  0  0  0  0
   -3.2820   -0.6010    0.0870 C   0  0  0  0  0  0  0  0  0  0  0  0
  1  2  2  0
  2  3  1  0
  2 15  1  0
  3  4  1  0
  4  5  2  3
  4 10  1  0
  5  6  1  0
  6  7  1  1
  6  8  1  0
  6  9  1  0
 10 11  2  0
 10 14  1  0
 11 12  1  0
 12 13  2  0
 13 14  1  0
 16 15  1  1
 16 17  1  0
 16 20  1  0
 17 18  1  0
 18 19  1  0
 19 20  1  0
M  END
