
     RDKit          3D

 20 21  0  0  0  0  0  0  0  0999 V2000
   -0.0280    0.6370    2.4040 O   0  0  0  0  0  0  0  0  0  0  0  0
   -1.2030    0.8370    2.0400 C   0  0  0  0  0  0  0  0  0  0  0  0
   -1.6300    0.4480    0.6750 C   0  0  0  0  0  0  0  0  0  0  0  0
   -2.9860    0.4780    0.4210 C   0  0  0  0  0  0  0  0  0  0  0  0
   -3.4350    0.0160   -0.8070 C   0  0  0  0  0  0  0  0  0  0  0  0
   -4.9290    0.0820   -1.0240 C   0  0  1  0  0  0  0  0  0  0  0  0
   -5.2500   -0.3020   -2.2840 F   0  0  0  0  0  0  0  0  0  0  0  0
   -5.4690   -0.8430   -0.1290 F   0  0  0  0  0  0  0  0  0  0  0  0
   -5.3380    1.3710   -0.7640 F   0  0  0  0  0  0  0  0  0  0  0  0
   -2.5750   -0.4580   -1.7500 C   0  0  0  0  0  0  0  0  0  0  0  0
   -1.2140   -0.4900   -1.5040 C   0  0  0  0  0  0  0  0  0  0  0  0
   -0.7470   -0.0340   -0.2850 C   0  0  0  0  0  0  0  0  0  0  0  0
    0.6180    0.0900    0.0270 N   0  0  0  0  0  0  0  0  0  0  0  0
    1.7310   -0.6100   -0.4990 C   0  0  0  0  0  0  0  0  0  0  0  0
    1.5170   -1.4730   -1.3750 O   0  0  0  0  0  0  0  0  0  0  0  0
    3.0740   -0.2800    0.0260 C   0  0  0  0  0  0  0  0  0  0  0  0
    4.2050   -0.9910   -0.1290 C   0  0  0  0  0  0  0  0  0  0  0  0
    5.2320   -0.3550    0.5480 C   0  0  0  0  0  0  0  0  0  0  0  0
    4.7180    0.7610    1.1290 N   0  0  0  0  0  0  0  0  0  0  0  0
    3.4000    0.8210    0.8170 C   0  0  0  0  0  0  0  0  0  0  0  0
  1  2  2  0
  2  3  1  0
  3  4  2  0
  3 12  1  0
  4  5  1  0
  5  6  1  0
  5 10  2  0
  6  7  1  6
  6  8  1  0
  6  9  1  0
 10 11  1  0
 11 12  2  0
 12 13  1  0
 13 14  1  0
 14 15  2  0
 14 16  1  0
 16 17  1  0
 16 20  2  0
 17 18  2  0
 18 19  1  0
 19 20  1  0
M  END
