
     RDKit          3D

 17 17  0  0  0  0  0  0  0  0999 V2000
   -4.4950    0.6320   -0.5840 C   0  0  0  0  0  0  0  0  0  0  0  0
   -3.3890   -0.3770   -0.2490 C   0  0  1  0  0  0  0  0  0  0  0  0
   -4.0820   -1.5620    0.3940 C   0  0  0  0  0  0  0  0  0  0  0  0
   -2.7810   -0.8020   -1.5460 C   0  0  0  0  0  0  0  0  0  0  0  0
   -2.4800    0.2790    0.6400 N   0  0  0  0  0  0  0  0  0  0  0  0
   -1.0860   -0.0960    0.4010 C   0  0  0  0  0  0  0  0  0  0  0  0
   -0.2570    0.8850    1.1910 C   0  0  0  0  0  0  0  0  0  0  0  0
    1.1740    0.6630    1.0780 N   0  0  0  0  0  0  0  0  0  0  0  0
    1.8720    0.7300   -0.1510 C   0  0  0  0  0  0  0  0  0  0  0  0
    1.1340    1.0370   -1.1600 O   0  0  0  0  0  0  0  0  0  0  0  0
    3.2710    0.4890   -0.3830 C   0  0  0  0  0  0  0  0  0  0  0  0
    3.8650    0.6870   -1.5900 C   0  0  0  0  0  0  0  0  0  0  0  0
    5.2670    0.3650   -1.4640 N   0  0  0  0  0  0  0  0  0  0  0  0
    5.5990    0.5960   -0.0370 C   0  0  0  0  0  0  0  0  0  0  0  0
    4.3050   -0.0940    0.4590 C   0  0  0  0  0  0  0  0  0  0  0  0
    4.2330   -1.0430    1.3100 C   0  0  0  0  0  0  0  0  0  0  0  0
    2.8210   -1.9460    1.7050 Cl  0  0  0  0  0  0  0  0  0  0  0  0
  2  1  1  6
  2  3  1  0
  2  4  1  0
  2  5  1  0
  5  6  1  0
  6  7  1  0
  7  8  1  0
  8  9  1  0
  9 10  2  0
  9 11  1  0
 11 12  2  0
 11 15  1  0
 12 13  1  0
 13 14  1  0
 14 15  1  0
 15 16  2  3
 16 17  1  0
M  CHG  1   5   1
M  END
