
     RDKit          3D

 17 18  0  0  0  0  0  0  0  0999 V2000
   -4.0850   -1.8860    0.3160 C   0  0  0  0  0  0  0  0  0  0  0  0
   -3.4300   -0.7410   -0.3800 C   0  0  0  0  0  0  0  0  0  0  0  0
   -2.1780   -0.3270    0.2540 N   0  0  0  0  0  0  0  0  0  0  0  0
   -1.1360   -1.2990    0.1330 C   0  0  0  0  0  0  0  0  0  0  0  0
    0.0380   -0.8230   -0.7000 C   0  0  0  0  0  0  0  0  0  0  0  0
    0.5520    0.4410   -0.2540 N   0  0  0  0  0  0  0  0  0  0  0  0
    1.5440    0.2110    0.7660 C   0  0  0  0  0  0  0  0  0  0  0  0
    2.7100   -0.5580    0.2890 C   0  0  0  0  0  0  0  0  0  0  0  0
    2.9490   -1.9090    0.4100 C   0  0  0  0  0  0  0  0  0  0  0  0
    4.1750   -2.1780   -0.1920 C   0  0  0  0  0  0  0  0  0  0  0  0
    4.6200   -0.9530   -0.6530 C   0  0  0  0  0  0  0  0  0  0  0  0
    6.1400   -0.6710   -1.5100 Cl  0  0  0  0  0  0  0  0  0  0  0  0
    3.7490   -0.0400   -0.3570 O   0  0  0  0  0  0  0  0  0  0  0  0
   -0.4290    1.4040    0.0850 C   0  0  1  0  0  0  0  0  0  0  0  0
   -0.2520    2.7400   -0.5900 C   0  0  0  0  0  0  0  0  0  0  0  0
    0.9960    3.3750   -0.2900 N   0  0  0  0  0  0  0  0  0  0  0  0
   -1.7800    0.8830   -0.3960 C   0  0  0  0  0  0  0  0  0  0  0  0
  1  2  1  0
  2  3  1  0
  3  4  1  0
  3 17  1  0
  4  5  1  0
  5  6  1  0
  6  7  1  0
  6 14  1  0
  7  8  1  0
  8  9  2  0
  8 13  1  0
  9 10  1  0
 10 11  2  0
 11 12  1  0
 11 13  1  0
 14 15  1  6
 14 17  1  0
 15 16  1  0
M  CHG  1  16   1
M  END
