
     RDKit          3D

 17 17  0  0  0  0  0  0  0  0999 V2000
   -5.0360   -0.9710   -0.1200 C   0  0  0  0  0  0  0  0  0  0  0  0
   -3.6720   -0.4300   -0.4460 C   0  0  1  0  0  0  0  0  0  0  0  0
   -3.7990    1.0040   -0.8560 C   0  0  0  0  0  0  0  0  0  0  0  0
   -2.7970   -0.5900    0.7840 C   0  0  0  0  0  0  0  0  0  0  0  0
   -1.4200   -0.0790    0.5550 C   0  0  0  0  0  0  0  0  0  0  0  0
   -1.2720    1.2590    0.2210 O   0  0  0  0  0  0  0  0  0  0  0  0
   -0.4150   -0.8470    0.6640 N   0  0  0  0  0  0  0  0  0  0  0  0
    0.9240   -0.4970    0.4770 C   0  0  0  0  0  0  0  0  0  0  0  0
    1.3370    0.4120    1.3390 C   0  0  0  0  0  0  0  0  0  0  0  0
    2.6040    1.1270    1.6050 C   0  0  0  0  0  0  0  0  0  0  0  0
    3.7910    1.0760    1.0930 N   0  0  0  0  0  0  0  0  0  0  0  0
    4.4860    0.3660    0.0780 C   0  0  0  0  0  0  0  0  0  0  0  0
    5.8580    0.6670   -0.0430 N   0  0  0  0  0  0  0  0  0  0  0  0
    4.0520   -0.5530   -0.7930 C   0  0  0  0  0  0  0  0  0  0  0  0
    2.8130   -1.2310   -1.1320 C   0  0  0  0  0  0  0  0  0  0  0  0
    1.5780   -1.1960   -0.6160 C   0  0  0  0  0  0  0  0  0  0  0  0
    0.4540   -2.2470   -1.4470 Cl  0  0  0  0  0  0  0  0  0  0  0  0
  2  1  1  1
  2  3  1  0
  2  4  1  0
  4  5  1  0
  5  6  1  0
  5  7  2  3
  7  8  1  0
  8  9  2  0
  8 16  1  0
  9 10  1  0
 10 11  2  0
 11 12  1  0
 12 13  1  0
 12 14  2  0
 14 15  1  0
 15 16  2  0
 16 17  1  0
M  CHG  1  11   1
M  END
