
     RDKit          3D

 17 17  0  0  0  0  0  0  0  0999 V2000
   -2.2410    3.2140    0.7170 C   0  0  0  0  0  0  0  0  0  0  0  0
   -2.7220    2.1470    0.1270 C   0  0  0  0  0  0  0  0  0  0  0  0
   -2.4000    0.7710    0.3400 C   0  0  0  0  0  0  0  0  0  0  0  0
   -3.1080   -0.0370   -0.4590 C   0  0  0  0  0  0  0  0  0  0  0  0
   -4.2040    0.8170   -1.5180 Cl  0  0  0  0  0  0  0  0  0  0  0  0
   -3.2150   -1.5160   -0.6910 C   0  0  0  0  0  0  0  0  0  0  0  0
   -1.8690   -2.0210   -0.8640 N   0  0  0  0  0  0  0  0  0  0  0  0
   -1.3900   -2.4280    0.4440 C   0  0  0  0  0  0  0  0  0  0  0  0
   -0.0720   -1.7050    0.7430 C   0  0  0  0  0  0  0  0  0  0  0  0
   -0.2630   -0.2820    0.8350 N   0  0  0  0  0  0  0  0  0  0  0  0
    0.7890    0.5360    0.3530 C   0  0  0  0  0  0  0  0  0  0  0  0
    0.6620    1.8030    0.4170 O   0  0  0  0  0  0  0  0  0  0  0  0
    2.0370    0.0120   -0.2250 C   0  0  0  0  0  0  0  0  0  0  0  0
    2.9580    1.1390   -0.6850 C   0  0  0  0  0  0  0  0  0  0  0  0
    4.1780    0.5960   -1.2480 N   0  0  0  0  0  0  0  0  0  0  0  0
    5.0050   -0.0450   -0.2470 C   0  0  0  0  0  0  0  0  0  0  0  0
   -1.3920    0.5140    1.3550 C   0  0  0  0  0  0  0  0  0  0  0  0
  1  2  2  0
  2  3  1  0
  3  4  2  0
  3 17  1  0
  4  5  1  0
  4  6  1  0
  6  7  1  0
  7  8  1  0
  8  9  1  0
  9 10  1  0
 10 11  1  0
 10 17  1  0
 11 12  2  0
 11 13  1  0
 13 14  1  0
 14 15  1  0
 15 16  1  0
M  CHG  1   7   1
M  END
