
     RDKit          3D

 17 18  0  0  0  0  0  0  0  0999 V2000
   -2.3160    1.8230    0.9740 C   0  0  0  0  0  0  0  0  0  0  0  0
   -2.3350    0.3330    0.7100 C   0  0  1  0  0  0  0  0  0  0  0  0
   -3.5870   -0.2700    1.3140 C   0  0  0  0  0  0  0  0  0  0  0  0
   -2.3200    0.1520   -0.7210 N   0  0  0  0  0  0  0  0  0  0  0  0
   -1.2830   -0.5030   -1.0760 C   0  0  0  0  0  0  0  0  0  0  0  0
   -0.9960   -0.8350   -2.4250 N   0  0  0  0  0  0  0  0  0  0  0  0
   -0.4610   -0.8540    0.0240 N   0  0  0  0  0  0  0  0  0  0  0  0
    0.7790   -1.5880    0.0050 C   0  0  0  0  0  0  0  0  0  0  0  0
    1.9650   -0.7120   -0.1440 C   0  0  0  0  0  0  0  0  0  0  0  0
    2.4700   -0.3810   -1.3840 C   0  0  0  0  0  0  0  0  0  0  0  0
    3.5740    0.4350   -1.4880 C   0  0  0  0  0  0  0  0  0  0  0  0
    4.2230    0.9570   -0.3870 C   0  0  0  0  0  0  0  0  0  0  0  0
    3.7030    0.6140    0.8450 C   0  0  0  0  0  0  0  0  0  0  0  0
    4.5020    1.2580    2.2690 Cl  0  0  0  0  0  0  0  0  0  0  0  0
    2.5990   -0.2020    0.9740 C   0  0  0  0  0  0  0  0  0  0  0  0
   -1.1080   -0.3330    1.1780 C   0  0  0  0  0  0  0  0  0  0  0  0
   -0.7390   -0.4050    2.3850 O   0  0  0  0  0  0  0  0  0  0  0  0
  2  1  1  6
  2  3  1  0
  2  4  1  0
  2 16  1  0
  4  5  2  0
  5  6  1  0
  5  7  1  0
  7  8  1  0
  7 16  1  0
  8  9  1  0
  9 10  2  0
  9 15  1  0
 10 11  1  0
 11 12  2  0
 12 13  1  0
 13 14  1  0
 13 15  2  0
 16 17  2  0
M  CHG  1   4   1
M  END
