
     RDKit          3D

 16 17  0  0  0  0  0  0  0  0999 V2000
   -3.2860   -2.5230    0.3000 C   0  0  0  0  0  0  0  0  0  0  0  0
   -2.4690   -1.2670    0.3960 C   0  0  0  0  0  0  0  0  0  0  0  0
   -1.3360   -1.0930    0.9450 N   0  0  0  0  0  0  0  0  0  0  0  0
   -0.8780    0.2160    0.8380 N   0  0  0  0  0  0  0  0  0  0  0  0
    0.3600    0.7130    1.3560 C   0  0  0  0  0  0  0  0  0  0  0  0
    1.5030    0.5940    0.3550 C   0  0  1  0  0  0  0  0  0  0  0  0
    2.7310    1.1540    1.0390 C   0  0  0  0  0  0  0  0  0  0  0  0
    3.8550    1.0870    0.0110 C   0  0  0  0  0  0  0  0  0  0  0  0
    4.1400   -0.3650   -0.2020 C   0  0  0  0  0  0  0  0  0  0  0  0
    2.9870   -1.1750   -0.6420 C   0  0  0  0  0  0  0  0  0  0  0  0
    1.6610   -0.7980   -0.1200 C   0  0  0  0  0  0  0  0  0  0  0  0
   -1.8570    0.9530    0.1280 C   0  0  0  0  0  0  0  0  0  0  0  0
   -1.8330    2.1630   -0.1810 O   0  0  0  0  0  0  0  0  0  0  0  0
   -2.9290   -0.0100   -0.1800 C   0  0  0  0  0  0  0  0  0  0  0  0
   -4.0380    0.2510   -0.8320 C   0  0  0  0  0  0  0  0  0  0  0  0
   -4.3200    1.5540   -1.3260 N   0  0  0  0  0  0  0  0  0  0  0  0
  1  2  1  0
  2  3  2  0
  2 14  1  0
  3  4  1  0
  4  5  1  0
  4 12  1  0
  6  5  1  1
  6  7  1  0
  6 11  1  0
  7  8  1  0
  8  9  1  0
  9 10  1  0
 10 11  1  0
 12 13  2  0
 12 14  1  0
 14 15  2  3
 15 16  1  0
M  CHG  1  16   1
M  END
