
     RDKit          3D

  9  9  0  0  0  0  0  0  0  0999 V2000
   -2.5090   -0.4350   -0.1740 C   0  0  0  0  0  0  0  0  0  0  0  0
   -1.2370   -0.0990   -0.9470 C   0  0  0  0  0  0  0  0  0  0  0  0
   -0.3840    0.7740   -0.1190 C   0  0  0  0  0  0  0  0  0  0  0  0
    0.8670    0.4460    0.2680 C   0  0  0  0  0  0  0  0  0  0  0  0
    1.5210   -0.7730   -0.0690 C   0  0  0  0  0  0  0  0  0  0  0  0
    2.7350   -0.9440    0.3810 C   0  0  0  0  0  0  0  0  0  0  0  0
    3.2030    0.4940    1.3290 S   0  0  0  0  0  0  0  0  0  0  0  0
    1.6480    1.3640    1.0870 C   0  0  0  0  0  0  0  0  0  0  0  0
    1.2660    2.8250    1.6690 S   0  0  0  0  0  0  0  0  0  0  0  0
  1  2  1  0
  2  3  1  0
  3  4  2  3
  4  5  1  0
  4  8  1  0
  5  6  2  0
  6  7  1  0
  7  8  1  0
  8  9  2  0
M  END
