
     RDKit          3D

  9 10  0  0  0  0  0  0  0  0999 V2000
    0.6690   -1.7180   -0.8690 C   0  0  0  0  0  0  0  0  0  0  0  0
    0.0420   -0.7140   -0.3020 C   0  0  0  0  0  0  0  0  0  0  0  0
   -1.4400   -0.6470   -0.0150 C   0  0  0  0  0  0  0  0  0  0  0  0
   -1.9360    0.7360    0.2080 C   0  0  0  0  0  0  0  0  0  0  0  0
   -1.0200    1.7430   -0.2120 O   0  0  0  0  0  0  0  0  0  0  0  0
    0.3370    1.6580    0.1120 C   0  0  0  0  0  0  0  0  0  0  0  0
    0.8440    0.4110    0.0580 C   0  0  0  0  0  0  0  0  0  0  0  0
    2.2800    0.0430    0.3560 C   0  0  0  0  0  0  0  0  0  0  0  0
    2.3930   -1.2600   -0.9550 S   0  0  0  0  0  0  0  0  0  0  0  0
  1  2  2  0
  1  9  1  0
  2  3  1  0
  2  7  1  0
  3  4  1  0
  4  5  1  0
  5  6  1  0
  6  7  2  0
  7  8  1  0
  8  9  1  0
M  END
