
     RDKit          3D

 20 22  0  0  0  0  0  0  0  0999 V2000
    0.3790    1.3500    1.1350 O   0  0  0  0  0  0  0  0  0  0  0  0
    0.7630    0.3970    0.4090 C   0  0  0  0  0  0  0  0  0  0  0  0
   -0.2090   -0.3910   -0.1730 C   0  0  0  0  0  0  0  0  0  0  0  0
   -1.6350   -0.1470    0.0330 C   0  0  0  0  0  0  0  0  0  0  0  0
   -2.0940    0.1170    1.3060 C   0  0  0  0  0  0  0  0  0  0  0  0
   -3.4300    0.3460    1.5020 C   0  0  0  0  0  0  0  0  0  0  0  0
   -4.3220    0.3220    0.4680 C   0  0  0  0  0  0  0  0  0  0  0  0
   -5.6630    0.5550    0.6840 O   0  0  0  0  0  0  0  0  0  0  0  0
   -3.8630    0.0590   -0.8060 C   0  0  0  0  0  0  0  0  0  0  0  0
   -4.7970    0.0400   -1.8410 O   0  0  0  0  0  0  0  0  0  0  0  0
   -2.5250   -0.1770   -1.0410 C   0  0  0  0  0  0  0  0  0  0  0  0
    0.2410   -1.4330   -0.9670 C   0  0  0  0  0  0  0  0  0  0  0  0
    1.5250   -1.6480   -1.1470 O   0  0  0  0  0  0  0  0  0  0  0  0
    2.4690   -0.9250   -0.6150 C   0  0  0  0  0  0  0  0  0  0  0  0
    3.8130   -1.1640   -0.8150 C   0  0  0  0  0  0  0  0  0  0  0  0
    4.7550   -0.3740   -0.2310 C   0  0  0  0  0  0  0  0  0  0  0  0
    6.1280   -0.5620   -0.3940 O   0  0  0  0  0  0  0  0  0  0  0  0
    4.3730    0.6820    0.5720 C   0  0  0  0  0  0  0  0  0  0  0  0
    3.0550    0.9460    0.7910 C   0  0  0  0  0  0  0  0  0  0  0  0
    2.1030    0.1330    0.1900 C   0  0  0  0  0  0  0  0  0  0  0  0
  1  2  2  0
  2  3  1  0
  2 20  1  0
  3  4  1  0
  3 12  2  0
  4  5  2  0
  4 11  1  0
  5  6  1  0
  6  7  2  0
  7  8  1  0
  7  9  1  0
  9 10  1  0
  9 11  2  0
 12 13  1  0
 13 14  1  0
 14 15  2  0
 14 20  1  0
 15 16  1  0
 16 17  1  0
 16 18  2  0
 18 19  1  0
 19 20  2  0
M  END
