
     RDKit          3D

 13 14  0  0  0  0  0  0  0  0999 V2000
   -3.5300    1.5790   -0.2730 N   0  0  0  0  0  0  0  0  0  0  0  0
   -2.4670    0.6570   -0.1440 C   0  0  0  0  0  0  0  0  0  0  0  0
   -1.1810    1.1570   -0.3030 C   0  0  0  0  0  0  0  0  0  0  0  0
   -0.1180    0.2820   -0.1830 C   0  0  0  0  0  0  0  0  0  0  0  0
    1.1520    0.8150   -0.3480 C   0  0  0  0  0  0  0  0  0  0  0  0
    2.2060   -0.0680   -0.2260 C   0  0  0  0  0  0  0  0  0  0  0  0
    3.5220    0.4850   -0.3970 N   0  0  0  0  0  0  0  0  0  0  0  0
    2.0220   -1.3750    0.0390 N   0  0  0  0  0  0  0  0  0  0  0  0
    0.7870   -1.8960    0.1990 C   0  0  0  0  0  0  0  0  0  0  0  0
    0.6020   -3.1120    0.4460 O   0  0  0  0  0  0  0  0  0  0  0  0
   -0.3120   -1.0550    0.0880 C   0  0  0  0  0  0  0  0  0  0  0  0
   -1.6080   -1.5020    0.2370 C   0  0  0  0  0  0  0  0  0  0  0  0
   -2.6470   -0.6440    0.1190 N   0  0  0  0  0  0  0  0  0  0  0  0
  1  2  1  0
  2  3  2  0
  2 13  1  0
  3  4  1  0
  4  5  1  0
  4 11  2  0
  5  6  2  0
  6  7  1  0
  6  8  1  0
  8  9  1  0
  9 10  2  0
  9 11  1  0
 11 12  1  0
 12 13  2  0
M  END
