
     RDKit          3D

 29 31  0  0  0  0  0  0  0  0999 V2000
   -4.6680    1.9750    2.9910 N   0  0  0  0  0  0  0  0  0  0  0  0
   -3.8800    0.9080    2.4900 C   0  0  0  0  0  0  0  0  0  0  0  0
   -2.9370    0.4430    3.2140 O   0  0  0  0  0  0  0  0  0  0  0  0
   -4.1040    0.3060    1.1530 C   0  0  2  0  0  0  0  0  0  0  0  0
   -3.8100    1.5260   -0.1810 S   0  0  0  0  0  0  0  0  0  0  0  0
   -2.0270    1.9190   -0.1120 C   0  0  0  0  0  0  0  0  0  0  0  0
   -1.3250    0.7030   -0.4360 N   0  0  0  0  0  0  0  0  0  0  0  0
    0.1210    0.7380   -0.4270 C   0  0  0  0  0  0  0  0  0  0  0  0
    0.6850    1.8070   -0.1450 O   0  0  0  0  0  0  0  0  0  0  0  0
    0.8770   -0.4160   -0.7290 N   0  0  0  0  0  0  0  0  0  0  0  0
    2.2810   -0.5170   -0.7510 C   0  0  0  0  0  0  0  0  0  0  0  0
    2.8330   -1.8070   -0.8560 C   0  0  0  0  0  0  0  0  0  0  0  0
    4.2010   -2.0180   -0.8870 C   0  0  0  0  0  0  0  0  0  0  0  0
    5.0540   -0.9370   -0.8140 C   0  0  0  0  0  0  0  0  0  0  0  0
    4.5180    0.3410   -0.7110 C   0  0  0  0  0  0  0  0  0  0  0  0
    3.1660    0.5290   -0.6820 C   0  0  0  0  0  0  0  0  0  0  0  0
    5.3160    1.5910   -0.6250 C   0  0  0  0  0  0  0  0  0  0  0  0
    6.3620    1.5230   -1.7140 C   0  0  0  0  0  0  0  0  0  0  0  0
    7.6590    0.9280   -1.2470 C   0  0  0  0  0  0  0  0  0  0  0  0
    7.5430   -0.4940   -0.8950 C   0  0  0  0  0  0  0  0  0  0  0  0
    8.6530   -1.0190   -0.5700 O   0  0  0  0  0  0  0  0  0  0  0  0
    6.4180   -1.3730   -0.8570 N   0  0  0  0  0  0  0  0  0  0  0  0
   -5.4350   -0.3050    1.0070 C   0  0  0  0  0  0  0  0  0  0  0  0
   -6.5790    0.3650    1.3750 C   0  0  0  0  0  0  0  0  0  0  0  0
   -7.7860   -0.3220    1.2030 C   0  0  0  0  0  0  0  0  0  0  0  0
   -7.8320   -1.5350    0.7190 O   0  0  0  0  0  0  0  0  0  0  0  0
   -6.7730   -2.2100    0.3560 C   0  0  0  0  0  0  0  0  0  0  0  0
   -6.8260   -3.3950   -0.1150 N   0  0  0  0  0  0  0  0  0  0  0  0
   -5.5530   -1.5960    0.4980 C   0  0  0  0  0  0  0  0  0  0  0  0
  1  2  1  0
  2  3  2  0
  2  4  1  0
  4  5  1  6
  4 23  1  0
  5  6  1  0
  6  7  1  0
  7  8  1  0
  8  9  2  0
  8 10  1  0
 10 11  1  0
 11 12  2  0
 11 16  1  0
 12 13  1  0
 13 14  2  0
 14 15  1  0
 14 22  1  0
 15 16  2  0
 15 17  1  0
 17 18  1  0
 18 19  1  0
 19 20  1  0
 20 21  2  0
 20 22  1  0
 23 24  1  0
 23 29  2  0
 24 25  2  0
 25 26  1  0
 26 27  1  0
 27 28  2  0
 27 29  1  0
M  CHG  1  28   1
M  END
