
     RDKit          3D

 30 33  0  0  0  0  0  0  0  0999 V2000
    5.8590    2.5450    1.9080 C   0  0  0  0  0  0  0  0  0  0  0  0
    4.8290    1.8230    1.2360 O   0  0  0  0  0  0  0  0  0  0  0  0
    3.7030    2.4120    0.7450 C   0  0  0  0  0  0  0  0  0  0  0  0
    3.6630    3.6980    0.9400 O   0  0  0  0  0  0  0  0  0  0  0  0
    2.5910    1.8070    0.0690 C   0  0  0  0  0  0  0  0  0  0  0  0
    2.3440    0.6030   -0.2950 C   0  0  0  0  0  0  0  0  0  0  0  0
    3.1730   -0.5900   -0.1390 C   0  0  0  0  0  0  0  0  0  0  0  0
    4.5730   -0.8070   -0.4190 C   0  0  0  0  0  0  0  0  0  0  0  0
    5.1470   -1.9030   -0.1710 O   0  0  0  0  0  0  0  0  0  0  0  0
    5.3440    0.1900   -0.9890 O   0  0  0  0  0  0  0  0  0  0  0  0
    2.3880   -1.6120    0.2600 C   0  0  0  0  0  0  0  0  0  0  0  0
    2.0970   -2.9140    0.6360 O   0  0  0  0  0  0  0  0  0  0  0  0
    0.6850   -3.1140    0.5720 C   0  0  0  0  0  0  0  0  0  0  0  0
   -0.0670   -4.3670    0.8650 C   0  0  0  0  0  0  0  0  0  0  0  0
    0.1790   -4.7510    2.1990 O   0  0  0  0  0  0  0  0  0  0  0  0
    0.0660   -2.0180    0.2060 C   0  0  0  0  0  0  0  0  0  0  0  0
   -1.2630   -1.4760   -0.0820 C   0  0  0  0  0  0  0  0  0  0  0  0
   -2.2310   -2.2140    0.1330 O   0  0  0  0  0  0  0  0  0  0  0  0
   -1.3280   -0.1290   -0.5940 N   0  0  0  0  0  0  0  0  0  0  0  0
   -2.6210    0.3770   -0.8380 C   0  0  0  0  0  0  0  0  0  0  0  0
   -3.0910    0.5420   -2.1130 C   0  0  0  0  0  0  0  0  0  0  0  0
   -4.3870    1.0540   -2.2730 C   0  0  0  0  0  0  0  0  0  0  0  0
   -5.1220    1.3660   -1.1520 C   0  0  0  0  0  0  0  0  0  0  0  0
   -6.4370    1.8890   -1.3420 N   0  0  0  0  0  0  0  0  0  0  0  0
   -4.6270    1.1920    0.1300 C   0  0  0  0  0  0  0  0  0  0  0  0
   -3.3680    0.6950    0.2960 C   0  0  0  0  0  0  0  0  0  0  0  0
   -0.1470    0.6540   -0.8170 C   0  0  0  0  0  0  0  0  0  0  0  0
   -0.2970    1.9000   -0.9740 O   0  0  0  0  0  0  0  0  0  0  0  0
    1.0950   -0.0610   -0.8420 C   0  0  2  0  0  0  0  0  0  0  0  0
    1.0600   -0.9760    0.3620 C   0  0  2  0  0  0  0  0  0  0  0  0
  1  2  1  0
  2  3  1  0
  3  4  2  0
  3  5  1  0
  5  6  2  3
  6  7  1  0
 29  6  1  1
  7  8  1  0
  7 11  2  0
  8  9  2  0
  8 10  1  0
 11 12  1  0
 30 11  1  6
 12 13  1  0
 13 14  1  0
 13 16  2  0
 14 15  1  0
 16 17  1  0
 16 30  1  0
 17 18  2  0
 17 19  1  0
 19 20  1  0
 19 27  1  0
 20 21  2  0
 20 26  1  0
 21 22  1  0
 22 23  2  0
 23 24  1  0
 23 25  1  0
 25 26  2  0
 27 28  2  0
 27 29  1  0
 29 30  1  0
M  CHG  2  10  -1  24   1
M  END
