
     RDKit          3D

 30 33  0  0  0  0  0  0  0  0999 V2000
   -5.4540    3.8630   -1.1600 C   0  0  0  0  0  0  0  0  0  0  0  0
   -4.1910    3.3540   -0.7700 O   0  0  0  0  0  0  0  0  0  0  0  0
   -4.0580    2.0210   -0.3210 C   0  0  0  0  0  0  0  0  0  0  0  0
   -5.0990    1.3710   -0.3010 O   0  0  0  0  0  0  0  0  0  0  0  0
   -2.7830    1.5500    0.0600 C   0  0  0  0  0  0  0  0  0  0  0  0
   -2.3330    0.4390    0.5280 C   0  0  0  0  0  0  0  0  0  0  0  0
   -3.0810   -0.7810    0.8480 C   0  0  0  0  0  0  0  0  0  0  0  0
   -4.3280   -0.9510    1.5660 C   0  0  0  0  0  0  0  0  0  0  0  0
   -5.0020   -0.0500    2.1070 O   0  0  0  0  0  0  0  0  0  0  0  0
   -4.8910   -2.2390    1.7040 O   0  0  0  0  0  0  0  0  0  0  0  0
   -2.3640   -1.8410    0.4420 C   0  0  0  0  0  0  0  0  0  0  0  0
   -2.1130   -3.1940    0.2620 O   0  0  0  0  0  0  0  0  0  0  0  0
   -0.7190   -3.3680   -0.0000 C   0  0  0  0  0  0  0  0  0  0  0  0
    0.0070   -4.6440   -0.2290 C   0  0  0  0  0  0  0  0  0  0  0  0
   -0.5660   -5.2600   -1.3650 O   0  0  0  0  0  0  0  0  0  0  0  0
   -0.0920   -2.2190   -0.0220 C   0  0  0  0  0  0  0  0  0  0  0  0
    1.2240   -1.6100   -0.1870 C   0  0  0  0  0  0  0  0  0  0  0  0
    2.1840   -2.3920   -0.4390 O   0  0  0  0  0  0  0  0  0  0  0  0
    1.3500   -0.1920   -0.0580 N   0  0  0  0  0  0  0  0  0  0  0  0
    2.6200    0.4000   -0.2170 C   0  0  0  0  0  0  0  0  0  0  0  0
    3.0830    1.4010    0.6330 C   0  0  0  0  0  0  0  0  0  0  0  0
    4.3280    1.9320    0.4220 C   0  0  0  0  0  0  0  0  0  0  0  0
    5.1130    1.4830   -0.6190 C   0  0  0  0  0  0  0  0  0  0  0  0
    6.3960    2.0270   -0.8420 N   0  0  0  0  0  0  0  0  0  0  0  0
    4.6730    0.4820   -1.4860 C   0  0  0  0  0  0  0  0  0  0  0  0
    3.4200   -0.0310   -1.2480 C   0  0  0  0  0  0  0  0  0  0  0  0
    0.1890    0.6330    0.2340 C   0  0  0  0  0  0  0  0  0  0  0  0
    0.3190    1.8490   -0.0310 O   0  0  0  0  0  0  0  0  0  0  0  0
   -0.9370   -0.0710    0.7850 C   0  0  2  0  0  0  0  0  0  0  0  0
   -1.1650   -1.2370   -0.1510 C   0  0  2  0  0  0  0  0  0  0  0  0
  1  2  1  0
  2  3  1  0
  3  4  2  0
  3  5  1  0
  5  6  2  3
  6  7  1  0
 29  6  1  6
  7  8  1  0
  7 11  2  0
  8  9  2  0
  8 10  1  0
 11 12  1  0
 30 11  1  1
 12 13  1  0
 13 14  1  0
 13 16  2  0
 14 15  1  0
 16 17  1  0
 16 30  1  0
 17 18  2  0
 17 19  1  0
 19 20  1  0
 19 27  1  0
 20 21  2  0
 20 26  1  0
 21 22  1  0
 22 23  2  0
 23 24  1  0
 23 25  1  0
 25 26  2  0
 27 28  2  0
 27 29  1  0
 29 30  1  0
M  CHG  2  10  -1  24   1
M  END
