
     RDKit          3D

 29 31  0  0  0  0  0  0  0  0999 V2000
   -3.2530    1.9140   -2.7050 C   0  0  0  0  0  0  0  0  0  0  0  0
   -2.3870    2.6040   -1.6430 C   0  0  0  0  0  0  0  0  0  0  0  0
   -2.4610    1.6410   -0.4880 C   0  0  0  0  0  0  0  0  0  0  0  0
   -1.6710    0.6420   -0.3540 N   0  0  0  0  0  0  0  0  0  0  0  0
   -1.6470   -0.2620    0.3580 C   0  0  0  0  0  0  0  0  0  0  0  0
   -0.9460   -1.4470    0.7920 C   0  0  0  0  0  0  0  0  0  0  0  0
    0.3770   -1.5040    0.8860 C   0  0  0  0  0  0  0  0  0  0  0  0
    1.2380   -0.3960    0.5390 C   0  0  0  0  0  0  0  0  0  0  0  0
    0.6320    0.6930    0.0900 O   0  0  0  0  0  0  0  0  0  0  0  0
    2.6130   -0.2470    0.5920 N   0  0  0  0  0  0  0  0  0  0  0  0
    3.3520    0.8070   -0.0340 C   0  0  0  0  0  0  0  0  0  0  0  0
    4.6060    1.1580    0.3720 C   0  0  0  0  0  0  0  0  0  0  0  0
    5.4380    2.0310   -0.3020 C   0  0  0  0  0  0  0  0  0  0  0  0
    6.7840    2.3720    0.1970 C   0  0  0  0  0  0  0  0  0  0  0  0
    4.9660    2.5830   -1.4740 C   0  0  0  0  0  0  0  0  0  0  0  0
    3.6960    2.2340   -1.8790 C   0  0  0  0  0  0  0  0  0  0  0  0
    2.9010    1.3840   -1.2070 N   0  0  0  0  0  0  0  0  0  0  0  0
    1.0300   -2.6830    1.3450 O   0  0  0  0  0  0  0  0  0  0  0  0
    0.3700   -3.9250    1.3350 C   0  0  2  0  0  0  0  0  0  0  0  0
    1.1960   -5.0620    0.8870 C   0  0  0  0  0  0  0  0  0  0  0  0
    0.6510   -6.2090    0.2650 N   0  0  0  0  0  0  0  0  0  0  0  0
    2.4430   -5.0100    1.0520 O   0  0  0  0  0  0  0  0  0  0  0  0
   -0.8830   -3.8690    0.5200 C   0  0  0  0  0  0  0  0  0  0  0  0
   -1.7230   -2.7070    1.0610 C   0  0  1  0  0  0  0  0  0  0  0  0
   -2.0310   -2.8990    2.3650 O   0  0  0  0  0  0  0  0  0  0  0  0
   -3.2610    0.2030    1.3470 S   0  0  0  0  0  0  0  0  0  0  0  0
   -3.5120    1.6990    0.3750 C   0  0  0  0  0  0  0  0  0  0  0  0
   -4.3910    2.8030    0.7000 C   0  0  0  0  0  0  0  0  0  0  0  0
   -5.7240    2.7200    0.2190 N   0  0  0  0  0  0  0  0  0  0  0  0
  1  2  1  0
  2  3  1  0
  3  4  1  0
  3 27  2  0
  4  5  2  0
  5  6  1  0
  5 26  1  0
  6  7  2  0
  6 24  1  0
  7  8  1  0
  7 18  1  0
  8  9  2  0
  8 10  1  0
 10 11  1  0
 11 12  2  0
 11 17  1  0
 12 13  1  0
 13 14  1  0
 13 15  2  0
 15 16  1  0
 16 17  2  0
 18 19  1  0
 19 20  1  6
 19 23  1  0
 20 21  1  0
 20 22  2  0
 23 24  1  0
 24 25  1  1
 26 27  1  0
 27 28  1  0
 28 29  1  0
M  CHG  1  29   1
M  END
