
     RDKit          3D

 29 31  0  0  0  0  0  0  0  0999 V2000
   -4.3290    0.0600    2.9450 C   0  0  0  0  0  0  0  0  0  0  0  0
   -5.0640    0.1870    1.6370 C   0  0  0  0  0  0  0  0  0  0  0  0
   -6.4340    0.0080    1.6250 C   0  0  0  0  0  0  0  0  0  0  0  0
   -7.1210   -0.0490    0.3960 C   0  0  0  0  0  0  0  0  0  0  0  0
   -6.4760    0.0650   -0.8110 C   0  0  0  0  0  0  0  0  0  0  0  0
   -7.3070   -0.0500   -2.3560 S   0  0  2  0  0  0  0  0  0  0  0  0
   -8.5880    0.6930   -2.4050 O   0  0  0  0  0  0  0  0  0  0  0  0
   -7.6130   -1.5010   -2.6400 O   0  0  0  0  0  0  0  0  0  0  0  0
   -5.0850    0.2490   -0.7660 C   0  0  0  0  0  0  0  0  0  0  0  0
   -4.4000    0.3100    0.4300 C   0  0  0  0  0  0  0  0  0  0  0  0
   -2.9670    0.7080    0.5150 C   0  0  2  0  0  0  0  0  0  0  0  0
   -2.8180    1.7420   -0.4780 O   0  0  0  0  0  0  0  0  0  0  0  0
   -2.0130   -0.3680    0.0300 C   0  0  0  0  0  0  0  0  0  0  0  0
   -0.6680    0.0700    0.0920 N   0  0  0  0  0  0  0  0  0  0  0  0
    0.1400    0.8550   -0.7130 C   0  0  0  0  0  0  0  0  0  0  0  0
    1.4510    0.5380   -0.8490 C   0  0  0  0  0  0  0  0  0  0  0  0
    1.9570   -0.6260   -0.1520 C   0  0  0  0  0  0  0  0  0  0  0  0
    1.1030   -1.4110    0.4600 O   0  0  0  0  0  0  0  0  0  0  0  0
    3.3130   -1.0000   -0.0610 N   0  0  0  0  0  0  0  0  0  0  0  0
    3.5250   -2.4510   -0.0380 C   0  0  0  0  0  0  0  0  0  0  0  0
    4.8900   -2.9200   -0.2450 C   0  0  0  0  0  0  0  0  0  0  0  0
    5.9230   -1.9420   -0.2170 N   0  0  0  0  0  0  0  0  0  0  0  0
    5.6920   -0.5700   -0.0890 C   0  0  0  0  0  0  0  0  0  0  0  0
    6.6830    0.3080    0.0370 N   0  0  0  0  0  0  0  0  0  0  0  0
    6.4750    1.6140    0.2300 C   0  0  0  0  0  0  0  0  0  0  0  0
    7.5930    2.4400    0.4080 N   0  0  0  0  0  0  0  0  0  0  0  0
    5.2030    2.1370    0.3080 C   0  0  0  0  0  0  0  0  0  0  0  0
    4.1530    1.2570    0.1830 C   0  0  0  0  0  0  0  0  0  0  0  0
    4.3720   -0.1030   -0.0150 C   0  0  0  0  0  0  0  0  0  0  0  0
  1  2  1  0
  2  3  2  0
  2 10  1  0
  3  4  1  0
  4  5  2  0
  6  5  1  1
  5  9  1  0
  6  7  2  0
  6  8  2  0
  9 10  2  0
 10 11  1  0
 11 12  1  6
 11 13  1  0
 13 14  1  0
 14 15  1  0
 15 16  2  3
 16 17  1  0
 17 18  2  0
 17 19  1  0
 19 20  1  0
 19 29  1  0
 20 21  1  0
 21 22  1  0
 22 23  1  0
 23 24  2  0
 23 29  1  0
 24 25  1  0
 25 26  1  0
 25 27  2  0
 27 28  1  0
 28 29  2  0
M  CHG  1  24   1
M  END
