
     RDKit          3D

 29 31  0  0  0  0  0  0  0  0999 V2000
   -6.0890   -2.6260    0.9590 C   0  0  0  0  0  0  0  0  0  0  0  0
   -5.7820   -1.1830    0.6130 C   0  0  2  0  0  0  0  0  0  0  0  0
   -6.8200   -0.2810    1.1760 C   0  0  0  0  0  0  0  0  0  0  0  0
   -8.1910   -0.4740    0.7840 N   0  0  0  0  0  0  0  0  0  0  0  0
   -6.6190    0.6500    1.9720 O   0  0  0  0  0  0  0  0  0  0  0  0
   -5.8030   -0.9830   -0.9000 C   0  0  0  0  0  0  0  0  0  0  0  0
   -4.9060    0.6260   -0.9360 S   0  0  0  0  0  0  0  0  0  0  0  0
   -4.0680    0.4240    0.6900 C   0  0  2  0  0  0  0  0  0  0  0  0
   -2.6140    0.5400    0.3960 C   0  0  0  0  0  0  0  0  0  0  0  0
   -1.9320   -0.4950    0.4940 O   0  0  0  0  0  0  0  0  0  0  0  0
   -1.9880    1.7420    0.0200 N   0  0  0  0  0  0  0  0  0  0  0  0
   -0.6230    1.9510   -0.2780 C   0  0  0  0  0  0  0  0  0  0  0  0
   -0.2500    3.2470   -0.6340 C   0  0  0  0  0  0  0  0  0  0  0  0
    1.0490    3.5720   -0.9450 C   0  0  0  0  0  0  0  0  0  0  0  0
    2.0500    2.5870   -0.9100 C   0  0  0  0  0  0  0  0  0  0  0  0
    1.7200    1.3080   -0.5660 C   0  0  0  0  0  0  0  0  0  0  0  0
    2.6420    0.2510   -0.4780 N   0  0  0  0  0  0  0  0  0  0  0  0
    4.0530    0.3460   -0.4340 C   0  0  0  0  0  0  0  0  0  0  0  0
    4.5660    1.4650   -0.4700 O   0  0  0  0  0  0  0  0  0  0  0  0
    4.8740   -0.8280   -0.3500 N   0  0  0  0  0  0  0  0  0  0  0  0
    6.2880   -0.8400   -0.3010 C   0  0  0  0  0  0  0  0  0  0  0  0
    7.0660    0.2920   -0.3280 C   0  0  0  0  0  0  0  0  0  0  0  0
    8.4270    0.2320   -0.2790 C   0  0  0  0  0  0  0  0  0  0  0  0
    9.0390   -0.9970   -0.1990 C   0  0  0  0  0  0  0  0  0  0  0  0
    8.2830   -2.1430   -0.1700 C   0  0  0  0  0  0  0  0  0  0  0  0
    6.8850   -2.0940   -0.2210 C   0  0  0  0  0  0  0  0  0  0  0  0
    6.1790   -3.2620   -0.1890 O   0  0  0  0  0  0  0  0  0  0  0  0
    0.3690    1.0280   -0.2560 C   0  0  0  0  0  0  0  0  0  0  0  0
   -4.4580   -0.8970    1.0490 N   0  0  0  0  0  0  0  0  0  0  0  0
  2  1  1  6
  2  3  1  0
  2  6  1  0
  2 29  1  0
  3  4  1  0
  3  5  2  0
  6  7  1  0
  7  8  1  0
  8  9  1  6
  8 29  1  0
  9 10  2  0
  9 11  1  0
 11 12  1  0
 12 13  2  0
 12 28  1  0
 13 14  1  0
 14 15  2  0
 15 16  1  0
 16 17  1  0
 16 28  2  0
 17 18  1  0
 18 19  2  0
 18 20  1  0
 20 21  1  0
 21 22  2  0
 21 26  1  0
 22 23  1  0
 23 24  2  0
 24 25  1  0
 25 26  2  0
 26 27  1  0
M  CHG  1  29   1
M  END
