
     RDKit          3D

 29 31  0  0  0  0  0  0  0  0999 V2000
    8.5740   -0.8180   -1.2330 C   0  0  0  0  0  0  0  0  0  0  0  0
    7.6760    0.1620   -0.5400 C   0  0  2  0  0  0  0  0  0  0  0  0
    8.4300    1.3070    0.1070 C   0  0  0  0  0  0  0  0  0  0  0  0
    9.1490    2.0330   -0.8350 O   0  0  0  0  0  0  0  0  0  0  0  0
    6.7030   -0.4410    0.3890 C   0  0  0  0  0  0  0  0  0  0  0  0
    7.0830   -1.0220    1.5760 C   0  0  0  0  0  0  0  0  0  0  0  0
    6.1140   -1.5720    2.4350 C   0  0  0  0  0  0  0  0  0  0  0  0
    4.7580   -1.5290    2.0760 C   0  0  0  0  0  0  0  0  0  0  0  0
    4.4350   -0.9430    0.8920 C   0  0  0  0  0  0  0  0  0  0  0  0
    3.0580   -0.7870    0.4180 C   0  0  0  0  0  0  0  0  0  0  0  0
    2.6700   -0.2450   -0.8400 C   0  0  0  0  0  0  0  0  0  0  0  0
    1.3480   -0.1860   -1.0490 C   0  0  0  0  0  0  0  0  0  0  0  0
    0.4860   -0.6140   -0.1280 C   0  0  0  0  0  0  0  0  0  0  0  0
   -0.9840   -0.6100   -0.1350 C   0  0  0  0  0  0  0  0  0  0  0  0
   -1.5540   -1.0640    0.8820 O   0  0  0  0  0  0  0  0  0  0  0  0
   -1.7020   -0.1190   -1.2160 N   0  0  0  0  0  0  0  0  0  0  0  0
   -3.0630    0.0030   -1.4170 N   0  0  0  0  0  0  0  0  0  0  0  0
   -4.1280   -0.1430   -0.5220 C   0  0  0  0  0  0  0  0  0  0  0  0
   -3.8890   -0.4770    0.6490 O   0  0  0  0  0  0  0  0  0  0  0  0
   -5.4880    0.0920   -0.9350 N   0  0  0  0  0  0  0  0  0  0  0  0
   -6.6000   -0.0490   -0.0440 C   0  0  1  0  0  0  0  0  0  0  0  0
   -6.7960   -1.4370    0.4670 C   0  0  0  0  0  0  0  0  0  0  0  0
   -7.8600   -1.5900    1.3200 O   0  0  0  0  0  0  0  0  0  0  0  0
   -6.4210    0.9540    1.1040 C   0  0  0  0  0  0  0  0  0  0  0  0
   -6.6170    2.2630    0.3480 C   0  0  0  0  0  0  0  0  0  0  0  0
   -7.5910    1.9970   -0.6770 N   0  0  0  0  0  0  0  0  0  0  0  0
   -7.8430    0.5590   -0.6830 C   0  0  0  0  0  0  0  0  0  0  0  0
    1.5470   -1.1550    1.1600 S   0  0  0  0  0  0  0  0  0  0  0  0
    5.4010   -0.4400    0.1280 N   0  0  0  0  0  0  0  0  0  0  0  0
  2  1  1  1
  2  3  1  0
  2  5  1  0
  3  4  1  0
  5  6  2  0
  5 29  1  0
  6  7  1  0
  7  8  2  0
  8  9  1  0
  9 10  1  0
  9 29  2  0
 10 11  2  0
 10 28  1  0
 11 12  1  0
 12 13  2  0
 13 14  1  0
 13 28  1  0
 14 15  2  0
 14 16  1  0
 16 17  1  0
 17 18  1  0
 18 19  2  0
 18 20  1  0
 20 21  1  0
 21 22  1  1
 21 24  1  0
 21 27  1  0
 22 23  1  0
 24 25  1  0
 25 26  1  0
 26 27  1  0
M  CHG  1  26   1
M  END
