
     RDKit          3D

 25 25  0  0  0  0  0  0  0  0999 V2000
    5.7430   -0.9140    2.9490 C   0  0  0  0  0  0  0  0  0  0  0  0
    4.5230   -0.4450    2.4320 O   0  0  0  0  0  0  0  0  0  0  0  0
    4.2320   -0.3310    1.0880 C   0  0  0  0  0  0  0  0  0  0  0  0
    5.1040   -0.6650    0.2550 O   0  0  0  0  0  0  0  0  0  0  0  0
    2.9490    0.1630    0.6160 C   0  0  0  0  0  0  0  0  0  0  0  0
    2.0520    0.5060    1.4660 O   0  0  0  0  0  0  0  0  0  0  0  0
    2.7030    0.2590   -0.8080 C   0  0  0  0  0  0  0  0  0  0  0  0
    3.5960   -0.0830   -1.6100 O   0  0  0  0  0  0  0  0  0  0  0  0
    1.4010    0.7600   -1.2950 C   0  0  1  0  0  0  0  0  0  0  0  0
    1.4120    0.7580   -2.7060 O   0  0  0  0  0  0  0  0  0  0  0  0
    1.2260    1.8700   -3.4850 C   0  0  0  0  0  0  0  0  0  0  0  0
    1.0310    2.9760   -2.9320 O   0  0  0  0  0  0  0  0  0  0  0  0
    1.2410    1.8470   -4.8790 O   0  0  0  0  0  0  0  0  0  0  0  0
    0.3540   -0.0870   -0.8450 O   0  0  0  0  0  0  0  0  0  0  0  0
   -0.6880    0.4710   -0.1300 C   0  0  0  0  0  0  0  0  0  0  0  0
   -0.6660    1.7140    0.0930 O   0  0  0  0  0  0  0  0  0  0  0  0
   -1.7920   -0.3550    0.3580 C   0  0  1  0  0  0  0  0  0  0  0  0
   -2.7840    0.5040    1.1010 C   0  0  0  0  0  0  0  0  0  0  0  0
   -3.4210   -0.3390    2.0330 O   0  0  0  0  0  0  0  0  0  0  0  0
   -3.9560   -1.7430    1.2010 P   0  0  0  0  0  0  0  0  0  0  0  0
   -5.6780   -2.0270    1.4720 O   0  0  0  0  0  0  0  0  0  0  0  0
   -6.5780   -1.1860    0.8250 C   0  0  0  0  0  0  0  0  0  0  0  0
   -6.1440   -0.2640    0.0790 O   0  0  0  0  0  0  0  0  0  0  0  0
   -3.5620   -1.7660   -0.4570 O   0  0  0  0  0  0  0  0  0  0  0  0
   -2.5210   -0.9600   -0.8240 C   0  0  0  0  0  0  0  0  0  0  0  0
  1  2  1  0
  2  3  1  0
  3  4  2  0
  3  5  1  0
  5  6  2  0
  5  7  1  0
  7  8  2  0
  7  9  1  0
  9 10  1  6
  9 14  1  0
 10 11  1  0
 11 12  2  0
 11 13  1  0
 14 15  1  0
 15 16  2  0
 17 15  1  6
 17 18  1  0
 17 25  1  0
 18 19  1  0
 19 20  1  0
 20 21  1  0
 20 24  1  0
 21 22  1  0
 22 23  2  0
 24 25  1  0
M  END
