
     RDKit          3D

 24 24  0  0  0  0  0  0  0  0999 V2000
   -5.4890    1.8270   -0.6610 C   0  0  0  0  0  0  0  0  0  0  0  0
   -4.5850    0.9600   -1.0320 C   0  0  0  0  0  0  0  0  0  0  0  0
   -3.6120    0.3240   -0.0870 C   0  0  1  0  0  0  0  0  0  0  0  0
   -3.6060    1.1420    1.2000 C   0  0  0  0  0  0  0  0  0  0  0  0
   -3.2010    2.5600    0.9830 C   0  0  0  0  0  0  0  0  0  0  0  0
   -4.1160   -1.0340    0.2420 C   0  0  0  0  0  0  0  0  0  0  0  0
   -3.0810   -2.0850    0.2290 C   0  0  0  0  0  0  0  0  0  0  0  0
   -1.8060   -1.9090    0.0460 C   0  0  0  0  0  0  0  0  0  0  0  0
   -0.8520   -2.9920    0.0480 N   0  0  0  0  0  0  0  0  0  0  0  0
   -0.6350   -3.5530   -1.0930 C   0  0  0  0  0  0  0  0  0  0  0  0
   -1.3230   -0.5770   -0.1670 N   0  0  0  0  0  0  0  0  0  0  0  0
    0.0040   -0.2170    0.1550 C   0  0  0  0  0  0  0  0  0  0  0  0
    1.2250   -1.3270    0.1760 P   0  0  0  0  0  0  0  0  0  0  0  0
    2.9430   -0.9460    0.5770 C   0  0  0  0  0  0  0  0  0  0  0  0
    3.9160   -1.7660    0.2530 C   0  0  0  0  0  0  0  0  0  0  0  0
    3.2390    0.2290    1.2360 O   0  0  0  0  0  0  0  0  0  0  0  0
    3.8310    1.2060    0.5390 O   0  0  0  0  0  0  0  0  0  0  0  0
    4.7030    0.6560   -0.2570 O   0  0  0  0  0  0  0  0  0  0  0  0
    5.9330    1.0790    0.0890 N   0  0  0  0  0  0  0  0  0  0  0  0
    6.9070    0.2150   -0.2720 O   0  0  0  0  0  0  0  0  0  0  0  0
    7.8320    0.8120   -1.1110 C   0  0  0  0  0  0  0  0  0  0  0  0
    6.0340    1.3480    1.4190 O   0  0  0  0  0  0  0  0  0  0  0  0
    6.2090    0.2370    2.1190 F   0  0  0  0  0  0  0  0  0  0  0  0
   -2.2680    0.3650   -0.7280 C   0  0  0  0  0  0  0  0  0  0  0  0
  1  2  2  0
  2  3  1  0
  3  4  1  1
  3  6  1  0
  3 24  1  0
  4  5  1  0
  6  7  1  0
  7  8  2  0
  8  9  1  0
  8 11  1  0
  9 10  2  0
 11 12  1  0
 11 24  1  0
 12 13  2  3
 13 14  1  0
 14 15  2  0
 14 16  1  0
 16 17  1  0
 17 18  1  0
 18 19  1  0
 19 20  1  0
 19 22  1  0
 20 21  1  0
 22 23  1  0
M  END
