
     RDKit          3D

 14 13  0  0  0  0  0  0  0  0999 V2000
   -4.0900    0.8360    0.5450 C   0  0  0  0  0  0  0  0  0  0  0  0
   -2.9960    0.2540    0.1080 C   0  0  0  0  0  0  0  0  0  0  0  0
   -2.8640   -1.2160    0.1960 C   0  0  0  0  0  0  0  0  0  0  0  0
   -1.9120    1.0580   -0.4650 C   0  0  0  0  0  0  0  0  0  0  0  0
   -0.6110    0.9090    0.2930 C   0  0  0  0  0  0  0  0  0  0  0  0
   -0.1930   -0.4220    0.2810 O   0  0  0  0  0  0  0  0  0  0  0  0
    1.2580   -0.5990    1.1230 P   0  0  1  0  0  0  0  0  0  0  0  0
    1.0070   -0.5150    2.6040 O   0  0  0  0  0  0  0  0  0  0  0  0
    1.9450   -2.1060    0.7650 O   0  0  0  0  0  0  0  0  0  0  0  0
    2.2860    0.6630    0.6380 O   0  0  0  0  0  0  0  0  0  0  0  0
    3.7670    0.0820    0.1070 P   0  0  2  0  0  0  0  0  0  0  0  0
    3.6210   -0.5990   -1.2450 O   0  0  0  0  0  0  0  0  0  0  0  0
    4.3600   -1.0400    1.2260 O   0  0  0  0  0  0  0  0  0  0  0  0
    4.8740    1.3520    0.0300 O   0  0  0  0  0  0  0  0  0  0  0  0
  1  2  2  0
  2  3  1  0
  2  4  1  0
  4  5  1  0
  5  6  1  0
  6  7  1  0
  7  8  2  0
  7  9  1  1
  7 10  1  0
 10 11  1  0
 11 12  2  0
 11 13  1  1
 11 14  1  0
M  END
