
     RDKit          3D

 13 13  0  0  0  0  0  0  0  0999 V2000
   -0.0030   -1.3120    1.5760 O   0  0  0  0  0  0  0  0  0  0  0  0
    0.6510   -0.7900    0.6040 C   0  0  0  0  0  0  0  0  0  0  0  0
    2.1130   -0.8860    0.5200 C   0  0  0  0  0  0  0  0  0  0  0  0
    2.8310    0.3740    0.9600 C   0  0  0  0  0  0  0  0  0  0  0  0
    4.2830    0.1200    0.8370 C   0  0  0  0  0  0  0  0  0  0  0  0
    5.0330    0.8190    0.0270 C   0  0  0  0  0  0  0  0  0  0  0  0
    4.3840    2.1050   -0.9740 Cl  0  0  0  0  0  0  0  0  0  0  0  0
   -0.1770   -0.1540   -0.3100 O   0  0  0  0  0  0  0  0  0  0  0  0
   -1.5530   -0.0790   -0.2140 C   0  0  1  0  0  0  0  0  0  0  0  0
   -2.1220    1.3050   -0.0290 C   0  0  0  0  0  0  0  0  0  0  0  0
   -3.6010    0.8930    0.1080 C   0  0  0  0  0  0  0  0  0  0  0  0
   -3.7340    0.0290   -1.1340 C   0  0  0  0  0  0  0  0  0  0  0  0
   -2.3460   -0.5890   -1.3620 C   0  0  0  0  0  0  0  0  0  0  0  0
  1  2  2  0
  2  3  1  0
  2  8  1  0
  3  4  1  0
  4  5  1  0
  5  6  2  3
  6  7  1  0
  9  8  1  6
  9 10  1  0
  9 13  1  0
 10 11  1  0
 11 12  1  0
 12 13  1  0
M  END
