
     RDKit          3D

 13 13  0  0  0  0  0  0  0  0999 V2000
    5.0960   -0.6360    0.2470 C   0  0  0  0  0  0  0  0  0  0  0  0
    3.9640    0.3400    0.2770 C   0  0  0  0  0  0  0  0  0  0  0  0
    2.6220   -0.2960    0.1120 C   0  0  0  0  0  0  0  0  0  0  0  0
    1.5580    0.7790    0.1590 C   0  0  0  0  0  0  0  0  0  0  0  0
    0.2560    0.2000    0.0020 O   0  0  0  0  0  0  0  0  0  0  0  0
   -0.8710    1.0090    0.0140 C   0  0  0  0  0  0  0  0  0  0  0  0
   -0.6570    2.2540    0.1690 O   0  0  0  0  0  0  0  0  0  0  0  0
   -2.2150    0.4770   -0.1400 C   0  0  0  0  0  0  0  0  0  0  0  0
   -2.5260   -0.7940   -0.3050 C   0  0  0  0  0  0  0  0  0  0  0  0
   -3.9950   -0.9620   -0.4270 C   0  0  0  0  0  0  0  0  0  0  0  0
   -4.5770    0.3060    0.1020 C   0  0  0  0  0  0  0  0  0  0  0  0
   -3.4410    1.3090   -0.1310 C   0  0  2  0  0  0  0  0  0  0  0  0
   -3.6270    1.9680   -1.7840 Cl  0  0  0  0  0  0  0  0  0  0  0  0
  1  2  1  0
  2  3  1  0
  3  4  1  0
  4  5  1  0
  5  6  1  0
  6  7  2  0
  6  8  1  0
  8  9  2  0
  8 12  1  0
  9 10  1  0
 10 11  1  0
 11 12  1  0
 12 13  1  6
M  END
