
     RDKit          3D

 13 12  0  0  0  0  0  0  0  0999 V2000
   -2.3470    1.2090   -1.6670 C   0  0  0  0  0  0  0  0  0  0  0  0
   -1.1640    0.7270   -0.9930 C   0  0  0  0  0  0  0  0  0  0  0  0
   -1.0640   -0.1170    0.0170 C   0  0  0  0  0  0  0  0  0  0  0  0
    0.3330   -0.3970    0.4710 C   0  0  0  0  0  0  0  0  0  0  0  0
    0.6620   -1.1390    1.3790 O   0  0  0  0  0  0  0  0  0  0  0  0
    1.4000    0.2440   -0.1980 O   0  0  0  0  0  0  0  0  0  0  0  0
    2.7390    0.0200    0.1840 C   0  0  2  0  0  0  0  0  0  0  0  0
    3.3060    1.3330    0.6930 C   0  0  0  0  0  0  0  0  0  0  0  0
    3.6040   -0.4950   -0.9170 C   0  0  0  0  0  0  0  0  0  0  0  0
   -2.1630   -0.7720    0.6930 C   0  0  0  0  0  0  0  0  0  0  0  0
   -3.6090   -0.5740    0.3180 C   0  0  0  0  0  0  0  0  0  0  0  0
   -1.9610   -1.5970    1.6950 C   0  0  0  0  0  0  0  0  0  0  0  0
   -3.3590   -2.3800    2.4950 Cl  0  0  0  0  0  0  0  0  0  0  0  0
  1  2  1  0
  2  3  2  3
  3  4  1  0
  3 10  1  0
  4  5  2  0
  4  6  1  0
  6  7  1  0
  7  8  1  6
  7  9  1  0
 10 11  1  0
 10 12  2  3
 12 13  1  0
M  END
