
     RDKit          3D

 33 36  0  0  0  0  0  0  0  0999 V2000
   -5.3580   -3.1780    1.5790 C   0  0  0  0  0  0  0  0  0  0  0  0
   -5.3380   -3.4790    0.1260 C   0  0  0  0  0  0  0  0  0  0  0  0
   -6.0760   -4.4410   -0.4610 N   0  0  0  0  0  0  0  0  0  0  0  0
   -5.7860   -4.4000   -1.7460 N   0  0  0  0  0  0  0  0  0  0  0  0
   -4.8920   -3.4490   -1.9970 N   0  0  0  0  0  0  0  0  0  0  0  0
   -4.5840   -2.8440   -0.8400 C   0  0  0  0  0  0  0  0  0  0  0  0
   -3.6530   -1.7430   -0.6050 C   0  0  0  0  0  0  0  0  0  0  0  0
   -2.7610   -1.8000    0.4660 C   0  0  0  0  0  0  0  0  0  0  0  0
   -1.8660   -0.7720    0.7160 C   0  0  0  0  0  0  0  0  0  0  0  0
   -1.8500    0.3240   -0.1010 C   0  0  0  0  0  0  0  0  0  0  0  0
   -0.9350    1.4440    0.0710 C   0  0  0  0  0  0  0  0  0  0  0  0
   -1.2370    2.7500    0.1080 N   0  0  0  0  0  0  0  0  0  0  0  0
   -0.1690    3.4860    0.2460 N   0  0  0  0  0  0  0  0  0  0  0  0
   -0.1010    4.9620    0.3270 C   0  0  1  0  0  0  0  0  0  0  0  0
    0.6990    5.5040   -0.8410 C   0  0  0  0  0  0  0  0  0  0  0  0
   -1.4970    5.4890    0.2170 C   0  0  0  0  0  0  0  0  0  0  0  0
    0.8950    2.6680    0.3060 C   0  0  0  0  0  0  0  0  0  0  0  0
    0.4570    1.3800    0.2000 C   0  0  0  0  0  0  0  0  0  0  0  0
    1.2810    0.1440    0.2030 C   0  0  0  0  0  0  0  0  0  0  0  0
    2.6540    0.4680    0.3400 N   0  0  0  0  0  0  0  0  0  0  0  0
    3.6900   -0.5560    0.3730 C   0  0  0  0  0  0  0  0  0  0  0  0
    4.2730   -0.9640   -0.8080 C   0  0  0  0  0  0  0  0  0  0  0  0
    3.8510   -0.3670   -2.0890 C   0  0  0  0  0  0  0  0  0  0  0  0
    5.4690   -2.1650   -0.6450 S   0  0  0  0  0  0  0  0  0  0  0  0
    5.7220   -2.6450    0.9850 C   0  0  0  0  0  0  0  0  0  0  0  0
    6.8850   -3.8590    1.4730 S   0  0  2  0  0  0  0  0  0  0  0  0
    6.2210   -5.2050    1.4190 O   0  0  0  0  0  0  0  0  0  0  0  0
    7.4390   -3.5580    2.8430 O   0  0  0  0  0  0  0  0  0  0  0  0
    4.9470   -2.0030    1.8440 N   0  0  0  0  0  0  0  0  0  0  0  0
    4.0380   -1.0720    1.5930 C   0  0  0  0  0  0  0  0  0  0  0  0
    3.4280   -0.6170    2.6250 O   0  0  0  0  0  0  0  0  0  0  0  0
   -2.7440    0.3640   -1.1600 C   0  0  0  0  0  0  0  0  0  0  0  0
   -3.6350   -0.6410   -1.4210 C   0  0  0  0  0  0  0  0  0  0  0  0
  1  2  1  0
  2  3  2  0
  2  6  1  0
  3  4  1  0
  4  5  1  0
  5  6  2  0
  6  7  1  0
  7  8  2  0
  7 33  1  0
  8  9  1  0
  9 10  2  0
 10 11  1  0
 10 32  1  0
 11 12  2  0
 11 18  1  0
 12 13  1  0
 13 14  1  0
 13 17  1  0
 14 15  1  6
 14 16  1  0
 17 18  2  0
 18 19  1  0
 19 20  1  0
 20 21  1  0
 21 22  2  0
 21 30  1  0
 22 23  1  0
 22 24  1  0
 24 25  1  0
 26 25  1  1
 25 29  2  0
 26 27  2  0
 26 28  2  0
 29 30  1  0
 30 31  2  0
 32 33  2  0
M  END
