
     RDKit          3D

 33 36  0  0  0  0  0  0  0  0999 V2000
   -2.6420   -2.0080    1.0880 C   0  0  0  0  0  0  0  0  0  0  0  0
   -2.1260   -0.6570    0.7850 C   0  0  0  0  0  0  0  0  0  0  0  0
   -2.9190    0.2320    0.0590 C   0  0  0  0  0  0  0  0  0  0  0  0
   -4.2840   -0.1390   -0.4160 C   0  0  1  0  0  0  0  0  0  0  0  0
   -4.2570   -1.3420   -1.3350 C   0  0  0  0  0  0  0  0  0  0  0  0
   -5.2940   -0.2390    0.6870 C   0  0  0  0  0  0  0  0  0  0  0  0
   -4.7520    1.0240   -1.3110 C   0  0  0  0  0  0  0  0  0  0  0  0
   -2.3780    1.4730   -0.1920 C   0  0  0  0  0  0  0  0  0  0  0  0
   -1.1310    1.8450    0.2360 C   0  0  0  0  0  0  0  0  0  0  0  0
   -0.6520    3.1550   -0.0710 N   0  0  0  0  0  0  0  0  0  0  0  0
   -1.6470    4.2680   -0.9810 S   0  0  0  0  0  0  0  0  0  0  0  0
   -2.5670    5.0600   -0.0300 O   0  0  0  0  0  0  0  0  0  0  0  0
   -0.3560    0.9580    0.9520 C   0  0  0  0  0  0  0  0  0  0  0  0
   -0.8650   -0.3180    1.2320 C   0  0  0  0  0  0  0  0  0  0  0  0
    0.1560   -1.4070    2.1380 S   0  0  2  0  0  0  0  0  0  0  0  0
   -0.4510   -1.7700    3.4740 O   0  0  0  0  0  0  0  0  0  0  0  0
    1.4550   -0.6960    2.4890 O   0  0  0  0  0  0  0  0  0  0  0  0
    0.5510   -2.8600    1.2550 C   0  0  0  0  0  0  0  0  0  0  0  0
   -0.0820   -4.0420    1.2240 N   0  0  0  0  0  0  0  0  0  0  0  0
    0.5700   -4.8810    0.4090 N   0  0  0  0  0  0  0  0  0  0  0  0
    1.6070   -4.2290   -0.0670 N   0  0  0  0  0  0  0  0  0  0  0  0
    1.6200   -3.0170    0.4230 N   0  0  0  0  0  0  0  0  0  0  0  0
    2.5880   -2.0400    0.1290 C   0  0  0  0  0  0  0  0  0  0  0  0
    3.6870   -1.8600    0.9330 C   0  0  0  0  0  0  0  0  0  0  0  0
    4.6430   -0.8860    0.6310 C   0  0  0  0  0  0  0  0  0  0  0  0
    4.4570   -0.1100   -0.4920 C   0  0  0  0  0  0  0  0  0  0  0  0
    5.4580    0.8760   -0.7670 N   0  0  0  0  0  0  0  0  0  0  0  0
    5.3390    2.1950   -0.4360 C   0  0  0  0  0  0  0  0  0  0  0  0
    6.4700    2.8510   -0.8430 C   0  0  0  0  0  0  0  0  0  0  0  0
    7.2740    1.9010   -1.4260 C   0  0  0  0  0  0  0  0  0  0  0  0
    6.6120    0.7260   -1.3520 N   0  0  0  0  0  0  0  0  0  0  0  0
    3.3650   -0.2860   -1.2950 C   0  0  0  0  0  0  0  0  0  0  0  0
    2.4220   -1.2540   -0.9880 C   0  0  0  0  0  0  0  0  0  0  0  0
  1  2  1  0
  2  3  2  0
  2 14  1  0
  3  4  1  0
  3  8  1  0
  4  5  1  6
  4  6  1  0
  4  7  1  0
  8  9  2  0
  9 10  1  0
  9 13  1  0
 10 11  1  0
 11 12  2  0
 13 14  2  0
 15 14  1  6
 15 16  2  0
 15 17  2  0
 15 18  1  0
 18 19  2  0
 18 22  1  0
 19 20  1  0
 20 21  2  0
 21 22  1  0
 22 23  1  0
 23 24  2  0
 23 33  1  0
 24 25  1  0
 25 26  2  0
 26 27  1  0
 26 32  1  0
 27 28  1  0
 27 31  1  0
 28 29  2  0
 29 30  1  0
 30 31  2  0
 32 33  2  0
M  END
