
     RDKit          3D

 33 36  0  0  0  0  0  0  0  0999 V2000
    9.4630    0.5010   -1.7130 C   0  0  0  0  0  0  0  0  0  0  0  0
    8.0360    0.1120   -1.6920 C   0  0  0  0  0  0  0  0  0  0  0  0
    7.1760    0.5850   -2.6630 C   0  0  0  0  0  0  0  0  0  0  0  0
    5.8570    0.2410   -2.6650 C   0  0  0  0  0  0  0  0  0  0  0  0
    5.3400   -0.5830   -1.7090 C   0  0  0  0  0  0  0  0  0  0  0  0
    3.9870   -0.9340   -1.7120 O   0  0  0  0  0  0  0  0  0  0  0  0
    3.3590   -1.7430   -0.8250 C   0  0  0  0  0  0  0  0  0  0  0  0
    2.4060   -1.5470    0.0180 C   0  0  0  0  0  0  0  0  0  0  0  0
    1.6160   -0.4110    0.3710 C   0  0  0  0  0  0  0  0  0  0  0  0
    0.6130   -0.4040    1.3600 C   0  0  0  0  0  0  0  0  0  0  0  0
    0.0930    0.8140    1.4070 N   0  0  0  0  0  0  0  0  0  0  0  0
   -0.9750    1.3270    2.2660 C   0  0  0  0  0  0  0  0  0  0  0  0
   -2.3010    1.1680    1.6690 C   0  0  0  0  0  0  0  0  0  0  0  0
   -2.8070    2.0400    0.9250 O   0  0  0  0  0  0  0  0  0  0  0  0
   -3.1080   -0.0110    1.9040 N   0  0  0  0  0  0  0  0  0  0  0  0
   -4.3910   -0.1200    1.3000 C   0  0  0  0  0  0  0  0  0  0  0  0
   -4.8200    0.9040    0.5050 N   0  0  0  0  0  0  0  0  0  0  0  0
   -5.9960    0.9300   -0.1200 C   0  0  0  0  0  0  0  0  0  0  0  0
   -6.4110    2.0920   -0.9840 C   0  0  2  0  0  0  0  0  0  0  0  0
   -7.8790    2.5580   -0.7140 C   0  0  0  0  0  0  0  0  0  0  0  0
   -7.4610    1.9230   -2.0050 C   0  0  0  0  0  0  0  0  0  0  0  0
   -6.8280   -0.1510    0.0510 C   0  0  0  0  0  0  0  0  0  0  0  0
   -6.4350   -1.2010    0.8410 C   0  0  0  0  0  0  0  0  0  0  0  0
   -5.1890   -1.2090    1.4930 C   0  0  0  0  0  0  0  0  0  0  0  0
   -4.8410   -2.3700    2.3220 C   0  0  0  0  0  0  0  0  0  0  0  0
   -5.7730   -3.4520    2.4430 N   0  0  0  0  0  0  0  0  0  0  0  0
   -3.7620   -2.4320    2.9170 O   0  0  0  0  0  0  0  0  0  0  0  0
    0.6920    1.5650    0.5270 N   0  0  0  0  0  0  0  0  0  0  0  0
    1.6470    0.8470   -0.1420 C   0  0  0  0  0  0  0  0  0  0  0  0
    2.5100    1.4450   -1.2290 C   0  0  0  0  0  0  0  0  0  0  0  0
    6.1480   -1.0820   -0.7190 C   0  0  0  0  0  0  0  0  0  0  0  0
    5.6590   -1.9440    0.3050 N   0  0  0  0  0  0  0  0  0  0  0  0
    7.4950   -0.7150   -0.7390 C   0  0  0  0  0  0  0  0  0  0  0  0
  1  2  1  0
  2  3  2  0
  2 33  1  0
  3  4  1  0
  4  5  2  0
  5  6  1  0
  5 31  1  0
  6  7  1  0
  7  8  2  3
  8  9  1  0
  9 10  2  0
  9 29  1  0
 10 11  1  0
 11 12  1  0
 11 28  1  0
 12 13  1  0
 13 14  2  0
 13 15  1  0
 15 16  1  0
 16 17  2  0
 16 24  1  0
 17 18  1  0
 19 18  1  1
 18 22  2  0
 19 20  1  0
 19 21  1  0
 20 21  1  0
 22 23  1  0
 23 24  2  0
 24 25  1  0
 25 26  1  0
 25 27  2  0
 28 29  2  0
 29 30  1  0
 31 32  1  0
 31 33  2  0
M  END
