
     RDKit          3D

 33 36  0  0  0  0  0  0  0  0999 V2000
   -3.2090    1.1970   -2.0270 C   0  0  0  0  0  0  0  0  0  0  0  0
   -2.4510    0.0700   -2.4960 N   0  0  0  0  0  0  0  0  0  0  0  0
   -1.0880   -0.0390   -2.1600 C   0  0  0  0  0  0  0  0  0  0  0  0
   -0.7810   -0.7870   -1.1740 C   0  0  0  0  0  0  0  0  0  0  0  0
   -1.6530   -1.5400   -0.3530 C   0  0  0  0  0  0  0  0  0  0  0  0
   -0.8200   -2.1580    0.5830 O   0  0  0  0  0  0  0  0  0  0  0  0
   -2.9350   -1.9080   -0.0950 N   0  0  0  0  0  0  0  0  0  0  0  0
   -3.0840   -2.8020    1.1390 C   0  0  0  0  0  0  0  0  0  0  0  0
   -4.4750   -2.7670    1.6410 C   0  0  0  0  0  0  0  0  0  0  0  0
   -5.1600   -1.4240    1.5830 C   0  0  0  0  0  0  0  0  0  0  0  0
   -4.9560   -0.7390    0.2510 C   0  0  0  0  0  0  0  0  0  0  0  0
   -4.1890   -1.6890   -0.6780 C   0  0  0  0  0  0  0  0  0  0  0  0
    1.0140   -0.9810   -0.6730 S   0  0  0  0  0  0  0  0  0  0  0  0
    1.8170    0.5560   -0.8200 C   0  0  0  0  0  0  0  0  0  0  0  0
    2.7890    0.9160    0.2570 C   0  0  0  0  0  0  0  0  0  0  0  0
    3.4730    2.0930    0.2960 C   0  0  0  0  0  0  0  0  0  0  0  0
    4.3160    2.3810    1.2650 C   0  0  0  0  0  0  0  0  0  0  0  0
    5.1780    3.5490    1.5660 C   0  0  0  0  0  0  0  0  0  0  0  0
    6.5060    3.3530    0.9290 C   0  0  0  0  0  0  0  0  0  0  0  0
    6.7850    2.3210    0.2490 O   0  0  0  0  0  0  0  0  0  0  0  0
    7.5070    4.3070    1.0560 O   0  0  0  0  0  0  0  0  0  0  0  0
    4.2570    0.9020    2.3500 S   0  0  0  0  0  0  0  0  0  0  0  0
    3.0260    0.0390    1.2860 C   0  0  0  0  0  0  0  0  0  0  0  0
    2.5410   -1.2500    1.6010 N   0  0  0  0  0  0  0  0  0  0  0  0
    2.8280   -2.4050    1.0300 N   0  0  0  0  0  0  0  0  0  0  0  0
    2.1700   -3.3950    1.6350 C   0  0  0  0  0  0  0  0  0  0  0  0
    1.4530   -2.8240    2.6140 N   0  0  0  0  0  0  0  0  0  0  0  0
    1.6690   -1.5020    2.6070 C   0  0  0  0  0  0  0  0  0  0  0  0
    1.0690   -0.4920    3.5280 C   0  0  0  0  0  0  0  0  0  0  0  0
    1.6610    1.4240   -1.7630 N   0  0  0  0  0  0  0  0  0  0  0  0
    0.8050    1.3430   -2.9050 C   0  0  0  0  0  0  0  0  0  0  0  0
    1.3540    2.1080   -4.0870 C   0  0  0  0  0  0  0  0  0  0  0  0
   -0.2790    0.7590   -3.0460 N   0  0  0  0  0  0  0  0  0  0  0  0
  1  2  1  0
  2  3  1  0
  3  4  2  0
  3 33  1  0
  4  5  1  0
  4 13  1  0
  5  6  2  0
  5  7  1  0
  7  8  1  0
  7 12  1  0
  8  9  1  0
  9 10  1  0
 10 11  1  0
 11 12  1  0
 13 14  1  0
 14 15  1  0
 14 30  2  0
 15 16  1  0
 15 23  2  0
 16 17  2  0
 17 18  1  0
 17 22  1  0
 18 19  1  0
 19 20  2  0
 19 21  1  0
 22 23  1  0
 23 24  1  0
 24 25  1  0
 24 28  1  0
 25 26  2  0
 26 27  1  0
 27 28  2  0
 28 29  1  0
 30 31  1  0
 31 32  1  0
 31 33  2  0
M  END
