
     RDKit          3D

 32 36  0  0  0  0  0  0  0  0999 V2000
    8.1330    1.7240    0.3220 C   0  0  0  0  0  0  0  0  0  0  0  0
    7.7940    0.3740    0.5020 O   0  0  0  0  0  0  0  0  0  0  0  0
    6.5020   -0.1170    0.5560 C   0  0  0  0  0  0  0  0  0  0  0  0
    6.3440   -1.4650    0.7380 C   0  0  0  0  0  0  0  0  0  0  0  0
    5.0920   -2.0480    0.8040 C   0  0  0  0  0  0  0  0  0  0  0  0
    3.9450   -1.2790    0.6870 C   0  0  0  0  0  0  0  0  0  0  0  0
    4.1050    0.0650    0.5060 C   0  0  0  0  0  0  0  0  0  0  0  0
    5.3790    0.6510    0.4390 C   0  0  0  0  0  0  0  0  0  0  0  0
    2.7710    0.6460    0.4210 C   0  0  0  0  0  0  0  0  0  0  0  0
    2.5960    1.8890    0.2520 O   0  0  0  0  0  0  0  0  0  0  0  0
    1.7920   -0.3740    0.5570 N   0  0  0  0  0  0  0  0  0  0  0  0
    0.3850   -0.2430    0.5600 C   0  0  0  0  0  0  0  0  0  0  0  0
   -0.3150   -0.3290   -0.7650 C   0  0  1  0  0  0  0  0  0  0  0  0
   -1.7790   -0.1400   -0.4370 C   0  0  0  0  0  0  0  0  0  0  0  0
   -2.3880    1.0760   -0.6360 C   0  0  0  0  0  0  0  0  0  0  0  0
   -3.7230    1.2860   -0.3480 C   0  0  0  0  0  0  0  0  0  0  0  0
   -4.4890    0.2580    0.1550 C   0  0  0  0  0  0  0  0  0  0  0  0
   -5.9090    0.4510    0.4680 C   0  0  0  0  0  0  0  0  0  0  0  0
   -6.6770    1.3280   -0.2620 C   0  0  0  0  0  0  0  0  0  0  0  0
   -8.0080    1.5060    0.0350 C   0  0  0  0  0  0  0  0  0  0  0  0
   -8.5560    0.7870    1.0780 C   0  0  0  0  0  0  0  0  0  0  0  0
   -7.7700   -0.0640    1.7710 N   0  0  0  0  0  0  0  0  0  0  0  0
   -6.4700   -0.2490    1.4940 C   0  0  0  0  0  0  0  0  0  0  0  0
   -3.8690   -0.9640    0.3520 C   0  0  0  0  0  0  0  0  0  0  0  0
   -2.5400   -1.1550    0.0610 C   0  0  0  0  0  0  0  0  0  0  0  0
    0.0530    0.6890   -1.6810 N   0  0  0  0  0  0  0  0  0  0  0  0
    0.2820    0.1220   -2.9540 C   0  0  0  0  0  0  0  0  0  0  0  0
    0.5510    0.7480   -4.0290 O   0  0  0  0  0  0  0  0  0  0  0  0
    0.1640   -1.2860   -2.8390 N   0  0  0  0  0  0  0  0  0  0  0  0
   -0.1400   -1.5840   -1.4890 C   0  0  0  0  0  0  0  0  0  0  0  0
   -0.2240   -2.7940   -1.0840 O   0  0  0  0  0  0  0  0  0  0  0  0
    2.5240   -1.5990    0.7070 C   0  0  0  0  0  0  0  0  0  0  0  0
  1  2  1  0
  2  3  1  0
  3  4  2  0
  3  8  1  0
  4  5  1  0
  5  6  2  0
  6  7  1  0
  6 32  1  0
  7  8  2  0
  7  9  1  0
  9 10  2  0
  9 11  1  0
 11 12  1  0
 11 32  1  0
 13 12  1  1
 13 14  1  0
 13 26  1  0
 13 30  1  0
 14 15  2  0
 14 25  1  0
 15 16  1  0
 16 17  2  0
 17 18  1  0
 17 24  1  0
 18 19  2  0
 18 23  1  0
 19 20  1  0
 20 21  2  0
 21 22  1  0
 22 23  2  0
 24 25  2  0
 26 27  1  0
 27 28  2  0
 27 29  1  0
 29 30  1  0
 30 31  2  0
M  END
