
     RDKit          3D

 31 32  0  0  0  0  0  0  0  0999 V2000
   -1.3970   -0.5180   -1.6800 N   0  0  0  0  0  0  0  0  0  0  0  0
   -1.6160   -0.0870   -0.4240 C   0  0  0  0  0  0  0  0  0  0  0  0
   -0.9310    1.1040   -0.1150 N   0  0  0  0  0  0  0  0  0  0  0  0
    0.0670    1.2810    0.8870 C   0  0  0  0  0  0  0  0  0  0  0  0
    1.3170    0.4510    0.6060 C   0  0  0  0  0  0  0  0  0  0  0  0
    1.2920   -0.8230    0.4000 N   0  0  0  0  0  0  0  0  0  0  0  0
    2.5630   -1.3510    0.1730 N   0  0  0  0  0  0  0  0  0  0  0  0
    2.8920   -2.7550   -0.0770 C   0  0  1  0  0  0  0  0  0  0  0  0
    3.9310   -3.0290   -1.1080 C   0  0  0  0  0  0  0  0  0  0  0  0
    4.5860   -3.8890   -0.1790 O   0  0  0  0  0  0  0  0  0  0  0  0
    3.9740   -3.1920    0.8410 C   0  0  0  0  0  0  0  0  0  0  0  0
    4.2560   -3.0200    2.0540 O   0  0  0  0  0  0  0  0  0  0  0  0
    3.4890   -0.2910    0.2470 C   0  0  0  0  0  0  0  0  0  0  0  0
    4.7570   -0.3720    0.1050 O   0  0  0  0  0  0  0  0  0  0  0  0
    2.6950    0.9310    0.5220 C   0  0  1  0  0  0  0  0  0  0  0  0
    2.8880    1.7380   -0.6230 O   0  0  0  0  0  0  0  0  0  0  0  0
    3.5130    2.8190   -0.2230 O   0  0  0  0  0  0  0  0  0  0  0  0
    3.0190    4.0970   -1.3170 P   0  0  0  0  0  0  0  0  0  0  0  0
    1.7920    4.9340   -0.8490 O   0  0  0  0  0  0  0  0  0  0  0  0
   -1.3000    2.2730   -0.9450 C   0  0  0  0  0  0  0  0  0  0  0  0
   -3.1070    2.5850   -0.8990 P   0  0  0  0  0  0  0  0  0  0  0  0
   -3.3900    4.1800   -1.5550 O   0  0  0  0  0  0  0  0  0  0  0  0
   -3.7690    2.5560    0.6840 O   0  0  0  0  0  0  0  0  0  0  0  0
   -2.4680   -0.8790    0.3490 N   0  0  0  0  0  0  0  0  0  0  0  0
   -2.8890   -0.6970    1.6510 C   0  0  0  0  0  0  0  0  0  0  0  0
   -2.5630    0.3050    2.3260 O   0  0  0  0  0  0  0  0  0  0  0  0
   -3.7130   -1.6040    2.3480 O   0  0  0  0  0  0  0  0  0  0  0  0
   -4.0870   -1.3710    3.6210 O   0  0  0  0  0  0  0  0  0  0  0  0
   -3.1740   -2.3830   -0.4580 P   0  0  0  0  0  0  0  0  0  0  0  0
   -4.5410   -1.9050   -1.4160 O   0  0  0  0  0  0  0  0  0  0  0  0
   -1.8920   -2.9910   -1.4660 O   0  0  0  0  0  0  0  0  0  0  0  0
  1  2  2  0
  2  3  1  0
  2 24  1  0
  3  4  1  0
  3 20  1  0
  4  5  1  0
  5  6  2  0
  5 15  1  0
  6  7  1  0
  8  7  1  1
  7 13  1  0
  8  9  1  0
  8 11  1  0
  9 10  1  0
 10 11  1  0
 11 12  2  0
 13 14  2  0
 13 15  1  0
 15 16  1  6
 16 17  1  0
 17 18  1  0
 18 19  2  0
 20 21  1  0
 21 22  1  0
 21 23  1  0
 24 25  1  0
 24 29  1  0
 25 26  2  0
 25 27  1  0
 27 28  1  0
 29 30  1  0
 29 31  1  0
M  END
