
     RDKit          3D

 30 31  0  0  0  0  0  0  0  0999 V2000
   -6.0290    4.6320   -1.1390 O   0  0  0  0  0  0  0  0  0  0  0  0
   -6.4310    4.1140   -0.0570 C   0  0  0  0  0  0  0  0  0  0  0  0
   -7.5030    4.7190    0.5850 O   0  0  0  0  0  0  0  0  0  0  0  0
   -5.7710    2.9600    0.4300 N   0  0  0  0  0  0  0  0  0  0  0  0
   -4.6760    2.3820   -0.2700 C   0  0  0  0  0  0  0  0  0  0  0  0
   -4.2870    2.9030   -1.3380 O   0  0  0  0  0  0  0  0  0  0  0  0
   -4.0530    1.1740    0.3250 C   0  0  0  0  0  0  0  0  0  0  0  0
   -2.9800    0.7100   -0.4770 O   0  0  0  0  0  0  0  0  0  0  0  0
   -2.2760   -0.4000   -0.0940 C   0  0  0  0  0  0  0  0  0  0  0  0
   -2.5340   -1.0420    0.9500 O   0  0  0  0  0  0  0  0  0  0  0  0
   -1.1780   -0.9370   -0.8450 N   0  0  0  0  0  0  0  0  0  0  0  0
   -0.4540   -2.0730   -0.4570 C   0  0  2  0  0  0  0  0  0  0  0  0
   -1.6780   -3.5050   -0.3880 P   0  0  0  0  0  0  0  0  0  0  0  0
   -1.0190   -4.9160   -1.1100 O   0  0  0  0  0  0  0  0  0  0  0  0
   -3.1980   -3.0560   -1.0490 O   0  0  0  0  0  0  0  0  0  0  0  0
    0.2530   -2.0550    0.8460 C   0  0  0  0  0  0  0  0  0  0  0  0
    1.6070   -1.5290    0.7490 N   0  0  0  0  0  0  0  0  0  0  0  0
    2.1120   -0.4230    1.4940 C   0  0  0  0  0  0  0  0  0  0  0  0
    3.4530   -0.0320    0.8620 C   0  0  1  0  0  0  0  0  0  0  0  0
    4.1230    0.8950    1.6120 O   0  0  0  0  0  0  0  0  0  0  0  0
    4.3580    2.3320    0.6730 P   0  0  0  0  0  0  0  0  0  0  0  0
    4.1070    1.9820   -1.0040 O   0  0  0  0  0  0  0  0  0  0  0  0
    6.3570    3.1790    0.9330 P   0  0  0  0  0  0  0  0  0  0  0  0
    7.2580    3.1520   -0.5440 O   0  0  0  0  0  0  0  0  0  0  0  0
    7.1890    2.4140    2.2240 O   0  0  0  0  0  0  0  0  0  0  0  0
    4.2440   -1.2050    0.6200 O   0  0  0  0  0  0  0  0  0  0  0  0
    3.6810   -2.1090   -0.2760 N   0  0  0  0  0  0  0  0  0  0  0  0
    2.4240   -2.2510   -0.2010 C   0  0  0  0  0  0  0  0  0  0  0  0
    1.6140   -3.1730   -1.0720 C   0  0  0  0  0  0  0  0  0  0  0  0
    0.4810   -2.4250   -1.5070 N   0  0  0  0  0  0  0  0  0  0  0  0
  1  2  2  0
  2  3  1  0
  2  4  1  0
  4  5  1  0
  5  6  2  0
  5  7  1  0
  7  8  1  0
  8  9  1  0
  9 10  2  0
  9 11  1  0
 12 11  1  6
 12 13  1  0
 12 16  1  0
 12 30  1  0
 13 14  1  0
 13 15  1  0
 16 17  1  0
 17 18  1  0
 17 28  1  0
 18 19  1  0
 19 20  1  1
 19 26  1  0
 20 21  1  0
 21 22  1  0
 21 23  1  0
 23 24  1  0
 23 25  1  0
 26 27  1  0
 27 28  2  0
 28 29  1  0
 29 30  1  0
M  END
