
     RDKit          3D

 30 31  0  0  0  0  0  0  0  0999 V2000
    2.5180   -0.2550   -2.4150 O   0  0  0  0  0  0  0  0  0  0  0  0
    1.6520    1.0410   -2.3260 P   0  0  0  0  0  0  0  0  0  0  0  0
    1.2680    1.7930   -0.8010 O   0  0  0  0  0  0  0  0  0  0  0  0
    1.9610    1.0880    0.1820 C   0  0  1  0  0  0  0  0  0  0  0  0
    3.3770    1.1650   -0.0930 N   0  0  0  0  0  0  0  0  0  0  0  0
    4.3600    0.5040    0.6710 C   0  0  0  0  0  0  0  0  0  0  0  0
    4.0250   -0.2060    1.6560 O   0  0  0  0  0  0  0  0  0  0  0  0
    5.7610    0.5810    0.3990 N   0  0  0  0  0  0  0  0  0  0  0  0
    6.9390   -0.3000    1.4330 P   0  0  0  0  0  0  0  0  0  0  0  0
    7.9790    0.7570    2.2940 O   0  0  0  0  0  0  0  0  0  0  0  0
    7.7690   -1.5400    0.5780 O   0  0  0  0  0  0  0  0  0  0  0  0
    1.7100    1.6250    1.5570 C   0  0  0  0  0  0  0  0  0  0  0  0
    0.3380    1.7460    1.7580 O   0  0  0  0  0  0  0  0  0  0  0  0
   -0.4090    0.7680    1.1640 C   0  0  0  0  0  0  0  0  0  0  0  0
    0.3260   -0.4470    0.7170 C   0  0  1  0  0  0  0  0  0  0  0  0
   -0.6140   -1.2350   -0.1670 C   0  0  0  0  0  0  0  0  0  0  0  0
   -1.7860   -0.8550   -0.4130 N   0  0  0  0  0  0  0  0  0  0  0  0
   -2.8120   -1.4600   -1.2180 C   0  0  1  0  0  0  0  0  0  0  0  0
   -3.2000   -0.5290   -2.1460 O   0  0  0  0  0  0  0  0  0  0  0  0
   -4.4550   -0.0260   -2.0880 C   0  0  0  0  0  0  0  0  0  0  0  0
   -4.8520    0.7510   -0.8880 C   0  0  0  0  0  0  0  0  0  0  0  0
   -4.7740    0.0370    0.2790 O   0  0  0  0  0  0  0  0  0  0  0  0
   -5.2490    0.9780    1.6640 P   0  0  0  0  0  0  0  0  0  0  0  0
   -3.9930    2.0910    2.1160 O   0  0  0  0  0  0  0  0  0  0  0  0
   -6.7400    1.8140    1.3670 O   0  0  0  0  0  0  0  0  0  0  0  0
   -2.3340   -2.7130   -1.8060 C   0  0  0  0  0  0  0  0  0  0  0  0
   -3.0910   -3.4100   -2.5560 O   0  0  0  0  0  0  0  0  0  0  0  0
   -1.0300   -3.1880   -1.5640 N   0  0  0  0  0  0  0  0  0  0  0  0
   -0.1560   -2.4660   -0.7500 N   0  0  0  0  0  0  0  0  0  0  0  0
    1.5340   -0.2280    0.1080 O   0  0  0  0  0  0  0  0  0  0  0  0
  1  2  2  0
  2  3  1  0
  3  4  1  0
  4  5  1  6
  4 12  1  0
  4 30  1  0
  5  6  1  0
  6  7  2  0
  6  8  1  0
  8  9  1  0
  9 10  1  0
  9 11  1  0
 12 13  1  0
 13 14  1  0
 14 15  1  0
 15 16  1  6
 15 30  1  0
 16 17  2  0
 16 29  1  0
 17 18  1  0
 18 19  1  6
 18 26  1  0
 19 20  1  0
 20 21  1  0
 21 22  1  0
 22 23  1  0
 23 24  1  0
 23 25  1  0
 26 27  2  0
 26 28  1  0
 28 29  1  0
M  END
