
     RDKit          3D

 31 33  0  0  0  0  0  0  0  0999 V2000
   -7.9910    0.4500    0.2770 N   0  0  0  0  0  0  0  0  0  0  0  0
   -6.8170   -0.3170    0.1750 C   0  0  0  0  0  0  0  0  0  0  0  0
   -6.5610   -1.5120    0.6900 N   0  0  0  0  0  0  0  0  0  0  0  0
   -5.3490   -2.0700    0.7200 C   0  0  0  0  0  0  0  0  0  0  0  0
   -4.2940   -1.4170    0.2350 N   0  0  0  0  0  0  0  0  0  0  0  0
   -4.4610   -0.1820   -0.3140 C   0  0  0  0  0  0  0  0  0  0  0  0
   -5.7160    0.3550   -0.3510 C   0  0  0  0  0  0  0  0  0  0  0  0
   -5.5930    1.5650   -0.9680 N   0  0  0  0  0  0  0  0  0  0  0  0
   -4.3130    1.7320   -1.2760 C   0  0  0  0  0  0  0  0  0  0  0  0
   -3.6010    0.6470   -0.8650 N   0  0  0  0  0  0  0  0  0  0  0  0
   -2.2080    0.7020   -0.7520 C   0  0  2  0  0  0  0  0  0  0  0  0
   -1.3160   -0.0680   -1.3870 O   0  0  0  0  0  0  0  0  0  0  0  0
   -0.2130   -0.0980   -0.6320 C   0  0  2  0  0  0  0  0  0  0  0  0
    0.7530   -1.2380   -0.6080 C   0  0  0  0  0  0  0  0  0  0  0  0
    1.2680   -1.1640    0.7230 O   0  0  0  0  0  0  0  0  0  0  0  0
    2.9080   -1.0930    0.8050 P   0  0  1  0  0  0  0  0  0  0  0  0
    3.2000   -0.1830    2.0580 O   0  0  0  0  0  0  0  0  0  0  0  0
    3.7870   -2.4300    0.9450 O   0  0  0  0  0  0  0  0  0  0  0  0
    3.3980   -0.0670   -0.5110 O   0  0  0  0  0  0  0  0  0  0  0  0
    5.0680   -0.0170   -0.5310 P   0  0  2  0  0  0  0  0  0  0  0  0
    5.4930    0.5700   -1.8670 O   0  0  0  0  0  0  0  0  0  0  0  0
    5.7200   -1.5770   -0.4230 O   0  0  0  0  0  0  0  0  0  0  0  0
    5.6760    0.9590    0.7200 O   0  0  0  0  0  0  0  0  0  0  0  0
    7.2760    1.3210    0.4050 P   0  0  2  0  0  0  0  0  0  0  0  0
    7.6210    2.7250    0.8510 O   0  0  0  0  0  0  0  0  0  0  0  0
    7.6240    1.2090   -1.2500 O   0  0  0  0  0  0  0  0  0  0  0  0
    8.2660    0.2520    1.2850 O   0  0  0  0  0  0  0  0  0  0  0  0
   -0.4180    0.4520    0.7410 C   0  0  1  0  0  0  0  0  0  0  0  0
   -0.0840    1.7950    0.7990 O   0  0  0  0  0  0  0  0  0  0  0  0
   -1.9130    0.3480    0.7910 C   0  0  1  0  0  0  0  0  0  0  0  0
   -2.5030    1.2730    1.6010 O   0  0  0  0  0  0  0  0  0  0  0  0
  1  2  1  0
  2  3  2  0
  2  7  1  0
  3  4  1  0
  4  5  2  0
  5  6  1  0
  6  7  2  0
  6 10  1  0
  7  8  1  0
  8  9  2  0
  9 10  1  0
 11 10  1  6
 11 12  1  0
 11 30  1  0
 12 13  1  0
 13 14  1  1
 13 28  1  0
 14 15  1  0
 15 16  1  0
 16 17  2  0
 16 18  1  1
 16 19  1  0
 19 20  1  0
 20 21  2  0
 20 22  1  1
 20 23  1  0
 23 24  1  0
 24 25  2  0
 24 26  1  6
 24 27  1  0
 28 29  1  6
 28 30  1  0
 30 31  1  1
M  END
