
     RDKit          3D

 17 18  0  0  0  0  0  0  0  0999 V2000
   -3.5530   -1.7760   -0.6370 C   0  0  0  0  0  0  0  0  0  0  0  0
   -3.0870   -0.4900   -0.5180 O   0  0  0  0  0  0  0  0  0  0  0  0
   -1.8010   -0.4230    0.0790 C   0  0  2  0  0  0  0  0  0  0  0  0
   -2.0110    0.3300    1.3480 C   0  0  0  0  0  0  0  0  0  0  0  0
   -2.6030    1.6190    1.1010 N   0  0  0  0  0  0  0  0  0  0  0  0
   -0.8980    0.2140   -0.8720 C   0  0  0  0  0  0  0  0  0  0  0  0
    0.4690    0.3960   -0.5660 N   0  0  0  0  0  0  0  0  0  0  0  0
    0.9020    1.5370   -0.0300 C   0  0  0  0  0  0  0  0  0  0  0  0
    0.1530    2.5210    0.2210 O   0  0  0  0  0  0  0  0  0  0  0  0
    2.2110    1.7290    0.2920 N   0  0  0  0  0  0  0  0  0  0  0  0
    3.1450    0.7970    0.0930 C   0  0  0  0  0  0  0  0  0  0  0  0
    4.4720    0.7110    0.3060 N   0  0  0  0  0  0  0  0  0  0  0  0
    4.8990   -0.4860   -0.0930 N   0  0  0  0  0  0  0  0  0  0  0  0
    3.8700   -1.1980   -0.5700 C   0  0  0  0  0  0  0  0  0  0  0  0
    2.7470   -0.4020   -0.4610 C   0  0  0  0  0  0  0  0  0  0  0  0
    1.4180   -0.5570   -0.7710 C   0  0  0  0  0  0  0  0  0  0  0  0
    1.0440   -1.6270   -1.2690 O   0  0  0  0  0  0  0  0  0  0  0  0
  1  2  1  0
  2  3  1  0
  3  4  1  1
  3  6  1  0
  4  5  1  0
  6  7  1  0
  7  8  1  0
  7 16  1  0
  8  9  2  0
  8 10  1  0
 10 11  1  0
 11 12  2  0
 11 15  1  0
 12 13  1  0
 13 14  1  0
 14 15  2  0
 15 16  1  0
 16 17  2  0
M  END
