
     RDKit          3D

 17 18  0  0  0  0  0  0  0  0999 V2000
   -2.0540   -1.9770   -0.1680 C   0  0  0  0  0  0  0  0  0  0  0  0
   -1.9220   -0.5030    0.1750 C   0  0  2  0  0  0  0  0  0  0  0  0
   -0.4730   -0.1300    0.0310 C   0  0  0  0  0  0  0  0  0  0  0  0
    0.4980   -0.8810   -0.3140 N   0  0  0  0  0  0  0  0  0  0  0  0
    1.7460   -0.2010   -0.3500 C   0  0  0  0  0  0  0  0  0  0  0  0
    2.9280   -0.7150   -0.6700 C   0  0  0  0  0  0  0  0  0  0  0  0
    4.2040   -0.0200   -0.7070 C   0  0  0  0  0  0  0  0  0  0  0  0
    5.1310   -0.6030    0.1890 O   0  0  0  0  0  0  0  0  0  0  0  0
    1.4450    1.1730    0.0390 C   0  0  0  0  0  0  0  0  0  0  0  0
    2.2620    2.1720    0.1530 N   0  0  0  0  0  0  0  0  0  0  0  0
    0.0400    1.1730    0.2690 N   0  0  0  0  0  0  0  0  0  0  0  0
   -2.3410   -0.2820    1.5340 N   0  0  0  0  0  0  0  0  0  0  0  0
   -3.4180    0.6420    1.5280 C   0  0  0  0  0  0  0  0  0  0  0  0
   -4.0680    1.0970    2.5180 O   0  0  0  0  0  0  0  0  0  0  0  0
   -3.7060    1.0290    0.1670 N   0  0  0  0  0  0  0  0  0  0  0  0
   -2.7940    0.3310   -0.6630 C   0  0  0  0  0  0  0  0  0  0  0  0
   -2.7610    0.4320   -1.9060 O   0  0  0  0  0  0  0  0  0  0  0  0
  2  1  1  6
  2  3  1  0
  2 12  1  0
  2 16  1  0
  3  4  2  0
  3 11  1  0
  4  5  1  0
  5  6  2  3
  5  9  1  0
  6  7  1  0
  7  8  1  0
  9 10  2  0
  9 11  1  0
 12 13  1  0
 13 14  2  0
 13 15  1  0
 15 16  1  0
 16 17  2  0
M  END
