
     RDKit          3D

 17 19  0  0  0  0  0  0  0  0999 V2000
    4.0440   -0.8670    0.4770 C   0  0  0  0  0  0  0  0  0  0  0  0
    3.0660   -0.2600    1.2410 O   0  0  0  0  0  0  0  0  0  0  0  0
    1.7890   -0.4390    0.7260 C   0  0  2  0  0  0  0  0  0  0  0  0
    1.2010    0.8370    0.3790 N   0  0  0  0  0  0  0  0  0  0  0  0
   -0.1110    1.0040   -0.1790 C   0  0  0  0  0  0  0  0  0  0  0  0
   -1.2460    0.2400   -0.0150 C   0  0  0  0  0  0  0  0  0  0  0  0
   -2.2790    0.7370   -0.7570 C   0  0  0  0  0  0  0  0  0  0  0  0
   -1.7690    1.8230   -1.3770 N   0  0  0  0  0  0  0  0  0  0  0  0
   -0.4840    1.9810   -1.0340 N   0  0  0  0  0  0  0  0  0  0  0  0
    0.4270    3.0210   -1.4740 C   0  0  0  0  0  0  0  0  0  0  0  0
   -3.5240    0.0540   -0.7950 N   0  0  0  0  0  0  0  0  0  0  0  0
   -3.6460   -1.1580   -0.0490 C   0  0  0  0  0  0  0  0  0  0  0  0
   -4.7010   -1.8270   -0.0160 O   0  0  0  0  0  0  0  0  0  0  0  0
   -2.5280   -1.6670    0.7140 N   0  0  0  0  0  0  0  0  0  0  0  0
   -1.3460   -0.9290    0.9140 C   0  0  1  0  0  0  0  0  0  0  0  0
   -0.0970   -1.7400    0.8030 C   0  0  0  0  0  0  0  0  0  0  0  0
    0.9520   -1.1340    1.5450 O   0  0  0  0  0  0  0  0  0  0  0  0
  1  2  1  0
  3  2  1  1
  3  4  1  0
  3 17  1  0
  4  5  1  0
  5  6  2  0
  5  9  1  0
  6  7  1  0
  6 15  1  0
  7  8  2  0
  7 11  1  0
  8  9  1  0
  9 10  1  0
 11 12  1  0
 12 13  2  0
 12 14  1  0
 14 15  1  0
 15 16  1  6
 16 17  1  0
M  END
