
     RDKit          3D

 17 18  0  0  0  0  0  0  0  0999 V2000
   -4.5210    0.5040    0.0660 C   0  0  0  0  0  0  0  0  0  0  0  0
   -3.2440    1.1880   -0.2230 C   0  0  0  0  0  0  0  0  0  0  0  0
   -2.1150    0.5930    0.1020 C   0  0  0  0  0  0  0  0  0  0  0  0
   -2.1350   -0.7630    0.7570 C   0  0  0  0  0  0  0  0  0  0  0  0
   -1.2050   -1.5760   -0.0440 N   0  0  0  0  0  0  0  0  0  0  0  0
   -0.0640   -0.9560   -0.6280 C   0  0  0  0  0  0  0  0  0  0  0  0
    0.6120   -1.4560   -1.5630 O   0  0  0  0  0  0  0  0  0  0  0  0
    0.3280    0.3680   -0.0750 C   0  0  1  0  0  0  0  0  0  0  0  0
    1.4670    0.9260   -0.7300 N   0  0  0  0  0  0  0  0  0  0  0  0
    2.6280    0.4240   -0.4990 C   0  0  0  0  0  0  0  0  0  0  0  0
    2.9590   -0.6880    0.3810 C   0  0  0  0  0  0  0  0  0  0  0  0
    2.2120   -1.3830    1.0880 O   0  0  0  0  0  0  0  0  0  0  0  0
    4.3780   -0.8980    0.3250 N   0  0  0  0  0  0  0  0  0  0  0  0
    4.9340    0.0380   -0.5520 N   0  0  0  0  0  0  0  0  0  0  0  0
    3.8960    0.8590   -1.0710 C   0  0  0  0  0  0  0  0  0  0  0  0
    4.1070    1.7970   -1.8940 O   0  0  0  0  0  0  0  0  0  0  0  0
   -0.8440    1.2070   -0.1530 N   0  0  0  0  0  0  0  0  0  0  0  0
  1  2  1  0
  2  3  2  3
  3  4  1  0
  3 17  1  0
  4  5  1  0
  5  6  1  0
  6  7  2  0
  6  8  1  0
  8  9  1  6
  8 17  1  0
  9 10  2  3
 10 11  1  0
 10 15  1  0
 11 12  2  0
 11 13  1  0
 13 14  1  0
 14 15  1  0
 15 16  2  0
M  END
