
     RDKit          3D

 34 36  0  0  0  0  0  0  0  0999 V2000
    5.0330   -4.8300    0.5420 C   0  0  0  0  0  0  0  0  0  0  0  0
    4.1140   -3.7540    1.0680 C   0  0  0  0  0  0  0  0  0  0  0  0
    3.9370   -2.8080    0.0350 O   0  0  0  0  0  0  0  0  0  0  0  0
    3.1400   -1.6990    0.2180 C   0  0  0  0  0  0  0  0  0  0  0  0
    2.5110   -1.5090    1.4180 C   0  0  0  0  0  0  0  0  0  0  0  0
    1.7120   -0.3790    1.5740 C   0  0  0  0  0  0  0  0  0  0  0  0
    1.5410    0.5370    0.5680 C   0  0  0  0  0  0  0  0  0  0  0  0
    0.6960    1.7060    0.7010 C   0  0  0  0  0  0  0  0  0  0  0  0
    1.2960    2.9790    0.5950 C   0  0  0  0  0  0  0  0  0  0  0  0
    0.5570    4.1110    0.7490 C   0  0  0  0  0  0  0  0  0  0  0  0
    1.1780    5.3490    0.6380 O   0  0  0  0  0  0  0  0  0  0  0  0
    2.5390    5.5100    0.3740 C   0  0  0  0  0  0  0  0  0  0  0  0
   -0.7880    4.0090    1.0100 C   0  0  0  0  0  0  0  0  0  0  0  0
   -1.3600    2.7640    1.1100 C   0  0  0  0  0  0  0  0  0  0  0  0
   -0.6360    1.5750    0.9580 C   0  0  0  0  0  0  0  0  0  0  0  0
   -1.3130    0.3020    1.0370 C   0  0  0  0  0  0  0  0  0  0  0  0
   -1.6680   -0.3670   -0.2650 C   0  0  1  0  0  0  0  0  0  0  0  0
   -2.3170   -1.6180    0.0020 N   0  0  0  0  0  0  0  0  0  0  0  0
   -1.3050   -2.6510    0.3120 C   0  0  0  0  0  0  0  0  0  0  0  0
   -1.7770   -3.4640    1.4370 C   0  0  0  0  0  0  0  0  0  0  0  0
   -1.9410   -4.7260    1.2980 N   0  0  0  0  0  0  0  0  0  0  0  0
   -2.0400   -2.8540    2.6480 O   0  0  0  0  0  0  0  0  0  0  0  0
   -2.9620   -3.4480    3.5420 C   0  0  0  0  0  0  0  0  0  0  0  0
   -2.2600    0.4860   -1.2790 C   0  0  0  0  0  0  0  0  0  0  0  0
   -3.5480    0.5370   -1.5320 C   0  0  0  0  0  0  0  0  0  0  0  0
   -4.6470   -0.4650   -0.6070 Cl  0  0  0  0  0  0  0  0  0  0  0  0
   -4.0860    1.3830   -2.5530 N   0  0  0  0  0  0  0  0  0  0  0  0
   -3.3270    2.3770   -3.2310 C   0  0  0  0  0  0  0  0  0  0  0  0
   -1.8990    2.2870   -2.9250 C   0  0  0  0  0  0  0  0  0  0  0  0
   -0.9490    3.2030   -3.6460 C   0  0  0  0  0  0  0  0  0  0  0  0
   -1.4410    1.4300   -2.0440 C   0  0  0  0  0  0  0  0  0  0  0  0
    2.1900    0.3150   -0.6270 C   0  0  0  0  0  0  0  0  0  0  0  0
    2.9980   -0.8050   -0.8190 C   0  0  0  0  0  0  0  0  0  0  0  0
    3.6680   -1.0680   -2.0020 O   0  0  0  0  0  0  0  0  0  0  0  0
  1  2  1  0
  2  3  1  0
  3  4  1  0
  4  5  2  0
  4 33  1  0
  5  6  1  0
  6  7  2  0
  7  8  1  0
  7 32  1  0
  8  9  2  0
  8 15  1  0
  9 10  1  0
 10 11  1  0
 10 13  2  0
 11 12  1  0
 13 14  1  0
 14 15  2  0
 15 16  1  0
 17 16  1  1
 17 18  1  0
 17 24  1  0
 18 19  1  0
 19 20  1  0
 20 21  2  0
 20 22  1  0
 22 23  1  0
 24 25  2  0
 24 31  1  0
 25 26  1  0
 25 27  1  0
 27 28  1  0
 28 29  1  0
 29 30  1  0
 29 31  2  0
 32 33  2  0
 33 34  1  0
M  CHG  1  18   1
M  END
