
     RDKit          3D

 34 36  0  0  0  0  0  0  0  0999 V2000
    4.3530   -3.5830    0.8480 C   0  0  0  0  0  0  0  0  0  0  0  0
    3.6030   -2.5060    0.7190 C   0  0  0  0  0  0  0  0  0  0  0  0
    4.0320   -1.2480    1.4200 C   0  0  0  0  0  0  0  0  0  0  0  0
    4.2590   -0.1650    0.4670 N   0  0  0  0  0  0  0  0  0  0  0  0
    3.2500    0.6480    0.1420 C   0  0  0  0  0  0  0  0  0  0  0  0
    1.9160    0.4960    0.7070 C   0  0  0  0  0  0  0  0  0  0  0  0
    1.6090    1.1580    1.8750 C   0  0  0  0  0  0  0  0  0  0  0  0
    0.3870    1.0810    2.4840 C   0  0  0  0  0  0  0  0  0  0  0  0
   -0.6500    0.2960    1.9290 C   0  0  0  0  0  0  0  0  0  0  0  0
   -1.8090    0.2690    2.5760 O   0  0  0  0  0  0  0  0  0  0  0  0
   -2.9950   -0.3770    2.2950 C   0  0  0  0  0  0  0  0  0  0  0  0
   -3.5650    0.0740    1.0310 C   0  0  0  0  0  0  0  0  0  0  0  0
   -3.8620    1.5660    0.9830 C   0  0  0  0  0  0  0  0  0  0  0  0
   -3.8360   -0.6160   -0.0150 C   0  0  0  0  0  0  0  0  0  0  0  0
   -4.4020    0.0540   -1.1690 O   0  0  0  0  0  0  0  0  0  0  0  0
   -5.7020    0.5580   -1.0110 C   0  0  0  0  0  0  0  0  0  0  0  0
   -6.2830    1.4850   -1.7550 C   0  0  0  0  0  0  0  0  0  0  0  0
   -5.5790    2.3170   -3.1220 Cl  0  0  0  0  0  0  0  0  0  0  0  0
   -7.6580    1.7370   -1.2620 C   0  0  0  0  0  0  0  0  0  0  0  0
   -7.8110    0.8260   -0.1190 C   0  0  0  0  0  0  0  0  0  0  0  0
   -6.6740    0.1680   -0.0050 C   0  0  0  0  0  0  0  0  0  0  0  0
   -3.6620   -2.0540   -0.2630 C   0  0  2  0  0  0  0  0  0  0  0  0
   -5.0190   -2.6790   -0.5760 C   0  0  0  0  0  0  0  0  0  0  0  0
   -3.0720   -2.7960    0.7100 O   0  0  0  0  0  0  0  0  0  0  0  0
   -0.3470   -0.3640    0.7660 C   0  0  0  0  0  0  0  0  0  0  0  0
    0.9140   -0.2680    0.1630 C   0  0  0  0  0  0  0  0  0  0  0  0
    3.5170    1.6560   -0.7630 C   0  0  0  0  0  0  0  0  0  0  0  0
    4.7360    1.8740   -1.3430 C   0  0  0  0  0  0  0  0  0  0  0  0
    4.9670    2.9360   -2.2800 N   0  0  0  0  0  0  0  0  0  0  0  0
    5.7780    1.0010   -0.9800 C   0  0  0  0  0  0  0  0  0  0  0  0
    7.0750    1.2630   -1.6210 C   0  0  0  0  0  0  0  0  0  0  0  0
    8.0690    0.3210   -1.1850 N   0  0  0  0  0  0  0  0  0  0  0  0
    5.4990    0.0110   -0.0850 C   0  0  0  0  0  0  0  0  0  0  0  0
    6.3770   -0.8110    0.2910 O   0  0  0  0  0  0  0  0  0  0  0  0
  1  2  2  0
  2  3  1  0
  3  4  1  0
  4  5  1  0
  4 33  1  0
  5  6  1  0
  5 27  2  0
  6  7  2  0
  6 26  1  0
  7  8  1  0
  8  9  2  0
  9 10  1  0
  9 25  1  0
 10 11  1  0
 11 12  1  0
 12 13  1  0
 12 14  2  3
 14 15  1  0
 14 22  1  0
 15 16  1  0
 16 17  2  0
 16 21  1  0
 17 18  1  0
 17 19  1  0
 19 20  1  0
 20 21  2  0
 22 23  1  1
 22 24  1  0
 25 26  2  0
 27 28  1  0
 28 29  1  0
 28 30  2  0
 30 31  1  0
 30 33  1  0
 31 32  1  0
 33 34  2  0
M  CHG  1  32   1
M  END
