
     RDKit          3D

 34 36  0  0  0  0  0  0  0  0999 V2000
   -4.1450    4.4500   -2.7350 C   0  0  0  0  0  0  0  0  0  0  0  0
   -3.0820    3.3640   -2.6130 C   0  0  0  0  0  0  0  0  0  0  0  0
   -2.9620    2.9760   -1.2260 N   0  0  0  0  0  0  0  0  0  0  0  0
   -2.0380    1.9770   -0.8360 C   0  0  0  0  0  0  0  0  0  0  0  0
   -0.3480    2.2770   -1.1390 Cl  0  0  0  0  0  0  0  0  0  0  0  0
   -2.4810    0.8520   -0.2520 C   0  0  0  0  0  0  0  0  0  0  0  0
   -3.7920    0.5600    0.0170 N   0  0  0  0  0  0  0  0  0  0  0  0
   -3.8790   -0.6230    0.5970 C   0  0  0  0  0  0  0  0  0  0  0  0
   -4.9270   -1.3010    1.0250 C   0  0  0  0  0  0  0  0  0  0  0  0
   -4.7900   -2.6330    1.6560 C   0  0  0  0  0  0  0  0  0  0  0  0
   -3.6760   -3.1540    1.8010 O   0  0  0  0  0  0  0  0  0  0  0  0
   -5.9670   -3.3890    2.1350 C   0  0  0  0  0  0  0  0  0  0  0  0
   -7.1530   -2.8600    1.9940 C   0  0  0  0  0  0  0  0  0  0  0  0
   -7.3300   -1.5520    1.3790 C   0  0  0  0  0  0  0  0  0  0  0  0
   -6.2770   -0.8180    0.9220 C   0  0  0  0  0  0  0  0  0  0  0  0
   -6.6640    0.4610    0.3400 C   0  0  0  0  0  0  0  0  0  0  0  0
   -2.5660   -1.0980    0.6990 C   0  0  0  0  0  0  0  0  0  0  0  0
   -1.6840   -0.1660    0.1620 C   0  0  0  0  0  0  0  0  0  0  0  0
   -0.2790   -0.2690    0.0740 O   0  0  0  0  0  0  0  0  0  0  0  0
    0.2900   -1.4330    0.5850 C   0  0  0  0  0  0  0  0  0  0  0  0
    1.7630   -1.5660    0.5000 C   0  0  0  0  0  0  0  0  0  0  0  0
    2.3650   -1.5710   -0.8610 C   0  0  1  0  0  0  0  0  0  0  0  0
    1.8430   -2.7380   -1.6990 C   0  0  0  0  0  0  0  0  0  0  0  0
    1.9630   -0.2830   -1.5830 C   0  0  0  0  0  0  0  0  0  0  0  0
    3.7570   -1.6360   -0.9000 O   0  0  0  0  0  0  0  0  0  0  0  0
    4.6750   -0.7770   -0.3720 C   0  0  0  0  0  0  0  0  0  0  0  0
    5.1320    0.3270   -1.0960 C   0  0  0  0  0  0  0  0  0  0  0  0
    6.0610    1.2040   -0.5710 C   0  0  0  0  0  0  0  0  0  0  0  0
    6.5780    1.0290    0.6900 C   0  0  0  0  0  0  0  0  0  0  0  0
    7.5400    1.9330    1.2410 N   0  0  0  0  0  0  0  0  0  0  0  0
    8.7930    1.2220    1.5330 C   0  0  0  0  0  0  0  0  0  0  0  0
    6.1290   -0.0560    1.3990 C   0  0  0  0  0  0  0  0  0  0  0  0
    5.1850   -0.9620    0.8860 C   0  0  0  0  0  0  0  0  0  0  0  0
    4.8320   -2.0090    1.7110 O   0  0  0  0  0  0  0  0  0  0  0  0
  1  2  1  0
  2  3  1  0
  3  4  1  0
  4  5  1  0
  4  6  2  3
  6  7  1  0
  6 18  1  0
  7  8  1  0
  8  9  2  3
  8 17  1  0
  9 10  1  0
  9 15  1  0
 10 11  2  0
 10 12  1  0
 12 13  2  0
 13 14  1  0
 14 15  2  0
 15 16  1  0
 17 18  2  0
 18 19  1  0
 19 20  1  0
 20 21  1  0
 21 22  1  0
 22 23  1  6
 22 24  1  0
 22 25  1  0
 25 26  1  0
 26 27  2  0
 26 33  1  0
 27 28  1  0
 28 29  2  0
 29 30  1  0
 29 32  1  0
 30 31  1  0
 32 33  2  0
 33 34  1  0
M  CHG  1  30   1
M  END
