
     RDKit          3D

 36 39  0  0  0  0  0  0  0  0999 V2000
    8.6660   -0.9940   -1.8700 N   0  0  0  0  0  0  0  0  0  0  0  0
    8.5880   -2.2730   -1.2150 C   0  0  0  0  0  0  0  0  0  0  0  0
    7.1630   -2.7950   -1.1500 C   0  0  0  0  0  0  0  0  0  0  0  0
    6.3820   -1.8270   -0.4070 N   0  0  0  0  0  0  0  0  0  0  0  0
    4.9840   -2.0550   -0.1830 C   0  0  0  0  0  0  0  0  0  0  0  0
    4.4510   -3.0800   -0.6230 O   0  0  0  0  0  0  0  0  0  0  0  0
    4.2000   -1.1130    0.5430 N   0  0  0  0  0  0  0  0  0  0  0  0
    2.8070   -1.2710    0.8080 C   0  0  1  0  0  0  0  0  0  0  0  0
    2.5040   -1.3690    2.2970 C   0  0  0  0  0  0  0  0  0  0  0  0
    2.8760   -0.1250    3.0520 C   0  0  0  0  0  0  0  0  0  0  0  0
    2.6650    1.1560    2.3420 C   0  0  0  0  0  0  0  0  0  0  0  0
    1.9030    1.0000    1.0870 C   0  0  0  0  0  0  0  0  0  0  0  0
    1.1090    2.0890    0.6830 C   0  0  0  0  0  0  0  0  0  0  0  0
    0.3770    2.0250   -0.4840 C   0  0  0  0  0  0  0  0  0  0  0  0
    0.4390    0.8780   -1.2420 C   0  0  0  0  0  0  0  0  0  0  0  0
   -0.2990    0.8030   -2.4220 O   0  0  0  0  0  0  0  0  0  0  0  0
   -1.2020    1.7930   -2.7720 C   0  0  0  0  0  0  0  0  0  0  0  0
   -1.0540    2.5560   -3.9100 C   0  0  0  0  0  0  0  0  0  0  0  0
   -1.9760    3.5280   -4.2190 C   0  0  0  0  0  0  0  0  0  0  0  0
   -3.0740    3.7880   -3.4230 C   0  0  0  0  0  0  0  0  0  0  0  0
   -3.2120    3.0160   -2.2830 C   0  0  0  0  0  0  0  0  0  0  0  0
   -2.3000    2.0250   -1.9410 C   0  0  0  0  0  0  0  0  0  0  0  0
   -2.4150    1.2480   -0.8250 O   0  0  0  0  0  0  0  0  0  0  0  0
   -3.3940    1.2620    0.1590 C   0  0  2  0  0  0  0  0  0  0  0  0
   -2.8490    1.5160    1.5600 C   0  0  0  0  0  0  0  0  0  0  0  0
   -1.9040    0.4820    1.9170 N   0  0  0  0  0  0  0  0  0  0  0  0
   -4.1480   -0.0220    0.2220 C   0  0  0  0  0  0  0  0  0  0  0  0
   -3.5240   -1.2610    0.1230 C   0  0  0  0  0  0  0  0  0  0  0  0
   -4.2470   -2.4300    0.1870 C   0  0  0  0  0  0  0  0  0  0  0  0
   -5.5750   -2.3150    0.3500 N   0  0  0  0  0  0  0  0  0  0  0  0
   -6.2140   -1.1460    0.4500 C   0  0  0  0  0  0  0  0  0  0  0  0
   -7.6790   -1.0910    0.6280 C   0  0  0  0  0  0  0  0  0  0  0  0
   -8.0610   -1.1120    2.0260 N   0  0  0  0  0  0  0  0  0  0  0  0
   -5.5120    0.0310    0.3880 C   0  0  0  0  0  0  0  0  0  0  0  0
    1.2280   -0.2020   -0.8390 C   0  0  0  0  0  0  0  0  0  0  0  0
    1.9620   -0.1440    0.3260 C   0  0  0  0  0  0  0  0  0  0  0  0
  1  2  1  0
  2  3  1  0
  3  4  1  0
  4  5  1  0
  5  6  2  0
  5  7  1  0
  8  7  1  1
  8  9  1  0
  8 36  1  0
  9 10  1  0
 10 11  1  0
 11 12  1  0
 12 13  2  0
 12 36  1  0
 13 14  1  0
 14 15  2  0
 15 16  1  0
 15 35  1  0
 16 17  1  0
 17 18  2  0
 17 22  1  0
 18 19  1  0
 19 20  2  0
 20 21  1  0
 21 22  2  0
 22 23  1  0
 23 24  1  0
 24 25  1  1
 24 27  1  0
 25 26  1  0
 27 28  2  0
 27 34  1  0
 28 29  1  0
 29 30  2  0
 30 31  1  0
 31 32  1  0
 31 34  2  0
 32 33  1  0
 35 36  2  0
M  CHG  4   1   1  26   1  30   1  33   1
M  END
