
     RDKit          3D

 36 39  0  0  0  0  0  0  0  0999 V2000
    9.7970   -1.9330    0.8430 C   0  0  0  0  0  0  0  0  0  0  0  0
    9.9560   -1.2800   -0.5340 C   0  0  0  0  0  0  0  0  0  0  0  0
   10.1930    0.1700   -0.4270 C   0  0  0  0  0  0  0  0  0  0  0  0
   11.4130    0.5420   -0.3990 O   0  0  0  0  0  0  0  0  0  0  0  0
    9.1800    1.1430   -0.3550 N   0  0  0  0  0  0  0  0  0  0  0  0
    9.3770    2.4540   -0.2680 N   0  0  0  0  0  0  0  0  0  0  0  0
    8.2120    3.1200   -0.2090 C   0  0  0  0  0  0  0  0  0  0  0  0
    7.2060    2.1760   -0.2600 C   0  0  0  0  0  0  0  0  0  0  0  0
    5.8550    1.9300   -0.2590 C   0  0  0  0  0  0  0  0  0  0  0  0
    5.5990    0.5850   -0.3450 C   0  0  0  0  0  0  0  0  0  0  0  0
    4.3470   -0.0770   -0.3850 N   0  0  0  0  0  0  0  0  0  0  0  0
    3.1230    0.5760   -0.5080 C   0  0  0  0  0  0  0  0  0  0  0  0
    3.0710    1.8370   -0.5960 O   0  0  0  0  0  0  0  0  0  0  0  0
    1.8490   -0.1430   -0.5440 C   0  0  0  0  0  0  0  0  0  0  0  0
    1.7380   -1.4230   -0.0560 C   0  0  0  0  0  0  0  0  0  0  0  0
    0.5200   -2.0980   -0.1080 C   0  0  0  0  0  0  0  0  0  0  0  0
   -0.5810   -1.4970   -0.6440 C   0  0  0  0  0  0  0  0  0  0  0  0
   -1.8250   -2.0950   -0.7330 O   0  0  0  0  0  0  0  0  0  0  0  0
   -2.7090   -1.8370    0.3270 C   0  0  0  0  0  0  0  0  0  0  0  0
   -2.7340   -2.7310    1.3760 C   0  0  0  0  0  0  0  0  0  0  0  0
   -3.5810   -2.5190    2.4320 C   0  0  0  0  0  0  0  0  0  0  0  0
   -4.3790   -1.4200    2.4090 C   0  0  0  0  0  0  0  0  0  0  0  0
   -4.3720   -0.5120    1.3730 C   0  0  0  0  0  0  0  0  0  0  0  0
   -5.2700    0.6650    1.4460 C   0  0  1  0  0  0  0  0  0  0  0  0
   -4.6120    1.8840    1.0110 N   0  0  0  0  0  0  0  0  0  0  0  0
   -6.6480    0.4660    0.9730 C   0  0  0  0  0  0  0  0  0  0  0  0
   -6.9270    0.0440   -0.4020 C   0  0  2  0  0  0  0  0  0  0  0  0
   -8.4690   -0.0440   -0.5030 C   0  0  0  0  0  0  0  0  0  0  0  0
   -6.4370   -1.2510   -0.7770 N   0  0  0  0  0  0  0  0  0  0  0  0
   -6.5360    1.0060   -1.4940 C   0  0  0  0  0  0  0  0  0  0  0  0
   -7.1850    2.2900   -1.4050 N   0  0  0  0  0  0  0  0  0  0  0  0
   -3.5220   -0.7390    0.3290 C   0  0  0  0  0  0  0  0  0  0  0  0
   -0.4560   -0.2130   -1.1300 C   0  0  0  0  0  0  0  0  0  0  0  0
    0.7370    0.4710   -1.0890 C   0  0  0  0  0  0  0  0  0  0  0  0
    6.8510   -0.0370   -0.4040 C   0  0  0  0  0  0  0  0  0  0  0  0
    7.8570    0.8760   -0.3560 C   0  0  0  0  0  0  0  0  0  0  0  0
  1  2  1  0
  2  3  1  0
  3  4  2  0
  3  5  1  0
  5  6  1  0
  5 36  1  0
  6  7  1  0
  7  8  2  0
  8  9  1  0
  8 36  1  0
  9 10  2  0
 10 11  1  0
 10 35  1  0
 11 12  1  0
 12 13  2  0
 12 14  1  0
 14 15  2  0
 14 34  1  0
 15 16  1  0
 16 17  2  0
 17 18  1  0
 17 33  1  0
 18 19  1  0
 19 20  2  0
 19 32  1  0
 20 21  1  0
 21 22  2  0
 22 23  1  0
 23 24  1  0
 23 32  2  0
 24 25  1  6
 24 26  1  0
 26 27  1  0
 27 28  1  1
 27 29  1  0
 27 30  1  0
 30 31  1  0
 33 34  2  0
 35 36  2  0
M  CHG  3  25   1  29   1  31   1
M  END
