
     RDKit          3D

 36 39  0  0  0  0  0  0  0  0999 V2000
    0.8280    5.6080    2.9620 C   0  0  0  0  0  0  0  0  0  0  0  0
    0.7910    4.0460    3.0810 C   0  0  0  0  0  0  0  0  0  0  0  0
    0.2750    3.5200    1.8530 N   0  0  0  0  0  0  0  0  0  0  0  0
   -0.0470    2.2130    1.4520 C   0  0  0  0  0  0  0  0  0  0  0  0
    0.0440    1.3640    2.3610 O   0  0  0  0  0  0  0  0  0  0  0  0
   -0.4080    1.7820    0.0760 C   0  0  0  0  0  0  0  0  0  0  0  0
   -0.3660    2.5410   -0.9740 C   0  0  0  0  0  0  0  0  0  0  0  0
    0.0640    3.9550   -0.9740 C   0  0  0  0  0  0  0  0  0  0  0  0
   -0.8410    2.0940   -2.2680 N   0  0  0  0  0  0  0  0  0  0  0  0
   -1.3810    0.7960   -2.3260 C   0  0  0  0  0  0  0  0  0  0  0  0
   -1.7870    0.5120   -3.5390 O   0  0  0  0  0  0  0  0  0  0  0  0
   -1.4780   -0.0840   -1.1960 C   0  0  0  0  0  0  0  0  0  0  0  0
   -1.9710   -1.3380   -1.3500 C   0  0  0  0  0  0  0  0  0  0  0  0
   -2.3370   -1.9520   -2.4840 N   0  0  0  0  0  0  0  0  0  0  0  0
   -1.6900   -1.9120   -3.7940 C   0  0  0  0  0  0  0  0  0  0  0  0
   -3.2540   -2.9220   -2.2550 C   0  0  0  0  0  0  0  0  0  0  0  0
   -3.7910   -3.6650   -3.1450 O   0  0  0  0  0  0  0  0  0  0  0  0
   -3.4900   -2.9620   -0.9360 C   0  0  0  0  0  0  0  0  0  0  0  0
   -2.6930   -1.9880   -0.3720 N   0  0  0  0  0  0  0  0  0  0  0  0
   -2.8590   -1.8920    1.0410 C   0  0  0  0  0  0  0  0  0  0  0  0
   -3.0870   -3.2430    1.6440 N   0  0  0  0  0  0  0  0  0  0  0  0
   -4.3990   -3.6330    1.2060 C   0  0  0  0  0  0  0  0  0  0  0  0
   -4.2840   -3.7830   -0.2480 C   0  0  0  0  0  0  0  0  0  0  0  0
   -5.2510   -5.1370   -1.1630 Br  0  0  0  0  0  0  0  0  0  0  0  0
   -0.7330    0.3060    0.0450 C   0  0  1  0  0  0  0  0  0  0  0  0
    0.5630   -0.4890    0.0700 C   0  0  0  0  0  0  0  0  0  0  0  0
    0.5100   -1.8060   -0.1160 C   0  0  0  0  0  0  0  0  0  0  0  0
    1.6290   -2.6350   -0.2350 C   0  0  0  0  0  0  0  0  0  0  0  0
    2.8380   -2.0270   -0.1440 C   0  0  0  0  0  0  0  0  0  0  0  0
    4.0260   -2.7640   -0.2390 O   0  0  0  0  0  0  0  0  0  0  0  0
    3.0110   -0.6150    0.0670 C   0  0  0  0  0  0  0  0  0  0  0  0
    4.3850   -0.1480   -0.1070 C   0  0  0  0  0  0  0  0  0  0  0  0
    4.9450    0.4540    1.1080 N   0  0  0  0  0  0  0  0  0  0  0  0
    6.7080    0.6830    0.8300 S   0  0  0  0  0  0  0  0  0  0  0  0
    6.8560    0.8440   -0.6960 O   0  0  0  0  0  0  0  0  0  0  0  0
    1.8460    0.1090    0.1680 C   0  0  0  0  0  0  0  0  0  0  0  0
  1  2  1  0
  2  3  1  0
  3  4  1  0
  4  5  2  0
  4  6  1  0
  6  7  2  0
  6 25  1  0
  7  8  1  0
  7  9  1  0
  9 10  1  0
 10 11  2  0
 10 12  1  0
 12 13  2  3
 12 25  1  0
 13 14  1  0
 13 19  1  0
 14 15  1  0
 14 16  1  0
 16 17  2  0
 16 18  1  0
 18 19  1  0
 18 23  2  0
 19 20  1  0
 20 21  1  0
 21 22  1  0
 22 23  1  0
 23 24  1  0
 25 26  1  6
 26 27  2  0
 26 36  1  0
 27 28  1  0
 28 29  2  0
 29 30  1  0
 29 31  1  0
 31 32  1  0
 31 36  2  0
 32 33  1  0
 33 34  1  0
 34 35  2  0
M  CHG  1  21   1
M  END
