
     RDKit          3D

 36 40  0  0  0  0  0  0  0  0999 V2000
   -1.9800    6.1020   -0.9450 N   0  0  0  0  0  0  0  0  0  0  0  0
   -3.2110    5.6570   -0.3950 C   0  0  0  0  0  0  0  0  0  0  0  0
   -4.2540    6.3640   -0.5290 N   0  0  0  0  0  0  0  0  0  0  0  0
   -3.2530    4.3870    0.3190 C   0  0  0  0  0  0  0  0  0  0  0  0
   -4.4010    3.9020    0.8710 C   0  0  0  0  0  0  0  0  0  0  0  0
   -4.3510    2.6810    1.5340 C   0  0  0  0  0  0  0  0  0  0  0  0
   -3.1950    1.9760    1.6380 C   0  0  0  0  0  0  0  0  0  0  0  0
   -2.0070    2.4670    1.0740 C   0  0  0  0  0  0  0  0  0  0  0  0
   -0.8370    1.6290    1.2470 C   0  0  0  0  0  0  0  0  0  0  0  0
   -0.4930    0.6580    0.1620 C   0  0  1  0  0  0  0  0  0  0  0  0
    0.7210   -0.0290    0.6540 N   0  0  0  0  0  0  0  0  0  0  0  0
    1.9070    0.0060   -0.1050 C   0  0  0  0  0  0  0  0  0  0  0  0
    1.8900    0.6420   -1.2100 O   0  0  0  0  0  0  0  0  0  0  0  0
    3.1210   -0.6150    0.2740 N   0  0  0  0  0  0  0  0  0  0  0  0
    4.2660   -0.5150   -0.5740 C   0  0  1  0  0  0  0  0  0  0  0  0
    5.4150    0.2550    0.0890 C   0  0  2  0  0  0  0  0  0  0  0  0
    6.4010    0.5520   -1.0460 C   0  0  0  0  0  0  0  0  0  0  0  0
    6.8780   -0.7290   -1.6650 C   0  0  1  0  0  0  0  0  0  0  0  0
    7.5990   -1.5160   -0.5850 C   0  0  0  0  0  0  0  0  0  0  0  0
    6.6600   -1.7940    0.5510 C   0  0  1  0  0  0  0  0  0  0  0  0
    6.0780   -0.5460    1.1620 C   0  0  0  0  0  0  0  0  0  0  0  0
    5.5010   -2.6180    0.0250 C   0  0  0  0  0  0  0  0  0  0  0  0
    4.7720   -1.8620   -1.0450 C   0  0  2  0  0  0  0  0  0  0  0  0
    5.7570   -1.5950   -2.1780 C   0  0  0  0  0  0  0  0  0  0  0  0
   -1.5280   -0.3920    0.0190 C   0  0  0  0  0  0  0  0  0  0  0  0
   -1.3120   -1.5900    0.4160 O   0  0  0  0  0  0  0  0  0  0  0  0
   -2.8130   -0.1800   -0.5540 N   0  0  0  0  0  0  0  0  0  0  0  0
   -3.8260   -1.2050   -0.6870 C   0  0  0  0  0  0  0  0  0  0  0  0
   -4.2470   -1.7820    0.6500 C   0  0  0  0  0  0  0  0  0  0  0  0
   -5.2880   -2.8280    0.4770 C   0  0  0  0  0  0  0  0  0  0  0  0
   -6.6290   -2.4470    0.4930 C   0  0  0  0  0  0  0  0  0  0  0  0
   -7.5750   -3.4220    0.3310 C   0  0  0  0  0  0  0  0  0  0  0  0
   -7.2650   -4.7570    0.1550 C   0  0  0  0  0  0  0  0  0  0  0  0
   -5.9170   -5.1150    0.1420 C   0  0  0  0  0  0  0  0  0  0  0  0
   -4.9430   -4.1460    0.3040 C   0  0  0  0  0  0  0  0  0  0  0  0
   -2.0730    3.6510    0.4350 C   0  0  0  0  0  0  0  0  0  0  0  0
  1  2  1  0
  2  3  2  0
  2  4  1  0
  4  5  2  0
  4 36  1  0
  5  6  1  0
  6  7  2  0
  7  8  1  0
  8  9  1  0
  8 36  2  0
 10  9  1  1
 10 11  1  0
 10 25  1  0
 11 12  1  0
 12 13  2  0
 12 14  1  0
 15 14  1  1
 15 16  1  0
 15 23  1  0
 16 17  1  0
 16 21  1  1
 18 17  1  1
 18 19  1  0
 18 24  1  0
 19 20  1  0
 20 21  1  6
 20 22  1  0
 23 22  1  1
 23 24  1  0
 25 26  2  0
 25 27  1  0
 27 28  1  0
 28 29  1  0
 29 30  1  0
 30 31  2  0
 30 35  1  0
 31 32  1  0
 32 33  2  0
 33 34  1  0
 34 35  2  0
M  CHG  1   3   1
M  END
