
     RDKit          3D

 36 39  0  0  0  0  0  0  0  0999 V2000
   10.5190    0.9460    2.1070 C   0  0  0  0  0  0  0  0  0  0  0  0
    9.2780    0.7990    1.2700 C   0  0  0  0  0  0  0  0  0  0  0  0
    9.0860    1.4290    0.1240 N   0  0  0  0  0  0  0  0  0  0  0  0
    7.8660    1.0810   -0.3810 C   0  0  0  0  0  0  0  0  0  0  0  0
    7.3250    0.2040    0.5170 C   0  0  0  0  0  0  0  0  0  0  0  0
    6.0550   -0.4940    0.5040 C   0  0  0  0  0  0  0  0  0  0  0  0
    5.7960   -1.2080    1.5420 O   0  0  0  0  0  0  0  0  0  0  0  0
    5.0750   -0.4730   -0.5190 N   0  0  0  0  0  0  0  0  0  0  0  0
    5.2130    0.2150   -1.7570 C   0  0  0  0  0  0  0  0  0  0  0  0
    3.8560   -0.5120   -2.7740 S   0  0  0  0  0  0  0  0  0  0  0  0
    3.5740   -1.9460   -1.6350 C   0  0  0  0  0  0  0  0  0  0  0  0
    3.8030   -1.1250   -0.3540 C   0  0  2  0  0  0  0  0  0  0  0  0
    2.7170   -0.0800   -0.3370 C   0  0  0  0  0  0  0  0  0  0  0  0
    3.0240    1.1350   -0.5780 O   0  0  0  0  0  0  0  0  0  0  0  0
    1.3610   -0.3810   -0.0630 N   0  0  0  0  0  0  0  0  0  0  0  0
    0.9100   -1.7240    0.2330 C   0  0  0  0  0  0  0  0  0  0  0  0
   -0.0700   -1.7490    1.3550 C   0  0  0  0  0  0  0  0  0  0  0  0
   -1.2000   -0.8400    1.1870 N   0  0  0  0  0  0  0  0  0  0  0  0
   -1.9190   -1.2480   -0.0120 C   0  0  0  0  0  0  0  0  0  0  0  0
   -3.2460   -0.5890   -0.1260 C   0  0  0  0  0  0  0  0  0  0  0  0
   -3.7680    0.2080    0.8360 C   0  0  0  0  0  0  0  0  0  0  0  0
   -5.0340    0.8130    0.6930 C   0  0  0  0  0  0  0  0  0  0  0  0
   -5.5080    1.6010    1.6890 O   0  0  0  0  0  0  0  0  0  0  0  0
   -6.6310    2.3380    1.8910 C   0  0  0  0  0  0  0  0  0  0  0  0
   -6.9110    3.4860    0.9820 C   0  0  0  0  0  0  0  0  0  0  0  0
   -8.1730    4.1300    1.3930 N   0  0  0  0  0  0  0  0  0  0  0  0
   -5.7670    0.5940   -0.4470 C   0  0  0  0  0  0  0  0  0  0  0  0
   -5.2450   -0.2140   -1.4240 C   0  0  0  0  0  0  0  0  0  0  0  0
   -6.2680   -0.5200   -3.0170 Br  0  0  0  0  0  0  0  0  0  0  0  0
   -3.9790   -0.8120   -1.2700 C   0  0  0  0  0  0  0  0  0  0  0  0
   -3.5630   -1.6070   -2.3180 O   0  0  0  0  0  0  0  0  0  0  0  0
   -3.9620   -2.9230   -2.4570 C   0  0  0  0  0  0  0  0  0  0  0  0
   -3.6300   -3.8100   -1.3840 N   0  0  0  0  0  0  0  0  0  0  0  0
   -0.6330    0.4920    1.0410 C   0  0  0  0  0  0  0  0  0  0  0  0
    0.3520    0.6500   -0.0640 C   0  0  0  0  0  0  0  0  0  0  0  0
    8.2360    0.0820    1.4890 O   0  0  0  0  0  0  0  0  0  0  0  0
  1  2  1  0
  2  3  2  0
  2 36  1  0
  3  4  1  0
  4  5  2  0
  5  6  1  0
  5 36  1  0
  6  7  2  0
  6  8  1  0
  8  9  1  0
  8 12  1  0
  9 10  1  0
 10 11  1  0
 11 12  1  0
 12 13  1  6
 13 14  2  0
 13 15  1  0
 15 16  1  0
 15 35  1  0
 16 17  1  0
 17 18  1  0
 18 19  1  0
 18 34  1  0
 19 20  1  0
 20 21  2  0
 20 30  1  0
 21 22  1  0
 22 23  1  0
 22 27  2  0
 23 24  1  0
 24 25  1  0
 25 26  1  0
 27 28  1  0
 28 29  1  0
 28 30  2  0
 30 31  1  0
 31 32  1  0
 32 33  1  0
 34 35  1  0
M  CHG  1  26   1
M  END
