
     RDKit          3D

 36 39  0  0  0  0  0  0  0  0999 V2000
   -4.2640   -1.1490   -1.3910 O   0  0  0  0  0  0  0  0  0  0  0  0
   -3.1840   -0.6290   -1.0240 C   0  0  0  0  0  0  0  0  0  0  0  0
   -3.1280    0.5700   -0.2610 C   0  0  0  0  0  0  0  0  0  0  0  0
   -4.1160    1.2700    0.2190 C   0  0  0  0  0  0  0  0  0  0  0  0
   -5.5070    0.9820    0.1000 C   0  0  0  0  0  0  0  0  0  0  0  0
   -5.9420   -0.0200   -0.4940 O   0  0  0  0  0  0  0  0  0  0  0  0
   -6.5100    1.8340    0.6700 N   0  0  0  0  0  0  0  0  0  0  0  0
   -7.9020    1.4150    0.6400 C   0  0  0  0  0  0  0  0  0  0  0  0
   -8.6670    2.3660   -0.2460 C   0  0  0  0  0  0  0  0  0  0  0  0
   -8.3260    3.7490    0.0380 N   0  0  0  0  0  0  0  0  0  0  0  0
   -7.1360    4.1310    0.6810 C   0  0  0  0  0  0  0  0  0  0  0  0
   -6.8460    5.3400    0.7600 O   0  0  0  0  0  0  0  0  0  0  0  0
   -6.2250    3.0910    1.2710 C   0  0  0  0  0  0  0  0  0  0  0  0
   -1.9650   -1.3800   -1.4500 C   0  0  0  0  0  0  0  0  0  0  0  0
   -0.7230   -0.7850   -1.0070 C   0  0  2  0  0  0  0  0  0  0  0  0
   -0.3850    0.9290   -1.7620 Br  0  0  0  0  0  0  0  0  0  0  0  0
    0.5040   -1.6880   -1.0610 C   0  0  1  0  0  0  0  0  0  0  0  0
    1.6110   -0.9240   -0.5430 C   0  0  0  0  0  0  0  0  0  0  0  0
    1.6780   -0.1540    0.3350 O   0  0  0  0  0  0  0  0  0  0  0  0
    3.1160   -1.2030   -1.3410 N   0  0  0  0  0  0  0  0  0  0  0  0
    3.9290   -0.4890   -0.4420 C   0  0  0  0  0  0  0  0  0  0  0  0
    3.7630    0.3120    0.4060 O   0  0  0  0  0  0  0  0  0  0  0  0
    5.3330   -0.9240   -0.7200 N   0  0  0  0  0  0  0  0  0  0  0  0
    6.4160   -0.3820   -0.0480 C   0  0  0  0  0  0  0  0  0  0  0  0
    7.6040   -0.5130   -0.0060 N   0  0  0  0  0  0  0  0  0  0  0  0
    8.4690    0.1440    0.6830 C   0  0  0  0  0  0  0  0  0  0  0  0
    9.8630   -0.0270    0.7060 C   0  0  0  0  0  0  0  0  0  0  0  0
   10.5960    0.7800    1.4950 C   0  0  0  0  0  0  0  0  0  0  0  0
   10.1330    1.7930    2.3180 C   0  0  0  0  0  0  0  0  0  0  0  0
    8.7570    1.9740    2.3080 C   0  0  0  0  0  0  0  0  0  0  0  0
    7.9650    1.1590    1.5050 C   0  0  0  0  0  0  0  0  0  0  0  0
    6.2070    1.0270    1.1540 S   0  0  0  0  0  0  0  0  0  0  0  0
    0.2420   -2.7560    0.0420 C   0  0  0  0  0  0  0  0  0  0  0  0
   -0.2150   -3.9590   -0.6880 C   0  0  0  0  0  0  0  0  0  0  0  0
   -0.1940   -3.6550   -2.1360 C   0  0  0  0  0  0  0  0  0  0  0  0
    0.6450   -2.4540   -2.2240 N   0  0  0  0  0  0  0  0  0  0  0  0
  1  2  2  0
  2  3  1  0
  2 14  1  0
  3  4  2  3
  4  5  1  0
  5  6  2  0
  5  7  1  0
  7  8  1  0
  7 13  1  0
  8  9  1  0
  9 10  1  0
 10 11  1  0
 11 12  2  0
 11 13  1  0
 14 15  1  0
 15 16  1  6
 15 17  1  0
 17 18  1  1
 17 33  1  0
 17 36  1  0
 18 19  2  0
 18 20  1  0
 20 21  1  0
 21 22  2  0
 21 23  1  0
 23 24  1  0
 24 25  2  0
 24 32  1  0
 25 26  1  0
 26 27  2  0
 26 31  1  0
 27 28  1  0
 28 29  2  0
 29 30  1  0
 30 31  2  0
 31 32  1  0
 33 34  1  0
 34 35  1  0
 35 36  1  0
M  CHG  1  36   1
M  END
