
     RDKit          3D

 35 39  0  0  0  0  0  0  0  0999 V2000
   -6.7300    2.5220   -0.1570 C   0  0  0  0  0  0  0  0  0  0  0  0
   -5.8440    1.5030    0.4760 C   0  0  1  0  0  0  0  0  0  0  0  0
   -5.9560    0.1180   -0.0650 C   0  0  0  0  0  0  0  0  0  0  0  0
   -4.7030   -0.6540    0.4580 C   0  0  0  0  0  0  0  0  0  0  0  0
   -3.5490   -0.4300   -0.4810 C   0  0  2  0  0  0  0  0  0  0  0  0
   -2.2140   -0.8630   -0.1210 C   0  0  0  0  0  0  0  0  0  0  0  0
   -2.0430   -2.2460    0.1550 C   0  0  0  0  0  0  0  0  0  0  0  0
   -3.2600   -3.0660    0.4750 C   0  0  1  0  0  0  0  0  0  0  0  0
   -3.4040   -4.3920   -0.1910 C   0  0  0  0  0  0  0  0  0  0  0  0
   -2.7800   -4.4760    1.1020 C   0  0  0  0  0  0  0  0  0  0  0  0
   -0.8090   -2.7010    0.2360 N   0  0  0  0  0  0  0  0  0  0  0  0
    0.3030   -1.9230    0.0710 C   0  0  0  0  0  0  0  0  0  0  0  0
    1.3840   -2.5110    0.1810 O   0  0  0  0  0  0  0  0  0  0  0  0
    0.1980   -0.6340   -0.1890 N   0  0  0  0  0  0  0  0  0  0  0  0
    1.2780    0.2390   -0.4130 N   0  0  0  0  0  0  0  0  0  0  0  0
    2.6380   -0.0370   -0.1670 C   0  0  0  0  0  0  0  0  0  0  0  0
    2.9840   -1.1050    0.3450 O   0  0  0  0  0  0  0  0  0  0  0  0
    3.7110    0.9050   -0.5050 C   0  0  0  0  0  0  0  0  0  0  0  0
    3.3770    1.8730   -1.2950 O   0  0  0  0  0  0  0  0  0  0  0  0
    5.0640    0.8610   -0.0620 C   0  0  0  0  0  0  0  0  0  0  0  0
    5.4480    0.0780    0.9910 C   0  0  0  0  0  0  0  0  0  0  0  0
    6.7490   -0.0440    1.4460 C   0  0  0  0  0  0  0  0  0  0  0  0
    7.7330    0.6840    0.7840 C   0  0  0  0  0  0  0  0  0  0  0  0
    9.0130    0.5980    1.1990 N   0  0  0  0  0  0  0  0  0  0  0  0
    9.9900    1.3020    0.5730 C   0  0  0  0  0  0  0  0  0  0  0  0
   11.1900    1.2160    0.9830 O   0  0  0  0  0  0  0  0  0  0  0  0
    9.6920    2.1010   -0.4810 C   0  0  0  0  0  0  0  0  0  0  0  0
    8.3780    2.2030   -0.9280 C   0  0  0  0  0  0  0  0  0  0  0  0
    7.3830    1.4860   -0.2890 C   0  0  0  0  0  0  0  0  0  0  0  0
    6.0460    1.5750   -0.7120 C   0  0  0  0  0  0  0  0  0  0  0  0
   -1.0910   -0.0960   -0.2880 C   0  0  0  0  0  0  0  0  0  0  0  0
   -1.0490    1.4730   -0.8140 S   0  0  0  0  0  0  0  0  0  0  0  0
   -3.5610    1.1210   -0.5960 C   0  0  1  0  0  0  0  0  0  0  0  0
   -4.0120    1.4850   -1.9670 C   0  0  0  0  0  0  0  0  0  0  0  0
   -4.3920    1.7970    0.5050 C   0  0  0  0  0  0  0  0  0  0  0  0
  2  1  1  6
  2  3  1  0
  2 35  1  0
  3  4  1  0
  4  5  1  0
  5  6  1  1
  5 33  1  0
  6  7  2  0
  6 31  1  0
  8  7  1  6
  7 11  1  0
  8  9  1  0
  8 10  1  0
  9 10  1  0
 11 12  1  0
 12 13  2  0
 12 14  1  0
 14 15  1  0
 14 31  1  0
 15 16  1  0
 16 17  2  0
 16 18  1  0
 18 19  2  0
 18 20  1  0
 20 21  2  0
 20 30  1  0
 21 22  1  0
 22 23  2  0
 23 24  1  0
 23 29  1  0
 24 25  1  0
 25 26  2  0
 25 27  1  0
 27 28  2  0
 28 29  1  0
 29 30  2  0
 31 32  2  0
 33 34  1  6
 33 35  1  0
M  END
