
     RDKit          3D

 35 38  0  0  0  0  0  0  0  0999 V2000
   -7.4910    4.1130    0.9830 C   0  0  0  0  0  0  0  0  0  0  0  0
   -7.8180    2.7060    0.5270 C   0  0  0  0  0  0  0  0  0  0  0  0
   -6.9910    1.6800    1.2710 C   0  0  0  0  0  0  0  0  0  0  0  0
   -5.5220    1.8690    1.0630 C   0  0  0  0  0  0  0  0  0  0  0  0
   -5.0780    1.7500   -0.2970 N   0  0  0  0  0  0  0  0  0  0  0  0
   -5.1280    0.4350   -0.8940 C   0  0  0  0  0  0  0  0  0  0  0  0
   -6.1590    0.0020   -1.5500 C   0  0  0  0  0  0  0  0  0  0  0  0
   -6.2430   -1.3240   -2.1670 C   0  0  0  0  0  0  0  0  0  0  0  0
   -5.0990   -2.2510   -2.0070 C   0  0  0  0  0  0  0  0  0  0  0  0
   -3.9480   -1.7060   -1.2720 C   0  0  0  0  0  0  0  0  0  0  0  0
   -2.8090   -2.4960   -1.1050 C   0  0  0  0  0  0  0  0  0  0  0  0
   -1.7310   -2.0080   -0.4180 C   0  0  0  0  0  0  0  0  0  0  0  0
   -1.7730   -0.7440    0.1050 C   0  0  0  0  0  0  0  0  0  0  0  0
   -2.8910    0.0780   -0.0400 C   0  0  0  0  0  0  0  0  0  0  0  0
   -3.9630   -0.4360   -0.7350 C   0  0  0  0  0  0  0  0  0  0  0  0
   -0.5820   -0.4150    0.7750 O   0  0  0  0  0  0  0  0  0  0  0  0
    0.0580   -1.6500    1.0430 C   0  0  2  0  0  0  0  0  0  0  0  0
    1.5370   -1.5480    0.9750 C   0  0  0  0  0  0  0  0  0  0  0  0
    2.2210   -2.5860    1.1950 O   0  0  0  0  0  0  0  0  0  0  0  0
    2.2340   -0.3680    0.6810 N   0  0  0  0  0  0  0  0  0  0  0  0
    3.7200   -0.2850    0.6180 C   0  0  1  0  0  0  0  0  0  0  0  0
    4.1600   -0.6690    1.9600 C   0  0  0  0  0  0  0  0  0  0  0  0
    5.5160   -0.8050    2.2960 N   0  0  0  0  0  0  0  0  0  0  0  0
    3.3230   -0.8940    2.8640 O   0  0  0  0  0  0  0  0  0  0  0  0
    4.2400   -1.2520   -0.3840 C   0  0  0  0  0  0  0  0  0  0  0  0
    5.6730   -1.0070   -0.7090 C   0  0  0  0  0  0  0  0  0  0  0  0
    6.2830    0.1410   -0.1360 N   0  0  0  0  0  0  0  0  0  0  0  0
    7.7150    0.1420    0.0310 C   0  0  0  0  0  0  0  0  0  0  0  0
    8.3020    1.1300    0.5320 O   0  0  0  0  0  0  0  0  0  0  0  0
    8.6970   -1.2600   -0.4690 S   0  0  0  0  0  0  0  0  0  0  0  0
   10.4370   -0.9730   -0.1460 C   0  0  0  0  0  0  0  0  0  0  0  0
    5.5710    1.3220    0.2900 C   0  0  0  0  0  0  0  0  0  0  0  0
    4.1080    1.1240    0.3150 C   0  0  1  0  0  0  0  0  0  0  0  0
    3.4440    1.5140   -0.9960 C   0  0  0  0  0  0  0  0  0  0  0  0
   -0.3870   -2.5760   -0.0680 C   0  0  0  0  0  0  0  0  0  0  0  0
  1  2  1  0
  2  3  1  0
  3  4  1  0
  4  5  1  0
  5  6  1  0
  6  7  2  0
  6 15  1  0
  7  8  1  0
  8  9  1  0
  9 10  1  0
 10 11  2  0
 10 15  1  0
 11 12  1  0
 12 13  2  0
 12 35  1  0
 13 14  1  0
 13 16  1  0
 14 15  2  0
 16 17  1  0
 17 18  1  6
 17 35  1  0
 18 19  2  0
 18 20  1  0
 21 20  1  1
 21 22  1  0
 21 25  1  0
 21 33  1  0
 22 23  1  0
 22 24  2  0
 25 26  1  0
 26 27  1  0
 27 28  1  0
 27 32  1  0
 28 29  2  0
 28 30  1  0
 30 31  1  0
 32 33  1  0
 33 34  1  6
M  END
