
     RDKit          3D

 35 36  0  0  0  0  0  0  0  0999 V2000
   -7.4280    3.1640   -1.1150 N   0  0  0  0  0  0  0  0  0  0  0  0
   -6.5600    2.5060   -0.1940 C   0  0  0  0  0  0  0  0  0  0  0  0
   -6.6440    2.7090    1.0330 O   0  0  0  0  0  0  0  0  0  0  0  0
   -5.5000    1.5330   -0.6750 C   0  0  2  0  0  0  0  0  0  0  0  0
   -6.2360    0.4910   -1.4500 C   0  0  0  0  0  0  0  0  0  0  0  0
   -5.3860   -0.5550   -2.0340 C   0  0  0  0  0  0  0  0  0  0  0  0
   -4.6950   -1.4640   -1.1220 C   0  0  0  0  0  0  0  0  0  0  0  0
   -4.9110   -1.5970    0.1050 O   0  0  0  0  0  0  0  0  0  0  0  0
   -3.6620   -2.3140   -1.5980 O   0  0  0  0  0  0  0  0  0  0  0  0
   -4.7530    1.0500    0.4330 N   0  0  0  0  0  0  0  0  0  0  0  0
   -3.3030    1.1030    0.3600 C   0  0  0  0  0  0  0  0  0  0  0  0
   -2.7930    1.5820   -0.7020 O   0  0  0  0  0  0  0  0  0  0  0  0
   -2.5120    0.6080    1.4780 C   0  0  2  0  0  0  0  0  0  0  0  0
   -2.6200    1.4090    2.7190 C   0  0  0  0  0  0  0  0  0  0  0  0
   -2.1510    2.7940    2.7170 C   0  0  0  0  0  0  0  0  0  0  0  0
   -2.7330    3.8270    1.9090 C   0  0  0  0  0  0  0  0  0  0  0  0
   -3.7390    3.7100    1.2080 O   0  0  0  0  0  0  0  0  0  0  0  0
   -2.1390    5.1270    1.8710 O   0  0  0  0  0  0  0  0  0  0  0  0
   -1.0970    0.6070    1.0180 N   0  0  0  0  0  0  0  0  0  0  0  0
   -0.3120   -0.5600    1.0010 C   0  0  0  0  0  0  0  0  0  0  0  0
   -0.8250   -1.6530    1.3930 O   0  0  0  0  0  0  0  0  0  0  0  0
    1.0850   -0.5570    0.5450 C   0  0  0  0  0  0  0  0  0  0  0  0
    1.7070   -1.9310    0.6800 C   0  0  0  0  0  0  0  0  0  0  0  0
    3.1130   -1.8830    0.2010 C   0  0  0  0  0  0  0  0  0  0  0  0
    3.4120   -2.1570   -1.1190 C   0  0  0  0  0  0  0  0  0  0  0  0
    4.7160   -2.1110   -1.5730 C   0  0  0  0  0  0  0  0  0  0  0  0
    5.7800   -1.7940   -0.7460 C   0  0  0  0  0  0  0  0  0  0  0  0
    7.1520   -1.7510   -1.2440 C   0  0  0  0  0  0  0  0  0  0  0  0
    8.1210   -0.9020   -0.7390 C   0  0  0  0  0  0  0  0  0  0  0  0
    9.4140   -0.8920   -1.2370 C   0  0  0  0  0  0  0  0  0  0  0  0
    9.7680   -1.7410   -2.2620 C   0  0  0  0  0  0  0  0  0  0  0  0
    8.8220   -2.5860   -2.7730 C   0  0  0  0  0  0  0  0  0  0  0  0
    7.5240   -2.5940   -2.2700 C   0  0  0  0  0  0  0  0  0  0  0  0
    5.4740   -1.5220    0.5720 C   0  0  0  0  0  0  0  0  0  0  0  0
    4.1720   -1.5670    1.0280 C   0  0  0  0  0  0  0  0  0  0  0  0
  1  2  1  0
  2  3  2  0
  2  4  1  0
  4  5  1  1
  4 10  1  0
  5  6  1  0
  6  7  1  0
  7  8  2  0
  7  9  1  0
 10 11  1  0
 11 12  2  0
 11 13  1  0
 13 14  1  1
 13 19  1  0
 14 15  1  0
 15 16  1  0
 16 17  2  0
 16 18  1  0
 19 20  1  0
 20 21  2  0
 20 22  1  0
 22 23  1  0
 23 24  1  0
 24 25  2  0
 24 35  1  0
 25 26  1  0
 26 27  2  0
 27 28  1  0
 27 34  1  0
 28 29  2  0
 28 33  1  0
 29 30  1  0
 30 31  2  0
 31 32  1  0
 32 33  2  0
 34 35  2  0
M  END
