
     RDKit          3D

 34 39  0  0  0  0  0  0  0  0999 V2000
   -0.4200    0.1810    5.2860 C   0  0  0  0  0  0  0  0  0  0  0  0
   -0.6740    0.1950    3.8340 C   0  0  0  0  0  0  0  0  0  0  0  0
   -1.9490    0.2660    3.3320 C   0  0  0  0  0  0  0  0  0  0  0  0
   -2.2310    0.2990    1.9770 C   0  0  0  0  0  0  0  0  0  0  0  0
   -1.1280    0.2550    1.1120 C   0  0  0  0  0  0  0  0  0  0  0  0
    0.1400    0.1850    1.5750 C   0  0  0  0  0  0  0  0  0  0  0  0
    1.3170    0.2310    0.7420 C   0  0  0  0  0  0  0  0  0  0  0  0
    1.8210    1.2470    0.0280 N   0  0  0  0  0  0  0  0  0  0  0  0
    2.9200    0.9090   -0.6240 N   0  0  0  0  0  0  0  0  0  0  0  0
    3.7230    1.7640   -1.4630 C   0  0  0  0  0  0  0  0  0  0  0  0
    3.4650    1.9660   -2.7960 C   0  0  0  0  0  0  0  0  0  0  0  0
    4.2990    2.8150   -3.5250 C   0  0  0  0  0  0  0  0  0  0  0  0
    5.3740    3.4610   -2.9680 C   0  0  0  0  0  0  0  0  0  0  0  0
    5.5930    3.2270   -1.6210 C   0  0  0  0  0  0  0  0  0  0  0  0
    4.7920    2.4150   -0.9340 N   0  0  0  0  0  0  0  0  0  0  0  0
    3.1420   -0.3830   -0.3280 C   0  0  0  0  0  0  0  0  0  0  0  0
    4.1010   -1.2270   -0.7290 N   0  0  0  0  0  0  0  0  0  0  0  0
    4.1180   -2.4990   -0.3210 C   0  0  0  0  0  0  0  0  0  0  0  0
    5.2080   -3.3760   -0.8000 C   0  0  0  0  0  0  0  0  0  0  0  0
    3.1630   -3.0150    0.5240 C   0  0  0  0  0  0  0  0  0  0  0  0
    2.9520   -4.2810    1.0650 C   0  0  0  0  0  0  0  0  0  0  0  0
    1.8430   -4.1490    1.7960 N   0  0  0  0  0  0  0  0  0  0  0  0
    1.3730   -2.9000    1.7330 N   0  0  0  0  0  0  0  0  0  0  0  0
    2.1630   -2.1610    0.9520 C   0  0  0  0  0  0  0  0  0  0  0  0
    2.1560   -0.8480    0.5270 C   0  0  0  0  0  0  0  0  0  0  0  0
    0.3850    0.1530    2.9500 C   0  0  0  0  0  0  0  0  0  0  0  0
   -1.6470    0.2980   -0.1540 O   0  0  0  0  0  0  0  0  0  0  0  0
   -3.0160    0.6530   -0.1960 C   0  0  1  0  0  0  0  0  0  0  0  0
   -3.0400    2.1250   -0.5510 C   0  0  0  0  0  0  0  0  0  0  0  0
   -3.6730   -0.2350   -1.2200 C   0  0  0  0  0  0  0  0  0  0  0  0
   -5.1320   -0.0460   -1.4160 C   0  0  2  0  0  0  0  0  0  0  0  0
   -5.5830   -1.0560   -2.4860 C   0  0  0  0  0  0  0  0  0  0  0  0
   -5.6090    1.2880   -1.8640 C   0  0  0  0  0  0  0  0  0  0  0  0
   -3.4890    0.3650    1.1890 C   0  0  0  0  0  0  0  0  0  0  0  0
  1  2  1  0
  2  3  2  0
  2 26  1  0
  3  4  1  0
  4  5  2  0
  4 34  1  0
  5  6  1  0
  5 27  1  0
  6  7  1  0
  6 26  2  0
  7  8  2  0
  7 25  1  0
  8  9  1  0
  9 10  1  0
  9 16  1  0
 10 11  2  0
 10 15  1  0
 11 12  1  0
 12 13  2  0
 13 14  1  0
 14 15  2  0
 16 17  2  0
 16 25  1  0
 17 18  1  0
 18 19  1  0
 18 20  2  0
 20 21  1  0
 20 24  1  0
 21 22  2  0
 22 23  1  0
 23 24  1  0
 24 25  2  0
 27 28  1  0
 28 29  1  6
 28 30  1  0
 28 34  1  0
 30 31  1  0
 31 32  1  6
 31 33  1  0
M  END
