
     RDKit          3D

 35 39  0  0  0  0  0  0  0  0999 V2000
   -3.4210   -4.3220   -1.9710 C   0  0  0  0  0  0  0  0  0  0  0  0
   -3.5890   -2.8840   -1.7110 N   0  0  0  0  0  0  0  0  0  0  0  0
   -3.5280   -2.3600   -0.3920 C   0  0  0  0  0  0  0  0  0  0  0  0
   -3.3270   -3.1300    0.5890 O   0  0  0  0  0  0  0  0  0  0  0  0
   -3.7100   -0.8930   -0.2270 C   0  0  1  0  0  0  0  0  0  0  0  0
   -5.0460   -0.4440   -0.7640 C   0  0  0  0  0  0  0  0  0  0  0  0
   -6.1930   -1.0880   -0.1050 C   0  0  0  0  0  0  0  0  0  0  0  0
   -6.0680   -1.9370    0.7970 O   0  0  0  0  0  0  0  0  0  0  0  0
   -7.4780   -0.7490   -0.4870 O   0  0  0  0  0  0  0  0  0  0  0  0
   -3.6220   -0.4670    1.2200 C   0  0  0  0  0  0  0  0  0  0  0  0
   -2.9260    0.8980    1.2130 C   0  0  1  0  0  0  0  0  0  0  0  0
   -3.1590    1.6310    2.5090 C   0  0  0  0  0  0  0  0  0  0  0  0
   -4.9190    1.9130    2.7930 S   0  0  0  0  0  0  0  0  0  0  0  0
   -5.6520    3.0390    1.5950 C   0  0  0  0  0  0  0  0  0  0  0  0
   -1.4650    0.6240    0.9600 C   0  0  0  0  0  0  0  0  0  0  0  0
   -1.4040   -0.1450   -0.2670 N   0  0  0  0  0  0  0  0  0  0  0  0
   -0.2320   -0.8150   -0.7010 C   0  0  0  0  0  0  0  0  0  0  0  0
   -0.2380   -1.4640   -1.7750 O   0  0  0  0  0  0  0  0  0  0  0  0
    1.0170   -0.7710    0.0880 C   0  0  2  0  0  0  0  0  0  0  0  0
    1.5980    0.6280    0.1080 C   0  0  0  0  0  0  0  0  0  0  0  0
    3.0830    0.4040    0.0160 C   0  0  0  0  0  0  0  0  0  0  0  0
    4.0960    1.2880    0.2710 C   0  0  0  0  0  0  0  0  0  0  0  0
    5.3940    0.8640    0.1220 C   0  0  0  0  0  0  0  0  0  0  0  0
    5.6360   -0.4390   -0.2800 C   0  0  0  0  0  0  0  0  0  0  0  0
    4.6050   -1.3310   -0.5370 C   0  0  0  0  0  0  0  0  0  0  0  0
    3.3150   -0.8900   -0.3830 C   0  0  0  0  0  0  0  0  0  0  0  0
    2.0670   -1.5370   -0.5620 N   0  0  0  0  0  0  0  0  0  0  0  0
    6.9700   -0.6380   -0.3610 N   0  0  0  0  0  0  0  0  0  0  0  0
    7.5760    0.5100   -0.0180 C   0  0  0  0  0  0  0  0  0  0  0  0
    8.8980    0.8540    0.0680 C   0  0  0  0  0  0  0  0  0  0  0  0
    9.2820    2.1240    0.4510 C   0  0  0  0  0  0  0  0  0  0  0  0
    8.3010    3.0540    0.7500 C   0  0  0  0  0  0  0  0  0  0  0  0
    6.9620    2.7320    0.6710 C   0  0  0  0  0  0  0  0  0  0  0  0
    6.6140    1.4610    0.2870 C   0  0  0  0  0  0  0  0  0  0  0  0
   -2.6390   -0.2050   -1.0610 C   0  0  0  0  0  0  0  0  0  0  0  0
  1  2  1  0
  2  3  1  0
  3  4  2  0
  3  5  1  0
  5  6  1  6
  5 10  1  0
  5 35  1  0
  6  7  1  0
  7  8  2  0
  7  9  1  0
 10 11  1  0
 11 12  1  1
 11 15  1  0
 12 13  1  0
 13 14  1  0
 15 16  1  0
 16 17  1  0
 16 35  1  0
 17 18  2  0
 19 17  1  6
 19 20  1  0
 19 27  1  0
 20 21  1  0
 21 22  2  0
 21 26  1  0
 22 23  1  0
 23 24  2  0
 23 34  1  0
 24 25  1  0
 24 28  1  0
 25 26  2  0
 26 27  1  0
 28 29  1  0
 29 30  2  0
 29 34  1  0
 30 31  1  0
 31 32  2  0
 32 33  1  0
 33 34  2  0
M  END
