
     RDKit          3D

 13 14  0  0  0  0  0  0  0  0999 V2000
   -2.4680   -1.0110   -0.6320 C   0  0  0  0  0  0  0  0  0  0  0  0
   -2.2230    0.0230    0.3210 N   0  0  0  0  0  0  0  0  0  0  0  0
   -3.3500    0.9340    0.3250 C   0  0  0  0  0  0  0  0  0  0  0  0
   -1.0280    0.7760    0.1150 C   0  0  0  0  0  0  0  0  0  0  0  0
    0.2040   -0.0120    0.1560 C   0  0  0  0  0  0  0  0  0  0  0  0
    0.3050   -1.3300    0.3630 N   0  0  0  0  0  0  0  0  0  0  0  0
    1.6170   -1.6120    0.3160 C   0  0  0  0  0  0  0  0  0  0  0  0
    2.1600   -2.7590    0.4640 O   0  0  0  0  0  0  0  0  0  0  0  0
    2.3430   -0.5010    0.0840 N   0  0  0  0  0  0  0  0  0  0  0  0
    1.4670    0.5160   -0.0200 C   0  0  0  0  0  0  0  0  0  0  0  0
    2.2460    1.6800   -0.2640 N   0  0  0  0  0  0  0  0  0  0  0  0
    3.4860    1.4270   -0.3110 C   0  0  0  0  0  0  0  0  0  0  0  0
    3.6990   -0.0070   -0.0920 C   0  0  0  0  0  0  0  0  0  0  0  0
  1  2  1  0
  2  3  1  0
  2  4  1  0
  4  5  1  0
  5  6  1  0
  5 10  2  0
  6  7  1  0
  7  8  2  0
  7  9  1  0
  9 10  1  0
  9 13  1  0
 10 11  1  0
 11 12  2  0
 12 13  1  0
M  END
