
     RDKit          3D

 14 15  0  0  0  0  0  0  0  0999 V2000
   -2.0790    1.3350    1.0530 C   0  0  0  0  0  0  0  0  0  0  0  0
   -1.6710    0.4850   -0.1120 C   0  0  0  0  0  0  0  0  0  0  0  0
   -2.5810    0.3450   -1.1360 C   0  0  0  0  0  0  0  0  0  0  0  0
   -3.8340    0.9680   -1.0940 O   0  0  0  0  0  0  0  0  0  0  0  0
   -2.2120   -0.4370   -2.2110 C   0  0  0  0  0  0  0  0  0  0  0  0
   -0.9970   -1.0140   -2.2040 N   0  0  0  0  0  0  0  0  0  0  0  0
   -0.1140   -0.8630   -1.1830 C   0  0  0  0  0  0  0  0  0  0  0  0
    1.1240   -1.3160   -0.9350 N   0  0  0  0  0  0  0  0  0  0  0  0
    1.5260   -0.8390    0.2560 C   0  0  0  0  0  0  0  0  0  0  0  0
    2.8680   -1.1560    0.8350 C   0  0  0  0  0  0  0  0  0  0  0  0
    3.8250   -0.0790    0.3420 C   0  0  0  0  0  0  0  0  0  0  0  0
    3.2420    1.5260    0.9060 Cl  0  0  0  0  0  0  0  0  0  0  0  0
    0.5550   -0.0900    0.7620 N   0  0  0  0  0  0  0  0  0  0  0  0
   -0.4390   -0.1100   -0.1200 N   0  0  0  0  0  0  0  0  0  0  0  0
  1  2  1  0
  2  3  2  0
  2 14  1  0
  3  4  1  0
  3  5  1  0
  5  6  2  0
  6  7  1  0
  7  8  2  0
  7 14  1  0
  8  9  1  0
  9 10  1  0
  9 13  2  0
 10 11  1  0
 11 12  1  0
 13 14  1  0
M  END
