
     RDKit          3D

 33 33  0  0  0  0  0  0  0  0999 V2000
    9.2970    1.9620    0.6290 N   0  0  0  0  0  0  0  0  0  0  0  0
    8.4080    2.0770   -0.4560 C   0  0  0  0  0  0  0  0  0  0  0  0
    8.1550    3.2030   -0.9340 O   0  0  0  0  0  0  0  0  0  0  0  0
    7.7630    0.8870   -1.0460 C   0  0  0  0  0  0  0  0  0  0  0  0
    6.0730    0.7650   -0.4120 S   0  0  0  0  0  0  0  0  0  0  0  0
    5.2370   -0.6780   -1.0340 C   0  0  0  0  0  0  0  0  0  0  0  0
    6.0280   -1.7780   -1.9510 S   0  0  0  0  0  0  0  0  0  0  0  0
    3.8500   -0.9180   -0.7180 C   0  0  0  0  0  0  0  0  0  0  0  0
    3.2620   -1.9500   -1.1150 O   0  0  0  0  0  0  0  0  0  0  0  0
    3.0710    0.0680    0.0940 C   0  0  2  0  0  0  0  0  0  0  0  0
    3.9230    1.1500    0.4280 O   0  0  0  0  0  0  0  0  0  0  0  0
    2.5760   -0.4730    1.3920 C   0  0  0  0  0  0  0  0  0  0  0  0
    2.1130   -1.7590    1.3750 O   0  0  0  0  0  0  0  0  0  0  0  0
    1.1620   -2.0310    2.3740 C   0  0  1  0  0  0  0  0  0  0  0  0
    0.2060   -0.5810    2.7170 Cl  0  0  0  0  0  0  0  0  0  0  0  0
    0.3110   -3.1530    1.9020 C   0  0  0  0  0  0  0  0  0  0  0  0
    0.8710   -4.1770    1.4920 O   0  0  0  0  0  0  0  0  0  0  0  0
   -1.4570   -3.1080    1.8940 S   0  0  0  0  0  0  0  0  0  0  0  0
   -2.1130   -1.1050    1.9090 S   0  0  0  0  0  0  0  0  0  0  0  0
   -2.3750   -0.4880    0.2550 C   0  0  2  0  0  0  0  0  0  0  0  0
   -2.4300    0.9740    0.2860 N   0  0  0  0  0  0  0  0  0  0  0  0
   -3.7700   -0.9160   -0.2020 C   0  0  0  0  0  0  0  0  0  0  0  0
   -4.6340   -0.4020    0.7720 O   0  0  0  0  0  0  0  0  0  0  0  0
   -5.9610   -0.6510    0.5390 C   0  0  0  0  0  0  0  0  0  0  0  0
   -6.4870   -0.0630   -0.7390 C   0  0  1  0  0  0  0  0  0  0  0  0
   -7.8480   -0.4050   -0.8350 O   0  0  0  0  0  0  0  0  0  0  0  0
   -6.4420    1.4600   -0.7200 C   0  0  0  0  0  0  0  0  0  0  0  0
   -7.1690    2.0050    0.3920 N   0  0  0  0  0  0  0  0  0  0  0  0
   -1.2990   -0.8780   -0.7220 C   0  0  0  0  0  0  0  0  0  0  0  0
   -0.3300    0.1220   -0.6560 O   0  0  0  0  0  0  0  0  0  0  0  0
    0.9060   -0.3570   -1.0790 C   0  0  0  0  0  0  0  0  0  0  0  0
    2.0120    0.6150   -0.8170 C   0  0  1  0  0  0  0  0  0  0  0  0
    1.5700    1.8800   -0.4300 O   0  0  0  0  0  0  0  0  0  0  0  0
  1  2  1  0
  2  3  2  0
  2  4  1  0
  4  5  1  0
  5  6  1  0
  6  7  2  0
  6  8  1  0
  8  9  2  0
  8 10  1  0
 10 11  1  1
 10 12  1  0
 10 32  1  0
 12 13  1  0
 13 14  1  0
 14 15  1  6
 14 16  1  0
 16 17  2  0
 16 18  1  0
 18 19  1  0
 19 20  1  0
 20 21  1  1
 20 22  1  0
 20 29  1  0
 22 23  1  0
 23 24  1  0
 24 25  1  0
 25 26  1  1
 25 27  1  0
 27 28  1  0
 29 30  1  0
 30 31  1  0
 31 32  1  0
 32 33  1  1
M  CHG  1  28   1
M  END
