
     RDKit          3D

 35 37  0  0  0  0  0  0  0  0999 V2000
   -4.1380   -3.7310    1.6160 C   0  0  0  0  0  0  0  0  0  0  0  0
   -4.5650   -2.6140    1.1070 C   0  0  0  0  0  0  0  0  0  0  0  0
   -5.8980   -2.1820    1.5960 C   0  0  0  0  0  0  0  0  0  0  0  0
   -6.4560   -1.1460    1.0990 C   0  0  0  0  0  0  0  0  0  0  0  0
   -5.8840   -0.3390    0.0510 C   0  0  0  0  0  0  0  0  0  0  0  0
   -4.5150   -0.7780   -0.4330 C   0  0  0  0  0  0  0  0  0  0  0  0
   -3.8830   -1.8300    0.0380 C   0  0  0  0  0  0  0  0  0  0  0  0
   -2.6290   -2.3660   -0.3560 N   0  0  0  0  0  0  0  0  0  0  0  0
   -1.3150   -1.8910   -0.4200 C   0  0  0  0  0  0  0  0  0  0  0  0
   -0.8340   -1.9990   -1.6390 O   0  0  0  0  0  0  0  0  0  0  0  0
   -0.3600   -1.3270    0.5080 C   0  0  0  0  0  0  0  0  0  0  0  0
    0.5270   -2.2500    1.0200 O   0  0  0  0  0  0  0  0  0  0  0  0
   -0.0850   -0.0760    1.0420 N   0  0  0  0  0  0  0  0  0  0  0  0
    0.7840   -0.0580    2.2730 C   0  0  0  0  0  0  0  0  0  0  0  0
    2.2080   -0.1160    1.9190 C   0  0  0  0  0  0  0  0  0  0  0  0
    3.1870   -0.1150    2.5320 O   0  0  0  0  0  0  0  0  0  0  0  0
    2.4210   -0.2190    0.4370 N   0  0  0  0  0  0  0  0  0  0  0  0
    3.7420   -0.3400   -0.0600 C   0  0  0  0  0  0  0  0  0  0  0  0
    3.9560   -1.1970   -1.1680 C   0  0  0  0  0  0  0  0  0  0  0  0
    5.1710   -1.3550   -1.7490 C   0  0  0  0  0  0  0  0  0  0  0  0
    6.2840   -0.6640   -1.2740 C   0  0  0  0  0  0  0  0  0  0  0  0
    7.8230   -0.9030   -2.0430 Cl  0  0  0  0  0  0  0  0  0  0  0  0
    6.0790    0.1990   -0.1700 C   0  0  0  0  0  0  0  0  0  0  0  0
    7.2020    0.9470    0.2340 N   0  0  0  0  0  0  0  0  0  0  0  0
    7.2720    1.8470    1.3460 C   0  0  0  0  0  0  0  0  0  0  0  0
    4.8190    0.3180    0.3830 C   0  0  0  0  0  0  0  0  0  0  0  0
   -0.4100    1.2420    0.6220 C   0  0  0  0  0  0  0  0  0  0  0  0
    0.1300    2.2930    1.1150 O   0  0  0  0  0  0  0  0  0  0  0  0
   -1.4370    1.4940   -0.4470 C   0  0  0  0  0  0  0  0  0  0  0  0
   -1.0690    2.5900   -1.3890 C   0  0  1  0  0  0  0  0  0  0  0  0
    0.0950    2.4120   -2.0680 O   0  0  0  0  0  0  0  0  0  0  0  0
   -2.2060    2.9820   -2.2790 C   0  0  0  0  0  0  0  0  0  0  0  0
   -2.9710    1.8410   -2.9400 C   0  0  0  0  0  0  0  0  0  0  0  0
   -3.4980    0.9130   -2.0410 C   0  0  0  0  0  0  0  0  0  0  0  0
   -3.9690    0.1110   -1.2760 C   0  0  0  0  0  0  0  0  0  0  0  0
  1  2  2  0
  2  3  1  0
  2  7  1  0
  3  4  2  0
  4  5  1  0
  5  6  1  0
  6  7  2  0
  6 35  1  0
  7  8  1  0
  8  9  1  0
  9 10  2  0
  9 11  1  0
 11 12  2  0
 11 13  1  0
 13 14  1  0
 13 27  1  0
 14 15  1  0
 15 16  2  0
 15 17  1  0
 17 18  1  0
 18 19  2  0
 18 26  1  0
 19 20  1  0
 20 21  2  0
 21 22  1  0
 21 23  1  0
 23 24  1  0
 23 26  2  0
 24 25  1  0
 27 28  2  0
 27 29  1  0
 29 30  1  0
 30 31  1  6
 30 32  1  0
 32 33  1  0
 33 34  1  0
 34 35  3  0
M  END
