
     RDKit          3D

 35 39  0  0  0  0  0  0  0  0999 V2000
   -3.0900   -2.7990    1.8320 O   0  0  0  0  0  0  0  0  0  0  0  0
   -1.9520   -3.0130    2.3010 C   0  0  0  0  0  0  0  0  0  0  0  0
   -1.0170   -1.8890    2.5340 C   0  0  0  0  0  0  0  0  0  0  0  0
   -1.5410   -0.5590    2.0540 C   0  0  1  0  0  0  0  0  0  0  0  0
   -0.6140    0.5740    2.3120 C   0  0  0  0  0  0  0  0  0  0  0  0
    0.7060    0.5510    1.7300 C   0  0  0  0  0  0  0  0  0  0  0  0
    1.7090   -0.0360    2.4820 C   0  0  0  0  0  0  0  0  0  0  0  0
    3.0170   -0.1130    2.0180 C   0  0  0  0  0  0  0  0  0  0  0  0
    3.3690    0.3890    0.7970 C   0  0  0  0  0  0  0  0  0  0  0  0
    4.7500    0.3150    0.2940 C   0  0  0  0  0  0  0  0  0  0  0  0
    5.8170    0.3650    1.1480 C   0  0  0  0  0  0  0  0  0  0  0  0
    7.1140    0.2990    0.6990 C   0  0  0  0  0  0  0  0  0  0  0  0
    7.3850    0.1780   -0.6440 C   0  0  0  0  0  0  0  0  0  0  0  0
    6.3110    0.1250   -1.5350 C   0  0  0  0  0  0  0  0  0  0  0  0
    5.0080    0.1940   -1.0580 C   0  0  0  0  0  0  0  0  0  0  0  0
    6.8800    0.0060   -2.7900 O   0  0  0  0  0  0  0  0  0  0  0  0
    8.2420   -0.3580   -2.6730 C   0  0  0  0  0  0  0  0  0  0  0  0
    8.5800    0.0910   -1.3630 O   0  0  0  0  0  0  0  0  0  0  0  0
    2.3690    0.9800    0.0370 C   0  0  0  0  0  0  0  0  0  0  0  0
    1.0750    1.0510    0.5060 C   0  0  0  0  0  0  0  0  0  0  0  0
   -1.9790   -0.6270    0.6320 C   0  0  0  0  0  0  0  0  0  0  0  0
   -1.8220   -1.6590   -0.0840 O   0  0  0  0  0  0  0  0  0  0  0  0
   -2.6060    0.4540   -0.0450 N   0  0  0  0  0  0  0  0  0  0  0  0
   -3.0420    0.4420   -1.4000 C   0  0  1  0  0  0  0  0  0  0  0  0
   -4.5240    0.5920   -1.3790 C   0  0  0  0  0  0  0  0  0  0  0  0
   -5.5770   -0.3040   -1.2620 C   0  0  0  0  0  0  0  0  0  0  0  0
   -6.8750    0.1710   -1.2650 C   0  0  0  0  0  0  0  0  0  0  0  0
   -7.1170    1.5260   -1.3820 C   0  0  0  0  0  0  0  0  0  0  0  0
   -6.0700    2.4330   -1.5000 C   0  0  0  0  0  0  0  0  0  0  0  0
   -4.7850    1.9390   -1.4960 C   0  0  0  0  0  0  0  0  0  0  0  0
   -3.4770    2.6890   -1.6210 C   0  0  0  0  0  0  0  0  0  0  0  0
   -2.6770    1.5740   -2.2600 C   0  0  1  0  0  0  0  0  0  0  0  0
   -1.3760    1.8460   -2.4740 O   0  0  0  0  0  0  0  0  0  0  0  0
   -1.5290   -4.3120    2.6200 N   0  0  0  0  0  0  0  0  0  0  0  0
   -2.4030   -5.3380    2.4000 O   0  0  0  0  0  0  0  0  0  0  0  0
  1  2  2  0
  2  3  1  0
  2 34  1  0
  4  3  1  6
  4  5  1  0
  4 21  1  0
  5  6  1  0
  6  7  2  0
  6 20  1  0
  7  8  1  0
  8  9  2  0
  9 10  1  0
  9 19  1  0
 10 11  2  0
 10 15  1  0
 11 12  1  0
 12 13  2  0
 13 14  1  0
 13 18  1  0
 14 15  2  0
 14 16  1  0
 16 17  1  0
 17 18  1  0
 19 20  2  0
 21 22  2  0
 21 23  1  0
 24 23  1  1
 24 25  1  0
 24 32  1  0
 25 26  2  0
 25 30  1  0
 26 27  1  0
 27 28  2  0
 28 29  1  0
 29 30  2  0
 30 31  1  0
 31 32  1  0
 32 33  1  1
 34 35  1  0
M  END
