
     RDKit          3D

 12 13  0  0  0  0  0  0  0  0999 V2000
   -2.5990   -0.7060    0.7550 C   0  0  0  0  0  0  0  0  0  0  0  0
   -1.3900   -0.0720    0.0840 C   0  0  2  0  0  0  0  0  0  0  0  0
   -1.8870    1.2080   -0.5670 C   0  0  0  0  0  0  0  0  0  0  0  0
   -0.9050   -1.0620   -0.9400 C   0  0  0  0  0  0  0  0  0  0  0  0
    0.4650   -0.8190   -1.3770 C   0  0  0  0  0  0  0  0  0  0  0  0
    0.8620   -1.1820   -2.4970 O   0  0  0  0  0  0  0  0  0  0  0  0
    1.3730   -0.1410   -0.4810 C   0  0  0  0  0  0  0  0  0  0  0  0
    0.9820    0.3710    0.6770 C   0  0  0  0  0  0  0  0  0  0  0  0
   -0.4150    0.2840    1.1360 C   0  0  0  0  0  0  0  0  0  0  0  0
    2.0650    0.9630    1.3320 O   0  0  0  0  0  0  0  0  0  0  0  0
    3.2410    0.4120    0.7780 C   0  0  0  0  0  0  0  0  0  0  0  0
    2.8310    0.1210   -0.6310 C   0  0  0  0  0  0  0  0  0  0  0  0
  2  1  1  1
  2  3  1  0
  2  4  1  0
  2  9  1  0
  4  5  1  0
  5  6  2  0
  5  7  1  0
  7  8  2  0
  7 12  1  0
  8  9  1  0
  8 10  1  0
 10 11  1  0
 11 12  1  0
M  END
