
     RDKit          3D

 13 14  0  0  0  0  0  0  0  0999 V2000
    3.2230   -0.7480   -0.2150 C   0  0  0  0  0  0  0  0  0  0  0  0
    1.8380   -0.2130   -0.0530 C   0  0  0  0  0  0  0  0  0  0  0  0
    1.6090    1.1440    0.0990 C   0  0  0  0  0  0  0  0  0  0  0  0
    0.3430    1.6590    0.2490 C   0  0  0  0  0  0  0  0  0  0  0  0
    0.0730    3.0100    0.4040 O   0  0  0  0  0  0  0  0  0  0  0  0
   -0.7130    0.7390    0.2400 C   0  0  0  0  0  0  0  0  0  0  0  0
   -0.5100   -0.6050    0.0910 C   0  0  0  0  0  0  0  0  0  0  0  0
    0.7810   -1.0890   -0.0580 C   0  0  0  0  0  0  0  0  0  0  0  0
   -1.6580   -1.5310    0.1140 C   0  0  0  0  0  0  0  0  0  0  0  0
   -2.8510   -0.8560   -0.4850 C   0  0  0  0  0  0  0  0  0  0  0  0
   -3.1170    0.2910    0.3320 O   0  0  0  0  0  0  0  0  0  0  0  0
   -2.0960    1.2230    0.3700 C   0  0  0  0  0  0  0  0  0  0  0  0
   -2.2540    2.4650    0.5090 O   0  0  0  0  0  0  0  0  0  0  0  0
  1  2  1  0
  2  3  2  0
  2  8  1  0
  3  4  1  0
  4  5  1  0
  4  6  2  0
  6  7  1  0
  6 12  1  0
  7  8  2  0
  7  9  1  0
  9 10  1  0
 10 11  1  0
 11 12  1  0
 12 13  2  0
M  END
