
     RDKit          3D

 12 13  0  0  0  0  0  0  0  0999 V2000
   -2.4450    2.4080    0.4000 O   0  0  0  0  0  0  0  0  0  0  0  0
   -2.5460    1.1570   -0.1570 C   0  0  0  0  0  0  0  0  0  0  0  0
   -1.5560    0.1650    0.4760 C   0  0  1  0  0  0  0  0  0  0  0  0
   -1.7440   -1.1400   -0.1870 C   0  0  0  0  0  0  0  0  0  0  0  0
   -0.4970   -1.9230   -0.4490 C   0  0  0  0  0  0  0  0  0  0  0  0
    0.5880   -1.5940    0.5780 C   0  0  0  0  0  0  0  0  0  0  0  0
    0.9420   -0.1430    0.3090 C   0  0  1  0  0  0  0  0  0  0  0  0
   -0.2250    0.7760    0.4540 C   0  0  0  0  0  0  0  0  0  0  0  0
    1.9700    0.1940    1.1640 O   0  0  0  0  0  0  0  0  0  0  0  0
    2.8410    0.9900    0.3860 C   0  0  0  0  0  0  0  0  0  0  0  0
    2.7770    0.2200   -0.9220 C   0  0  0  0  0  0  0  0  0  0  0  0
    1.4320   -0.0870   -0.9910 O   0  0  0  0  0  0  0  0  0  0  0  0
  1  2  1  0
  3  2  1  6
  3  4  1  0
  3  8  1  0
  4  5  1  0
  5  6  1  0
  7  6  1  1
  7  8  1  0
  7  9  1  0
  7 12  1  0
  9 10  1  0
 10 11  1  0
 11 12  1  0
M  END
