
     RDKit          3D

 13 13  0  0  0  0  0  0  0  0999 V2000
    4.0840   -0.8000    0.4910 C   0  0  0  0  0  0  0  0  0  0  0  0
    2.8590   -0.2850    0.7490 C   0  0  0  0  0  0  0  0  0  0  0  0
    2.7140    0.4880    1.8670 O   0  0  0  0  0  0  0  0  0  0  0  0
    1.7750   -0.5630   -0.1420 C   0  0  0  0  0  0  0  0  0  0  0  0
    0.5330   -0.1440   -0.0380 C   0  0  0  0  0  0  0  0  0  0  0  0
    0.0140    0.6940    1.0170 C   0  0  0  0  0  0  0  0  0  0  0  0
   -1.2810    1.0640    1.0230 C   0  0  0  0  0  0  0  0  0  0  0  0
   -2.2330    0.6680    0.0080 C   0  0  0  0  0  0  0  0  0  0  0  0
   -3.5620    1.0920    0.0830 O   0  0  0  0  0  0  0  0  0  0  0  0
   -1.8470   -0.0990   -0.9950 C   0  0  0  0  0  0  0  0  0  0  0  0
   -2.8130   -0.5200   -2.0540 C   0  0  0  0  0  0  0  0  0  0  0  0
   -0.4670   -0.5360   -1.0670 C   0  0  0  0  0  0  0  0  0  0  0  0
   -0.0430   -1.2720   -2.0070 O   0  0  0  0  0  0  0  0  0  0  0  0
  1  2  2  0
  2  3  1  0
  2  4  1  0
  4  5  2  3
  5  6  1  0
  5 12  1  0
  6  7  2  0
  7  8  1  0
  8  9  1  0
  8 10  2  0
 10 11  1  0
 10 12  1  0
 12 13  2  0
M  END
