
     RDKit          3D

 13 14  0  0  0  0  0  0  0  0999 V2000
   -3.2000   -0.3420   -0.0080 C   0  0  0  0  0  0  0  0  0  0  0  0
   -1.7480   -0.0300    0.1700 C   0  0  0  0  0  0  0  0  0  0  0  0
   -0.8570   -1.0920    0.1570 C   0  0  0  0  0  0  0  0  0  0  0  0
    0.5190   -0.7740    0.1830 C   0  0  0  0  0  0  0  0  0  0  0  0
    1.4640   -1.9270    0.1880 C   0  0  0  0  0  0  0  0  0  0  0  0
    1.1970   -2.7790   -0.8980 O   0  0  0  0  0  0  0  0  0  0  0  0
    0.9650    0.5270    0.2170 C   0  0  0  0  0  0  0  0  0  0  0  0
    0.0620    1.5230    0.2230 C   0  0  0  0  0  0  0  0  0  0  0  0
   -1.3020    1.2340    0.1990 C   0  0  0  0  0  0  0  0  0  0  0  0
    0.8080    2.7300    0.2130 C   0  0  0  0  0  0  0  0  0  0  0  0
    0.1950    3.9060    0.1400 O   0  0  0  0  0  0  0  0  0  0  0  0
    2.1250    2.4950    0.3010 O   0  0  0  0  0  0  0  0  0  0  0  0
    2.3300    1.1340    0.0390 C   0  0  0  0  0  0  0  0  0  0  0  0
  1  2  1  0
  2  3  2  0
  2  9  1  0
  3  4  1  0
  4  5  1  0
  4  7  2  0
  5  6  1  0
  7  8  1  0
  7 13  1  0
  8  9  2  0
  8 10  1  0
 10 11  2  0
 10 12  1  0
 12 13  1  0
M  END
