
     RDKit          3D

 13 14  0  0  0  0  0  0  0  0999 V2000
   -2.4600    1.9650   -0.6950 C   0  0  0  0  0  0  0  0  0  0  0  0
   -1.0550    1.4460   -0.6690 C   0  0  0  0  0  0  0  0  0  0  0  0
   -0.1760    2.1840   -1.1710 O   0  0  0  0  0  0  0  0  0  0  0  0
   -0.7530    0.1520   -0.0870 C   0  0  0  0  0  0  0  0  0  0  0  0
   -1.6170   -0.7100    0.4720 C   0  0  0  0  0  0  0  0  0  0  0  0
   -2.9950   -0.4860    0.5840 O   0  0  0  0  0  0  0  0  0  0  0  0
   -0.9150   -1.9250    0.9510 C   0  0  0  0  0  0  0  0  0  0  0  0
    0.3150   -1.9380    0.0710 C   0  0  0  0  0  0  0  0  0  0  0  0
    0.5700   -0.4430   -0.0090 C   0  0  0  0  0  0  0  0  0  0  0  0
    1.7490    0.1190   -0.0030 C   0  0  0  0  0  0  0  0  0  0  0  0
    3.1430   -0.3890    0.0730 C   0  0  0  0  0  0  0  0  0  0  0  0
    3.5750    0.9070    0.3950 O   0  0  0  0  0  0  0  0  0  0  0  0
    2.3410    1.4520   -0.0600 C   0  0  0  0  0  0  0  0  0  0  0  0
  1  2  1  0
  2  3  2  0
  2  4  1  0
  4  5  2  0
  4  9  1  0
  5  6  1  0
  5  7  1  0
  7  8  1  0
  8  9  1  0
  9 10  2  3
 10 11  1  0
 10 13  1  0
 11 12  1  0
 12 13  1  0
M  END
