
     RDKit          3D

 13 14  0  0  0  0  0  0  0  0999 V2000
    2.7490   -1.2530   -0.5880 C   0  0  0  0  0  0  0  0  0  0  0  0
    1.4840   -0.5390   -0.3130 C   0  0  0  0  0  0  0  0  0  0  0  0
    1.4170    0.8280   -0.2530 C   0  0  0  0  0  0  0  0  0  0  0  0
    0.2070    1.4990    0.0090 C   0  0  0  0  0  0  0  0  0  0  0  0
   -0.9350    0.7550    0.2100 C   0  0  0  0  0  0  0  0  0  0  0  0
   -0.8920   -0.6370    0.1540 C   0  0  0  0  0  0  0  0  0  0  0  0
   -2.1060   -1.4380    0.3710 C   0  0  0  0  0  0  0  0  0  0  0  0
    0.3170   -1.2360   -0.1060 C   0  0  0  0  0  0  0  0  0  0  0  0
    0.4180   -2.6190   -0.1740 O   0  0  0  0  0  0  0  0  0  0  0  0
   -2.0650    1.6540    0.4600 C   0  0  0  0  0  0  0  0  0  0  0  0
   -3.2600    1.3360    0.6840 O   0  0  0  0  0  0  0  0  0  0  0  0
   -1.5230    2.9260    0.3950 O   0  0  0  0  0  0  0  0  0  0  0  0
   -0.1500    2.9150    0.1290 C   0  0  0  0  0  0  0  0  0  0  0  0
  1  2  1  0
  2  3  2  0
  2  8  1  0
  3  4  1  0
  4  5  2  0
  4 13  1  0
  5  6  1  0
  5 10  1  0
  6  7  1  0
  6  8  2  0
  8  9  1  0
 10 11  2  0
 10 12  1  0
 12 13  1  0
M  END
