
     RDKit          3D

 26 29  0  0  0  0  0  0  0  0999 V2000
    1.0750    1.2290    0.9970 N   0  0  0  0  0  0  0  0  0  0  0  0
    1.4190    0.2740    0.2260 C   0  0  0  0  0  0  0  0  0  0  0  0
    0.4980   -0.6120   -0.5700 C   0  0  0  0  0  0  0  0  0  0  0  0
   -0.7920   -0.4440   -0.5140 C   0  0  0  0  0  0  0  0  0  0  0  0
   -1.8630   -1.1540   -1.1740 C   0  0  0  0  0  0  0  0  0  0  0  0
   -3.1420   -0.7990   -0.9290 C   0  0  0  0  0  0  0  0  0  0  0  0
   -3.4740    0.2870    0.0030 C   0  0  0  0  0  0  0  0  0  0  0  0
   -3.0890    0.2680    1.3160 C   0  0  0  0  0  0  0  0  0  0  0  0
   -3.4160    1.3220    2.1450 C   0  0  0  0  0  0  0  0  0  0  0  0
   -4.1350    2.4050    1.6570 C   0  0  0  0  0  0  0  0  0  0  0  0
   -4.4550    3.4450    2.4870 F   0  0  0  0  0  0  0  0  0  0  0  0
   -4.5200    2.4160    0.3320 C   0  0  0  0  0  0  0  0  0  0  0  0
   -4.1980    1.3710   -0.4990 C   0  0  0  0  0  0  0  0  0  0  0  0
   -4.2280   -1.4350   -1.5380 O   0  0  0  0  0  0  0  0  0  0  0  0
   -4.1140   -2.8010   -1.8840 C   0  0  0  0  0  0  0  0  0  0  0  0
   -2.8370   -2.8420   -2.6820 C   0  0  0  0  0  0  0  0  0  0  0  0
   -2.7450   -3.3740   -3.7940 O   0  0  0  0  0  0  0  0  0  0  0  0
   -1.6890   -2.2240   -2.0920 N   0  0  0  0  0  0  0  0  0  0  0  0
    1.4090   -1.5010   -1.2470 C   0  0  0  0  0  0  0  0  0  0  0  0
    2.6640   -1.2440   -0.9500 N   0  0  0  0  0  0  0  0  0  0  0  0
    2.7230   -0.1810   -0.0640 N   0  0  0  0  0  0  0  0  0  0  0  0
    3.9340    0.3750    0.4780 C   0  0  0  0  0  0  0  0  0  0  0  0
    4.4250    1.5730    0.2100 C   0  0  0  0  0  0  0  0  0  0  0  0
    5.7040    1.7650    0.9810 C   0  0  0  0  0  0  0  0  0  0  0  0
    6.1360    0.3610    1.0710 N   0  0  0  0  0  0  0  0  0  0  0  0
    4.8670   -0.2660    1.4340 C   0  0  0  0  0  0  0  0  0  0  0  0
  1  2  2  0
  2  3  1  0
  2 21  1  0
  3  4  2  3
  3 19  1  0
  4  5  1  0
  5  6  2  0
  5 18  1  0
  6  7  1  0
  6 14  1  0
  7  8  2  0
  7 13  1  0
  8  9  1  0
  9 10  2  0
 10 11  1  0
 10 12  1  0
 12 13  2  0
 14 15  1  0
 15 16  1  0
 16 17  2  0
 16 18  1  0
 19 20  2  0
 20 21  1  0
 21 22  1  0
 22 23  2  0
 22 26  1  0
 23 24  1  0
 24 25  1  0
 25 26  1  0
M  CHG  1  25   1
M  END
