
     RDKit          3D

 25 28  0  0  0  0  0  0  0  0999 V2000
   -7.4670   -1.3060   -1.3040 C   0  0  0  0  0  0  0  0  0  0  0  0
   -6.3960   -0.7140   -0.4410 C   0  0  0  0  0  0  0  0  0  0  0  0
   -6.7210   -0.0720    0.7390 C   0  0  0  0  0  0  0  0  0  0  0  0
   -5.7270    0.4700    1.5280 C   0  0  0  0  0  0  0  0  0  0  0  0
   -4.3970    0.3930    1.1750 C   0  0  0  0  0  0  0  0  0  0  0  0
   -3.4130    0.9430    1.9800 C   0  0  0  0  0  0  0  0  0  0  0  0
   -2.0940    0.8480    1.5970 C   0  0  0  0  0  0  0  0  0  0  0  0
   -1.8330    0.1970    0.4110 C   0  0  0  0  0  0  0  0  0  0  0  0
   -0.4770    0.0730   -0.0270 N   0  0  0  0  0  0  0  0  0  0  0  0
    0.5950   -0.1290    0.8820 C   0  0  0  0  0  0  0  0  0  0  0  0
    0.5590   -0.2320    2.1490 O   0  0  0  0  0  0  0  0  0  0  0  0
    1.8420   -0.2120    0.1320 C   0  0  0  0  0  0  0  0  0  0  0  0
    3.1740   -0.3990    0.5020 C   0  0  0  0  0  0  0  0  0  0  0  0
    4.1830   -0.4380   -0.4370 C   0  0  0  0  0  0  0  0  0  0  0  0
    5.6170   -0.6330   -0.1020 C   0  0  0  0  0  0  0  0  0  0  0  0
    6.1760    0.7760    0.1160 C   0  0  0  0  0  0  0  0  0  0  0  0
    7.5680    0.7690    0.4540 N   0  0  0  0  0  0  0  0  0  0  0  0
    3.8040   -0.2830   -1.7540 C   0  0  0  0  0  0  0  0  0  0  0  0
    2.5230   -0.1010   -2.1300 N   0  0  0  0  0  0  0  0  0  0  0  0
    1.5500   -0.0660   -1.2040 C   0  0  0  0  0  0  0  0  0  0  0  0
    0.0870    0.1150   -1.3080 C   0  0  0  0  0  0  0  0  0  0  0  0
   -0.5570    0.2800   -2.3750 O   0  0  0  0  0  0  0  0  0  0  0  0
   -2.8010   -0.3310   -0.3570 N   0  0  0  0  0  0  0  0  0  0  0  0
   -4.1070   -0.2590   -0.0180 C   0  0  0  0  0  0  0  0  0  0  0  0
   -5.0930   -0.7800   -0.7690 N   0  0  0  0  0  0  0  0  0  0  0  0
  1  2  1  0
  2  3  2  0
  2 25  1  0
  3  4  1  0
  4  5  2  0
  5  6  1  0
  5 24  1  0
  6  7  2  0
  7  8  1  0
  8  9  1  0
  8 23  2  0
  9 10  1  0
  9 21  1  0
 10 11  2  0
 10 12  1  0
 12 13  2  0
 12 20  1  0
 13 14  1  0
 14 15  1  0
 14 18  2  0
 15 16  1  0
 16 17  1  0
 18 19  1  0
 19 20  2  0
 20 21  1  0
 21 22  2  0
 23 24  1  0
 24 25  2  0
M  CHG  1  17   1
M  END
