
     RDKit          3D

 26 29  0  0  0  0  0  0  0  0999 V2000
   -4.5050   -1.7550   -2.0740 C   0  0  0  0  0  0  0  0  0  0  0  0
   -3.6190   -1.1460   -1.0240 C   0  0  0  0  0  0  0  0  0  0  0  0
   -3.6070   -1.7030    0.2410 C   0  0  0  0  0  0  0  0  0  0  0  0
   -2.7740   -1.1100    1.1820 C   0  0  0  0  0  0  0  0  0  0  0  0
   -2.6390   -1.5320    2.4830 C   0  0  0  0  0  0  0  0  0  0  0  0
   -3.3070   -2.5390    2.9080 N   0  0  0  0  0  0  0  0  0  0  0  0
   -1.7820   -0.8620    3.3150 N   0  0  0  0  0  0  0  0  0  0  0  0
   -1.0550    0.1960    2.9390 C   0  0  0  0  0  0  0  0  0  0  0  0
   -1.1580    0.6610    1.6290 C   0  0  0  0  0  0  0  0  0  0  0  0
   -0.6080    1.6740    0.8720 C   0  0  0  0  0  0  0  0  0  0  0  0
    0.3790    2.6600    1.3570 C   0  0  0  0  0  0  0  0  0  0  0  0
    1.7540    2.0910    1.4780 C   0  0  0  0  0  0  0  0  0  0  0  0
    2.2820    1.5850    0.1860 C   0  0  0  0  0  0  0  0  0  0  0  0
    1.5460    1.6860   -0.8260 O   0  0  0  0  0  0  0  0  0  0  0  0
    3.5560    1.0000    0.0330 N   0  0  0  0  0  0  0  0  0  0  0  0
    4.0600    0.5150   -1.2130 C   0  0  0  0  0  0  0  0  0  0  0  0
    5.1180    0.8790   -1.8790 C   0  0  0  0  0  0  0  0  0  0  0  0
    5.2670    0.1030   -3.1380 C   0  0  0  0  0  0  0  0  0  0  0  0
    4.0930   -0.7940   -3.0950 C   0  0  0  0  0  0  0  0  0  0  0  0
    3.4160   -0.5460   -1.9900 C   0  0  0  0  0  0  0  0  0  0  0  0
    2.2630   -1.1890   -1.6130 F   0  0  0  0  0  0  0  0  0  0  0  0
   -1.1640    1.5460   -0.3490 N   0  0  0  0  0  0  0  0  0  0  0  0
   -2.0080    0.5390   -0.4010 N   0  0  0  0  0  0  0  0  0  0  0  0
   -2.8290   -0.0530   -1.3110 C   0  0  0  0  0  0  0  0  0  0  0  0
   -2.8510    0.4390   -2.4600 O   0  0  0  0  0  0  0  0  0  0  0  0
   -2.0230   -0.0230    0.8080 C   0  0  0  0  0  0  0  0  0  0  0  0
  1  2  1  0
  2  3  2  0
  2 24  1  0
  3  4  1  0
  4  5  1  0
  4 26  2  0
  5  6  2  0
  5  7  1  0
  7  8  1  0
  8  9  2  0
  9 10  1  0
  9 26  1  0
 10 11  1  0
 10 22  2  0
 11 12  1  0
 12 13  1  0
 13 14  2  0
 13 15  1  0
 15 16  1  0
 16 17  2  0
 16 20  1  0
 17 18  1  0
 18 19  1  0
 19 20  2  0
 20 21  1  0
 22 23  1  0
 23 24  1  0
 23 26  1  0
 24 25  2  0
M  CHG  1   6   1
M  END
