
     RDKit          3D

 26 28  0  0  0  0  0  0  0  0999 V2000
   -0.8620   -2.9290    1.4440 C   0  0  0  0  0  0  0  0  0  0  0  0
   -1.6500   -2.1620    0.3940 C   0  0  0  0  0  0  0  0  0  0  0  0
   -2.3560   -1.0610    1.0460 C   0  0  0  0  0  0  0  0  0  0  0  0
   -2.1290    0.2050    0.7400 C   0  0  0  0  0  0  0  0  0  0  0  0
   -1.1550    0.6020   -0.2740 C   0  0  0  0  0  0  0  0  0  0  0  0
    0.0910    0.1440   -0.4890 N   0  0  0  0  0  0  0  0  0  0  0  0
    0.6150    0.7830   -1.5220 C   0  0  0  0  0  0  0  0  0  0  0  0
    1.9380    0.6530   -2.1370 C   0  0  0  0  0  0  0  0  0  0  0  0
    2.2430    1.3250   -3.1540 O   0  0  0  0  0  0  0  0  0  0  0  0
    2.9290   -0.2190   -1.6280 N   0  0  0  0  0  0  0  0  0  0  0  0
    4.2490   -0.4070   -2.1730 C   0  0  2  0  0  0  0  0  0  0  0  0
    4.5750   -1.8250   -2.4930 C   0  0  0  0  0  0  0  0  0  0  0  0
    6.0630   -1.7420   -2.7600 C   0  0  0  0  0  0  0  0  0  0  0  0
    6.5120   -0.9000   -1.5710 C   0  0  0  0  0  0  0  0  0  0  0  0
    5.3440   -0.0010   -1.2370 C   0  0  0  0  0  0  0  0  0  0  0  0
   -0.3130    1.6430   -1.9500 N   0  0  0  0  0  0  0  0  0  0  0  0
   -1.3910    1.5460   -1.2050 N   0  0  0  0  0  0  0  0  0  0  0  0
   -2.8490    1.2320    1.4700 C   0  0  0  0  0  0  0  0  0  0  0  0
   -2.3410    2.4930    1.5180 C   0  0  0  0  0  0  0  0  0  0  0  0
   -2.9790    3.6010    2.2220 C   0  0  0  0  0  0  0  0  0  0  0  0
   -3.2760    4.6200    1.3230 F   0  0  0  0  0  0  0  0  0  0  0  0
   -4.1080    0.9560    2.1610 C   0  0  1  0  0  0  0  0  0  0  0  0
   -5.2610    1.7720    1.5720 C   0  0  0  0  0  0  0  0  0  0  0  0
   -4.4740   -0.4140    2.1900 N   0  0  0  0  0  0  0  0  0  0  0  0
   -3.3850   -1.3150    2.0910 C   0  0  0  0  0  0  0  0  0  0  0  0
   -3.2200   -2.3200    2.8220 O   0  0  0  0  0  0  0  0  0  0  0  0
  1  2  1  0
  2  3  1  0
  3  4  2  0
  3 25  1  0
  4  5  1  0
  4 18  1  0
  5  6  2  0
  5 17  1  0
  6  7  1  0
  7  8  1  0
  7 16  2  0
  8  9  2  0
  8 10  1  0
 11 10  1  1
 11 12  1  0
 11 15  1  0
 12 13  1  0
 13 14  1  0
 14 15  1  0
 16 17  1  0
 18 19  2  3
 18 22  1  0
 19 20  1  0
 20 21  1  0
 22 23  1  6
 22 24  1  0
 24 25  1  0
 25 26  2  0
M  CHG  1  24   1
M  END
