
     RDKit          3D

 25 27  0  0  0  0  0  0  0  0999 V2000
   -5.5270    2.5210    0.7390 C   0  0  0  0  0  0  0  0  0  0  0  0
   -4.1710    2.0910    0.7700 N   0  0  0  0  0  0  0  0  0  0  0  0
   -3.6760    1.5380   -0.4460 C   0  0  0  0  0  0  0  0  0  0  0  0
   -2.8260    0.3390   -0.3800 C   0  0  0  0  0  0  0  0  0  0  0  0
   -1.4960    0.4690   -0.9100 C   0  0  0  0  0  0  0  0  0  0  0  0
   -1.0000    1.8050   -1.2260 C   0  0  0  0  0  0  0  0  0  0  0  0
   -0.7290   -0.6620   -1.0640 C   0  0  0  0  0  0  0  0  0  0  0  0
    0.7180   -0.5330   -1.1440 N   0  0  0  0  0  0  0  0  0  0  0  0
    1.3400   -1.0650    0.0360 C   0  0  0  0  0  0  0  0  0  0  0  0
    0.4850   -1.5070    0.9020 O   0  0  0  0  0  0  0  0  0  0  0  0
    2.7190   -1.1730    0.3920 C   0  0  0  0  0  0  0  0  0  0  0  0
    3.1190   -2.0610    1.3490 N   0  0  0  0  0  0  0  0  0  0  0  0
    4.3670   -1.9340    1.6740 N   0  0  0  0  0  0  0  0  0  0  0  0
    4.8920   -0.9030    0.8980 C   0  0  0  0  0  0  0  0  0  0  0  0
    3.8670   -0.4620    0.1230 C   0  0  0  0  0  0  0  0  0  0  0  0
    4.0580    0.6300   -0.9060 C   0  0  0  0  0  0  0  0  0  0  0  0
    5.5340    0.9440   -0.9660 C   0  0  0  0  0  0  0  0  0  0  0  0
    6.1180    1.0970    0.4080 C   0  0  0  0  0  0  0  0  0  0  0  0
    6.2590   -0.3030    0.9930 C   0  0  0  0  0  0  0  0  0  0  0  0
   -1.2470   -1.8720   -0.7610 C   0  0  0  0  0  0  0  0  0  0  0  0
   -0.5370   -2.8900   -0.9360 O   0  0  0  0  0  0  0  0  0  0  0  0
   -2.5180   -2.0020   -0.2680 N   0  0  0  0  0  0  0  0  0  0  0  0
   -3.0070   -3.3280   -0.0490 C   0  0  0  0  0  0  0  0  0  0  0  0
   -3.2840   -0.9160   -0.0660 C   0  0  0  0  0  0  0  0  0  0  0  0
   -4.5750   -1.0620    0.6290 C   0  0  0  0  0  0  0  0  0  0  0  0
  1  2  1  0
  2  3  1  0
  3  4  1  0
  4  5  1  0
  4 24  2  0
  5  6  1  0
  5  7  2  0
  7  8  1  0
  7 20  1  0
  8  9  1  0
  9 10  2  0
  9 11  1  0
 11 12  2  0
 11 15  1  0
 12 13  1  0
 13 14  1  0
 14 15  2  0
 14 19  1  0
 15 16  1  0
 16 17  1  0
 17 18  1  0
 18 19  1  0
 20 21  2  0
 20 22  1  0
 22 23  1  0
 22 24  1  0
 24 25  1  0
M  CHG  1   2   1
M  END
