
     RDKit          3D

 19 19  0  0  0  0  0  0  0  0999 V2000
   -2.1880    3.6090    1.1060 C   0  0  0  0  0  0  0  0  0  0  0  0
   -1.3730    2.3750    1.0640 C   0  0  0  0  0  0  0  0  0  0  0  0
   -1.4190    1.5390    0.0530 C   0  0  0  0  0  0  0  0  0  0  0  0
   -2.2950    1.7430   -1.1570 C   0  0  0  0  0  0  0  0  0  0  0  0
   -2.5660    0.3750   -1.4450 O   0  0  0  0  0  0  0  0  0  0  0  0
   -1.4140   -0.3770   -1.0700 C   0  0  0  0  0  0  0  0  0  0  0  0
   -1.1670   -1.6880   -1.6610 C   0  0  1  0  0  0  0  0  0  0  0  0
   -2.3050   -2.5090   -1.4520 F   0  0  0  0  0  0  0  0  0  0  0  0
   -1.1140   -1.5760   -3.0530 F   0  0  0  0  0  0  0  0  0  0  0  0
   -0.1220   -2.4000   -1.1730 F   0  0  0  0  0  0  0  0  0  0  0  0
   -0.7070    0.2740   -0.1880 C   0  0  0  0  0  0  0  0  0  0  0  0
    0.5360   -0.0270    0.4960 C   0  0  0  0  0  0  0  0  0  0  0  0
    1.0370    0.8010    1.3420 O   0  0  0  0  0  0  0  0  0  0  0  0
    1.2690   -1.1680    0.3190 O   0  0  0  0  0  0  0  0  0  0  0  0
    2.4820   -1.4400    1.0000 C   0  0  0  0  0  0  0  0  0  0  0  0
    2.9790   -2.7650    0.5450 C   0  0  0  0  0  0  0  0  0  0  0  0
    1.9520   -4.1610    0.8130 Cl  0  0  0  0  0  0  0  0  0  0  0  0
    4.1680   -2.9010   -0.0500 C   0  0  0  0  0  0  0  0  0  0  0  0
    4.7630   -4.4570   -0.5900 Cl  0  0  0  0  0  0  0  0  0  0  0  0
  1  2  1  0
  2  3  2  3
  3  4  1  0
  3 11  1  0
  4  5  1  0
  5  6  1  0
  6  7  1  0
  6 11  2  0
  7  8  1  6
  7  9  1  0
  7 10  1  0
 11 12  1  0
 12 13  2  0
 12 14  1  0
 14 15  1  0
 15 16  1  0
 16 17  1  0
 16 18  2  3
 18 19  1  0
M  END
