
     RDKit          3D

 18 18  0  0  0  0  0  0  0  0999 V2000
    1.6200    2.1470    0.6630 C   0  0  0  0  0  0  0  0  0  0  0  0
    0.4360    1.3000    0.4340 C   0  0  0  0  0  0  0  0  0  0  0  0
   -0.6600    1.8580   -0.0040 C   0  0  0  0  0  0  0  0  0  0  0  0
   -1.8910    1.0510   -0.2530 C   0  0  0  0  0  0  0  0  0  0  0  0
   -2.9580    1.6500   -0.6890 C   0  0  0  0  0  0  0  0  0  0  0  0
   -2.8830    3.0130   -0.8970 F   0  0  0  0  0  0  0  0  0  0  0  0
   -4.1300    1.0750   -0.9590 F   0  0  0  0  0  0  0  0  0  0  0  0
   -1.8440   -0.3810    0.0050 C   0  0  0  0  0  0  0  0  0  0  0  0
   -2.8670   -1.2000   -0.1770 C   0  0  0  0  0  0  0  0  0  0  0  0
   -2.7380   -2.6710    0.1150 C   0  0  0  0  0  0  0  0  0  0  0  0
   -1.1390   -3.1170    0.7100 Cl  0  0  0  0  0  0  0  0  0  0  0  0
   -0.6260   -0.8760    0.4700 O   0  0  0  0  0  0  0  0  0  0  0  0
    0.5200   -0.1470    0.6990 C   0  0  1  0  0  0  0  0  0  0  0  0
    1.6670   -0.7630   -0.0300 C   0  0  0  0  0  0  0  0  0  0  0  0
    1.5310   -1.7830   -0.7380 O   0  0  0  0  0  0  0  0  0  0  0  0
    2.9280   -0.1980    0.0710 O   0  0  0  0  0  0  0  0  0  0  0  0
    4.0730   -0.7030   -0.5770 C   0  0  0  0  0  0  0  0  0  0  0  0
    4.3970   -2.3780   -0.0420 Cl  0  0  0  0  0  0  0  0  0  0  0  0
  1  2  1  0
  2  3  2  0
  2 13  1  0
  3  4  1  0
  4  5  2  3
  4  8  1  0
  5  6  1  0
  5  7  1  0
  8  9  2  3
  8 12  1  0
  9 10  1  0
 10 11  1  0
 12 13  1  0
 13 14  1  6
 14 15  2  0
 14 16  1  0
 16 17  1  0
 17 18  1  0
M  END
