
     RDKit          3D

 19 19  0  0  0  0  0  0  0  0999 V2000
   -3.6630   -1.3390    0.5290 O   0  0  0  0  0  0  0  0  0  0  0  0
   -2.7120   -0.3680    0.2830 C   0  0  0  0  0  0  0  0  0  0  0  0
   -2.9850    0.8210    0.7990 C   0  0  0  0  0  0  0  0  0  0  0  0
   -2.2970    2.1080    0.7990 C   0  0  0  0  0  0  0  0  0  0  0  0
   -1.0470    2.5340    0.5490 C   0  0  0  0  0  0  0  0  0  0  0  0
   -0.8380    4.2610    0.7230 Cl  0  0  0  0  0  0  0  0  0  0  0  0
    0.1560    1.8070    0.1610 C   0  0  0  0  0  0  0  0  0  0  0  0
    0.4340    0.5990   -0.3540 C   0  0  0  0  0  0  0  0  0  0  0  0
    1.7720    0.3550   -0.5540 O   0  0  0  0  0  0  0  0  0  0  0  0
    2.5370   -0.0790    0.5690 C   0  0  0  0  0  0  0  0  0  0  0  0
    3.9900   -0.3000    0.1740 C   0  0  1  0  0  0  0  0  0  0  0  0
    4.1080   -1.2510   -0.8040 F   0  0  0  0  0  0  0  0  0  0  0  0
    4.5320    0.9220   -0.1950 F   0  0  0  0  0  0  0  0  0  0  0  0
    4.8440   -0.9000    1.6130 Cl  0  0  0  0  0  0  0  0  0  0  0  0
   -0.3750   -0.5430   -0.7580 C   0  0  0  0  0  0  0  0  0  0  0  0
    0.3500   -1.4880   -1.6480 C   0  0  0  0  0  0  0  0  0  0  0  0
    0.7470   -0.8130   -2.8070 F   0  0  0  0  0  0  0  0  0  0  0  0
   -1.6080   -0.9360   -0.5180 C   0  0  0  0  0  0  0  0  0  0  0  0
   -1.9420   -2.1360   -1.1490 O   0  0  0  0  0  0  0  0  0  0  0  0
  1  2  1  0
  2  3  2  0
  2 18  1  0
  3  4  1  0
  4  5  2  0
  5  6  1  0
  5  7  1  0
  7  8  2  0
  8  9  1  0
  8 15  1  0
  9 10  1  0
 10 11  1  0
 11 12  1  6
 11 13  1  0
 11 14  1  0
 15 16  1  0
 15 18  2  0
 16 17  1  0
 18 19  1  0
M  END
