
     RDKit          3D

 19 19  0  0  0  0  0  0  0  0999 V2000
   -4.9550   -1.1870    0.8020 C   0  0  0  0  0  0  0  0  0  0  0  0
   -3.7370   -0.5080    0.8550 O   0  0  0  0  0  0  0  0  0  0  0  0
   -2.6400   -0.7940    0.0750 C   0  0  0  0  0  0  0  0  0  0  0  0
   -2.7390   -1.7380   -0.7510 O   0  0  0  0  0  0  0  0  0  0  0  0
   -1.3610   -0.0690    0.1430 C   0  0  1  0  0  0  0  0  0  0  0  0
   -1.4800    1.4090   -0.0150 C   0  0  0  0  0  0  0  0  0  0  0  0
   -0.6730   -0.4600    1.4610 C   0  0  0  0  0  0  0  0  0  0  0  0
    0.7210    0.1410    1.1370 C   0  0  0  0  0  0  0  0  0  0  0  0
    0.8810   -0.1780   -0.2890 C   0  0  0  0  0  0  0  0  0  0  0  0
    1.9450   -0.1280   -1.0330 C   0  0  0  0  0  0  0  0  0  0  0  0
    3.3030    0.2310   -0.7900 C   0  0  0  0  0  0  0  0  0  0  0  0
    4.1990    0.1790   -1.8090 C   0  0  0  0  0  0  0  0  0  0  0  0
    5.8610    0.5910   -1.6220 Cl  0  0  0  0  0  0  0  0  0  0  0  0
    3.6210   -0.3320   -3.3740 Cl  0  0  0  0  0  0  0  0  0  0  0  0
    3.8270    0.6500    0.5100 C   0  0  2  0  0  0  0  0  0  0  0  0
    3.0630    1.6810    1.0030 F   0  0  0  0  0  0  0  0  0  0  0  0
    5.1270    1.1840    0.3290 F   0  0  0  0  0  0  0  0  0  0  0  0
    3.9750   -0.3990    1.4140 F   0  0  0  0  0  0  0  0  0  0  0  0
   -0.4130   -0.5810   -0.7690 O   0  0  0  0  0  0  0  0  0  0  0  0
  1  2  1  0
  2  3  1  0
  3  4  2  0
  3  5  1  0
  5  6  1  1
  5  7  1  0
  5 19  1  0
  7  8  1  0
  8  9  1  0
  9 10  2  3
  9 19  1  0
 10 11  1  0
 11 12  2  3
 11 15  1  0
 12 13  1  0
 12 14  1  0
 15 16  1  1
 15 17  1  0
 15 18  1  0
M  END
