
     RDKit          3D

 12 11  0  0  0  0  0  0  0  0999 V2000
    3.5360   -0.4680   -0.6400 N   0  0  0  0  0  0  0  0  0  0  0  0
    2.1940   -0.0110   -0.7280 C   0  0  0  0  0  0  0  0  0  0  0  0
    1.7370    0.4820   -1.7930 O   0  0  0  0  0  0  0  0  0  0  0  0
    1.3620   -0.1490    0.5120 C   0  0  1  0  0  0  0  0  0  0  0  0
    2.0150    0.7280    1.5680 C   0  0  0  0  0  0  0  0  0  0  0  0
    2.0620    2.0210    1.0610 O   0  0  0  0  0  0  0  0  0  0  0  0
    0.0100    0.3670    0.2540 N   0  0  0  0  0  0  0  0  0  0  0  0
   -0.8200   -0.7990    0.0520 C   0  0  0  0  0  0  0  0  0  0  0  0
   -2.2270   -0.5070   -0.2220 C   0  0  0  0  0  0  0  0  0  0  0  0
   -3.0990   -1.6400   -0.4320 N   0  0  0  0  0  0  0  0  0  0  0  0
   -2.7570    0.6810   -0.2930 C   0  0  0  0  0  0  0  0  0  0  0  0
   -2.0570    1.8690   -0.1170 O   0  0  0  0  0  0  0  0  0  0  0  0
  1  2  1  0
  2  3  2  0
  2  4  1  0
  4  5  1  1
  4  7  1  0
  5  6  1  0
  7  8  1  0
  8  9  1  0
  9 10  1  0
  9 11  2  3
 11 12  1  0
M  CHG  2   7   1  10   1
M  END
