
     RDKit          3D

 13 12  0  0  0  0  0  0  0  0999 V2000
    3.7000   -1.3850    0.6080 N   0  0  0  0  0  0  0  0  0  0  0  0
    2.2300   -1.3460    0.6510 C   0  0  0  0  0  0  0  0  0  0  0  0
    1.7320   -2.2720    1.3320 O   0  0  0  0  0  0  0  0  0  0  0  0
    1.5390   -0.3140   -0.0480 C   0  0  0  0  0  0  0  0  0  0  0  0
    0.2770   -0.0990   -0.1400 C   0  0  0  0  0  0  0  0  0  0  0  0
   -0.8880   -0.7500    0.3780 C   0  0  0  0  0  0  0  0  0  0  0  0
   -0.7880   -1.9060    1.1930 N   0  0  0  0  0  0  0  0  0  0  0  0
   -2.1150   -0.3320    0.1410 C   0  0  0  0  0  0  0  0  0  0  0  0
   -2.5930    0.7730   -0.6200 C   0  0  0  0  0  0  0  0  0  0  0  0
   -4.0170    0.9970   -0.7110 N   0  0  0  0  0  0  0  0  0  0  0  0
   -1.8720    1.5710   -1.2210 O   0  0  0  0  0  0  0  0  0  0  0  0
    2.3850    0.6150   -0.7470 O   0  0  0  0  0  0  0  0  0  0  0  0
    2.4110    1.9250   -0.3700 N   0  0  0  0  0  0  0  0  0  0  0  0
  1  2  1  0
  2  3  2  0
  2  4  1  0
  4  5  2  3
  4 12  1  0
  5  6  1  0
  6  7  1  0
  6  8  2  3
  8  9  1  0
  9 10  1  0
  9 11  2  0
 12 13  1  0
M  CHG  2  10   1  13   1
M  END
