
     RDKit          3D

 12 11  0  0  0  0  0  0  0  0999 V2000
    4.1160   -0.1930    1.0640 N   0  0  0  0  0  0  0  0  0  0  0  0
    2.9310    0.1030    0.3430 C   0  0  0  0  0  0  0  0  0  0  0  0
    3.0990    0.4770   -0.8640 O   0  0  0  0  0  0  0  0  0  0  0  0
    1.5780   -0.0090    0.9350 C   0  0  0  0  0  0  0  0  0  0  0  0
    0.6130    0.3620   -0.0640 N   0  0  0  0  0  0  0  0  0  0  0  0
   -0.7520    0.2560    0.4280 C   0  0  0  0  0  0  0  0  0  0  0  0
   -1.6710   -0.2050   -0.6600 C   0  0  0  0  0  0  0  0  0  0  0  0
   -2.6680    0.5560   -1.0200 C   0  0  0  0  0  0  0  0  0  0  0  0
   -2.8850    1.7990   -0.3980 N   0  0  0  0  0  0  0  0  0  0  0  0
   -1.4630   -1.4940   -1.3200 C   0  0  0  0  0  0  0  0  0  0  0  0
   -0.3870   -2.3230   -0.9360 N   0  0  0  0  0  0  0  0  0  0  0  0
   -2.2400   -1.8550   -2.2220 O   0  0  0  0  0  0  0  0  0  0  0  0
  1  2  1  0
  2  3  2  0
  2  4  1  0
  4  5  1  0
  5  6  1  0
  6  7  1  0
  7  8  2  3
  7 10  1  0
  8  9  1  0
 10 11  1  0
 10 12  2  0
M  CHG  2   5   1   9   1
M  END
