
     RDKit          3D

 13 12  0  0  0  0  0  0  0  0999 V2000
    0.3700    2.0850   -0.1650 C   0  0  0  0  0  0  0  0  0  0  0  0
    0.1140    0.8240    0.1850 O   0  0  0  0  0  0  0  0  0  0  0  0
   -0.2500   -0.3670   -0.2420 C   0  0  0  0  0  0  0  0  0  0  0  0
   -0.9340   -0.6350   -1.3170 C   0  0  0  0  0  0  0  0  0  0  0  0
   -1.4350    0.3490   -2.2680 C   0  0  2  0  0  0  0  0  0  0  0  0
   -0.4250    1.1740   -2.8860 N   0  0  0  0  0  0  0  0  0  0  0  0
   -2.4760    1.2240   -1.7190 N   0  0  0  0  0  0  0  0  0  0  0  0
    0.1630   -1.5430    0.5920 C   0  0  0  0  0  0  0  0  0  0  0  0
   -0.1950   -2.8320    0.1870 N   0  0  0  0  0  0  0  0  0  0  0  0
    0.8460   -1.3260    1.6720 C   0  0  0  0  0  0  0  0  0  0  0  0
    1.2330   -2.4190    2.4520 O   0  0  0  0  0  0  0  0  0  0  0  0
    1.2280   -0.0690    2.1200 O   0  0  0  0  0  0  0  0  0  0  0  0
    2.5950    0.1640    2.1940 N   0  0  0  0  0  0  0  0  0  0  0  0
  1  2  1  0
  2  3  1  0
  3  4  2  3
  3  8  1  0
  4  5  1  0
  5  6  1  1
  5  7  1  0
  8  9  1  0
  8 10  2  3
 10 11  1  0
 10 12  1  0
 12 13  1  0
M  CHG  2   7   1  13   1
M  END
