
     RDKit          3D

 30 34  0  0  0  0  0  0  0  0999 V2000
   -2.4350    2.6080    2.5010 C   0  0  0  0  0  0  0  0  0  0  0  0
   -3.0100    1.7780    1.4220 C   0  0  0  0  0  0  0  0  0  0  0  0
   -4.2240    2.0880    0.8600 C   0  0  0  0  0  0  0  0  0  0  0  0
   -4.7810    1.3310   -0.1480 C   0  0  0  0  0  0  0  0  0  0  0  0
   -4.1010    0.2250   -0.6130 C   0  0  0  0  0  0  0  0  0  0  0  0
   -4.6820   -0.5700   -1.5870 C   0  0  0  0  0  0  0  0  0  0  0  0
   -5.9990   -0.1800   -2.1470 C   0  0  0  0  0  0  0  0  0  0  0  0
   -3.9950   -1.6930   -1.9840 C   0  0  0  0  0  0  0  0  0  0  0  0
   -2.7770   -2.0260   -1.4490 C   0  0  0  0  0  0  0  0  0  0  0  0
   -2.1620   -1.2360   -0.4610 C   0  0  0  0  0  0  0  0  0  0  0  0
   -0.9000   -1.7040    0.0870 C   0  0  0  0  0  0  0  0  0  0  0  0
   -0.7140   -2.9780    0.5610 N   0  0  0  0  0  0  0  0  0  0  0  0
    0.5560   -3.1700    0.8910 C   0  0  0  0  0  0  0  0  0  0  0  0
    1.2050   -2.0140    0.6300 C   0  0  0  0  0  0  0  0  0  0  0  0
    0.3140   -1.0540    0.1130 C   0  0  0  0  0  0  0  0  0  0  0  0
    0.7290    0.2870   -0.3670 C   0  0  0  0  0  0  0  0  0  0  0  0
    2.1500    0.4380   -0.1220 N   0  0  0  0  0  0  0  0  0  0  0  0
    2.6820    0.9440    1.0010 C   0  0  0  0  0  0  0  0  0  0  0  0
    1.8480    1.3180    1.9010 O   0  0  0  0  0  0  0  0  0  0  0  0
    3.9800    1.0920    1.2640 N   0  0  0  0  0  0  0  0  0  0  0  0
    4.9370    0.7210    0.3620 C   0  0  0  0  0  0  0  0  0  0  0  0
    6.2490    0.7610    0.3820 N   0  0  0  0  0  0  0  0  0  0  0  0
    7.0460    0.4510   -0.3670 C   0  0  0  0  0  0  0  0  0  0  0  0
    8.4830    0.3120   -0.7630 C   0  0  0  0  0  0  0  0  0  0  0  0
    5.9130   -0.1860   -1.7570 S   0  0  0  0  0  0  0  0  0  0  0  0
    4.3900    0.1900   -0.8170 C   0  0  0  0  0  0  0  0  0  0  0  0
    3.0680    0.0480   -1.0640 C   0  0  0  0  0  0  0  0  0  0  0  0
    2.7040   -0.4400   -2.1570 O   0  0  0  0  0  0  0  0  0  0  0  0
   -2.8590   -0.1300   -0.0740 C   0  0  0  0  0  0  0  0  0  0  0  0
   -2.3560    0.6760    0.9430 C   0  0  0  0  0  0  0  0  0  0  0  0
  1  2  1  0
  2  3  2  0
  2 30  1  0
  3  4  1  0
  4  5  2  0
  5  6  1  0
  5 29  1  0
  6  7  1  0
  6  8  2  0
  8  9  1  0
  9 10  2  0
 10 11  1  0
 10 29  1  0
 11 12  1  0
 11 15  2  0
 12 13  1  0
 13 14  2  0
 14 15  1  0
 15 16  1  0
 16 17  1  0
 17 18  1  0
 17 27  1  0
 18 19  2  0
 18 20  1  0
 20 21  1  0
 21 22  1  0
 21 26  2  0
 22 23  2  0
 23 24  1  0
 23 25  1  0
 25 26  1  0
 26 27  1  0
 27 28  2  0
 29 30  2  0
M  END
