
     RDKit          3D

 30 34  0  0  0  0  0  0  0  0999 V2000
    1.0060    1.5360    3.7450 C   0  0  0  0  0  0  0  0  0  0  0  0
   -0.2240    1.1970    3.0100 C   0  0  0  0  0  0  0  0  0  0  0  0
   -1.4720    1.3610    3.5510 N   0  0  0  0  0  0  0  0  0  0  0  0
   -2.3630    0.9660    2.6380 C   0  0  0  0  0  0  0  0  0  0  0  0
   -3.7600    0.9230    2.6660 C   0  0  0  0  0  0  0  0  0  0  0  0
   -4.4130    0.4590    1.5540 C   0  0  0  0  0  0  0  0  0  0  0  0
   -3.7720    0.0360    0.4150 C   0  0  0  0  0  0  0  0  0  0  0  0
   -4.5430   -0.4490   -0.7380 C   0  0  0  0  0  0  0  0  0  0  0  0
   -5.7450   -1.1010   -0.6140 C   0  0  0  0  0  0  0  0  0  0  0  0
   -6.4730   -1.5580   -1.7010 C   0  0  0  0  0  0  0  0  0  0  0  0
   -5.9690   -1.3490   -2.9690 C   0  0  0  0  0  0  0  0  0  0  0  0
   -4.7690   -0.6990   -3.1250 C   0  0  0  0  0  0  0  0  0  0  0  0
   -4.0530   -0.2480   -2.0260 C   0  0  0  0  0  0  0  0  0  0  0  0
   -2.3990    0.0860    0.4060 C   0  0  0  0  0  0  0  0  0  0  0  0
   -1.7050    0.5480    1.5090 C   0  0  0  0  0  0  0  0  0  0  0  0
   -0.3190    0.6950    1.7450 C   0  0  0  0  0  0  0  0  0  0  0  0
    0.6600    0.3400    0.7540 C   0  0  0  0  0  0  0  0  0  0  0  0
    1.9510    0.4440    0.9250 C   0  0  0  0  0  0  0  0  0  0  0  0
    2.8910    0.0470   -0.1710 C   0  0  0  0  0  0  0  0  0  0  0  0
    2.3550   -0.3890   -1.2540 N   0  0  0  0  0  0  0  0  0  0  0  0
    3.3250   -0.8790   -2.5930 S   0  0  2  0  0  0  0  0  0  0  0  0
    3.0080   -0.1420   -3.8430 O   0  0  0  0  0  0  0  0  0  0  0  0
    3.1810   -2.3830   -2.7850 O   0  0  0  0  0  0  0  0  0  0  0  0
    5.0010   -0.6330   -2.0960 C   0  0  0  0  0  0  0  0  0  0  0  0
    5.9810   -0.9430   -2.9770 C   0  0  0  0  0  0  0  0  0  0  0  0
    7.2680   -0.7620   -2.6150 N   0  0  0  0  0  0  0  0  0  0  0  0
    7.6200   -0.2850   -1.4120 C   0  0  0  0  0  0  0  0  0  0  0  0
    6.6260    0.0270   -0.5250 C   0  0  0  0  0  0  0  0  0  0  0  0
    5.2890   -0.1450   -0.8610 C   0  0  0  0  0  0  0  0  0  0  0  0
    4.2670    0.1770    0.0520 N   0  0  0  0  0  0  0  0  0  0  0  0
  1  2  1  0
  2  3  1  0
  2 16  2  0
  3  4  1  0
  4  5  2  0
  4 15  1  0
  5  6  1  0
  6  7  2  0
  7  8  1  0
  7 14  1  0
  8  9  2  0
  8 13  1  0
  9 10  1  0
 10 11  2  0
 11 12  1  0
 12 13  2  0
 14 15  2  0
 15 16  1  0
 16 17  1  0
 17 18  2  3
 18 19  1  0
 19 20  2  0
 19 30  1  0
 21 20  1  1
 21 22  2  0
 21 23  2  0
 21 24  1  0
 24 25  2  0
 24 29  1  0
 25 26  1  0
 26 27  2  0
 27 28  1  0
 28 29  2  0
 29 30  1  0
M  END
