
     RDKit          3D

 30 34  0  0  0  0  0  0  0  0999 V2000
    0.4390   -1.2370    1.6310 O   0  0  0  0  0  0  0  0  0  0  0  0
    0.1880   -0.2210    0.9870 C   0  0  0  0  0  0  0  0  0  0  0  0
   -1.1850    0.0020    0.6090 N   0  0  0  0  0  0  0  0  0  0  0  0
   -2.1910   -0.9500    0.9890 C   0  0  0  0  0  0  0  0  0  0  0  0
   -3.5020   -0.4810    0.4760 C   0  0  0  0  0  0  0  0  0  0  0  0
   -4.7130   -1.0920    0.6220 N   0  0  0  0  0  0  0  0  0  0  0  0
   -5.6640   -0.3640    0.0190 C   0  0  0  0  0  0  0  0  0  0  0  0
   -5.0120    0.7260   -0.5100 C   0  0  0  0  0  0  0  0  0  0  0  0
   -5.6510    1.7260   -1.2180 C   0  0  0  0  0  0  0  0  0  0  0  0
   -7.0140    1.6250   -1.4020 C   0  0  0  0  0  0  0  0  0  0  0  0
   -7.6920    0.5430   -0.8820 C   0  0  0  0  0  0  0  0  0  0  0  0
   -9.0540    0.4000   -1.0410 C   0  0  0  0  0  0  0  0  0  0  0  0
   -9.7190   -0.7030   -0.5060 C   0  0  0  0  0  0  0  0  0  0  0  0
   -9.0110   -1.6590    0.1880 C   0  0  0  0  0  0  0  0  0  0  0  0
   -7.6890   -1.4960    0.3280 N   0  0  0  0  0  0  0  0  0  0  0  0
   -7.0220   -0.4440   -0.1760 C   0  0  0  0  0  0  0  0  0  0  0  0
   -3.7610    0.6060   -0.2150 O   0  0  0  0  0  0  0  0  0  0  0  0
    1.2130    0.6760    0.6430 N   0  0  0  0  0  0  0  0  0  0  0  0
    2.5810    0.5650    0.9480 C   0  0  0  0  0  0  0  0  0  0  0  0
    3.3990    1.6520    0.6140 C   0  0  0  0  0  0  0  0  0  0  0  0
    4.7570    1.6570    0.8580 C   0  0  0  0  0  0  0  0  0  0  0  0
    5.3680    0.5730    1.4500 C   0  0  0  0  0  0  0  0  0  0  0  0
    7.1290    0.5960    1.7590 S   0  0  0  0  0  0  0  0  0  0  0  0
    7.9880   -0.0710    0.3420 C   0  0  0  0  0  0  0  0  0  0  0  0
    9.3060   -0.1840    0.2720 C   0  0  0  0  0  0  0  0  0  0  0  0
    9.6350   -0.7730   -1.0410 C   0  0  0  0  0  0  0  0  0  0  0  0
    8.3190   -0.9740   -1.6960 C   0  0  0  0  0  0  0  0  0  0  0  0
    7.3740   -0.5620   -0.8800 C   0  0  0  0  0  0  0  0  0  0  0  0
    4.5710   -0.4930    1.7780 C   0  0  0  0  0  0  0  0  0  0  0  0
    3.1880   -0.5120    1.5360 C   0  0  0  0  0  0  0  0  0  0  0  0
  1  2  2  0
  2  3  1  0
  2 18  1  0
  3  4  1  0
  4  5  1  0
  5  6  2  0
  5 17  1  0
  6  7  1  0
  7  8  2  0
  7 16  1  0
  8  9  1  0
  8 17  1  0
  9 10  2  0
 10 11  1  0
 11 12  2  0
 11 16  1  0
 12 13  1  0
 13 14  2  0
 14 15  1  0
 15 16  2  0
 18 19  1  0
 19 20  2  0
 19 30  1  0
 20 21  1  0
 21 22  2  0
 22 23  1  0
 22 29  1  0
 23 24  1  0
 24 25  2  0
 24 28  1  0
 25 26  1  0
 26 27  1  0
 27 28  2  0
 29 30  2  0
M  END
