
     RDKit          3D

 30 32  0  0  0  0  0  0  0  0999 V2000
    8.4510   -1.5350    0.4650 C   0  0  0  0  0  0  0  0  0  0  0  0
    7.7480   -0.4750    1.0380 O   0  0  0  0  0  0  0  0  0  0  0  0
    6.7670   -0.0860    0.1040 C   0  0  0  0  0  0  0  0  0  0  0  0
    5.9580    1.0690    0.6270 C   0  0  0  0  0  0  0  0  0  0  0  0
    4.9120    1.6110   -0.2510 C   0  0  2  0  0  0  0  0  0  0  0  0
    4.1900    2.7550    0.3630 C   0  0  0  0  0  0  0  0  0  0  0  0
    3.6190    3.6600    0.8330 N   0  0  0  0  0  0  0  0  0  0  0  0
    4.0140    0.7080   -0.9960 C   0  0  1  0  0  0  0  0  0  0  0  0
    4.8850   -0.0430   -1.8330 O   0  0  0  0  0  0  0  0  0  0  0  0
    3.0930   -0.1680   -0.2690 C   0  0  2  0  0  0  0  0  0  0  0  0
    2.2460   -0.9490   -1.2500 C   0  0  0  0  0  0  0  0  0  0  0  0
    1.1490   -0.0120   -1.7430 C   0  0  0  0  0  0  0  0  0  0  0  0
    0.3280    0.2570   -0.5830 N   0  0  0  0  0  0  0  0  0  0  0  0
   -1.0330   -0.1490   -0.6230 C   0  0  0  0  0  0  0  0  0  0  0  0
   -1.9940    0.3320    0.2190 C   0  0  0  0  0  0  0  0  0  0  0  0
   -3.3490   -0.0650    0.2120 C   0  0  0  0  0  0  0  0  0  0  0  0
   -4.2360    0.4860    1.2000 C   0  0  0  0  0  0  0  0  0  0  0  0
   -3.5430    1.0320    2.2210 O   0  0  0  0  0  0  0  0  0  0  0  0
   -5.6180    0.6190    1.3980 C   0  0  0  0  0  0  0  0  0  0  0  0
   -6.7390    0.3680    0.8070 C   0  0  0  0  0  0  0  0  0  0  0  0
   -6.9850   -0.2510   -0.5170 C   0  0  0  0  0  0  0  0  0  0  0  0
   -8.3250   -0.0160   -0.9230 O   0  0  0  0  0  0  0  0  0  0  0  0
   -9.0810   -0.7940   -0.0200 C   0  0  0  0  0  0  0  0  0  0  0  0
   -9.1580    0.0170    1.2450 C   0  0  0  0  0  0  0  0  0  0  0  0
   -7.9630    0.7110    1.4640 O   0  0  0  0  0  0  0  0  0  0  0  0
   -3.6890   -1.0030   -0.7180 C   0  0  0  0  0  0  0  0  0  0  0  0
   -2.6960   -1.4890   -1.5790 C   0  0  0  0  0  0  0  0  0  0  0  0
   -1.4280   -1.0700   -1.5210 N   0  0  0  0  0  0  0  0  0  0  0  0
    0.9530    0.9070    0.5240 C   0  0  0  0  0  0  0  0  0  0  0  0
    2.3110    0.3510    0.8730 C   0  0  0  0  0  0  0  0  0  0  0  0
  1  2  1  0
  2  3  1  0
  3  4  1  0
  5  4  1  1
  5  6  1  0
  5  8  1  0
  6  7  3  0
  8  9  1  1
  8 10  1  0
 10 11  1  6
 10 30  1  0
 11 12  1  0
 12 13  1  0
 13 14  1  0
 13 29  1  0
 14 15  2  0
 14 28  1  0
 15 16  1  0
 16 17  1  0
 16 26  2  0
 17 18  2  0
 17 19  1  0
 19 20  2  3
 20 21  1  0
 20 25  1  0
 21 22  1  0
 22 23  1  0
 23 24  1  0
 24 25  1  0
 26 27  1  0
 27 28  2  0
 29 30  1  0
M  END
