
     RDKit          3D

 30 32  0  0  0  0  0  0  0  0999 V2000
    6.6290    0.4660   -0.2870 C   0  0  0  0  0  0  0  0  0  0  0  0
    5.1640    0.8370   -0.0860 C   0  0  0  0  0  0  0  0  0  0  0  0
    4.5270   -0.2280    0.7430 C   0  0  0  0  0  0  0  0  0  0  0  0
    3.0780    0.0150    1.0230 C   0  0  0  0  0  0  0  0  0  0  0  0
    2.5180    0.8380    1.9370 C   0  0  0  0  0  0  0  0  0  0  0  0
    3.2350    1.6870    2.9170 C   0  0  0  0  0  0  0  0  0  0  0  0
    2.5200    2.5500    3.8670 C   0  0  0  0  0  0  0  0  0  0  0  0
    4.4860    1.6660    2.9320 O   0  0  0  0  0  0  0  0  0  0  0  0
    1.2030    0.7350    1.7970 N   0  0  0  0  0  0  0  0  0  0  0  0
    0.8500   -0.1470    0.8030 C   0  0  0  0  0  0  0  0  0  0  0  0
   -0.5220   -0.4130    0.5190 C   0  0  0  0  0  0  0  0  0  0  0  0
   -1.3200    0.2950    1.3470 O   0  0  0  0  0  0  0  0  0  0  0  0
   -1.2610   -1.1860   -0.3580 N   0  0  0  0  0  0  0  0  0  0  0  0
   -0.7620   -2.0720   -1.3620 C   0  0  0  0  0  0  0  0  0  0  0  0
   -0.5180   -3.4830   -0.8680 C   0  0  0  0  0  0  0  0  0  0  0  0
   -2.7290   -1.0560   -0.2740 C   0  0  1  0  0  0  0  0  0  0  0  0
   -3.3500   -1.5090    0.9830 C   0  0  0  0  0  0  0  0  0  0  0  0
   -4.8160   -1.8040    0.7040 C   0  0  0  0  0  0  0  0  0  0  0  0
   -5.3160   -1.0290   -0.3590 O   0  0  0  0  0  0  0  0  0  0  0  0
   -4.7910    0.1990   -0.2350 C   0  0  2  0  0  0  0  0  0  0  0  0
   -5.2590    1.2920   -1.0900 C   0  0  0  0  0  0  0  0  0  0  0  0
   -6.3540    1.5050   -1.6570 O   0  0  0  0  0  0  0  0  0  0  0  0
   -4.1320    2.1940   -1.1910 N   0  0  0  0  0  0  0  0  0  0  0  0
   -4.1280    3.4700   -1.8410 C   0  0  0  0  0  0  0  0  0  0  0  0
   -2.9760    1.5250   -0.4820 C   0  0  0  0  0  0  0  0  0  0  0  0
   -3.3380    0.1380   -0.8170 C   0  0  1  0  0  0  0  0  0  0  0  0
    2.0160   -0.6080    0.3060 C   0  0  0  0  0  0  0  0  0  0  0  0
    2.3790   -1.5640   -0.7450 C   0  0  0  0  0  0  0  0  0  0  0  0
    2.6350   -1.1370   -2.1510 C   0  0  0  0  0  0  0  0  0  0  0  0
    2.4860   -2.7680   -0.4610 O   0  0  0  0  0  0  0  0  0  0  0  0
  1  2  1  0
  2  3  1  0
  3  4  1  0
  4  5  2  0
  4 27  1  0
  5  6  1  0
  5  9  1  0
  6  7  1  0
  6  8  2  0
  9 10  1  0
 10 11  1  0
 10 27  2  0
 11 12  2  0
 11 13  1  0
 13 14  1  0
 16 13  1  1
 14 15  1  0
 16 17  1  0
 16 26  1  0
 17 18  1  0
 18 19  1  0
 20 19  1  6
 20 21  1  0
 20 26  1  0
 21 22  2  0
 21 23  1  0
 23 24  1  0
 23 25  1  0
 26 25  1  1
 27 28  1  0
 28 29  1  0
 28 30  2  0
M  END
