
     RDKit          3D

 30 34  0  0  0  0  0  0  0  0999 V2000
    2.0550   -4.7820   -0.4040 C   0  0  0  0  0  0  0  0  0  0  0  0
    1.7580   -3.4160    0.1300 C   0  0  0  0  0  0  0  0  0  0  0  0
    2.5520   -2.3780   -0.3040 C   0  0  0  0  0  0  0  0  0  0  0  0
    2.2960   -1.1050    0.1770 C   0  0  0  0  0  0  0  0  0  0  0  0
    3.1270    0.0080   -0.2720 C   0  0  0  0  0  0  0  0  0  0  0  0
    4.1440   -0.1120   -1.1360 N   0  0  0  0  0  0  0  0  0  0  0  0
    4.7160    1.0910   -1.3530 C   0  0  0  0  0  0  0  0  0  0  0  0
    5.7840    1.4880   -2.1490 C   0  0  0  0  0  0  0  0  0  0  0  0
    6.1530    2.8130   -2.1730 C   0  0  0  0  0  0  0  0  0  0  0  0
    5.4550    3.7160   -1.4060 C   0  0  0  0  0  0  0  0  0  0  0  0
    4.4000    3.3140   -0.6210 C   0  0  0  0  0  0  0  0  0  0  0  0
    4.0100    1.9970   -0.5790 C   0  0  0  0  0  0  0  0  0  0  0  0
    3.0470    1.3030    0.0680 N   0  0  0  0  0  0  0  0  0  0  0  0
    1.2650   -0.9030    1.0690 C   0  0  0  0  0  0  0  0  0  0  0  0
    0.4740   -1.9220    1.5060 C   0  0  0  0  0  0  0  0  0  0  0  0
   -0.8400   -1.6950    2.6370 S   0  0  2  0  0  0  0  0  0  0  0  0
   -0.5960   -0.4370    3.4330 O   0  0  0  0  0  0  0  0  0  0  0  0
   -0.8030   -2.9050    3.5550 O   0  0  0  0  0  0  0  0  0  0  0  0
   -2.3360   -1.6460    1.8270 N   0  0  0  0  0  0  0  0  0  0  0  0
   -2.7430   -0.7040    0.8510 C   0  0  0  0  0  0  0  0  0  0  0  0
   -2.0310   -0.3670   -0.2650 C   0  0  0  0  0  0  0  0  0  0  0  0
   -2.5160    0.5650   -1.1920 C   0  0  0  0  0  0  0  0  0  0  0  0
   -3.7320    1.1780   -1.0100 C   0  0  0  0  0  0  0  0  0  0  0  0
   -4.4530    2.1210   -1.7450 C   0  0  0  0  0  0  0  0  0  0  0  0
   -5.6100    2.3320   -1.0320 C   0  0  0  0  0  0  0  0  0  0  0  0
   -5.6030    1.5730    0.0650 N   0  0  0  0  0  0  0  0  0  0  0  0
   -6.6330    1.4900    1.0920 C   0  0  0  0  0  0  0  0  0  0  0  0
   -4.4600    0.8480    0.1090 C   0  0  0  0  0  0  0  0  0  0  0  0
   -3.9800   -0.0680    1.0180 C   0  0  0  0  0  0  0  0  0  0  0  0
    0.7330   -3.2040    1.0200 C   0  0  0  0  0  0  0  0  0  0  0  0
  1  2  1  0
  2  3  2  0
  2 30  1  0
  3  4  1  0
  4  5  1  0
  4 14  2  0
  5  6  2  0
  5 13  1  0
  6  7  1  0
  7  8  2  0
  7 12  1  0
  8  9  1  0
  9 10  2  0
 10 11  1  0
 11 12  2  0
 12 13  1  0
 14 15  1  0
 15 16  1  0
 15 30  2  0
 16 17  2  0
 16 18  2  0
 16 19  1  6
 19 20  1  0
 20 21  2  0
 20 29  1  0
 21 22  1  0
 22 23  2  0
 23 24  1  0
 23 28  1  0
 24 25  2  0
 25 26  1  0
 26 27  1  0
 26 28  1  0
 28 29  2  0
M  END
