
     RDKit          3D

 48 53  0  0  0  0  0  0  0  0999 V2000
   -6.2680   -2.9640   -0.9960 C   0  0  0  0  0  0  0  0  0  0  0  0
   -5.1770   -3.8350   -0.5690 C   0  0  0  0  0  0  0  0  0  0  0  0
   -5.5130   -5.1650   -0.2790 C   0  0  0  0  0  0  0  0  0  0  0  0
   -4.5710   -6.0880    0.1000 C   0  0  0  0  0  0  0  0  0  0  0  0
   -4.9590   -7.4280    0.3790 N   0  0  0  0  0  0  0  0  0  0  0  0
   -3.2710   -5.7150    0.2020 C   0  0  0  0  0  0  0  0  0  0  0  0
   -2.9290   -4.4110   -0.0780 C   0  0  0  0  0  0  0  0  0  0  0  0
   -3.8420   -3.4490   -0.4610 C   0  0  0  0  0  0  0  0  0  0  0  0
   -3.4050   -2.0770   -0.7370 C   0  0  1  0  0  0  0  0  0  0  0  0
   -4.1570   -1.0920    0.0390 C   0  0  0  0  0  0  0  0  0  0  0  0
   -3.6830    0.1160    0.3940 C   0  0  0  0  0  0  0  0  0  0  0  0
   -4.5340    0.9720    1.1410 N   0  0  0  0  0  0  0  0  0  0  0  0
   -4.8990    2.2710    0.7210 C   0  0  0  0  0  0  0  0  0  0  0  0
   -4.4120    2.6410   -0.3820 O   0  0  0  0  0  0  0  0  0  0  0  0
   -5.7760    3.1930    1.4540 C   0  0  2  0  0  0  0  0  0  0  0  0
   -5.8190    3.1080    2.9550 C   0  0  1  0  0  0  0  0  0  0  0  0
   -5.9280    4.3970    3.7450 C   0  0  0  0  0  0  0  0  0  0  0  0
   -7.0260    2.7220    2.1080 C   0  0  2  0  0  0  0  0  0  0  0  0
   -7.4050    1.2850    2.0960 C   0  0  0  0  0  0  0  0  0  0  0  0
   -8.2050    3.7090    2.1350 C   0  0  0  0  0  0  0  0  0  0  0  0
   -2.3220    0.4670    0.0550 C   0  0  0  0  0  0  0  0  0  0  0  0
   -1.8940    1.6010    0.3870 O   0  0  0  0  0  0  0  0  0  0  0  0
   -1.5430   -0.4890   -0.6340 N   0  0  0  0  0  0  0  0  0  0  0  0
   -0.3720   -0.0990   -1.3430 C   0  0  0  0  0  0  0  0  0  0  0  0
    0.8210   -0.0700   -0.4700 C   0  0  0  0  0  0  0  0  0  0  0  0
    0.7050   -0.2950    0.8850 C   0  0  0  0  0  0  0  0  0  0  0  0
    1.8400   -0.2550    1.6610 C   0  0  0  0  0  0  0  0  0  0  0  0
    3.0710    0.0010    1.1280 C   0  0  0  0  0  0  0  0  0  0  0  0
    3.2050    0.2310   -0.2500 C   0  0  0  0  0  0  0  0  0  0  0  0
    4.5450    0.4820   -0.7560 C   0  0  0  0  0  0  0  0  0  0  0  0
    5.5470    0.4910    0.0160 O   0  0  0  0  0  0  0  0  0  0  0  0
    4.7620    0.7220   -2.1340 N   0  0  0  0  0  0  0  0  0  0  0  0
    6.0850    0.9570   -2.6090 N   0  0  0  0  0  0  0  0  0  0  0  0
    6.5570    2.0070   -3.4370 C   0  0  0  0  0  0  0  0  0  0  0  0
    5.8040    2.8720   -3.9440 O   0  0  0  0  0  0  0  0  0  0  0  0
    8.0210    1.9480   -3.6260 C   0  0  0  0  0  0  0  0  0  0  0  0
    8.3710    0.5760   -3.1640 C   0  0  1  0  0  0  0  0  0  0  0  0
    9.6070    0.4290   -2.4640 N   0  0  0  0  0  0  0  0  0  0  0  0
    9.8830    0.9440   -1.1710 C   0  0  0  0  0  0  0  0  0  0  0  0
   11.0870    0.6470   -0.5440 C   0  0  0  0  0  0  0  0  0  0  0  0
   11.4110    1.0930    0.7010 C   0  0  0  0  0  0  0  0  0  0  0  0
   10.4690    1.8910    1.3640 C   0  0  0  0  0  0  0  0  0  0  0  0
    9.2670    2.1950    0.7510 C   0  0  0  0  0  0  0  0  0  0  0  0
    8.9920    1.7160   -0.5130 C   0  0  0  0  0  0  0  0  0  0  0  0
    7.1980    0.1410   -2.3210 C   0  0  0  0  0  0  0  0  0  0  0  0
    7.2790   -0.8120   -1.5110 O   0  0  0  0  0  0  0  0  0  0  0  0
    2.0560    0.1860   -1.0050 C   0  0  0  0  0  0  0  0  0  0  0  0
   -1.9120   -1.9110   -0.5990 C   0  0  0  0  0  0  0  0  0  0  0  0
  1  2  1  0
  2  3  2  0
  2  8  1  0
  3  4  1  0
  4  5  1  0
  4  6  2  0
  6  7  1  0
  7  8  2  0
  9  8  1  1
  9 10  1  0
  9 48  1  0
 10 11  2  0
 11 12  1  0
 11 21  1  0
 12 13  1  0
 13 14  2  0
 15 13  1  6
 15 16  1  0
 15 18  1  0
 16 17  1  1
 16 18  1  0
 18 19  1  6
 18 20  1  0
 21 22  2  0
 21 23  1  0
 23 24  1  0
 23 48  1  0
 24 25  1  0
 25 26  2  0
 25 47  1  0
 26 27  1  0
 27 28  2  0
 28 29  1  0
 29 30  1  0
 29 47  2  0
 30 31  2  0
 30 32  1  0
 32 33  1  0
 33 34  1  0
 33 45  1  0
 34 35  2  0
 34 36  1  0
 36 37  1  0
 37 38  1  1
 37 45  1  0
 38 39  1  0
 39 40  2  0
 39 44  1  0
 40 41  1  0
 41 42  2  0
 42 43  1  0
 43 44  2  0
 45 46  2  0
M  END
