
     RDKit          3D

 48 52  0  0  0  0  0  0  0  0999 V2000
   -1.3710   -0.6830   -3.1540 C   0  0  0  0  0  0  0  0  0  0  0  0
   -2.4020   -1.3320   -2.3680 C   0  0  0  0  0  0  0  0  0  0  0  0
   -3.2890   -2.3140   -2.9870 C   0  0  0  0  0  0  0  0  0  0  0  0
   -4.2540   -2.8750   -2.2930 C   0  0  0  0  0  0  0  0  0  0  0  0
   -4.5500   -2.5700   -0.9350 C   0  0  0  0  0  0  0  0  0  0  0  0
   -3.7260   -1.6290   -0.3890 C   0  0  0  0  0  0  0  0  0  0  0  0
   -4.1860   -1.0630    0.9130 C   0  0  2  0  0  0  0  0  0  0  0  0
   -4.6420   -1.7720    2.0500 C   0  0  0  0  0  0  0  0  0  0  0  0
   -5.6550   -2.7850    2.3450 C   0  0  2  0  0  0  0  0  0  0  0  0
   -5.4800   -4.0230    1.7860 O   0  0  0  0  0  0  0  0  0  0  0  0
   -7.0410   -2.3600    2.3090 C   0  0  0  0  0  0  0  0  0  0  0  0
   -7.4660   -4.0810    3.1120 N   0  0  0  0  0  0  0  0  0  0  0  0
   -8.2180   -2.2830    2.3970 O   0  0  0  0  0  0  0  0  0  0  0  0
   -4.9700    0.2020    0.6730 N   0  0  1  0  0  0  0  0  0  0  0  0
   -4.5150    1.1940    1.5920 C   0  0  0  0  0  0  0  0  0  0  0  0
   -4.1180    2.4920    0.9440 C   0  0  0  0  0  0  0  0  0  0  0  0
   -5.2270    2.9300    0.0770 C   0  0  0  0  0  0  0  0  0  0  0  0
   -5.7590    4.1610    0.0510 C   0  0  0  0  0  0  0  0  0  0  0  0
   -6.8090    4.4160   -0.8880 C   0  0  0  0  0  0  0  0  0  0  0  0
   -7.2830    3.4450   -1.7160 C   0  0  0  0  0  0  0  0  0  0  0  0
   -6.6960    2.1570   -1.6400 C   0  0  0  0  0  0  0  0  0  0  0  0
   -5.7260    1.9320   -0.8000 C   0  0  0  0  0  0  0  0  0  0  0  0
   -4.9850    0.6160   -0.6660 C   0  0  0  0  0  0  0  0  0  0  0  0
   -2.6930   -1.0270   -1.0250 C   0  0  0  0  0  0  0  0  0  0  0  0
   -1.7550   -0.1160   -0.3340 C   0  0  0  0  0  0  0  0  0  0  0  0
   -1.1520    0.5890    0.1890 O   0  0  0  0  0  0  0  0  0  0  0  0
   -0.3200   -1.0350   -0.7350 N   0  0  0  0  0  0  0  0  0  0  0  0
    0.8410   -0.4820   -0.1910 C   0  0  0  0  0  0  0  0  0  0  0  0
    0.8560   -0.0620    1.2560 C   0  0  0  0  0  0  0  0  0  0  0  0
    2.0870    0.3290    1.7350 C   0  0  0  0  0  0  0  0  0  0  0  0
    3.2830    0.3840    0.9980 C   0  0  0  0  0  0  0  0  0  0  0  0
    4.5420    0.6290    1.7880 C   0  0  0  0  0  0  0  0  0  0  0  0
    5.7060    0.2110    0.9210 C   0  0  0  0  0  0  0  0  0  0  0  0
    6.6620    1.1020    0.6640 C   0  0  0  0  0  0  0  0  0  0  0  0
    7.6140    0.7430   -0.3090 C   0  0  0  0  0  0  0  0  0  0  0  0
    8.6480    1.5270   -0.5810 O   0  0  0  0  0  0  0  0  0  0  0  0
    9.2860    2.6640   -0.3150 C   0  0  0  0  0  0  0  0  0  0  0  0
   10.6280    2.8070   -1.0670 C   0  0  0  0  0  0  0  0  0  0  0  0
   11.1450    4.1300   -0.6270 N   0  0  0  0  0  0  0  0  0  0  0  0
    7.5140   -0.4460   -0.9610 C   0  0  0  0  0  0  0  0  0  0  0  0
    6.4750   -1.3550   -0.6290 C   0  0  0  0  0  0  0  0  0  0  0  0
    5.5680   -1.0550    0.3300 C   0  0  0  0  0  0  0  0  0  0  0  0
    4.5380   -1.8620    0.8590 O   0  0  0  0  0  0  0  0  0  0  0  0
    4.4510   -3.1870    0.1940 C   0  0  0  0  0  0  0  0  0  0  0  0
    5.8430   -3.6900    0.5970 C   0  0  0  0  0  0  0  0  0  0  0  0
    6.9720   -4.1190    0.9240 N   0  0  0  0  0  0  0  0  0  0  0  0
    3.2130    0.0360   -0.2870 C   0  0  0  0  0  0  0  0  0  0  0  0
    1.9920   -0.3830   -0.8100 C   0  0  0  0  0  0  0  0  0  0  0  0
  1  2  1  0
  2  3  2  0
  2 24  1  0
  3  4  1  0
  4  5  2  0
  5  6  1  0
  6  7  1  0
  6 24  2  0
  7  8  1  6
  7 14  1  0
  8  9  1  0
  9 10  1  6
  9 11  1  0
 11 12  1  0
 11 13  2  0
 14 15  1  1
 14 23  1  0
 15 16  1  0
 16 17  1  0
 17 18  2  0
 17 22  1  0
 18 19  1  0
 19 20  2  0
 20 21  1  0
 21 22  2  0
 22 23  1  0
 24 25  1  0
 25 26  2  0
 25 27  1  0
 27 28  1  0
 28 29  2  0
 28 48  1  0
 29 30  1  0
 30 31  2  0
 31 32  1  0
 31 47  1  0
 32 33  1  0
 33 34  2  0
 33 42  1  0
 34 35  1  0
 35 36  1  0
 35 40  2  0
 36 37  1  0
 37 38  1  0
 38 39  1  0
 40 41  1  0
 41 42  2  0
 42 43  1  0
 43 44  1  0
 44 45  1  0
 45 46  3  0
 47 48  2  0
M  CHG  2  14   1  39   1
M  END
