
     RDKit          3D

 46 49  0  0  0  0  0  0  0  0999 V2000
    4.1650   -2.6250    1.8060 O   0  0  0  0  0  0  0  0  0  0  0  0
    4.4470   -1.4620    1.4250 C   0  0  0  0  0  0  0  0  0  0  0  0
    5.8820   -1.0140    1.5680 C   0  0  0  0  0  0  0  0  0  0  0  0
    6.2260    0.5660    0.8350 S   0  0  0  0  0  0  0  0  0  0  0  0
    6.1530    0.6080   -0.9550 C   0  0  0  0  0  0  0  0  0  0  0  0
    7.2180   -0.2220   -1.6190 C   0  0  1  0  0  0  0  0  0  0  0  0
    7.0440   -0.0970   -3.0120 O   0  0  0  0  0  0  0  0  0  0  0  0
    8.5910    0.2300   -1.3230 C   0  0  0  0  0  0  0  0  0  0  0  0
    8.7980    1.3940   -0.6160 C   0  0  0  0  0  0  0  0  0  0  0  0
   10.0830    1.8450   -0.3210 C   0  0  0  0  0  0  0  0  0  0  0  0
   11.1550    1.1420   -0.7270 N   0  0  0  0  0  0  0  0  0  0  0  0
   10.9410    0.0030   -1.4200 C   0  0  0  0  0  0  0  0  0  0  0  0
    9.6880   -0.4790   -1.7330 C   0  0  0  0  0  0  0  0  0  0  0  0
    9.5870   -1.6380   -2.4360 F   0  0  0  0  0  0  0  0  0  0  0  0
    3.4560   -0.6300    0.8930 N   0  0  0  0  0  0  0  0  0  0  0  0
    2.0670   -0.9760    0.7080 C   0  0  0  0  0  0  0  0  0  0  0  0
    1.6070   -2.2590    0.6690 C   0  0  0  0  0  0  0  0  0  0  0  0
    0.2710   -2.5000    0.5190 C   0  0  0  0  0  0  0  0  0  0  0  0
   -0.7090   -1.4860    0.3970 C   0  0  0  0  0  0  0  0  0  0  0  0
   -2.0700   -1.9570    0.2390 C   0  0  0  0  0  0  0  0  0  0  0  0
   -3.2030   -1.4450    0.5660 C   0  0  0  0  0  0  0  0  0  0  0  0
   -4.3880   -2.2340    0.2280 N   0  0  0  0  0  0  0  0  0  0  0  0
   -5.2580   -2.6800    1.2280 C   0  0  0  0  0  0  0  0  0  0  0  0
   -4.9560   -2.3570    2.4240 O   0  0  0  0  0  0  0  0  0  0  0  0
   -6.4640   -3.4710    1.0510 C   0  0  0  0  0  0  0  0  0  0  0  0
   -7.2000   -3.8660    2.1680 C   0  0  0  0  0  0  0  0  0  0  0  0
   -8.3270   -4.6150    2.0460 C   0  0  0  0  0  0  0  0  0  0  0  0
   -8.7950   -5.0170    0.8240 C   0  0  0  0  0  0  0  0  0  0  0  0
   -8.1120   -4.6570   -0.3020 C   0  0  0  0  0  0  0  0  0  0  0  0
   -6.9520   -3.8850   -0.1580 C   0  0  0  0  0  0  0  0  0  0  0  0
   -6.3050   -3.5440   -1.2900 F   0  0  0  0  0  0  0  0  0  0  0  0
   -0.2400   -0.2250    0.4300 C   0  0  0  0  0  0  0  0  0  0  0  0
   -1.0780    0.9190    0.1180 C   0  0  0  0  0  0  0  0  0  0  0  0
   -0.5680    2.1080    0.2790 O   0  0  0  0  0  0  0  0  0  0  0  0
   -2.3560    0.9550   -0.3420 O   0  0  0  0  0  0  0  0  0  0  0  0
   -3.0110    2.1430   -0.6120 C   0  0  0  0  0  0  0  0  0  0  0  0
   -3.1140    2.6410   -1.9020 C   0  0  0  0  0  0  0  0  0  0  0  0
   -3.7720    3.8150   -2.0950 C   0  0  0  0  0  0  0  0  0  0  0  0
   -4.3560    4.5550   -1.0560 C   0  0  0  0  0  0  0  0  0  0  0  0
   -5.0190    5.7940   -1.4250 C   0  0  0  0  0  0  0  0  0  0  0  0
   -5.6150    6.5770   -0.5790 C   0  0  0  0  0  0  0  0  0  0  0  0
   -5.7190    6.3780    0.7580 O   0  0  0  0  0  0  0  0  0  0  0  0
   -4.2500    4.0620    0.1960 C   0  0  0  0  0  0  0  0  0  0  0  0
   -3.5710    2.8460    0.4190 C   0  0  0  0  0  0  0  0  0  0  0  0
   -3.5000    2.4010    1.7380 O   0  0  0  0  0  0  0  0  0  0  0  0
    1.1370    0.0260    0.5880 C   0  0  0  0  0  0  0  0  0  0  0  0
  1  2  2  0
  2  3  1  0
  2 15  1  0
  3  4  1  0
  4  5  1  0
  5  6  1  0
  6  7  1  6
  6  8  1  0
  8  9  2  0
  8 13  1  0
  9 10  1  0
 10 11  2  0
 11 12  1  0
 12 13  2  0
 13 14  1  0
 15 16  1  0
 16 17  2  0
 16 46  1  0
 17 18  1  0
 18 19  2  0
 19 20  1  0
 19 32  1  0
 20 21  2  3
 21 22  1  0
 22 23  1  0
 23 24  2  0
 23 25  1  0
 25 26  2  0
 25 30  1  0
 26 27  1  0
 27 28  2  0
 28 29  1  0
 29 30  2  0
 30 31  1  0
 32 33  1  0
 32 46  2  0
 33 34  2  0
 33 35  1  0
 35 36  1  0
 36 37  2  0
 36 44  1  0
 37 38  1  0
 38 39  2  0
 39 40  1  0
 39 43  1  0
 40 41  2  3
 41 42  1  0
 43 44  2  0
 44 45  1  0
M  END
