
     RDKit          3D

 48 52  0  0  0  0  0  0  0  0999 V2000
   -7.8580    5.0180    0.5860 C   0  0  0  0  0  0  0  0  0  0  0  0
   -7.6520    4.1220    0.3450 C   0  0  0  0  0  0  0  0  0  0  0  0
   -7.3120    2.6970   -0.0160 C   0  0  0  0  0  0  0  0  0  0  0  0
   -6.1930    2.6580   -0.8080 C   0  0  0  0  0  0  0  0  0  0  0  0
   -5.5950    1.4050   -1.0730 C   0  0  0  0  0  0  0  0  0  0  0  0
   -6.1980    0.2230   -0.4930 C   0  0  0  0  0  0  0  0  0  0  0  0
   -5.3450   -0.8680   -0.5500 N   0  0  0  0  0  0  0  0  0  0  0  0
   -5.1460   -1.8830   -1.4460 C   0  0  0  0  0  0  0  0  0  0  0  0
   -5.1080   -3.2960   -1.0920 C   0  0  0  0  0  0  0  0  0  0  0  0
   -5.9940   -4.2830   -0.7650 C   0  0  0  0  0  0  0  0  0  0  0  0
   -7.2650   -4.2520   -0.1560 N   0  0  0  0  0  0  0  0  0  0  0  0
   -5.6030   -5.5310   -1.0480 O   0  0  0  0  0  0  0  0  0  0  0  0
   -4.1010   -0.6610    0.3240 C   0  0  0  0  0  0  0  0  0  0  0  0
   -3.1500   -1.3710    0.3520 O   0  0  0  0  0  0  0  0  0  0  0  0
   -4.1580    0.6410    1.1910 C   0  0  0  0  0  0  0  0  0  0  0  0
   -3.2630    1.4080    0.4580 O   0  0  0  0  0  0  0  0  0  0  0  0
   -1.9570    1.7150    0.5180 C   0  0  0  0  0  0  0  0  0  0  0  0
   -1.0860    1.4540    1.5510 C   0  0  0  0  0  0  0  0  0  0  0  0
    0.2230    1.7160    1.5690 C   0  0  0  0  0  0  0  0  0  0  0  0
    0.7720    2.2530    0.4710 C   0  0  0  0  0  0  0  0  0  0  0  0
    2.1480    2.3180    0.0080 N   0  0  0  0  0  0  0  0  0  0  0  0
    3.0750    1.5450    0.0760 C   0  0  0  0  0  0  0  0  0  0  0  0
    4.3330    2.0470   -0.6350 C   0  0  0  0  0  0  0  0  0  0  0  0
    4.8740    1.1630   -1.4910 C   0  0  0  0  0  0  0  0  0  0  0  0
    6.0800    1.4670   -2.3060 C   0  0  0  0  0  0  0  0  0  0  0  0
    7.2450    0.6000   -1.8140 C   0  0  0  0  0  0  0  0  0  0  0  0
    8.5020    0.9170   -2.2980 C   0  0  0  0  0  0  0  0  0  0  0  0
    9.6770    0.2750   -1.7560 C   0  0  0  0  0  0  0  0  0  0  0  0
    9.5350   -0.6350   -0.7650 C   0  0  0  0  0  0  0  0  0  0  0  0
   10.6300   -1.1750    0.0790 C   0  0  0  0  0  0  0  0  0  0  0  0
   10.5690   -0.8950    1.5290 C   0  0  0  0  0  0  0  0  0  0  0  0
   11.5390   -1.7650   -0.4620 O   0  0  0  0  0  0  0  0  0  0  0  0
    8.2490   -0.9840   -0.2960 C   0  0  0  0  0  0  0  0  0  0  0  0
    7.1560   -0.3060   -0.8360 C   0  0  0  0  0  0  0  0  0  0  0  0
    4.3720   -0.2210   -1.4830 C   0  0  0  0  0  0  0  0  0  0  0  0
    4.8100   -1.0480   -2.3370 O   0  0  0  0  0  0  0  0  0  0  0  0
    3.3610   -0.6050   -0.5600 N   0  0  0  0  0  0  0  0  0  0  0  0
    3.3000    0.2480    0.7090 C   0  0  1  0  0  0  0  0  0  0  0  0
    4.6240    0.1560    1.3720 C   0  0  0  0  0  0  0  0  0  0  0  0
    2.3080   -0.3530    1.6060 C   0  0  1  0  0  0  0  0  0  0  0  0
    1.1360   -1.1320    1.2420 C   0  0  0  0  0  0  0  0  0  0  0  0
    2.2790   -1.8210    1.8530 C   0  0  0  0  0  0  0  0  0  0  0  0
   -0.0630    2.5240   -0.6520 C   0  0  0  0  0  0  0  0  0  0  0  0
   -1.4100    2.2990   -0.6550 C   0  0  0  0  0  0  0  0  0  0  0  0
   -7.2790    0.3540    0.2740 C   0  0  0  0  0  0  0  0  0  0  0  0
   -8.0490   -0.8910    0.4780 C   0  0  0  0  0  0  0  0  0  0  0  0
   -7.9050   -1.5140    1.7340 N   0  0  0  0  0  0  0  0  0  0  0  0
   -7.8940    1.6380    0.5770 C   0  0  0  0  0  0  0  0  0  0  0  0
  1  2  3  0
  2  3  1  0
  3  4  2  0
  3 48  1  0
  4  5  1  0
  5  6  2  0
  6  7  1  0
  6 45  1  0
  7  8  1  0
  7 13  1  0
  8  9  1  0
  9 10  1  0
 10 11  1  0
 10 12  2  0
 13 14  2  0
 13 15  1  0
 15 16  1  0
 16 17  1  0
 17 18  2  0
 17 44  1  0
 18 19  1  0
 19 20  2  0
 20 21  1  0
 20 43  1  0
 21 22  2  3
 22 23  1  0
 22 38  1  0
 23 24  2  0
 24 25  1  0
 24 35  1  0
 25 26  1  0
 26 27  2  0
 26 34  1  0
 27 28  1  0
 28 29  2  0
 29 30  1  0
 29 33  1  0
 30 31  1  0
 30 32  2  0
 33 34  2  0
 35 36  2  0
 35 37  1  0
 37 38  1  0
 38 39  1  1
 38 40  1  0
 40 41  1  6
 40 42  1  0
 41 42  1  0
 43 44  2  0
 45 46  1  0
 45 48  2  0
 46 47  1  0
M  CHG  1  47   1
M  END
