
     RDKit          3D

 46 49  0  0  0  0  0  0  0  0999 V2000
    7.1440    1.2220    2.5940 C   0  0  0  0  0  0  0  0  0  0  0  0
    5.9480    2.1080    2.6350 C   0  0  0  0  0  0  0  0  0  0  0  0
    4.6620    1.3920    3.0480 C   0  0  1  0  0  0  0  0  0  0  0  0
    3.5520    2.3580    3.0820 C   0  0  0  0  0  0  0  0  0  0  0  0
    4.3510    0.2550    2.1390 N   0  0  0  0  0  0  0  0  0  0  0  0
    4.6790    0.2260    0.7840 C   0  0  0  0  0  0  0  0  0  0  0  0
    5.1860    1.1950    0.2160 O   0  0  0  0  0  0  0  0  0  0  0  0
    4.4890   -0.9480   -0.0790 N   0  0  0  0  0  0  0  0  0  0  0  0
    4.9730   -0.8630   -1.4080 C   0  0  0  0  0  0  0  0  0  0  0  0
    6.3760   -0.7990   -1.5660 C   0  0  0  0  0  0  0  0  0  0  0  0
    7.2630   -0.8260   -0.4000 C   0  0  0  0  0  0  0  0  0  0  0  0
    6.8700   -0.7370   -2.8330 C   0  0  0  0  0  0  0  0  0  0  0  0
    6.1120   -0.7300   -3.9360 C   0  0  0  0  0  0  0  0  0  0  0  0
    6.7480   -0.7420   -5.2880 C   0  0  0  0  0  0  0  0  0  0  0  0
    7.1920   -0.7460   -6.2410 N   0  0  0  0  0  0  0  0  0  0  0  0
    4.7650   -0.7920   -3.8320 C   0  0  0  0  0  0  0  0  0  0  0  0
    4.1500   -0.8670   -2.4980 C   0  0  0  0  0  0  0  0  0  0  0  0
    2.7770   -1.0800   -2.4480 C   0  0  0  0  0  0  0  0  0  0  0  0
    2.1550   -1.0200   -3.6170 O   0  0  0  0  0  0  0  0  0  0  0  0
    1.7930   -1.3710   -1.4690 O   0  0  0  0  0  0  0  0  0  0  0  0
    0.5190   -1.5380   -2.0880 C   0  0  0  0  0  0  0  0  0  0  0  0
    0.3600   -2.6750   -2.9450 C   0  0  0  0  0  0  0  0  0  0  0  0
    1.4840   -3.5060   -2.9970 O   0  0  0  0  0  0  0  0  0  0  0  0
    1.5810   -4.6880   -3.7220 C   0  0  0  0  0  0  0  0  0  0  0  0
   -0.7680   -2.8460   -3.5770 C   0  0  0  0  0  0  0  0  0  0  0  0
   -1.8810   -2.0000   -3.4960 C   0  0  0  0  0  0  0  0  0  0  0  0
   -1.7050   -0.8710   -2.6270 C   0  0  0  0  0  0  0  0  0  0  0  0
   -2.8280   -0.0890   -2.4710 C   0  0  0  0  0  0  0  0  0  0  0  0
   -2.7120    0.9620   -1.5020 C   0  0  0  0  0  0  0  0  0  0  0  0
   -3.7890    1.8000   -1.3290 O   0  0  0  0  0  0  0  0  0  0  0  0
   -4.9860    1.6350   -2.0620 C   0  0  0  0  0  0  0  0  0  0  0  0
   -1.5860    1.0810   -0.8480 C   0  0  0  0  0  0  0  0  0  0  0  0
   -1.6450    2.0020    0.7800 S   0  0  0  0  0  0  0  0  0  0  0  0
   -2.4100    0.7940    1.9630 C   0  0  0  0  0  0  0  0  0  0  0  0
   -3.8780    0.5640    1.7490 C   0  0  1  0  0  0  0  0  0  0  0  0
   -4.4360   -0.4360    2.6180 C   0  0  0  0  0  0  0  0  0  0  0  0
   -3.8250   -1.2090    3.3800 O   0  0  0  0  0  0  0  0  0  0  0  0
   -5.9190   -0.6180    2.6890 C   0  0  0  0  0  0  0  0  0  0  0  0
   -6.6890    0.4280    1.9140 C   0  0  2  0  0  0  0  0  0  0  0  0
   -8.0100    0.6460    2.6740 C   0  0  0  0  0  0  0  0  0  0  0  0
   -7.1020   -0.1830    0.5670 C   0  0  0  0  0  0  0  0  0  0  0  0
   -6.0420    1.6950    1.7380 N   0  0  0  0  0  0  0  0  0  0  0  0
   -4.6820    1.8250    2.1230 C   0  0  1  0  0  0  0  0  0  0  0  0
   -4.6760    2.0440    3.6410 C   0  0  0  0  0  0  0  0  0  0  0  0
   -0.4460    0.3340   -0.9930 C   0  0  0  0  0  0  0  0  0  0  0  0
   -0.5480   -0.7170   -1.9790 C   0  0  0  0  0  0  0  0  0  0  0  0
  1  2  1  0
  2  3  1  0
  3  4  1  6
  3  5  1  0
  5  6  1  0
  6  7  2  0
  6  8  1  0
  8  9  1  0
  9 10  2  0
  9 17  1  0
 10 11  1  0
 10 12  1  0
 12 13  2  0
 13 14  1  0
 13 16  1  0
 14 15  3  0
 16 17  2  0
 17 18  1  0
 18 19  2  0
 18 20  1  0
 20 21  1  0
 21 22  2  0
 21 46  1  0
 22 23  1  0
 22 25  1  0
 23 24  1  0
 25 26  2  0
 26 27  1  0
 27 28  2  0
 27 46  1  0
 28 29  1  0
 29 30  1  0
 29 32  2  0
 30 31  1  0
 32 33  1  0
 32 45  1  0
 33 34  1  0
 35 34  1  1
 35 36  1  0
 35 43  1  0
 36 37  2  0
 36 38  1  0
 38 39  1  0
 39 40  1  1
 39 41  1  0
 39 42  1  0
 42 43  1  0
 43 44  1  1
 45 46  2  0
M  CHG  1  42   1
M  END
