
     RDKit          3D

 46 51  0  0  0  0  0  0  0  0999 V2000
    0.8230   -0.6930    1.4260 C   0  0  0  0  0  0  0  0  0  0  0  0
    1.0050    0.7700    1.4150 C   0  0  0  0  0  0  0  0  0  0  0  0
    2.2310    1.2930    1.7770 C   0  0  0  0  0  0  0  0  0  0  0  0
    3.3440    0.4320    2.1400 C   0  0  0  0  0  0  0  0  0  0  0  0
    3.5610    0.0340    3.3090 O   0  0  0  0  0  0  0  0  0  0  0  0
    4.1960    0.0420    1.1490 O   0  0  0  0  0  0  0  0  0  0  0  0
    5.3280   -0.8020    1.3430 C   0  0  2  0  0  0  0  0  0  0  0  0
    6.5750    0.0180    1.1180 C   0  0  0  0  0  0  0  0  0  0  0  0
    7.3980   -0.5870   -0.0010 C   0  0  0  0  0  0  0  0  0  0  0  0
    7.7790   -1.9950    0.4200 C   0  0  0  0  0  0  0  0  0  0  0  0
    6.5380   -2.8100    0.5340 C   0  0  2  0  0  0  0  0  0  0  0  0
    6.4830   -3.8970   -0.5100 C   0  0  2  0  0  0  0  0  0  0  0  0
    7.5840   -4.9240   -0.5840 C   0  0  0  0  0  0  0  0  0  0  0  0
    7.3140   -3.9730   -1.7000 C   0  0  0  0  0  0  0  0  0  0  0  0
    5.2520   -2.0410    0.5350 C   0  0  0  0  0  0  0  0  0  0  0  0
    2.3740    2.6620    1.7710 C   0  0  0  0  0  0  0  0  0  0  0  0
    3.6820    3.2270    2.1610 C   0  0  0  0  0  0  0  0  0  0  0  0
    1.3570    3.4860    1.4230 N   0  0  0  0  0  0  0  0  0  0  0  0
    1.5720    4.9210    1.4340 C   0  0  0  0  0  0  0  0  0  0  0  0
    0.1460    2.9490    1.0670 C   0  0  0  0  0  0  0  0  0  0  0  0
   -0.7290    3.8170    0.7650 O   0  0  0  0  0  0  0  0  0  0  0  0
   -0.0530    1.6080    1.0540 C   0  0  0  0  0  0  0  0  0  0  0  0
   -1.3170    1.0480    0.6870 N   0  0  0  0  0  0  0  0  0  0  0  0
   -2.4860    1.4340    1.4400 C   0  0  0  0  0  0  0  0  0  0  0  0
   -3.3480    2.4320    0.7940 C   0  0  0  0  0  0  0  0  0  0  0  0
   -4.2660    3.0730    1.6440 C   0  0  0  0  0  0  0  0  0  0  0  0
   -5.1290    4.0200    1.1430 C   0  0  0  0  0  0  0  0  0  0  0  0
   -5.0870    4.3380   -0.2000 C   0  0  0  0  0  0  0  0  0  0  0  0
   -4.1720    3.6940   -1.0280 C   0  0  0  0  0  0  0  0  0  0  0  0
   -3.3060    2.7460   -0.5360 C   0  0  0  0  0  0  0  0  0  0  0  0
   -4.3800    4.2520   -2.3880 C   0  0  0  0  0  0  0  0  0  0  0  0
   -5.0500    5.5820   -2.1060 C   0  0  0  0  0  0  0  0  0  0  0  0
   -5.8300    5.2400   -0.9510 O   0  0  0  0  0  0  0  0  0  0  0  0
   -1.4550    0.1250   -0.3550 C   0  0  0  0  0  0  0  0  0  0  0  0
   -0.4530   -0.1290   -1.0640 O   0  0  0  0  0  0  0  0  0  0  0  0
   -2.6950   -0.5490   -0.6490 C   0  0  0  0  0  0  0  0  0  0  0  0
   -3.7320   -0.3540    0.0220 O   0  0  0  0  0  0  0  0  0  0  0  0
   -2.7760   -1.4610   -1.7150 N   0  0  0  0  0  0  0  0  0  0  0  0
   -3.9720   -2.2000   -2.0790 C   0  0  0  0  0  0  0  0  0  0  0  0
   -4.0420   -2.7080   -3.3620 C   0  0  0  0  0  0  0  0  0  0  0  0
   -5.6340   -3.5470   -3.3440 S   0  0  0  0  0  0  0  0  0  0  0  0
   -6.0510   -3.1620   -1.6920 C   0  0  0  0  0  0  0  0  0  0  0  0
   -7.3000   -3.5760   -1.0120 C   0  0  1  0  0  0  0  0  0  0  0  0
   -8.3890   -2.5990   -1.3740 C   0  0  0  0  0  0  0  0  0  0  0  0
   -7.6380   -4.9540   -1.3080 N   0  0  0  0  0  0  0  0  0  0  0  0
   -5.0000   -2.4440   -1.2590 C   0  0  0  0  0  0  0  0  0  0  0  0
  1  2  1  0
  2  3  1  0
  2 22  2  0
  3  4  1  0
  3 16  2  0
  4  5  2  0
  4  6  1  0
  7  6  1  6
  7  8  1  0
  7 15  1  0
  8  9  1  0
  9 10  1  0
 11 10  1  6
 11 12  1  0
 11 15  1  0
 12 13  1  1
 12 14  1  0
 13 14  1  0
 16 17  1  0
 16 18  1  0
 18 19  1  0
 18 20  1  0
 20 21  2  0
 20 22  1  0
 22 23  1  0
 23 24  1  0
 23 34  1  0
 24 25  1  0
 25 26  2  0
 25 30  1  0
 26 27  1  0
 27 28  2  0
 28 29  1  0
 28 33  1  0
 29 30  2  0
 29 31  1  0
 31 32  1  0
 32 33  1  0
 34 35  2  0
 34 36  1  0
 36 37  2  0
 36 38  1  0
 38 39  1  0
 39 40  2  0
 39 46  1  0
 40 41  1  0
 41 42  1  0
 42 43  1  0
 42 46  2  0
 43 44  1  6
 43 45  1  0
M  CHG  1  45   1
M  END
