
     RDKit          3D

 48 52  0  0  0  0  0  0  0  0999 V2000
   -8.2210   -4.6660    1.2130 C   0  0  0  0  0  0  0  0  0  0  0  0
   -8.1660   -3.6220    2.1070 O   0  0  0  0  0  0  0  0  0  0  0  0
   -7.2630   -2.6160    1.6780 C   0  0  0  0  0  0  0  0  0  0  0  0
   -7.7630   -2.0640    0.3930 C   0  0  1  0  0  0  0  0  0  0  0  0
   -9.1510   -1.4930    0.6460 C   0  0  0  0  0  0  0  0  0  0  0  0
   -9.3290   -0.5210   -0.4970 C   0  0  0  0  0  0  0  0  0  0  0  0
   -7.9210   -0.0270   -0.7920 C   0  0  0  0  0  0  0  0  0  0  0  0
   -6.9800   -0.9520   -0.1640 N   0  0  0  0  0  0  0  0  0  0  0  0
   -5.5810   -0.8600   -0.0810 C   0  0  0  0  0  0  0  0  0  0  0  0
   -5.0210   -1.8430    0.5570 O   0  0  0  0  0  0  0  0  0  0  0  0
   -4.7040    0.1720   -0.6030 C   0  0  0  0  0  0  0  0  0  0  0  0
   -5.1160    1.2080   -1.3780 C   0  0  0  0  0  0  0  0  0  0  0  0
   -4.1730    2.1580   -1.7890 C   0  0  0  0  0  0  0  0  0  0  0  0
   -4.6230    3.2940   -2.6380 C   0  0  0  0  0  0  0  0  0  0  0  0
   -2.8360    2.0520   -1.4160 C   0  0  0  0  0  0  0  0  0  0  0  0
   -2.4080    1.0120   -0.6340 C   0  0  0  0  0  0  0  0  0  0  0  0
   -0.9990    0.8520   -0.1840 C   0  0  0  0  0  0  0  0  0  0  0  0
   -0.6480   -0.2660    0.3020 O   0  0  0  0  0  0  0  0  0  0  0  0
   -0.0710    1.8700   -0.2770 N   0  0  0  0  0  0  0  0  0  0  0  0
    1.3340    1.8530    0.1020 C   0  0  1  0  0  0  0  0  0  0  0  0
    1.6110    2.8620    1.1590 C   0  0  0  0  0  0  0  0  0  0  0  0
    2.9600    2.9900    1.6670 C   0  0  0  0  0  0  0  0  0  0  0  0
    3.8890    3.7750    0.9710 C   0  0  0  0  0  0  0  0  0  0  0  0
    5.1720    3.9910    1.4190 C   0  0  0  0  0  0  0  0  0  0  0  0
    6.0560    4.7520    0.7340 F   0  0  0  0  0  0  0  0  0  0  0  0
    5.5740    3.4160    2.6040 C   0  0  0  0  0  0  0  0  0  0  0  0
    4.6700    2.6400    3.2990 C   0  0  0  0  0  0  0  0  0  0  0  0
    5.0630    2.0730    4.4600 F   0  0  0  0  0  0  0  0  0  0  0  0
    3.3840    2.4190    2.8560 C   0  0  0  0  0  0  0  0  0  0  0  0
    1.9090    0.5220    0.3890 C   0  0  2  0  0  0  0  0  0  0  0  0
    3.2600    0.7100    0.8090 O   0  0  0  0  0  0  0  0  0  0  0  0
    2.0950   -0.3210   -0.8870 C   0  0  1  0  0  0  0  0  0  0  0  0
    3.0920    0.4380   -1.7550 C   0  0  0  0  0  0  0  0  0  0  0  0
    3.8600   -0.4110   -2.5910 N   0  0  0  0  0  0  0  0  0  0  0  0
    5.5290   -0.1520   -2.5820 S   0  0  2  0  0  0  0  0  0  0  0  0
    5.7560    1.2830   -3.0590 O   0  0  0  0  0  0  0  0  0  0  0  0
    6.1600   -0.9980   -3.6840 O   0  0  0  0  0  0  0  0  0  0  0  0
    6.3240   -0.3790   -1.0730 C   0  0  0  0  0  0  0  0  0  0  0  0
    6.4870    0.6720   -0.2080 C   0  0  0  0  0  0  0  0  0  0  0  0
    7.1420    0.4820    1.0110 C   0  0  0  0  0  0  0  0  0  0  0  0
    7.6290   -0.7470    1.3610 C   0  0  0  0  0  0  0  0  0  0  0  0
    7.4660   -1.8100    0.4910 C   0  0  0  0  0  0  0  0  0  0  0  0
    8.0160   -3.1100    0.9280 C   0  0  0  0  0  0  0  0  0  0  0  0
    6.8120   -1.6160   -0.7220 C   0  0  0  0  0  0  0  0  0  0  0  0
    3.4040   -1.7300   -2.8140 C   0  0  0  0  0  0  0  0  0  0  0  0
    2.9040   -2.4580   -1.5990 C   0  0  0  0  0  0  0  0  0  0  0  0
    2.7280   -1.5590   -0.4690 N   0  0  0  0  0  0  0  0  0  0  0  0
   -3.3450    0.0910   -0.2420 C   0  0  0  0  0  0  0  0  0  0  0  0
  1  2  1  0
  2  3  1  0
  4  3  1  1
  4  5  1  0
  4  8  1  0
  5  6  1  0
  6  7  1  0
  7  8  1  0
  8  9  1  0
  9 10  2  0
  9 11  1  0
 11 12  2  0
 11 48  1  0
 12 13  1  0
 13 14  1  0
 13 15  2  0
 15 16  1  0
 16 17  1  0
 16 48  2  0
 17 18  2  0
 17 19  1  0
 19 20  1  0
 20 21  1  1
 20 30  1  0
 21 22  1  0
 22 23  2  0
 22 29  1  0
 23 24  1  0
 24 25  1  0
 24 26  2  0
 26 27  1  0
 27 28  1  0
 27 29  2  0
 30 31  1  6
 30 32  1  0
 32 33  1  6
 32 47  1  0
 33 34  1  0
 35 34  1  1
 34 45  1  0
 35 36  2  0
 35 37  2  0
 35 38  1  0
 38 39  2  0
 38 44  1  0
 39 40  1  0
 40 41  2  0
 41 42  1  0
 42 43  1  0
 42 44  2  0
 45 46  1  0
 46 47  1  0
M  CHG  1  47   1
M  END
