
     RDKit          3D

 46 50  0  0  0  0  0  0  0  0999 V2000
    8.4630    3.5240   -0.1620 C   0  0  0  0  0  0  0  0  0  0  0  0
    7.1130    3.1250    0.1090 N   0  0  0  0  0  0  0  0  0  0  0  0
    6.6790    1.7640   -0.1170 C   0  0  0  0  0  0  0  0  0  0  0  0
    7.5340    0.9660   -0.5560 O   0  0  0  0  0  0  0  0  0  0  0  0
    5.3660    1.3690    0.1440 N   0  0  0  0  0  0  0  0  0  0  0  0
    4.8480    0.0710   -0.0530 C   0  0  0  0  0  0  0  0  0  0  0  0
    5.5220   -0.9030   -0.7260 C   0  0  0  0  0  0  0  0  0  0  0  0
    4.9730   -2.1780   -0.8760 C   0  0  0  0  0  0  0  0  0  0  0  0
    3.7630   -2.4440   -0.3490 C   0  0  0  0  0  0  0  0  0  0  0  0
    3.0380   -1.4720    0.3490 C   0  0  0  0  0  0  0  0  0  0  0  0
    1.7220   -1.8550    0.9250 C   0  0  0  0  0  0  0  0  0  0  0  0
    0.8620   -0.5840    1.7230 S   0  0  2  0  0  0  0  0  0  0  0  0
    1.8350   -0.1060    2.8470 O   0  0  0  0  0  0  0  0  0  0  0  0
   -0.2350   -1.2220    2.5580 O   0  0  0  0  0  0  0  0  0  0  0  0
    0.3920    0.8090    0.8600 C   0  0  0  0  0  0  0  0  0  0  0  0
    0.8900    2.0600    1.3050 C   0  0  0  0  0  0  0  0  0  0  0  0
    0.5840    3.2310    0.6680 C   0  0  0  0  0  0  0  0  0  0  0  0
    1.0720    4.4650    1.1010 O   0  0  0  0  0  0  0  0  0  0  0  0
    1.9110    4.6040    2.2200 C   0  0  0  0  0  0  0  0  0  0  0  0
   -0.2270    3.2230   -0.4370 C   0  0  0  0  0  0  0  0  0  0  0  0
   -0.7070    2.0110   -0.8600 C   0  0  0  0  0  0  0  0  0  0  0  0
   -0.4260    0.7950   -0.2460 C   0  0  0  0  0  0  0  0  0  0  0  0
   -1.0810   -0.4190   -0.7630 C   0  0  2  0  0  0  0  0  0  0  0  0
   -1.4940   -0.2560   -2.2190 C   0  0  0  0  0  0  0  0  0  0  0  0
   -2.8370    0.1880   -2.4870 C   0  0  0  0  0  0  0  0  0  0  0  0
   -3.1840    1.0950   -3.2960 O   0  0  0  0  0  0  0  0  0  0  0  0
   -3.9100   -0.4650   -1.7660 N   0  0  0  0  0  0  0  0  0  0  0  0
   -5.2670   -0.3320   -2.1030 C   0  0  0  0  0  0  0  0  0  0  0  0
   -5.6820   -0.7520   -3.3670 C   0  0  0  0  0  0  0  0  0  0  0  0
   -7.0090   -0.6390   -3.7530 C   0  0  0  0  0  0  0  0  0  0  0  0
   -7.9700   -0.1120   -2.9160 C   0  0  0  0  0  0  0  0  0  0  0  0
   -7.5690    0.3110   -1.6500 C   0  0  0  0  0  0  0  0  0  0  0  0
   -6.2490    0.1900   -1.2890 C   0  0  0  0  0  0  0  0  0  0  0  0
   -3.4520   -1.2600   -0.6830 C   0  0  0  0  0  0  0  0  0  0  0  0
   -4.0670   -2.3030   -0.4010 O   0  0  0  0  0  0  0  0  0  0  0  0
   -2.2400   -0.8550    0.1170 C   0  0  2  0  0  0  0  0  0  0  0  0
   -2.7460    0.2690    0.9980 C   0  0  0  0  0  0  0  0  0  0  0  0
   -3.8850   -0.2110    1.8560 C   0  0  0  0  0  0  0  0  0  0  0  0
   -4.3520    0.9380    2.7180 C   0  0  0  0  0  0  0  0  0  0  0  0
   -5.4360    0.6260    3.5910 N   0  0  0  0  0  0  0  0  0  0  0  0
   -6.5300   -0.0700    2.9790 C   0  0  0  0  0  0  0  0  0  0  0  0
    3.5760   -0.2370    0.4920 C   0  0  0  0  0  0  0  0  0  0  0  0
    3.0990   -3.7710   -0.4560 C   0  0  0  0  0  0  0  0  0  0  0  0
    3.8950   -4.8190   -1.1530 C   0  0  0  0  0  0  0  0  0  0  0  0
    4.8230   -4.2230   -2.1950 C   0  0  0  0  0  0  0  0  0  0  0  0
    5.7490   -3.2230   -1.6100 C   0  0  0  0  0  0  0  0  0  0  0  0
  1  2  1  0
  2  3  1  0
  3  4  2  0
  3  5  1  0
  5  6  1  0
  6  7  2  0
  6 42  1  0
  7  8  1  0
  8  9  2  0
  8 46  1  0
  9 10  1  0
  9 43  1  0
 10 11  1  0
 10 42  2  0
 12 11  1  6
 12 13  2  0
 12 14  2  0
 12 15  1  0
 15 16  2  0
 15 22  1  0
 16 17  1  0
 17 18  1  0
 17 20  2  0
 18 19  1  0
 20 21  1  0
 21 22  2  0
 23 22  1  1
 23 24  1  0
 23 36  1  0
 24 25  1  0
 25 26  2  0
 25 27  1  0
 27 28  1  0
 27 34  1  0
 28 29  2  0
 28 33  1  0
 29 30  1  0
 30 31  2  0
 31 32  1  0
 32 33  2  0
 34 35  2  0
 34 36  1  0
 36 37  1  1
 37 38  1  0
 38 39  1  0
 39 40  1  0
 40 41  1  0
 43 44  1  0
 44 45  1  0
 45 46  1  0
M  CHG  1  40   1
M  END
