
     RDKit          3D

 46 50  0  0  0  0  0  0  0  0999 V2000
  -10.9400   -2.6020   -0.6880 C   0  0  0  0  0  0  0  0  0  0  0  0
   -9.7080   -2.3060   -0.0540 O   0  0  0  0  0  0  0  0  0  0  0  0
   -8.7130   -1.7760   -0.8450 C   0  0  0  0  0  0  0  0  0  0  0  0
   -8.8860   -1.5650   -2.0630 O   0  0  0  0  0  0  0  0  0  0  0  0
   -7.4080   -1.4530   -0.2220 C   0  0  2  0  0  0  0  0  0  0  0  0
   -7.6050   -0.4030    0.8500 C   0  0  2  0  0  0  0  0  0  0  0  0
   -8.8190   -0.6900    1.7010 C   0  0  0  0  0  0  0  0  0  0  0  0
   -7.7770    0.8510    0.0260 C   0  0  0  0  0  0  0  0  0  0  0  0
   -7.1150    0.6170   -1.2470 N   0  0  1  0  0  0  0  0  0  0  0  0
   -6.2250    1.6970   -1.4980 C   0  0  0  0  0  0  0  0  0  0  0  0
   -4.9640    1.1520   -2.1910 C   0  0  0  0  0  0  0  0  0  0  0  0
   -4.2560    0.3950   -1.0570 C   0  0  2  0  0  0  0  0  0  0  0  0
   -2.9000    0.0750   -1.3570 N   0  0  0  0  0  0  0  0  0  0  0  0
   -1.8290    0.8500   -0.7690 C   0  0  0  0  0  0  0  0  0  0  0  0
   -2.1740    1.7910   -0.0210 O   0  0  0  0  0  0  0  0  0  0  0  0
   -0.4470    0.5440   -1.0390 C   0  0  0  0  0  0  0  0  0  0  0  0
   -0.1760   -0.4480   -1.7580 O   0  0  0  0  0  0  0  0  0  0  0  0
    0.6120    1.4150   -0.4540 C   0  0  2  0  0  0  0  0  0  0  0  0
    1.9750    0.7960   -0.7020 C   0  0  0  0  0  0  0  0  0  0  0  0
    3.0670    1.6580   -0.1330 C   0  0  0  0  0  0  0  0  0  0  0  0
    4.3900    1.0290   -0.3650 C   0  0  0  0  0  0  0  0  0  0  0  0
    4.4290   -0.0870   -0.9750 O   0  0  0  0  0  0  0  0  0  0  0  0
    5.6100    1.6150    0.0610 N   0  0  0  0  0  0  0  0  0  0  0  0
    6.8140    0.9040   -0.2220 N   0  0  0  0  0  0  0  0  0  0  0  0
    7.6640    0.5410    0.8510 C   0  0  0  0  0  0  0  0  0  0  0  0
    7.2920    0.8830    2.0220 O   0  0  0  0  0  0  0  0  0  0  0  0
    8.9100   -0.1790    0.7330 C   0  0  0  0  0  0  0  0  0  0  0  0
    9.7050   -0.3030    1.8650 C   0  0  0  0  0  0  0  0  0  0  0  0
   10.9170   -0.9620    1.8510 C   0  0  0  0  0  0  0  0  0  0  0  0
   11.3820   -1.5270    0.6920 C   0  0  0  0  0  0  0  0  0  0  0  0
   12.5910   -2.1790    0.7070 C   0  0  0  0  0  0  0  0  0  0  0  0
   13.0650   -2.7540   -0.4590 C   0  0  0  0  0  0  0  0  0  0  0  0
   12.3030   -2.6510   -1.5960 C   0  0  0  0  0  0  0  0  0  0  0  0
   11.0840   -1.9930   -1.6120 C   0  0  0  0  0  0  0  0  0  0  0  0
   10.6280   -1.4230   -0.4310 C   0  0  0  0  0  0  0  0  0  0  0  0
    9.4010   -0.7540   -0.4090 C   0  0  0  0  0  0  0  0  0  0  0  0
    8.7200   -0.7050   -1.5560 F   0  0  0  0  0  0  0  0  0  0  0  0
    0.3520    1.5210    1.0200 C   0  0  0  0  0  0  0  0  0  0  0  0
    0.4330    0.4200    1.8170 C   0  0  0  0  0  0  0  0  0  0  0  0
    0.1980    0.4820    3.1850 C   0  0  0  0  0  0  0  0  0  0  0  0
   -0.1260    1.6950    3.7410 C   0  0  0  0  0  0  0  0  0  0  0  0
   -0.3620    1.7670    5.0850 F   0  0  0  0  0  0  0  0  0  0  0  0
   -0.2210    2.8390    2.9690 C   0  0  0  0  0  0  0  0  0  0  0  0
    0.0210    2.7410    1.6080 C   0  0  0  0  0  0  0  0  0  0  0  0
   -5.1300   -0.7400   -0.6720 C   0  0  0  0  0  0  0  0  0  0  0  0
   -6.5260   -0.6790   -1.1890 C   0  0  1  0  0  0  0  0  0  0  0  0
  1  2  1  0
  2  3  1  0
  3  4  2  0
  5  3  1  6
  5  6  1  0
  5 46  1  0
  6  7  1  6
  6  8  1  0
  9  8  1  1
  9 10  1  0
  9 46  1  0
 10 11  1  0
 11 12  1  0
 12 13  1  6
 12 45  1  0
 13 14  1  0
 14 15  2  0
 14 16  1  0
 16 17  2  0
 16 18  1  0
 18 19  1  1
 18 38  1  0
 19 20  1  0
 20 21  1  0
 21 22  2  0
 21 23  1  0
 23 24  1  0
 24 25  1  0
 25 26  2  0
 25 27  1  0
 27 28  2  0
 27 36  1  0
 28 29  1  0
 29 30  2  0
 30 31  1  0
 30 35  1  0
 31 32  2  0
 32 33  1  0
 33 34  2  0
 34 35  1  0
 35 36  2  0
 36 37  1  0
 38 39  2  0
 38 44  1  0
 39 40  1  0
 40 41  2  0
 41 42  1  0
 41 43  1  0
 43 44  2  0
 46 45  1  1
M  CHG  1   9   1
M  END
