
     RDKit          3D

 27 27  0  0  0  0  0  0  0  0999 V2000
    4.1250   -0.5640    1.1730 C   0  0  0  0  0  0  0  0  0  0  0  0
    2.8720   -0.1490    0.8580 N   0  0  0  0  0  0  0  0  0  0  0  0
    2.4390    1.1820    2.0060 C   0  0  0  0  0  0  0  0  0  0  0  0
    2.4900    1.8800    1.1490 N   0  0  0  0  0  0  0  0  0  0  0  0
    2.3950    0.2720    3.0300 N   0  0  0  0  0  0  0  0  0  0  0  0
    1.9310    1.0120    4.2660 C   0  0  0  0  0  0  0  0  0  0  0  0
    1.7870    0.3520    5.4700 N   0  0  0  0  0  0  0  0  0  0  0  0
    1.7170    2.2190    4.0340 O   0  0  0  0  0  0  0  0  0  0  0  0
    1.8610   -0.3450    0.0360 C   0  0  0  0  0  0  0  0  0  0  0  0
    1.9840   -1.2970   -0.8510 O   0  0  0  0  0  0  0  0  0  0  0  0
    0.5410    0.3620   -0.0720 C   0  0  1  0  0  0  0  0  0  0  0  0
    0.4870    1.3810   -1.1520 C   0  0  0  0  0  0  0  0  0  0  0  0
    1.4220    1.1380   -2.1660 O   0  0  0  0  0  0  0  0  0  0  0  0
    1.0380    0.0660   -2.8930 O   0  0  0  0  0  0  0  0  0  0  0  0
   -0.0780   -0.7490   -2.7460 C   0  0  0  0  0  0  0  0  0  0  0  0
   -0.3930   -1.4630   -3.7610 O   0  0  0  0  0  0  0  0  0  0  0  0
   -0.9090   -0.8940   -1.6220 N   0  0  0  0  0  0  0  0  0  0  0  0
   -2.2470   -1.3380   -1.8910 C   0  0  2  0  0  0  0  0  0  0  0  0
   -3.3070   -0.4100   -1.4030 C   0  0  0  0  0  0  0  0  0  0  0  0
   -3.2410    0.8920   -1.9640 O   0  0  0  0  0  0  0  0  0  0  0  0
   -4.1730    1.8650   -1.5660 C   0  0  0  0  0  0  0  0  0  0  0  0
   -5.0310    1.4970   -0.7060 O   0  0  0  0  0  0  0  0  0  0  0  0
   -4.1720    3.1430   -2.0650 O   0  0  0  0  0  0  0  0  0  0  0  0
   -2.5130   -2.6750   -1.3050 C   0  0  0  0  0  0  0  0  0  0  0  0
   -3.6560   -3.1720   -1.3130 O   0  0  0  0  0  0  0  0  0  0  0  0
   -1.4810   -3.3890   -0.7370 O   0  0  0  0  0  0  0  0  0  0  0  0
   -0.5480   -0.6430   -0.2460 C   0  0  0  0  0  0  0  0  0  0  0  0
  1  2  1  0
  2  3  1  0
  2  9  1  0
  3  4  2  0
  3  5  1  0
  5  6  1  0
  6  7  1  0
  6  8  2  0
  9 10  2  0
 11  9  1  6
 11 12  1  0
 11 27  1  0
 12 13  1  0
 13 14  1  0
 14 15  1  0
 15 16  2  0
 15 17  1  0
 17 18  1  0
 17 27  1  0
 18 19  1  1
 18 24  1  0
 19 20  1  0
 20 21  1  0
 21 22  2  0
 21 23  1  0
 24 25  2  0
 24 26  1  0
M  END
