
     RDKit          3D

 27 28  0  0  0  0  0  0  0  0999 V2000
    4.5570   -0.3350    1.1290 O   0  0  0  0  0  0  0  0  0  0  0  0
    3.5820   -0.9320    0.6360 C   0  0  0  0  0  0  0  0  0  0  0  0
    3.8780   -2.0630   -0.2770 C   0  0  0  0  0  0  0  0  0  0  0  0
    5.2230   -2.2640   -0.4160 O   0  0  0  0  0  0  0  0  0  0  0  0
    5.5560   -3.2410   -1.2000 O   0  0  0  0  0  0  0  0  0  0  0  0
    2.1980   -0.5360    0.9450 C   0  0  0  0  0  0  0  0  0  0  0  0
    1.1940   -1.2370    0.3780 C   0  0  0  0  0  0  0  0  0  0  0  0
   -0.1270   -1.0580    0.5190 O   0  0  0  0  0  0  0  0  0  0  0  0
   -1.0840   -0.2290    0.0370 C   0  0  0  0  0  0  0  0  0  0  0  0
   -2.3090   -0.7430    0.3010 C   0  0  0  0  0  0  0  0  0  0  0  0
   -2.3980   -2.2080    0.2670 C   0  0  0  0  0  0  0  0  0  0  0  0
   -1.4180   -2.9350    0.0130 O   0  0  0  0  0  0  0  0  0  0  0  0
   -3.6470   -2.8250    0.5310 N   0  0  0  0  0  0  0  0  0  0  0  0
   -3.8610   -4.1590    0.5300 O   0  0  0  0  0  0  0  0  0  0  0  0
   -4.7380   -4.4310   -0.4320 O   0  0  0  0  0  0  0  0  0  0  0  0
   -3.4890   -0.0240    0.6000 N   0  0  0  0  0  0  0  0  0  0  0  0
   -3.8480    1.1750    0.2510 C   0  0  0  0  0  0  0  0  0  0  0  0
   -3.0290    2.1210   -0.4390 N   0  0  0  0  0  0  0  0  0  0  0  0
   -1.6200    2.0550   -0.6910 C   0  0  0  0  0  0  0  0  0  0  0  0
   -0.9070    0.9960   -0.6460 N   0  0  0  0  0  0  0  0  0  0  0  0
   -1.1180    3.3460   -1.0080 N   0  0  0  0  0  0  0  0  0  0  0  0
    0.1010    3.9310   -0.4960 C   0  0  0  0  0  0  0  0  0  0  0  0
    1.2660    2.9820   -0.4240 C   0  0  0  0  0  0  0  0  0  0  0  0
    1.7320    2.7930    0.8480 O   0  0  0  0  0  0  0  0  0  0  0  0
    1.2370    1.7400    1.5090 O   0  0  0  0  0  0  0  0  0  0  0  0
    1.9950    0.5940    1.8420 C   0  0  0  0  0  0  0  0  0  0  0  0
    2.5660    0.4900    2.9980 O   0  0  0  0  0  0  0  0  0  0  0  0
  1  2  2  0
  2  3  1  0
  2  6  1  0
  3  4  1  0
  4  5  1  0
  6  7  2  0
  6 26  1  0
  7  8  1  0
  8  9  1  0
  9 10  2  0
  9 20  1  0
 10 11  1  0
 10 16  1  0
 11 12  2  0
 11 13  1  0
 13 14  1  0
 14 15  1  0
 16 17  2  0
 17 18  1  0
 18 19  1  0
 19 20  2  0
 19 21  1  0
 21 22  1  0
 22 23  1  0
 23 24  1  0
 24 25  1  0
 25 26  1  0
 26 27  2  0
M  END
