
     RDKit          3D

 27 28  0  0  0  0  0  0  0  0999 V2000
    4.1170    2.6940    0.5060 O   0  0  0  0  0  0  0  0  0  0  0  0
    4.6120    1.4450    0.3840 C   0  0  0  0  0  0  0  0  0  0  0  0
    5.8140    1.1780    0.6120 N   0  0  0  0  0  0  0  0  0  0  0  0
    6.8380    2.0920    0.4670 O   0  0  0  0  0  0  0  0  0  0  0  0
    7.9620    1.4210    0.3490 O   0  0  0  0  0  0  0  0  0  0  0  0
    7.7270    0.2280    0.8340 O   0  0  0  0  0  0  0  0  0  0  0  0
    3.5560    0.4710   -0.0630 N   0  0  0  0  0  0  0  0  0  0  0  0
    2.0020    0.6560   -0.4330 C   0  0  0  0  0  0  0  0  0  0  0  0
    1.6760    1.7650    0.1290 O   0  0  0  0  0  0  0  0  0  0  0  0
    1.1720   -0.1180   -1.1000 N   0  0  0  0  0  0  0  0  0  0  0  0
   -0.2630    0.0220   -0.6290 C   0  0  0  0  0  0  0  0  0  0  0  0
   -0.8610    1.1220   -0.7930 N   0  0  0  0  0  0  0  0  0  0  0  0
   -2.2390    1.0000   -0.2320 C   0  0  2  0  0  0  0  0  0  0  0  0
   -2.3390    2.1000    0.6890 O   0  0  0  0  0  0  0  0  0  0  0  0
   -2.9200    3.0670    0.0070 C   0  0  0  0  0  0  0  0  0  0  0  0
   -2.7260    4.5060    0.5900 C   0  0  0  0  0  0  0  0  0  0  0  0
   -3.4630    5.1660   -0.3770 O   0  0  0  0  0  0  0  0  0  0  0  0
   -2.9590    6.3010   -0.7100 O   0  0  0  0  0  0  0  0  0  0  0  0
   -2.2710   -0.3080    0.4090 C   0  0  0  0  0  0  0  0  0  0  0  0
   -3.0960   -0.8440    1.2210 O   0  0  0  0  0  0  0  0  0  0  0  0
   -1.1060   -0.9910   -0.0060 N   0  0  0  0  0  0  0  0  0  0  0  0
   -0.8840   -2.3910   -0.2250 C   0  0  2  0  0  0  0  0  0  0  0  0
   -2.0920   -3.0210   -0.8710 C   0  0  0  0  0  0  0  0  0  0  0  0
   -2.8020   -3.9490    0.0910 C   0  0  0  0  0  0  0  0  0  0  0  0
   -1.7950   -4.9500    0.5570 C   0  0  0  0  0  0  0  0  0  0  0  0
   -0.4940   -4.4850    0.6430 O   0  0  0  0  0  0  0  0  0  0  0  0
   -0.4760   -3.1230    0.9870 C   0  0  0  0  0  0  0  0  0  0  0  0
  1  2  2  0
  2  3  1  0
  2  7  1  0
  3  4  1  0
  4  5  1  0
  5  6  1  0
  7  8  1  0
  8  9  2  0
  8 10  1  0
 10 11  1  0
 11 12  2  0
 11 21  1  0
 12 13  1  0
 13 14  1  1
 13 19  1  0
 14 15  1  0
 15 16  1  0
 16 17  1  0
 17 18  1  0
 19 20  2  0
 19 21  1  0
 22 21  1  1
 22 23  1  0
 22 27  1  0
 23 24  1  0
 24 25  1  0
 25 26  1  0
 26 27  1  0
M  END
