
     RDKit          3D

 27 28  0  0  0  0  0  0  0  0999 V2000
    2.7470    0.5030    2.2750 O   0  0  0  0  0  0  0  0  0  0  0  0
    3.2950    0.1080    1.1910 C   0  0  0  0  0  0  0  0  0  0  0  0
    4.2380   -1.0660    1.2730 C   0  0  0  0  0  0  0  0  0  0  0  0
    4.8370   -1.3840    0.0030 N   0  0  0  0  0  0  0  0  0  0  0  0
    5.6900   -0.5080   -0.7050 C   0  0  0  0  0  0  0  0  0  0  0  0
    5.9770    0.6180   -0.2340 O   0  0  0  0  0  0  0  0  0  0  0  0
    6.2350   -0.8660   -1.9410 O   0  0  0  0  0  0  0  0  0  0  0  0
    7.0430   -0.0440   -2.6190 O   0  0  0  0  0  0  0  0  0  0  0  0
    7.6170    0.8340   -1.8240 O   0  0  0  0  0  0  0  0  0  0  0  0
    2.9820    0.7870    0.0010 N   0  0  0  0  0  0  0  0  0  0  0  0
    2.0910    1.9000   -0.0900 C   0  0  0  0  0  0  0  0  0  0  0  0
    0.6870    1.6910    0.2980 C   0  0  1  0  0  0  0  0  0  0  0  0
   -0.0180    0.6100   -0.5170 C   0  0  0  0  0  0  0  0  0  0  0  0
   -1.2630    0.5200    0.2200 N   0  0  0  0  0  0  0  0  0  0  0  0
   -2.5230    0.2070   -0.3500 C   0  0  0  0  0  0  0  0  0  0  0  0
   -2.6410   -0.0270   -1.6030 O   0  0  0  0  0  0  0  0  0  0  0  0
   -3.7260    0.1250    0.3920 N   0  0  0  0  0  0  0  0  0  0  0  0
   -4.9730   -0.2000   -0.2590 C   0  0  0  0  0  0  0  0  0  0  0  0
   -5.6690   -1.2680    0.0910 C   0  0  0  0  0  0  0  0  0  0  0  0
   -6.9570   -1.6700   -0.5280 C   0  0  2  0  0  0  0  0  0  0  0  0
   -6.7100   -2.9090   -1.1630 O   0  0  0  0  0  0  0  0  0  0  0  0
   -7.3500   -0.7690   -1.5390 O   0  0  0  0  0  0  0  0  0  0  0  0
   -6.6270    0.3310   -1.8950 N   0  0  0  0  0  0  0  0  0  0  0  0
   -5.5170    0.6340   -1.3260 C   0  0  0  0  0  0  0  0  0  0  0  0
   -0.9170    0.8080    1.5640 C   0  0  0  0  0  0  0  0  0  0  0  0
   -1.6870    0.6490    2.5430 O   0  0  0  0  0  0  0  0  0  0  0  0
    0.4110    1.2910    1.6000 O   0  0  0  0  0  0  0  0  0  0  0  0
  1  2  2  0
  2  3  1  0
  2 10  1  0
  3  4  1  0
  4  5  1  0
  5  6  2  0
  5  7  1  0
  7  8  1  0
  8  9  1  0
 10 11  1  0
 12 11  1  1
 12 13  1  0
 12 27  1  0
 13 14  1  0
 14 15  1  0
 14 25  1  0
 15 16  2  0
 15 17  1  0
 17 18  1  0
 18 19  2  0
 18 24  1  0
 19 20  1  0
 20 21  1  6
 20 22  1  0
 22 23  1  0
 23 24  2  0
 25 26  2  0
 25 27  1  0
M  END
