
     RDKit          3D

 27 28  0  0  0  0  0  0  0  0999 V2000
   -3.2470   -1.5880   -0.9070 O   0  0  0  0  0  0  0  0  0  0  0  0
   -2.0020   -1.4320   -0.6300 C   0  0  0  0  0  0  0  0  0  0  0  0
   -1.2320   -2.5910   -0.4950 N   0  0  0  0  0  0  0  0  0  0  0  0
   -0.3530   -2.9340    0.6040 C   0  0  0  0  0  0  0  0  0  0  0  0
    0.9870   -3.3240   -0.0210 C   0  0  0  0  0  0  0  0  0  0  0  0
    1.4590   -2.1940   -0.6710 O   0  0  0  0  0  0  0  0  0  0  0  0
    2.3750   -1.5830    0.1620 C   0  0  0  0  0  0  0  0  0  0  0  0
    3.0030   -0.4470   -0.6560 C   0  0  2  0  0  0  0  0  0  0  0  0
    3.9050    0.3690    0.2360 C   0  0  0  0  0  0  0  0  0  0  0  0
    4.7850   -0.5550    0.8500 O   0  0  0  0  0  0  0  0  0  0  0  0
    5.6220    0.0460    1.6550 O   0  0  0  0  0  0  0  0  0  0  0  0
    6.6670    0.4100    0.9560 O   0  0  0  0  0  0  0  0  0  0  0  0
    2.0340    0.3130   -1.3710 N   0  0  0  0  0  0  0  0  0  0  0  0
    1.0930    1.2100   -0.8410 C   0  0  0  0  0  0  0  0  0  0  0  0
    0.8640    2.2880   -1.5430 N   0  0  0  0  0  0  0  0  0  0  0  0
   -0.0330    3.2360   -1.1280 O   0  0  0  0  0  0  0  0  0  0  0  0
    0.4240    4.1260   -0.2150 O   0  0  0  0  0  0  0  0  0  0  0  0
    0.3540    1.0430    0.4130 C   0  0  0  0  0  0  0  0  0  0  0  0
   -0.4850   -0.0530    0.4350 O   0  0  0  0  0  0  0  0  0  0  0  0
   -1.4950   -0.0330   -0.4780 C   0  0  2  0  0  0  0  0  0  0  0  0
   -2.6090    0.8670   -0.1470 C   0  0  0  0  0  0  0  0  0  0  0  0
   -2.6080    2.1300    0.3090 N   0  0  0  0  0  0  0  0  0  0  0  0
   -3.8560    2.5270    0.4570 O   0  0  0  0  0  0  0  0  0  0  0  0
   -4.6790    1.5830    0.1200 C   0  0  0  0  0  0  0  0  0  0  0  0
   -6.1820    1.6000    0.1320 C   0  0  0  0  0  0  0  0  0  0  0  0
   -6.6880    0.3780   -0.3080 O   0  0  0  0  0  0  0  0  0  0  0  0
   -3.9100    0.5440   -0.2590 N   0  0  0  0  0  0  0  0  0  0  0  0
  1  2  2  0
  2  3  1  0
  2 20  1  0
  3  4  1  0
  4  5  1  0
  5  6  1  0
  6  7  1  0
  7  8  1  0
  8  9  1  1
  8 13  1  0
  9 10  1  0
 10 11  1  0
 11 12  1  0
 13 14  1  0
 14 15  2  3
 14 18  1  0
 15 16  1  0
 16 17  1  0
 18 19  1  0
 19 20  1  0
 20 21  1  1
 21 22  2  0
 21 27  1  0
 22 23  1  0
 23 24  1  0
 24 25  1  0
 24 27  2  0
 25 26  1  0
M  END
