
     RDKit          3D

 26 28  0  0  0  0  0  0  0  0999 V2000
    2.9290    1.5650    1.9400 C   0  0  0  0  0  0  0  0  0  0  0  0
    2.8030    0.5520    0.8630 C   0  0  0  0  0  0  0  0  0  0  0  0
    1.7050   -0.1010    0.4510 N   0  0  0  0  0  0  0  0  0  0  0  0
    2.0340   -0.9190   -0.5390 C   0  0  0  0  0  0  0  0  0  0  0  0
    1.1320   -1.8360   -1.2970 C   0  0  0  0  0  0  0  0  0  0  0  0
   -0.2120   -1.4960   -0.9430 O   0  0  0  0  0  0  0  0  0  0  0  0
   -0.7140   -0.2290   -1.1810 C   0  0  0  0  0  0  0  0  0  0  0  0
    0.0370    0.6210   -1.7150 O   0  0  0  0  0  0  0  0  0  0  0  0
   -2.0840    0.0890   -0.8120 C   0  0  0  0  0  0  0  0  0  0  0  0
   -2.7510    1.2990   -0.9740 C   0  0  0  0  0  0  0  0  0  0  0  0
   -3.9860    1.1230   -0.4930 N   0  0  0  0  0  0  0  0  0  0  0  0
   -4.1360   -0.1320   -0.0360 C   0  0  0  0  0  0  0  0  0  0  0  0
   -5.3420   -0.7230    0.5690 C   0  0  1  0  0  0  0  0  0  0  0  0
   -5.9380    0.0950    1.7080 C   0  0  0  0  0  0  0  0  0  0  0  0
   -7.1110    0.4420    0.8500 C   0  0  0  0  0  0  0  0  0  0  0  0
   -6.6230   -0.5210   -0.1960 C   0  0  0  0  0  0  0  0  0  0  0  0
   -2.9670   -0.7550   -0.2360 N   0  0  0  0  0  0  0  0  0  0  0  0
    3.3340   -0.7680   -0.7320 O   0  0  0  0  0  0  0  0  0  0  0  0
    3.8520    0.1020    0.0790 C   0  0  0  0  0  0  0  0  0  0  0  0
    5.2470    0.5050    0.1350 C   0  0  0  0  0  0  0  0  0  0  0  0
    6.2260   -0.3370   -0.0750 C   0  0  0  0  0  0  0  0  0  0  0  0
    5.9410   -1.6230   -0.3520 F   0  0  0  0  0  0  0  0  0  0  0  0
    7.6080    0.0860   -0.0170 C   0  0  0  0  0  0  0  0  0  0  0  0
    8.5830   -0.7730   -0.2310 C   0  0  0  0  0  0  0  0  0  0  0  0
    8.2070   -2.4550   -0.5900 Cl  0  0  0  0  0  0  0  0  0  0  0  0
   10.2330   -0.2000   -0.1470 Cl  0  0  0  0  0  0  0  0  0  0  0  0
  1  2  1  0
  2  3  1  0
  2 19  2  0
  3  4  2  0
  4  5  1  0
  4 18  1  0
  5  6  1  0
  6  7  1  0
  7  8  2  0
  7  9  1  0
  9 10  2  0
  9 17  1  0
 10 11  1  0
 11 12  1  0
 13 12  1  6
 12 17  2  0
 13 14  1  0
 13 16  1  0
 14 15  1  0
 15 16  1  0
 18 19  1  0
 19 20  1  0
 20 21  2  3
 21 22  1  0
 21 23  1  0
 23 24  2  3
 24 25  1  0
 24 26  1  0
M  END
