
     RDKit          3D

 20 19  0  0  0  0  0  0  0  0999 V2000
   -4.6740   -0.9000    0.0800 C   0  0  0  0  0  0  0  0  0  0  0  0
   -4.0780    0.1880   -0.7890 C   0  0  1  0  0  0  0  0  0  0  0  0
   -4.5440    1.4530   -0.3060 N   0  0  0  0  0  0  0  0  0  0  0  0
   -2.6190    0.0550   -0.9860 C   0  0  0  0  0  0  0  0  0  0  0  0
   -1.7490    0.0880    0.2140 C   0  0  1  0  0  0  0  0  0  0  0  0
   -0.4120   -0.0500   -0.1570 O   0  0  0  0  0  0  0  0  0  0  0  0
    0.1700   -1.1900    0.3840 C   0  0  0  0  0  0  0  0  0  0  0  0
    1.5870   -1.3020   -0.0310 C   0  0  0  0  0  0  0  0  0  0  0  0
    2.2890   -2.2620    0.3510 O   0  0  0  0  0  0  0  0  0  0  0  0
    2.1290   -0.3340   -0.8460 O   0  0  0  0  0  0  0  0  0  0  0  0
    3.4620   -0.4210   -1.2490 C   0  0  0  0  0  0  0  0  0  0  0  0
    4.4150   -0.4190   -0.1260 C   0  0  0  0  0  0  0  0  0  0  0  0
    3.9890   -0.3440    1.0500 O   0  0  0  0  0  0  0  0  0  0  0  0
    5.8120   -0.5010   -0.3370 N   0  0  0  0  0  0  0  0  0  0  0  0
    6.7340   -0.4990    0.7430 C   0  0  0  0  0  0  0  0  0  0  0  0
    6.3400   -0.4250    1.9320 O   0  0  0  0  0  0  0  0  0  0  0  0
    8.0960   -0.5800    0.5080 O   0  0  0  0  0  0  0  0  0  0  0  0
   -1.8520    1.2850    1.0510 C   0  0  0  0  0  0  0  0  0  0  0  0
   -1.5700    2.5910    0.5640 N   0  0  0  0  0  0  0  0  0  0  0  0
   -2.3010    1.2160    2.6230 S   0  0  0  0  0  0  0  0  0  0  0  0
  2  1  1  1
  2  3  1  0
  2  4  1  0
  5  4  1  6
  5  6  1  0
  5 18  1  0
  6  7  1  0
  7  8  1  0
  8  9  2  0
  8 10  1  0
 10 11  1  0
 11 12  1  0
 12 13  2  0
 12 14  1  0
 14 15  1  0
 15 16  2  0
 15 17  1  0
 18 19  1  0
 18 20  2  0
M  CHG  1   3   1
M  END
