
     RDKit          3D

 22 24  0  0  0  0  0  0  0  0999 V2000
   -2.4660    1.8270    1.5700 C   0  0  0  0  0  0  0  0  0  0  0  0
   -2.1710    1.9110    0.0940 C   0  0  2  0  0  0  0  0  0  0  0  0
   -2.4510    3.3140   -0.4020 C   0  0  0  0  0  0  0  0  0  0  0  0
   -2.9490    0.9580   -0.5380 O   0  0  0  0  0  0  0  0  0  0  0  0
   -2.0760   -0.1060   -0.8570 C   0  0  2  0  0  0  0  0  0  0  0  0
   -2.0180   -1.1200    0.1990 C   0  0  0  0  0  0  0  0  0  0  0  0
   -0.8670   -1.2610    0.9330 O   0  0  0  0  0  0  0  0  0  0  0  0
    0.2570   -0.7970    0.4130 C   0  0  1  0  0  0  0  0  0  0  0  0
    0.9760    0.1170    1.4300 C   0  0  0  0  0  0  0  0  0  0  0  0
    1.6360    1.1020    0.6850 O   0  0  0  0  0  0  0  0  0  0  0  0
    3.2310    1.2280    1.0630 S   0  0  2  0  0  0  0  0  0  0  0  0
    3.6570    2.4670    2.1420 N   0  0  0  0  0  0  0  0  0  0  0  0
    3.9370    1.4420   -0.2870 O   0  0  0  0  0  0  0  0  0  0  0  0
    3.7650   -0.1290    1.5380 O   0  0  0  0  0  0  0  0  0  0  0  0
    1.1150   -1.9500    0.2300 O   0  0  0  0  0  0  0  0  0  0  0  0
    0.8440   -2.4410   -1.0180 C   0  0  1  0  0  0  0  0  0  0  0  0
    2.0990   -2.6670   -1.8620 C   0  0  0  0  0  0  0  0  0  0  0  0
    0.0780   -3.7470   -0.8580 C   0  0  0  0  0  0  0  0  0  0  0  0
    0.0970   -1.4810   -1.7020 O   0  0  0  0  0  0  0  0  0  0  0  0
    0.3140   -0.2900   -0.9760 C   0  0  1  0  0  0  0  0  0  0  0  0
   -0.8320    0.6610   -1.1630 C   0  0  2  0  0  0  0  0  0  0  0  0
   -0.8420    1.6360   -0.1780 O   0  0  0  0  0  0  0  0  0  0  0  0
  2  1  1  1
  2  3  1  0
  2  4  1  0
  2 22  1  0
  4  5  1  0
  5  6  1  1
  5 21  1  0
  6  7  1  0
  7  8  1  0
  8  9  1  1
  8 15  1  0
  8 20  1  0
  9 10  1  0
 10 11  1  0
 11 12  1  1
 11 13  2  0
 11 14  2  0
 15 16  1  0
 16 17  1  6
 16 18  1  0
 16 19  1  0
 20 19  1  6
 20 21  1  0
 21 22  1  1
M  END
