
     RDKit          3D

 12 12  0  0  0  0  0  0  0  0999 V2000
   -2.8540   -0.9030   -0.8010 C   0  0  0  0  0  0  0  0  0  0  0  0
   -1.3890   -0.4920   -0.8290 C   0  0  0  0  0  0  0  0  0  0  0  0
   -0.9880    0.1480    0.4650 C   0  0  2  0  0  0  0  0  0  0  0  0
   -1.1860   -0.8080    1.5410 N   0  0  0  0  0  0  0  0  0  0  0  0
   -2.0370    1.2490    0.7390 C   0  0  0  0  0  0  0  0  0  0  0  0
   -1.9620    2.2340   -0.2190 O   0  0  0  0  0  0  0  0  0  0  0  0
    0.3170    0.8080    0.4740 C   0  0  0  0  0  0  0  0  0  0  0  0
    1.5530    0.0300    0.2100 C   0  0  1  0  0  0  0  0  0  0  0  0
    1.6790   -0.6520   -1.0860 C   0  0  0  0  0  0  0  0  0  0  0  0
    3.1210   -0.4620   -1.5060 C   0  0  0  0  0  0  0  0  0  0  0  0
    3.6800    0.3550   -0.3890 C   0  0  0  0  0  0  0  0  0  0  0  0
    2.6170    0.9630    0.2260 O   0  0  0  0  0  0  0  0  0  0  0  0
  1  2  1  0
  2  3  1  0
  3  4  1  1
  3  5  1  0
  3  7  1  0
  5  6  1  0
  8  7  1  6
  8  9  1  0
  8 12  1  0
  9 10  1  0
 10 11  1  0
 11 12  1  0
M  CHG  1   4   1
M  END
