
     RDKit          3D

 12 12  0  0  0  0  0  0  0  0999 V2000
    3.0020    0.4510   -1.3110 C   0  0  0  0  0  0  0  0  0  0  0  0
    1.9580   -0.1090   -0.3230 C   0  0  0  0  0  0  0  0  0  0  0  0
    0.7220    0.3660   -0.5660 O   0  0  0  0  0  0  0  0  0  0  0  0
   -0.3390    0.0330    0.1770 C   0  0  1  0  0  0  0  0  0  0  0  0
   -0.7380   -1.3990    0.2710 C   0  0  1  0  0  0  0  0  0  0  0  0
   -1.2330   -1.9300   -1.0820 C   0  0  0  0  0  0  0  0  0  0  0  0
    0.1750   -2.3230    0.8090 N   0  0  0  0  0  0  0  0  0  0  0  0
   -0.3620    0.6410    1.5720 C   0  0  0  0  0  0  0  0  0  0  0  0
   -0.3300    2.1370    1.4500 C   0  0  0  0  0  0  0  0  0  0  0  0
   -0.1900    2.5200    0.1020 O   0  0  0  0  0  0  0  0  0  0  0  0
   -1.3670    2.1940   -0.5650 C   0  0  0  0  0  0  0  0  0  0  0  0
   -1.5510    0.7110   -0.5150 C   0  0  0  0  0  0  0  0  0  0  0  0
  1  2  1  0
  2  3  1  0
  4  3  1  6
  4  5  1  0
  4  8  1  0
  4 12  1  0
  5  6  1  6
  5  7  1  0
  8  9  1  0
  9 10  1  0
 10 11  1  0
 11 12  1  0
M  CHG  1   7   1
M  END
