
     RDKit          3D

 19 20  0  0  0  0  0  0  0  0999 V2000
    5.7130   -0.6150   -1.0860 C   0  0  0  0  0  0  0  0  0  0  0  0
    4.3440   -0.4840   -0.8570 O   0  0  0  0  0  0  0  0  0  0  0  0
    3.6800    0.6610   -0.5530 C   0  0  0  0  0  0  0  0  0  0  0  0
    4.4110    1.7020   -0.4780 O   0  0  0  0  0  0  0  0  0  0  0  0
    2.2540    0.8270   -0.3090 C   0  0  0  0  0  0  0  0  0  0  0  0
    1.7480    2.1000   -0.0070 C   0  0  0  0  0  0  0  0  0  0  0  0
    0.4090    2.3180    0.2340 C   0  0  0  0  0  0  0  0  0  0  0  0
   -0.5150    1.2970    0.1910 C   0  0  0  0  0  0  0  0  0  0  0  0
   -1.8880    1.5680    0.4460 N   0  0  0  0  0  0  0  0  0  0  0  0
   -2.8620    0.5390    0.4100 C   0  0  0  0  0  0  0  0  0  0  0  0
   -3.5860    0.4050   -0.6730 C   0  0  0  0  0  0  0  0  0  0  0  0
   -4.6040   -0.6670   -0.7160 C   0  0  0  0  0  0  0  0  0  0  0  0
   -4.6820   -1.4400    0.4380 O   0  0  0  0  0  0  0  0  0  0  0  0
   -3.8980   -1.2550    1.5440 C   0  0  0  0  0  0  0  0  0  0  0  0
   -2.9980   -0.3040    1.5770 C   0  0  0  0  0  0  0  0  0  0  0  0
   -2.2030   -0.1150    2.6960 O   0  0  0  0  0  0  0  0  0  0  0  0
   -0.0380    0.0460   -0.1030 C   0  0  0  0  0  0  0  0  0  0  0  0
    1.3300   -0.1840   -0.3500 C   0  0  0  0  0  0  0  0  0  0  0  0
    1.7310   -1.4690   -0.6390 O   0  0  0  0  0  0  0  0  0  0  0  0
  1  2  1  0
  2  3  1  0
  3  4  2  0
  3  5  1  0
  5  6  2  0
  5 18  1  0
  6  7  1  0
  7  8  2  0
  8  9  1  0
  8 17  1  0
  9 10  1  0
 10 11  2  0
 10 15  1  0
 11 12  1  0
 12 13  1  0
 13 14  1  0
 14 15  2  0
 15 16  1  0
 17 18  2  0
 18 19  1  0
M  END
