
     RDKit          3D

 16 17  0  0  0  0  0  0  0  0999 V2000
    0.7210    1.5640   -0.3210 O   0  0  0  0  0  0  0  0  0  0  0  0
    1.6800    0.7330   -0.1860 C   0  0  0  0  0  0  0  0  0  0  0  0
    2.9260    1.1280   -0.7430 N   0  0  0  0  0  0  0  0  0  0  0  0
    3.9980    0.2810   -1.1690 C   0  0  0  0  0  0  0  0  0  0  0  0
    4.7230   -0.3700   -0.0130 C   0  0  0  0  0  0  0  0  0  0  0  0
    3.8350   -1.7520    0.6860 S   0  0  0  0  0  0  0  0  0  0  0  0
    2.1050   -1.4580    0.8810 C   0  0  0  0  0  0  0  0  0  0  0  0
    1.2880   -0.4820    0.5320 C   0  0  0  0  0  0  0  0  0  0  0  0
   -0.0990   -0.6060    0.8780 N   0  0  0  0  0  0  0  0  0  0  0  0
   -1.1160   -0.6160   -0.1110 C   0  0  0  0  0  0  0  0  0  0  0  0
   -0.7450   -0.5100   -1.3200 O   0  0  0  0  0  0  0  0  0  0  0  0
   -2.5560   -0.7430    0.2170 C   0  0  1  0  0  0  0  0  0  0  0  0
   -3.0360    0.3620    1.1150 C   0  0  0  0  0  0  0  0  0  0  0  0
   -4.2910    0.8310    0.3660 C   0  0  0  0  0  0  0  0  0  0  0  0
   -3.8380    0.5520   -1.0720 C   0  0  0  0  0  0  0  0  0  0  0  0
   -3.3030   -0.7220   -0.9330 O   0  0  0  0  0  0  0  0  0  0  0  0
  1  2  2  0
  2  3  1  0
  2  8  1  0
  3  4  1  0
  4  5  1  0
  5  6  1  0
  6  7  1  0
  7  8  2  0
  8  9  1  0
  9 10  1  0
 10 11  2  0
 12 10  1  6
 12 13  1  0
 12 16  1  0
 13 14  1  0
 14 15  1  0
 15 16  1  0
M  END
