
     RDKit          3D

 16 17  0  0  0  0  0  0  0  0999 V2000
   -4.1790   -1.2240    1.2550 O   0  0  0  0  0  0  0  0  0  0  0  0
   -3.2340   -0.7850    0.5570 C   0  0  0  0  0  0  0  0  0  0  0  0
   -3.3930    0.5800   -0.0120 C   0  0  0  0  0  0  0  0  0  0  0  0
   -2.4090    0.8470   -1.1180 C   0  0  0  0  0  0  0  0  0  0  0  0
   -1.0660    1.0010   -0.7280 N   0  0  0  0  0  0  0  0  0  0  0  0
   -0.5140    0.0590    0.1760 C   0  0  2  0  0  0  0  0  0  0  0  0
    0.9720    0.0990    0.1740 C   0  0  0  0  0  0  0  0  0  0  0  0
    1.5670    0.9660   -0.6170 C   0  0  0  0  0  0  0  0  0  0  0  0
    3.0130    1.1740   -0.7750 C   0  0  0  0  0  0  0  0  0  0  0  0
    4.0110    0.1320    0.2160 S   0  0  1  0  0  0  0  0  0  0  0  0
    4.9920   -0.6650   -0.6000 O   0  0  0  0  0  0  0  0  0  0  0  0
    4.8230    1.0140    1.1560 O   0  0  0  0  0  0  0  0  0  0  0  0
    2.9690   -0.9030    1.1530 C   0  0  0  0  0  0  0  0  0  0  0  0
    1.6770   -0.8180    1.0430 C   0  0  0  0  0  0  0  0  0  0  0  0
   -0.8900   -1.3550   -0.2590 C   0  0  0  0  0  0  0  0  0  0  0  0
   -2.1440   -1.6790    0.4190 N   0  0  0  0  0  0  0  0  0  0  0  0
  1  2  2  0
  2  3  1  0
  2 16  1  0
  3  4  1  0
  4  5  1  0
  5  6  1  0
  6  7  1  6
  6 15  1  0
  7  8  2  0
  7 14  1  0
  8  9  1  0
 10  9  1  6
 10 11  2  0
 10 12  2  0
 10 13  1  0
 13 14  2  0
 15 16  1  0
M  END
