
     RDKit          3D

 16 17  0  0  0  0  0  0  0  0999 V2000
   -3.3990    1.0260   -0.7610 C   0  0  0  0  0  0  0  0  0  0  0  0
   -2.5940    0.2880    0.3120 C   0  0  2  0  0  0  0  0  0  0  0  0
   -3.1830    0.6110    1.6870 C   0  0  0  0  0  0  0  0  0  0  0  0
   -1.2460    0.8470    0.2640 C   0  0  0  0  0  0  0  0  0  0  0  0
   -0.1760    0.1490   -0.0760 C   0  0  0  0  0  0  0  0  0  0  0  0
    1.1410    0.7620   -0.1060 C   0  0  0  0  0  0  0  0  0  0  0  0
    2.3110    0.3240   -0.4230 C   0  0  0  0  0  0  0  0  0  0  0  0
    3.8460    1.3900   -0.3390 S   0  0  0  0  0  0  0  0  0  0  0  0
    4.9460   -0.0380    0.0350 C   0  0  0  0  0  0  0  0  0  0  0  0
    4.1240   -1.1890   -0.2530 N   0  0  0  0  0  0  0  0  0  0  0  0
    2.9310   -0.8730   -0.9450 C   0  0  0  0  0  0  0  0  0  0  0  0
    2.4770   -1.5560   -1.8990 O   0  0  0  0  0  0  0  0  0  0  0  0
   -0.3360   -1.2250   -0.3520 N   0  0  0  0  0  0  0  0  0  0  0  0
   -1.6250   -1.8460   -0.2690 C   0  0  0  0  0  0  0  0  0  0  0  0
   -1.7760   -3.0770   -0.5160 O   0  0  0  0  0  0  0  0  0  0  0  0
   -2.6900   -1.0640    0.0870 O   0  0  0  0  0  0  0  0  0  0  0  0
  2  1  1  6
  2  3  1  0
  2  4  1  0
  2 16  1  0
  4  5  2  0
  5  6  1  0
  5 13  1  0
  6  7  2  3
  7  8  1  0
  7 11  1  0
  8  9  1  0
  9 10  1  0
 10 11  1  0
 11 12  2  0
 13 14  1  0
 14 15  2  0
 14 16  1  0
M  END
