
     RDKit          3D

 16 17  0  0  0  0  0  0  0  0999 V2000
   -3.8720    0.8300   -0.0720 C   0  0  0  0  0  0  0  0  0  0  0  0
   -3.6310   -0.2780    0.6580 O   0  0  0  0  0  0  0  0  0  0  0  0
   -2.7540   -1.2130    0.2960 C   0  0  0  0  0  0  0  0  0  0  0  0
   -1.3310   -0.8930    0.0710 C   0  0  1  0  0  0  0  0  0  0  0  0
   -0.6250   -2.2210   -0.2550 C   0  0  0  0  0  0  0  0  0  0  0  0
    1.1490   -1.9340   -0.4930 S   0  0  0  0  0  0  0  0  0  0  0  0
    1.3140   -0.1660   -0.6870 C   0  0  0  0  0  0  0  0  0  0  0  0
    2.3930    0.4300   -0.3020 C   0  0  0  0  0  0  0  0  0  0  0  0
    3.5710   -0.2300    0.3140 C   0  0  0  0  0  0  0  0  0  0  0  0
    4.4460    0.6790    0.5800 C   0  0  0  0  0  0  0  0  0  0  0  0
    4.0310    1.9800    0.2180 N   0  0  0  0  0  0  0  0  0  0  0  0
    2.7200    1.8400   -0.3480 C   0  0  0  0  0  0  0  0  0  0  0  0
    2.0520    2.8330   -0.7800 O   0  0  0  0  0  0  0  0  0  0  0  0
    0.2040    0.5290   -1.2930 C   0  0  0  0  0  0  0  0  0  0  0  0
    0.3390    1.5240   -2.0360 O   0  0  0  0  0  0  0  0  0  0  0  0
   -1.1470    0.0420   -1.0240 N   0  0  0  0  0  0  0  0  0  0  0  0
  1  2  1  0
  2  3  1  0
  4  3  1  6
  4  5  1  0
  4 16  1  0
  5  6  1  0
  6  7  1  0
  7  8  2  3
  7 14  1  0
  8  9  1  0
  8 12  1  0
  9 10  2  0
 10 11  1  0
 11 12  1  0
 12 13  2  0
 14 15  2  0
 14 16  1  0
M  END
