
     RDKit          3D

 16 17  0  0  0  0  0  0  0  0999 V2000
    5.8930   -1.1110   -0.9130 O   0  0  0  0  0  0  0  0  0  0  0  0
    4.9320   -0.5550   -0.3360 C   0  0  0  0  0  0  0  0  0  0  0  0
    4.7320    0.7810   -0.3270 N   0  0  0  0  0  0  0  0  0  0  0  0
    3.6160    1.0670    0.3750 C   0  0  0  0  0  0  0  0  0  0  0  0
    3.1140   -0.1290    0.8110 C   0  0  0  0  0  0  0  0  0  0  0  0
    1.6500   -0.3550    1.7850 S   0  0  0  0  0  0  0  0  0  0  0  0
    0.2600   -0.5580    0.6370 C   0  0  0  0  0  0  0  0  0  0  0  0
    0.0900    0.7680   -0.0880 C   0  0  0  0  0  0  0  0  0  0  0  0
   -0.9910    0.6170   -0.9880 O   0  0  0  0  0  0  0  0  0  0  0  0
   -2.2660    0.2970   -0.5530 C   0  0  0  0  0  0  0  0  0  0  0  0
   -3.0940   -0.2760   -1.4010 C   0  0  0  0  0  0  0  0  0  0  0  0
   -4.4730   -0.6720   -1.0860 C   0  0  0  0  0  0  0  0  0  0  0  0
   -4.8300   -0.3720    0.2390 O   0  0  0  0  0  0  0  0  0  0  0  0
   -3.9970    0.2230    1.1500 C   0  0  0  0  0  0  0  0  0  0  0  0
   -2.7540    0.5570    0.7950 C   0  0  0  0  0  0  0  0  0  0  0  0
    3.9230   -1.0950    0.3710 N   0  0  0  0  0  0  0  0  0  0  0  0
  1  2  2  0
  2  3  1  0
  2 16  1  0
  3  4  1  0
  4  5  2  0
  5  6  1  0
  5 16  1  0
  6  7  1  0
  7  8  1  0
  8  9  1  0
  9 10  1  0
 10 11  2  0
 10 15  1  0
 11 12  1  0
 12 13  1  0
 13 14  1  0
 14 15  2  0
M  END
