
     RDKit          3D

 23 25  0  0  0  0  0  0  0  0999 V2000
   -1.6530   -2.2680   -0.4480 C   0  0  0  0  0  0  0  0  0  0  0  0
   -1.1410   -1.4490    0.6810 C   0  0  2  0  0  0  0  0  0  0  0  0
   -2.3400   -0.8120    1.3560 C   0  0  0  0  0  0  0  0  0  0  0  0
   -2.6980    0.5260    0.7820 C   0  0  0  0  0  0  0  0  0  0  0  0
   -2.1510    0.8220   -0.4980 N   0  0  0  0  0  0  0  0  0  0  0  0
   -2.9500    1.4080   -1.5030 C   0  0  0  0  0  0  0  0  0  0  0  0
   -2.4850    1.6730   -2.6250 O   0  0  0  0  0  0  0  0  0  0  0  0
   -4.3720    1.7200   -1.2300 C   0  0  0  0  0  0  0  0  0  0  0  0
   -4.9770    2.3320   -2.4340 C   0  0  0  0  0  0  0  0  0  0  0  0
   -5.4530    2.8260   -3.3610 N   0  0  0  0  0  0  0  0  0  0  0  0
   -0.7700    0.5290   -0.7910 C   0  0  0  0  0  0  0  0  0  0  0  0
   -0.1950   -0.3480    0.3060 C   0  0  2  0  0  0  0  0  0  0  0  0
    1.1240   -0.7290   -0.0550 N   0  0  0  0  0  0  0  0  0  0  0  0
    1.4530   -1.6170   -1.1490 C   0  0  0  0  0  0  0  0  0  0  0  0
    2.1950   -0.2330    0.7390 C   0  0  0  0  0  0  0  0  0  0  0  0
    2.0520   -0.2100    2.1000 N   0  0  0  0  0  0  0  0  0  0  0  0
    3.0250    0.2040    2.9210 C   0  0  0  0  0  0  0  0  0  0  0  0
    4.1890    0.6160    2.4010 N   0  0  0  0  0  0  0  0  0  0  0  0
    4.4200    0.6290    1.0790 C   0  0  0  0  0  0  0  0  0  0  0  0
    5.4450    0.9860    0.2970 N   0  0  0  0  0  0  0  0  0  0  0  0
    5.1500    0.8130   -0.9940 C   0  0  0  0  0  0  0  0  0  0  0  0
    3.8530    0.3120   -1.0440 C   0  0  0  0  0  0  0  0  0  0  0  0
    3.3940    0.1940    0.2300 C   0  0  0  0  0  0  0  0  0  0  0  0
  2  1  1  6
  2  3  1  0
  2 12  1  0
  3  4  1  0
  4  5  1  0
  5  6  1  0
  5 11  1  0
  6  7  2  0
  6  8  1  0
  8  9  1  0
  9 10  3  0
 11 12  1  0
 12 13  1  6
 13 14  1  0
 13 15  1  0
 15 16  2  0
 15 23  1  0
 16 17  1  0
 17 18  2  0
 18 19  1  0
 19 20  1  0
 19 23  2  0
 20 21  1  0
 21 22  2  0
 22 23  1  0
M  END
