
     RDKit          3D

 18 18  0  0  0  0  0  0  0  0999 V2000
    3.7120   -2.0050    0.4030 C   0  0  0  0  0  0  0  0  0  0  0  0
    2.2900   -1.7180    0.0990 C   0  0  0  0  0  0  0  0  0  0  0  0
    1.3760   -2.9240    0.2560 C   0  0  0  0  0  0  0  0  0  0  0  0
    1.7840   -0.5740   -0.2720 C   0  0  0  0  0  0  0  0  0  0  0  0
    0.4720   -0.3250   -0.5500 O   0  0  0  0  0  0  0  0  0  0  0  0
   -0.6580   -1.0090   -0.8000 C   0  0  0  0  0  0  0  0  0  0  0  0
   -1.8740   -0.1290   -1.0710 C   0  0  0  0  0  0  0  0  0  0  0  0
   -2.2020    0.7330    0.0180 N   0  0  0  0  0  0  0  0  0  0  0  0
   -3.3580    1.5020   -0.3610 C   0  0  0  0  0  0  0  0  0  0  0  0
   -4.3690    1.6440    0.7410 C   0  0  0  0  0  0  0  0  0  0  0  0
   -4.7950    0.4500    1.2670 O   0  0  0  0  0  0  0  0  0  0  0  0
   -3.8400   -0.5420    1.2940 C   0  0  0  0  0  0  0  0  0  0  0  0
   -2.4400    0.0760    1.2600 C   0  0  0  0  0  0  0  0  0  0  0  0
    2.6800    0.5980   -0.4200 C   0  0  0  0  0  0  0  0  0  0  0  0
    4.0410    0.5450   -0.1630 N   0  0  0  0  0  0  0  0  0  0  0  0
    2.1530    1.7640   -0.8050 C   0  0  0  0  0  0  0  0  0  0  0  0
    2.9200    2.9880   -0.9890 C   0  0  0  0  0  0  0  0  0  0  0  0
    4.7870    2.8720   -0.6560 Br  0  0  0  0  0  0  0  0  0  0  0  0
  1  2  1  0
  2  3  1  0
  2  4  2  3
  4  5  1  0
  4 14  1  0
  5  6  1  0
  6  7  1  0
  7  8  1  0
  8  9  1  0
  8 13  1  0
  9 10  1  0
 10 11  1  0
 11 12  1  0
 12 13  1  0
 14 15  1  0
 14 16  2  3
 16 17  1  0
 17 18  1  0
M  END
