
     RDKit          3D

 19 20  0  0  0  0  0  0  0  0999 V2000
   -3.1430   -0.0900   -1.2700 C   0  0  0  0  0  0  0  0  0  0  0  0
   -2.3000   -1.2430   -0.9110 C   0  0  0  0  0  0  0  0  0  0  0  0
   -1.1530   -1.1780   -0.1100 C   0  0  0  0  0  0  0  0  0  0  0  0
   -0.6680    0.0190    0.5030 C   0  0  0  0  0  0  0  0  0  0  0  0
    0.5790    0.4300    0.3600 C   0  0  0  0  0  0  0  0  0  0  0  0
    1.4490   -0.3950   -0.4630 C   0  0  0  0  0  0  0  0  0  0  0  0
    2.7190   -0.0910   -0.6680 C   0  0  0  0  0  0  0  0  0  0  0  0
    3.5930   -0.9120   -1.4900 C   0  0  0  0  0  0  0  0  0  0  0  0
    4.8630   -0.6160   -1.7010 C   0  0  0  0  0  0  0  0  0  0  0  0
    5.9710   -1.7210   -2.7860 Br  0  0  0  0  0  0  0  0  0  0  0  0
    1.1840    1.5870    0.9150 O   0  0  0  0  0  0  0  0  0  0  0  0
    0.4690    2.7760    1.1930 C   0  0  0  0  0  0  0  0  0  0  0  0
   -0.4780    2.7030    2.3280 C   0  0  0  0  0  0  0  0  0  0  0  0
   -1.3720    1.5420    2.4310 C   0  0  0  0  0  0  0  0  0  0  0  0
   -1.5870    0.7690    1.2880 O   0  0  0  0  0  0  0  0  0  0  0  0
   -0.7230   -2.4380   -0.0530 N   0  0  0  0  0  0  0  0  0  0  0  0
   -1.5270   -3.2460   -0.7590 N   0  0  0  0  0  0  0  0  0  0  0  0
   -2.5260   -2.5340   -1.3110 C   0  0  0  0  0  0  0  0  0  0  0  0
   -3.4610   -2.9890   -2.0390 O   0  0  0  0  0  0  0  0  0  0  0  0
  1  2  1  0
  2  3  2  0
  2 18  1  0
  3  4  1  0
  3 16  1  0
  4  5  2  0
  4 15  1  0
  5  6  1  0
  5 11  1  0
  6  7  2  3
  7  8  1  0
  8  9  2  3
  9 10  1  0
 11 12  1  0
 12 13  1  0
 13 14  1  0
 14 15  1  0
 16 17  1  0
 17 18  1  0
 18 19  2  0
M  END
