
     RDKit          3D

 19 19  0  0  0  0  0  0  0  0999 V2000
   -3.5190   -1.1820   -1.2430 C   0  0  0  0  0  0  0  0  0  0  0  0
   -3.6250   -0.3550    0.0340 C   0  0  1  0  0  0  0  0  0  0  0  0
   -4.7080   -0.9040    0.9330 C   0  0  0  0  0  0  0  0  0  0  0  0
   -2.3980   -0.4810    0.7030 O   0  0  0  0  0  0  0  0  0  0  0  0
   -1.4860    0.5480    0.8130 C   0  0  0  0  0  0  0  0  0  0  0  0
   -0.1060    0.2450    1.0070 N   0  0  0  0  0  0  0  0  0  0  0  0
    0.3960   -0.8380    0.5190 C   0  0  0  0  0  0  0  0  0  0  0  0
   -0.3710   -1.7770   -0.2240 N   0  0  0  0  0  0  0  0  0  0  0  0
    1.7590   -1.0340    0.7700 O   0  0  0  0  0  0  0  0  0  0  0  0
    2.5750    0.0990    0.9770 C   0  0  0  0  0  0  0  0  0  0  0  0
    4.0000   -0.2300    1.2340 C   0  0  0  0  0  0  0  0  0  0  0  0
    4.6800   -0.9750    0.1380 C   0  0  0  0  0  0  0  0  0  0  0  0
    4.7000   -0.2340   -1.1750 C   0  0  0  0  0  0  0  0  0  0  0  0
    5.4050    1.0790   -1.0930 C   0  0  0  0  0  0  0  0  0  0  0  0
    7.2430    0.9330   -0.5640 Br  0  0  0  0  0  0  0  0  0  0  0  0
   -1.9070    1.7950    0.7370 C   0  0  0  0  0  0  0  0  0  0  0  0
   -3.3440    2.0780    0.5360 C   0  0  0  0  0  0  0  0  0  0  0  0
   -3.9760    1.0450   -0.3510 C   0  0  1  0  0  0  0  0  0  0  0  0
   -3.5560    1.3310   -1.6700 O   0  0  0  0  0  0  0  0  0  0  0  0
  2  1  1  6
  2  3  1  0
  2  4  1  0
  2 18  1  0
  4  5  1  0
  5  6  1  0
  5 16  2  0
  6  7  2  3
  7  8  1  0
  7  9  1  0
  9 10  1  0
 10 11  1  0
 11 12  1  0
 12 13  1  0
 13 14  1  0
 14 15  1  0
 16 17  1  0
 17 18  1  0
 18 19  1  6
M  END
