
     RDKit          3D

 22 22  0  0  0  0  0  0  0  0999 V2000
   -2.1470   -3.1960    1.9150 C   0  0  0  0  0  0  0  0  0  0  0  0
   -2.0700   -2.3620    0.9180 C   0  0  0  0  0  0  0  0  0  0  0  0
   -0.7720   -1.8070    0.5040 C   0  0  0  0  0  0  0  0  0  0  0  0
   -0.9140   -0.3620    0.0850 C   0  0  0  0  0  0  0  0  0  0  0  0
    0.1890    0.2200   -0.3500 C   0  0  0  0  0  0  0  0  0  0  0  0
    1.4360   -0.4480   -0.4260 C   0  0  0  0  0  0  0  0  0  0  0  0
    2.5930    0.0280   -0.8410 C   0  0  0  0  0  0  0  0  0  0  0  0
    2.7570    1.3840   -1.3050 C   0  0  0  0  0  0  0  0  0  0  0  0
    1.8650    2.2630   -1.3670 O   0  0  0  0  0  0  0  0  0  0  0  0
    3.8000   -0.8650   -0.8560 C   0  0  0  0  0  0  0  0  0  0  0  0
    4.9200   -0.4400    0.0040 C   0  0  2  0  0  0  0  0  0  0  0  0
    4.5360   -0.3270    1.4730 C   0  0  0  0  0  0  0  0  0  0  0  0
    5.7510    0.7110   -0.4350 C   0  0  0  0  0  0  0  0  0  0  0  0
   -2.2380    0.2560    0.1960 C   0  0  1  0  0  0  0  0  0  0  0  0
   -2.6360    0.2910    1.5500 O   0  0  0  0  0  0  0  0  0  0  0  0
   -2.3850    1.6330   -0.3310 C   0  0  2  0  0  0  0  0  0  0  0  0
   -3.8580    2.0230   -0.0980 C   0  0  0  0  0  0  0  0  0  0  0  0
   -2.1280    1.7900   -1.7940 C   0  0  0  0  0  0  0  0  0  0  0  0
   -1.5950    2.6220    0.5210 C   0  0  0  0  0  0  0  0  0  0  0  0
   -3.2660   -0.6480   -0.4900 C   0  0  0  0  0  0  0  0  0  0  0  0
   -3.2630   -1.9690    0.1980 C   0  0  0  0  0  0  0  0  0  0  0  0
   -4.3440   -2.7260    0.1240 C   0  0  0  0  0  0  0  0  0  0  0  0
  1  2  2  0
  2  3  1  0
  2 21  1  0
  3  4  1  0
  4  5  2  3
  4 14  1  0
  5  6  1  0
  6  7  2  3
  7  8  1  0
  7 10  1  0
  8  9  2  0
 10 11  1  0
 11 12  1  1
 11 13  1  0
 14 15  1  1
 14 16  1  0
 14 20  1  0
 16 17  1  6
 16 18  1  0
 16 19  1  0
 20 21  1  0
 21 22  2  0
M  END
