
     RDKit          3D

 18 18  0  0  0  0  0  0  0  0999 V2000
   -5.9310    0.5190    0.1840 C   0  0  0  0  0  0  0  0  0  0  0  0
   -4.5370    0.3140    0.2390 O   0  0  0  0  0  0  0  0  0  0  0  0
   -3.9750   -0.7810    0.8470 C   0  0  0  0  0  0  0  0  0  0  0  0
   -4.8440   -1.5920    1.3540 O   0  0  0  0  0  0  0  0  0  0  0  0
   -2.5830   -1.0530    0.9410 C   0  0  0  0  0  0  0  0  0  0  0  0
   -1.6250   -0.3260    0.4790 C   0  0  0  0  0  0  0  0  0  0  0  0
   -0.2190   -0.7640    0.6680 C   0  0  0  0  0  0  0  0  0  0  0  0
    0.7530   -0.3770   -0.1640 C   0  0  0  0  0  0  0  0  0  0  0  0
    2.1170   -0.8350    0.0730 C   0  0  0  0  0  0  0  0  0  0  0  0
    3.1920   -0.5660   -0.5980 C   0  0  0  0  0  0  0  0  0  0  0  0
    3.2060    0.5500   -2.1180 Br  0  0  0  0  0  0  0  0  0  0  0  0
    4.5150   -1.1600   -0.1680 C   0  0  0  0  0  0  0  0  0  0  0  0
    5.4170   -0.0370    0.1340 C   0  0  0  0  0  0  0  0  0  0  0  0
    4.9550    1.2910   -0.0100 N   0  0  0  0  0  0  0  0  0  0  0  0
    6.5960   -0.2570    0.5190 O   0  0  0  0  0  0  0  0  0  0  0  0
    0.4260    0.4640   -1.3240 C   0  0  0  0  0  0  0  0  0  0  0  0
   -1.0160    0.7570   -1.5580 C   0  0  0  0  0  0  0  0  0  0  0  0
   -1.7270    0.9590   -0.2540 C   0  0  0  0  0  0  0  0  0  0  0  0
  1  2  1  0
  2  3  1  0
  3  4  2  0
  3  5  1  0
  5  6  2  3
  6  7  1  0
  6 18  1  0
  7  8  2  0
  8  9  1  0
  8 16  1  0
  9 10  2  3
 10 11  1  0
 10 12  1  0
 12 13  1  0
 13 14  1  0
 13 15  2  0
 16 17  1  0
 17 18  1  0
M  END
