
     RDKit          3D

 19 19  0  0  0  0  0  0  0  0999 V2000
    8.1100    1.2440    0.6020 C   0  0  0  0  0  0  0  0  0  0  0  0
    6.8330    1.1760    0.3380 C   0  0  0  0  0  0  0  0  0  0  0  0
    6.1210   -0.0940    0.4480 C   0  0  0  0  0  0  0  0  0  0  0  0
    7.0690   -1.6650    0.9850 Br  0  0  0  0  0  0  0  0  0  0  0  0
    4.8300   -0.1620    0.1810 C   0  0  0  0  0  0  0  0  0  0  0  0
    4.1340   -1.4210    0.2930 C   0  0  0  0  0  0  0  0  0  0  0  0
    2.8720   -1.6560    0.0670 C   0  0  0  0  0  0  0  0  0  0  0  0
    1.8520   -0.7200   -0.3520 C   0  0  0  0  0  0  0  0  0  0  0  0
    2.1150    0.4770   -0.5440 O   0  0  0  0  0  0  0  0  0  0  0  0
    0.5090   -1.1500   -0.5560 N   0  0  0  0  0  0  0  0  0  0  0  0
   -0.4990   -0.2790   -0.9580 N   0  0  0  0  0  0  0  0  0  0  0  0
   -1.8390   -0.4840   -0.5290 C   0  0  0  0  0  0  0  0  0  0  0  0
   -2.0400   -1.4940    0.2290 O   0  0  0  0  0  0  0  0  0  0  0  0
   -2.9510    0.4160   -0.9310 C   0  0  0  0  0  0  0  0  0  0  0  0
   -4.2100   -0.0890   -0.3090 C   0  0  2  0  0  0  0  0  0  0  0  0
   -5.4190    0.7730   -0.6630 C   0  0  0  0  0  0  0  0  0  0  0  0
   -6.4340    0.1790    0.3240 C   0  0  0  0  0  0  0  0  0  0  0  0
   -5.5150   -0.4050    1.3770 C   0  0  0  0  0  0  0  0  0  0  0  0
   -4.2250    0.0320    1.0800 O   0  0  0  0  0  0  0  0  0  0  0  0
  1  2  2  0
  2  3  1  0
  3  4  1  0
  3  5  2  3
  5  6  1  0
  6  7  2  3
  7  8  1  0
  8  9  2  0
  8 10  1  0
 10 11  1  0
 11 12  1  0
 12 13  2  0
 12 14  1  0
 15 14  1  6
 15 16  1  0
 15 19  1  0
 16 17  1  0
 17 18  1  0
 18 19  1  0
M  END
