
     RDKit          3D

 19 19  0  0  0  0  0  0  0  0999 V2000
    4.8090    1.7000    0.5000 C   0  0  0  0  0  0  0  0  0  0  0  0
    5.1580    0.4890    0.8870 C   0  0  0  0  0  0  0  0  0  0  0  0
    4.2480   -0.6200    0.6320 C   0  0  0  0  0  0  0  0  0  0  0  0
    4.5940   -1.8220    1.0150 C   0  0  0  0  0  0  0  0  0  0  0  0
    6.2790   -2.1230    1.9010 Br  0  0  0  0  0  0  0  0  0  0  0  0
    2.9540   -0.4070   -0.0460 C   0  0  0  0  0  0  0  0  0  0  0  0
    2.2300   -1.7040   -0.1830 C   0  0  0  0  0  0  0  0  0  0  0  0
    0.9430   -1.5540   -0.8450 N   0  0  0  0  0  0  0  0  0  0  0  0
   -0.0660   -0.7230   -0.2970 C   0  0  0  0  0  0  0  0  0  0  0  0
    0.0970   -0.0850    0.7700 O   0  0  0  0  0  0  0  0  0  0  0  0
   -1.3450   -0.5610   -0.9350 N   0  0  0  0  0  0  0  0  0  0  0  0
   -2.3520    0.2910   -0.3530 C   0  0  1  0  0  0  0  0  0  0  0  0
   -1.8710    1.7310   -0.2270 C   0  0  0  0  0  0  0  0  0  0  0  0
   -3.5720    0.2640   -1.2320 C   0  0  0  0  0  0  0  0  0  0  0  0
   -4.8570    0.2410   -0.4490 C   0  0  0  0  0  0  0  0  0  0  0  0
   -4.7320    1.1490    0.7680 C   0  0  0  0  0  0  0  0  0  0  0  0
   -3.7730    0.5250    1.6290 O   0  0  0  0  0  0  0  0  0  0  0  0
   -2.7700   -0.2010    0.9990 C   0  0  0  0  0  0  0  0  0  0  0  0
   -2.2330   -1.2170    1.5220 O   0  0  0  0  0  0  0  0  0  0  0  0
  1  2  2  0
  2  3  1  0
  3  4  2  3
  3  6  1  0
  4  5  1  0
  6  7  1  0
  7  8  1  0
  8  9  1  0
  9 10  2  0
  9 11  1  0
 11 12  1  0
 12 13  1  1
 12 14  1  0
 12 18  1  0
 14 15  1  0
 15 16  1  0
 16 17  1  0
 17 18  1  0
 18 19  2  0
M  END
