
     RDKit          3D

 23 25  0  0  0  0  0  0  0  0999 V2000
    0.3620   -3.0030    0.2790 C   0  0  0  0  0  0  0  0  0  0  0  0
    0.0980   -1.9700   -0.7570 C   0  0  2  0  0  0  0  0  0  0  0  0
    1.2250   -2.0930   -1.7980 C   0  0  0  0  0  0  0  0  0  0  0  0
    2.5260   -1.8920   -1.0910 C   0  0  0  0  0  0  0  0  0  0  0  0
    2.5690   -0.5990   -0.4380 N   0  0  0  0  0  0  0  0  0  0  0  0
    3.7400    0.2040   -0.6030 C   0  0  0  0  0  0  0  0  0  0  0  0
    4.7020   -0.2090   -1.2980 O   0  0  0  0  0  0  0  0  0  0  0  0
    3.8730    1.5400    0.0300 C   0  0  0  0  0  0  0  0  0  0  0  0
    5.1620    2.1480   -0.2940 C   0  0  0  0  0  0  0  0  0  0  0  0
    6.1900    2.6210   -0.5340 N   0  0  0  0  0  0  0  0  0  0  0  0
    1.4440   -0.1720    0.3470 C   0  0  0  0  0  0  0  0  0  0  0  0
    0.1270   -0.5510   -0.3180 C   0  0  2  0  0  0  0  0  0  0  0  0
   -0.9690   -0.1330    0.5320 N   0  0  0  0  0  0  0  0  0  0  0  0
   -1.1770   -0.7650    1.8190 C   0  0  0  0  0  0  0  0  0  0  0  0
   -1.7750    0.9220    0.0600 C   0  0  0  0  0  0  0  0  0  0  0  0
   -1.2860    1.7190   -0.9410 N   0  0  0  0  0  0  0  0  0  0  0  0
   -1.9300    2.7640   -1.4490 C   0  0  0  0  0  0  0  0  0  0  0  0
   -3.1550    3.0850   -0.9640 N   0  0  0  0  0  0  0  0  0  0  0  0
   -3.7080    2.3580    0.0150 C   0  0  0  0  0  0  0  0  0  0  0  0
   -4.8920    2.4900    0.6240 N   0  0  0  0  0  0  0  0  0  0  0  0
   -4.9920    1.5010    1.5360 C   0  0  0  0  0  0  0  0  0  0  0  0
   -3.8270    0.7270    1.4910 C   0  0  0  0  0  0  0  0  0  0  0  0
   -3.0140    1.2720    0.5270 C   0  0  0  0  0  0  0  0  0  0  0  0
  2  1  1  1
  2  3  1  0
  2 12  1  0
  3  4  1  0
  4  5  1  0
  5  6  1  0
  5 11  1  0
  6  7  2  0
  6  8  1  0
  8  9  1  0
  9 10  3  0
 11 12  1  0
 12 13  1  1
 13 14  1  0
 13 15  1  0
 15 16  2  0
 15 23  1  0
 16 17  1  0
 17 18  2  0
 18 19  1  0
 19 20  1  0
 19 23  2  0
 20 21  1  0
 21 22  2  0
 22 23  1  0
M  END
