
     RDKit          3D

 22 22  0  0  0  0  0  0  0  0999 V2000
    6.9480    0.8350   -0.7480 C   0  0  0  0  0  0  0  0  0  0  0  0
    5.6020    1.0100   -0.7110 C   0  0  0  0  0  0  0  0  0  0  0  0
    5.1350    2.3220   -1.1630 C   0  0  0  0  0  0  0  0  0  0  0  0
    4.8090   -0.0780   -0.2450 C   0  0  0  0  0  0  0  0  0  0  0  0
    3.5360   -0.2440   -0.0850 C   0  0  0  0  0  0  0  0  0  0  0  0
    2.4800    0.6970   -0.3540 C   0  0  0  0  0  0  0  0  0  0  0  0
    1.1670    0.4680   -0.1670 C   0  0  0  0  0  0  0  0  0  0  0  0
    0.2790    1.6110   -0.5260 C   0  0  0  0  0  0  0  0  0  0  0  0
   -0.8700    1.7710    0.3980 C   0  0  0  0  0  0  0  0  0  0  0  0
   -1.1240    0.6200    1.3140 C   0  0  0  0  0  0  0  0  0  0  0  0
   -0.9090   -0.6860    0.5370 C   0  0  1  0  0  0  0  0  0  0  0  0
   -1.4160   -1.8130    1.4220 C   0  0  0  0  0  0  0  0  0  0  0  0
   -1.6970   -0.6810   -0.6940 C   0  0  0  0  0  0  0  0  0  0  0  0
   -1.1750   -0.7980   -1.8090 O   0  0  0  0  0  0  0  0  0  0  0  0
   -3.0660   -0.5410   -0.6000 O   0  0  0  0  0  0  0  0  0  0  0  0
   -3.9460   -0.5180   -1.6780 C   0  0  0  0  0  0  0  0  0  0  0  0
   -5.3240   -0.3530   -1.1580 C   0  0  0  0  0  0  0  0  0  0  0  0
   -5.5740   -0.2520    0.1360 C   0  0  0  0  0  0  0  0  0  0  0  0
   -6.9380   -0.0880    0.6600 C   0  0  0  0  0  0  0  0  0  0  0  0
    0.5900   -0.7840    0.3400 C   0  0  1  0  0  0  0  0  0  0  0  0
    0.9540   -1.9480   -0.5440 C   0  0  0  0  0  0  0  0  0  0  0  0
    1.1490   -1.0690    1.7360 C   0  0  0  0  0  0  0  0  0  0  0  0
  1  2  2  0
  2  3  1  0
  2  4  1  0
  4  5  2  3
  5  6  1  0
  6  7  2  3
  7  8  1  0
  7 20  1  0
  8  9  1  0
  9 10  1  0
 10 11  1  0
 11 12  1  1
 11 13  1  0
 11 20  1  0
 13 14  2  0
 13 15  1  0
 15 16  1  0
 16 17  1  0
 17 18  2  3
 18 19  1  0
 20 21  1  6
 20 22  1  0
M  END
