
     RDKit          3D

 22 22  0  0  0  0  0  0  0  0999 V2000
   -1.7530    3.7310   -0.8080 C   0  0  0  0  0  0  0  0  0  0  0  0
   -1.8270    2.4230   -0.7710 C   0  0  0  0  0  0  0  0  0  0  0  0
   -1.5470    1.6970    0.4980 C   0  0  0  0  0  0  0  0  0  0  0  0
   -0.9050    0.3990    0.1060 C   0  0  0  0  0  0  0  0  0  0  0  0
    0.3150    0.2200    0.5420 C   0  0  0  0  0  0  0  0  0  0  0  0
    1.2070   -0.8740    0.3650 C   0  0  0  0  0  0  0  0  0  0  0  0
    2.4250   -0.9130    0.8770 C   0  0  0  0  0  0  0  0  0  0  0  0
    3.1820   -2.1330    0.5700 C   0  0  0  0  0  0  0  0  0  0  0  0
    4.3160   -2.3240    0.9890 O   0  0  0  0  0  0  0  0  0  0  0  0
    2.9730    0.1310    1.7430 C   0  0  0  0  0  0  0  0  0  0  0  0
    4.1310    0.9120    1.2520 C   0  0  2  0  0  0  0  0  0  0  0  0
    3.7510    1.6070   -0.0550 C   0  0  0  0  0  0  0  0  0  0  0  0
    5.4600    0.2840    1.1620 C   0  0  0  0  0  0  0  0  0  0  0  0
   -1.6390   -0.5590   -0.7050 C   0  0  1  0  0  0  0  0  0  0  0  0
   -0.7850   -1.3390   -1.5040 O   0  0  0  0  0  0  0  0  0  0  0  0
   -2.4390   -1.5660    0.1060 C   0  0  2  0  0  0  0  0  0  0  0  0
   -3.4690   -0.9440    1.0040 C   0  0  0  0  0  0  0  0  0  0  0  0
   -1.6010   -2.4830    0.9350 C   0  0  0  0  0  0  0  0  0  0  0  0
   -3.2250   -2.4700   -0.8600 C   0  0  0  0  0  0  0  0  0  0  0  0
   -2.5540    0.1440   -1.7100 C   0  0  0  0  0  0  0  0  0  0  0  0
   -2.1750    1.5700   -1.9080 C   0  0  0  0  0  0  0  0  0  0  0  0
   -2.1410    2.1030   -3.1130 C   0  0  0  0  0  0  0  0  0  0  0  0
  1  2  2  0
  2  3  1  0
  2 21  1  0
  3  4  1  0
  4  5  2  3
  4 14  1  0
  5  6  1  0
  6  7  2  3
  7  8  1  0
  7 10  1  0
  8  9  2  0
 10 11  1  0
 11 12  1  6
 11 13  1  0
 14 15  1  6
 14 16  1  0
 14 20  1  0
 16 17  1  1
 16 18  1  0
 16 19  1  0
 20 21  1  0
 21 22  2  0
M  END
