
     RDKit          3D

 19 20  0  0  0  0  0  0  0  0999 V2000
   -2.1670    2.7110   -0.5700 C   0  0  0  0  0  0  0  0  0  0  0  0
   -1.1320    2.4920    0.4450 C   0  0  0  0  0  0  0  0  0  0  0  0
   -0.5410    1.2740    0.7690 C   0  0  0  0  0  0  0  0  0  0  0  0
   -0.8420   -0.0400    0.2320 C   0  0  0  0  0  0  0  0  0  0  0  0
    0.1360   -0.7500   -0.2890 C   0  0  0  0  0  0  0  0  0  0  0  0
    1.4740   -0.1930   -0.3150 C   0  0  0  0  0  0  0  0  0  0  0  0
    2.5080   -0.8500   -0.8120 C   0  0  0  0  0  0  0  0  0  0  0  0
    3.8290   -0.2510   -0.8170 C   0  0  0  0  0  0  0  0  0  0  0  0
    4.8450   -0.9140   -1.3170 C   0  0  0  0  0  0  0  0  0  0  0  0
    6.6110   -0.1760   -1.3520 Br  0  0  0  0  0  0  0  0  0  0  0  0
    0.0730   -2.0420   -0.8550 O   0  0  0  0  0  0  0  0  0  0  0  0
   -1.1130   -2.7940   -0.9950 C   0  0  0  0  0  0  0  0  0  0  0  0
   -1.9010   -2.8730    0.2780 C   0  0  0  0  0  0  0  0  0  0  0  0
   -2.7970   -1.6780    0.4790 C   0  0  0  0  0  0  0  0  0  0  0  0
   -2.1680   -0.4610    0.3060 O   0  0  0  0  0  0  0  0  0  0  0  0
    0.3320    1.5800    1.7370 N   0  0  0  0  0  0  0  0  0  0  0  0
    0.3050    2.8890    2.0140 N   0  0  0  0  0  0  0  0  0  0  0  0
   -0.6020    3.5060    1.2260 C   0  0  0  0  0  0  0  0  0  0  0  0
   -0.8840    4.7340    1.2220 O   0  0  0  0  0  0  0  0  0  0  0  0
  1  2  1  0
  2  3  2  0
  2 18  1  0
  3  4  1  0
  3 16  1  0
  4  5  2  0
  4 15  1  0
  5  6  1  0
  5 11  1  0
  6  7  2  3
  7  8  1  0
  8  9  2  3
  9 10  1  0
 11 12  1  0
 12 13  1  0
 13 14  1  0
 14 15  1  0
 16 17  1  0
 17 18  1  0
 18 19  2  0
M  END
