
     RDKit          3D

 37 42  0  0  0  0  0  0  0  0999 V2000
   -9.4030   -1.9090   -1.3190 C   0  0  0  0  0  0  0  0  0  0  0  0
   -8.6280   -2.3630   -0.1860 N   0  0  0  0  0  0  0  0  0  0  0  0
   -7.7970   -1.3070    0.2950 C   0  0  0  0  0  0  0  0  0  0  0  0
   -6.7180   -0.8990   -0.6710 C   0  0  0  0  0  0  0  0  0  0  0  0
   -5.9220    0.2030   -0.0460 C   0  0  0  0  0  0  0  0  0  0  0  0
   -6.2970    1.5210   -0.2220 C   0  0  0  0  0  0  0  0  0  0  0  0
   -5.5880    2.5660    0.3360 C   0  0  0  0  0  0  0  0  0  0  0  0
   -4.4860    2.3200    1.0830 C   0  0  0  0  0  0  0  0  0  0  0  0
   -4.0800    1.0030    1.2810 C   0  0  0  0  0  0  0  0  0  0  0  0
   -2.9810    0.7200    2.0280 O   0  0  0  0  0  0  0  0  0  0  0  0
   -1.6710    0.7640    1.7170 C   0  0  0  0  0  0  0  0  0  0  0  0
   -0.8540    1.6010    2.4980 C   0  0  0  0  0  0  0  0  0  0  0  0
    0.4940    1.7330    2.2940 C   0  0  0  0  0  0  0  0  0  0  0  0
    1.1060    1.0270    1.2890 C   0  0  0  0  0  0  0  0  0  0  0  0
    0.3140    0.1830    0.4920 C   0  0  0  0  0  0  0  0  0  0  0  0
   -1.0550    0.0710    0.7220 C   0  0  0  0  0  0  0  0  0  0  0  0
   -1.7770   -0.7740   -0.1120 O   0  0  0  0  0  0  0  0  0  0  0  0
   -2.1090   -0.4680   -1.4300 C   0  0  0  0  0  0  0  0  0  0  0  0
   -2.8390    0.6630   -1.6470 O   0  0  0  0  0  0  0  0  0  0  0  0
    0.9130   -0.5360   -0.5260 O   0  0  0  0  0  0  0  0  0  0  0  0
    2.2860   -0.4620   -0.8080 C   0  0  0  0  0  0  0  0  0  0  0  0
    3.1240   -0.9970   -1.6550 N   0  0  0  0  0  0  0  0  0  0  0  0
    4.4470   -0.5130   -1.4120 N   0  0  0  0  0  0  0  0  0  0  0  0
    5.5240   -1.0740   -2.2400 C   0  0  0  0  0  0  0  0  0  0  0  0
    6.8380   -0.4530   -1.9100 C   0  0  0  0  0  0  0  0  0  0  0  0
    7.5590   -0.9150   -0.8030 N   0  0  1  0  0  0  0  0  0  0  0  0
    8.5650    0.0720   -0.3890 C   0  0  0  0  0  0  0  0  0  0  0  0
    6.8960   -1.3790    0.3470 C   0  0  0  0  0  0  0  0  0  0  0  0
    6.3790   -0.3050    1.2960 C   0  0  0  0  0  0  0  0  0  0  0  0
    5.2100    0.3370    0.8010 N   0  0  0  0  0  0  0  0  0  0  0  0
    4.7360    1.1260    1.9130 C   0  0  0  0  0  0  0  0  0  0  0  0
    5.3830    1.1920    2.9840 O   0  0  0  0  0  0  0  0  0  0  0  0
    3.4420    1.9220    1.8720 C   0  0  0  0  0  0  0  0  0  0  0  0
    2.5290    1.1280    1.0150 C   0  0  0  0  0  0  0  0  0  0  0  0
    3.0080    0.4250    0.0390 C   0  0  0  0  0  0  0  0  0  0  0  0
    4.4220    0.4290   -0.3810 C   0  0  2  0  0  0  0  0  0  0  0  0
   -4.8030   -0.0580    0.7120 C   0  0  0  0  0  0  0  0  0  0  0  0
  1  2  1  0
  2  3  1  0
  3  4  1  0
  4  5  1  0
  5  6  2  0
  5 37  1  0
  6  7  1  0
  7  8  2  0
  8  9  1  0
  9 10  1  0
  9 37  2  0
 10 11  1  0
 11 12  2  0
 11 16  1  0
 12 13  1  0
 13 14  2  0
 14 15  1  0
 14 34  1  0
 15 16  2  0
 15 20  1  0
 16 17  1  0
 17 18  1  0
 18 19  1  0
 20 21  1  0
 21 22  2  0
 21 35  1  0
 22 23  1  0
 23 24  1  0
 36 23  1  6
 24 25  1  0
 25 26  1  0
 26 27  1  1
 26 28  1  0
 28 29  1  0
 29 30  1  0
 30 31  1  0
 30 36  1  0
 31 32  2  0
 31 33  1  0
 33 34  1  0
 34 35  2  0
 35 36  1  0
M  CHG  2   2   1  26   1
M  END
