
     RDKit          3D

 38 42  0  0  0  0  0  0  0  0999 V2000
   -8.4400    1.1190    0.2630 C   0  0  0  0  0  0  0  0  0  0  0  0
   -8.4730   -0.0450   -0.6040 N   0  0  2  0  0  0  0  0  0  0  0  0
   -9.0150   -1.1570    0.1560 C   0  0  0  0  0  0  0  0  0  0  0  0
   -8.6630   -2.4940   -0.4580 C   0  0  0  0  0  0  0  0  0  0  0  0
   -7.1670   -2.6830   -0.5810 C   0  0  0  0  0  0  0  0  0  0  0  0
   -6.5170   -1.3460   -0.1950 C   0  0  1  0  0  0  0  0  0  0  0  0
   -5.0670   -1.4840   -0.4190 C   0  0  0  0  0  0  0  0  0  0  0  0
   -4.6320   -2.5130   -0.9840 O   0  0  0  0  0  0  0  0  0  0  0  0
   -4.1680   -0.4840   -0.0140 N   0  0  0  0  0  0  0  0  0  0  0  0
   -4.5170    0.7490    0.6520 C   0  0  0  0  0  0  0  0  0  0  0  0
   -3.2710    1.0740    1.3970 C   0  0  0  0  0  0  0  0  0  0  0  0
   -2.2310    0.1980    0.9680 N   0  0  2  0  0  0  0  0  0  0  0  0
   -1.0470    0.9980    0.6710 C   0  0  0  0  0  0  0  0  0  0  0  0
    0.1440    0.1550    0.3630 C   0  0  0  0  0  0  0  0  0  0  0  0
    1.2590    0.9710    0.0850 O   0  0  0  0  0  0  0  0  0  0  0  0
    1.3560    1.8830   -0.9340 C   0  0  0  0  0  0  0  0  0  0  0  0
    0.4070    2.0420   -1.7110 O   0  0  0  0  0  0  0  0  0  0  0  0
    2.5810    2.7210   -1.1670 C   0  0  0  0  0  0  0  0  0  0  0  0
    3.5270    2.3430   -0.1240 N   0  0  0  0  0  0  0  0  0  0  0  0
    3.6390    2.8980    1.0770 N   0  0  0  0  0  0  0  0  0  0  0  0
    4.6140    2.2980    1.7800 C   0  0  0  0  0  0  0  0  0  0  0  0
    5.1630    1.3000    0.9900 C   0  0  0  0  0  0  0  0  0  0  0  0
    6.1720    0.3680    1.1610 C   0  0  0  0  0  0  0  0  0  0  0  0
    6.5180   -0.5340    0.1760 C   0  0  0  0  0  0  0  0  0  0  0  0
    7.5390   -1.4700    0.3610 O   0  0  0  0  0  0  0  0  0  0  0  0
    8.8400   -1.1660    0.0220 C   0  0  0  0  0  0  0  0  0  0  0  0
    9.1920    0.0550   -0.5110 C   0  0  0  0  0  0  0  0  0  0  0  0
   10.4990    0.3550   -0.8480 C   0  0  0  0  0  0  0  0  0  0  0  0
   11.4920   -0.5730   -0.6570 C   0  0  0  0  0  0  0  0  0  0  0  0
   12.7880   -0.2280   -1.0100 O   0  0  0  0  0  0  0  0  0  0  0  0
   11.1670   -1.8080   -0.1240 C   0  0  0  0  0  0  0  0  0  0  0  0
   12.4110   -2.9920    0.1240 Cl  0  0  0  0  0  0  0  0  0  0  0  0
    9.8370   -2.0890    0.2100 C   0  0  0  0  0  0  0  0  0  0  0  0
    5.8070   -0.4670   -1.0040 C   0  0  0  0  0  0  0  0  0  0  0  0
    4.7960    0.4610   -1.1830 C   0  0  0  0  0  0  0  0  0  0  0  0
    4.4570    1.3590   -0.1940 C   0  0  0  0  0  0  0  0  0  0  0  0
   -2.7200   -0.4940   -0.1780 C   0  0  0  0  0  0  0  0  0  0  0  0
   -7.1560   -0.3180   -1.1090 C   0  0  0  0  0  0  0  0  0  0  0  0
  2  1  1  1
  2  3  1  0
  2 38  1  0
  3  4  1  0
  4  5  1  0
  5  6  1  0
  6  7  1  6
  6 38  1  0
  7  8  2  0
  7  9  1  0
  9 10  1  0
  9 37  1  0
 10 11  1  0
 11 12  1  0
 12 13  1  6
 12 37  1  0
 13 14  1  0
 14 15  1  0
 15 16  1  0
 16 17  2  0
 16 18  1  0
 18 19  1  0
 19 20  1  0
 19 36  1  0
 20 21  2  0
 21 22  1  0
 22 23  2  0
 22 36  1  0
 23 24  1  0
 24 25  1  0
 24 34  2  0
 25 26  1  0
 26 27  2  0
 26 33  1  0
 27 28  1  0
 28 29  2  0
 29 30  1  0
 29 31  1  0
 31 32  1  0
 31 33  2  0
 34 35  1  0
 35 36  2  0
M  CHG  2   2   1  12   1
M  END
