
     RDKit          3D

 38 43  0  0  0  0  0  0  0  0999 V2000
   10.3650    0.6890    0.9430 C   0  0  0  0  0  0  0  0  0  0  0  0
    8.8720    0.4780    1.1720 C   0  0  0  0  0  0  0  0  0  0  0  0
    8.5840   -0.8510    1.0440 O   0  0  0  0  0  0  0  0  0  0  0  0
    7.2630   -1.1660    1.2400 C   0  0  0  0  0  0  0  0  0  0  0  0
    6.3410   -0.5400    0.2630 C   0  0  0  0  0  0  0  0  0  0  0  0
    6.5890    0.2430   -0.7410 O   0  0  0  0  0  0  0  0  0  0  0  0
    5.5210    0.6030   -1.3890 C   0  0  0  0  0  0  0  0  0  0  0  0
    5.4640    1.4420   -2.5150 O   0  0  0  0  0  0  0  0  0  0  0  0
    5.2170    2.8410   -2.3840 C   0  0  0  0  0  0  0  0  0  0  0  0
    4.4490    0.0130   -0.7700 C   0  0  0  0  0  0  0  0  0  0  0  0
    3.0290    0.0850   -1.1020 C   0  0  0  0  0  0  0  0  0  0  0  0
    2.0350   -0.5200   -0.4060 N   0  0  0  0  0  0  0  0  0  0  0  0
    0.8450   -0.2760   -0.9350 C   0  0  0  0  0  0  0  0  0  0  0  0
   -0.4530   -0.6500   -0.6080 C   0  0  0  0  0  0  0  0  0  0  0  0
   -1.4930   -0.2030   -1.3970 C   0  0  0  0  0  0  0  0  0  0  0  0
   -1.2740    0.5860   -2.4730 N   0  0  0  0  0  0  0  0  0  0  0  0
   -0.0170    0.9480   -2.7880 C   0  0  0  0  0  0  0  0  0  0  0  0
    1.0560    0.5270   -2.0320 C   0  0  0  0  0  0  0  0  0  0  0  0
    2.3930    0.7230   -2.0990 N   0  0  0  0  0  0  0  0  0  0  0  0
   -2.7860   -0.7360   -0.8400 C   0  0  2  0  0  0  0  0  0  0  0  0
   -3.8470    0.2380   -0.9920 N   0  0  0  0  0  0  0  0  0  0  0  0
   -5.0720   -0.4260   -1.3360 C   0  0  0  0  0  0  0  0  0  0  0  0
   -5.9670   -0.6490   -0.1370 C   0  0  1  0  0  0  0  0  0  0  0  0
   -6.3020    0.5730    0.4540 O   0  0  0  0  0  0  0  0  0  0  0  0
   -7.6490    0.8610    0.3450 C   0  0  0  0  0  0  0  0  0  0  0  0
   -8.3980    1.9290    0.7940 C   0  0  0  0  0  0  0  0  0  0  0  0
   -9.7740    1.9830    0.5480 C   0  0  0  0  0  0  0  0  0  0  0  0
  -10.3590    0.9510   -0.1500 C   0  0  0  0  0  0  0  0  0  0  0  0
   -9.5820   -0.0950   -0.5810 C   0  0  0  0  0  0  0  0  0  0  0  0
   -8.2210   -0.1800   -0.3560 C   0  0  0  0  0  0  0  0  0  0  0  0
   -7.2230   -1.0920   -0.6670 O   0  0  0  0  0  0  0  0  0  0  0  0
   -2.4100   -0.9340    0.6140 C   0  0  0  0  0  0  0  0  0  0  0  0
   -1.0080   -1.4890    0.4810 C   0  0  2  0  0  0  0  0  0  0  0  0
   -0.2500   -1.4150    1.6980 N   0  0  1  0  0  0  0  0  0  0  0  0
   -0.7760   -0.4700    2.6490 C   0  0  0  0  0  0  0  0  0  0  0  0
   -0.3120   -2.7340    2.3250 C   0  0  0  0  0  0  0  0  0  0  0  0
    4.9680   -0.7040    0.2670 C   0  0  0  0  0  0  0  0  0  0  0  0
    4.0810   -1.6790    1.4280 Cl  0  0  0  0  0  0  0  0  0  0  0  0
  1  2  1  0
  2  3  1  0
  3  4  1  0
  4  5  1  0
  5  6  1  0
  5 37  2  0
  6  7  1  0
  7  8  1  0
  7 10  2  0
  8  9  1  0
 10 11  1  0
 10 37  1  0
 11 12  2  0
 11 19  1  0
 12 13  1  0
 13 14  2  0
 13 18  1  0
 14 15  1  0
 14 33  1  0
 15 16  2  0
 15 20  1  0
 16 17  1  0
 17 18  2  0
 18 19  1  0
 20 21  1  1
 20 32  1  0
 21 22  1  0
 23 22  1  6
 23 24  1  0
 23 31  1  0
 24 25  1  0
 25 26  2  0
 25 30  1  0
 26 27  1  0
 27 28  2  0
 28 29  1  0
 29 30  2  0
 30 31  1  0
 33 32  1  1
 33 34  1  0
 34 35  1  1
 34 36  1  0
 37 38  1  0
M  CHG  2  21   1  34   1
M  END
