
     RDKit          3D

 38 42  0  0  0  0  0  0  0  0999 V2000
   -7.2490    0.3350    3.3550 C   0  0  0  0  0  0  0  0  0  0  0  0
   -7.3880    1.4920    2.7460 C   0  0  0  0  0  0  0  0  0  0  0  0
   -6.8090    1.7040    1.4140 C   0  0  0  0  0  0  0  0  0  0  0  0
   -6.9380    2.8580    0.7860 C   0  0  0  0  0  0  0  0  0  0  0  0
   -7.6360    4.0460    1.2800 C   0  0  0  0  0  0  0  0  0  0  0  0
   -8.9500    4.4110    0.1090 Cl  0  0  0  0  0  0  0  0  0  0  0  0
   -6.0800    0.5550    0.8280 C   0  0  0  0  0  0  0  0  0  0  0  0
   -5.5530    0.9200   -0.5160 C   0  0  0  0  0  0  0  0  0  0  0  0
   -4.8270   -0.1690   -1.1470 N   0  0  0  0  0  0  0  0  0  0  0  0
   -5.4480   -1.0460   -1.9180 C   0  0  0  0  0  0  0  0  0  0  0  0
   -6.6800   -0.9930   -2.1490 O   0  0  0  0  0  0  0  0  0  0  0  0
   -4.7300   -2.0530   -2.4910 N   0  0  0  0  0  0  0  0  0  0  0  0
   -3.3950   -2.1760   -2.2890 C   0  0  0  0  0  0  0  0  0  0  0  0
   -2.7250   -3.1900   -2.8770 N   0  0  0  0  0  0  0  0  0  0  0  0
   -1.3840   -3.3330   -2.6870 C   0  0  0  0  0  0  0  0  0  0  0  0
   -0.6700   -2.4560   -1.8960 C   0  0  0  0  0  0  0  0  0  0  0  0
   -1.3710   -1.4260   -1.3030 C   0  0  0  0  0  0  0  0  0  0  0  0
   -0.6950   -0.4560   -0.4540 C   0  0  0  0  0  0  0  0  0  0  0  0
    0.7410   -0.6720   -0.2970 N   0  0  2  0  0  0  0  0  0  0  0  0
    0.9970   -1.6830    0.7140 C   0  0  0  0  0  0  0  0  0  0  0  0
    2.3690   -2.2760    0.5160 C   0  0  0  0  0  0  0  0  0  0  0  0
    3.3700   -1.2220    0.9330 C   0  0  0  0  0  0  0  0  0  0  0  0
    3.6710   -0.3690   -0.2740 C   0  0  2  0  0  0  0  0  0  0  0  0
    5.0960    0.0790   -0.2620 C   0  0  0  0  0  0  0  0  0  0  0  0
    6.0940   -0.2210   -1.1100 N   0  0  0  0  0  0  0  0  0  0  0  0
    7.1930    0.4020   -0.7110 C   0  0  0  0  0  0  0  0  0  0  0  0
    6.8620    1.1160    0.4280 C   0  0  0  0  0  0  0  0  0  0  0  0
    5.6070    0.8800    0.6380 O   0  0  0  0  0  0  0  0  0  0  0  0
    7.6870    1.9870    1.2900 C   0  0  0  0  0  0  0  0  0  0  0  0
    9.0120    1.5640    1.1480 O   0  0  0  0  0  0  0  0  0  0  0  0
    9.0770    0.2000    0.9010 C   0  0  0  0  0  0  0  0  0  0  0  0
    9.4860   -0.0730   -0.4040 O   0  0  0  0  0  0  0  0  0  0  0  0
    8.5400    0.3660   -1.3410 C   0  0  0  0  0  0  0  0  0  0  0  0
    2.7250    0.7720   -0.4460 C   0  0  0  0  0  0  0  0  0  0  0  0
    1.3790    0.5540    0.2060 C   0  0  0  0  0  0  0  0  0  0  0  0
   -2.7350   -1.2690   -1.4870 C   0  0  0  0  0  0  0  0  0  0  0  0
   -3.5000   -0.2760   -0.9340 C   0  0  0  0  0  0  0  0  0  0  0  0
   -2.9630    0.5670   -0.2060 O   0  0  0  0  0  0  0  0  0  0  0  0
  1  2  2  0
  2  3  1  0
  3  4  2  3
  3  7  1  0
  4  5  1  0
  5  6  1  0
  7  8  1  0
  8  9  1  0
  9 10  1  0
  9 37  1  0
 10 11  2  0
 10 12  1  0
 12 13  1  0
 13 14  2  0
 13 36  1  0
 14 15  1  0
 15 16  2  0
 16 17  1  0
 17 18  1  0
 17 36  2  0
 19 18  1  1
 19 20  1  0
 19 35  1  0
 20 21  1  0
 21 22  1  0
 22 23  1  0
 23 24  1  1
 23 34  1  0
 24 25  2  0
 24 28  1  0
 25 26  1  0
 26 27  2  0
 26 33  1  0
 27 28  1  0
 27 29  1  0
 29 30  1  0
 30 31  1  0
 31 32  1  0
 32 33  1  0
 34 35  1  0
 36 37  1  0
 37 38  2  0
M  CHG  2  19   1  25   1
M  END
