
     RDKit          3D

 38 42  0  0  0  0  0  0  0  0999 V2000
   -8.6330   -3.2600   -0.6950 C   0  0  0  0  0  0  0  0  0  0  0  0
   -9.4380   -2.2130   -0.1050 N   0  0  0  0  0  0  0  0  0  0  0  0
   -8.7830   -1.5890    1.0160 C   0  0  0  0  0  0  0  0  0  0  0  0
   -7.8860   -0.4750    0.6550 C   0  0  0  0  0  0  0  0  0  0  0  0
   -7.3000    0.2410    1.6870 C   0  0  0  0  0  0  0  0  0  0  0  0
   -6.4510    1.2940    1.4420 C   0  0  0  0  0  0  0  0  0  0  0  0
   -6.1870    1.6320    0.1320 C   0  0  0  0  0  0  0  0  0  0  0  0
   -5.3270    2.6980   -0.1520 O   0  0  0  0  0  0  0  0  0  0  0  0
   -3.9770    2.4020   -0.2700 C   0  0  0  0  0  0  0  0  0  0  0  0
   -3.1740    2.4700    0.8440 C   0  0  0  0  0  0  0  0  0  0  0  0
   -1.8430    2.1840    0.7540 C   0  0  0  0  0  0  0  0  0  0  0  0
   -1.2800    1.8170   -0.4770 C   0  0  0  0  0  0  0  0  0  0  0  0
   -0.0450    1.5430   -0.6030 O   0  0  0  0  0  0  0  0  0  0  0  0
    1.2200    1.2970   -0.5640 C   0  0  0  0  0  0  0  0  0  0  0  0
    1.9590    0.9150   -1.6730 N   0  0  0  0  0  0  0  0  0  0  0  0
    3.2370    0.6710   -1.6120 N   0  0  0  0  0  0  0  0  0  0  0  0
    3.8790    0.7860   -0.4560 C   0  0  0  0  0  0  0  0  0  0  0  0
    5.2960    0.5760   -0.3490 N   0  0  0  0  0  0  0  0  0  0  0  0
    5.7500   -0.6230   -0.3110 C   0  0  0  0  0  0  0  0  0  0  0  0
    4.6660   -1.6290   -0.3930 C   0  0  0  0  0  0  0  0  0  0  0  0
    3.5730   -1.2890    0.0850 O   0  0  0  0  0  0  0  0  0  0  0  0
    4.8150   -2.8880   -0.9610 O   0  0  0  0  0  0  0  0  0  0  0  0
    5.9540   -3.7500   -0.8210 C   0  0  0  0  0  0  0  0  0  0  0  0
    7.2260   -3.0890   -1.2590 C   0  0  0  0  0  0  0  0  0  0  0  0
    7.8580   -2.2580   -0.1360 C   0  0  0  0  0  0  0  0  0  0  0  0
    7.1790   -0.9030   -0.1880 C   0  0  0  0  0  0  0  0  0  0  0  0
    8.0240    0.0790   -0.1120 C   0  0  0  0  0  0  0  0  0  0  0  0
    7.6060    1.4770   -0.1430 C   0  0  0  0  0  0  0  0  0  0  0  0
    6.1710    1.7530   -0.3280 C   0  0  2  0  0  0  0  0  0  0  0  0
    5.7200    2.7440    0.7490 C   0  0  0  0  0  0  0  0  0  0  0  0
    3.2250    1.1510    0.6500 N   0  0  0  0  0  0  0  0  0  0  0  0
    1.9180    1.4130    0.6470 C   0  0  0  0  0  0  0  0  0  0  0  0
    1.3670    1.7510    1.7250 O   0  0  0  0  0  0  0  0  0  0  0  0
   -2.1500    1.7630   -1.5910 C   0  0  0  0  0  0  0  0  0  0  0  0
   -1.4570    1.3060   -3.1320 Cl  0  0  0  0  0  0  0  0  0  0  0  0
   -3.4860    2.0480   -1.5100 C   0  0  0  0  0  0  0  0  0  0  0  0
   -6.7770    0.9100   -0.8950 C   0  0  0  0  0  0  0  0  0  0  0  0
   -7.6340   -0.1510   -0.6590 C   0  0  0  0  0  0  0  0  0  0  0  0
  1  2  1  0
  2  3  1  0
  3  4  1  0
  4  5  2  0
  4 38  1  0
  5  6  1  0
  6  7  2  0
  7  8  1  0
  7 37  1  0
  8  9  1  0
  9 10  2  0
  9 36  1  0
 10 11  1  0
 11 12  2  0
 12 13  1  0
 12 34  1  0
 13 14  1  0
 14 15  2  0
 14 32  1  0
 15 16  1  0
 16 17  2  0
 17 18  1  0
 17 31  1  0
 18 19  2  0
 18 29  1  0
 19 20  1  0
 19 26  1  0
 20 21  2  0
 20 22  1  0
 22 23  1  0
 23 24  1  0
 24 25  1  0
 25 26  1  0
 26 27  2  0
 27 28  1  0
 28 29  1  0
 29 30  1  1
 31 32  1  0
 32 33  2  0
 34 35  1  0
 34 36  2  0
 37 38  2  0
M  CHG  2   2   1  18   1
M  END
