
     RDKit          3D

 38 42  0  0  0  0  0  0  0  0999 V2000
   11.4410   -0.2640    0.2170 C   0  0  0  0  0  0  0  0  0  0  0  0
   10.0060   -0.1410   -0.0440 N   0  0  0  0  0  0  0  0  0  0  0  0
    9.3070   -1.2050    0.6360 C   0  0  0  0  0  0  0  0  0  0  0  0
    7.9000   -1.2420    0.1300 C   0  0  0  0  0  0  0  0  0  0  0  0
    7.4740   -2.3350   -0.5880 C   0  0  0  0  0  0  0  0  0  0  0  0
    6.1720   -2.3700   -1.0360 C   0  0  0  0  0  0  0  0  0  0  0  0
    5.2680   -1.3310   -0.7880 C   0  0  0  0  0  0  0  0  0  0  0  0
    3.9730   -1.4610   -1.2780 O   0  0  0  0  0  0  0  0  0  0  0  0
    3.0020   -0.5750   -0.8790 C   0  0  0  0  0  0  0  0  0  0  0  0
    2.8650   -0.3000    0.4580 C   0  0  0  0  0  0  0  0  0  0  0  0
    1.8900    0.5950    0.8830 C   0  0  0  0  0  0  0  0  0  0  0  0
    1.0480    1.2180   -0.0140 C   0  0  0  0  0  0  0  0  0  0  0  0
    0.1150    2.0850    0.4570 O   0  0  0  0  0  0  0  0  0  0  0  0
   -1.2250    1.8680    0.3340 C   0  0  0  0  0  0  0  0  0  0  0  0
   -1.9430    2.3720   -0.6720 N   0  0  0  0  0  0  0  0  0  0  0  0
   -3.2230    2.1540   -0.7650 N   0  0  0  0  0  0  0  0  0  0  0  0
   -3.9400    1.4310    0.1030 C   0  0  0  0  0  0  0  0  0  0  0  0
   -5.3440    1.2150    0.0340 N   0  0  0  0  0  0  0  0  0  0  0  0
   -5.8610    0.0900   -0.2900 C   0  0  0  0  0  0  0  0  0  0  0  0
   -4.8510   -0.9260   -0.5800 C   0  0  0  0  0  0  0  0  0  0  0  0
   -3.7700   -0.4480   -1.0020 O   0  0  0  0  0  0  0  0  0  0  0  0
   -5.0030   -2.3010   -0.4280 O   0  0  0  0  0  0  0  0  0  0  0  0
   -6.1540   -3.0670   -0.7160 C   0  0  0  0  0  0  0  0  0  0  0  0
   -7.3880   -2.5960    0.0060 C   0  0  0  0  0  0  0  0  0  0  0  0
   -8.0540   -1.4020   -0.6480 C   0  0  0  0  0  0  0  0  0  0  0  0
   -7.3100   -0.1450   -0.3130 C   0  0  0  0  0  0  0  0  0  0  0  0
   -8.0950    0.8370    0.0130 C   0  0  0  0  0  0  0  0  0  0  0  0
   -7.6100    2.1590    0.4020 C   0  0  0  0  0  0  0  0  0  0  0  0
   -6.1510    2.3860    0.3570 C   0  0  2  0  0  0  0  0  0  0  0  0
   -5.7880    3.4070   -0.7370 C   0  0  0  0  0  0  0  0  0  0  0  0
   -3.2360    0.9060    1.1340 N   0  0  0  0  0  0  0  0  0  0  0  0
   -1.9230    1.0970    1.2750 C   0  0  0  0  0  0  0  0  0  0  0  0
   -1.2390    0.6200    2.2250 O   0  0  0  0  0  0  0  0  0  0  0  0
    1.2010    0.9270   -1.3460 C   0  0  0  0  0  0  0  0  0  0  0  0
    0.1710    1.6780   -2.5510 Cl  0  0  0  0  0  0  0  0  0  0  0  0
    2.1820    0.0260   -1.7850 C   0  0  0  0  0  0  0  0  0  0  0  0
    5.7380   -0.2600   -0.0710 C   0  0  0  0  0  0  0  0  0  0  0  0
    7.0590   -0.1950    0.4010 C   0  0  0  0  0  0  0  0  0  0  0  0
  1  2  1  0
  2  3  1  0
  3  4  1  0
  4  5  2  0
  4 38  1  0
  5  6  1  0
  6  7  2  0
  7  8  1  0
  7 37  1  0
  8  9  1  0
  9 10  2  0
  9 36  1  0
 10 11  1  0
 11 12  2  0
 12 13  1  0
 12 34  1  0
 13 14  1  0
 14 15  2  0
 14 32  1  0
 15 16  1  0
 16 17  2  0
 17 18  1  0
 17 31  1  0
 18 19  2  0
 18 29  1  0
 19 20  1  0
 19 26  1  0
 20 21  2  0
 20 22  1  0
 22 23  1  0
 23 24  1  0
 24 25  1  0
 25 26  1  0
 26 27  2  0
 27 28  1  0
 28 29  1  0
 29 30  1  6
 31 32  1  0
 32 33  2  0
 34 35  1  0
 34 36  2  0
 37 38  2  0
M  CHG  2   2   1  18   1
M  END
