
     RDKit          3D

 38 42  0  0  0  0  0  0  0  0999 V2000
    4.7040    0.9590    4.7480 C   0  0  0  0  0  0  0  0  0  0  0  0
    5.5790    0.8470    3.5270 C   0  0  0  0  0  0  0  0  0  0  0  0
    4.9960   -0.0790    2.4970 C   0  0  0  0  0  0  0  0  0  0  0  0
    4.1730    0.3700    1.5370 N   0  0  0  0  0  0  0  0  0  0  0  0
    3.6290   -0.4420    0.5890 C   0  0  0  0  0  0  0  0  0  0  0  0
    3.9380   -1.7850    0.6190 C   0  0  0  0  0  0  0  0  0  0  0  0
    4.7850   -2.2130    1.6160 C   0  0  0  0  0  0  0  0  0  0  0  0
    5.0670   -3.4370    1.6430 O   0  0  0  0  0  0  0  0  0  0  0  0
    5.2770   -1.3590    2.5070 O   0  0  0  0  0  0  0  0  0  0  0  0
    3.3450   -2.6650   -0.4210 C   0  0  0  0  0  0  0  0  0  0  0  0
    3.3610   -1.8030   -1.6930 C   0  0  0  0  0  0  0  0  0  0  0  0
    2.3150   -0.7900   -1.4500 N   0  0  2  0  0  0  0  0  0  0  0  0
    2.0440   -0.1110   -2.7240 C   0  0  0  0  0  0  0  0  0  0  0  0
    0.6470    0.3560   -2.7280 C   0  0  0  0  0  0  0  0  0  0  0  0
   -0.2320    0.1760   -1.7360 N   0  0  0  0  0  0  0  0  0  0  0  0
   -1.3960    0.7420   -2.1270 C   0  0  0  0  0  0  0  0  0  0  0  0
   -2.6450    0.7780   -1.3320 C   0  0  2  0  0  0  0  0  0  0  0  0
   -2.5510    1.6520   -0.1280 C   0  0  0  0  0  0  0  0  0  0  0  0
   -2.0060    1.0080    1.1090 C   0  0  0  0  0  0  0  0  0  0  0  0
   -2.5670   -0.3990    1.2880 C   0  0  0  0  0  0  0  0  0  0  0  0
   -3.6560   -0.5200    0.3900 N   0  0  0  0  0  0  0  0  0  0  0  0
   -5.0210   -0.5390    0.4980 C   0  0  0  0  0  0  0  0  0  0  0  0
   -5.6700   -0.7270   -0.6800 O   0  0  0  0  0  0  0  0  0  0  0  0
   -6.0020   -0.4110    1.5470 C   0  0  0  0  0  0  0  0  0  0  0  0
   -7.3220   -0.5770    1.3010 O   0  0  0  0  0  0  0  0  0  0  0  0
   -8.0180   -0.4160    2.3760 C   0  0  0  0  0  0  0  0  0  0  0  0
   -7.1830   -0.1290    3.4140 C   0  0  0  0  0  0  0  0  0  0  0  0
   -5.8940   -0.1300    2.8550 C   0  0  0  0  0  0  0  0  0  0  0  0
   -4.7080    0.1800    3.7040 C   0  0  0  0  0  0  0  0  0  0  0  0
   -3.1420   -0.6190   -1.0420 C   0  0  0  0  0  0  0  0  0  0  0  0
   -1.2470    1.2660   -3.3420 N   0  0  0  0  0  0  0  0  0  0  0  0
    0.0440    1.0390   -3.7570 C   0  0  0  0  0  0  0  0  0  0  0  0
    0.5160    1.4990   -5.0460 C   0  0  0  0  0  0  0  0  0  0  0  0
    1.7010    1.3700   -5.5630 C   0  0  0  0  0  0  0  0  0  0  0  0
    1.9600    1.9240   -6.9090 C   0  0  0  0  0  0  0  0  0  0  0  0
    3.0860    1.8290   -7.4590 O   0  0  0  0  0  0  0  0  0  0  0  0
    0.7090    2.7450   -7.8080 Cl  0  0  0  0  0  0  0  0  0  0  0  0
    2.7260    0.1340   -0.4440 C   0  0  0  0  0  0  0  0  0  0  0  0
  1  2  1  0
  2  3  1  0
  3  4  2  0
  3  9  1  0
  4  5  1  0
  5  6  2  0
  5 38  1  0
  6  7  1  0
  6 10  1  0
  7  8  2  0
  7  9  1  0
 10 11  1  0
 11 12  1  0
 12 13  1  6
 12 38  1  0
 13 14  1  0
 14 15  1  0
 14 32  2  0
 15 16  1  0
 17 16  1  1
 16 31  2  0
 17 18  1  0
 17 30  1  0
 18 19  1  0
 19 20  1  0
 20 21  1  0
 21 22  1  0
 21 30  1  0
 22 23  2  0
 22 24  1  0
 24 25  1  0
 24 28  2  0
 25 26  1  0
 26 27  2  0
 27 28  1  0
 28 29  1  0
 31 32  1  0
 32 33  1  0
 33 34  2  3
 34 35  1  0
 35 36  2  0
 35 37  1  0
M  CHG  2   4   1  12   1
M  END
