
     RDKit          3D

 38 42  0  0  0  0  0  0  0  0999 V2000
   -9.1220   -1.3660    1.4820 C   0  0  0  0  0  0  0  0  0  0  0  0
   -9.2550   -0.0610    0.9040 N   0  0  2  0  0  0  0  0  0  0  0  0
   -9.7600   -0.1070   -0.4550 C   0  0  0  0  0  0  0  0  0  0  0  0
   -8.7320   -0.6460   -1.4160 C   0  0  0  0  0  0  0  0  0  0  0  0
   -7.4890    0.1820   -1.2780 C   0  0  0  0  0  0  0  0  0  0  0  0
   -6.9920    0.2200    0.1450 C   0  0  1  0  0  0  0  0  0  0  0  0
   -5.8140    1.1400    0.1420 C   0  0  0  0  0  0  0  0  0  0  0  0
   -5.9320    2.2420    0.7240 O   0  0  0  0  0  0  0  0  0  0  0  0
   -4.5950    0.8200   -0.4860 N   0  0  0  0  0  0  0  0  0  0  0  0
   -4.2500   -0.3990   -1.1830 C   0  0  0  0  0  0  0  0  0  0  0  0
   -2.7880   -0.5670   -0.7180 C   0  0  0  0  0  0  0  0  0  0  0  0
   -2.2970    0.7760   -0.8290 N   0  0  2  0  0  0  0  0  0  0  0  0
   -1.2360    1.0850    0.1010 C   0  0  0  0  0  0  0  0  0  0  0  0
   -0.3540   -0.1110    0.2260 C   0  0  0  0  0  0  0  0  0  0  0  0
    0.7380    0.0530    1.1070 O   0  0  0  0  0  0  0  0  0  0  0  0
    1.7410    0.9980    0.8710 C   0  0  0  0  0  0  0  0  0  0  0  0
    1.6080    1.6770   -0.1740 O   0  0  0  0  0  0  0  0  0  0  0  0
    2.8820    1.1850    1.7880 C   0  0  0  0  0  0  0  0  0  0  0  0
    3.8300    0.0620    1.7240 N   0  0  0  0  0  0  0  0  0  0  0  0
    3.8270   -0.9910    2.5370 N   0  0  0  0  0  0  0  0  0  0  0  0
    4.8290   -1.8260    2.2420 C   0  0  0  0  0  0  0  0  0  0  0  0
    5.5180   -1.2800    1.1790 C   0  0  0  0  0  0  0  0  0  0  0  0
    6.6340   -1.6860    0.4410 C   0  0  0  0  0  0  0  0  0  0  0  0
    7.1160   -0.9290   -0.5990 C   0  0  0  0  0  0  0  0  0  0  0  0
    8.2280   -1.3380   -1.3280 O   0  0  0  0  0  0  0  0  0  0  0  0
    9.4880   -0.8350   -1.0430 C   0  0  0  0  0  0  0  0  0  0  0  0
    9.6570    0.1490   -0.0890 C   0  0  0  0  0  0  0  0  0  0  0  0
   10.9140    0.6540    0.1940 C   0  0  0  0  0  0  0  0  0  0  0  0
   12.0320    0.2040   -0.4510 C   0  0  0  0  0  0  0  0  0  0  0  0
   13.3020    0.7200   -0.1590 O   0  0  0  0  0  0  0  0  0  0  0  0
   11.8750   -0.7890   -1.4150 C   0  0  0  0  0  0  0  0  0  0  0  0
   13.3140   -1.3530   -2.2400 Cl  0  0  0  0  0  0  0  0  0  0  0  0
   10.6090   -1.2870   -1.6910 C   0  0  0  0  0  0  0  0  0  0  0  0
    6.4480    0.2500   -0.8820 C   0  0  0  0  0  0  0  0  0  0  0  0
    5.3500    0.6470   -0.1530 C   0  0  0  0  0  0  0  0  0  0  0  0
    4.8640   -0.1040    0.8850 C   0  0  0  0  0  0  0  0  0  0  0  0
   -3.3920    1.6610   -0.5850 C   0  0  0  0  0  0  0  0  0  0  0  0
   -8.0750    0.7310    1.0380 C   0  0  0  0  0  0  0  0  0  0  0  0
  2  1  1  6
  2  3  1  0
  2 38  1  0
  3  4  1  0
  4  5  1  0
  5  6  1  0
  6  7  1  6
  6 38  1  0
  7  8  2  0
  7  9  1  0
  9 10  1  0
  9 37  1  0
 10 11  1  0
 11 12  1  0
 12 13  1  1
 12 37  1  0
 13 14  1  0
 14 15  1  0
 15 16  1  0
 16 17  2  0
 16 18  1  0
 18 19  1  0
 19 20  1  0
 19 36  1  0
 20 21  2  0
 21 22  1  0
 22 23  2  0
 22 36  1  0
 23 24  1  0
 24 25  1  0
 24 34  2  0
 25 26  1  0
 26 27  2  0
 26 33  1  0
 27 28  1  0
 28 29  2  0
 29 30  1  0
 29 31  1  0
 31 32  1  0
 31 33  2  0
 34 35  1  0
 35 36  2  0
M  CHG  2   2   1  12   1
M  END
