
     RDKit          3D

 38 41  0  0  0  0  0  0  0  0999 V2000
   -4.2320   -2.8330   -1.4930 C   0  0  0  0  0  0  0  0  0  0  0  0
   -3.5790   -1.4350   -1.3930 C   0  0  1  0  0  0  0  0  0  0  0  0
   -4.5740   -0.5000   -2.0030 C   0  0  0  0  0  0  0  0  0  0  0  0
   -3.2140   -1.2490    0.0090 C   0  0  0  0  0  0  0  0  0  0  0  0
   -2.5870   -0.0570    0.4470 N   0  0  0  0  0  0  0  0  0  0  0  0
   -1.7020    0.5600   -0.4700 C   0  0  0  0  0  0  0  0  0  0  0  0
   -0.3990    1.0680    0.0330 C   0  0  1  0  0  0  0  0  0  0  0  0
   -0.4680    2.0440    1.0150 O   0  0  0  0  0  0  0  0  0  0  0  0
    0.6440    0.0210    0.3330 C   0  0  2  0  0  0  0  0  0  0  0  0
    0.2810   -0.7690    1.5620 C   0  0  0  0  0  0  0  0  0  0  0  0
    1.3020   -1.7940    1.8590 C   0  0  0  0  0  0  0  0  0  0  0  0
    1.2080   -3.0580    1.3280 C   0  0  0  0  0  0  0  0  0  0  0  0
    2.1730   -4.0330    1.6070 C   0  0  0  0  0  0  0  0  0  0  0  0
    3.2380   -3.7090    2.4320 C   0  0  0  0  0  0  0  0  0  0  0  0
    3.3490   -2.4460    2.9740 C   0  0  0  0  0  0  0  0  0  0  0  0
    2.3650   -1.4960    2.6730 C   0  0  0  0  0  0  0  0  0  0  0  0
    1.9710    0.5880    0.4070 N   0  0  0  0  0  0  0  0  0  0  0  0
    3.0140    0.2450   -0.4790 C   0  0  0  0  0  0  0  0  0  0  0  0
    2.7550   -0.5990   -1.3720 O   0  0  0  0  0  0  0  0  0  0  0  0
    4.2910    0.7600   -0.4430 O   0  0  0  0  0  0  0  0  0  0  0  0
    5.2990    0.3740   -1.3660 C   0  0  1  0  0  0  0  0  0  0  0  0
    5.9050    1.5580   -2.0820 C   0  0  0  0  0  0  0  0  0  0  0  0
    7.2080    1.2210   -2.3920 O   0  0  0  0  0  0  0  0  0  0  0  0
    7.6220    0.2020   -1.5870 C   0  0  1  0  0  0  0  0  0  0  0  0
    8.6940    0.6160   -0.8200 O   0  0  0  0  0  0  0  0  0  0  0  0
    8.2310    1.0230    0.4000 C   0  0  0  0  0  0  0  0  0  0  0  0
    6.8450    0.5270    0.5970 C   0  0  0  0  0  0  0  0  0  0  0  0
    6.5200   -0.1960   -0.6670 C   0  0  1  0  0  0  0  0  0  0  0  0
   -3.5990    0.9750    1.3180 S   0  0  2  0  0  0  0  0  0  0  0  0
   -2.9000    2.1330    1.9560 O   0  0  0  0  0  0  0  0  0  0  0  0
   -4.1320    0.1570    2.4970 O   0  0  0  0  0  0  0  0  0  0  0  0
   -4.9860    1.5920    0.4990 C   0  0  0  0  0  0  0  0  0  0  0  0
   -4.8890    2.7380   -0.2900 C   0  0  0  0  0  0  0  0  0  0  0  0
   -5.9980    3.2380   -0.9320 C   0  0  0  0  0  0  0  0  0  0  0  0
   -7.2360    2.6480   -0.8310 C   0  0  0  0  0  0  0  0  0  0  0  0
   -8.3590    3.2000   -1.5130 N   0  0  0  0  0  0  0  0  0  0  0  0
   -7.3290    1.5210   -0.0540 C   0  0  0  0  0  0  0  0  0  0  0  0
   -6.2430    1.0110    0.5880 C   0  0  0  0  0  0  0  0  0  0  0  0
  2  1  1  1
  2  3  1  0
  2  4  1  0
  4  5  1  0
  5  6  1  0
 29  5  1  6
  6  7  1  0
  7  8  1  1
  7  9  1  0
  9 10  1  1
  9 17  1  0
 10 11  1  0
 11 12  2  0
 11 16  1  0
 12 13  1  0
 13 14  2  0
 14 15  1  0
 15 16  2  0
 17 18  1  0
 18 19  2  0
 18 20  1  0
 21 20  1  1
 21 22  1  0
 21 28  1  0
 22 23  1  0
 24 23  1  6
 24 25  1  0
 24 28  1  0
 25 26  1  0
 26 27  1  0
 28 27  1  1
 29 30  2  0
 29 31  2  0
 29 32  1  0
 32 33  2  0
 32 38  1  0
 33 34  1  0
 34 35  2  0
 35 36  1  0
 35 37  1  0
 37 38  2  0
M  END
