
     RDKit          3D

 38 43  0  0  0  0  0  0  0  0999 V2000
    9.9370    1.2340   -0.8800 C   0  0  0  0  0  0  0  0  0  0  0  0
    8.4500    1.0950   -1.1990 C   0  0  0  0  0  0  0  0  0  0  0  0
    7.8520    2.3100   -1.0080 O   0  0  0  0  0  0  0  0  0  0  0  0
    6.5040    2.3800   -1.2490 C   0  0  0  0  0  0  0  0  0  0  0  0
    5.7070    1.4870   -0.3530 C   0  0  0  0  0  0  0  0  0  0  0  0
    6.1550    0.7100    0.5790 O   0  0  0  0  0  0  0  0  0  0  0  0
    5.1980    0.0610    1.1820 C   0  0  0  0  0  0  0  0  0  0  0  0
    5.3730   -0.8570    2.2340 O   0  0  0  0  0  0  0  0  0  0  0  0
    5.4620   -2.2320    1.8750 C   0  0  0  0  0  0  0  0  0  0  0  0
    4.0130    0.4400    0.6010 C   0  0  0  0  0  0  0  0  0  0  0  0
    2.6430   -0.0070    0.9440 C   0  0  0  0  0  0  0  0  0  0  0  0
    1.5420    0.3930    0.2850 N   0  0  0  0  0  0  0  0  0  0  0  0
    0.4280   -0.1820    0.8120 C   0  0  0  0  0  0  0  0  0  0  0  0
   -0.9120   -0.1050    0.5070 C   0  0  0  0  0  0  0  0  0  0  0  0
   -1.8140   -0.8280    1.2450 C   0  0  0  0  0  0  0  0  0  0  0  0
   -1.3390   -1.5910    2.2500 N   0  0  0  0  0  0  0  0  0  0  0  0
   -0.0370   -1.6850    2.5690 C   0  0  0  0  0  0  0  0  0  0  0  0
    0.8860   -0.9650    1.8380 C   0  0  0  0  0  0  0  0  0  0  0  0
    2.2390   -0.8460    1.9040 N   0  0  0  0  0  0  0  0  0  0  0  0
   -3.2030   -0.5930    0.7360 C   0  0  2  0  0  0  0  0  0  0  0  0
   -3.7490   -1.8100    0.2200 N   0  0  0  0  0  0  0  0  0  0  0  0
   -5.1100   -1.6890   -0.2090 C   0  0  0  0  0  0  0  0  0  0  0  0
   -6.0880   -2.1130    0.8670 C   0  0  2  0  0  0  0  0  0  0  0  0
   -7.4080   -1.9710    0.3580 O   0  0  0  0  0  0  0  0  0  0  0  0
   -7.5770   -0.5750    0.2710 C   0  0  0  0  0  0  0  0  0  0  0  0
   -8.3760    0.2330   -0.5290 C   0  0  0  0  0  0  0  0  0  0  0  0
   -8.3270    1.6060   -0.3840 C   0  0  0  0  0  0  0  0  0  0  0  0
   -7.4900    2.1740    0.5500 C   0  0  0  0  0  0  0  0  0  0  0  0
   -6.6890    1.4030    1.3540 C   0  0  0  0  0  0  0  0  0  0  0  0
   -6.7450    0.0130    1.2010 C   0  0  0  0  0  0  0  0  0  0  0  0
   -6.0880   -1.0490    1.8310 O   0  0  0  0  0  0  0  0  0  0  0  0
   -3.0500    0.5130   -0.2470 C   0  0  0  0  0  0  0  0  0  0  0  0
   -1.5990    0.6780   -0.5480 C   0  0  2  0  0  0  0  0  0  0  0  0
   -1.2340    0.3350   -1.8830 N   0  0  1  0  0  0  0  0  0  0  0  0
   -0.0430    1.0090   -2.3100 C   0  0  0  0  0  0  0  0  0  0  0  0
   -1.0450   -1.0840   -2.0980 C   0  0  0  0  0  0  0  0  0  0  0  0
    4.3370    1.3510   -0.3800 C   0  0  0  0  0  0  0  0  0  0  0  0
    3.2400    2.1820   -1.4560 Cl  0  0  0  0  0  0  0  0  0  0  0  0
  1  2  1  0
  2  3  1  0
  3  4  1  0
  4  5  1  0
  5  6  1  0
  5 37  2  0
  6  7  1  0
  7  8  1  0
  7 10  2  0
  8  9  1  0
 10 11  1  0
 10 37  1  0
 11 12  2  0
 11 19  1  0
 12 13  1  0
 13 14  2  0
 13 18  1  0
 14 15  1  0
 14 33  1  0
 15 16  2  0
 15 20  1  0
 16 17  1  0
 17 18  2  0
 18 19  1  0
 20 21  1  6
 20 32  1  0
 21 22  1  0
 23 22  1  6
 23 24  1  0
 23 31  1  0
 24 25  1  0
 25 26  2  0
 25 30  1  0
 26 27  1  0
 27 28  2  0
 28 29  1  0
 29 30  2  0
 30 31  1  0
 33 32  1  6
 33 34  1  0
 34 35  1  1
 34 36  1  0
 37 38  1  0
M  CHG  2  21   1  34   1
M  END
