
     RDKit          3D

 37 42  0  0  0  0  0  0  0  0999 V2000
    7.5300    1.5530    0.9540 C   0  0  0  0  0  0  0  0  0  0  0  0
    8.3180    1.2050   -0.1870 N   0  0  0  0  0  0  0  0  0  0  0  0
    8.6650   -0.1910   -0.2670 C   0  0  0  0  0  0  0  0  0  0  0  0
    7.6940   -1.0160   -1.0690 C   0  0  0  0  0  0  0  0  0  0  0  0
    6.3620   -0.9420   -0.4290 C   0  0  0  0  0  0  0  0  0  0  0  0
    5.9970   -1.8430    0.5810 C   0  0  0  0  0  0  0  0  0  0  0  0
    4.7550   -1.7940    1.1800 C   0  0  0  0  0  0  0  0  0  0  0  0
    3.8200   -0.8540    0.8070 C   0  0  0  0  0  0  0  0  0  0  0  0
    4.1550    0.0410   -0.1830 C   0  0  0  0  0  0  0  0  0  0  0  0
    3.2860    1.0130   -0.6190 O   0  0  0  0  0  0  0  0  0  0  0  0
    1.9530    0.9510   -0.3070 C   0  0  0  0  0  0  0  0  0  0  0  0
    1.4820    1.9430    0.5600 C   0  0  0  0  0  0  0  0  0  0  0  0
    0.1570    1.9720    0.9340 C   0  0  0  0  0  0  0  0  0  0  0  0
   -0.6910    0.9950    0.4290 C   0  0  0  0  0  0  0  0  0  0  0  0
   -0.2210    0.0140   -0.4290 C   0  0  0  0  0  0  0  0  0  0  0  0
    1.1410   -0.0270   -0.8240 C   0  0  0  0  0  0  0  0  0  0  0  0
    1.4950   -1.0240   -1.6720 O   0  0  0  0  0  0  0  0  0  0  0  0
    1.8750   -2.3260   -1.5310 C   0  0  0  0  0  0  0  0  0  0  0  0
    0.9260   -3.1330   -0.8860 O   0  0  0  0  0  0  0  0  0  0  0  0
   -1.0790   -0.9660   -0.9340 O   0  0  0  0  0  0  0  0  0  0  0  0
   -2.4360   -0.9420   -0.5520 C   0  0  0  0  0  0  0  0  0  0  0  0
   -3.4890   -1.6620   -0.8250 N   0  0  0  0  0  0  0  0  0  0  0  0
   -4.6250   -1.1320   -0.1490 N   0  0  0  0  0  0  0  0  0  0  0  0
   -5.8870   -1.7920   -0.4820 C   0  0  0  0  0  0  0  0  0  0  0  0
   -6.6640   -0.7520   -1.2720 C   0  0  0  0  0  0  0  0  0  0  0  0
   -7.6390   -0.0360   -0.5390 N   0  0  1  0  0  0  0  0  0  0  0  0
   -8.2970   -1.0100    0.3560 C   0  0  0  0  0  0  0  0  0  0  0  0
   -7.2310    1.0450    0.2750 C   0  0  0  0  0  0  0  0  0  0  0  0
   -6.0200    1.8180   -0.1500 C   0  0  0  0  0  0  0  0  0  0  0  0
   -4.8320    1.2580    0.4620 N   0  0  0  0  0  0  0  0  0  0  0  0
   -4.0440    2.3520    0.9930 C   0  0  0  0  0  0  0  0  0  0  0  0
   -4.5080    3.4970    0.8590 O   0  0  0  0  0  0  0  0  0  0  0  0
   -2.7060    2.0960    1.6830 C   0  0  0  0  0  0  0  0  0  0  0  0
   -2.0790    1.0440    0.8500 C   0  0  0  0  0  0  0  0  0  0  0  0
   -2.8360    0.0950    0.3500 C   0  0  0  0  0  0  0  0  0  0  0  0
   -4.2670   -0.0430    0.6760 C   0  0  2  0  0  0  0  0  0  0  0  0
    5.4180   -0.0110   -0.7900 C   0  0  0  0  0  0  0  0  0  0  0  0
  1  2  1  0
  2  3  1  0
  3  4  1  0
  4  5  1  0
  5  6  2  0
  5 37  1  0
  6  7  1  0
  7  8  2  0
  8  9  1  0
  9 10  1  0
  9 37  2  0
 10 11  1  0
 11 12  2  0
 11 16  1  0
 12 13  1  0
 13 14  2  0
 14 15  1  0
 14 34  1  0
 15 16  2  0
 15 20  1  0
 16 17  1  0
 17 18  1  0
 18 19  1  0
 20 21  1  0
 21 22  2  0
 21 35  1  0
 22 23  1  0
 23 24  1  0
 36 23  1  6
 24 25  1  0
 25 26  1  0
 26 27  1  1
 26 28  1  0
 28 29  1  0
 29 30  1  0
 30 31  1  0
 30 36  1  0
 31 32  2  0
 31 33  1  0
 33 34  1  0
 34 35  2  0
 35 36  1  0
M  CHG  2   2   1  26   1
M  END
