
     RDKit          3D

 13 14  0  0  0  0  0  0  0  0999 V2000
   -2.0520    1.3120    0.2000 C   0  0  0  0  0  0  0  0  0  0  0  0
   -1.1380    0.0410    0.0160 C   0  0  2  0  0  0  0  0  0  0  0  0
   -1.9060   -1.1170    0.6540 C   0  0  0  0  0  0  0  0  0  0  0  0
   -1.8840   -0.6250    2.0880 C   0  0  0  0  0  0  0  0  0  0  0  0
   -0.8060    0.1040    2.2790 C   0  0  0  0  0  0  0  0  0  0  0  0
   -0.0330    0.1430    0.9660 C   0  0  0  0  0  0  0  0  0  0  0  0
    1.2180    0.1690    0.7850 N   0  0  0  0  0  0  0  0  0  0  0  0
    1.9090    0.0930   -0.4150 N   0  0  0  0  0  0  0  0  0  0  0  0
    3.3440    0.1400   -0.4840 C   0  0  0  0  0  0  0  0  0  0  0  0
    3.8090    0.0410   -1.8520 N   0  0  0  0  0  0  0  0  0  0  0  0
    0.7910   -0.0670   -1.8040 P   0  0  0  0  0  0  0  0  0  0  0  0
   -0.8050   -0.0800   -1.3690 C   0  0  0  0  0  0  0  0  0  0  0  0
   -1.8310   -0.2120   -2.3650 O   0  0  0  0  0  0  0  0  0  0  0  0
  2  1  1  6
  2  3  1  0
  2  6  1  0
  2 12  1  0
  3  4  1  0
  4  5  2  0
  5  6  1  0
  6  7  2  0
  7  8  1  0
  8  9  1  0
  8 11  1  0
  9 10  1  0
 11 12  2  0
 12 13  1  0
M  END
