
     RDKit          3D

 11 10  0  0  0  0  0  0  0  0999 V2000
   -1.4310    1.8970   -1.3170 O   0  0  0  0  0  0  0  0  0  0  0  0
   -1.8510    1.3280   -0.2840 C   0  0  0  0  0  0  0  0  0  0  0  0
   -2.7710    2.0050    0.4960 O   0  0  0  0  0  0  0  0  0  0  0  0
   -1.4180   -0.0230    0.1460 C   0  0  2  0  0  0  0  0  0  0  0  0
   -2.0300   -0.4230    1.3200 O   0  0  0  0  0  0  0  0  0  0  0  0
   -2.6730   -1.5590    1.1920 O   0  0  0  0  0  0  0  0  0  0  0  0
   -0.0410    0.0150    0.3890 O   0  0  0  0  0  0  0  0  0  0  0  0
    0.6510   -0.8710   -0.4170 C   0  0  0  0  0  0  0  0  0  0  0  0
    2.1270   -0.7310   -0.0540 C   0  0  0  0  0  0  0  0  0  0  0  0
    2.4880    0.5830   -0.3030 O   0  0  0  0  0  0  0  0  0  0  0  0
    3.7450    0.8100   -0.0230 O   0  0  0  0  0  0  0  0  0  0  0  0
  1  2  2  0
  2  3  1  0
  2  4  1  0
  4  5  1  1
  4  7  1  0
  5  6  1  0
  7  8  1  0
  8  9  1  0
  9 10  1  0
 10 11  1  0
M  END
