
     RDKit          3D

 11 10  0  0  0  0  0  0  0  0999 V2000
   -2.5420   -1.5980   -0.9700 O   0  0  0  0  0  0  0  0  0  0  0  0
   -2.3260   -0.6050   -0.1770 C   0  0  0  0  0  0  0  0  0  0  0  0
   -3.4590    0.2650    0.0930 C   0  0  0  0  0  0  0  0  0  0  0  0
   -3.0540    1.5240    0.5830 O   0  0  0  0  0  0  0  0  0  0  0  0
   -1.0430   -0.4060    0.3020 O   0  0  0  0  0  0  0  0  0  0  0  0
   -0.0920   -1.1640   -0.1450 O   0  0  0  0  0  0  0  0  0  0  0  0
    1.1420   -1.0870    0.3660 C   0  0  0  0  0  0  0  0  0  0  0  0
    2.0980   -0.5330   -0.7390 C   0  0  0  0  0  0  0  0  0  0  0  0
    1.7430    0.8320   -0.8620 O   0  0  0  0  0  0  0  0  0  0  0  0
    2.5550    1.4350   -0.0490 O   0  0  0  0  0  0  0  0  0  0  0  0
    3.5310    2.0170   -0.5810 O   0  0  0  0  0  0  0  0  0  0  0  0
  1  2  2  0
  2  3  1  0
  2  5  1  0
  3  4  1  0
  5  6  1  0
  6  7  1  0
  7  8  1  0
  8  9  1  0
  9 10  1  0
 10 11  1  0
M  END
