
     RDKit          3D

 13 14  0  0  0  0  0  0  0  0999 V2000
    3.6160   -0.3320   -0.4040 C   0  0  0  0  0  0  0  0  0  0  0  0
    2.7810    0.2880    0.7430 C   0  0  0  0  0  0  0  0  0  0  0  0
    1.5310   -0.3360    0.6210 O   0  0  0  0  0  0  0  0  0  0  0  0
    0.5730    0.4980    0.3600 N   0  0  0  0  0  0  0  0  0  0  0  0
    0.7700    1.8730    0.2700 N   0  0  0  0  0  0  0  0  0  0  0  0
    0.0910    2.4170   -0.7520 O   0  0  0  0  0  0  0  0  0  0  0  0
   -1.2950    2.2460   -0.6550 C   0  0  0  0  0  0  0  0  0  0  0  0
   -1.6040    0.8280   -0.6920 N   0  0  0  0  0  0  0  0  0  0  0  0
   -2.5620   -0.0730   -1.2940 C   0  0  0  0  0  0  0  0  0  0  0  0
   -2.7120   -1.1350   -0.2170 C   0  0  0  0  0  0  0  0  0  0  0  0
   -1.2940   -1.1870    0.3500 C   0  0  0  0  0  0  0  0  0  0  0  0
   -0.6450   -2.2920    1.0720 C   0  0  0  0  0  0  0  0  0  0  0  0
   -0.7790    0.0200    0.0840 C   0  0  0  0  0  0  0  0  0  0  0  0
  1  2  1  0
  2  3  1  0
  3  4  1  0
  4  5  1  0
  4 13  1  0
  5  6  1  0
  6  7  1  0
  7  8  1  0
  8  9  1  0
  8 13  1  0
  9 10  1  0
 10 11  1  0
 11 12  1  0
 11 13  2  0
M  END
