
     RDKit          3D

 13 13  0  0  0  0  0  0  0  0999 V2000
    1.2400   -1.7700   -0.4070 C   0  0  0  0  0  0  0  0  0  0  0  0
    0.8560   -0.6340    0.0990 C   0  0  0  0  0  0  0  0  0  0  0  0
    1.8680    0.0810    0.8570 N   0  0  0  0  0  0  0  0  0  0  0  0
    2.7480    0.7530    0.1940 C   0  0  0  0  0  0  0  0  0  0  0  0
    3.8030    1.5000    0.9190 C   0  0  0  0  0  0  0  0  0  0  0  0
   -0.4970   -0.0500   -0.0070 C   0  0  0  0  0  0  0  0  0  0  0  0
   -0.4890    1.3050   -0.1260 N   0  0  0  0  0  0  0  0  0  0  0  0
   -1.5180    2.0740   -0.2210 O   0  0  0  0  0  0  0  0  0  0  0  0
   -2.9940    1.3280   -0.1960 P   0  0  0  0  0  0  0  0  0  0  0  0
   -4.4980    2.0120   -0.7190 O   0  0  0  0  0  0  0  0  0  0  0  0
   -2.8630   -0.3540   -0.0440 N   0  0  0  0  0  0  0  0  0  0  0  0
   -1.5890   -0.8450    0.0350 C   0  0  0  0  0  0  0  0  0  0  0  0
   -1.5400   -2.3400    0.2120 C   0  0  0  0  0  0  0  0  0  0  0  0
  1  2  2  0
  2  3  1  0
  2  6  1  0
  3  4  2  3
  4  5  1  0
  6  7  1  0
  6 12  2  0
  7  8  1  0
  8  9  1  0
  9 10  1  0
  9 11  1  0
 11 12  1  0
 12 13  1  0
M  END
