
     RDKit          3D

  8  8  0  0  0  0  0  0  0  0999 V2000
   -0.8670    1.4210   -0.0380 C   0  0  0  0  0  0  0  0  0  0  0  0
   -0.4010    0.0330   -0.4380 C   0  0  1  0  0  0  0  0  0  0  0  0
   -1.3340   -0.9760    0.2220 C   0  0  0  0  0  0  0  0  0  0  0  0
   -0.5350   -0.1740   -1.8020 O   0  0  0  0  0  0  0  0  0  0  0  0
    0.4470   -1.6330   -1.8960 S   0  0  0  0  0  0  0  0  0  0  0  0
    1.6330   -1.0430   -0.6960 C   0  0  0  0  0  0  0  0  0  0  0  0
    0.9870   -0.1410    0.0040 C   0  0  0  0  0  0  0  0  0  0  0  0
    1.6000    0.6040    1.1020 N   0  0  0  0  0  0  0  0  0  0  0  0
  2  1  1  6
  2  3  1  0
  2  4  1  0
  2  7  1  0
  4  5  1  0
  5  6  1  0
  6  7  2  0
  7  8  1  0
M  END
