
     RDKit          3D

  8  8  0  0  0  0  0  0  0  0999 V2000
    2.4020   -0.7590    0.1500 C   0  0  0  0  0  0  0  0  0  0  0  0
    1.4960    0.1890    0.0720 C   0  0  0  0  0  0  0  0  0  0  0  0
    0.0640   -0.0920   -0.1230 C   0  0  0  0  0  0  0  0  0  0  0  0
   -0.8120    0.8850   -0.1960 C   0  0  0  0  0  0  0  0  0  0  0  0
   -0.6560    2.2820   -0.1220 N   0  0  0  0  0  0  0  0  0  0  0  0
   -2.3980    0.0840   -0.4170 S   0  0  0  0  0  0  0  0  0  0  0  0
   -1.7470   -1.5840    0.0340 C   0  0  0  0  0  0  0  0  0  0  0  0
   -0.4110   -1.3500   -0.2340 O   0  0  0  0  0  0  0  0  0  0  0  0
  1  2  2  0
  2  3  1  0
  3  4  2  0
  3  8  1  0
  4  5  1  0
  4  6  1  0
  6  7  1  0
  7  8  1  0
M  END
