
     RDKit          3D

  8  8  0  0  0  0  0  0  0  0999 V2000
    2.3880   -1.9120   -1.5370 S   0  0  0  0  0  0  0  0  0  0  0  0
    2.0630   -0.3600   -1.2030 C   0  0  0  0  0  0  0  0  0  0  0  0
    0.8630    0.0250   -0.4890 C   0  0  0  0  0  0  0  0  0  0  0  0
    0.5610    1.2840   -0.1970 C   0  0  0  0  0  0  0  0  0  0  0  0
   -0.5960    1.6350    0.4890 O   0  0  0  0  0  0  0  0  0  0  0  0
   -1.2760    0.6210    1.2080 C   0  0  0  0  0  0  0  0  0  0  0  0
   -1.4010   -0.5560    0.2490 C   0  0  0  0  0  0  0  0  0  0  0  0
   -0.0540   -0.9730   -0.0690 N   0  0  0  0  0  0  0  0  0  0  0  0
  1  2  2  0
  2  3  1  0
  3  4  2  0
  3  8  1  0
  4  5  1  0
  5  6  1  0
  6  7  1  0
  7  8  1  0
M  END
