
     RDKit          3D

  8  8  0  0  0  0  0  0  0  0999 V2000
    3.2040    0.9640   -0.2470 C   0  0  0  0  0  0  0  0  0  0  0  0
    2.0750    0.5100   -0.2350 C   0  0  0  0  0  0  0  0  0  0  0  0
    0.7710   -0.0300   -0.2310 C   0  0  0  0  0  0  0  0  0  0  0  0
   -0.3730    0.5500   -0.0050 C   0  0  0  0  0  0  0  0  0  0  0  0
   -0.4270    1.9310    0.2930 O   0  0  0  0  0  0  0  0  0  0  0  0
   -1.5150   -0.2390   -0.0710 N   0  0  0  0  0  0  0  0  0  0  0  0
   -1.3110   -1.6610    0.1050 C   0  0  0  0  0  0  0  0  0  0  0  0
    0.4130   -1.7480   -0.5470 S   0  0  0  0  0  0  0  0  0  0  0  0
  1  2  3  0
  2  3  1  0
  3  4  2  0
  3  8  1  0
  4  5  1  0
  4  6  1  0
  6  7  1  0
  7  8  1  0
M  END
