
     RDKit          3D

 37 40  0  0  0  0  0  0  0  0999 V2000
   -4.3530    0.4130   -3.0840 C   0  0  0  0  0  0  0  0  0  0  0  0
   -4.6140    1.8090   -2.6650 C   0  0  0  0  0  0  0  0  0  0  0  0
   -5.2810    1.8510   -1.3440 C   0  0  0  0  0  0  0  0  0  0  0  0
   -6.4910    2.2710   -1.2160 N   0  0  0  0  0  0  0  0  0  0  0  0
   -6.8590    2.1990    0.1620 C   0  0  2  0  0  0  0  0  0  0  0  0
   -7.0720    3.5620    0.6280 N   0  0  0  0  0  0  0  0  0  0  0  0
   -6.5590    3.7380    2.3110 S   0  0  0  0  0  0  0  0  0  0  0  0
   -5.0570    3.7170    2.4140 O   0  0  0  0  0  0  0  0  0  0  0  0
   -5.6570    1.6710    0.8270 C   0  0  0  0  0  0  0  0  0  0  0  0
   -4.6890    1.4540   -0.0870 C   0  0  0  0  0  0  0  0  0  0  0  0
   -3.4210    1.0050    0.3030 N   0  0  0  0  0  0  0  0  0  0  0  0
   -2.9040   -0.2910    0.0730 C   0  0  0  0  0  0  0  0  0  0  0  0
   -3.5840   -1.1480   -0.5020 O   0  0  0  0  0  0  0  0  0  0  0  0
   -1.5880   -0.6560    0.4910 N   0  0  0  0  0  0  0  0  0  0  0  0
   -1.0550   -1.9460    0.2690 C   0  0  0  0  0  0  0  0  0  0  0  0
   -1.5960   -3.0380   -0.3300 C   0  0  0  0  0  0  0  0  0  0  0  0
   -0.6910   -4.1030   -0.3200 C   0  0  0  0  0  0  0  0  0  0  0  0
   -0.7060   -5.3990   -0.7710 C   0  0  0  0  0  0  0  0  0  0  0  0
    0.4000   -6.2240   -0.5950 C   0  0  0  0  0  0  0  0  0  0  0  0
    0.3550   -7.5090   -1.0550 F   0  0  0  0  0  0  0  0  0  0  0  0
    1.5240   -5.7330    0.0390 C   0  0  0  0  0  0  0  0  0  0  0  0
    1.5180   -4.4280    0.4850 C   0  0  0  0  0  0  0  0  0  0  0  0
    0.4200   -3.6100    0.3100 C   0  0  0  0  0  0  0  0  0  0  0  0
    0.1840   -2.3320    0.6510 N   0  0  0  0  0  0  0  0  0  0  0  0
    1.0990   -1.4730    1.3250 C   0  0  0  0  0  0  0  0  0  0  0  0
    0.9870   -1.2470    2.6880 C   0  0  0  0  0  0  0  0  0  0  0  0
    1.8530   -0.4240    3.3740 C   0  0  0  0  0  0  0  0  0  0  0  0
    2.8650    0.1840    2.6290 C   0  0  0  0  0  0  0  0  0  0  0  0
    3.8300    1.0820    3.3050 C   0  0  0  0  0  0  0  0  0  0  0  0
    2.9890   -0.0290    1.2760 C   0  0  0  0  0  0  0  0  0  0  0  0
    4.0320    0.6120    0.5720 N   0  0  0  0  0  0  0  0  0  0  0  0
    4.2480    0.4530   -0.8480 C   0  0  0  0  0  0  0  0  0  0  0  0
    5.4390    1.2600   -1.3210 C   0  0  2  0  0  0  0  0  0  0  0  0
    5.6680    1.0990   -2.8000 C   0  0  0  0  0  0  0  0  0  0  0  0
    6.6650    0.6820   -0.6110 C   0  0  0  0  0  0  0  0  0  0  0  0
    5.3160    2.7110   -0.9950 C   0  0  0  0  0  0  0  0  0  0  0  0
    2.1040   -0.8490    0.6720 N   0  0  0  0  0  0  0  0  0  0  0  0
  1  2  1  0
  2  3  1  0
  3  4  2  0
  3 10  1  0
  4  5  1  0
  5  6  1  1
  5  9  1  0
  6  7  1  0
  7  8  2  0
  9 10  2  0
 10 11  1  0
 11 12  1  0
 12 13  2  0
 12 14  1  0
 14 15  1  0
 15 16  2  0
 15 24  1  0
 16 17  1  0
 17 18  2  0
 17 23  1  0
 18 19  1  0
 19 20  1  0
 19 21  2  0
 21 22  1  0
 22 23  2  0
 23 24  1  0
 24 25  1  0
 25 26  2  0
 25 37  1  0
 26 27  1  0
 27 28  2  0
 28 29  1  0
 28 30  1  0
 30 31  1  0
 30 37  2  0
 31 32  1  0
 32 33  1  0
 33 34  1  6
 33 35  1  0
 33 36  1  0
M  CHG  1   6   1
M  END
