
     RDKit          3D

 36 39  0  0  0  0  0  0  0  0999 V2000
   10.9710    1.4680    1.3730 C   0  0  0  0  0  0  0  0  0  0  0  0
    9.7150    1.4990    1.7920 C   0  0  0  0  0  0  0  0  0  0  0  0
    8.7490    0.4030    1.5250 C   0  0  0  0  0  0  0  0  0  0  0  0
    7.6550    0.9100    0.7860 O   0  0  0  0  0  0  0  0  0  0  0  0
    6.5860    0.1200    0.3830 C   0  0  0  0  0  0  0  0  0  0  0  0
    6.5500   -1.2260    0.7010 C   0  0  0  0  0  0  0  0  0  0  0  0
    5.5120   -2.0470    0.3230 C   0  0  0  0  0  0  0  0  0  0  0  0
    5.5710   -3.4780    0.7160 C   0  0  0  0  0  0  0  0  0  0  0  0
    4.4350   -1.5320   -0.4130 C   0  0  0  0  0  0  0  0  0  0  0  0
    3.4570   -2.3800   -0.7520 O   0  0  0  0  0  0  0  0  0  0  0  0
    2.2750   -2.2870   -1.4370 C   0  0  0  0  0  0  0  0  0  0  0  0
    1.2430   -1.3900   -0.9100 C   0  0  0  0  0  0  0  0  0  0  0  0
    0.5460   -1.7040    0.2290 C   0  0  0  0  0  0  0  0  0  0  0  0
   -0.4430   -0.8840    0.7380 C   0  0  0  0  0  0  0  0  0  0  0  0
   -0.7650    0.3140    0.0900 C   0  0  0  0  0  0  0  0  0  0  0  0
   -1.8140    1.1920    0.6510 C   0  0  0  0  0  0  0  0  0  0  0  0
   -3.1950    0.8160    0.2800 C   0  0  0  0  0  0  0  0  0  0  0  0
   -4.0310    0.1580    1.1920 C   0  0  0  0  0  0  0  0  0  0  0  0
   -5.3150   -0.2140    0.9160 C   0  0  0  0  0  0  0  0  0  0  0  0
   -5.7980    0.0850   -0.3400 C   0  0  0  0  0  0  0  0  0  0  0  0
   -5.0110    0.7300   -1.2660 C   0  0  0  0  0  0  0  0  0  0  0  0
   -3.6980    1.1040   -0.9670 C   0  0  0  0  0  0  0  0  0  0  0  0
   -2.9290    1.7610   -1.9390 O   0  0  0  0  0  0  0  0  0  0  0  0
   -3.4860    2.0360   -3.2050 C   0  0  0  0  0  0  0  0  0  0  0  0
   -7.1650   -0.2320   -0.8380 C   0  0  0  0  0  0  0  0  0  0  0  0
   -8.1410   -0.4010    0.3170 C   0  0  2  0  0  0  0  0  0  0  0  0
   -9.4590   -0.0530   -0.2290 N   0  0  0  0  0  0  0  0  0  0  0  0
   -7.8700    0.5290    1.4440 C   0  0  0  0  0  0  0  0  0  0  0  0
   -7.0760   -0.0310    2.5040 N   0  0  0  0  0  0  0  0  0  0  0  0
   -6.0180   -0.8970    2.0380 C   0  0  0  0  0  0  0  0  0  0  0  0
   -0.0590    0.6150   -1.0490 C   0  0  0  0  0  0  0  0  0  0  0  0
    0.9260   -0.2210   -1.5380 C   0  0  0  0  0  0  0  0  0  0  0  0
    4.4960   -0.1950   -0.7140 C   0  0  0  0  0  0  0  0  0  0  0  0
    5.5460    0.6320   -0.3310 C   0  0  0  0  0  0  0  0  0  0  0  0
    5.5710    1.9790   -0.6550 O   0  0  0  0  0  0  0  0  0  0  0  0
    4.4800    2.4990   -1.4000 C   0  0  0  0  0  0  0  0  0  0  0  0
  1  2  2  0
  2  3  1  0
  3  4  1  0
  4  5  1  0
  5  6  2  0
  5 34  1  0
  6  7  1  0
  7  8  1  0
  7  9  2  0
  9 10  1  0
  9 33  1  0
 10 11  1  0
 11 12  1  0
 12 13  2  0
 12 32  1  0
 13 14  1  0
 14 15  2  0
 15 16  1  0
 15 31  1  0
 16 17  1  0
 17 18  2  0
 17 22  1  0
 18 19  1  0
 19 20  2  0
 19 30  1  0
 20 21  1  0
 20 25  1  0
 21 22  2  0
 22 23  1  0
 23 24  1  0
 25 26  1  0
 26 27  1  6
 26 28  1  0
 28 29  1  0
 29 30  1  0
 31 32  2  0
 33 34  2  0
 34 35  1  0
 35 36  1  0
M  CHG  1  29   1
M  END
