
     RDKit          3D

 37 40  0  0  0  0  0  0  0  0999 V2000
   -4.1840   -2.3190    0.2130 C   0  0  0  0  0  0  0  0  0  0  0  0
   -4.8160   -1.8330    1.8200 S   0  0  1  0  0  0  0  0  0  0  0  0
   -5.9130   -2.8840    2.1030 O   0  0  0  0  0  0  0  0  0  0  0  0
   -3.8220   -2.0150    2.8950 O   0  0  0  0  0  0  0  0  0  0  0  0
   -5.5670   -0.2820    1.7360 C   0  0  0  0  0  0  0  0  0  0  0  0
   -6.8870   -0.1950    2.2090 C   0  0  0  0  0  0  0  0  0  0  0  0
   -7.5650    0.9980    2.1840 C   0  0  0  0  0  0  0  0  0  0  0  0
   -6.9570    2.1390    1.6890 C   0  0  0  0  0  0  0  0  0  0  0  0
   -5.6590    2.0470    1.2240 C   0  0  0  0  0  0  0  0  0  0  0  0
   -4.9540    0.8420    1.2430 C   0  0  0  0  0  0  0  0  0  0  0  0
   -3.5840    0.7870    0.7500 C   0  0  0  0  0  0  0  0  0  0  0  0
   -3.3170    1.0840   -0.5680 C   0  0  0  0  0  0  0  0  0  0  0  0
   -2.0160    1.0580   -1.0960 C   0  0  0  0  0  0  0  0  0  0  0  0
   -0.9430    0.7290   -0.3050 C   0  0  0  0  0  0  0  0  0  0  0  0
    0.3840    0.6310   -0.7820 N   0  0  0  0  0  0  0  0  0  0  0  0
    0.8870    0.9090   -2.0510 C   0  0  0  0  0  0  0  0  0  0  0  0
    0.0460    1.3460   -2.9070 O   0  0  0  0  0  0  0  0  0  0  0  0
    2.2520    0.7590   -2.5280 C   0  0  0  0  0  0  0  0  0  0  0  0
    2.6970    1.2840   -3.7430 C   0  0  0  0  0  0  0  0  0  0  0  0
    4.0110    0.9030   -3.8970 C   0  0  0  0  0  0  0  0  0  0  0  0
    4.8480    1.2620   -5.0730 C   0  0  2  0  0  0  0  0  0  0  0  0
    6.1350    1.4700   -4.6030 F   0  0  0  0  0  0  0  0  0  0  0  0
    4.4120    2.3950   -5.6740 F   0  0  0  0  0  0  0  0  0  0  0  0
    4.7970    0.2070   -5.9560 F   0  0  0  0  0  0  0  0  0  0  0  0
    4.3080    0.1990   -2.8340 N   0  0  0  0  0  0  0  0  0  0  0  0
    3.2540    0.0890   -1.9700 N   0  0  0  0  0  0  0  0  0  0  0  0
    3.3840   -0.6310   -0.7650 C   0  0  0  0  0  0  0  0  0  0  0  0
    2.7420   -1.8120   -0.5530 C   0  0  0  0  0  0  0  0  0  0  0  0
    2.9460   -2.5270    0.6260 C   0  0  0  0  0  0  0  0  0  0  0  0
    3.8000   -2.0560    1.6060 C   0  0  0  0  0  0  0  0  0  0  0  0
    4.4580   -0.8540    1.4010 C   0  0  0  0  0  0  0  0  0  0  0  0
    5.3840   -0.3750    2.4690 C   0  0  0  0  0  0  0  0  0  0  0  0
    6.6790    0.0120    1.8890 N   0  0  0  0  0  0  0  0  0  0  0  0
    4.2410   -0.1790    0.2440 C   0  0  0  0  0  0  0  0  0  0  0  0
   -1.2130    0.4260    1.0440 C   0  0  0  0  0  0  0  0  0  0  0  0
   -0.1570    0.1100    1.8180 F   0  0  0  0  0  0  0  0  0  0  0  0
   -2.5040    0.4640    1.5340 C   0  0  0  0  0  0  0  0  0  0  0  0
  2  1  1  6
  2  3  2  0
  2  4  2  0
  2  5  1  0
  5  6  2  0
  5 10  1  0
  6  7  1  0
  7  8  2  0
  8  9  1  0
  9 10  2  0
 10 11  1  0
 11 12  2  0
 11 37  1  0
 12 13  1  0
 13 14  2  0
 14 15  1  0
 14 35  1  0
 15 16  1  0
 16 17  2  0
 16 18  1  0
 18 19  2  0
 18 26  1  0
 19 20  1  0
 20 21  1  0
 20 25  2  0
 21 22  1  1
 21 23  1  0
 21 24  1  0
 25 26  1  0
 26 27  1  0
 27 28  2  0
 27 34  1  0
 28 29  1  0
 29 30  2  0
 30 31  1  0
 31 32  1  0
 31 34  2  0
 32 33  1  0
 35 36  1  0
 35 37  2  0
M  CHG  1  33   1
M  END
