
     RDKit          3D

 37 40  0  0  0  0  0  0  0  0999 V2000
    7.4090   -3.3590   -2.0860 C   0  0  0  0  0  0  0  0  0  0  0  0
    7.0400   -3.9160   -0.7630 N   0  0  0  0  0  0  0  0  0  0  0  0
    5.8890   -3.1940   -0.3650 C   0  0  0  0  0  0  0  0  0  0  0  0
    4.6850   -3.8600   -0.0850 C   0  0  0  0  0  0  0  0  0  0  0  0
    3.5380   -3.0990    0.1990 C   0  0  0  0  0  0  0  0  0  0  0  0
    3.5900   -1.7600    0.2030 C   0  0  0  0  0  0  0  0  0  0  0  0
    2.5130   -0.8970    0.3290 N   0  0  0  0  0  0  0  0  0  0  0  0
    1.4090   -0.9640    1.2520 C   0  0  0  0  0  0  0  0  0  0  0  0
    0.6100    0.2990    0.9140 C   0  0  0  0  0  0  0  0  0  0  0  0
   -0.0640    0.3330   -0.2690 N   0  0  0  0  0  0  0  0  0  0  0  0
   -0.8420    1.3320   -0.6680 C   0  0  0  0  0  0  0  0  0  0  0  0
   -1.7490    1.4070   -2.2030 S   0  0  0  0  0  0  0  0  0  0  0  0
   -3.4320    0.8500   -2.0690 C   0  0  0  0  0  0  0  0  0  0  0  0
   -3.5850   -0.6020   -1.8380 C   0  0  0  0  0  0  0  0  0  0  0  0
   -3.8870   -0.9970   -0.6420 N   0  0  0  0  0  0  0  0  0  0  0  0
   -4.0910   -2.3310   -0.1320 C   0  0  0  0  0  0  0  0  0  0  0  0
   -4.0990   -2.3910    1.3730 C   0  0  0  0  0  0  0  0  0  0  0  0
   -2.9270   -1.9130    1.8920 F   0  0  0  0  0  0  0  0  0  0  0  0
   -4.2530   -3.4840   -0.7860 C   0  0  0  0  0  0  0  0  0  0  0  0
   -4.2710   -3.7410   -2.1840 N   0  0  0  0  0  0  0  0  0  0  0  0
   -3.8800   -2.7820   -3.1970 C   0  0  0  0  0  0  0  0  0  0  0  0
   -4.0240   -3.2080   -4.3600 O   0  0  0  0  0  0  0  0  0  0  0  0
   -3.3780   -1.4730   -2.9650 N   0  0  0  0  0  0  0  0  0  0  0  0
   -0.9430    2.4200    0.2330 C   0  0  0  0  0  0  0  0  0  0  0  0
   -1.8420    3.5260   -0.1740 C   0  0  0  0  0  0  0  0  0  0  0  0
   -1.3460    4.2670   -1.1320 O   0  0  0  0  0  0  0  0  0  0  0  0
   -3.0480    3.7970    0.3430 N   0  0  0  0  0  0  0  0  0  0  0  0
   -3.9750    4.8660   -0.1920 C   0  0  0  0  0  0  0  0  0  0  0  0
   -4.0600    5.7550    1.0550 C   0  0  0  0  0  0  0  0  0  0  0  0
   -3.8150    4.8310    2.2030 C   0  0  0  0  0  0  0  0  0  0  0  0
   -3.7970    3.4120    1.5440 C   0  0  0  0  0  0  0  0  0  0  0  0
   -0.2800    2.4120    1.4230 C   0  0  0  0  0  0  0  0  0  0  0  0
    0.5360    1.3170    1.8050 C   0  0  0  0  0  0  0  0  0  0  0  0
    1.3180    1.4000    3.0590 C   0  0  0  0  0  0  0  0  0  0  0  0
    4.8190   -1.0990   -0.0760 C   0  0  0  0  0  0  0  0  0  0  0  0
    4.8210    0.3920   -0.0520 C   0  0  0  0  0  0  0  0  0  0  0  0
    5.9390   -1.8300   -0.3520 C   0  0  0  0  0  0  0  0  0  0  0  0
  1  2  1  0
  2  3  1  0
  3  4  2  0
  3 37  1  0
  4  5  1  0
  5  6  2  0
  6  7  1  0
  6 35  1  0
  7  8  1  0
  8  9  1  0
  9 10  2  0
  9 33  1  0
 10 11  1  0
 11 12  1  0
 11 24  2  0
 12 13  1  0
 13 14  1  0
 14 15  2  0
 14 23  1  0
 15 16  1  0
 16 17  1  0
 16 19  2  0
 17 18  1  0
 19 20  1  0
 20 21  1  0
 21 22  2  0
 21 23  1  0
 24 25  1  0
 24 32  1  0
 25 26  2  0
 25 27  1  0
 27 28  1  0
 27 31  1  0
 28 29  1  0
 29 30  1  0
 30 31  1  0
 32 33  2  0
 33 34  1  0
 35 36  1  0
 35 37  2  0
M  CHG  1   2   1
M  END
