
     RDKit          3D

 37 40  0  0  0  0  0  0  0  0999 V2000
    9.3560    1.0730    1.1230 C   0  0  0  0  0  0  0  0  0  0  0  0
    8.6380    0.2430    0.2480 O   0  0  0  0  0  0  0  0  0  0  0  0
    7.2540    0.2000    0.2890 C   0  0  0  0  0  0  0  0  0  0  0  0
    6.5750    0.9810    1.1990 C   0  0  0  0  0  0  0  0  0  0  0  0
    5.1830    0.9170    1.2180 C   0  0  0  0  0  0  0  0  0  0  0  0
    4.4850    0.0870    0.3420 C   0  0  0  0  0  0  0  0  0  0  0  0
    2.7120    0.0970    0.4720 S   0  0  0  0  0  0  0  0  0  0  0  0
    2.0120   -1.0210   -0.7380 C   0  0  0  0  0  0  0  0  0  0  0  0
    0.5130   -0.9930   -0.5820 C   0  0  0  0  0  0  0  0  0  0  0  0
   -0.1960   -1.6980   -1.3270 O   0  0  0  0  0  0  0  0  0  0  0  0
   -0.1080   -0.1800    0.3970 N   0  0  0  0  0  0  0  0  0  0  0  0
   -1.4860   -0.1090    0.5940 N   0  0  0  0  0  0  0  0  0  0  0  0
   -2.1920   -1.3070    0.9090 C   0  0  0  0  0  0  0  0  0  0  0  0
   -2.2940   -1.6020    2.3740 C   0  0  0  0  0  0  0  0  0  0  0  0
   -3.2150   -3.1240    2.6940 S   0  0  0  0  0  0  0  0  0  0  0  0
   -4.9550   -2.9730    2.3130 C   0  0  0  0  0  0  0  0  0  0  0  0
   -5.4480   -1.7990    1.9990 C   0  0  0  0  0  0  0  0  0  0  0  0
   -6.8850   -1.6630    1.6820 C   0  0  0  0  0  0  0  0  0  0  0  0
   -7.6040   -2.8550    1.8130 O   0  0  0  0  0  0  0  0  0  0  0  0
   -7.0470   -4.0810    2.1490 C   0  0  0  0  0  0  0  0  0  0  0  0
   -5.7560   -4.1670    2.3980 C   0  0  0  0  0  0  0  0  0  0  0  0
   -2.1030    1.1720    0.4680 C   0  0  0  0  0  0  0  0  0  0  0  0
   -3.3390    1.3140    0.6360 O   0  0  0  0  0  0  0  0  0  0  0  0
   -1.3340    2.3950    0.1360 C   0  0  2  0  0  0  0  0  0  0  0  0
   -2.2010    3.5400    0.0910 O   0  0  0  0  0  0  0  0  0  0  0  0
   -3.2310    3.5870   -0.8670 C   0  0  0  0  0  0  0  0  0  0  0  0
   -4.4230    4.1580   -0.8980 C   0  0  0  0  0  0  0  0  0  0  0  0
   -5.0740    3.8610   -2.1850 C   0  0  0  0  0  0  0  0  0  0  0  0
   -4.0890    3.0300   -2.9090 C   0  0  0  0  0  0  0  0  0  0  0  0
   -3.0430    2.8890   -2.1310 C   0  0  0  0  0  0  0  0  0  0  0  0
   -1.8080    2.2020   -2.2980 N   0  0  0  0  0  0  0  0  0  0  0  0
   -0.8470    2.2290   -1.2530 C   0  0  0  0  0  0  0  0  0  0  0  0
    0.3600    2.1190   -1.4820 O   0  0  0  0  0  0  0  0  0  0  0  0
    5.1740   -0.6860   -0.5600 C   0  0  0  0  0  0  0  0  0  0  0  0
    6.5720   -0.6250   -0.5830 C   0  0  0  0  0  0  0  0  0  0  0  0
    7.2720   -1.4010   -1.4890 O   0  0  0  0  0  0  0  0  0  0  0  0
    6.6430   -2.2640   -2.4050 C   0  0  0  0  0  0  0  0  0  0  0  0
  1  2  1  0
  2  3  1  0
  3  4  2  0
  3 35  1  0
  4  5  1  0
  5  6  2  0
  6  7  1  0
  6 34  1  0
  7  8  1  0
  8  9  1  0
  9 10  2  0
  9 11  1  0
 11 12  1  0
 12 13  1  0
 12 22  1  0
 13 14  1  0
 14 15  1  0
 15 16  1  0
 16 17  2  0
 16 21  1  0
 17 18  1  0
 18 19  1  0
 19 20  1  0
 20 21  2  0
 22 23  2  0
 24 22  1  6
 24 25  1  0
 24 32  1  0
 25 26  1  0
 26 27  2  0
 26 30  1  0
 27 28  1  0
 28 29  1  0
 29 30  2  0
 30 31  1  0
 31 32  1  0
 32 33  2  0
 34 35  2  0
 35 36  1  0
 36 37  1  0
M  END
