
     RDKit          3D

 37 40  0  0  0  0  0  0  0  0999 V2000
   -9.4420   -0.3790    0.7470 C   0  0  0  0  0  0  0  0  0  0  0  0
   -8.2100    0.3050    1.2430 C   0  0  0  0  0  0  0  0  0  0  0  0
   -7.0430   -0.3750    0.9900 O   0  0  0  0  0  0  0  0  0  0  0  0
   -6.7830   -0.5990   -0.3270 C   0  0  0  0  0  0  0  0  0  0  0  0
   -5.4970   -1.3430   -0.5060 C   0  0  0  0  0  0  0  0  0  0  0  0
   -4.3730   -0.7090   -0.0190 O   0  0  0  0  0  0  0  0  0  0  0  0
   -3.9730   -0.3420    1.2120 C   0  0  0  0  0  0  0  0  0  0  0  0
   -4.8360   -0.6640    2.1480 O   0  0  0  0  0  0  0  0  0  0  0  0
   -2.7640    0.3310    1.5910 C   0  0  0  0  0  0  0  0  0  0  0  0
   -1.7390    0.7840    1.0130 C   0  0  0  0  0  0  0  0  0  0  0  0
   -1.2420    0.8630   -0.3410 C   0  0  1  0  0  0  0  0  0  0  0  0
    0.2040    0.3950   -0.3550 C   0  0  0  0  0  0  0  0  0  0  0  0
    0.5840   -0.8230   -0.6470 C   0  0  0  0  0  0  0  0  0  0  0  0
    1.9810   -0.9770   -0.5800 N   0  0  0  0  0  0  0  0  0  0  0  0
    2.5510    0.1330   -0.2440 C   0  0  0  0  0  0  0  0  0  0  0  0
    3.9940    0.4370   -0.0530 C   0  0  2  0  0  0  0  0  0  0  0  0
    4.4350    1.5360   -1.0130 C   0  0  0  0  0  0  0  0  0  0  0  0
    5.0080   -1.0070   -0.3700 S   0  0  0  0  0  0  0  0  0  0  0  0
    6.7290   -0.5720   -0.1220 C   0  0  0  0  0  0  0  0  0  0  0  0
    7.5010   -0.0920   -1.1490 C   0  0  0  0  0  0  0  0  0  0  0  0
    8.8210    0.2480   -0.9860 C   0  0  0  0  0  0  0  0  0  0  0  0
    9.4280    0.1180    0.2330 C   0  0  0  0  0  0  0  0  0  0  0  0
    8.6550   -0.3710    1.2950 C   0  0  0  0  0  0  0  0  0  0  0  0
    7.3320   -0.7130    1.1350 C   0  0  0  0  0  0  0  0  0  0  0  0
    6.4920   -1.2140    2.1640 N   0  0  0  0  0  0  0  0  0  0  0  0
    6.8700   -1.4410    3.5080 C   0  0  0  0  0  0  0  0  0  0  0  0
    8.0110   -1.2160    3.9260 O   0  0  0  0  0  0  0  0  0  0  0  0
    1.4680    1.1020   -0.0720 C   0  0  0  0  0  0  0  0  0  0  0  0
    1.5300    2.3170    0.2530 O   0  0  0  0  0  0  0  0  0  0  0  0
   -0.7210   -1.9730   -1.0740 S   0  0  0  0  0  0  0  0  0  0  0  0
   -1.9370   -0.9430   -1.8720 C   0  0  0  0  0  0  0  0  0  0  0  0
   -2.0450    0.3070   -1.4230 C   0  0  0  0  0  0  0  0  0  0  0  0
   -3.0970    0.9560   -2.2680 C   0  0  0  0  0  0  0  0  0  0  0  0
   -3.4470    2.1540   -2.1060 O   0  0  0  0  0  0  0  0  0  0  0  0
   -3.5890    0.0290   -3.2200 N   0  0  0  0  0  0  0  0  0  0  0  0
   -2.8430   -1.1800   -2.9580 C   0  0  0  0  0  0  0  0  0  0  0  0
   -3.0420   -2.2270   -3.6450 O   0  0  0  0  0  0  0  0  0  0  0  0
  1  2  1  0
  2  3  1  0
  3  4  1  0
  4  5  1  0
  5  6  1  0
  6  7  1  0
  7  8  2  0
  7  9  1  0
  9 10  2  3
 11 10  1  1
 11 12  1  0
 11 32  1  0
 12 13  2  0
 12 28  1  0
 13 14  1  0
 13 30  1  0
 14 15  2  0
 15 16  1  0
 15 28  1  0
 16 17  1  6
 16 18  1  0
 18 19  1  0
 19 20  2  0
 19 24  1  0
 20 21  1  0
 21 22  2  0
 22 23  1  0
 23 24  2  0
 24 25  1  0
 25 26  1  0
 26 27  2  0
 28 29  2  0
 30 31  1  0
 31 32  2  0
 31 36  1  0
 32 33  1  0
 33 34  2  0
 33 35  1  0
 35 36  1  0
 36 37  2  0
M  END
