
     RDKit          3D

 37 40  0  0  0  0  0  0  0  0999 V2000
    9.8340    2.7760   -0.7720 C   0  0  0  0  0  0  0  0  0  0  0  0
    9.6980    2.4600    0.5710 O   0  0  0  0  0  0  0  0  0  0  0  0
    9.4130    1.1250    0.7000 C   0  0  0  0  0  0  0  0  0  0  0  0
    8.1550    0.6780    0.0310 C   0  0  0  0  0  0  0  0  0  0  0  0
    7.0070    1.3220    0.5060 O   0  0  0  0  0  0  0  0  0  0  0  0
    5.7670    1.0070   -0.0230 C   0  0  0  0  0  0  0  0  0  0  0  0
    5.6850    0.0500   -1.0250 C   0  0  0  0  0  0  0  0  0  0  0  0
    4.4520   -0.2560   -1.5440 C   0  0  0  0  0  0  0  0  0  0  0  0
    3.2780    0.3600   -1.1000 C   0  0  0  0  0  0  0  0  0  0  0  0
    2.0450   -0.0800   -1.7560 C   0  0  2  0  0  0  0  0  0  0  0  0
    0.7700    0.3260   -1.1290 C   0  0  0  0  0  0  0  0  0  0  0  0
    0.3550   -0.8190   -0.3400 N   0  0  0  0  0  0  0  0  0  0  0  0
   -0.6590   -0.8500    0.6340 C   0  0  0  0  0  0  0  0  0  0  0  0
   -1.2880    0.2380    0.8720 O   0  0  0  0  0  0  0  0  0  0  0  0
   -1.0300   -2.0620    1.3870 C   0  0  0  0  0  0  0  0  0  0  0  0
   -2.4040   -2.9710    0.6280 S   0  0  0  0  0  0  0  0  0  0  0  0
   -3.8840   -1.9600    0.7320 C   0  0  0  0  0  0  0  0  0  0  0  0
   -4.2130   -1.0990   -0.2440 N   0  0  0  0  0  0  0  0  0  0  0  0
   -5.3310   -0.3580   -0.1300 C   0  0  0  0  0  0  0  0  0  0  0  0
   -6.0500    0.8490   -1.2060 S   0  0  0  0  0  0  0  0  0  0  0  0
   -7.4530    1.2370   -0.2170 C   0  0  0  0  0  0  0  0  0  0  0  0
   -8.5020    2.2200   -0.5640 C   0  0  0  0  0  0  0  0  0  0  0  0
   -9.7540    1.5080   -1.0220 C   0  0  0  0  0  0  0  0  0  0  0  0
   -9.5500    0.7220   -2.1280 O   0  0  0  0  0  0  0  0  0  0  0  0
   -7.2830    0.4200    0.8740 C   0  0  0  0  0  0  0  0  0  0  0  0
   -8.3330    0.4810    1.9800 C   0  0  0  0  0  0  0  0  0  0  0  0
   -6.2060   -0.3850    0.9090 C   0  0  0  0  0  0  0  0  0  0  0  0
   -5.8330   -1.3070    1.9290 C   0  0  0  0  0  0  0  0  0  0  0  0
   -6.5300   -1.4610    2.9640 O   0  0  0  0  0  0  0  0  0  0  0  0
   -4.7140   -2.0240    1.7780 N   0  0  0  0  0  0  0  0  0  0  0  0
    1.1940   -1.9030   -0.7570 C   0  0  2  0  0  0  0  0  0  0  0  0
    0.4120   -3.1130   -1.2490 C   0  0  0  0  0  0  0  0  0  0  0  0
    2.0820   -2.3540    0.3730 C   0  0  0  0  0  0  0  0  0  0  0  0
    1.9350   -1.4570   -1.8510 O   0  0  0  0  0  0  0  0  0  0  0  0
    3.3830    1.3040   -0.1080 C   0  0  0  0  0  0  0  0  0  0  0  0
    4.6040    1.6300    0.4300 C   0  0  0  0  0  0  0  0  0  0  0  0
    4.7480    2.5750    1.4290 O   0  0  0  0  0  0  0  0  0  0  0  0
  1  2  1  0
  2  3  1  0
  3  4  1  0
  4  5  1  0
  5  6  1  0
  6  7  2  0
  6 36  1  0
  7  8  1  0
  8  9  2  0
 10  9  1  1
  9 35  1  0
 10 11  1  0
 10 34  1  0
 11 12  1  0
 12 13  1  0
 12 31  1  0
 13 14  2  0
 13 15  1  0
 15 16  1  0
 16 17  1  0
 17 18  2  0
 17 30  1  0
 18 19  1  0
 19 20  1  0
 19 27  2  0
 20 21  1  0
 21 22  1  0
 21 25  2  0
 22 23  1  0
 23 24  1  0
 25 26  1  0
 25 27  1  0
 27 28  1  0
 28 29  2  0
 28 30  1  0
 31 32  1  6
 31 33  1  0
 31 34  1  0
 35 36  2  0
 36 37  1  0
M  END
