
     RDKit          3D

 37 40  0  0  0  0  0  0  0  0999 V2000
   -9.0380   -0.0080    1.9070 C   0  0  0  0  0  0  0  0  0  0  0  0
   -7.7560   -0.3070    1.2250 C   0  0  0  0  0  0  0  0  0  0  0  0
   -6.8700   -1.2500    1.6890 C   0  0  0  0  0  0  0  0  0  0  0  0
   -5.6720   -1.4950    1.0070 C   0  0  0  0  0  0  0  0  0  0  0  0
   -5.3490   -0.8030   -0.1380 C   0  0  0  0  0  0  0  0  0  0  0  0
   -4.1070   -1.0240   -0.8850 C   0  0  0  0  0  0  0  0  0  0  0  0
   -3.8930   -0.2710   -2.0210 C   0  0  0  0  0  0  0  0  0  0  0  0
   -2.7230   -0.4420   -2.7700 C   0  0  0  0  0  0  0  0  0  0  0  0
   -1.7770   -1.3610   -2.3830 C   0  0  0  0  0  0  0  0  0  0  0  0
   -0.2970   -1.5690   -3.3390 S   0  0  0  0  0  0  0  0  0  0  0  0
    0.9580   -0.4080   -2.6790 C   0  0  0  0  0  0  0  0  0  0  0  0
    1.3340   -0.8170   -1.2870 C   0  0  0  0  0  0  0  0  0  0  0  0
    2.2870    0.0510   -0.7670 O   0  0  0  0  0  0  0  0  0  0  0  0
    2.1370    1.3930   -0.5660 C   0  0  0  0  0  0  0  0  0  0  0  0
    1.0460    1.9350   -0.8660 O   0  0  0  0  0  0  0  0  0  0  0  0
    3.1960    2.2730   -0.0070 C   0  0  2  0  0  0  0  0  0  0  0  0
    3.4930    3.3780   -1.0090 C   0  0  0  0  0  0  0  0  0  0  0  0
    4.3850    1.6100    0.3080 O   0  0  0  0  0  0  0  0  0  0  0  0
    4.9670    1.5780    1.5450 C   0  0  0  0  0  0  0  0  0  0  0  0
    4.4290    2.1730    2.4990 O   0  0  0  0  0  0  0  0  0  0  0  0
    6.2380    0.8600    1.8400 C   0  0  0  0  0  0  0  0  0  0  0  0
    6.8780    0.1900    0.8380 C   0  0  0  0  0  0  0  0  0  0  0  0
    8.0910   -0.5180    1.0310 C   0  0  0  0  0  0  0  0  0  0  0  0
    8.7770   -1.1830    0.1540 N   0  0  0  0  0  0  0  0  0  0  0  0
    9.8990   -1.8110    0.4340 C   0  0  0  0  0  0  0  0  0  0  0  0
   10.7070   -2.4730   -0.1470 O   0  0  0  0  0  0  0  0  0  0  0  0
   10.0480   -1.4130    2.2590 S   0  0  0  0  0  0  0  0  0  0  0  0
    8.5320   -0.4400    2.3450 C   0  0  0  0  0  0  0  0  0  0  0  0
    7.8910    0.2300    3.3470 C   0  0  0  0  0  0  0  0  0  0  0  0
    8.4020    0.2170    4.4860 O   0  0  0  0  0  0  0  0  0  0  0  0
    6.7280    0.8870    3.0830 N   0  0  0  0  0  0  0  0  0  0  0  0
   -1.9810   -2.1140   -1.2560 C   0  0  0  0  0  0  0  0  0  0  0  0
   -3.1540   -1.9250   -0.5260 C   0  0  0  0  0  0  0  0  0  0  0  0
   -6.2480    0.1150   -0.5580 N   0  0  0  0  0  0  0  0  0  0  0  0
   -7.4020    0.3630    0.0820 C   0  0  0  0  0  0  0  0  0  0  0  0
   -8.3320    1.3910   -0.4510 C   0  0  0  0  0  0  0  0  0  0  0  0
   -7.8140    1.9710   -1.6180 O   0  0  0  0  0  0  0  0  0  0  0  0
  1  2  1  0
  2  3  2  0
  2 35  1  0
  3  4  1  0
  4  5  2  0
  5  6  1  0
  5 34  1  0
  6  7  2  0
  6 33  1  0
  7  8  1  0
  8  9  2  0
  9 10  1  0
  9 32  1  0
 10 11  1  0
 11 12  1  0
 12 13  1  0
 13 14  1  0
 14 15  2  0
 14 16  1  0
 16 17  1  6
 16 18  1  0
 18 19  1  0
 19 20  2  0
 19 21  1  0
 21 22  2  0
 21 31  1  0
 22 23  1  0
 23 24  1  0
 23 28  2  0
 24 25  1  0
 25 26  2  0
 25 27  1  0
 27 28  1  0
 28 29  1  0
 29 30  2  0
 29 31  1  0
 32 33  2  0
 34 35  2  0
 35 36  1  0
 36 37  1  0
M  END
