
     RDKit          3D

 37 41  0  0  0  0  0  0  0  0999 V2000
    2.5700    0.2020    3.1590 O   0  0  0  0  0  0  0  0  0  0  0  0
    2.5910   -0.8220    2.4600 C   0  0  0  0  0  0  0  0  0  0  0  0
    2.1620   -2.1680    2.9000 C   0  0  0  0  0  0  0  0  0  0  0  0
    2.1480   -3.2820    1.4760 S   0  0  0  0  0  0  0  0  0  0  0  0
    0.8200   -2.9340    0.3450 C   0  0  0  0  0  0  0  0  0  0  0  0
   -0.4490   -3.4490    0.4650 N   0  0  0  0  0  0  0  0  0  0  0  0
   -1.2170   -3.0230   -0.5140 N   0  0  0  0  0  0  0  0  0  0  0  0
   -2.5990   -3.3780   -0.6870 C   0  0  0  0  0  0  0  0  0  0  0  0
   -2.9220   -4.7190   -0.8810 C   0  0  0  0  0  0  0  0  0  0  0  0
   -4.2160   -5.1370   -1.0580 C   0  0  0  0  0  0  0  0  0  0  0  0
   -5.2220   -4.2000   -1.0420 C   0  0  0  0  0  0  0  0  0  0  0  0
   -4.9260   -2.8570   -0.8500 C   0  0  0  0  0  0  0  0  0  0  0  0
   -3.6010   -2.4540   -0.6720 C   0  0  0  0  0  0  0  0  0  0  0  0
   -3.3250   -1.0880   -0.4660 N   0  0  0  0  0  0  0  0  0  0  0  0
   -4.3310   -0.1280   -0.5280 N   0  0  0  0  0  0  0  0  0  0  0  0
   -4.2360    1.1220    0.1890 C   0  0  0  0  0  0  0  0  0  0  0  0
   -3.2120    1.3290    0.8840 O   0  0  0  0  0  0  0  0  0  0  0  0
   -5.3010    2.1350    0.1170 C   0  0  2  0  0  0  0  0  0  0  0  0
   -6.3320    1.6900   -0.7190 O   0  0  0  0  0  0  0  0  0  0  0  0
   -4.7830    3.4290   -0.4250 C   0  0  0  0  0  0  0  0  0  0  0  0
   -5.1710    4.4380    0.6160 C   0  0  0  0  0  0  0  0  0  0  0  0
   -6.1010    3.8550    1.4420 O   0  0  0  0  0  0  0  0  0  0  0  0
   -5.8500    2.4790    1.4700 C   0  0  0  0  0  0  0  0  0  0  0  0
   -0.4460   -2.2300   -1.2680 C   0  0  0  0  0  0  0  0  0  0  0  0
   -0.7940   -1.6150   -2.3140 O   0  0  0  0  0  0  0  0  0  0  0  0
    0.8030   -2.1750   -0.7420 N   0  0  0  0  0  0  0  0  0  0  0  0
    3.0730   -0.5960    1.1700 N   0  0  0  0  0  0  0  0  0  0  0  0
    3.5360    0.6470    0.7620 C   0  0  0  0  0  0  0  0  0  0  0  0
    3.5990    0.8880   -0.4310 N   0  0  0  0  0  0  0  0  0  0  0  0
    4.0370    2.1300   -0.7900 N   0  0  0  0  0  0  0  0  0  0  0  0
    5.3330    2.4090   -0.1350 C   0  0  2  0  0  0  0  0  0  0  0  0
    6.3850    1.4230   -0.4870 C   0  0  1  0  0  0  0  0  0  0  0  0
    6.6560    1.3050   -1.8770 N   0  0  0  0  0  0  0  0  0  0  0  0
    8.0630    1.4320   -2.0470 C   0  0  0  0  0  0  0  0  0  0  0  0
    8.6030    1.3940   -0.6410 C   0  0  0  0  0  0  0  0  0  0  0  0
    7.5520    1.7900    0.1840 O   0  0  0  0  0  0  0  0  0  0  0  0
    4.5460    1.9910    1.5060 S   0  0  0  0  0  0  0  0  0  0  0  0
  1  2  2  0
  2  3  1  0
  2 27  1  0
  3  4  1  0
  4  5  1  0
  5  6  2  0
  5 26  1  0
  6  7  1  0
  7  8  1  0
  7 24  1  0
  8  9  2  0
  8 13  1  0
  9 10  1  0
 10 11  2  0
 11 12  1  0
 12 13  2  0
 13 14  1  0
 14 15  1  0
 15 16  1  0
 16 17  2  0
 16 18  1  0
 18 19  1  6
 18 20  1  0
 18 23  1  0
 20 21  1  0
 21 22  1  0
 22 23  1  0
 24 25  2  0
 24 26  1  0
 27 28  1  0
 28 29  2  0
 28 37  1  0
 29 30  1  0
 31 30  1  6
 31 32  1  0
 31 37  1  0
 32 33  1  6
 32 36  1  0
 33 34  1  0
 34 35  1  0
 35 36  1  0
M  END
