
     RDKit          3D

 37 40  0  0  0  0  0  0  0  0999 V2000
   10.8080    0.0410   -0.9610 C   0  0  0  0  0  0  0  0  0  0  0  0
    9.4930   -0.4280   -1.0950 O   0  0  0  0  0  0  0  0  0  0  0  0
    9.2240   -1.6780   -1.6500 C   0  0  0  0  0  0  0  0  0  0  0  0
   10.2330   -2.3420   -2.0140 O   0  0  0  0  0  0  0  0  0  0  0  0
    7.8390   -2.2110   -1.8090 C   0  0  0  0  0  0  0  0  0  0  0  0
    6.9700   -1.2160   -1.3010 O   0  0  0  0  0  0  0  0  0  0  0  0
    5.6070   -1.3430   -1.2750 C   0  0  0  0  0  0  0  0  0  0  0  0
    5.1080   -2.3930   -1.7230 O   0  0  0  0  0  0  0  0  0  0  0  0
    4.8040   -0.2540   -0.7300 C   0  0  0  0  0  0  0  0  0  0  0  0
    3.0410   -0.1780   -0.5860 S   0  0  0  0  0  0  0  0  0  0  0  0
    3.0600    1.5350    0.1920 C   0  0  0  0  0  0  0  0  0  0  0  0
    1.7720    2.1390    0.5470 C   0  0  0  0  0  0  0  0  0  0  0  0
    0.5190    1.7370    0.4440 C   0  0  0  0  0  0  0  0  0  0  0  0
   -0.4820    2.5390    0.8700 C   0  0  0  0  0  0  0  0  0  0  0  0
   -1.9490    2.1790    0.7990 C   0  0  0  0  0  0  0  0  0  0  0  0
   -2.8030    3.0450    0.5090 O   0  0  0  0  0  0  0  0  0  0  0  0
   -2.3780    0.8550    1.0600 N   0  0  0  0  0  0  0  0  0  0  0  0
   -3.7930    0.4690    1.0000 C   0  0  2  0  0  0  0  0  0  0  0  0
   -4.1120    0.0360    2.4410 C   0  0  0  0  0  0  0  0  0  0  0  0
   -4.0040   -0.6650    0.0960 C   0  0  0  0  0  0  0  0  0  0  0  0
   -2.8920   -1.1260   -0.4030 O   0  0  0  0  0  0  0  0  0  0  0  0
   -5.2260   -1.3080   -0.2940 C   0  0  0  0  0  0  0  0  0  0  0  0
   -5.3090   -2.3920   -1.1370 C   0  0  0  0  0  0  0  0  0  0  0  0
   -4.1780   -3.0920   -1.7790 C   0  0  0  0  0  0  0  0  0  0  0  0
   -6.5860   -2.7460   -1.3110 N   0  0  0  0  0  0  0  0  0  0  0  0
   -7.3550   -1.9200   -0.6000 C   0  0  0  0  0  0  0  0  0  0  0  0
   -6.5110   -1.0050    0.0480 C   0  0  0  0  0  0  0  0  0  0  0  0
   -7.1260   -0.1070    0.7770 C   0  0  0  0  0  0  0  0  0  0  0  0
   -8.5900   -0.0160    0.9770 C   0  0  0  0  0  0  0  0  0  0  0  0
   -9.3250   -0.9840    0.2950 O   0  0  0  0  0  0  0  0  0  0  0  0
   -8.6650   -1.9020   -0.4780 C   0  0  0  0  0  0  0  0  0  0  0  0
   -0.1600    3.7610    1.4030 C   0  0  0  0  0  0  0  0  0  0  0  0
   -0.9840    4.8460    1.9480 C   0  0  0  0  0  0  0  0  0  0  0  0
    1.6830    3.8090    1.3080 S   0  0  0  0  0  0  0  0  0  0  0  0
    4.2290    1.7350    0.2110 N   0  0  0  0  0  0  0  0  0  0  0  0
    5.2090    0.9770   -0.1940 C   0  0  0  0  0  0  0  0  0  0  0  0
    6.7030    1.3010   -0.1380 C   0  0  0  0  0  0  0  0  0  0  0  0
  1  2  1  0
  2  3  1  0
  3  4  2  0
  3  5  1  0
  5  6  1  0
  6  7  1  0
  7  8  2  0
  7  9  1  0
  9 10  1  0
  9 36  2  0
 10 11  1  0
 11 12  1  0
 11 35  2  0
 12 13  2  0
 12 34  1  0
 13 14  1  0
 14 15  1  0
 14 32  2  0
 15 16  2  0
 15 17  1  0
 17 18  1  0
 18 19  1  1
 18 20  1  0
 20 21  2  0
 20 22  1  0
 22 23  2  0
 22 27  1  0
 23 24  1  0
 23 25  1  0
 25 26  1  0
 26 27  1  0
 26 31  2  0
 27 28  2  0
 28 29  1  0
 29 30  1  0
 30 31  1  0
 32 33  1  0
 32 34  1  0
 35 36  1  0
 36 37  1  0
M  END
