
     RDKit          3D

 36 39  0  0  0  0  0  0  0  0999 V2000
   -7.4020    4.2140   -1.0810 C   0  0  0  0  0  0  0  0  0  0  0  0
   -6.3390    3.2780   -1.6220 C   0  0  0  0  0  0  0  0  0  0  0  0
   -6.3850    1.9890   -0.9780 N   0  0  0  0  0  0  0  0  0  0  0  0
   -5.1940    0.9260   -1.5780 S   0  0  2  0  0  0  0  0  0  0  0  0
   -4.9060    1.3070   -3.0230 O   0  0  0  0  0  0  0  0  0  0  0  0
   -5.7210   -0.4900   -1.6430 O   0  0  0  0  0  0  0  0  0  0  0  0
   -3.7080    1.0250   -0.7120 N   0  0  0  0  0  0  0  0  0  0  0  0
   -3.8050    0.1320    0.4420 C   0  0  1  0  0  0  0  0  0  0  0  0
   -2.7780   -0.8750    0.3870 C   0  0  0  0  0  0  0  0  0  0  0  0
   -1.7550   -1.1620    1.2000 C   0  0  0  0  0  0  0  0  0  0  0  0
   -1.5060   -0.4080    2.3970 C   0  0  0  0  0  0  0  0  0  0  0  0
   -2.2480    0.6340    2.8120 C   0  0  0  0  0  0  0  0  0  0  0  0
   -3.6330    1.1780    1.8930 S   0  0  0  0  0  0  0  0  0  0  0  0
   -0.4040   -0.7760    3.2660 N   0  0  0  0  0  0  0  0  0  0  0  0
    0.4090   -1.8770    2.9240 C   0  0  0  0  0  0  0  0  0  0  0  0
    1.3920   -2.2240    3.6720 O   0  0  0  0  0  0  0  0  0  0  0  0
    0.1310   -2.5970    1.7470 N   0  0  0  0  0  0  0  0  0  0  0  0
    0.9770   -3.7980    1.5060 C   0  0  0  0  0  0  0  0  0  0  0  0
    0.0880   -5.0190    1.4960 C   0  0  0  0  0  0  0  0  0  0  0  0
   -1.3640   -4.6980    1.3860 C   0  0  0  0  0  0  0  0  0  0  0  0
   -1.7150   -3.5360    0.5250 C   0  0  0  0  0  0  0  0  0  0  0  0
   -0.8720   -2.2910    0.8020 C   0  0  1  0  0  0  0  0  0  0  0  0
   -0.2600   -1.9240   -0.5590 C   0  0  0  0  0  0  0  0  0  0  0  0
    0.5260   -0.7040   -0.5560 C   0  0  0  0  0  0  0  0  0  0  0  0
    0.6690   -0.0240    0.4810 O   0  0  0  0  0  0  0  0  0  0  0  0
    1.1630   -0.2390   -1.7430 N   0  0  0  0  0  0  0  0  0  0  0  0
    1.9100    0.9520   -1.6790 N   0  0  0  0  0  0  0  0  0  0  0  0
    3.1260    1.0180   -0.9080 C   0  0  0  0  0  0  0  0  0  0  0  0
    3.5070   -0.0150   -0.2950 O   0  0  0  0  0  0  0  0  0  0  0  0
    3.8930    2.2080   -0.8250 N   0  0  0  0  0  0  0  0  0  0  0  0
    5.1170    2.3230   -0.0670 C   0  0  0  0  0  0  0  0  0  0  0  0
    6.1340    1.3440   -0.6060 C   0  0  1  0  0  0  0  0  0  0  0  0
    6.5520    1.8240   -2.0030 C   0  0  0  0  0  0  0  0  0  0  0  0
    7.4980    2.8680   -1.6520 N   0  0  0  0  0  0  0  0  0  0  0  0
    8.1490    2.3280   -0.5010 C   0  0  0  0  0  0  0  0  0  0  0  0
    7.2870    1.4930    0.1530 O   0  0  0  0  0  0  0  0  0  0  0  0
  1  2  1  0
  2  3  1  0
  4  3  1  1
  4  5  2  0
  4  6  2  0
  4  7  1  0
  8  7  1  6
  8  9  1  0
  8 13  1  0
  9 10  2  0
 10 11  1  0
 10 22  1  0
 11 12  2  0
 11 14  1  0
 12 13  1  0
 14 15  1  0
 15 16  2  0
 15 17  1  0
 17 18  1  0
 17 22  1  0
 18 19  1  0
 19 20  1  0
 20 21  1  0
 21 22  1  0
 22 23  1  6
 23 24  1  0
 24 25  2  0
 24 26  1  0
 26 27  1  0
 27 28  1  0
 28 29  2  0
 28 30  1  0
 30 31  1  0
 32 31  1  1
 32 33  1  0
 32 36  1  0
 33 34  1  0
 34 35  1  0
 35 36  1  0
M  END
