
     RDKit          3D

 37 40  0  0  0  0  0  0  0  0999 V2000
    3.6830    2.1570   -1.7720 C   0  0  0  0  0  0  0  0  0  0  0  0
    2.4000    1.6340   -1.2390 C   0  0  0  0  0  0  0  0  0  0  0  0
    2.3700    0.9490   -0.1250 C   0  0  0  0  0  0  0  0  0  0  0  0
    3.6050    0.6480    0.6750 C   0  0  0  0  0  0  0  0  0  0  0  0
    3.7480   -0.8000    0.9690 C   0  0  2  0  0  0  0  0  0  0  0  0
    4.4490   -1.5280   -0.1330 C   0  0  0  0  0  0  0  0  0  0  0  0
    5.8300   -1.0410   -0.4090 C   0  0  0  0  0  0  0  0  0  0  0  0
    6.7490   -1.1530    0.7780 C   0  0  0  0  0  0  0  0  0  0  0  0
    8.0550   -0.6360    0.3400 N   0  0  0  0  0  0  0  0  0  0  0  0
    9.2120   -0.7060    1.6130 S   0  0  2  0  0  0  0  0  0  0  0  0
   10.5990   -0.8700    1.0660 O   0  0  0  0  0  0  0  0  0  0  0  0
    8.8300   -1.8460    2.5180 O   0  0  0  0  0  0  0  0  0  0  0  0
    9.1460    0.7310    2.4710 O   0  0  0  0  0  0  0  0  0  0  0  0
    2.4620   -1.4760    1.3640 C   0  0  0  0  0  0  0  0  0  0  0  0
    1.2900   -1.0930    0.4990 C   0  0  0  0  0  0  0  0  0  0  0  0
    1.1050    0.4120    0.4360 C   0  0  2  0  0  0  0  0  0  0  0  0
   -0.0370    0.7140   -0.3520 N   0  0  0  0  0  0  0  0  0  0  0  0
   -0.0250    1.3830   -1.4440 C   0  0  0  0  0  0  0  0  0  0  0  0
   -1.2850    1.6330   -2.1770 C   0  0  0  0  0  0  0  0  0  0  0  0
   -2.4280    1.1430   -1.6690 N   0  0  0  0  0  0  0  0  0  0  0  0
   -3.6230    1.3050   -2.2410 C   0  0  0  0  0  0  0  0  0  0  0  0
   -4.8260    0.7830   -1.6950 N   0  0  0  0  0  0  0  0  0  0  0  0
   -4.7550    0.0460   -0.4690 C   0  0  0  0  0  0  0  0  0  0  0  0
   -6.1110   -0.4470   -0.0090 C   0  0  2  0  0  0  0  0  0  0  0  0
   -7.0060    0.7560    0.2020 C   0  0  0  0  0  0  0  0  0  0  0  0
   -7.5560    0.6280    1.6060 C   0  0  0  0  0  0  0  0  0  0  0  0
   -6.5400   -0.2530    2.2720 C   0  0  0  0  0  0  0  0  0  0  0  0
   -5.9360   -1.0740    1.2690 N   0  0  0  0  0  0  0  0  0  0  0  0
   -6.5680   -2.6800    1.2970 S   0  0  2  0  0  0  0  0  0  0  0  0
   -8.2610   -2.6330    0.9680 N   0  0  0  0  0  0  0  0  0  0  0  0
   -6.3870   -3.2600    2.6650 O   0  0  0  0  0  0  0  0  0  0  0  0
   -5.8940   -3.5180    0.2580 O   0  0  0  0  0  0  0  0  0  0  0  0
   -3.6450    2.0050   -3.3940 N   0  0  0  0  0  0  0  0  0  0  0  0
   -2.5260    2.5150   -3.9410 C   0  0  0  0  0  0  0  0  0  0  0  0
   -2.5820    3.1600   -5.0130 O   0  0  0  0  0  0  0  0  0  0  0  0
   -1.3340    2.3200   -3.3150 N   0  0  0  0  0  0  0  0  0  0  0  0
    1.1910    1.8810   -1.9500 N   0  0  0  0  0  0  0  0  0  0  0  0
  1  2  1  0
  2  3  2  0
  2 37  1  0
  3  4  1  0
  3 16  1  0
  4  5  1  0
  5  6  1  6
  5 14  1  0
  6  7  1  0
  7  8  1  0
  8  9  1  0
  9 10  1  0
 10 11  2  0
 10 12  2  0
 10 13  1  1
 14 15  1  0
 16 15  1  6
 16 17  1  0
 17 18  2  0
 18 19  1  0
 18 37  1  0
 19 20  2  0
 19 36  1  0
 20 21  1  0
 21 22  1  0
 21 33  2  0
 22 23  1  0
 24 23  1  1
 24 25  1  0
 24 28  1  0
 25 26  1  0
 26 27  1  0
 27 28  1  0
 28 29  1  0
 29 30  1  6
 29 31  2  0
 29 32  2  0
 33 34  1  0
 34 35  2  0
 34 36  1  0
M  END
