
     RDKit          3D

 37 40  0  0  0  0  0  0  0  0999 V2000
    5.1620   -1.5550   -3.3590 C   0  0  0  0  0  0  0  0  0  0  0  0
    4.2470   -0.3970   -3.0240 C   0  0  2  0  0  0  0  0  0  0  0  0
    5.3320    1.0090   -2.6320 S   0  0  0  0  0  0  0  0  0  0  0  0
    6.2630    0.6970   -1.1420 C   0  0  0  0  0  0  0  0  0  0  0  0
    5.8230    1.0360    0.0850 N   0  0  0  0  0  0  0  0  0  0  0  0
    6.5700    0.7760    1.1970 C   0  0  0  0  0  0  0  0  0  0  0  0
    6.1480    1.0970    2.3370 O   0  0  0  0  0  0  0  0  0  0  0  0
    7.7670    0.1700    1.0580 N   0  0  0  0  0  0  0  0  0  0  0  0
    8.2330   -0.1800   -0.1510 C   0  0  0  0  0  0  0  0  0  0  0  0
    9.3550   -0.7460   -0.2660 O   0  0  0  0  0  0  0  0  0  0  0  0
    7.4740    0.0900   -1.2200 N   0  0  0  0  0  0  0  0  0  0  0  0
    3.4220   -0.7660   -1.8100 C   0  0  0  0  0  0  0  0  0  0  0  0
    3.6290   -1.8750   -1.2720 O   0  0  0  0  0  0  0  0  0  0  0  0
    2.4520    0.0890   -1.2850 N   0  0  0  0  0  0  0  0  0  0  0  0
    1.6170   -0.1280   -0.1550 C   0  0  0  0  0  0  0  0  0  0  0  0
    1.8050   -1.1230    0.7760 C   0  0  0  0  0  0  0  0  0  0  0  0
    0.9570   -1.3140    1.8520 C   0  0  0  0  0  0  0  0  0  0  0  0
   -0.1450   -0.4660    2.0150 C   0  0  0  0  0  0  0  0  0  0  0  0
   -0.3770    0.5350    1.1220 C   0  0  0  0  0  0  0  0  0  0  0  0
   -1.4680    1.4310    1.1870 N   0  0  0  0  0  0  0  0  0  0  0  0
   -2.5830    1.3930    2.0260 C   0  0  0  0  0  0  0  0  0  0  0  0
   -2.6750    0.4570    2.8470 O   0  0  0  0  0  0  0  0  0  0  0  0
   -3.6700    2.4130    1.9930 C   0  0  2  0  0  0  0  0  0  0  0  0
   -4.6830    2.0330    3.0460 C   0  0  0  0  0  0  0  0  0  0  0  0
   -4.3320    2.6580    0.3630 S   0  0  0  0  0  0  0  0  0  0  0  0
   -5.2380    1.3080   -0.3460 C   0  0  2  0  0  0  0  0  0  0  0  0
   -6.5640    1.0730    0.4090 C   0  0  0  0  0  0  0  0  0  0  0  0
   -7.0300    1.7760    1.2340 O   0  0  0  0  0  0  0  0  0  0  0  0
   -7.2160   -0.1720   -0.0310 N   0  0  0  0  0  0  0  0  0  0  0  0
   -6.2890   -1.2290    0.0800 C   0  0  0  0  0  0  0  0  0  0  0  0
   -6.2320   -2.3830   -0.5130 N   0  0  0  0  0  0  0  0  0  0  0  0
   -5.2370   -2.2030   -1.6320 N   0  0  0  0  0  0  0  0  0  0  0  0
   -4.7270   -0.8450   -1.6480 C   0  0  0  0  0  0  0  0  0  0  0  0
   -4.5000   -0.3360   -2.8000 O   0  0  0  0  0  0  0  0  0  0  0  0
   -4.4420    0.0130   -0.4730 C   0  0  2  0  0  0  0  0  0  0  0  0
   -4.9990   -0.8290    0.6330 N   0  0  0  0  0  0  0  0  0  0  0  0
    0.5160    0.6830    0.0500 C   0  0  0  0  0  0  0  0  0  0  0  0
  2  1  1  1
  2  3  1  0
  2 12  1  0
  3  4  1  0
  4  5  2  0
  4 11  1  0
  5  6  1  0
  6  7  2  0
  6  8  1  0
  8  9  1  0
  9 10  2  0
  9 11  1  0
 12 13  2  0
 12 14  1  0
 14 15  1  0
 15 16  2  0
 15 37  1  0
 16 17  1  0
 17 18  2  0
 18 19  1  0
 19 20  1  0
 19 37  2  0
 20 21  1  0
 21 22  2  0
 21 23  1  0
 23 24  1  1
 23 25  1  0
 26 25  1  1
 26 27  1  0
 26 35  1  0
 27 28  2  0
 27 29  1  0
 29 30  1  0
 30 31  2  0
 30 36  1  0
 31 32  1  0
 32 33  1  0
 33 34  2  0
 35 33  1  6
 35 36  1  0
M  END
