
     RDKit          3D

 34 37  0  0  0  0  0  0  0  0999 V2000
   -2.6970   -0.0520   -3.1990 C   0  0  0  0  0  0  0  0  0  0  0  0
   -2.3740    0.2220   -1.8520 O   0  0  0  0  0  0  0  0  0  0  0  0
   -2.8630   -0.5440   -0.8010 C   0  0  0  0  0  0  0  0  0  0  0  0
   -3.7020   -1.6200   -1.0910 C   0  0  0  0  0  0  0  0  0  0  0  0
   -4.2370   -2.4380   -0.1300 C   0  0  0  0  0  0  0  0  0  0  0  0
   -3.9200   -2.1700    1.1960 C   0  0  0  0  0  0  0  0  0  0  0  0
   -4.6010   -3.2170    2.4760 S   0  0  0  0  0  0  0  0  0  0  0  0
   -3.0920   -1.1090    1.4900 C   0  0  0  0  0  0  0  0  0  0  0  0
   -2.5600   -0.2940    0.5160 C   0  0  0  0  0  0  0  0  0  0  0  0
   -1.6760    0.8490    0.8850 C   0  0  1  0  0  0  0  0  0  0  0  0
   -0.3260    0.7530    0.2490 C   0  0  0  0  0  0  0  0  0  0  0  0
    0.3010   -0.4790    0.6870 N   0  0  0  0  0  0  0  0  0  0  0  0
    1.3760   -0.1590    1.5720 C   0  0  0  0  0  0  0  0  0  0  0  0
    2.7050   -0.6100    1.1080 C   0  0  0  0  0  0  0  0  0  0  0  0
    3.4900   -1.5370    1.7670 C   0  0  0  0  0  0  0  0  0  0  0  0
    4.7280   -1.9080    1.2600 C   0  0  0  0  0  0  0  0  0  0  0  0
    5.2290   -1.3770    0.0870 C   0  0  0  0  0  0  0  0  0  0  0  0
    6.5260   -1.7640   -0.4520 C   0  0  0  0  0  0  0  0  0  0  0  0
    7.0560   -1.2620   -1.6220 C   0  0  0  0  0  0  0  0  0  0  0  0
    8.2660   -1.8450   -1.8120 N   0  0  0  0  0  0  0  0  0  0  0  0
    8.5080   -2.6840   -0.8140 C   0  0  0  0  0  0  0  0  0  0  0  0
    7.4430   -2.6250    0.0050 N   0  0  0  0  0  0  0  0  0  0  0  0
    4.4400   -0.4770   -0.5310 N   0  0  0  0  0  0  0  0  0  0  0  0
    3.2360   -0.1000   -0.0600 C   0  0  0  0  0  0  0  0  0  0  0  0
   -2.4070    2.0850    0.6570 C   0  0  0  0  0  0  0  0  0  0  0  0
   -3.6460    2.1980    1.3000 C   0  0  0  0  0  0  0  0  0  0  0  0
   -4.4050    3.3320    1.1430 C   0  0  0  0  0  0  0  0  0  0  0  0
   -5.7100    3.4760    1.7930 C   0  0  0  0  0  0  0  0  0  0  0  0
   -6.7250    3.5730    2.2840 N   0  0  0  0  0  0  0  0  0  0  0  0
   -3.9980    4.3930    0.3650 C   0  0  0  0  0  0  0  0  0  0  0  0
   -4.9740    5.8340    0.1730 Cl  0  0  0  0  0  0  0  0  0  0  0  0
   -2.7810    4.3020   -0.2760 C   0  0  0  0  0  0  0  0  0  0  0  0
   -2.0160    3.1460   -0.1120 C   0  0  0  0  0  0  0  0  0  0  0  0
   -0.7760    3.0360   -0.7570 O   0  0  0  0  0  0  0  0  0  0  0  0
  1  2  1  0
  2  3  1  0
  3  4  2  0
  3  9  1  0
  4  5  1  0
  5  6  2  0
  6  7  1  0
  6  8  1  0
  8  9  2  0
  9 10  1  0
 10 11  1  6
 10 25  1  0
 11 12  1  0
 12 13  1  0
 13 14  1  0
 14 15  2  0
 14 24  1  0
 15 16  1  0
 16 17  2  0
 17 18  1  0
 17 23  1  0
 18 19  2  0
 18 22  1  0
 19 20  1  0
 20 21  1  0
 21 22  2  0
 23 24  2  0
 25 26  2  0
 25 33  1  0
 26 27  1  0
 27 28  1  0
 27 30  2  0
 28 29  3  0
 30 31  1  0
 30 32  1  0
 32 33  2  0
 33 34  1  0
M  CHG  1  12   1
M  END
