
     RDKit          3D

 35 37  0  0  0  0  0  0  0  0999 V2000
    0.7580    3.1110    3.1970 C   0  0  0  0  0  0  0  0  0  0  0  0
    0.8160    3.0030    1.7130 C   0  0  0  0  0  0  0  0  0  0  0  0
    0.7470    4.0690    1.0600 O   0  0  0  0  0  0  0  0  0  0  0  0
    0.9440    1.7250    1.1100 N   0  0  0  0  0  0  0  0  0  0  0  0
    0.9980    1.6290   -0.3110 C   0  0  1  0  0  0  0  0  0  0  0  0
    2.3580    1.0580   -0.7750 C   0  0  1  0  0  0  0  0  0  0  0  0
    2.3260   -0.2950   -0.5570 O   0  0  0  0  0  0  0  0  0  0  0  0
    3.2010   -0.9870    0.2390 C   0  0  0  0  0  0  0  0  0  0  0  0
    4.2410   -0.4270    0.9380 C   0  0  0  0  0  0  0  0  0  0  0  0
    5.0940   -1.2060    1.7330 C   0  0  0  0  0  0  0  0  0  0  0  0
    4.9290   -2.5650    1.8490 C   0  0  0  0  0  0  0  0  0  0  0  0
    5.8050   -3.3390    2.6610 N   0  0  0  0  0  0  0  0  0  0  0  0
    5.6650   -4.5710    2.7740 O   0  0  0  0  0  0  0  0  0  0  0  0
    6.8150   -2.7300    3.3280 O   0  0  0  0  0  0  0  0  0  0  0  0
    3.8890   -3.1400    1.1540 C   0  0  0  0  0  0  0  0  0  0  0  0
    3.0590   -2.3820    0.3800 C   0  0  0  0  0  0  0  0  0  0  0  0
    2.4700    1.4320   -2.0990 O   0  0  0  0  0  0  0  0  0  0  0  0
    1.5050    1.0100   -2.9370 C   0  0  2  0  0  0  0  0  0  0  0  0
    1.4600    2.0050   -4.1100 C   0  0  0  0  0  0  0  0  0  0  0  0
    1.1640    3.2830   -3.5880 O   0  0  0  0  0  0  0  0  0  0  0  0
    0.1390    0.8410   -2.4380 C   0  0  2  0  0  0  0  0  0  0  0  0
   -0.7120    1.8960   -2.8470 O   0  0  0  0  0  0  0  0  0  0  0  0
   -0.0120    0.7350   -0.9420 C   0  0  2  0  0  0  0  0  0  0  0  0
   -1.3240    0.9980   -0.6330 O   0  0  0  0  0  0  0  0  0  0  0  0
   -2.0300   -0.0710   -0.1310 C   0  0  2  0  0  0  0  0  0  0  0  0
   -3.0450   -0.3730   -1.0350 O   0  0  0  0  0  0  0  0  0  0  0  0
   -3.7020   -1.5450   -0.7430 C   0  0  2  0  0  0  0  0  0  0  0  0
   -4.9970   -1.5360   -1.5690 C   0  0  0  0  0  0  0  0  0  0  0  0
   -5.6910   -2.7310   -1.2870 O   0  0  0  0  0  0  0  0  0  0  0  0
   -3.9680   -1.8220    0.6730 C   0  0  2  0  0  0  0  0  0  0  0  0
   -5.3700   -1.8460    0.8700 O   0  0  0  0  0  0  0  0  0  0  0  0
   -3.3780   -0.9290    1.6840 C   0  0  2  0  0  0  0  0  0  0  0  0
   -4.3140   -0.4930    2.6510 O   0  0  0  0  0  0  0  0  0  0  0  0
   -2.7300    0.3310    1.1470 C   0  0  1  0  0  0  0  0  0  0  0  0
   -1.9100    0.8820    2.0970 O   0  0  0  0  0  0  0  0  0  0  0  0
  1  2  1  0
  2  3  2  0
  2  4  1  0
  5  4  1  1
  5  6  1  0
  5 23  1  0
  6  7  1  6
  6 17  1  0
  7  8  1  0
  8  9  2  0
  8 16  1  0
  9 10  1  0
 10 11  2  0
 11 12  1  0
 11 15  1  0
 12 13  2  0
 12 14  1  0
 15 16  2  0
 17 18  1  0
 18 19  1  6
 18 21  1  0
 19 20  1  0
 21 22  1  1
 21 23  1  0
 23 24  1  6
 25 24  1  6
 25 26  1  0
 25 34  1  0
 26 27  1  0
 27 28  1  6
 27 30  1  0
 28 29  1  0
 30 31  1  6
 30 32  1  0
 32 33  1  1
 32 34  1  0
 34 35  1  1
M  CHG  2  12   1  14  -1
M  END
