
     RDKit          3D

 32 32  0  0  0  0  0  0  0  0999 V2000
    7.5430    1.8920   -0.0770 C   0  0  0  0  0  0  0  0  0  0  0  0
    6.4800    1.0150   -0.3330 O   0  0  0  0  0  0  0  0  0  0  0  0
    6.3690   -0.1470    0.4200 C   0  0  0  0  0  0  0  0  0  0  0  0
    7.2430   -0.3460    1.3020 O   0  0  0  0  0  0  0  0  0  0  0  0
    5.2990   -1.1340    0.2390 C   0  0  1  0  0  0  0  0  0  0  0  0
    5.4800   -2.1700    1.1510 O   0  0  0  0  0  0  0  0  0  0  0  0
    4.0290   -0.5920    0.3530 O   0  0  0  0  0  0  0  0  0  0  0  0
    3.3280   -0.7700   -0.8290 C   0  0  0  0  0  0  0  0  0  0  0  0
    1.9230   -0.1750   -0.7090 C   0  0  1  0  0  0  0  0  0  0  0  0
    2.1180    1.1780   -0.4410 O   0  0  0  0  0  0  0  0  0  0  0  0
    1.2280   -0.4030   -2.0440 C   0  0  0  0  0  0  0  0  0  0  0  0
    0.7480    0.7860   -2.5540 O   0  0  0  0  0  0  0  0  0  0  0  0
   -0.3720    1.5190   -2.3600 C   0  0  0  0  0  0  0  0  0  0  0  0
   -0.7840    2.2270   -3.3530 O   0  0  0  0  0  0  0  0  0  0  0  0
   -1.1970    1.6180   -1.1400 C   0  0  0  0  0  0  0  0  0  0  0  0
   -2.5190    0.8850   -1.2000 C   0  0  1  0  0  0  0  0  0  0  0  0
   -3.4750    1.8550   -1.9060 C   0  0  0  0  0  0  0  0  0  0  0  0
   -3.5630    3.0210   -1.1680 O   0  0  0  0  0  0  0  0  0  0  0  0
   -2.5520   -0.3050   -2.0960 C   0  0  0  0  0  0  0  0  0  0  0  0
   -2.2600    0.1050   -3.3950 O   0  0  0  0  0  0  0  0  0  0  0  0
   -3.1060    0.6500    0.1600 C   0  0  2  0  0  0  0  0  0  0  0  0
   -2.6650    1.7130    0.9540 O   0  0  0  0  0  0  0  0  0  0  0  0
   -2.8730   -0.6520    0.8030 C   0  0  2  0  0  0  0  0  0  0  0  0
   -4.0720   -0.9800    1.6610 C   0  0  0  0  0  0  0  0  0  0  0  0
   -4.3650   -0.0020    2.7350 C   0  0  0  0  0  0  0  0  0  0  0  0
   -5.4970   -0.4100    3.4770 O   0  0  0  0  0  0  0  0  0  0  0  0
   -1.6600   -0.8670    1.6130 C   0  0  1  0  0  0  0  0  0  0  0  0
   -1.9560   -1.3340    2.9210 O   0  0  0  0  0  0  0  0  0  0  0  0
   -0.7390   -1.9580    1.0690 C   0  0  2  0  0  0  0  0  0  0  0  0
   -0.0300   -2.5780    2.0780 O   0  0  0  0  0  0  0  0  0  0  0  0
    0.0540   -1.5110    0.0200 O   0  0  0  0  0  0  0  0  0  0  0  0
    1.1950   -0.8340    0.4310 C   0  0  0  0  0  0  0  0  0  0  0  0
  1  2  1  0
  2  3  1  0
  3  4  2  0
  3  5  1  0
  5  6  1  1
  5  7  1  0
  7  8  1  0
  8  9  1  0
  9 10  1  1
  9 11  1  0
  9 32  1  0
 11 12  1  0
 12 13  1  0
 13 14  2  0
 13 15  1  0
 15 16  1  0
 16 17  1  6
 16 19  1  0
 16 21  1  0
 17 18  1  0
 19 20  1  0
 21 22  1  1
 21 23  1  0
 23 24  1  1
 23 27  1  0
 24 25  1  0
 25 26  1  0
 27 28  1  1
 27 29  1  0
 29 30  1  1
 29 31  1  0
 31 32  1  0
M  END
