
     RDKit          3D

 22 24  0  0  0  0  0  0  0  0999 V2000
    8.0630    1.0520   -1.7100 C   0  0  0  0  0  0  0  0  0  0  0  0
    7.2100    0.4010   -0.7670 O   0  0  0  0  0  0  0  0  0  0  0  0
    5.8350    0.5310   -0.9040 C   0  0  0  0  0  0  0  0  0  0  0  0
    5.3620    1.2130   -1.8460 O   0  0  0  0  0  0  0  0  0  0  0  0
    4.9000   -0.1000    0.0140 C   0  0  0  0  0  0  0  0  0  0  0  0
    5.3780   -0.7820    0.9570 O   0  0  0  0  0  0  0  0  0  0  0  0
    3.5070    0.0440   -0.1410 N   0  0  0  0  0  0  0  0  0  0  0  0
    2.6260   -0.5870    0.7750 C   0  0  0  0  0  0  0  0  0  0  0  0
    1.1810   -0.3180    0.4460 C   0  0  0  0  0  0  0  0  0  0  0  0
    0.9620    0.3950   -0.5480 O   0  0  0  0  0  0  0  0  0  0  0  0
    0.1290   -0.8350    1.2090 N   0  0  0  0  0  0  0  0  0  0  0  0
   -1.2640   -0.6500    0.9950 C   0  0  0  0  0  0  0  0  0  0  0  0
   -1.8250    0.0820   -0.0160 C   0  0  0  0  0  0  0  0  0  0  0  0
   -3.1940    0.2530   -0.2090 C   0  0  0  0  0  0  0  0  0  0  0  0
   -4.0500   -0.3500    0.6660 C   0  0  0  0  0  0  0  0  0  0  0  0
   -3.5190   -1.0970    1.6980 C   0  0  0  0  0  0  0  0  0  0  0  0
   -2.1720   -1.2550    1.8760 C   0  0  0  0  0  0  0  0  0  0  0  0
   -1.6470   -2.0380    2.9590 N   0  0  0  0  0  0  0  0  0  0  0  0
   -5.4670   -0.0580    0.3040 C   0  0  1  0  0  0  0  0  0  0  0  0
   -5.9760    1.3230    0.2530 C   0  0  0  0  0  0  0  0  0  0  0  0
   -5.3870    0.6380   -0.9830 C   0  0  1  0  0  0  0  0  0  0  0  0
   -3.9690    1.0140   -1.2520 C   0  0  0  0  0  0  0  0  0  0  0  0
  1  2  1  0
  2  3  1  0
  3  4  2  0
  3  5  1  0
  5  6  2  0
  5  7  1  0
  7  8  1  0
  8  9  1  0
  9 10  2  0
  9 11  1  0
 11 12  1  0
 12 13  2  0
 12 17  1  0
 13 14  1  0
 14 15  2  0
 14 22  1  0
 15 16  1  0
 15 19  1  0
 16 17  2  0
 17 18  1  0
 19 20  1  1
 19 21  1  0
 21 20  1  1
 21 22  1  0
M  END
