
     RDKit          3D

 21 23  0  0  0  0  0  0  0  0999 V2000
    4.8690   -0.4240    2.1870 C   0  0  0  0  0  0  0  0  0  0  0  0
    3.5110   -0.5960    1.6200 C   0  0  0  0  0  0  0  0  0  0  0  0
    3.2020   -0.1590    0.3940 C   0  0  0  0  0  0  0  0  0  0  0  0
    4.2810    0.5060   -0.3720 C   0  0  0  0  0  0  0  0  0  0  0  0
    3.8410    0.9490   -1.7130 C   0  0  0  0  0  0  0  0  0  0  0  0
    2.6090    0.7520   -2.1350 C   0  0  0  0  0  0  0  0  0  0  0  0
    1.5960    0.0870   -1.3180 C   0  0  0  0  0  0  0  0  0  0  0  0
    0.2790   -0.1170   -1.8130 N   0  0  0  0  0  0  0  0  0  0  0  0
   -0.8220   -0.0050   -0.9580 C   0  0  0  0  0  0  0  0  0  0  0  0
   -0.8190    0.4590    0.3180 C   0  0  0  0  0  0  0  0  0  0  0  0
   -2.0060    0.5010    1.0560 C   0  0  0  0  0  0  0  0  0  0  0  0
   -3.1920    0.0760    0.5100 C   0  0  0  0  0  0  0  0  0  0  0  0
   -4.3210    0.1430    1.2870 C   0  0  0  0  0  0  0  0  0  0  0  0
   -4.3810    0.5950    2.5640 O   0  0  0  0  0  0  0  0  0  0  0  0
   -5.5140   -0.2970    0.7030 C   0  0  0  0  0  0  0  0  0  0  0  0
   -5.5250   -0.7680   -0.5910 C   0  0  0  0  0  0  0  0  0  0  0  0
   -6.6020   -1.1740   -1.1420 O   0  0  0  0  0  0  0  0  0  0  0  0
   -4.4000   -0.8160   -1.3130 N   0  0  0  0  0  0  0  0  0  0  0  0
   -3.2240   -0.3960   -0.7760 C   0  0  0  0  0  0  0  0  0  0  0  0
   -2.0520   -0.4300   -1.4850 C   0  0  0  0  0  0  0  0  0  0  0  0
    1.8970   -0.3270   -0.1460 N   0  0  0  0  0  0  0  0  0  0  0  0
  1  2  1  0
  2  3  2  3
  3  4  1  0
  3 21  1  0
  4  5  1  0
  5  6  2  0
  6  7  1  0
  7  8  1  0
  7 21  2  0
  8  9  1  0
  9 10  2  0
  9 20  1  0
 10 11  1  0
 11 12  2  0
 12 13  1  0
 12 19  1  0
 13 14  1  0
 13 15  2  0
 15 16  1  0
 16 17  2  0
 16 18  1  0
 18 19  1  0
 19 20  2  0
M  END
