
     RDKit          3D

 22 23  0  0  0  0  0  0  0  0999 V2000
    7.2340    0.0390    1.6240 C   0  0  0  0  0  0  0  0  0  0  0  0
    6.7010   -0.1120    0.3410 O   0  0  0  0  0  0  0  0  0  0  0  0
    5.3410   -0.0770    0.0800 C   0  0  0  0  0  0  0  0  0  0  0  0
    4.4680    0.1160    1.1290 C   0  0  0  0  0  0  0  0  0  0  0  0
    3.1070    0.1460    0.8290 C   0  0  0  0  0  0  0  0  0  0  0  0
    2.6150   -0.0050   -0.4350 C   0  0  0  0  0  0  0  0  0  0  0  0
    1.2450    0.0110   -0.7730 N   0  0  0  0  0  0  0  0  0  0  0  0
    0.1690    0.0640    0.1130 C   0  0  0  0  0  0  0  0  0  0  0  0
    0.3480    0.0970    1.3440 O   0  0  0  0  0  0  0  0  0  0  0  0
   -1.2010    0.0810   -0.3570 N   0  0  0  0  0  0  0  0  0  0  0  0
   -2.2540    0.1360    0.6180 C   0  0  1  0  0  0  0  0  0  0  0  0
   -3.0870    1.3730    0.5010 C   0  0  0  0  0  0  0  0  0  0  0  0
   -4.1390    1.3210   -0.5570 C   0  0  0  0  0  0  0  0  0  0  0  0
   -4.9990    0.0950   -0.4080 C   0  0  2  0  0  0  0  0  0  0  0  0
   -5.7470    0.2050    0.8550 C   0  0  0  0  0  0  0  0  0  0  0  0
   -5.4140   -0.2990    1.9110 O   0  0  0  0  0  0  0  0  0  0  0  0
   -4.1310   -1.1220   -0.4790 C   0  0  1  0  0  0  0  0  0  0  0  0
   -3.5840   -1.2760   -1.7980 N   0  0  0  0  0  0  0  0  0  0  0  0
   -3.0340   -1.1430    0.5330 C   0  0  0  0  0  0  0  0  0  0  0  0
    3.5370   -0.1980   -1.4650 C   0  0  0  0  0  0  0  0  0  0  0  0
    4.8760   -0.2330   -1.2100 C   0  0  0  0  0  0  0  0  0  0  0  0
    5.7850   -0.4250   -2.2380 O   0  0  0  0  0  0  0  0  0  0  0  0
  1  2  1  0
  2  3  1  0
  3  4  2  0
  3 21  1  0
  4  5  1  0
  5  6  2  0
  6  7  1  0
  6 20  1  0
  7  8  1  0
  8  9  2  0
  8 10  1  0
 11 10  1  6
 11 12  1  0
 11 19  1  0
 12 13  1  0
 13 14  1  0
 14 15  1  1
 14 17  1  0
 15 16  2  0
 17 18  1  6
 17 19  1  0
 20 21  2  0
 21 22  1  0
M  END
