
     RDKit          3D

 21 24  0  0  0  0  0  0  0  0999 V2000
    0.3040    1.2170    1.8440 O   0  0  0  0  0  0  0  0  0  0  0  0
   -0.5640    0.7620    1.0690 C   0  0  0  0  0  0  0  0  0  0  0  0
   -1.8700    1.0140    1.3390 N   0  0  0  0  0  0  0  0  0  0  0  0
   -2.8850    0.5780    0.5940 C   0  0  0  0  0  0  0  0  0  0  0  0
   -4.2100    0.8470    0.8880 C   0  0  0  0  0  0  0  0  0  0  0  0
   -5.2490    0.3910    0.1130 C   0  0  0  0  0  0  0  0  0  0  0  0
   -4.9830   -0.3670   -1.0080 C   0  0  0  0  0  0  0  0  0  0  0  0
   -3.6640   -0.6510   -1.3240 C   0  0  0  0  0  0  0  0  0  0  0  0
   -2.6360   -0.1800   -0.5280 C   0  0  0  0  0  0  0  0  0  0  0  0
   -1.3240   -0.4510   -0.8270 C   0  0  0  0  0  0  0  0  0  0  0  0
   -0.7750   -1.1740   -1.8150 N   0  0  0  0  0  0  0  0  0  0  0  0
    0.5250   -1.1840   -1.6930 N   0  0  0  0  0  0  0  0  0  0  0  0
    0.9070   -0.4520   -0.5980 C   0  0  0  0  0  0  0  0  0  0  0  0
    2.2820   -0.3140   -0.1500 C   0  0  0  0  0  0  0  0  0  0  0  0
    3.1600   -1.3730   -0.4670 C   0  0  0  0  0  0  0  0  0  0  0  0
    4.5000   -1.3530   -0.1830 C   0  0  0  0  0  0  0  0  0  0  0  0
    5.0760   -0.2690    0.4440 C   0  0  0  0  0  0  0  0  0  0  0  0
    4.2540    0.7750    0.7640 C   0  0  0  0  0  0  0  0  0  0  0  0
    4.7950    1.8810    1.3940 O   0  0  0  0  0  0  0  0  0  0  0  0
    2.8760    0.7420    0.4640 C   0  0  0  0  0  0  0  0  0  0  0  0
   -0.2540    0.0130   -0.0400 C   0  0  0  0  0  0  0  0  0  0  0  0
  1  2  2  0
  2  3  1  0
  2 21  1  0
  3  4  1  0
  4  5  2  0
  4  9  1  0
  5  6  1  0
  6  7  2  0
  7  8  1  0
  8  9  2  0
  9 10  1  0
 10 11  2  0
 10 21  1  0
 11 12  1  0
 12 13  1  0
 13 14  1  0
 13 21  2  0
 14 15  2  0
 14 20  1  0
 15 16  1  0
 16 17  2  0
 17 18  1  0
 18 19  1  0
 18 20  2  0
M  END
