
     RDKit          3D

 22 23  0  0  0  0  0  0  0  0999 V2000
   -1.4110    1.1040   -1.7410 C   0  0  0  0  0  0  0  0  0  0  0  0
   -1.5870    0.6350   -0.3540 C   0  0  0  0  0  0  0  0  0  0  0  0
   -2.9350    0.7840    0.2370 C   0  0  0  0  0  0  0  0  0  0  0  0
   -3.9860    0.0230   -0.5450 C   0  0  0  0  0  0  0  0  0  0  0  0
   -5.3420    0.2180    0.1020 C   0  0  2  0  0  0  0  0  0  0  0  0
   -5.3710   -0.2730    1.5190 C   0  0  0  0  0  0  0  0  0  0  0  0
   -6.4130   -0.4380   -0.7380 C   0  0  0  0  0  0  0  0  0  0  0  0
   -0.6240    0.1120    0.3400 C   0  0  0  0  0  0  0  0  0  0  0  0
   -0.9270   -0.3280    1.7560 C   0  0  0  0  0  0  0  0  0  0  0  0
    0.7310   -0.1290   -0.1340 C   0  0  0  0  0  0  0  0  0  0  0  0
    1.7660    0.3660    0.6680 C   0  0  0  0  0  0  0  0  0  0  0  0
    3.0570    0.1320    0.2650 C   0  0  0  0  0  0  0  0  0  0  0  0
    4.1310    0.5940    1.0120 C   0  0  0  0  0  0  0  0  0  0  0  0
    5.4370    0.3760    0.6350 C   0  0  0  0  0  0  0  0  0  0  0  0
    6.5490    0.9000    1.4830 C   0  0  0  0  0  0  0  0  0  0  0  0
    5.7020   -0.3290   -0.5300 C   0  0  0  0  0  0  0  0  0  0  0  0
    4.6570   -0.8010   -1.2940 C   0  0  0  0  0  0  0  0  0  0  0  0
    4.9260   -1.5560   -2.5460 C   0  0  0  0  0  0  0  0  0  0  0  0
    3.3460   -0.5630   -0.8840 C   0  0  0  0  0  0  0  0  0  0  0  0
    2.3440   -1.0020   -1.5940 O   0  0  0  0  0  0  0  0  0  0  0  0
    1.0830   -0.8140   -1.2640 C   0  0  0  0  0  0  0  0  0  0  0  0
    0.1550   -1.2780   -2.0080 O   0  0  0  0  0  0  0  0  0  0  0  0
  1  2  1  0
  2  3  1  0
  2  8  2  3
  3  4  1  0
  4  5  1  0
  5  6  1  1
  5  7  1  0
  8  9  1  0
  8 10  1  0
 10 11  2  0
 10 21  1  0
 11 12  1  0
 12 13  2  0
 12 19  1  0
 13 14  1  0
 14 15  1  0
 14 16  2  0
 16 17  1  0
 17 18  1  0
 17 19  2  0
 19 20  1  0
 20 21  1  0
 21 22  2  0
M  END
