
     RDKit          3D

 23 24  0  0  0  0  0  0  0  0999 V2000
    3.7680    1.6090    2.2590 C   0  0  0  0  0  0  0  0  0  0  0  0
    3.4540    0.0920    2.1580 C   0  0  0  0  0  0  0  0  0  0  0  0
    2.4380   -0.0790    1.1030 C   0  0  0  0  0  0  0  0  0  0  0  0
    1.1040   -0.1340    1.5650 C   0  0  0  0  0  0  0  0  0  0  0  0
    0.0340   -0.1410    0.7030 C   0  0  0  0  0  0  0  0  0  0  0  0
   -1.3410   -0.2140    1.2330 C   0  0  0  0  0  0  0  0  0  0  0  0
   -1.5470   -0.3180    2.4650 O   0  0  0  0  0  0  0  0  0  0  0  0
   -2.4580   -0.1620    0.3070 C   0  0  0  0  0  0  0  0  0  0  0  0
   -3.7220   -0.2320    0.6750 C   0  0  0  0  0  0  0  0  0  0  0  0
   -4.0450   -0.3740    2.1260 C   0  0  0  0  0  0  0  0  0  0  0  0
   -4.7870   -0.1720   -0.3450 C   0  0  2  0  0  0  0  0  0  0  0  0
   -5.6700    1.0320    0.0210 C   0  0  0  0  0  0  0  0  0  0  0  0
   -5.6170   -1.4370   -0.4070 C   0  0  0  0  0  0  0  0  0  0  0  0
   -4.2070    0.1020   -1.7080 C   0  0  0  0  0  0  0  0  0  0  0  0
    0.3300   -0.0930   -0.6280 C   0  0  0  0  0  0  0  0  0  0  0  0
    1.6240   -0.0420   -1.0930 C   0  0  0  0  0  0  0  0  0  0  0  0
    2.7380   -0.0360   -0.2140 C   0  0  0  0  0  0  0  0  0  0  0  0
    4.0600   -0.1420   -0.8200 C   0  0  0  0  0  0  0  0  0  0  0  0
    4.2850    0.4420   -2.0060 C   0  0  0  0  0  0  0  0  0  0  0  0
    5.5710    0.4070   -2.7230 C   0  0  0  0  0  0  0  0  0  0  0  0
    6.4990   -0.4570   -2.1440 O   0  0  0  0  0  0  0  0  0  0  0  0
    6.3230   -1.0870   -0.9340 C   0  0  0  0  0  0  0  0  0  0  0  0
    5.1450   -0.9300   -0.3030 C   0  0  0  0  0  0  0  0  0  0  0  0
  1  2  1  0
  2  3  1  0
  3  4  2  0
  3 17  1  0
  4  5  1  0
  5  6  1  0
  5 15  2  0
  6  7  2  0
  6  8  1  0
  8  9  2  3
  9 10  1  0
  9 11  1  0
 11 12  1  1
 11 13  1  0
 11 14  1  0
 15 16  1  0
 16 17  2  0
 17 18  1  0
 18 19  2  0
 18 23  1  0
 19 20  1  0
 20 21  1  0
 21 22  1  0
 22 23  2  0
M  END
