
     RDKit          3D

 23 25  0  0  0  0  0  0  0  0999 V2000
   -4.9570    2.2510   -0.3490 C   0  0  0  0  0  0  0  0  0  0  0  0
   -3.7830    1.3540   -0.1820 C   0  0  0  0  0  0  0  0  0  0  0  0
   -3.9870    0.0430   -0.1850 C   0  0  0  0  0  0  0  0  0  0  0  0
   -5.3750   -0.4830   -0.3580 C   0  0  0  0  0  0  0  0  0  0  0  0
   -2.8840   -0.9320    0.0140 C   0  0  1  0  0  0  0  0  0  0  0  0
   -3.1080   -1.6120    1.2470 O   0  0  0  0  0  0  0  0  0  0  0  0
   -2.7270   -1.9610   -1.0740 C   0  0  0  0  0  0  0  0  0  0  0  0
   -1.5910   -2.8800   -0.7080 C   0  0  0  0  0  0  0  0  0  0  0  0
   -0.4900   -2.3100    0.1230 C   0  0  0  0  0  0  0  0  0  0  0  0
   -0.4330   -0.8270    0.1180 C   0  0  0  0  0  0  0  0  0  0  0  0
   -1.5940   -0.2280    0.0640 C   0  0  0  0  0  0  0  0  0  0  0  0
   -1.3640    1.1870    0.0630 C   0  0  0  0  0  0  0  0  0  0  0  0
   -2.4570    1.9470   -0.0560 C   0  0  0  0  0  0  0  0  0  0  0  0
    0.0930    1.4200    0.1300 C   0  0  0  0  0  0  0  0  0  0  0  0
    0.7510    2.7380    0.1550 C   0  0  0  0  0  0  0  0  0  0  0  0
    0.6340    0.1930    0.1620 C   0  0  0  0  0  0  0  0  0  0  0  0
    2.0370   -0.1620    0.2270 C   0  0  0  0  0  0  0  0  0  0  0  0
    2.3490   -1.3930    0.2500 O   0  0  0  0  0  0  0  0  0  0  0  0
    3.1350    0.8060    0.2700 C   0  0  0  0  0  0  0  0  0  0  0  0
    4.4920    0.1100    0.3450 C   0  0  1  0  0  0  0  0  0  0  0  0
    4.7270   -0.7820   -0.8480 C   0  0  0  0  0  0  0  0  0  0  0  0
    5.5700    1.1830    0.3380 C   0  0  0  0  0  0  0  0  0  0  0  0
    4.6460   -0.6880    1.6020 C   0  0  0  0  0  0  0  0  0  0  0  0
  1  2  1  0
  2  3  2  0
  2 13  1  0
  3  4  1  0
  3  5  1  0
  5  6  1  1
  5  7  1  0
  5 11  1  0
  7  8  1  0
  8  9  1  0
  9 10  1  0
 10 11  2  0
 10 16  1  0
 11 12  1  0
 12 13  2  0
 12 14  1  0
 14 15  1  0
 14 16  2  0
 16 17  1  0
 17 18  2  0
 17 19  1  0
 19 20  1  0
 20 21  1  6
 20 22  1  0
 20 23  1  0
M  END
