
     RDKit          3D

 28 30  0  0  0  0  0  0  0  0999 V2000
    7.6600   -1.0110    0.7680 C   0  0  0  0  0  0  0  0  0  0  0  0
    7.5160   -0.2880   -0.5410 C   0  0  0  0  0  0  0  0  0  0  0  0
    6.1510    0.1790   -0.8020 C   0  0  0  0  0  0  0  0  0  0  0  0
    5.1880   -0.7300   -1.2010 C   0  0  0  0  0  0  0  0  0  0  0  0
    5.5930   -2.1570   -1.3430 C   0  0  0  0  0  0  0  0  0  0  0  0
    3.8930   -0.3700   -1.4610 C   0  0  0  0  0  0  0  0  0  0  0  0
    3.5090    0.9670   -1.3220 C   0  0  0  0  0  0  0  0  0  0  0  0
    2.1620    1.3760   -1.5800 C   0  0  0  0  0  0  0  0  0  0  0  0
    1.0930    0.9710   -0.8620 C   0  0  0  0  0  0  0  0  0  0  0  0
   -0.2440    1.3930   -1.1620 C   0  0  0  0  0  0  0  0  0  0  0  0
   -1.2100    0.9620   -0.4010 C   0  0  0  0  0  0  0  0  0  0  0  0
   -2.6490    1.2850   -0.5250 C   0  0  0  0  0  0  0  0  0  0  0  0
   -2.9440    2.0610   -1.4980 O   0  0  0  0  0  0  0  0  0  0  0  0
   -3.6650    0.8490    0.2740 N   0  0  0  0  0  0  0  0  0  0  0  0
   -3.5830    0.0080    1.4240 C   0  0  0  0  0  0  0  0  0  0  0  0
   -4.3570   -1.2750    1.1300 C   0  0  0  0  0  0  0  0  0  0  0  0
   -5.1440   -1.1520    0.0130 O   0  0  0  0  0  0  0  0  0  0  0  0
   -5.8820   -0.0010   -0.0860 C   0  0  1  0  0  0  0  0  0  0  0  0
   -6.9760    0.0700    0.9330 C   0  0  0  0  0  0  0  0  0  0  0  0
   -7.9010   -0.9480    0.8780 O   0  0  0  0  0  0  0  0  0  0  0  0
   -8.6010   -1.0710   -0.2880 C   0  0  0  0  0  0  0  0  0  0  0  0
   -5.0360    1.2710   -0.0740 C   0  0  0  0  0  0  0  0  0  0  0  0
   -0.5150   -0.2390    0.7110 S   0  0  0  0  0  0  0  0  0  0  0  0
    1.2210    0.1090    0.2910 C   0  0  0  0  0  0  0  0  0  0  0  0
    2.1460   -0.3200    1.0120 N   0  0  0  0  0  0  0  0  0  0  0  0
    4.4650    1.8550   -0.9290 N   0  0  0  0  0  0  0  0  0  0  0  0
    5.7240    1.4810   -0.6810 C   0  0  0  0  0  0  0  0  0  0  0  0
    6.6170    2.3190   -0.3130 O   0  0  0  0  0  0  0  0  0  0  0  0
  1  2  1  0
  2  3  1  0
  3  4  2  0
  3 27  1  0
  4  5  1  0
  4  6  1  0
  6  7  2  0
  7  8  1  0
  7 26  1  0
  8  9  2  3
  9 10  1  0
  9 24  1  0
 10 11  2  0
 11 12  1  0
 11 23  1  0
 12 13  2  0
 12 14  1  0
 14 15  1  0
 14 22  1  0
 15 16  1  0
 16 17  1  0
 17 18  1  0
 18 19  1  1
 18 22  1  0
 19 20  1  0
 20 21  1  0
 23 24  1  0
 24 25  2  0
 26 27  1  0
 27 28  2  0
M  END
