
     RDKit          3D

 28 31  0  0  0  0  0  0  0  0999 V2000
    3.4860    3.1150    1.4940 C   0  0  0  0  0  0  0  0  0  0  0  0
    3.7620    1.8280    0.7880 C   0  0  0  0  0  0  0  0  0  0  0  0
    5.0450    1.5220    0.3810 C   0  0  0  0  0  0  0  0  0  0  0  0
    5.3040    0.3250   -0.2750 C   0  0  0  0  0  0  0  0  0  0  0  0
    4.2980   -0.5650   -0.5280 C   0  0  0  0  0  0  0  0  0  0  0  0
    3.0360   -0.2310   -0.1110 C   0  0  0  0  0  0  0  0  0  0  0  0
    2.7380    0.9610    0.5510 C   0  0  0  0  0  0  0  0  0  0  0  0
    1.3680    1.2400    0.9610 C   0  0  0  0  0  0  0  0  0  0  0  0
    0.2330    0.4780    0.7980 C   0  0  0  0  0  0  0  0  0  0  0  0
   -0.8550    1.1380    1.3460 C   0  0  0  0  0  0  0  0  0  0  0  0
   -2.2480    0.7350    1.4150 C   0  0  0  0  0  0  0  0  0  0  0  0
   -3.1140    1.4660    1.9550 O   0  0  0  0  0  0  0  0  0  0  0  0
   -2.6550   -0.5170    0.8620 N   0  0  0  0  0  0  0  0  0  0  0  0
   -3.9950   -0.9940    0.8840 C   0  0  0  0  0  0  0  0  0  0  0  0
   -4.9710   -0.0940    0.1720 C   0  0  1  0  0  0  0  0  0  0  0  0
   -4.6410    0.0940   -1.2760 C   0  0  0  0  0  0  0  0  0  0  0  0
   -4.8140   -1.1300   -2.1120 C   0  0  0  0  0  0  0  0  0  0  0  0
   -5.6550   -2.0780   -1.5770 O   0  0  0  0  0  0  0  0  0  0  0  0
   -6.7260   -1.5180   -0.9260 C   0  0  0  0  0  0  0  0  0  0  0  0
   -6.3460   -0.7150    0.2790 C   0  0  0  0  0  0  0  0  0  0  0  0
   -0.3440    2.2840    1.8250 N   0  0  0  0  0  0  0  0  0  0  0  0
    0.9620    2.3430    1.5990 N   0  0  0  0  0  0  0  0  0  0  0  0
    4.3300   -1.7660   -1.1230 C   0  0  0  0  0  0  0  0  0  0  0  0
    5.4300   -2.5420   -1.7050 C   0  0  0  0  0  0  0  0  0  0  0  0
    6.2710   -1.7880   -2.4790 O   0  0  0  0  0  0  0  0  0  0  0  0
    7.4170   -1.0810   -1.4140 S   0  0  0  0  0  0  0  0  0  0  0  0
    8.5730   -0.5760   -2.2330 O   0  0  0  0  0  0  0  0  0  0  0  0
    6.5830    0.2590   -0.5680 C   0  0  0  0  0  0  0  0  0  0  0  0
  1  2  1  0
  2  3  2  0
  2  7  1  0
  3  4  1  0
  4  5  1  0
  4 28  2  0
  5  6  1  0
  5 23  2  0
  6  7  2  0
  7  8  1  0
  8  9  1  0
  8 22  2  0
  9 10  2  0
 10 11  1  0
 10 21  1  0
 11 12  2  0
 11 13  1  0
 13 14  1  0
 15 14  1  6
 15 16  1  0
 15 20  1  0
 16 17  1  0
 17 18  1  0
 18 19  1  0
 19 20  1  0
 21 22  1  0
 23 24  1  0
 24 25  1  0
 26 25  1  6
 26 27  2  0
 26 28  1  0
M  END
