
     RDKit          3D

 28 30  0  0  0  0  0  0  0  0999 V2000
   -9.3580    1.9350   -0.2840 C   0  0  0  0  0  0  0  0  0  0  0  0
   -8.0220    1.4470    0.2130 C   0  0  0  0  0  0  0  0  0  0  0  0
   -7.9310    0.4220    1.1090 C   0  0  0  0  0  0  0  0  0  0  0  0
   -6.5600    0.2700    1.3160 C   0  0  0  0  0  0  0  0  0  0  0  0
   -5.8900    1.1840    0.5590 C   0  0  0  0  0  0  0  0  0  0  0  0
   -4.4670    1.4510    0.4040 C   0  0  0  0  0  0  0  0  0  0  0  0
   -3.5250    0.5620    0.2120 C   0  0  0  0  0  0  0  0  0  0  0  0
   -3.6910   -0.8900    0.1110 C   0  0  0  0  0  0  0  0  0  0  0  0
   -2.2770   -1.3960    0.1050 C   0  0  1  0  0  0  0  0  0  0  0  0
   -1.7760   -1.9330    1.3910 C   0  0  0  0  0  0  0  0  0  0  0  0
   -2.1410   -2.6890   -1.1730 S   0  0  0  0  0  0  0  0  0  0  0  0
   -0.3700   -2.2420   -1.4720 C   0  0  0  0  0  0  0  0  0  0  0  0
   -0.4430   -0.7590   -1.3630 C   0  0  2  0  0  0  0  0  0  0  0  0
    0.8170   -0.0460   -1.1010 C   0  0  0  0  0  0  0  0  0  0  0  0
    0.8590    0.9180   -0.2880 O   0  0  0  0  0  0  0  0  0  0  0  0
    2.0550   -0.3920   -1.7440 N   0  0  0  0  0  0  0  0  0  0  0  0
    3.2480    0.2870   -1.5180 N   0  0  0  0  0  0  0  0  0  0  0  0
    4.3720   -0.2070   -0.8090 C   0  0  0  0  0  0  0  0  0  0  0  0
    4.3100   -1.3520   -0.3230 O   0  0  0  0  0  0  0  0  0  0  0  0
    5.5290    0.7010   -0.7100 C   0  0  0  0  0  0  0  0  0  0  0  0
    6.6390    0.2590    0.1840 C   0  0  2  0  0  0  0  0  0  0  0  0
    7.2620   -1.0460   -0.1750 C   0  0  0  0  0  0  0  0  0  0  0  0
    6.1800    0.3250    1.6290 C   0  0  0  0  0  0  0  0  0  0  0  0
    7.7860    1.2990    0.1070 C   0  0  0  0  0  0  0  0  0  0  0  0
   -1.4710   -0.3580   -0.4990 N   0  0  0  0  0  0  0  0  0  0  0  0
   -2.0700    0.8370    0.0340 C   0  0  0  0  0  0  0  0  0  0  0  0
   -1.5480    1.9420    0.3240 O   0  0  0  0  0  0  0  0  0  0  0  0
   -6.8280    1.8820   -0.1010 O   0  0  0  0  0  0  0  0  0  0  0  0
  1  2  1  0
  2  3  2  0
  2 28  1  0
  3  4  1  0
  4  5  2  0
  5  6  1  0
  5 28  1  0
  6  7  2  3
  7  8  1  0
  7 26  1  0
  8  9  1  0
  9 10  1  1
  9 11  1  0
  9 25  1  0
 11 12  1  0
 12 13  1  0
 13 14  1  1
 13 25  1  0
 14 15  2  0
 14 16  1  0
 16 17  1  0
 17 18  1  0
 18 19  2  0
 18 20  1  0
 20 21  1  0
 21 22  1  6
 21 23  1  0
 21 24  1  0
 25 26  1  0
 26 27  2  0
M  END
