
     RDKit          3D

 19 20  0  0  0  0  0  0  0  0999 V2000
    7.0240    0.6230    0.0760 N   0  0  0  0  0  0  0  0  0  0  0  0
    5.7660    0.7620    0.6890 C   0  0  0  0  0  0  0  0  0  0  0  0
    5.6400    1.1350    1.8990 O   0  0  0  0  0  0  0  0  0  0  0  0
    4.5580    0.4600   -0.1150 C   0  0  0  0  0  0  0  0  0  0  0  0
    4.7430    0.0980   -1.2980 O   0  0  0  0  0  0  0  0  0  0  0  0
    3.2840    0.5910    0.4760 N   0  0  0  0  0  0  0  0  0  0  0  0
    2.1050    0.3190   -0.2350 C   0  0  0  0  0  0  0  0  0  0  0  0
    0.8260    0.4220    0.2660 N   0  0  0  0  0  0  0  0  0  0  0  0
   -0.0230    0.0820   -0.7060 C   0  0  0  0  0  0  0  0  0  0  0  0
   -1.5120    0.0270   -0.6750 C   0  0  1  0  0  0  0  0  0  0  0  0
   -1.9450   -1.2680   -0.0630 C   0  0  0  0  0  0  0  0  0  0  0  0
   -3.3830   -1.5300   -0.4730 C   0  0  0  0  0  0  0  0  0  0  0  0
   -4.2150   -0.3930    0.0650 C   0  0  2  0  0  0  0  0  0  0  0  0
   -4.3340    0.6310   -0.8660 O   0  0  0  0  0  0  0  0  0  0  0  0
   -3.6820    0.0970    1.3890 C   0  0  0  0  0  0  0  0  0  0  0  0
   -2.4380    0.9180    1.2510 C   0  0  0  0  0  0  0  0  0  0  0  0
   -2.0580    1.1390   -0.0570 O   0  0  0  0  0  0  0  0  0  0  0  0
    0.7190   -0.2190   -1.7680 N   0  0  0  0  0  0  0  0  0  0  0  0
    2.0130   -0.0810   -1.5030 N   0  0  0  0  0  0  0  0  0  0  0  0
  1  2  1  0
  2  3  2  0
  2  4  1  0
  4  5  2  0
  4  6  1  0
  6  7  1  0
  7  8  2  0
  7 19  1  0
  8  9  1  0
 10  9  1  1
  9 18  2  0
 10 11  1  0
 10 17  1  0
 11 12  1  0
 12 13  1  0
 13 14  1  6
 13 15  1  0
 15 16  1  0
 16 17  1  0
 18 19  1  0
M  END
