
     RDKit          3D

 23 24  0  0  0  0  0  0  0  0999 V2000
    5.2310    3.0740    0.9380 C   0  0  0  0  0  0  0  0  0  0  0  0
    5.0920    1.3650    1.5340 S   0  0  0  0  0  0  0  0  0  0  0  0
    4.2940    0.3230    0.3350 C   0  0  0  0  0  0  0  0  0  0  0  0
    4.9850   -0.3460   -0.6290 N   0  0  0  0  0  0  0  0  0  0  0  0
    4.3910   -1.1200   -1.5190 C   0  0  0  0  0  0  0  0  0  0  0  0
    5.2600   -1.9860   -2.7630 Cl  0  0  0  0  0  0  0  0  0  0  0  0
    2.9940   -1.2700   -1.4850 C   0  0  0  0  0  0  0  0  0  0  0  0
    2.3470   -2.1190   -2.4610 C   0  0  0  0  0  0  0  0  0  0  0  0
    1.1430   -2.3770   -2.5950 O   0  0  0  0  0  0  0  0  0  0  0  0
    2.3100   -0.5870   -0.5030 C   0  0  0  0  0  0  0  0  0  0  0  0
    0.8980   -0.6680   -0.3790 N   0  0  0  0  0  0  0  0  0  0  0  0
    0.2680    0.0960    0.6980 C   0  0  0  0  0  0  0  0  0  0  0  0
   -1.2000   -0.0940    0.7350 C   0  0  0  0  0  0  0  0  0  0  0  0
   -1.8450   -1.2150    0.2620 C   0  0  0  0  0  0  0  0  0  0  0  0
   -3.2410   -1.3060    0.3340 C   0  0  0  0  0  0  0  0  0  0  0  0
   -3.9870   -0.2810    0.8770 C   0  0  0  0  0  0  0  0  0  0  0  0
   -5.7370   -0.3920    0.9690 S   0  0  1  0  0  0  0  0  0  0  0  0
   -6.3740    0.2680   -0.4750 N   0  0  0  0  0  0  0  0  0  0  0  0
   -6.1800   -1.8020    1.2150 O   0  0  0  0  0  0  0  0  0  0  0  0
   -6.2020    0.4330    2.1380 O   0  0  0  0  0  0  0  0  0  0  0  0
   -3.2960    0.8090    1.3330 C   0  0  0  0  0  0  0  0  0  0  0  0
   -1.9390    0.9600    1.2920 C   0  0  0  0  0  0  0  0  0  0  0  0
    2.9670    0.1980    0.3910 N   0  0  0  0  0  0  0  0  0  0  0  0
  1  2  1  0
  2  3  1  0
  3  4  2  0
  3 23  1  0
  4  5  1  0
  5  6  1  0
  5  7  2  0
  7  8  1  0
  7 10  1  0
  8  9  2  0
 10 11  1  0
 10 23  2  0
 11 12  1  0
 12 13  1  0
 13 14  2  0
 13 22  1  0
 14 15  1  0
 15 16  2  0
 16 17  1  0
 16 21  1  0
 17 18  1  6
 17 19  2  0
 17 20  2  0
 21 22  2  0
M  END
