
     RDKit          3D

 25 25  0  0  0  0  0  0  0  0999 V2000
    7.4470    0.0520   -2.4300 C   0  0  0  0  0  0  0  0  0  0  0  0
    6.7590    1.1090   -1.6360 C   0  0  0  0  0  0  0  0  0  0  0  0
    5.4570    0.7720   -1.2270 O   0  0  0  0  0  0  0  0  0  0  0  0
    5.1050   -0.2850   -0.4330 C   0  0  0  0  0  0  0  0  0  0  0  0
    6.0220   -1.0400   -0.0190 O   0  0  0  0  0  0  0  0  0  0  0  0
    3.7280   -0.5840   -0.0410 C   0  0  0  0  0  0  0  0  0  0  0  0
    2.6760    0.1980   -0.4570 C   0  0  0  0  0  0  0  0  0  0  0  0
    1.3490   -0.0750   -0.0900 C   0  0  0  0  0  0  0  0  0  0  0  0
    1.0320   -1.1470    0.7100 C   0  0  0  0  0  0  0  0  0  0  0  0
   -0.3340   -1.5450    1.1140 C   0  0  0  0  0  0  0  0  0  0  0  0
   -1.3510   -0.7240    0.7690 O   0  0  0  0  0  0  0  0  0  0  0  0
   -1.4210    0.4890    1.3920 C   0  0  0  0  0  0  0  0  0  0  0  0
   -2.5880    1.3000    0.8440 C   0  0  1  0  0  0  0  0  0  0  0  0
   -2.5470    2.6510    1.6290 C   0  0  0  0  0  0  0  0  0  0  0  0
   -2.7040    2.3510    3.0940 C   0  0  0  0  0  0  0  0  0  0  0  0
   -2.5160    1.6000   -0.6020 C   0  0  0  0  0  0  0  0  0  0  0  0
   -2.5530    0.5020   -1.5780 C   0  0  0  0  0  0  0  0  0  0  0  0
   -3.8150   -0.2220   -1.7290 C   0  0  1  0  0  0  0  0  0  0  0  0
   -3.5910   -1.3180   -2.8090 C   0  0  0  0  0  0  0  0  0  0  0  0
   -4.4290   -0.8650   -0.5510 C   0  0  0  0  0  0  0  0  0  0  0  0
   -4.8640    0.7200   -2.3180 C   0  0  0  0  0  0  0  0  0  0  0  0
   -4.5800    1.4570   -3.2410 O   0  0  0  0  0  0  0  0  0  0  0  0
    2.1170   -1.9340    1.1230 C   0  0  0  0  0  0  0  0  0  0  0  0
    1.7920   -3.1010    1.9890 C   0  0  0  0  0  0  0  0  0  0  0  0
    3.4140   -1.6600    0.7590 C   0  0  0  0  0  0  0  0  0  0  0  0
  1  2  1  0
  2  3  1  0
  3  4  1  0
  4  5  2  0
  4  6  1  0
  6  7  2  0
  6 25  1  0
  7  8  1  0
  8  9  2  0
  9 10  1  0
  9 23  1  0
 10 11  1  0
 11 12  1  0
 13 12  1  1
 13 14  1  0
 13 16  1  0
 14 15  1  0
 16 17  1  0
 17 18  1  0
 18 19  1  6
 18 20  1  0
 18 21  1  0
 21 22  2  0
 23 24  1  0
 23 25  2  0
M  END
