
     RDKit          3D

 25 25  0  0  0  0  0  0  0  0999 V2000
   -2.4890    5.2840    2.2450 C   0  0  0  0  0  0  0  0  0  0  0  0
   -3.4740    4.7750    1.2280 C   0  0  0  0  0  0  0  0  0  0  0  0
   -3.4650    3.3820    1.0590 O   0  0  0  0  0  0  0  0  0  0  0  0
   -2.2890    2.6840    0.6390 C   0  0  0  0  0  0  0  0  0  0  0  0
   -1.3310    3.4370    0.4590 O   0  0  0  0  0  0  0  0  0  0  0  0
   -2.3340    1.2830    0.4790 C   0  0  0  0  0  0  0  0  0  0  0  0
   -1.4560    0.3650    0.1150 C   0  0  0  0  0  0  0  0  0  0  0  0
   -0.1190    0.7270   -0.2240 C   0  0  0  0  0  0  0  0  0  0  0  0
    0.2370    1.9180   -0.3130 O   0  0  0  0  0  0  0  0  0  0  0  0
    0.9700   -0.2410   -0.4850 C   0  0  0  0  0  0  0  0  0  0  0  0
    1.7740    0.0900   -1.7160 C   0  0  0  0  0  0  0  0  0  0  0  0
    2.8630   -0.9010   -1.9830 C   0  0  0  0  0  0  0  0  0  0  0  0
    3.8700   -1.0410   -0.8850 C   0  0  0  0  0  0  0  0  0  0  0  0
    4.5970    0.2390   -0.5630 C   0  0  0  0  0  0  0  0  0  0  0  0
    5.5860   -0.0430    0.5580 C   0  0  0  0  0  0  0  0  0  0  0  0
    6.3240    1.2020    0.9100 C   0  0  0  0  0  0  0  0  0  0  0  0
    6.0720    2.2300    0.3140 O   0  0  0  0  0  0  0  0  0  0  0  0
   -1.9480   -1.0310    0.1520 C   0  0  0  0  0  0  0  0  0  0  0  0
   -2.7790   -1.3730    1.2290 C   0  0  0  0  0  0  0  0  0  0  0  0
   -3.3890   -2.5920    1.3430 C   0  0  0  0  0  0  0  0  0  0  0  0
   -3.2050   -3.5510    0.3810 C   0  0  0  0  0  0  0  0  0  0  0  0
   -3.8740   -4.8860    0.5080 C   0  0  0  0  0  0  0  0  0  0  0  0
   -2.4010   -3.2460   -0.6850 C   0  0  0  0  0  0  0  0  0  0  0  0
   -1.7790   -1.9830   -0.7910 C   0  0  0  0  0  0  0  0  0  0  0  0
   -1.0660   -1.7310   -2.0690 C   0  0  0  0  0  0  0  0  0  0  0  0
  1  2  1  0
  2  3  1  0
  3  4  1  0
  4  5  2  0
  4  6  1  0
  6  7  2  3
  7  8  1  0
  7 18  1  0
  8  9  2  0
  8 10  1  0
 10 11  1  0
 11 12  1  0
 12 13  1  0
 13 14  1  0
 14 15  1  0
 15 16  1  0
 16 17  2  0
 18 19  2  0
 18 24  1  0
 19 20  1  0
 20 21  2  0
 21 22  1  0
 21 23  1  0
 23 24  2  0
 24 25  1  0
M  END
