
     RDKit          3D

 25 25  0  0  0  0  0  0  0  0999 V2000
   -6.8040   -0.7700    2.0270 C   0  0  0  0  0  0  0  0  0  0  0  0
   -6.7920    0.1580    1.1190 C   0  0  0  0  0  0  0  0  0  0  0  0
   -5.5790    0.6940    0.5180 C   0  0  0  0  0  0  0  0  0  0  0  0
   -4.3830   -0.1830    0.7340 C   0  0  1  0  0  0  0  0  0  0  0  0
   -4.4800   -1.5320    0.1070 C   0  0  0  0  0  0  0  0  0  0  0  0
   -4.6390   -1.4260   -1.4080 C   0  0  0  0  0  0  0  0  0  0  0  0
   -3.1720    0.5930    0.2460 C   0  0  0  0  0  0  0  0  0  0  0  0
   -1.9830   -0.1330    0.3980 O   0  0  0  0  0  0  0  0  0  0  0  0
   -0.8020    0.4640   -0.0100 C   0  0  0  0  0  0  0  0  0  0  0  0
   -0.7600    1.7330   -0.5530 C   0  0  0  0  0  0  0  0  0  0  0  0
    0.4300    2.3050   -0.9520 C   0  0  0  0  0  0  0  0  0  0  0  0
    0.4420    3.6770   -1.5350 C   0  0  0  0  0  0  0  0  0  0  0  0
    0.6180    4.7060   -0.4220 C   0  0  0  0  0  0  0  0  0  0  0  0
    1.5940    1.5730   -0.7940 C   0  0  0  0  0  0  0  0  0  0  0  0
    1.6010    0.3020   -0.2570 C   0  0  0  0  0  0  0  0  0  0  0  0
    2.7530   -0.4230   -0.1000 O   0  0  0  0  0  0  0  0  0  0  0  0
    4.0390   -0.0180   -0.4410 C   0  0  0  0  0  0  0  0  0  0  0  0
    4.9840   -1.0970   -0.1080 C   0  0  0  0  0  0  0  0  0  0  0  0
    4.5970   -2.1250    0.3780 O   0  0  0  0  0  0  0  0  0  0  0  0
    6.4210   -0.9040   -0.3790 C   0  0  0  0  0  0  0  0  0  0  0  0
    7.2510   -2.1060    0.0210 C   0  0  0  0  0  0  0  0  0  0  0  0
    6.8010   -3.3110   -0.7410 C   0  0  0  0  0  0  0  0  0  0  0  0
    0.3970   -0.2440    0.1330 C   0  0  0  0  0  0  0  0  0  0  0  0
    0.4090   -1.5230    0.6730 O   0  0  0  0  0  0  0  0  0  0  0  0
    0.5620   -1.7260    2.0780 C   0  0  0  0  0  0  0  0  0  0  0  0
  1  2  2  0
  2  3  1  0
  4  3  1  6
  4  5  1  0
  4  7  1  0
  5  6  1  0
  7  8  1  0
  8  9  1  0
  9 10  2  0
  9 23  1  0
 10 11  1  0
 11 12  1  0
 11 14  2  0
 12 13  1  0
 14 15  1  0
 15 16  1  0
 15 23  2  0
 16 17  1  0
 17 18  1  0
 18 19  2  0
 18 20  1  0
 20 21  1  0
 21 22  1  0
 23 24  1  0
 24 25  1  0
M  END
