
     RDKit          3D

 25 25  0  0  0  0  0  0  0  0999 V2000
   -3.2150    2.6280    2.2420 C   0  0  0  0  0  0  0  0  0  0  0  0
   -4.1240    1.4390    1.9570 C   0  0  0  0  0  0  0  0  0  0  0  0
   -3.4550    0.1460    2.3800 C   0  0  0  0  0  0  0  0  0  0  0  0
   -2.1600   -0.0780    1.6350 C   0  0  0  0  0  0  0  0  0  0  0  0
   -2.3420   -0.1880    0.1650 C   0  0  2  0  0  0  0  0  0  0  0  0
   -3.1240   -1.1950   -0.2960 O   0  0  0  0  0  0  0  0  0  0  0  0
   -4.2400   -0.8950   -1.0140 C   0  0  0  0  0  0  0  0  0  0  0  0
   -4.8600   -2.2550   -1.3870 C   0  0  2  0  0  0  0  0  0  0  0  0
   -6.1100   -2.0990   -2.1830 C   0  0  0  0  0  0  0  0  0  0  0  0
   -5.0750   -3.0110   -0.0960 C   0  0  0  0  0  0  0  0  0  0  0  0
   -0.9990   -0.2880   -0.5660 C   0  0  2  0  0  0  0  0  0  0  0  0
   -0.4660   -1.7020   -0.3800 C   0  0  0  0  0  0  0  0  0  0  0  0
   -0.0860    0.6850   -0.1840 O   0  0  0  0  0  0  0  0  0  0  0  0
    0.5290    1.6230   -0.9850 C   0  0  0  0  0  0  0  0  0  0  0  0
    0.2270    1.5970   -2.2210 O   0  0  0  0  0  0  0  0  0  0  0  0
    1.4990    2.6240   -0.4640 C   0  0  0  0  0  0  0  0  0  0  0  0
    2.9240    2.2520   -0.8380 C   0  0  0  0  0  0  0  0  0  0  0  0
    3.2690    0.9190   -0.2690 C   0  0  0  0  0  0  0  0  0  0  0  0
    4.6620    0.4540   -0.5750 C   0  0  2  0  0  0  0  0  0  0  0  0
    4.8940   -0.9070    0.0460 C   0  0  0  0  0  0  0  0  0  0  0  0
    6.2280   -0.9940    0.7070 C   0  0  0  0  0  0  0  0  0  0  0  0
    7.3610   -0.4250   -0.1200 C   0  0  0  0  0  0  0  0  0  0  0  0
    7.1240    1.0280   -0.4540 C   0  0  0  0  0  0  0  0  0  0  0  0
    5.7200    1.3560   -0.0890 C   0  0  0  0  0  0  0  0  0  0  0  0
    5.5010    2.3350    0.5830 O   0  0  0  0  0  0  0  0  0  0  0  0
  1  2  1  0
  2  3  1  0
  3  4  1  0
  5  4  1  1
  5  6  1  0
  5 11  1  0
  6  7  1  0
  7  8  1  0
  8  9  1  1
  8 10  1  0
 11 12  1  1
 11 13  1  0
 13 14  1  0
 14 15  2  0
 14 16  1  0
 16 17  1  0
 17 18  1  0
 19 18  1  1
 19 20  1  0
 19 24  1  0
 20 21  1  0
 21 22  1  0
 22 23  1  0
 23 24  1  0
 24 25  2  0
M  END
