
     RDKit          3D

 25 25  0  0  0  0  0  0  0  0999 V2000
    7.1840    1.6610   -1.7690 C   0  0  0  0  0  0  0  0  0  0  0  0
    6.5700    1.2440   -0.4770 C   0  0  0  0  0  0  0  0  0  0  0  0
    5.4800    0.1700   -0.6490 C   0  0  0  0  0  0  0  0  0  0  0  0
    4.4940    0.4280   -1.3450 O   0  0  0  0  0  0  0  0  0  0  0  0
    3.4840    0.6480   -2.0380 C   0  0  0  0  0  0  0  0  0  0  0  0
    2.0610    0.5720   -1.4800 C   0  0  0  0  0  0  0  0  0  0  0  0
    1.6670   -0.7820   -1.0410 C   0  0  1  0  0  0  0  0  0  0  0  0
    2.4880   -1.3850    0.0420 C   0  0  0  0  0  0  0  0  0  0  0  0
    2.5020   -0.5530    1.3100 C   0  0  0  0  0  0  0  0  0  0  0  0
    0.2440   -0.8710   -0.6240 C   0  0  0  0  0  0  0  0  0  0  0  0
   -0.4670    0.2760   -0.2630 C   0  0  0  0  0  0  0  0  0  0  0  0
   -1.7640    0.2590    0.1680 C   0  0  0  0  0  0  0  0  0  0  0  0
   -2.4610    1.4950    0.5470 C   0  0  0  0  0  0  0  0  0  0  0  0
   -1.9150    2.6030    0.4800 O   0  0  0  0  0  0  0  0  0  0  0  0
   -3.7730    1.4450    1.0010 O   0  0  0  0  0  0  0  0  0  0  0  0
   -4.5490    2.5370    1.3970 C   0  0  1  0  0  0  0  0  0  0  0  0
   -5.7980    2.7590    0.6170 C   0  0  0  0  0  0  0  0  0  0  0  0
   -4.8500    2.5080    2.8880 C   0  0  0  0  0  0  0  0  0  0  0  0
   -2.3840   -0.9680    0.2410 C   0  0  0  0  0  0  0  0  0  0  0  0
   -3.7000   -1.0100    0.6750 O   0  0  0  0  0  0  0  0  0  0  0  0
   -4.3590   -2.2690    0.7560 C   0  0  0  0  0  0  0  0  0  0  0  0
   -5.7680   -2.1170    1.2380 C   0  0  0  0  0  0  0  0  0  0  0  0
   -1.7050   -2.1100   -0.1090 C   0  0  0  0  0  0  0  0  0  0  0  0
   -0.3670   -2.0890   -0.5520 C   0  0  0  0  0  0  0  0  0  0  0  0
    0.2620   -3.3760   -0.9400 C   0  0  0  0  0  0  0  0  0  0  0  0
  1  2  1  0
  2  3  1  0
  3  4  1  0
  4  5  1  0
  5  6  1  0
  7  6  1  1
  7  8  1  0
  7 10  1  0
  8  9  1  0
 10 11  2  0
 10 24  1  0
 11 12  1  0
 12 13  1  0
 12 19  2  0
 13 14  2  0
 13 15  1  0
 15 16  1  0
 16 17  1  6
 16 18  1  0
 19 20  1  0
 19 23  1  0
 20 21  1  0
 21 22  1  0
 23 24  2  0
 24 25  1  0
M  END
