
     RDKit          3D

 24 26  0  0  0  0  0  0  0  0999 V2000
   -1.6650    3.4960   -2.3770 C   0  0  0  0  0  0  0  0  0  0  0  0
   -1.0860    2.9430   -1.0820 C   0  0  0  0  0  0  0  0  0  0  0  0
   -1.9450    1.7990   -0.6570 C   0  0  2  0  0  0  0  0  0  0  0  0
   -3.3420    2.3760   -0.4490 C   0  0  0  0  0  0  0  0  0  0  0  0
   -1.4690    0.9460    0.4490 C   0  0  2  0  0  0  0  0  0  0  0  0
   -1.2370    1.7600    1.6590 N   0  0  0  0  0  0  0  0  0  0  0  0
   -0.3750    0.0110    0.2580 C   0  0  0  0  0  0  0  0  0  0  0  0
    0.9710    0.4780   -0.1690 C   0  0  0  0  0  0  0  0  0  0  0  0
    1.9590   -0.7210   -0.2350 C   0  0  2  0  0  0  0  0  0  0  0  0
    2.0570   -1.3390    1.1100 C   0  0  0  0  0  0  0  0  0  0  0  0
    3.3790   -1.8690    1.5100 C   0  0  2  0  0  0  0  0  0  0  0  0
    4.2050   -0.8030    2.2380 C   0  0  0  0  0  0  0  0  0  0  0  0
    4.7260    0.0430    1.0740 C   0  0  0  0  0  0  0  0  0  0  0  0
    4.4750   -0.7120   -0.1760 C   0  0  1  0  0  0  0  0  0  0  0  0
    4.3060   -2.1470    0.3310 C   0  0  0  0  0  0  0  0  0  0  0  0
    3.2180   -0.3580   -0.9140 C   0  0  2  0  0  0  0  0  0  0  0  0
    3.3230    1.1210   -1.2680 C   0  0  0  0  0  0  0  0  0  0  0  0
    3.3230   -1.0820   -2.2690 C   0  0  0  0  0  0  0  0  0  0  0  0
   -2.6770    0.0610    0.9290 C   0  0  0  0  0  0  0  0  0  0  0  0
   -3.2010   -0.7820   -0.0680 N   0  0  2  0  0  0  0  0  0  0  0  0
   -4.6310   -0.9100   -0.0830 C   0  0  0  0  0  0  0  0  0  0  0  0
   -5.0220   -2.0230    0.8570 C   0  0  0  0  0  0  0  0  0  0  0  0
   -3.8610   -2.9700    0.6520 C   0  0  0  0  0  0  0  0  0  0  0  0
   -2.7130   -2.1400    0.1920 C   0  0  0  0  0  0  0  0  0  0  0  0
  1  2  1  0
  2  3  1  0
  3  4  1  1
  3  5  1  0
  5  6  1  1
  5  7  1  0
  5 19  1  0
  7  8  1  0
  9  8  1  1
  9 10  1  0
  9 16  1  0
 11 10  1  6
 11 12  1  0
 11 15  1  0
 12 13  1  0
 14 13  1  1
 14 15  1  0
 14 16  1  0
 16 17  1  6
 16 18  1  0
 20 19  1  1
 20 21  1  0
 20 24  1  0
 21 22  1  0
 22 23  1  0
 23 24  1  0
M  CHG  2   6   1  20   1
M  END
