
     RDKit          3D

 24 26  0  0  0  0  0  0  0  0999 V2000
   -4.8000    3.0280    0.2990 C   0  0  0  0  0  0  0  0  0  0  0  0
   -4.7090    1.4940    0.3230 C   0  0  1  0  0  0  0  0  0  0  0  0
   -5.5180    1.0440    1.5330 C   0  0  0  0  0  0  0  0  0  0  0  0
   -5.3410    1.0030   -0.9250 C   0  0  0  0  0  0  0  0  0  0  0  0
   -4.7480   -0.2180   -1.5160 C   0  0  0  0  0  0  0  0  0  0  0  0
   -4.0800   -1.0190   -0.4410 C   0  0  0  0  0  0  0  0  0  0  0  0
   -2.8920   -0.2330    0.1070 C   0  0  1  0  0  0  0  0  0  0  0  0
   -2.4000   -1.0440    1.3120 C   0  0  0  0  0  0  0  0  0  0  0  0
   -1.7730   -2.3400    0.8930 C   0  0  0  0  0  0  0  0  0  0  0  0
   -0.8700   -2.1570   -0.3260 C   0  0  0  0  0  0  0  0  0  0  0  0
   -0.6120   -0.7520   -0.4430 N   0  0  1  0  0  0  0  0  0  0  0  0
    0.5520   -0.4590   -1.2570 C   0  0  0  0  0  0  0  0  0  0  0  0
    1.7580   -0.5690   -0.3560 C   0  0  0  0  0  0  0  0  0  0  0  0
    3.0540   -0.2950   -1.0400 C   0  0  2  0  0  0  0  0  0  0  0  0
    3.2710   -1.2570   -2.1590 C   0  0  0  0  0  0  0  0  0  0  0  0
    3.3080   -2.6360   -1.7340 N   0  0  0  0  0  0  0  0  0  0  0  0
    4.1790   -0.3470   -0.0600 C   0  0  2  0  0  0  0  0  0  0  0  0
    4.0740    0.6400    1.0570 C   0  0  0  0  0  0  0  0  0  0  0  0
    4.3200    2.0640    0.5930 C   0  0  0  0  0  0  0  0  0  0  0  0
    5.7930    2.1570    0.2510 C   0  0  0  0  0  0  0  0  0  0  0  0
    6.4150    0.8010    0.0570 C   0  0  0  0  0  0  0  0  0  0  0  0
    5.5270   -0.1430   -0.7280 C   0  0  0  0  0  0  0  0  0  0  0  0
   -1.8020   -0.1090   -0.9420 C   0  0  0  0  0  0  0  0  0  0  0  0
   -3.2900    1.1340    0.5280 C   0  0  0  0  0  0  0  0  0  0  0  0
  2  1  1  6
  2  3  1  0
  2  4  1  0
  2 24  1  0
  4  5  1  0
  5  6  1  0
  7  6  1  6
  7  8  1  0
  7 23  1  0
  7 24  1  0
  8  9  1  0
  9 10  1  0
 10 11  1  0
 11 12  1  6
 11 23  1  0
 12 13  1  0
 14 13  1  1
 14 15  1  0
 14 17  1  0
 15 16  1  0
 17 18  1  1
 17 22  1  0
 18 19  1  0
 19 20  1  0
 20 21  1  0
 21 22  1  0
M  CHG  2  11   1  16   1
M  END
