
     RDKit          3D

 24 25  0  0  0  0  0  0  0  0999 V2000
    6.8370    0.7110   -1.1720 C   0  0  0  0  0  0  0  0  0  0  0  0
    5.5650    0.2330   -0.5460 C   0  0  0  0  0  0  0  0  0  0  0  0
    4.3710    0.6950   -1.3990 C   0  0  0  0  0  0  0  0  0  0  0  0
    3.1900    0.1610   -0.6750 N   0  0  0  0  0  0  0  0  0  0  0  0
    1.9850    0.7890   -1.1280 C   0  0  1  0  0  0  0  0  0  0  0  0
    2.0930    1.0330   -2.6530 C   0  0  0  0  0  0  0  0  0  0  0  0
    1.9410   -0.4060   -3.1130 C   0  0  0  0  0  0  0  0  0  0  0  0
    0.6090   -0.7050   -2.3670 C   0  0  0  0  0  0  0  0  0  0  0  0
    0.7670   -0.0840   -1.0430 C   0  0  0  0  0  0  0  0  0  0  0  0
    0.0070   -0.2590    0.0170 C   0  0  0  0  0  0  0  0  0  0  0  0
    0.4640    0.5220    1.2040 C   0  0  0  0  0  0  0  0  0  0  0  0
   -0.3910    1.7950    1.3390 C   0  0  0  0  0  0  0  0  0  0  0  0
    0.0070    2.5370    2.5080 N   0  0  0  0  0  0  0  0  0  0  0  0
    0.2500    3.9410    2.2480 C   0  0  0  0  0  0  0  0  0  0  0  0
   -1.2380   -0.9720    0.0170 C   0  0  0  0  0  0  0  0  0  0  0  0
   -1.9520   -1.3090    1.1090 C   0  0  0  0  0  0  0  0  0  0  0  0
   -1.5510   -1.0060    2.4540 C   0  0  0  0  0  0  0  0  0  0  0  0
   -3.2330   -2.0850    0.9310 C   0  0  1  0  0  0  0  0  0  0  0  0
   -3.8610   -2.4120    2.2420 C   0  0  0  0  0  0  0  0  0  0  0  0
   -5.1720   -3.1780    2.0450 C   0  0  0  0  0  0  0  0  0  0  0  0
   -4.1730   -1.4630   -0.0440 C   0  0  0  0  0  0  0  0  0  0  0  0
   -3.4200   -0.7060   -1.0800 C   0  0  1  0  0  0  0  0  0  0  0  0
   -3.3110    0.7630   -0.8380 C   0  0  0  0  0  0  0  0  0  0  0  0
   -2.0300   -1.3720   -1.2160 C   0  0  0  0  0  0  0  0  0  0  0  0
  1  2  1  0
  2  3  1  0
  3  4  1  0
  5  4  1  6
  5  6  1  0
  5  9  1  0
  6  7  1  0
  7  8  1  0
  8  9  1  0
  9 10  2  3
 10 11  1  0
 10 15  1  0
 11 12  1  0
 12 13  1  0
 13 14  1  0
 15 16  2  0
 15 24  1  0
 16 17  1  0
 16 18  1  0
 18 19  1  1
 18 21  1  0
 19 20  1  0
 21 22  1  0
 22 23  1  1
 22 24  1  0
M  CHG  2   4   1  13   1
M  END
