
     RDKit          3D

 24 26  0  0  0  0  0  0  0  0999 V2000
   -6.6940    1.1750   -0.2510 C   0  0  0  0  0  0  0  0  0  0  0  0
   -5.9610    1.7300    0.9390 C   0  0  0  0  0  0  0  0  0  0  0  0
   -4.8490    0.8260    1.4140 C   0  0  0  0  0  0  0  0  0  0  0  0
   -3.8080    0.5940    0.3420 C   0  0  1  0  0  0  0  0  0  0  0  0
   -3.1190    1.8250   -0.1560 C   0  0  0  0  0  0  0  0  0  0  0  0
   -2.0890    1.6070    0.9380 C   0  0  0  0  0  0  0  0  0  0  0  0
   -2.5120    0.1530    0.9560 C   0  0  2  0  0  0  0  0  0  0  0  0
   -1.6010   -0.6440   -0.0020 C   0  0  0  0  0  0  0  0  0  0  0  0
   -0.3930   -1.0370    0.6310 N   0  0  1  0  0  0  0  0  0  0  0  0
   -0.7130   -2.3970    1.1570 C   0  0  0  0  0  0  0  0  0  0  0  0
   -0.5780   -3.2440   -0.0490 C   0  0  0  0  0  0  0  0  0  0  0  0
    0.2550   -2.3920   -1.0370 C   0  0  0  0  0  0  0  0  0  0  0  0
    0.7720   -1.3170   -0.0690 C   0  0  2  0  0  0  0  0  0  0  0  0
    1.7080   -2.1580    0.7760 C   0  0  0  0  0  0  0  0  0  0  0  0
    2.1490   -1.6550    2.0010 N   0  0  0  0  0  0  0  0  0  0  0  0
    1.5110   -0.2160   -0.7960 C   0  0  2  0  0  0  0  0  0  0  0  0
    0.6730    0.3980   -1.9240 C   0  0  0  0  0  0  0  0  0  0  0  0
    2.7330   -0.7300   -1.5070 C   0  0  0  0  0  0  0  0  0  0  0  0
    4.0590   -0.4080   -0.9410 C   0  0  0  0  0  0  0  0  0  0  0  0
    4.1620    1.0910   -0.7560 C   0  0  2  0  0  0  0  0  0  0  0  0
    4.0740    1.8750   -2.0100 C   0  0  0  0  0  0  0  0  0  0  0  0
    5.5530    1.3040   -0.1260 C   0  0  0  0  0  0  0  0  0  0  0  0
    3.1690    1.4050    0.2990 C   0  0  0  0  0  0  0  0  0  0  0  0
    1.7790    0.9620    0.1010 C   0  0  0  0  0  0  0  0  0  0  0  0
  1  2  1  0
  2  3  1  0
  4  3  1  1
  4  5  1  0
  4  7  1  0
  5  6  1  0
  6  7  1  0
  7  8  1  6
  9  8  1  6
  9 10  1  0
  9 13  1  0
 10 11  1  0
 11 12  1  0
 12 13  1  0
 13 14  1  1
 13 16  1  0
 14 15  1  0
 16 17  1  6
 16 18  1  0
 16 24  1  0
 18 19  1  0
 19 20  1  0
 20 21  1  6
 20 22  1  0
 20 23  1  0
 23 24  1  0
M  CHG  2   9   1  15   1
M  END
