
     RDKit          3D

 24 26  0  0  0  0  0  0  0  0999 V2000
    7.2050   -1.2720    1.8150 C   0  0  0  0  0  0  0  0  0  0  0  0
    6.5890   -1.2060    0.4570 C   0  0  0  0  0  0  0  0  0  0  0  0
    5.1550   -1.6890    0.4490 C   0  0  0  0  0  0  0  0  0  0  0  0
    4.5590   -1.6290   -0.8510 N   0  0  0  0  0  0  0  0  0  0  0  0
    3.1750   -1.2010   -0.8230 C   0  0  0  0  0  0  0  0  0  0  0  0
    3.1370    0.2190   -0.3760 C   0  0  1  0  0  0  0  0  0  0  0  0
    3.9200    1.0970   -1.3280 C   0  0  0  0  0  0  0  0  0  0  0  0
    3.3310    2.4250   -1.0200 C   0  0  0  0  0  0  0  0  0  0  0  0
    2.0500    2.2580   -0.5810 C   0  0  0  0  0  0  0  0  0  0  0  0
    1.7420    0.8440   -0.5800 C   0  0  2  0  0  0  0  0  0  0  0  0
    0.7540    0.2300    0.3030 C   0  0  0  0  0  0  0  0  0  0  0  0
   -0.6320    0.6990    0.2420 C   0  0  2  0  0  0  0  0  0  0  0  0
   -0.9630    2.0990    0.6290 C   0  0  0  0  0  0  0  0  0  0  0  0
   -1.8100    2.7740   -0.3130 N   0  0  0  0  0  0  0  0  0  0  0  0
   -2.4700    1.9710   -1.2580 C   0  0  0  0  0  0  0  0  0  0  0  0
   -2.9700    0.6470   -1.0130 C   0  0  0  0  0  0  0  0  0  0  0  0
   -3.0100   -0.0060    0.3090 C   0  0  1  0  0  0  0  0  0  0  0  0
   -4.0270    0.4880    1.2840 C   0  0  0  0  0  0  0  0  0  0  0  0
   -5.3140    0.7720    0.5410 C   0  0  0  0  0  0  0  0  0  0  0  0
   -5.8260   -0.4860   -0.0700 C   0  0  0  0  0  0  0  0  0  0  0  0
   -4.9260   -1.6640    0.0400 C   0  0  2  0  0  0  0  0  0  0  0  0
   -5.3340   -2.5110    1.2570 C   0  0  0  0  0  0  0  0  0  0  0  0
   -3.4730   -1.4520    0.0090 C   0  0  0  0  0  0  0  0  0  0  0  0
   -1.6330   -0.2000    0.9600 C   0  0  0  0  0  0  0  0  0  0  0  0
  1  2  1  0
  2  3  1  0
  3  4  1  0
  4  5  1  0
  6  5  1  6
  6  7  1  0
  6 10  1  0
  7  8  1  0
  8  9  2  0
  9 10  1  0
 10 11  1  1
 12 11  1  1
 12 13  1  0
 12 24  1  0
 13 14  1  0
 14 15  1  0
 15 16  1  0
 17 16  1  6
 17 18  1  0
 17 23  1  0
 17 24  1  0
 18 19  1  0
 19 20  1  0
 20 21  1  0
 21 22  1  1
 21 23  1  0
M  CHG  2   4   1  14   1
M  END
