
     RDKit          3D

 24 26  0  0  0  0  0  0  0  0999 V2000
   -3.9930    3.7320   -1.9190 C   0  0  0  0  0  0  0  0  0  0  0  0
   -3.6990    2.2790   -2.0900 C   0  0  0  0  0  0  0  0  0  0  0  0
   -2.9670    1.7600   -0.8670 C   0  0  0  0  0  0  0  0  0  0  0  0
   -2.6600    0.2650   -1.0360 C   0  0  2  0  0  0  0  0  0  0  0  0
   -3.9190   -0.4950   -1.2000 C   0  0  0  0  0  0  0  0  0  0  0  0
   -4.0710   -1.6660   -0.2610 C   0  0  0  0  0  0  0  0  0  0  0  0
   -3.7630   -1.1470    1.1300 C   0  0  1  0  0  0  0  0  0  0  0  0
   -4.0250   -2.2480    2.0620 N   0  0  0  0  0  0  0  0  0  0  0  0
   -4.0790   -1.7510    3.4270 C   0  0  0  0  0  0  0  0  0  0  0  0
   -2.2790   -0.8980    1.1760 C   0  0  0  0  0  0  0  0  0  0  0  0
   -1.7070   -0.2240   -0.0120 C   0  0  1  0  0  0  0  0  0  0  0  0
   -0.6440   -1.0280   -0.6420 N   0  0  0  0  0  0  0  0  0  0  0  0
    0.4760   -1.2110    0.2410 C   0  0  0  0  0  0  0  0  0  0  0  0
    1.5400   -0.1820    0.0950 C   0  0  1  0  0  0  0  0  0  0  0  0
    2.6790   -0.4520    1.0600 C   0  0  0  0  0  0  0  0  0  0  0  0
    3.6030    0.0600   -0.0540 C   0  0  2  0  0  0  0  0  0  0  0  0
    4.8870   -0.6890   -0.1900 C   0  0  0  0  0  0  0  0  0  0  0  0
    6.0020   -0.0200    0.5410 C   0  0  0  0  0  0  0  0  0  0  0  0
    5.5540    0.7290    1.7720 C   0  0  0  0  0  0  0  0  0  0  0  0
    4.5200    1.7720    1.4860 C   0  0  0  0  0  0  0  0  0  0  0  0
    3.8480    1.5260    0.1490 C   0  0  0  0  0  0  0  0  0  0  0  0
    2.5090   -0.3020   -1.0180 C   0  0  1  0  0  0  0  0  0  0  0  0
    2.6430   -1.6380   -1.6850 C   0  0  0  0  0  0  0  0  0  0  0  0
    2.3430    0.7910   -2.0730 C   0  0  0  0  0  0  0  0  0  0  0  0
  1  2  1  0
  2  3  1  0
  4  3  1  1
  4  5  1  0
  4 11  1  0
  5  6  1  0
  6  7  1  0
  7  8  1  1
  7 10  1  0
  8  9  1  0
 10 11  1  0
 11 12  1  6
 12 13  1  0
 14 13  1  6
 14 15  1  0
 14 22  1  0
 16 15  1  1
 16 17  1  0
 16 21  1  0
 16 22  1  0
 17 18  1  0
 18 19  1  0
 19 20  1  0
 20 21  1  0
 22 23  1  6
 22 24  1  0
M  CHG  2   8   1  12   1
M  END
