
     RDKit          3D

 24 25  0  0  0  0  0  0  0  0999 V2000
    3.7120    3.5220    0.0770 C   0  0  0  0  0  0  0  0  0  0  0  0
    2.7380    3.1240   -1.0060 C   0  0  0  0  0  0  0  0  0  0  0  0
    2.8650    1.6620   -1.3610 C   0  0  0  0  0  0  0  0  0  0  0  0
    2.6150    0.7800   -0.2530 N   0  0  0  0  0  0  0  0  0  0  0  0
    2.2790   -0.5270   -0.7840 C   0  0  1  0  0  0  0  0  0  0  0  0
    3.6440   -1.3100   -0.5690 C   0  0  0  0  0  0  0  0  0  0  0  0
    3.0700   -2.6880   -0.7860 C   0  0  0  0  0  0  0  0  0  0  0  0
    1.9760   -2.6760    0.2580 C   0  0  0  0  0  0  0  0  0  0  0  0
    1.3550   -1.3080    0.0520 C   0  0  0  0  0  0  0  0  0  0  0  0
    0.1570   -1.0190    0.5810 C   0  0  0  0  0  0  0  0  0  0  0  0
   -0.3830   -2.1780    1.3970 C   0  0  0  0  0  0  0  0  0  0  0  0
   -1.4260   -2.9550    0.6670 C   0  0  0  0  0  0  0  0  0  0  0  0
   -1.9140   -4.0120    1.5340 N   0  0  0  0  0  0  0  0  0  0  0  0
   -2.6310   -5.0290    0.8110 C   0  0  0  0  0  0  0  0  0  0  0  0
   -0.7010    0.0730    0.2140 C   0  0  0  0  0  0  0  0  0  0  0  0
   -1.7820    0.4750    0.8510 C   0  0  0  0  0  0  0  0  0  0  0  0
   -2.2790   -0.1480    2.0790 C   0  0  0  0  0  0  0  0  0  0  0  0
   -2.5190    1.6760    0.3280 C   0  0  1  0  0  0  0  0  0  0  0  0
   -1.9340    2.9750    0.7700 C   0  0  0  0  0  0  0  0  0  0  0  0
   -1.9270    3.1150    2.2840 C   0  0  0  0  0  0  0  0  0  0  0  0
   -2.7460    1.6320   -1.1190 C   0  0  0  0  0  0  0  0  0  0  0  0
   -1.7520    0.8600   -1.8780 C   0  0  1  0  0  0  0  0  0  0  0  0
   -1.4740    1.5750   -3.2030 C   0  0  0  0  0  0  0  0  0  0  0  0
   -0.4370    0.7100   -1.1380 C   0  0  0  0  0  0  0  0  0  0  0  0
  1  2  1  0
  2  3  1  0
  3  4  1  0
  5  4  1  1
  5  6  1  0
  5  9  1  0
  6  7  1  0
  7  8  1  0
  8  9  1  0
  9 10  2  3
 10 11  1  0
 10 15  1  0
 11 12  1  0
 12 13  1  0
 13 14  1  0
 15 16  2  0
 15 24  1  0
 16 17  1  0
 16 18  1  0
 18 19  1  6
 18 21  1  0
 19 20  1  0
 21 22  1  0
 22 23  1  6
 22 24  1  0
M  CHG  2   4   1  13   1
M  END
