
     RDKit          3D

 24 26  0  0  0  0  0  0  0  0999 V2000
   -5.9020    1.3040    0.4820 C   0  0  0  0  0  0  0  0  0  0  0  0
   -4.8150    0.7320   -0.4440 C   0  0  2  0  0  0  0  0  0  0  0  0
   -4.6340    1.8010   -1.5180 C   0  0  0  0  0  0  0  0  0  0  0  0
   -5.3690   -0.5320   -1.0210 C   0  0  0  0  0  0  0  0  0  0  0  0
   -4.3570   -1.6370   -1.1150 C   0  0  0  0  0  0  0  0  0  0  0  0
   -2.9690   -1.0950   -1.4030 C   0  0  0  0  0  0  0  0  0  0  0  0
   -2.4920   -0.2200   -0.2610 C   0  0  1  0  0  0  0  0  0  0  0  0
   -1.9220   -1.1720    0.7780 C   0  0  0  0  0  0  0  0  0  0  0  0
   -1.3540   -0.3780    1.8970 C   0  0  0  0  0  0  0  0  0  0  0  0
   -0.7320    0.9130    1.5590 C   0  0  0  0  0  0  0  0  0  0  0  0
   -0.5580    1.2460    0.1950 N   0  0  1  0  0  0  0  0  0  0  0  0
    0.8610    1.0610   -0.2120 C   0  0  0  0  0  0  0  0  0  0  0  0
    1.2500   -0.3390   -0.2770 C   0  0  0  0  0  0  0  0  0  0  0  0
    2.6050   -0.7230   -0.6880 C   0  0  2  0  0  0  0  0  0  0  0  0
    2.6670   -2.2540   -0.6400 C   0  0  0  0  0  0  0  0  0  0  0  0
    2.4270   -2.8030    0.6470 N   0  0  0  0  0  0  0  0  0  0  0  0
    3.7970   -0.1080   -0.0910 C   0  0  2  0  0  0  0  0  0  0  0  0
    4.0270    1.3580   -0.2860 C   0  0  0  0  0  0  0  0  0  0  0  0
    4.8590    1.8470    0.8940 C   0  0  0  0  0  0  0  0  0  0  0  0
    6.2260    1.1830    0.7010 C   0  0  0  0  0  0  0  0  0  0  0  0
    6.1500   -0.2920    0.5350 C   0  0  0  0  0  0  0  0  0  0  0  0
    5.1290   -0.7550   -0.5020 C   0  0  0  0  0  0  0  0  0  0  0  0
   -1.4720    0.7530   -0.7580 C   0  0  0  0  0  0  0  0  0  0  0  0
   -3.6020    0.5420    0.3960 C   0  0  0  0  0  0  0  0  0  0  0  0
  2  1  1  1
  2  3  1  0
  2  4  1  0
  2 24  1  0
  4  5  1  0
  5  6  1  0
  7  6  1  6
  7  8  1  0
  7 23  1  0
  7 24  1  0
  8  9  1  0
  9 10  1  0
 10 11  1  0
 11 12  1  6
 11 23  1  0
 12 13  1  0
 14 13  1  1
 14 15  1  0
 14 17  1  0
 15 16  1  0
 17 18  1  6
 17 22  1  0
 18 19  1  0
 19 20  1  0
 20 21  1  0
 21 22  1  0
M  CHG  2  11   1  16   1
M  END
