
     RDKit          3D

 32 32  0  0  0  0  0  0  0  0999 V2000
   -0.6510    5.2570    2.0140 C   0  0  0  0  0  0  0  0  0  0  0  0
   -1.2210    3.9040    2.3770 C   0  0  2  0  0  0  0  0  0  0  0  0
   -1.1050    3.7370    3.7490 F   0  0  0  0  0  0  0  0  0  0  0  0
   -0.3430    2.8710    1.7910 N   0  0  0  0  0  0  0  0  0  0  0  0
   -0.8150    1.8470    0.9940 C   0  0  0  0  0  0  0  0  0  0  0  0
   -2.1060    1.9300    0.7960 O   0  0  0  0  0  0  0  0  0  0  0  0
   -0.1260    0.7370    0.4010 C   0  0  0  0  0  0  0  0  0  0  0  0
    1.2650    0.4490    0.6560 C   0  0  0  0  0  0  0  0  0  0  0  0
    1.9430   -0.3260   -0.1120 O   0  0  0  0  0  0  0  0  0  0  0  0
    2.0040    0.9550    1.7510 N   0  0  0  0  0  0  0  0  0  0  0  0
    3.4350    0.6230    1.9240 C   0  0  0  0  0  0  0  0  0  0  0  0
    3.6700   -0.8350    2.1060 C   0  0  0  0  0  0  0  0  0  0  0  0
    5.0520   -1.0140    2.2590 O   0  0  0  0  0  0  0  0  0  0  0  0
    5.4680   -2.6640    2.4780 P   0  0  0  0  0  0  0  0  0  0  0  0
    4.0990   -3.7140    2.3810 O   0  0  0  0  0  0  0  0  0  0  0  0
    6.7430   -3.1210    1.4210 O   0  0  0  0  0  0  0  0  0  0  0  0
   -0.7130   -0.0110   -0.5250 C   0  0  0  0  0  0  0  0  0  0  0  0
   -2.0830    0.1350   -1.1460 C   0  0  0  0  0  0  0  0  0  0  0  0
   -2.4620    1.4060   -1.7260 C   0  0  0  0  0  0  0  0  0  0  0  0
   -3.5410    1.6870   -2.2030 O   0  0  0  0  0  0  0  0  0  0  0  0
   -1.5560    2.5110   -1.8150 O   0  0  0  0  0  0  0  0  0  0  0  0
   -2.7200   -1.0110   -1.0570 C   0  0  0  0  0  0  0  0  0  0  0  0
   -3.9650   -1.4960   -1.4190 N   0  0  0  0  0  0  0  0  0  0  0  0
   -5.0940   -1.0190   -2.0420 C   0  0  0  0  0  0  0  0  0  0  0  0
   -5.2070    0.1010   -2.4570 O   0  0  0  0  0  0  0  0  0  0  0  0
   -6.2310   -1.8770   -2.2300 O   0  0  0  0  0  0  0  0  0  0  0  0
   -1.6970   -1.9510   -0.5420 N   0  0  0  0  0  0  0  0  0  0  0  0
   -0.3750   -1.4030   -1.0030 C   0  0  2  0  0  0  0  0  0  0  0  0
    0.5940   -2.0570   -0.3590 F   0  0  0  0  0  0  0  0  0  0  0  0
   -0.2920   -1.3940   -2.4870 C   0  0  0  0  0  0  0  0  0  0  0  0
    0.0420   -2.7370   -3.0770 C   0  0  0  0  0  0  0  0  0  0  0  0
    0.0880   -2.5780   -4.4680 O   0  0  0  0  0  0  0  0  0  0  0  0
  2  1  1  1
  2  3  1  0
  2  4  1  0
  4  5  1  0
  5  6  2  0
  5  7  1  0
  7  8  1  0
  7 17  2  3
  8  9  2  0
  8 10  1  0
 10 11  1  0
 11 12  1  0
 12 13  1  0
 13 14  1  0
 14 15  1  0
 14 16  1  0
 17 18  1  0
 17 28  1  0
 18 19  1  0
 18 22  2  0
 19 20  2  0
 19 21  1  0
 22 23  1  0
 22 27  1  0
 23 24  1  0
 24 25  2  0
 24 26  1  0
 27 28  1  0
 28 29  1  1
 28 30  1  0
 30 31  1  0
 31 32  1  0
M  END
