
     RDKit          3D

 32 32  0  0  0  0  0  0  0  0999 V2000
    0.7320   -4.5610    1.0920 N   0  0  0  0  0  0  0  0  0  0  0  0
    1.8400   -4.3470    0.3090 N   0  0  0  0  0  0  0  0  0  0  0  0
    2.0950   -3.0740   -0.1770 C   0  0  0  0  0  0  0  0  0  0  0  0
    1.1830   -2.0730    0.1730 C   0  0  0  0  0  0  0  0  0  0  0  0
    0.9760   -0.8170   -0.0040 C   0  0  0  0  0  0  0  0  0  0  0  0
   -0.2210   -0.2360    0.6380 N   0  0  0  0  0  0  0  0  0  0  0  0
   -0.5510    1.1150    0.5190 C   0  0  0  0  0  0  0  0  0  0  0  0
   -1.7780    1.6750    1.1860 C   0  0  0  0  0  0  0  0  0  0  0  0
   -2.8770    0.9660    0.6450 O   0  0  0  0  0  0  0  0  0  0  0  0
   -4.1650    1.2630    1.0710 C   0  0  0  0  0  0  0  0  0  0  0  0
   -4.2880    2.1710    1.9380 O   0  0  0  0  0  0  0  0  0  0  0  0
   -5.3550    0.5280    0.5170 C   0  0  2  0  0  0  0  0  0  0  0  0
   -5.3870    0.7320   -0.9810 C   0  0  0  0  0  0  0  0  0  0  0  0
   -4.2200    0.1760   -1.5010 O   0  0  0  0  0  0  0  0  0  0  0  0
   -6.5260    1.0710    1.1600 N   0  0  0  0  0  0  0  0  0  0  0  0
   -7.4220    0.3050    1.9480 C   0  0  0  0  0  0  0  0  0  0  0  0
   -7.2090   -0.9170    2.1120 O   0  0  0  0  0  0  0  0  0  0  0  0
   -8.5230    0.9350    2.5230 O   0  0  0  0  0  0  0  0  0  0  0  0
    0.2330    1.8870   -0.1880 C   0  0  0  0  0  0  0  0  0  0  0  0
   -0.0790    3.2020   -0.3100 F   0  0  0  0  0  0  0  0  0  0  0  0
    1.4130    1.3780   -0.8370 C   0  0  0  0  0  0  0  0  0  0  0  0
    1.8040    0.0730   -0.7700 C   0  0  0  0  0  0  0  0  0  0  0  0
    3.0120   -0.2960   -1.4700 C   0  0  0  0  0  0  0  0  0  0  0  0
    3.5490   -1.3630   -1.5590 O   0  0  0  0  0  0  0  0  0  0  0  0
    3.6900    0.7360   -2.1670 O   0  0  0  0  0  0  0  0  0  0  0  0
    4.8840    0.4290   -2.8700 C   0  0  0  0  0  0  0  0  0  0  0  0
    5.9830   -0.0960   -2.0050 C   0  0  1  0  0  0  0  0  0  0  0  0
    7.1160   -0.1790   -2.8280 F   0  0  0  0  0  0  0  0  0  0  0  0
    6.3450    0.8300   -1.0040 O   0  0  0  0  0  0  0  0  0  0  0  0
    6.4300    0.0180    0.5390 P   0  0  0  0  0  0  0  0  0  0  0  0
    8.0390    0.1160    1.1280 O   0  0  0  0  0  0  0  0  0  0  0  0
    5.3570    0.7510    1.6850 O   0  0  0  0  0  0  0  0  0  0  0  0
  1  2  1  0
  2  3  2  3
  3  4  1  0
  4  5  2  3
  5  6  1  0
  5 22  1  0
  6  7  1  0
  7  8  1  0
  7 19  2  0
  8  9  1  0
  9 10  1  0
 10 11  2  0
 10 12  1  0
 12 13  1  6
 12 15  1  0
 13 14  1  0
 15 16  1  0
 16 17  2  0
 16 18  1  0
 19 20  1  0
 19 21  1  0
 21 22  2  0
 22 23  1  0
 23 24  2  0
 23 25  1  0
 25 26  1  0
 26 27  1  0
 27 28  1  6
 27 29  1  0
 29 30  1  0
 30 31  1  0
 30 32  1  0
M  END
