
     RDKit          3D

 32 34  0  0  0  0  0  0  0  0999 V2000
    7.5820   -0.5190   -0.0930 N   0  0  0  0  0  0  0  0  0  0  0  0
    6.5600    0.0050   -0.9700 C   0  0  0  0  0  0  0  0  0  0  0  0
    5.2700   -0.2670   -0.7110 N   0  0  0  0  0  0  0  0  0  0  0  0
    4.3420    0.2320   -1.5410 C   0  0  0  0  0  0  0  0  0  0  0  0
    4.6980    1.0080   -2.6370 C   0  0  0  0  0  0  0  0  0  0  0  0
    3.5400    1.3370   -3.2420 N   0  0  0  0  0  0  0  0  0  0  0  0
    2.5280    0.7870   -2.5480 C   0  0  0  0  0  0  0  0  0  0  0  0
    3.0060    0.1080   -1.5040 N   0  0  0  0  0  0  0  0  0  0  0  0
    2.1920   -0.6090   -0.5430 C   0  0  2  0  0  0  0  0  0  0  0  0
    0.8880   -0.0720   -0.4930 O   0  0  0  0  0  0  0  0  0  0  0  0
    0.3500   -0.7940    0.5830 C   0  0  2  0  0  0  0  0  0  0  0  0
   -0.8880   -0.1440    1.1320 C   0  0  0  0  0  0  0  0  0  0  0  0
   -1.8940   -0.0390    0.1730 O   0  0  0  0  0  0  0  0  0  0  0  0
   -3.2670    0.6930    0.8130 P   0  0  2  0  0  0  0  0  0  0  0  0
   -3.1760    2.1730    0.5770 O   0  0  0  0  0  0  0  0  0  0  0  0
   -3.4740    0.3200    2.4500 O   0  0  0  0  0  0  0  0  0  0  0  0
   -4.6220    0.1280   -0.0280 O   0  0  0  0  0  0  0  0  0  0  0  0
   -5.9430   -0.0370    0.9900 P   0  0  2  0  0  0  0  0  0  0  0  0
   -5.5520   -0.3180    2.4090 O   0  0  0  0  0  0  0  0  0  0  0  0
   -6.8820   -1.3320    0.4010 O   0  0  0  0  0  0  0  0  0  0  0  0
   -6.8720    1.3910    0.9780 O   0  0  0  0  0  0  0  0  0  0  0  0
   -8.3750    1.0740    0.3080 P   0  0  2  0  0  0  0  0  0  0  0  0
   -8.8720   -0.4890    0.6840 O   0  0  0  0  0  0  0  0  0  0  0  0
   -8.2580    1.2170   -1.3800 O   0  0  0  0  0  0  0  0  0  0  0  0
   -9.4970    2.2470    0.8920 S   0  0  0  0  0  0  0  0  0  0  0  0
    1.4090   -0.7870    1.6570 C   0  0  1  0  0  0  0  0  0  0  0  0
    1.5930   -2.0960    2.0900 O   0  0  0  0  0  0  0  0  0  0  0  0
    2.6460   -0.3820    0.8820 C   0  0  1  0  0  0  0  0  0  0  0  0
    3.7020   -1.1890    1.2530 O   0  0  0  0  0  0  0  0  0  0  0  0
    6.0270    1.2690   -2.8750 C   0  0  0  0  0  0  0  0  0  0  0  0
    6.3520    1.9680   -3.8620 O   0  0  0  0  0  0  0  0  0  0  0  0
    6.9300    0.7550   -2.0260 N   0  0  0  0  0  0  0  0  0  0  0  0
  1  2  1  0
  2  3  2  0
  2 32  1  0
  3  4  1  0
  4  5  2  0
  4  8  1  0
  5  6  1  0
  5 30  1  0
  6  7  2  0
  7  8  1  0
  9  8  1  6
  9 10  1  0
  9 28  1  0
 10 11  1  0
 11 12  1  1
 11 26  1  0
 12 13  1  0
 13 14  1  0
 14 15  2  0
 14 16  1  1
 14 17  1  0
 17 18  1  0
 18 19  2  0
 18 20  1  6
 18 21  1  0
 21 22  1  0
 22 23  1  6
 22 24  1  0
 22 25  2  0
 26 27  1  6
 26 28  1  0
 28 29  1  1
 30 31  2  0
 30 32  1  0
M  END
