
     RDKit          3D

 31 31  0  0  0  0  0  0  0  0999 V2000
    7.7110    0.1020   -2.6580 C   0  0  0  0  0  0  0  0  0  0  0  0
    6.7410   -0.4690   -1.7290 C   0  0  0  0  0  0  0  0  0  0  0  0
    6.6950   -1.2870   -0.9630 O   0  0  0  0  0  0  0  0  0  0  0  0
    5.2510    0.4490   -1.9260 N   0  0  0  0  0  0  0  0  0  0  0  0
    4.5020   -0.2500   -0.8680 C   0  0  0  0  0  0  0  0  0  0  0  0
    4.8110   -1.1140   -0.1600 O   0  0  0  0  0  0  0  0  0  0  0  0
    3.2590    0.5100   -1.0360 N   0  0  0  0  0  0  0  0  0  0  0  0
    2.2680   -0.5690   -0.1350 C   0  0  0  0  0  0  0  0  0  0  0  0
    2.7830   -1.5600    0.1540 O   0  0  0  0  0  0  0  0  0  0  0  0
    0.9590    0.0740    0.0460 C   0  0  1  0  0  0  0  0  0  0  0  0
    1.1510    1.4300    0.4090 F   0  0  0  0  0  0  0  0  0  0  0  0
    0.3670   -0.0060   -1.2250 F   0  0  0  0  0  0  0  0  0  0  0  0
    0.0880   -0.5170    1.0750 C   0  0  1  0  0  0  0  0  0  0  0  0
    0.6730   -0.4960    2.4470 C   0  0  0  0  0  0  0  0  0  0  0  0
    1.9290   -1.1800    2.7210 C   0  0  0  0  0  0  0  0  0  0  0  0
    1.9720   -2.5790    2.9020 N   0  0  0  0  0  0  0  0  0  0  0  0
    2.9930   -0.5230    2.8050 O   0  0  0  0  0  0  0  0  0  0  0  0
   -1.2480    0.2020    1.1890 C   0  0  1  0  0  0  0  0  0  0  0  0
   -2.0890    0.1520   -0.0630 C   0  0  0  0  0  0  0  0  0  0  0  0
   -3.3700    0.7850    0.0700 N   0  0  0  0  0  0  0  0  0  0  0  0
   -3.9910    1.0380   -1.1880 C   0  0  0  0  0  0  0  0  0  0  0  0
   -4.4070   -0.2030   -1.9000 C   0  0  2  0  0  0  0  0  0  0  0  0
   -3.3810   -1.0370   -2.2940 O   0  0  0  0  0  0  0  0  0  0  0  0
   -5.5680    0.2180   -3.3150 P   0  0  0  0  0  0  0  0  0  0  0  0
   -4.5960    0.7880   -4.6360 O   0  0  0  0  0  0  0  0  0  0  0  0
   -6.3060   -1.2800   -3.8390 O   0  0  0  0  0  0  0  0  0  0  0  0
   -2.0060   -0.2960    2.3640 C   0  0  0  0  0  0  0  0  0  0  0  0
   -1.7240    0.2110    3.6010 O   0  0  0  0  0  0  0  0  0  0  0  0
   -1.7800    1.5700    3.6840 C   0  0  0  0  0  0  0  0  0  0  0  0
   -1.9910    2.1070    2.2710 C   0  0  0  0  0  0  0  0  0  0  0  0
   -1.0080    1.5850    1.4380 O   0  0  0  0  0  0  0  0  0  0  0  0
  1  2  1  0
  2  3  2  0
  2  4  1  0
  4  5  1  0
  5  6  2  0
  5  7  1  0
  7  8  1  0
  8  9  2  0
  8 10  1  0
 10 11  1  1
 10 12  1  0
 10 13  1  0
 13 14  1  1
 13 18  1  0
 14 15  1  0
 15 16  1  0
 15 17  2  0
 18 19  1  6
 18 27  1  0
 18 31  1  0
 19 20  1  0
 20 21  1  0
 21 22  1  0
 22 23  1  6
 22 24  1  0
 24 25  1  0
 24 26  1  0
 27 28  1  0
 28 29  1  0
 29 30  1  0
 30 31  1  0
M  END
