
     RDKit          3D

 32 32  0  0  0  0  0  0  0  0999 V2000
   -1.8260    6.4560    0.8500 C   0  0  0  0  0  0  0  0  0  0  0  0
   -1.4010    5.1050    0.3190 C   0  0  0  0  0  0  0  0  0  0  0  0
   -2.1030    4.8850   -0.8640 O   0  0  0  0  0  0  0  0  0  0  0  0
   -1.6340    3.3380   -1.4930 P   0  0  0  0  0  0  0  0  0  0  0  0
   -1.3900    3.4100   -3.2040 O   0  0  0  0  0  0  0  0  0  0  0  0
   -0.1910    2.8150   -0.7330 O   0  0  0  0  0  0  0  0  0  0  0  0
   -0.1280    1.4040   -0.6300 C   0  0  1  0  0  0  0  0  0  0  0  0
   -1.2470    1.0340    0.1370 O   0  0  0  0  0  0  0  0  0  0  0  0
   -1.6060   -0.2370    0.4990 C   0  0  0  0  0  0  0  0  0  0  0  0
   -0.8580   -1.1840    0.1080 O   0  0  0  0  0  0  0  0  0  0  0  0
   -2.8200   -0.5360    1.3210 C   0  0  2  0  0  0  0  0  0  0  0  0
   -2.8110    0.2760    2.6040 C   0  0  0  0  0  0  0  0  0  0  0  0
   -2.8000    1.6300    2.3420 F   0  0  0  0  0  0  0  0  0  0  0  0
   -2.9810   -1.9370    1.5590 N   0  0  0  0  0  0  0  0  0  0  0  0
   -4.1170   -2.6500    1.0900 C   0  0  0  0  0  0  0  0  0  0  0  0
   -4.9760   -1.9850    0.4530 O   0  0  0  0  0  0  0  0  0  0  0  0
   -4.2850   -4.0890    1.3340 C   0  0  0  0  0  0  0  0  0  0  0  0
   -5.4070   -4.8080    0.8730 N   0  0  0  0  0  0  0  0  0  0  0  0
   -3.4010   -4.7080    1.9750 O   0  0  0  0  0  0  0  0  0  0  0  0
   -0.2230    0.8270   -2.0440 C   0  0  0  0  0  0  0  0  0  0  0  0
    0.8730    1.2520   -2.8080 O   0  0  0  0  0  0  0  0  0  0  0  0
    2.1420    1.0790   -2.2700 C   0  0  0  0  0  0  0  0  0  0  0  0
    3.1870    1.2820   -2.9660 O   0  0  0  0  0  0  0  0  0  0  0  0
    2.2190    0.6680   -0.9150 N   0  0  0  0  0  0  0  0  0  0  0  0
    3.3420   -0.1520   -0.4950 C   0  0  0  0  0  0  0  0  0  0  0  0
    3.0660   -1.6290   -0.6340 C   0  0  0  0  0  0  0  0  0  0  0  0
    4.3090   -2.3580   -0.1650 C   0  0  1  0  0  0  0  0  0  0  0  0
    5.4280   -2.0230   -0.9210 O   0  0  0  0  0  0  0  0  0  0  0  0
    4.5940   -2.0160    1.1420 F   0  0  0  0  0  0  0  0  0  0  0  0
    4.1230   -3.8560   -0.1990 C   0  0  0  0  0  0  0  0  0  0  0  0
    5.3160   -4.4600    0.3610 N   0  0  0  0  0  0  0  0  0  0  0  0
    1.1820    1.0820   -0.0030 C   0  0  0  0  0  0  0  0  0  0  0  0
  1  2  1  0
  2  3  1  0
  3  4  1  0
  4  5  1  0
  4  6  1  0
  7  6  1  6
  7  8  1  0
  7 20  1  0
  7 32  1  0
  8  9  1  0
  9 10  2  0
  9 11  1  0
 11 12  1  1
 11 14  1  0
 12 13  1  0
 14 15  1  0
 15 16  2  0
 15 17  1  0
 17 18  1  0
 17 19  2  0
 20 21  1  0
 21 22  1  0
 22 23  2  0
 22 24  1  0
 24 25  1  0
 24 32  1  0
 25 26  1  0
 26 27  1  0
 27 28  1  6
 27 29  1  0
 27 30  1  0
 30 31  1  0
M  END
