
     RDKit          3D

  7  6  0  0  0  0  0  0  0  0999 V2000
    1.9120   -0.2660   -0.1060 N   0  0  0  0  0  0  0  0  0  0  0  0
    1.1300    0.9250   -0.2350 C   0  0  0  0  0  0  0  0  0  0  0  0
   -0.0820    0.7790    0.4480 O   0  0  0  0  0  0  0  0  0  0  0  0
   -0.8040   -0.2850   -0.0690 C   0  0  1  0  0  0  0  0  0  0  0  0
   -0.9760   -1.2770    0.9220 O   0  0  0  0  0  0  0  0  0  0  0  0
   -2.1360    0.1450   -0.5660 C   0  0  0  0  0  0  0  0  0  0  0  0
   -2.6270    1.4530   -0.2590 S   0  0  0  0  0  0  0  0  0  0  0  0
  1  2  1  0
  2  3  1  0
  3  4  1  0
  4  5  1  1
  4  6  1  0
  6  7  2  0
M  END
