
     RDKit          3D

  7  6  0  0  0  0  0  0  0  0999 V2000
    2.2450    0.0540   -0.1840 N   0  0  0  0  0  0  0  0  0  0  0  0
    0.8940   -0.3220   -0.4420 C   0  0  0  0  0  0  0  0  0  0  0  0
    0.7000   -1.1330   -1.3280 O   0  0  0  0  0  0  0  0  0  0  0  0
   -0.2040    0.2730    0.3600 C   0  0  1  0  0  0  0  0  0  0  0  0
   -0.2760    2.0730    0.2080 S   0  0  0  0  0  0  0  0  0  0  0  0
   -1.5330   -0.2930   -0.1000 C   0  0  0  0  0  0  0  0  0  0  0  0
   -1.5720   -1.6850    0.0550 O   0  0  0  0  0  0  0  0  0  0  0  0
  1  2  1  0
  2  3  2  0
  2  4  1  0
  4  5  1  6
  4  6  1  0
  6  7  1  0
M  CHG  1   1   1
M  END
