
     RDKit          3D

  7  6  0  0  0  0  0  0  0  0999 V2000
    2.4980    0.3830    0.2740 C   0  0  0  0  0  0  0  0  0  0  0  0
    1.2970    0.3500   -0.2490 C   0  0  0  0  0  0  0  0  0  0  0  0
    0.4420   -0.8690   -0.2070 C   0  0  0  0  0  0  0  0  0  0  0  0
   -1.0760   -0.5450    0.6580 S   0  0  2  0  0  0  0  0  0  0  0  0
   -1.9740    0.7080   -0.1130 N   0  0  0  0  0  0  0  0  0  0  0  0
   -0.8230   -0.2410    2.1060 O   0  0  0  0  0  0  0  0  0  0  0  0
   -1.9300   -1.7890    0.6240 O   0  0  0  0  0  0  0  0  0  0  0  0
  1  2  2  0
  2  3  1  0
  3  4  1  0
  4  5  1  6
  4  6  2  0
  4  7  2  0
M  CHG  1   5   1
M  END
