
     RDKit          3D

 10  9  0  0  0  0  0  0  0  0999 V2000
    3.0580    0.2650   -0.3890 C   0  0  0  0  0  0  0  0  0  0  0  0
    2.2820    1.0370    0.4180 O   0  0  0  0  0  0  0  0  0  0  0  0
    1.1340    0.5080    0.8970 C   0  0  0  0  0  0  0  0  0  0  0  0
    0.1480    0.0890   -0.1580 C   0  0  1  0  0  0  0  0  0  0  0  0
    0.5840   -0.8880   -1.0060 O   0  0  0  0  0  0  0  0  0  0  0  0
   -1.1150   -0.3330    0.6000 C   0  0  2  0  0  0  0  0  0  0  0  0
   -1.4480    0.7420    1.4200 O   0  0  0  0  0  0  0  0  0  0  0  0
   -0.8150   -1.4610    1.3430 O   0  0  0  0  0  0  0  0  0  0  0  0
   -2.2270   -0.6600   -0.3700 C   0  0  0  0  0  0  0  0  0  0  0  0
   -2.4270    0.5020   -1.1500 O   0  0  0  0  0  0  0  0  0  0  0  0
  1  2  1  0
  2  3  1  0
  3  4  1  0
  4  5  1  1
  4  6  1  0
  6  7  1  1
  6  8  1  0
  6  9  1  0
  9 10  1  0
M  END
