
     RDKit          3D

 10  9  0  0  0  0  0  0  0  0999 V2000
   -3.7690    0.8160   -0.6010 O   0  0  0  0  0  0  0  0  0  0  0  0
   -2.6860    0.7480    0.2730 C   0  0  0  0  0  0  0  0  0  0  0  0
   -1.5040    0.0760   -0.3960 C   0  0  2  0  0  0  0  0  0  0  0  0
   -1.7980   -1.2090   -0.7950 O   0  0  0  0  0  0  0  0  0  0  0  0
   -0.3650    0.0850    0.6170 C   0  0  0  0  0  0  0  0  0  0  0  0
    0.7290   -0.4730    0.0150 O   0  0  0  0  0  0  0  0  0  0  0  0
    1.8570   -0.5450    0.7940 C   0  0  1  0  0  0  0  0  0  0  0  0
    2.2740   -1.8740    0.9180 O   0  0  0  0  0  0  0  0  0  0  0  0
    2.9570    0.2300    0.0750 C   0  0  0  0  0  0  0  0  0  0  0  0
    2.5880    1.5530   -0.1020 O   0  0  0  0  0  0  0  0  0  0  0  0
  1  2  1  0
  2  3  1  0
  3  4  1  1
  3  5  1  0
  5  6  1  0
  6  7  1  0
  7  8  1  6
  7  9  1  0
  9 10  1  0
M  END
