
     RDKit          3D

 12 13  0  0  0  0  0  0  0  0999 V2000
    1.3470    2.5280   -0.1290 O   0  0  0  0  0  0  0  0  0  0  0  0
    1.4060    1.2680   -0.0910 C   0  0  0  0  0  0  0  0  0  0  0  0
    2.5790    0.6120   -0.0770 N   0  0  0  0  0  0  0  0  0  0  0  0
    2.6810   -0.7300   -0.0370 C   0  0  0  0  0  0  0  0  0  0  0  0
    1.4940   -1.4440   -0.0090 C   0  0  0  0  0  0  0  0  0  0  0  0
    0.2670   -0.7980   -0.0230 C   0  0  0  0  0  0  0  0  0  0  0  0
   -0.9330   -1.4790    0.0040 C   0  0  0  0  0  0  0  0  0  0  0  0
   -2.1500   -0.8040   -0.0110 C   0  0  0  0  0  0  0  0  0  0  0  0
   -2.2040    0.5630   -0.0520 C   0  0  0  0  0  0  0  0  0  0  0  0
   -3.4370    1.2130   -0.0660 O   0  0  0  0  0  0  0  0  0  0  0  0
   -1.0090    1.2520   -0.0790 C   0  0  0  0  0  0  0  0  0  0  0  0
    0.2080    0.5800   -0.0640 C   0  0  0  0  0  0  0  0  0  0  0  0
  1  2  2  0
  2  3  1  0
  2 12  1  0
  3  4  1  0
  4  5  2  0
  5  6  1  0
  6  7  2  0
  6 12  1  0
  7  8  1  0
  8  9  2  0
  9 10  1  0
  9 11  1  0
 11 12  2  0
M  END
