
     RDKit          3D

  9  9  0  0  0  0  0  0  0  0999 V2000
    2.6000    1.0450   -0.2670 C   0  0  0  0  0  0  0  0  0  0  0  0
    1.6240    0.3030    0.3880 O   0  0  0  0  0  0  0  0  0  0  0  0
    0.3520    0.5680   -0.1750 C   0  0  2  0  0  0  0  0  0  0  0  0
   -0.5160    0.9910    0.7990 O   0  0  0  0  0  0  0  0  0  0  0  0
   -1.3940   -0.0120    1.1000 C   0  0  1  0  0  0  0  0  0  0  0  0
   -2.5640    0.1330    0.3250 O   0  0  0  0  0  0  0  0  0  0  0  0
   -0.7370   -1.2980    0.6410 C   0  0  0  0  0  0  0  0  0  0  0  0
   -0.1500   -0.7760   -0.6810 C   0  0  1  0  0  0  0  0  0  0  0  0
   -1.1800   -0.5360   -1.5620 O   0  0  0  0  0  0  0  0  0  0  0  0
  1  2  1  0
  3  2  1  1
  3  4  1  0
  3  8  1  0
  4  5  1  0
  5  6  1  6
  5  7  1  0
  7  8  1  0
  8  9  1  6
M  END
