
     RDKit          3D

  9  9  0  0  0  0  0  0  0  0999 V2000
   -2.0700    0.0570   -0.1920 C   0  0  0  0  0  0  0  0  0  0  0  0
   -0.8320    0.3380    0.6270 C   0  0  1  0  0  0  0  0  0  0  0  0
   -0.3790    1.6340    0.4800 O   0  0  0  0  0  0  0  0  0  0  0  0
   -1.2050    0.1890    1.9740 O   0  0  0  0  0  0  0  0  0  0  0  0
    0.2690   -0.6560    0.3380 C   0  0  1  0  0  0  0  0  0  0  0  0
    0.8910   -0.4650   -1.0050 C   0  0  0  0  0  0  0  0  0  0  0  0
    2.2600   -0.3260   -0.7600 O   0  0  0  0  0  0  0  0  0  0  0  0
    2.3510    0.1380    0.5310 C   0  0  0  0  0  0  0  0  0  0  0  0
    1.3140   -0.4490    1.2150 O   0  0  0  0  0  0  0  0  0  0  0  0
  2  1  1  6
  2  3  1  0
  2  4  1  0
  2  5  1  0
  5  6  1  6
  5  9  1  0
  6  7  1  0
  7  8  1  0
  8  9  1  0
M  END
