
     RDKit          3D

 11 12  0  0  0  0  0  0  0  0999 V2000
   -3.1900   -0.5890    0.6590 C   0  0  0  0  0  0  0  0  0  0  0  0
   -2.4830    0.4990    0.0230 N   0  0  0  0  0  0  0  0  0  0  0  0
   -1.0590    0.4940   -0.1370 C   0  0  0  0  0  0  0  0  0  0  0  0
   -0.4340    1.5570   -0.7500 C   0  0  0  0  0  0  0  0  0  0  0  0
    0.9050    1.6050   -0.9280 N   0  0  0  0  0  0  0  0  0  0  0  0
    1.6710    0.5920   -0.4990 C   0  0  0  0  0  0  0  0  0  0  0  0
    3.0060    0.3850   -0.5450 N   0  0  0  0  0  0  0  0  0  0  0  0
    3.2360   -0.8060    0.0360 C   0  0  0  0  0  0  0  0  0  0  0  0
    2.0510   -1.3240    0.4350 N   0  0  0  0  0  0  0  0  0  0  0  0
    1.0540   -0.4770    0.1170 C   0  0  0  0  0  0  0  0  0  0  0  0
   -0.2980   -0.5250    0.2960 N   0  0  0  0  0  0  0  0  0  0  0  0
  1  2  1  0
  2  3  1  0
  3  4  2  0
  3 11  1  0
  4  5  1  0
  5  6  2  0
  6  7  1  0
  6 10  1  0
  7  8  1  0
  8  9  2  0
  9 10  1  0
 10 11  2  0
M  CHG  1   9   1
M  END
