
     RDKit          3D

 11 12  0  0  0  0  0  0  0  0999 V2000
   -2.7880   -1.0750   -0.4450 N   0  0  0  0  0  0  0  0  0  0  0  0
   -1.6630   -0.6060   -0.0710 C   0  0  0  0  0  0  0  0  0  0  0  0
   -1.5980    0.7020    0.6260 C   0  0  0  0  0  0  0  0  0  0  0  0
   -0.3820    1.4240    0.3250 N   0  0  0  0  0  0  0  0  0  0  0  0
    0.8310    0.7140    0.1020 C   0  0  0  0  0  0  0  0  0  0  0  0
    2.0660    1.3270    0.1790 C   0  0  0  0  0  0  0  0  0  0  0  0
    3.2040    0.6420   -0.0340 N   0  0  0  0  0  0  0  0  0  0  0  0
    3.2010   -0.6690   -0.3320 C   0  0  0  0  0  0  0  0  0  0  0  0
    2.0070   -1.2820   -0.4110 N   0  0  0  0  0  0  0  0  0  0  0  0
    0.8420   -0.6380   -0.2050 C   0  0  0  0  0  0  0  0  0  0  0  0
   -0.4210   -1.2790   -0.2870 N   0  0  0  0  0  0  0  0  0  0  0  0
  1  2  2  0
  2  3  1  0
  2 11  1  0
  3  4  1  0
  4  5  1  0
  5  6  2  0
  5 10  1  0
  6  7  1  0
  7  8  2  0
  8  9  1  0
  9 10  2  0
 10 11  1  0
M  CHG  1   1   1
M  END
