
     RDKit          3D

 14 14  0  0  0  0  0  0  0  0999 V2000
   -3.6750   -1.4170    0.5970 N   0  0  0  0  0  0  0  0  0  0  0  0
   -3.0830   -0.3010   -0.0290 C   0  0  0  0  0  0  0  0  0  0  0  0
   -3.7740    0.4760   -0.7170 O   0  0  0  0  0  0  0  0  0  0  0  0
   -1.6380   -0.0140    0.1060 C   0  0  0  0  0  0  0  0  0  0  0  0
   -0.9660   -0.7930    0.7900 O   0  0  0  0  0  0  0  0  0  0  0  0
   -1.0300    1.0990   -0.5150 N   0  0  0  0  0  0  0  0  0  0  0  0
    0.3460    1.4810   -0.4760 C   0  0  0  0  0  0  0  0  0  0  0  0
    1.3540    0.5830   -1.0730 C   0  0  2  0  0  0  0  0  0  0  0  0
    1.4340   -0.7130   -0.4450 N   0  0  0  0  0  0  0  0  0  0  0  0
    2.2070   -0.8970    0.7640 C   0  0  0  0  0  0  0  0  0  0  0  0
    2.0070   -1.8650    1.5320 O   0  0  0  0  0  0  0  0  0  0  0  0
    3.2270    0.0850    1.0570 C   0  0  0  0  0  0  0  0  0  0  0  0
    3.3840    1.0620    0.2240 N   0  0  0  0  0  0  0  0  0  0  0  0
    2.6460    1.2280   -0.9210 O   0  0  0  0  0  0  0  0  0  0  0  0
  1  2  1  0
  2  3  2  0
  2  4  1  0
  4  5  2  0
  4  6  1  0
  6  7  1  0
  8  7  1  1
  8  9  1  0
  8 14  1  0
  9 10  1  0
 10 11  2  0
 10 12  1  0
 12 13  2  0
 13 14  1  0
M  END
