
     RDKit          3D

 14 14  0  0  0  0  0  0  0  0999 V2000
   -3.7680   -0.3630   -0.0990 C   0  0  0  0  0  0  0  0  0  0  0  0
   -2.5700    0.2080   -0.8040 C   0  0  1  0  0  0  0  0  0  0  0  0
   -2.6260    1.5990   -0.7430 O   0  0  0  0  0  0  0  0  0  0  0  0
   -1.2610   -0.2190   -0.1880 C   0  0  2  0  0  0  0  0  0  0  0  0
   -1.1270    0.1700    1.1220 O   0  0  0  0  0  0  0  0  0  0  0  0
   -0.1530    0.2680   -1.0780 C   0  0  0  0  0  0  0  0  0  0  0  0
    1.1640   -0.0830   -0.5880 N   0  0  0  0  0  0  0  0  0  0  0  0
    1.8180   -1.1910   -0.8840 N   0  0  0  0  0  0  0  0  0  0  0  0
    3.0050   -1.2110   -0.2700 C   0  0  0  0  0  0  0  0  0  0  0  0
    3.8740   -2.0990   -0.3260 O   0  0  0  0  0  0  0  0  0  0  0  0
    3.1070   -0.0770    0.4390 N   0  0  0  0  0  0  0  0  0  0  0  0
    4.1760    0.3410    1.2430 N   0  0  0  0  0  0  0  0  0  0  0  0
    1.9590    0.6120    0.2330 C   0  0  0  0  0  0  0  0  0  0  0  0
    1.7140    1.7320    0.7510 O   0  0  0  0  0  0  0  0  0  0  0  0
  2  1  1  1
  2  3  1  0
  2  4  1  0
  4  5  1  1
  4  6  1  0
  6  7  1  0
  7  8  1  0
  7 13  1  0
  8  9  1  0
  9 10  2  0
  9 11  1  0
 11 12  1  0
 11 13  1  0
 13 14  2  0
M  END
