
     RDKit          3D

 13 14  0  0  0  0  0  0  0  0999 V2000
   -1.7200   -1.3130   -0.3940 C   0  0  0  0  0  0  0  0  0  0  0  0
   -1.0630    0.0310   -0.4340 C   0  0  1  0  0  0  0  0  0  0  0  0
   -1.1990    0.5660   -1.6960 O   0  0  0  0  0  0  0  0  0  0  0  0
   -1.7710    0.9050    0.5570 C   0  0  0  0  0  0  0  0  0  0  0  0
   -2.9450    0.9000    0.8870 O   0  0  0  0  0  0  0  0  0  0  0  0
   -0.7670    1.8380    1.1130 C   0  0  0  0  0  0  0  0  0  0  0  0
    0.5800    1.3390    0.6960 C   0  0  0  0  0  0  0  0  0  0  0  0
    0.3790    0.0100    0.0040 C   0  0  1  0  0  0  0  0  0  0  0  0
    0.7780   -1.1050    0.7300 N   0  0  0  0  0  0  0  0  0  0  0  0
    1.7070   -1.8220    0.0450 N   0  0  0  0  0  0  0  0  0  0  0  0
    2.3860   -0.7710   -0.6370 N   0  0  0  0  0  0  0  0  0  0  0  0
    2.9090   -0.0040    0.3770 O   0  0  0  0  0  0  0  0  0  0  0  0
    1.2900   -0.0150   -1.1390 N   0  0  0  0  0  0  0  0  0  0  0  0
  2  1  1  6
  2  3  1  0
  2  4  1  0
  2  8  1  0
  4  5  2  0
  4  6  1  0
  6  7  1  0
  8  7  1  1
  8  9  1  0
  8 13  1  0
  9 10  1  0
 10 11  1  0
 11 12  1  0
 11 13  1  0
M  END
