
     RDKit          3D

 14 14  0  0  0  0  0  0  0  0999 V2000
   -2.9630    1.2570    0.4190 C   0  0  0  0  0  0  0  0  0  0  0  0
   -3.0500    0.2250   -0.5280 N   0  0  0  0  0  0  0  0  0  0  0  0
   -1.8730   -0.3010   -1.1320 C   0  0  0  0  0  0  0  0  0  0  0  0
   -1.0540   -1.0650   -0.1850 C   0  0  1  0  0  0  0  0  0  0  0  0
    0.0800   -1.6710   -0.7900 O   0  0  0  0  0  0  0  0  0  0  0  0
    0.6470   -2.2230    0.3280 N   0  0  0  0  0  0  0  0  0  0  0  0
    0.4810   -1.3740    1.3550 O   0  0  0  0  0  0  0  0  0  0  0  0
   -0.2460   -0.2590    0.8250 C   0  0  1  0  0  0  0  0  0  0  0  0
    0.7560    0.6170    0.2030 C   0  0  0  0  0  0  0  0  0  0  0  0
    0.5360    1.7010   -0.3870 O   0  0  0  0  0  0  0  0  0  0  0  0
    2.1340    0.2280    0.2530 N   0  0  0  0  0  0  0  0  0  0  0  0
    3.1750    1.0340   -0.3270 C   0  0  0  0  0  0  0  0  0  0  0  0
    4.5280    0.6240   -0.2600 N   0  0  0  0  0  0  0  0  0  0  0  0
    2.8240    2.1100   -0.8890 O   0  0  0  0  0  0  0  0  0  0  0  0
  1  2  1  0
  2  3  1  0
  4  3  1  6
  4  5  1  0
  4  8  1  0
  5  6  1  0
  6  7  1  0
  7  8  1  0
  8  9  1  6
  9 10  2  0
  9 11  1  0
 11 12  1  0
 12 13  1  0
 12 14  2  0
M  END
