
     RDKit          3D

 13 14  0  0  0  0  0  0  0  0999 V2000
   -3.7890   -1.0410   -1.3770 O   0  0  0  0  0  0  0  0  0  0  0  0
   -2.8950   -0.6390   -0.5810 C   0  0  0  0  0  0  0  0  0  0  0  0
   -3.0810    0.5590    0.2680 C   0  0  0  0  0  0  0  0  0  0  0  0
   -1.9180    1.3750    0.0780 O   0  0  0  0  0  0  0  0  0  0  0  0
   -0.6640    0.7950    0.2130 C   0  0  0  0  0  0  0  0  0  0  0  0
    0.4130    1.4590    0.5900 C   0  0  0  0  0  0  0  0  0  0  0  0
    1.6880    0.8550    0.7240 N   0  0  0  0  0  0  0  0  0  0  0  0
    1.8450   -0.5480    0.4420 C   0  0  2  0  0  0  0  0  0  0  0  0
    2.8450   -0.7300   -0.6000 N   0  0  0  0  0  0  0  0  0  0  0  0
    4.0480   -0.2270   -0.2110 O   0  0  0  0  0  0  0  0  0  0  0  0
    0.6360   -1.1990    0.0400 N   0  0  0  0  0  0  0  0  0  0  0  0
   -0.5130   -0.6270   -0.0750 C   0  0  0  0  0  0  0  0  0  0  0  0
   -1.6610   -1.3420   -0.4780 N   0  0  0  0  0  0  0  0  0  0  0  0
  1  2  2  0
  2  3  1  0
  2 13  1  0
  3  4  1  0
  4  5  1  0
  5  6  2  0
  5 12  1  0
  6  7  1  0
  7  8  1  0
  8  9  1  6
  8 11  1  0
  9 10  1  0
 11 12  2  0
 12 13  1  0
M  END
