
     RDKit          3D

 24 27  0  0  0  0  0  0  0  0999 V2000
   -0.7580    2.6220   -1.0220 O   0  0  0  0  0  0  0  0  0  0  0  0
   -0.6000    1.6020   -0.0690 C   0  0  2  0  0  0  0  0  0  0  0  0
    0.8310    1.2480    0.0930 C   0  0  0  0  0  0  0  0  0  0  0  0
    1.4260    1.0700    1.3250 C   0  0  0  0  0  0  0  0  0  0  0  0
    2.6930    0.7560    1.4990 N   0  0  0  0  0  0  0  0  0  0  0  0
    3.5340    0.5790    0.4280 C   0  0  0  0  0  0  0  0  0  0  0  0
    2.9690    0.7500   -0.7990 C   0  0  0  0  0  0  0  0  0  0  0  0
    1.6410    1.0790   -1.0040 C   0  0  0  0  0  0  0  0  0  0  0  0
    4.2950    0.4470   -1.9900 S   0  0  0  0  0  0  0  0  0  0  0  0
    5.4050   -0.3870   -0.7820 C   0  0  2  0  0  0  0  0  0  0  0  0
    5.2120   -1.8800   -0.8300 C   0  0  2  0  0  0  0  0  0  0  0  0
    6.0760   -2.4260    0.1000 F   0  0  0  0  0  0  0  0  0  0  0  0
    5.5380   -2.3810   -2.0650 F   0  0  0  0  0  0  0  0  0  0  0  0
    4.9420    0.2400    0.4790 C   0  0  0  0  0  0  0  0  0  0  0  0
   -1.4210    0.3950   -0.5390 C   0  0  1  0  0  0  0  0  0  0  0  0
   -1.2260   -0.7210    0.4320 C   0  0  0  0  0  0  0  0  0  0  0  0
   -2.3820   -1.5770    0.5550 N   0  0  0  0  0  0  0  0  0  0  0  0
   -3.6890   -1.0470    0.5330 C   0  0  0  0  0  0  0  0  0  0  0  0
   -4.7490   -1.6840    1.0680 N   0  0  0  0  0  0  0  0  0  0  0  0
   -5.9920   -1.1730    1.0440 C   0  0  0  0  0  0  0  0  0  0  0  0
   -6.2310    0.0490    0.4560 C   0  0  0  0  0  0  0  0  0  0  0  0
   -5.1610    0.7160   -0.0970 C   0  0  0  0  0  0  0  0  0  0  0  0
   -3.8960    0.1710   -0.0590 C   0  0  0  0  0  0  0  0  0  0  0  0
   -2.7880    0.8460   -0.6230 N   0  0  0  0  0  0  0  0  0  0  0  0
  2  1  1  6
  2  3  1  0
  2 15  1  0
  3  4  2  0
  3  8  1  0
  4  5  1  0
  5  6  2  0
  6  7  1  0
  6 14  1  0
  7  8  2  0
  7  9  1  0
  9 10  1  0
 10 11  1  0
 10 14  1  1
 11 12  1  1
 11 13  1  0
 15 16  1  1
 15 24  1  0
 16 17  1  0
 17 18  1  0
 18 19  2  0
 18 23  1  0
 19 20  1  0
 20 21  2  0
 21 22  1  0
 22 23  2  0
 23 24  1  0
M  END
