
     RDKit          3D

 24 27  0  0  0  0  0  0  0  0999 V2000
    0.7210    2.3540   -1.7280 C   0  0  0  0  0  0  0  0  0  0  0  0
    0.5740    1.9840   -0.2480 C   0  0  2  0  0  0  0  0  0  0  0  0
    0.5780    3.1830    0.5570 N   0  0  0  0  0  0  0  0  0  0  0  0
    1.7130    1.1680    0.0820 N   0  0  0  0  0  0  0  0  0  0  0  0
    1.7360   -0.2250    0.2600 C   0  0  0  0  0  0  0  0  0  0  0  0
    2.9120   -1.0630   -0.0400 C   0  0  0  0  0  0  0  0  0  0  0  0
    4.0830   -0.6640   -0.5050 C   0  0  0  0  0  0  0  0  0  0  0  0
    4.3810    0.6480   -0.7860 F   0  0  0  0  0  0  0  0  0  0  0  0
    4.9810   -1.8300   -0.6630 C   0  0  0  0  0  0  0  0  0  0  0  0
    4.1800   -2.9290   -0.2340 N   0  0  0  0  0  0  0  0  0  0  0  0
    3.0140   -2.5110    0.1190 C   0  0  0  0  0  0  0  0  0  0  0  0
    0.6740   -0.8610    0.7130 N   0  0  0  0  0  0  0  0  0  0  0  0
   -0.7090    0.1350    1.0590 S   0  0  1  0  0  0  0  0  0  0  0  0
   -0.5510    0.7940    2.4010 O   0  0  0  0  0  0  0  0  0  0  0  0
   -0.7130    1.2760   -0.0350 C   0  0  0  0  0  0  0  0  0  0  0  0
   -1.8970    1.6050   -0.7950 C   0  0  0  0  0  0  0  0  0  0  0  0
   -3.0120    0.9030   -0.7520 C   0  0  0  0  0  0  0  0  0  0  0  0
   -4.0490    1.3190   -1.5190 F   0  0  0  0  0  0  0  0  0  0  0  0
   -3.1830   -0.2690    0.1040 C   0  0  0  0  0  0  0  0  0  0  0  0
   -4.3890   -0.9690    0.0480 C   0  0  0  0  0  0  0  0  0  0  0  0
   -4.5970   -2.0910    0.7980 C   0  0  0  0  0  0  0  0  0  0  0  0
   -3.5900   -2.5350    1.6240 C   0  0  0  0  0  0  0  0  0  0  0  0
   -2.4040   -1.8680    1.6960 C   0  0  0  0  0  0  0  0  0  0  0  0
   -2.2060   -0.7460    0.9420 C   0  0  0  0  0  0  0  0  0  0  0  0
  2  1  1  6
  2  3  1  0
  2  4  1  0
  2 15  1  0
  4  5  1  0
  5  6  1  0
  5 12  2  0
  6  7  2  0
  6 11  1  0
  7  8  1  0
  7  9  1  0
  9 10  1  0
 10 11  2  0
 13 12  1  6
 13 14  2  0
 13 15  2  0
 13 24  1  0
 15 16  1  0
 16 17  2  0
 17 18  1  0
 17 19  1  0
 19 20  2  0
 19 24  1  0
 20 21  1  0
 21 22  2  0
 22 23  1  0
 23 24  2  0
M  END
