
     RDKit          3D

 24 26  0  0  0  0  0  0  0  0999 V2000
    0.7530    3.5940    1.6160 O   0  0  0  0  0  0  0  0  0  0  0  0
    1.5610    2.6590    1.4780 C   0  0  0  0  0  0  0  0  0  0  0  0
    2.9030    2.8210    1.0750 N   0  0  0  0  0  0  0  0  0  0  0  0
    3.4710    1.5270    0.7590 C   0  0  0  0  0  0  0  0  0  0  0  0
    4.6750    1.4260    0.3740 N   0  0  0  0  0  0  0  0  0  0  0  0
    5.4110    0.3140    0.0250 N   0  0  0  0  0  0  0  0  0  0  0  0
    5.2170   -1.0650    0.3120 C   0  0  2  0  0  0  0  0  0  0  0  0
    6.2600   -1.8720   -0.4260 C   0  0  1  0  0  0  0  0  0  0  0  0
    6.0640   -1.5980   -1.7870 F   0  0  0  0  0  0  0  0  0  0  0  0
    7.5390   -1.5210   -0.1110 F   0  0  0  0  0  0  0  0  0  0  0  0
    3.6010   -1.6950   -0.1830 S   0  0  0  0  0  0  0  0  0  0  0  0
    2.3580   -0.7440    0.6620 C   0  0  0  0  0  0  0  0  0  0  0  0
    2.4410    0.5530    0.9770 C   0  0  0  0  0  0  0  0  0  0  0  0
    1.3270    1.2480    1.6870 C   0  0  2  0  0  0  0  0  0  0  0  0
    0.0980    0.7260    1.2420 N   0  0  0  0  0  0  0  0  0  0  0  0
   -0.1930    0.7830   -0.1380 C   0  0  0  0  0  0  0  0  0  0  0  0
   -1.5760    0.1420   -0.3360 C   0  0  1  0  0  0  0  0  0  0  0  0
   -2.5680    0.9360    0.4670 C   0  0  0  0  0  0  0  0  0  0  0  0
   -3.5490    0.0650    1.2020 C   0  0  0  0  0  0  0  0  0  0  0  0
   -4.7920   -0.2260    0.4080 C   0  0  0  0  0  0  0  0  0  0  0  0
   -4.6330   -1.4290   -0.5050 C   0  0  0  0  0  0  0  0  0  0  0  0
   -4.1960   -1.0620   -1.8860 C   0  0  0  0  0  0  0  0  0  0  0  0
   -2.7240   -1.1750   -2.1150 C   0  0  0  0  0  0  0  0  0  0  0  0
   -1.9730    0.1010   -1.7800 C   0  0  0  0  0  0  0  0  0  0  0  0
  1  2  2  0
  2  3  1  0
  2 14  1  0
  3  4  1  0
  4  5  2  0
  4 13  1  0
  5  6  1  0
  7  6  1  6
  7  8  1  0
  7 11  1  0
  8  9  1  6
  8 10  1  0
 11 12  1  0
 12 13  2  0
 13 14  1  0
 14 15  1  6
 15 16  1  0
 17 16  1  6
 17 18  1  0
 17 24  1  0
 18 19  1  0
 19 20  1  0
 20 21  1  0
 21 22  1  0
 22 23  1  0
 23 24  1  0
M  END
