
     RDKit          3D

 24 26  0  0  0  0  0  0  0  0999 V2000
    1.3920   -3.0710   -0.1490 C   0  0  0  0  0  0  0  0  0  0  0  0
    2.2240   -1.8330   -0.0460 C   0  0  0  0  0  0  0  0  0  0  0  0
    1.5900   -0.7470    0.3530 C   0  0  0  0  0  0  0  0  0  0  0  0
    0.1360   -0.7570    0.6800 C   0  0  0  0  0  0  0  0  0  0  0  0
   -0.6380    0.1280   -0.1300 N   0  0  0  0  0  0  0  0  0  0  0  0
   -2.0090    0.0890    0.2320 C   0  0  2  0  0  0  0  0  0  0  0  0
   -2.7300   -1.2010    0.0300 C   0  0  0  0  0  0  0  0  0  0  0  0
   -4.0150   -1.0970    0.8680 C   0  0  0  0  0  0  0  0  0  0  0  0
   -4.9060   -0.1090    0.1540 C   0  0  0  0  0  0  0  0  0  0  0  0
   -4.1410    1.0310   -0.4130 C   0  0  0  0  0  0  0  0  0  0  0  0
   -2.8320    1.1650   -0.4020 C   0  0  0  0  0  0  0  0  0  0  0  0
   -2.1450    2.3600   -1.0020 C   0  0  2  0  0  0  0  0  0  0  0  0
   -1.2910    2.0020   -2.0230 F   0  0  0  0  0  0  0  0  0  0  0  0
   -1.4630    2.9960    0.0280 F   0  0  0  0  0  0  0  0  0  0  0  0
    2.3590    0.4860    0.4670 C   0  0  0  0  0  0  0  0  0  0  0  0
    1.7470    1.6290    0.8770 N   0  0  0  0  0  0  0  0  0  0  0  0
    2.4510    2.7680    0.9840 C   0  0  0  0  0  0  0  0  0  0  0  0
    1.7160    4.1390    1.4750 S   0  0  0  0  0  0  0  0  0  0  0  0
    3.7560    2.7880    0.6910 N   0  0  0  0  0  0  0  0  0  0  0  0
    4.3960    1.6910    0.2860 C   0  0  0  0  0  0  0  0  0  0  0  0
    5.6280    1.6760    0.0010 O   0  0  0  0  0  0  0  0  0  0  0  0
    3.7060    0.5110    0.1650 C   0  0  0  0  0  0  0  0  0  0  0  0
    4.3390   -0.6670   -0.2570 N   0  0  0  0  0  0  0  0  0  0  0  0
    3.6580   -1.9140   -0.3890 C   0  0  0  0  0  0  0  0  0  0  0  0
  1  2  1  0
  2  3  2  0
  2 24  1  0
  3  4  1  0
  3 15  1  0
  4  5  1  0
  6  5  1  6
  6  7  1  0
  6 11  1  0
  7  8  1  0
  8  9  1  0
  9 10  1  0
 10 11  2  0
 11 12  1  0
 12 13  1  6
 12 14  1  0
 15 16  1  0
 15 22  2  0
 16 17  1  0
 17 18  2  0
 17 19  1  0
 19 20  1  0
 20 21  2  0
 20 22  1  0
 22 23  1  0
 23 24  1  0
M  END
