
     RDKit          3D

 24 26  0  0  0  0  0  0  0  0999 V2000
    0.4960    3.8230   -1.9600 C   0  0  0  0  0  0  0  0  0  0  0  0
   -0.3120    2.9290   -0.9460 C   0  0  0  0  0  0  0  0  0  0  0  0
   -1.6180    2.9400   -1.0900 C   0  0  0  0  0  0  0  0  0  0  0  0
   -2.7750    2.3380   -0.4750 C   0  0  0  0  0  0  0  0  0  0  0  0
   -3.3980    1.2510   -0.7620 N   0  0  0  0  0  0  0  0  0  0  0  0
   -3.2070    0.2610   -1.7490 C   0  0  0  0  0  0  0  0  0  0  0  0
   -3.5030   -1.1050   -1.2580 C   0  0  0  0  0  0  0  0  0  0  0  0
   -2.5850   -1.9830   -0.9400 C   0  0  0  0  0  0  0  0  0  0  0  0
   -2.9160   -3.3670   -0.4440 C   0  0  1  0  0  0  0  0  0  0  0  0
   -2.3370   -4.2420   -1.3420 F   0  0  0  0  0  0  0  0  0  0  0  0
   -2.4580   -3.5340    0.8370 F   0  0  0  0  0  0  0  0  0  0  0  0
   -1.1420   -1.5550   -1.0750 C   0  0  0  0  0  0  0  0  0  0  0  0
   -1.0200   -0.3020   -0.3580 N   0  0  0  0  0  0  0  0  0  0  0  0
    0.2080   -0.2240    0.2860 C   0  0  1  0  0  0  0  0  0  0  0  0
    1.3530   -0.9960   -0.2820 C   0  0  0  0  0  0  0  0  0  0  0  0
    1.4740   -1.4590   -1.4010 O   0  0  0  0  0  0  0  0  0  0  0  0
    2.4130   -1.1690    0.6920 N   0  0  0  0  0  0  0  0  0  0  0  0
    2.5900   -0.0900    1.6170 C   0  0  0  0  0  0  0  0  0  0  0  0
    3.6580   -0.1750    2.6810 C   0  0  1  0  0  0  0  0  0  0  0  0
    3.4690   -1.3470    3.5990 C   0  0  0  0  0  0  0  0  0  0  0  0
    4.6390   -1.2530    2.6400 C   0  0  0  0  0  0  0  0  0  0  0  0
    1.8480    0.9570    1.5510 N   0  0  0  0  0  0  0  0  0  0  0  0
    0.7930    1.1160    0.5280 C   0  0  0  0  0  0  0  0  0  0  0  0
    0.5420    2.2730    0.0150 C   0  0  0  0  0  0  0  0  0  0  0  0
  1  2  1  0
  2  3  2  0
  2 24  1  0
  3  4  1  0
  4  5  2  0
  5  6  1  0
  6  7  1  0
  7  8  2  0
  8  9  1  0
  8 12  1  0
  9 10  1  6
  9 11  1  0
 12 13  1  0
 14 13  1  6
 14 15  1  0
 14 23  1  0
 15 16  2  0
 15 17  1  0
 17 18  1  0
 19 18  1  6
 18 22  2  0
 19 20  1  0
 19 21  1  0
 20 21  1  0
 22 23  1  0
 23 24  2  0
M  END
