
     RDKit          3D

 24 26  0  0  0  0  0  0  0  0999 V2000
   -0.7660    2.7580    1.5180 C   0  0  0  0  0  0  0  0  0  0  0  0
   -1.8420    2.0290    0.8080 C   0  0  0  0  0  0  0  0  0  0  0  0
   -2.8400    2.7900    0.3230 F   0  0  0  0  0  0  0  0  0  0  0  0
   -1.8390    0.7290    0.6780 C   0  0  0  0  0  0  0  0  0  0  0  0
   -2.9840    0.1400   -0.0600 C   0  0  0  0  0  0  0  0  0  0  0  0
   -3.4150    0.5360   -1.2100 C   0  0  0  0  0  0  0  0  0  0  0  0
   -4.4750   -0.0820   -1.7810 F   0  0  0  0  0  0  0  0  0  0  0  0
   -2.6790    1.8320   -2.1390 S   0  0  0  0  0  0  0  0  0  0  0  0
   -2.0000    1.3590   -3.3970 O   0  0  0  0  0  0  0  0  0  0  0  0
   -3.6830   -1.0570    0.5830 C   0  0  0  0  0  0  0  0  0  0  0  0
   -2.6780   -1.8180    1.2670 N   0  0  0  0  0  0  0  0  0  0  0  0
   -1.5000   -1.5130    1.5500 C   0  0  0  0  0  0  0  0  0  0  0  0
   -0.6380   -2.4850    2.2710 N   0  0  0  0  0  0  0  0  0  0  0  0
    0.5290   -2.6800    1.6670 C   0  0  0  0  0  0  0  0  0  0  0  0
    1.4890   -3.5640    2.1870 N   0  0  0  0  0  0  0  0  0  0  0  0
    0.7070   -1.9310    0.4760 N   0  0  0  0  0  0  0  0  0  0  0  0
    0.3600   -0.4920    0.3780 C   0  0  1  0  0  0  0  0  0  0  0  0
    1.5380    0.2360    0.9860 C   0  0  0  0  0  0  0  0  0  0  0  0
    2.2880    1.0210   -0.0980 C   0  0  0  0  0  0  0  0  0  0  0  0
    2.7470   -0.0530   -1.0880 C   0  0  2  0  0  0  0  0  0  0  0  0
    3.7700    0.5370   -2.0070 C   0  0  0  0  0  0  0  0  0  0  0  0
    1.5010   -0.5230   -1.8090 C   0  0  0  0  0  0  0  0  0  0  0  0
    0.2340   -0.1930   -1.0800 C   0  0  0  0  0  0  0  0  0  0  0  0
   -0.8620   -0.2130    1.1950 C   0  0  1  0  0  0  0  0  0  0  0  0
  1  2  1  0
  2  3  1  0
  2  4  2  3
  4  5  1  0
 24  4  1  6
  5  6  2  3
  5 10  1  0
  6  7  1  0
  6  8  1  0
  8  9  2  0
 10 11  1  0
 11 12  2  0
 12 13  1  0
 12 24  1  0
 13 14  2  0
 14 15  1  0
 14 16  1  0
 16 17  1  0
 17 18  1  1
 17 23  1  0
 17 24  1  0
 18 19  1  0
 19 20  1  0
 20 21  1  6
 20 22  1  0
 22 23  1  0
M  END
