
     RDKit          3D

 25 28  0  0  0  0  0  0  0  0999 V2000
    7.8570    2.6120    2.8340 Cl  0  0  0  0  0  0  0  0  0  0  0  0
    7.0620    1.4830    1.7450 C   0  0  0  0  0  0  0  0  0  0  0  0
    5.6950    1.5330    1.6220 C   0  0  0  0  0  0  0  0  0  0  0  0
    5.0030    0.6840    0.7920 C   0  0  0  0  0  0  0  0  0  0  0  0
    5.6670   -0.2470    0.0540 C   0  0  0  0  0  0  0  0  0  0  0  0
    5.0170   -1.1810   -0.8450 C   0  0  0  0  0  0  0  0  0  0  0  0
    3.7710   -1.3390   -1.1360 C   0  0  0  0  0  0  0  0  0  0  0  0
    2.6140   -0.6760   -0.6940 N   0  0  0  0  0  0  0  0  0  0  0  0
    2.0060    0.4700   -1.3250 C   0  0  0  0  0  0  0  0  0  0  0  0
    0.5550    0.1310   -1.2510 C   0  0  0  0  0  0  0  0  0  0  0  0
   -0.5590    0.4850   -1.9690 C   0  0  0  0  0  0  0  0  0  0  0  0
   -1.7980   -0.0030   -1.6450 C   0  0  0  0  0  0  0  0  0  0  0  0
   -1.9780   -0.8650   -0.5900 C   0  0  0  0  0  0  0  0  0  0  0  0
   -3.3250   -1.3920   -0.2410 C   0  0  0  0  0  0  0  0  0  0  0  0
   -4.0130   -0.5520    0.6970 N   0  0  0  0  0  0  0  0  0  0  0  0
   -5.2900   -1.0780    1.0090 C   0  0  0  0  0  0  0  0  0  0  0  0
   -6.4500   -0.2040    0.6770 C   0  0  0  0  0  0  0  0  0  0  0  0
   -6.2700    1.2340    1.0660 C   0  0  0  0  0  0  0  0  0  0  0  0
   -4.8370    1.5630    1.4180 C   0  0  0  0  0  0  0  0  0  0  0  0
   -3.9620    0.8400    0.4050 C   0  0  0  0  0  0  0  0  0  0  0  0
   -0.8560   -1.2190    0.1290 C   0  0  0  0  0  0  0  0  0  0  0  0
    0.3940   -0.7310   -0.1930 C   0  0  0  0  0  0  0  0  0  0  0  0
    1.7500   -0.9750    0.4320 C   0  0  0  0  0  0  0  0  0  0  0  0
    7.0650   -0.2820    0.1950 C   0  0  0  0  0  0  0  0  0  0  0  0
    7.7580    0.5590    1.0180 C   0  0  0  0  0  0  0  0  0  0  0  0
  1  2  1  0
  2  3  2  0
  2 25  1  0
  3  4  1  0
  4  5  2  0
  5  6  1  0
  5 24  1  0
  6  7  2  3
  7  8  1  0
  8  9  1  0
  8 23  1  0
  9 10  1  0
 10 11  2  0
 10 22  1  0
 11 12  1  0
 12 13  2  0
 13 14  1  0
 13 21  1  0
 14 15  1  0
 15 16  1  0
 15 20  1  0
 16 17  1  0
 17 18  1  0
 18 19  1  0
 19 20  1  0
 21 22  2  0
 22 23  1  0
 24 25  2  0
M  END
