
     RDKit          3D

 25 28  0  0  0  0  0  0  0  0999 V2000
   -3.6140    1.5280   -0.6930 C   0  0  0  0  0  0  0  0  0  0  0  0
   -2.3300    1.3970   -0.9290 C   0  0  0  0  0  0  0  0  0  0  0  0
   -1.6390    2.2940   -1.8950 C   0  0  0  0  0  0  0  0  0  0  0  0
   -0.7650    1.5540   -2.8380 C   0  0  0  0  0  0  0  0  0  0  0  0
   -0.1030    0.3160   -2.4020 C   0  0  0  0  0  0  0  0  0  0  0  0
   -0.5060   -0.3570   -1.1620 C   0  0  1  0  0  0  0  0  0  0  0  0
    0.5130   -1.0550   -0.4120 N   0  0  0  0  0  0  0  0  0  0  0  0
    1.3860   -0.6500    0.5150 C   0  0  0  0  0  0  0  0  0  0  0  0
    1.5970    0.6610    1.0850 C   0  0  0  0  0  0  0  0  0  0  0  0
    2.2570    0.7250    2.3040 C   0  0  0  0  0  0  0  0  0  0  0  0
    2.5730    1.9050    2.9480 C   0  0  0  0  0  0  0  0  0  0  0  0
    2.2010    3.0730    2.3210 C   0  0  0  0  0  0  0  0  0  0  0  0
    1.5510    3.0620    1.1210 C   0  0  0  0  0  0  0  0  0  0  0  0
    1.2630    1.8270    0.5260 C   0  0  0  0  0  0  0  0  0  0  0  0
    2.1160   -1.7400    0.9560 N   0  0  0  0  0  0  0  0  0  0  0  0
    1.7080   -2.8220    0.3110 C   0  0  0  0  0  0  0  0  0  0  0  0
    2.0920   -4.1740    0.3540 C   0  0  0  0  0  0  0  0  0  0  0  0
    1.5050   -5.1320   -0.4380 C   0  0  0  0  0  0  0  0  0  0  0  0
    0.5090   -4.7170   -1.2930 C   0  0  0  0  0  0  0  0  0  0  0  0
    0.1370   -3.3770   -1.3280 C   0  0  0  0  0  0  0  0  0  0  0  0
    0.7340   -2.4160   -0.5250 C   0  0  0  0  0  0  0  0  0  0  0  0
   -1.4960    0.3780   -0.2970 C   0  0  0  0  0  0  0  0  0  0  0  0
   -1.6050    0.1710    0.9880 C   0  0  0  0  0  0  0  0  0  0  0  0
   -2.4380    0.7950    1.9940 C   0  0  0  0  0  0  0  0  0  0  0  0
   -1.3500    1.4760    3.2940 Cl  0  0  0  0  0  0  0  0  0  0  0  0
  1  2  2  0
  2  3  1  0
  2 22  1  0
  3  4  1  0
  4  5  1  0
  5  6  1  0
  6  7  1  1
  6 22  1  0
  7  8  1  0
  7 21  1  0
  8  9  1  0
  8 15  2  0
  9 10  2  0
  9 14  1  0
 10 11  1  0
 11 12  2  0
 12 13  1  0
 13 14  2  0
 15 16  1  0
 16 17  2  0
 16 21  1  0
 17 18  1  0
 18 19  2  0
 19 20  1  0
 20 21  2  0
 22 23  2  3
 23 24  1  0
 24 25  1  0
M  END
