
     RDKit          3D

 25 28  0  0  0  0  0  0  0  0999 V2000
    0.0060   -1.9730    1.9490 C   0  0  0  0  0  0  0  0  0  0  0  0
   -0.6090   -2.3460    0.8940 C   0  0  0  0  0  0  0  0  0  0  0  0
   -1.1220   -1.5280   -0.1750 C   0  0  0  0  0  0  0  0  0  0  0  0
   -1.7940   -2.3310   -1.0940 C   0  0  0  0  0  0  0  0  0  0  0  0
   -2.4630   -1.8820   -2.2970 C   0  0  0  0  0  0  0  0  0  0  0  0
   -3.1300   -0.7160   -2.5100 C   0  0  0  0  0  0  0  0  0  0  0  0
   -3.2410    0.3050   -1.4280 C   0  0  0  0  0  0  0  0  0  0  0  0
   -4.6230    1.2490   -1.3440 Cl  0  0  0  0  0  0  0  0  0  0  0  0
   -2.3100    0.5660   -0.5110 C   0  0  0  0  0  0  0  0  0  0  0  0
   -0.9520   -0.1280   -0.3950 C   0  0  1  0  0  0  0  0  0  0  0  0
    0.0520    0.7120    0.0690 N   0  0  0  0  0  0  0  0  0  0  0  0
    1.3630    0.6080    0.5360 C   0  0  0  0  0  0  0  0  0  0  0  0
    1.6810    1.2720    1.7050 C   0  0  0  0  0  0  0  0  0  0  0  0
    2.9450    1.2500    2.2220 C   0  0  0  0  0  0  0  0  0  0  0  0
    3.9070    0.5450    1.5470 C   0  0  0  0  0  0  0  0  0  0  0  0
    3.6600   -0.1370    0.3790 C   0  0  0  0  0  0  0  0  0  0  0  0
    4.6680   -0.8250   -0.2570 C   0  0  0  0  0  0  0  0  0  0  0  0
    4.4270   -1.5040   -1.4230 C   0  0  0  0  0  0  0  0  0  0  0  0
    3.1640   -1.4750   -1.9290 C   0  0  0  0  0  0  0  0  0  0  0  0
    2.1600   -0.7850   -1.2880 C   0  0  0  0  0  0  0  0  0  0  0  0
    2.3420   -0.0800   -0.1070 C   0  0  0  0  0  0  0  0  0  0  0  0
   -0.3860    2.1860    0.0680 C   0  0  0  0  0  0  0  0  0  0  0  0
   -1.5790    2.2920    0.9510 C   0  0  0  0  0  0  0  0  0  0  0  0
   -2.7410    1.5760    0.3440 N   0  0  0  0  0  0  0  0  0  0  0  0
   -4.1050    1.9070    0.6240 C   0  0  0  0  0  0  0  0  0  0  0  0
  1  2  2  0
  2  3  1  0
  3  4  2  0
  3 10  1  0
  4  5  1  0
  5  6  2  0
  6  7  1  0
  7  8  1  0
  7  9  2  0
  9 10  1  0
  9 24  1  0
 10 11  1  1
 11 12  1  0
 11 22  1  0
 12 13  2  0
 12 21  1  0
 13 14  1  0
 14 15  2  0
 15 16  1  0
 16 17  2  0
 16 21  1  0
 17 18  1  0
 18 19  2  0
 19 20  1  0
 20 21  2  0
 22 23  1  0
 23 24  1  0
 24 25  1  0
M  END
