
     RDKit          3D

 16 17  0  0  0  0  0  0  0  0999 V2000
    5.8190   -0.5990   -0.3460 C   0  0  0  0  0  0  0  0  0  0  0  0
    4.6000   -1.0460    0.2970 O   0  0  0  0  0  0  0  0  0  0  0  0
    3.4000   -0.5480   -0.0700 C   0  0  0  0  0  0  0  0  0  0  0  0
    3.1110    0.2400   -0.8600 O   0  0  0  0  0  0  0  0  0  0  0  0
    2.0810   -1.2400    0.8260 N   0  0  0  0  0  0  0  0  0  0  0  0
    1.0570   -0.4830    0.1980 C   0  0  0  0  0  0  0  0  0  0  0  0
    1.0780    0.3410   -0.6160 O   0  0  0  0  0  0  0  0  0  0  0  0
   -0.2100   -0.9130    0.7710 N   0  0  0  0  0  0  0  0  0  0  0  0
   -1.4990   -0.4770    0.5660 C   0  0  0  0  0  0  0  0  0  0  0  0
   -1.8350    0.4930   -0.2330 C   0  0  0  0  0  0  0  0  0  0  0  0
   -0.6550    1.4390   -1.2320 S   0  0  1  0  0  0  0  0  0  0  0  0
   -1.4410    3.0290   -1.6910 C   0  0  0  0  0  0  0  0  0  0  0  0
   -3.5440    1.0620   -0.2980 S   0  0  0  0  0  0  0  0  0  0  0  0
   -4.6350   -0.1130    0.4750 C   0  0  0  0  0  0  0  0  0  0  0  0
   -3.8180   -1.0730    1.2470 C   0  0  0  0  0  0  0  0  0  0  0  0
   -2.5540   -1.2450    1.3020 C   0  0  0  0  0  0  0  0  0  0  0  0
  1  2  1  0
  2  3  1  0
  3  4  2  0
  3  5  1  0
  5  6  1  0
  6  7  2  0
  6  8  1  0
  8  9  1  0
  9 10  2  0
  9 16  1  0
 10 11  1  0
 10 13  1  0
 11 12  1  1
 13 14  1  0
 14 15  1  0
 15 16  2  0
 11  7  1  0
M  END
