
     RDKit          3D

 16 16  0  0  0  0  0  0  0  0999 V2000
   -6.2050    0.8850    0.1760 C   0  0  0  0  0  0  0  0  0  0  0  0
   -5.6130   -0.5170    1.1430 S   0  0  0  0  0  0  0  0  0  0  0  0
   -3.8550   -0.7210    1.0890 C   0  0  0  0  0  0  0  0  0  0  0  0
   -3.1820   -1.9640    1.8700 S   0  0  0  0  0  0  0  0  0  0  0  0
   -3.0510    0.1780    0.3670 N   0  0  0  0  0  0  0  0  0  0  0  0
   -1.6460    0.0220    0.3310 N   0  0  0  0  0  0  0  0  0  0  0  0
   -0.7380    0.9100   -0.2270 C   0  0  0  0  0  0  0  0  0  0  0  0
   -1.2380    1.9810   -0.7730 O   0  0  0  0  0  0  0  0  0  0  0  0
    0.7190    0.8360   -0.2990 C   0  0  0  0  0  0  0  0  0  0  0  0
    1.2590   -0.2710    0.3270 O   0  0  0  0  0  0  0  0  0  0  0  0
    2.6200   -0.5010    0.3750 C   0  0  0  0  0  0  0  0  0  0  0  0
    3.4940    0.4480    0.1320 C   0  0  0  0  0  0  0  0  0  0  0  0
    4.9490    0.2370    0.1780 C   0  0  0  0  0  0  0  0  0  0  0  0
    5.3440   -1.0620    0.4850 O   0  0  0  0  0  0  0  0  0  0  0  0
    4.4200   -2.0490    0.7390 C   0  0  0  0  0  0  0  0  0  0  0  0
    3.1220   -1.8460    0.7030 C   0  0  0  0  0  0  0  0  0  0  0  0
  1  2  1  0
  2  3  1  0
  3  4  2  0
  3  5  1  0
  5  6  1  0
  6  7  1  0
  7  8  2  0
  7  9  1  0
  9 10  1  0
 10 11  1  0
 11 12  2  0
 11 16  1  0
 12 13  1  0
 13 14  1  0
 14 15  1  0
 15 16  2  0
M  END
