
     RDKit          3D

 16 17  0  0  0  0  0  0  0  0999 V2000
    6.7020    0.5090    0.3150 O   0  0  0  0  0  0  0  0  0  0  0  0
    5.4840    0.2620    0.1080 C   0  0  0  0  0  0  0  0  0  0  0  0
    4.8850   -0.4580   -0.9520 N   0  0  0  0  0  0  0  0  0  0  0  0
    3.5040   -0.5620   -0.9310 C   0  0  0  0  0  0  0  0  0  0  0  0
    2.8470   -1.1910   -1.8390 O   0  0  0  0  0  0  0  0  0  0  0  0
    2.8280    0.0730    0.1660 C   0  0  0  0  0  0  0  0  0  0  0  0
    1.5890    0.1320    0.4050 N   0  0  0  0  0  0  0  0  0  0  0  0
    0.6620   -0.4990   -0.4980 C   0  0  0  0  0  0  0  0  0  0  0  0
   -0.7540   -0.2920   -0.1190 C   0  0  0  0  0  0  0  0  0  0  0  0
   -1.5990   -0.9740    0.6520 C   0  0  0  0  0  0  0  0  0  0  0  0
   -2.8590   -0.5310    0.8140 C   0  0  0  0  0  0  0  0  0  0  0  0
   -3.2250    0.6130    0.1720 C   0  0  0  0  0  0  0  0  0  0  0  0
   -4.5140    1.3690    0.1330 C   0  0  0  0  0  0  0  0  0  0  0  0
   -5.4020    0.6850    0.9220 O   0  0  0  0  0  0  0  0  0  0  0  0
   -1.7580    1.0910   -0.6890 S   0  0  0  0  0  0  0  0  0  0  0  0
    4.1240    0.7820    1.1520 S   0  0  0  0  0  0  0  0  0  0  0  0
  1  2  2  0
  2  3  1  0
  2 16  1  0
  3  4  1  0
  4  5  2  0
  4  6  1  0
  6  7  2  3
  6 16  1  0
  7  8  1  0
  8  9  1  0
  9 10  2  0
  9 15  1  0
 10 11  1  0
 11 12  2  0
 12 13  1  0
 12 15  1  0
 13 14  1  0
M  END
