
     RDKit          3D

  7  7  0  0  0  0  0  0  0  0999 V2000
    2.4590    0.2330   -0.0560 C   0  0  0  0  0  0  0  0  0  0  0  0
    1.3320   -0.3310    0.6520 N   0  0  0  0  0  0  0  0  0  0  0  0
    0.1730   -0.1970    0.1470 C   0  0  0  0  0  0  0  0  0  0  0  0
   -1.1020   -0.6480    0.6250 N   0  0  0  0  0  0  0  0  0  0  0  0
   -2.1940    0.0420    0.0450 C   0  0  0  0  0  0  0  0  0  0  0  0
   -1.9750    0.2400   -1.3180 O   0  0  0  0  0  0  0  0  0  0  0  0
   -0.2820    0.6370   -1.3990 S   0  0  0  0  0  0  0  0  0  0  0  0
  1  2  1  0
  2  3  2  3
  3  4  1  0
  3  7  1  0
  4  5  1  0
  5  6  1  0
  6  7  1  0
M  END
