
     RDKit          3D

 13 13  0  0  0  0  0  0  0  0999 V2000
   -5.0950   -0.4710   -0.6250 N   0  0  0  0  0  0  0  0  0  0  0  0
   -3.7890   -0.5760   -0.0220 C   0  0  0  0  0  0  0  0  0  0  0  0
   -3.6090   -1.2560    1.0330 O   0  0  0  0  0  0  0  0  0  0  0  0
   -2.6580    0.0680   -0.5760 N   0  0  0  0  0  0  0  0  0  0  0  0
   -1.3760   -0.0590    0.0510 C   0  0  0  0  0  0  0  0  0  0  0  0
   -0.2820    0.6760   -0.6470 C   0  0  2  0  0  0  0  0  0  0  0  0
   -0.1000    0.2440   -1.9440 O   0  0  0  0  0  0  0  0  0  0  0  0
    0.9930    0.4090    0.1060 C   0  0  0  0  0  0  0  0  0  0  0  0
    2.0860   -0.1600   -0.3620 C   0  0  0  0  0  0  0  0  0  0  0  0
    3.0640   -0.2070    0.7270 C   0  0  1  0  0  0  0  0  0  0  0  0
    4.2350    0.6200    0.4440 N   0  0  0  0  0  0  0  0  0  0  0  0
    2.3930    0.3970    1.8470 N   0  0  0  0  0  0  0  0  0  0  0  0
    1.2120    0.7500    1.4950 C   0  0  0  0  0  0  0  0  0  0  0  0
  1  2  1  0
  2  3  2  0
  2  4  1  0
  4  5  1  0
  5  6  1  0
  6  7  1  6
  6  8  1  0
  8  9  2  0
  8 13  1  0
  9 10  1  0
 10 11  1  6
 10 12  1  0
 12 13  2  0
M  CHG  1  11   1
M  END
