
     RDKit          3D

 12 12  0  0  0  0  0  0  0  0999 V2000
   -4.0620    0.2720    0.5040 C   0  0  0  0  0  0  0  0  0  0  0  0
   -2.6610    0.0010    0.8040 N   0  0  0  0  0  0  0  0  0  0  0  0
   -1.7780   -0.0450   -0.1120 C   0  0  0  0  0  0  0  0  0  0  0  0
   -2.1270    0.1680   -1.4710 N   0  0  0  0  0  0  0  0  0  0  0  0
   -0.3950   -0.3220    0.2660 C   0  0  0  0  0  0  0  0  0  0  0  0
    0.6730   -0.4150   -0.5100 C   0  0  0  0  0  0  0  0  0  0  0  0
    1.8200   -0.7090    0.3640 C   0  0  1  0  0  0  0  0  0  0  0  0
    3.0970   -0.1500   -0.1300 C   0  0  0  0  0  0  0  0  0  0  0  0
    3.8440    0.7870    0.6110 N   0  0  0  0  0  0  0  0  0  0  0  0
    3.5060   -0.5190   -1.2130 O   0  0  0  0  0  0  0  0  0  0  0  0
    1.4440   -0.2330    1.5910 O   0  0  0  0  0  0  0  0  0  0  0  0
    0.1060   -0.5500    1.5870 N   0  0  0  0  0  0  0  0  0  0  0  0
  1  2  1  0
  2  3  2  3
  3  4  1  0
  3  5  1  0
  5  6  2  0
  5 12  1  0
  6  7  1  0
  7  8  1  6
  7 11  1  0
  8  9  1  0
  8 10  2  0
 11 12  1  0
M  CHG  1   9   1
M  END
