
     RDKit          3D

 12 12  0  0  0  0  0  0  0  0999 V2000
   -0.2570   -1.8850   -0.8480 N   0  0  0  0  0  0  0  0  0  0  0  0
   -0.3810   -0.5620   -0.4040 C   0  0  0  0  0  0  0  0  0  0  0  0
   -1.4970    0.1560   -0.1150 C   0  0  0  0  0  0  0  0  0  0  0  0
   -2.9000   -0.3500   -0.2050 C   0  0  0  0  0  0  0  0  0  0  0  0
   -3.8220    0.7350    0.1370 N   0  0  0  0  0  0  0  0  0  0  0  0
   -1.0830    1.3680    0.3230 N   0  0  0  0  0  0  0  0  0  0  0  0
    0.2390    1.4090    0.3140 N   0  0  0  0  0  0  0  0  0  0  0  0
    0.7340    0.2550   -0.1250 C   0  0  0  0  0  0  0  0  0  0  0  0
    2.1150   -0.0560   -0.4390 C   0  0  1  0  0  0  0  0  0  0  0  0
    2.7460    1.2360   -0.7750 O   0  0  0  0  0  0  0  0  0  0  0  0
    2.9360   -0.4620    0.7860 C   0  0  0  0  0  0  0  0  0  0  0  0
    4.2530   -0.5130    0.3960 O   0  0  0  0  0  0  0  0  0  0  0  0
  1  2  1  0
  2  3  1  0
  2  8  2  0
  3  4  1  0
  3  6  2  0
  4  5  1  0
  6  7  1  0
  7  8  1  0
  8  9  1  0
  9 10  1  1
  9 11  1  0
 11 12  1  0
M  CHG  1   5   1
M  END
