
     RDKit          3D

 12 12  0  0  0  0  0  0  0  0999 V2000
   -2.5150    1.4580   -0.1590 N   0  0  0  0  0  0  0  0  0  0  0  0
   -1.2120    0.8670   -0.1290 C   0  0  0  0  0  0  0  0  0  0  0  0
   -0.0540    1.5970   -0.2760 C   0  0  0  0  0  0  0  0  0  0  0  0
   -0.2310    2.9840   -0.4420 O   0  0  0  0  0  0  0  0  0  0  0  0
    1.1550    1.0250   -0.2550 N   0  0  0  0  0  0  0  0  0  0  0  0
    1.2450   -0.3190   -0.0850 C   0  0  0  0  0  0  0  0  0  0  0  0
    2.5290   -1.0630   -0.0610 C   0  0  0  0  0  0  0  0  0  0  0  0
    3.6090   -0.3590    0.5430 N   0  0  0  0  0  0  0  0  0  0  0  0
    0.1080   -1.0110    0.0540 N   0  0  0  0  0  0  0  0  0  0  0  0
   -1.1140   -0.4990    0.0410 C   0  0  0  0  0  0  0  0  0  0  0  0
   -2.2970   -1.3740    0.0950 C   0  0  0  0  0  0  0  0  0  0  0  0
   -3.2840   -0.9890    1.0060 O   0  0  0  0  0  0  0  0  0  0  0  0
  1  2  1  0
  2  3  2  0
  2 10  1  0
  3  4  1  0
  3  5  1  0
  5  6  2  0
  6  7  1  0
  6  9  1  0
  7  8  1  0
  9 10  2  0
 10 11  1  0
 11 12  1  0
M  CHG  1   8   1
M  END
