
     RDKit          3D

 12 12  0  0  0  0  0  0  0  0999 V2000
    2.6110    0.4990   -1.2510 C   0  0  0  0  0  0  0  0  0  0  0  0
    1.4140    0.0160   -0.4820 C   0  0  0  0  0  0  0  0  0  0  0  0
    1.5920   -0.4100    0.7470 C   0  0  0  0  0  0  0  0  0  0  0  0
    2.8910   -0.4090    1.3260 N   0  0  0  0  0  0  0  0  0  0  0  0
    0.4420   -0.8870    1.5220 C   0  0  0  0  0  0  0  0  0  0  0  0
   -0.7090   -0.8750    0.9760 N   0  0  0  0  0  0  0  0  0  0  0  0
   -1.0440   -0.4420   -0.3440 C   0  0  1  0  0  0  0  0  0  0  0  0
   -1.6170   -1.5300   -1.0290 O   0  0  0  0  0  0  0  0  0  0  0  0
   -1.9730    0.6760   -0.3370 N   0  0  0  0  0  0  0  0  0  0  0  0
   -3.2100    0.3710    0.3060 C   0  0  0  0  0  0  0  0  0  0  0  0
   -4.0140    1.5090    0.2510 O   0  0  0  0  0  0  0  0  0  0  0  0
    0.1210    0.0150   -1.0560 N   0  0  0  0  0  0  0  0  0  0  0  0
  1  2  1  0
  2  3  2  0
  2 12  1  0
  3  4  1  0
  3  5  1  0
  5  6  2  0
  6  7  1  0
  7  8  1  6
  7  9  1  0
  7 12  1  0
  9 10  1  0
 10 11  1  0
M  END
