
     RDKit          3D

 18 19  0  0  0  0  0  0  0  0999 V2000
    2.2360    2.5390   -0.6570 C   0  0  0  0  0  0  0  0  0  0  0  0
    2.9940    1.4960   -0.4010 C   0  0  0  0  0  0  0  0  0  0  0  0
    2.4800    0.2660    0.1760 C   0  0  0  0  0  0  0  0  0  0  0  0
    3.3040   -0.7280    0.4030 C   0  0  0  0  0  0  0  0  0  0  0  0
    4.7360   -0.5920    0.0730 C   0  0  0  0  0  0  0  0  0  0  0  0
    1.1050    0.1270    0.4940 N   0  0  0  0  0  0  0  0  0  0  0  0
    0.1480   -0.2470   -0.5320 C   0  0  1  0  0  0  0  0  0  0  0  0
    0.5430   -1.5930   -1.0970 C   0  0  0  0  0  0  0  0  0  0  0  0
   -0.1080   -2.5070   -0.1880 N   0  0  0  0  0  0  0  0  0  0  0  0
   -1.0640   -1.9010    0.4230 C   0  0  0  0  0  0  0  0  0  0  0  0
   -1.9150   -2.5380    1.4010 N   0  0  0  0  0  0  0  0  0  0  0  0
   -1.1390   -0.5460    0.0010 N   0  0  0  0  0  0  0  0  0  0  0  0
   -2.2710    0.2860    0.1080 C   0  0  0  0  0  0  0  0  0  0  0  0
   -2.1730    1.6140    0.1650 C   0  0  0  0  0  0  0  0  0  0  0  0
   -3.3220    2.5340    0.2770 C   0  0  0  0  0  0  0  0  0  0  0  0
   -4.5640    1.8900    0.3210 O   0  0  0  0  0  0  0  0  0  0  0  0
   -4.6830    0.5220    0.2640 C   0  0  0  0  0  0  0  0  0  0  0  0
   -3.6270   -0.2670    0.1630 C   0  0  0  0  0  0  0  0  0  0  0  0
  1  2  2  0
  2  3  1  0
  3  4  2  3
  3  6  1  0
  4  5  1  0
  7  6  1  1
  7  8  1  0
  7 12  1  0
  8  9  1  0
  9 10  2  0
 10 11  1  0
 10 12  1  0
 12 13  1  0
 13 14  2  0
 13 18  1  0
 14 15  1  0
 15 16  1  0
 16 17  1  0
 17 18  2  0
M  CHG  1   9   1
M  END
