
     RDKit          3D

 11 12  0  0  0  0  0  0  0  0999 V2000
    2.4770   -0.4450    0.6600 C   0  0  0  0  0  0  0  0  0  0  0  0
    1.1010    0.1390    0.9500 C   0  0  0  0  0  0  0  0  0  0  0  0
    0.3350    0.0930   -0.3350 C   0  0  1  0  0  0  0  0  0  0  0  0
    0.2120   -1.2730   -0.8100 C   0  0  0  0  0  0  0  0  0  0  0  0
   -0.6910   -1.8580    0.2950 C   0  0  0  0  0  0  0  0  0  0  0  0
   -1.5010   -0.6670    0.8300 C   0  0  0  0  0  0  0  0  0  0  0  0
   -1.1620    0.4010   -0.1070 C   0  0  2  0  0  0  0  0  0  0  0  0
   -1.9150    0.1840   -1.3910 C   0  0  0  0  0  0  0  0  0  0  0  0
   -1.0750    1.6790    0.2990 O   0  0  0  0  0  0  0  0  0  0  0  0
   -0.1410    2.3230   -0.5500 C   0  0  0  0  0  0  0  0  0  0  0  0
    0.6890    1.2050   -1.1880 C   0  0  0  0  0  0  0  0  0  0  0  0
  1  2  1  0
  3  2  1  1
  3  4  1  0
  3  7  1  0
  3 11  1  0
  4  5  1  0
  5  6  1  0
  6  7  1  0
  7  8  1  6
  7  9  1  0
  9 10  1  0
 10 11  1  0
M  END
