
     RDKit          3D

 18 20  0  0  0  0  0  0  0  0999 V2000
    1.7820   -2.3380   -1.3200 C   0  0  0  0  0  0  0  0  0  0  0  0
    1.2650   -1.1590   -1.0670 C   0  0  0  0  0  0  0  0  0  0  0  0
    0.1660   -0.5870   -1.8420 N   0  0  0  0  0  0  0  0  0  0  0  0
   -0.3990    0.4270   -1.0210 C   0  0  2  0  0  0  0  0  0  0  0  0
   -1.4800   -0.1180   -0.1900 C   0  0  0  0  0  0  0  0  0  0  0  0
   -1.9040   -1.3450   -0.4290 C   0  0  0  0  0  0  0  0  0  0  0  0
   -2.9820   -2.0140    0.3310 C   0  0  0  0  0  0  0  0  0  0  0  0
   -3.4740   -1.1640    1.3210 O   0  0  0  0  0  0  0  0  0  0  0  0
   -3.0680    0.1090    1.6040 C   0  0  0  0  0  0  0  0  0  0  0  0
   -2.0980    0.6420    0.8830 C   0  0  0  0  0  0  0  0  0  0  0  0
   -0.8790    1.6640   -1.7380 C   0  0  0  0  0  0  0  0  0  0  0  0
   -0.4540    2.7370   -0.8420 N   0  0  0  0  0  0  0  0  0  0  0  0
    0.4420    2.3030   -0.0040 C   0  0  0  0  0  0  0  0  0  0  0  0
    1.0380    3.1240    0.9870 N   0  0  0  0  0  0  0  0  0  0  0  0
    0.7040    0.9460   -0.2380 N   0  0  0  0  0  0  0  0  0  0  0  0
    1.5910   -0.1700   -0.0530 C   0  0  0  0  0  0  0  0  0  0  0  0
    2.5160   -0.2310    0.8800 C   0  0  0  0  0  0  0  0  0  0  0  0
    3.4670   -1.3220    1.1440 C   0  0  0  0  0  0  0  0  0  0  0  0
  1  2  2  0
  2  3  1  0
  2 16  1  0
  3  4  1  0
  4  5  1  1
  4 11  1  0
  4 15  1  0
  5  6  2  0
  5 10  1  0
  6  7  1  0
  7  8  1  0
  8  9  1  0
  9 10  2  0
 11 12  1  0
 12 13  2  0
 13 14  1  0
 13 15  1  0
 15 16  1  0
 16 17  2  3
 17 18  1  0
M  CHG  1  12   1
M  END
