
     RDKit          3D

 23 24  0  0  0  0  0  0  0  0999 V2000
    7.3090   -1.3540   -1.2330 C   0  0  0  0  0  0  0  0  0  0  0  0
    5.9650   -0.7880   -0.8900 C   0  0  0  0  0  0  0  0  0  0  0  0
    4.9450   -0.5370   -1.4040 N   0  0  0  0  0  0  0  0  0  0  0  0
    3.9080   -0.0250   -0.8160 N   0  0  0  0  0  0  0  0  0  0  0  0
    3.8410    0.2600    0.3160 C   0  0  0  0  0  0  0  0  0  0  0  0
    2.9820    0.8120    1.3600 N   0  0  0  0  0  0  0  0  0  0  0  0
    1.6650    1.2120    1.0270 C   0  0  0  0  0  0  0  0  0  0  0  0
    1.3150    1.0630   -0.1670 O   0  0  0  0  0  0  0  0  0  0  0  0
    0.7440    1.7780    2.0360 C   0  0  0  0  0  0  0  0  0  0  0  0
   -0.5980    2.0990    1.4840 C   0  0  0  0  0  0  0  0  0  0  0  0
   -1.2200    0.8120    0.9550 C   0  0  0  0  0  0  0  0  0  0  0  0
   -0.5790   -0.2440    1.0760 O   0  0  0  0  0  0  0  0  0  0  0  0
   -2.4900    0.9110    0.3610 N   0  0  0  0  0  0  0  0  0  0  0  0
   -3.1970   -0.1780   -0.1730 C   0  0  0  0  0  0  0  0  0  0  0  0
   -2.7080   -1.4500   -0.1640 C   0  0  0  0  0  0  0  0  0  0  0  0
   -3.4430   -2.5140   -0.7080 C   0  0  0  0  0  0  0  0  0  0  0  0
   -4.6450   -2.2770   -1.2450 N   0  0  0  0  0  0  0  0  0  0  0  0
   -5.1660   -1.0530   -1.2790 C   0  0  0  0  0  0  0  0  0  0  0  0
   -6.4110   -0.8200   -1.8370 O   0  0  0  0  0  0  0  0  0  0  0  0
   -4.4490    0.0500   -0.7370 C   0  0  0  0  0  0  0  0  0  0  0  0
   -5.0510    1.2540   -0.8130 O   0  0  0  0  0  0  0  0  0  0  0  0
   -4.7650    2.4390   -0.4650 O   0  0  0  0  0  0  0  0  0  0  0  0
    5.5820   -0.2430    0.8690 S   0  0  0  0  0  0  0  0  0  0  0  0
  1  2  1  0
  2  3  2  0
  2 23  1  0
  3  4  1  0
  4  5  2  0
  5  6  1  0
  5 23  1  0
  6  7  1  0
  7  8  2  0
  7  9  1  0
  9 10  1  0
 10 11  1  0
 11 12  2  0
 11 13  1  0
 13 14  1  0
 14 15  2  0
 14 20  1  0
 15 16  1  0
 16 17  2  0
 17 18  1  0
 18 19  1  0
 18 20  2  0
 20 21  1  0
 21 22  1  0
M  CHG  2  17   1  22  -1
M  END
