
     RDKit          3D

 23 24  0  0  0  0  0  0  0  0999 V2000
   -3.1150    3.3290   -0.6160 C   0  0  0  0  0  0  0  0  0  0  0  0
   -2.5130    2.0930   -0.4070 O   0  0  0  0  0  0  0  0  0  0  0  0
   -3.1540    0.9030   -0.1420 C   0  0  0  0  0  0  0  0  0  0  0  0
   -4.4770    0.8550   -0.0640 N   0  0  0  0  0  0  0  0  0  0  0  0
   -5.1350   -0.3030    0.1960 C   0  0  0  0  0  0  0  0  0  0  0  0
   -6.6060   -0.3380    0.2790 C   0  0  0  0  0  0  0  0  0  0  0  0
   -4.4100   -1.4630    0.3840 C   0  0  0  0  0  0  0  0  0  0  0  0
   -5.0340   -2.5100    0.6210 O   0  0  0  0  0  0  0  0  0  0  0  0
   -3.0710   -1.3800    0.2980 N   0  0  0  0  0  0  0  0  0  0  0  0
   -2.4060   -0.2390    0.0420 C   0  0  0  0  0  0  0  0  0  0  0  0
   -0.9440   -0.1780   -0.0460 C   0  0  0  0  0  0  0  0  0  0  0  0
   -0.0570    0.5760   -0.2390 N   0  0  0  0  0  0  0  0  0  0  0  0
    1.2230    0.3370   -0.2600 C   0  0  0  0  0  0  0  0  0  0  0  0
    1.6480   -0.9260   -0.0360 C   0  0  0  0  0  0  0  0  0  0  0  0
    2.9140   -1.5570    0.0200 C   0  0  0  0  0  0  0  0  0  0  0  0
    3.0220   -2.7830    0.2530 O   0  0  0  0  0  0  0  0  0  0  0  0
    4.0810   -0.7750   -0.1930 N   0  0  0  0  0  0  0  0  0  0  0  0
    5.4020   -1.3610   -0.1480 C   0  0  0  0  0  0  0  0  0  0  0  0
    6.4310   -0.2870   -0.4100 C   0  0  0  0  0  0  0  0  0  0  0  0
    6.2680    0.7130    0.6360 N   0  0  0  0  0  0  0  0  0  0  0  0
    5.9860    1.8940    0.3520 O   0  0  0  0  0  0  0  0  0  0  0  0
    6.4230    0.3700    1.9420 O   0  0  0  0  0  0  0  0  0  0  0  0
    0.0460   -1.7540    0.2080 S   0  0  0  0  0  0  0  0  0  0  0  0
  1  2  1  0
  2  3  1  0
  3  4  1  0
  3 10  2  0
  4  5  2  0
  5  6  1  0
  5  7  1  0
  7  8  2  0
  7  9  1  0
  9 10  1  0
 10 11  1  0
 11 12  2  0
 11 23  1  0
 12 13  1  0
 13 14  2  0
 14 15  1  0
 14 23  1  0
 15 16  2  0
 15 17  1  0
 17 18  1  0
 18 19  1  0
 19 20  1  0
 20 21  2  0
 20 22  1  0
M  CHG  2  20   1  22  -1
M  END
