
     RDKit          3D

 22 23  0  0  0  0  0  0  0  0999 V2000
   -5.8260   -2.1900   -0.0230 C   0  0  0  0  0  0  0  0  0  0  0  0
   -5.4700   -1.1830   -1.0770 C   0  0  0  0  0  0  0  0  0  0  0  0
   -4.0120   -0.9980   -1.1080 N   0  0  0  0  0  0  0  0  0  0  0  0
   -3.1610   -1.6780   -1.8400 N   0  0  0  0  0  0  0  0  0  0  0  0
   -1.8860   -1.2490   -1.6260 C   0  0  0  0  0  0  0  0  0  0  0  0
   -1.9530   -0.2450   -0.7070 C   0  0  0  0  0  0  0  0  0  0  0  0
   -3.2920   -0.1060   -0.3990 C   0  0  0  0  0  0  0  0  0  0  0  0
   -3.6530    0.9370    0.5950 C   0  0  0  0  0  0  0  0  0  0  0  0
   -2.9070    2.2120    0.3860 C   0  0  0  0  0  0  0  0  0  0  0  0
   -1.5450    2.0690   -0.1990 C   0  0  0  0  0  0  0  0  0  0  0  0
   -1.0060    0.6740   -0.0050 C   0  0  2  0  0  0  0  0  0  0  0  0
    0.3380    0.5130   -0.4220 N   0  0  0  0  0  0  0  0  0  0  0  0
    1.3320    0.1070    0.5050 C   0  0  0  0  0  0  0  0  0  0  0  0
    0.9660   -0.0970    1.6880 O   0  0  0  0  0  0  0  0  0  0  0  0
    2.6880   -0.0750    0.1710 N   0  0  0  0  0  0  0  0  0  0  0  0
    3.6440   -0.4940    1.1880 C   0  0  0  0  0  0  0  0  0  0  0  0
    5.0300   -0.6270    0.6170 C   0  0  0  0  0  0  0  0  0  0  0  0
    5.5080    0.6350    0.0660 N   0  0  0  0  0  0  0  0  0  0  0  0
    7.0790    0.5000   -0.5850 S   0  0  2  0  0  0  0  0  0  0  0  0
    7.8740   -0.4820    0.1990 O   0  0  0  0  0  0  0  0  0  0  0  0
    7.7960    1.8380   -0.4930 O   0  0  0  0  0  0  0  0  0  0  0  0
    7.0830    0.0760   -2.2080 O   0  0  0  0  0  0  0  0  0  0  0  0
  1  2  1  0
  2  3  1  0
  3  4  1  0
  3  7  1  0
  4  5  2  0
  5  6  1  0
  6  7  2  0
  6 11  1  0
  7  8  1  0
  8  9  1  0
  9 10  1  0
 10 11  1  0
 11 12  1  6
 12 13  1  0
 13 14  2  0
 13 15  1  0
 15 16  1  0
 16 17  1  0
 17 18  1  0
 18 19  1  0
 19 20  2  0
 19 21  2  0
 19 22  1  6
M  END
