
     RDKit          3D

 16 16  0  0  0  0  0  0  0  0999 V2000
    4.5740    0.0250   -0.7170 C   0  0  0  0  0  0  0  0  0  0  0  0
    3.4610    0.1310    0.1650 O   0  0  0  0  0  0  0  0  0  0  0  0
    2.1760    0.2680   -0.3250 C   0  0  0  0  0  0  0  0  0  0  0  0
    1.9990    0.2980   -1.5610 O   0  0  0  0  0  0  0  0  0  0  0  0
    1.0590    0.3740    0.6400 C   0  0  2  0  0  0  0  0  0  0  0  0
    1.5420    0.3320    1.9530 O   0  0  0  0  0  0  0  0  0  0  0  0
    0.1020   -0.7700    0.3720 C   0  0  1  0  0  0  0  0  0  0  0  0
    0.7020   -2.0010    0.5450 O   0  0  0  0  0  0  0  0  0  0  0  0
   -1.0690   -0.5880    1.3490 C   0  0  0  0  0  0  0  0  0  0  0  0
   -2.3140   -0.9530    0.8320 N   0  0  0  0  0  0  0  0  0  0  0  0
   -3.1040   -0.0080    0.1580 C   0  0  0  0  0  0  0  0  0  0  0  0
   -2.3220    1.0400   -0.6000 C   0  0  2  0  0  0  0  0  0  0  0  0
   -3.1680    1.8570   -1.3310 O   0  0  0  0  0  0  0  0  0  0  0  0
   -1.3730    0.3370   -1.4350 N   0  0  0  0  0  0  0  0  0  0  0  0
   -0.4190   -0.6120   -1.0040 C   0  0  0  0  0  0  0  0  0  0  0  0
    0.0440   -1.4150   -1.8850 O   0  0  0  0  0  0  0  0  0  0  0  0
  1  2  1  0
  2  3  1  0
  3  4  2  0
  3  5  1  0
  5  6  1  1
  5  7  1  0
  7  8  1  6
  7  9  1  0
  7 15  1  0
  9 10  1  0
 10 11  1  0
 11 12  1  0
 12 13  1  6
 12 14  1  0
 14 15  1  0
 15 16  2  0
M  END
