
     RDKit          3D

 22 23  0  0  0  0  0  0  0  0999 V2000
    5.6960    0.7110    0.6970 C   0  0  0  0  0  0  0  0  0  0  0  0
    5.4820   -0.5240    1.2950 O   0  0  0  0  0  0  0  0  0  0  0  0
    4.4020   -0.5500    2.1510 C   0  0  0  0  0  0  0  0  0  0  0  0
    3.0880   -0.4030    1.5100 C   0  0  0  0  0  0  0  0  0  0  0  0
    2.1080   -0.1710    2.2910 O   0  0  0  0  0  0  0  0  0  0  0  0
    2.8760   -0.5060    0.1310 N   0  0  0  0  0  0  0  0  0  0  0  0
    1.5800   -0.3590   -0.5010 C   0  0  0  0  0  0  0  0  0  0  0  0
    1.3320   -0.4540   -1.8500 C   0  0  0  0  0  0  0  0  0  0  0  0
   -0.0430   -0.2510   -2.0840 C   0  0  0  0  0  0  0  0  0  0  0  0
   -0.5760   -0.2710   -3.4000 N   0  0  0  0  0  0  0  0  0  0  0  0
   -1.4780    0.5080   -3.7320 O   0  0  0  0  0  0  0  0  0  0  0  0
   -0.0120   -1.1450   -4.3290 O   0  0  0  0  0  0  0  0  0  0  0  0
   -0.5840   -0.0450   -0.8740 C   0  0  0  0  0  0  0  0  0  0  0  0
   -1.9980    0.1180   -0.5630 C   0  0  0  0  0  0  0  0  0  0  0  0
   -3.1700   -0.1780   -1.2240 C   0  0  0  0  0  0  0  0  0  0  0  0
   -4.3280    0.0660   -0.5790 C   0  0  0  0  0  0  0  0  0  0  0  0
   -4.3140    0.5740    0.6550 C   0  0  0  0  0  0  0  0  0  0  0  0
   -5.3880    0.9320    1.5690 C   0  0  0  0  0  0  0  0  0  0  0  0
   -6.7170    0.7520    1.1530 N   0  0  0  0  0  0  0  0  0  0  0  0
   -5.1230    1.3860    2.6900 O   0  0  0  0  0  0  0  0  0  0  0  0
   -2.5740    0.7470    0.9960 S   0  0  0  0  0  0  0  0  0  0  0  0
    0.4070   -0.1110    0.0660 N   0  0  0  0  0  0  0  0  0  0  0  0
  1  2  1  0
  2  3  1  0
  3  4  1  0
  4  5  2  0
  4  6  1  0
  6  7  1  0
  7  8  2  0
  7 22  1  0
  8  9  1  0
  9 10  1  0
  9 13  2  0
 10 11  2  0
 10 12  1  0
 13 14  1  0
 13 22  1  0
 14 15  2  0
 14 21  1  0
 15 16  1  0
 16 17  2  0
 17 18  1  0
 17 21  1  0
 18 19  1  0
 18 20  2  0
M  CHG  2  10   1  12  -1
M  END
