
     RDKit          3D

 31 34  0  0  0  0  0  0  0  0999 V2000
   -4.6970   -4.0080   -0.8150 C   0  0  0  0  0  0  0  0  0  0  0  0
   -4.2910   -2.6320   -0.9290 N   0  0  0  0  0  0  0  0  0  0  0  0
   -3.1780   -2.2070   -0.1290 C   0  0  0  0  0  0  0  0  0  0  0  0
   -2.5610   -3.0460    0.6960 N   0  0  0  0  0  0  0  0  0  0  0  0
   -1.5290   -2.6360    1.4430 N   0  0  0  0  0  0  0  0  0  0  0  0
   -1.0840   -1.3950    1.3950 C   0  0  0  0  0  0  0  0  0  0  0  0
   -1.6550   -0.4810    0.5950 N   0  0  0  0  0  0  0  0  0  0  0  0
   -2.7110   -0.8880   -0.1820 C   0  0  0  0  0  0  0  0  0  0  0  0
   -3.3310   -0.1650   -0.9830 O   0  0  0  0  0  0  0  0  0  0  0  0
   -1.0860    0.8690    0.7720 C   0  0  2  0  0  0  0  0  0  0  0  0
   -1.4720    1.8580   -0.1760 C   0  0  0  0  0  0  0  0  0  0  0  0
   -2.8250    2.4260   -0.2190 C   0  0  0  0  0  0  0  0  0  0  0  0
   -3.7670    2.0900    0.5200 O   0  0  0  0  0  0  0  0  0  0  0  0
   -3.1420    3.4330   -1.1490 O   0  0  0  0  0  0  0  0  0  0  0  0
   -4.4500    4.0030   -1.2150 C   0  0  0  0  0  0  0  0  0  0  0  0
   -0.5600    2.3840   -0.9940 C   0  0  0  0  0  0  0  0  0  0  0  0
    0.7860    2.0650   -1.0010 O   0  0  0  0  0  0  0  0  0  0  0  0
    1.2480    1.1120   -0.0650 C   0  0  0  0  0  0  0  0  0  0  0  0
    2.6570    0.7390   -0.0160 C   0  0  0  0  0  0  0  0  0  0  0  0
    3.5690    1.7320   -0.0570 N   0  0  0  0  0  0  0  0  0  0  0  0
    4.8830    1.4870   -0.0350 C   0  0  0  0  0  0  0  0  0  0  0  0
    5.8620    2.5760   -0.0750 C   0  0  0  0  0  0  0  0  0  0  0  0
    7.0880    2.3180   -0.0540 O   0  0  0  0  0  0  0  0  0  0  0  0
    5.3010    0.1790    0.0300 C   0  0  0  0  0  0  0  0  0  0  0  0
    7.0030   -0.2000    0.0640 Cl  0  0  0  0  0  0  0  0  0  0  0  0
    4.3560   -0.8460    0.0720 C   0  0  0  0  0  0  0  0  0  0  0  0
    4.9490   -2.5110    0.1290 S   0  0  0  0  0  0  0  0  0  0  0  0
    5.1900   -3.1000    1.8100 C   0  0  0  0  0  0  0  0  0  0  0  0
    3.0490   -0.5450    0.0490 N   0  0  0  0  0  0  0  0  0  0  0  0
    0.4190    0.5930    0.7200 C   0  0  0  0  0  0  0  0  0  0  0  0
    0.4040   -0.5970    2.0940 S   0  0  0  0  0  0  0  0  0  0  0  0
  1  2  1  0
  2  3  1  0
  3  4  2  0
  3  8  1  0
  4  5  1  0
  5  6  2  0
  6  7  1  0
  6 31  1  0
  7  8  1  0
 10  7  1  6
  8  9  2  0
 10 11  1  0
 10 30  1  0
 11 12  1  0
 11 16  2  0
 12 13  2  0
 12 14  1  0
 14 15  1  0
 16 17  1  0
 17 18  1  0
 18 19  1  0
 18 30  2  0
 19 20  2  0
 19 29  1  0
 20 21  1  0
 21 22  1  0
 21 24  2  0
 22 23  2  0
 24 25  1  0
 24 26  1  0
 26 27  1  0
 26 29  2  0
 27 28  1  0
 30 31  1  0
M  END
