
     RDKit          3D

 29 31  0  0  0  0  0  0  0  0999 V2000
    6.5250    1.7780   -1.9580 N   0  0  0  0  0  0  0  0  0  0  0  0
    6.5900    1.2090   -0.3360 S   0  0  2  0  0  0  0  0  0  0  0  0
    6.4550    2.4130    0.5630 O   0  0  0  0  0  0  0  0  0  0  0  0
    7.9100    0.5390   -0.1460 O   0  0  0  0  0  0  0  0  0  0  0  0
    5.3130    0.0630   -0.0050 C   0  0  0  0  0  0  0  0  0  0  0  0
    4.0800    0.4240    0.5030 C   0  0  0  0  0  0  0  0  0  0  0  0
    3.1110   -0.5250    0.7370 C   0  0  0  0  0  0  0  0  0  0  0  0
    3.3680   -1.8510    0.4650 C   0  0  0  0  0  0  0  0  0  0  0  0
    2.3700   -2.9310    0.6830 C   0  0  0  0  0  0  0  0  0  0  0  0
    1.0580   -2.4000    1.0130 N   0  0  0  0  0  0  0  0  0  0  0  0
    0.3420   -1.5560    0.1200 C   0  0  0  0  0  0  0  0  0  0  0  0
    0.8150   -1.1870   -1.0910 N   0  0  0  0  0  0  0  0  0  0  0  0
    0.1350   -0.3900   -1.9250 C   0  0  0  0  0  0  0  0  0  0  0  0
   -1.0720    0.0700   -1.5550 N   0  0  0  0  0  0  0  0  0  0  0  0
   -1.6280   -0.2420   -0.3700 C   0  0  0  0  0  0  0  0  0  0  0  0
   -2.9000    0.2350    0.0300 N   0  0  0  0  0  0  0  0  0  0  0  0
   -3.6970    1.1130   -0.8080 C   0  0  0  0  0  0  0  0  0  0  0  0
   -4.9580    1.4120   -0.0950 C   0  0  0  0  0  0  0  0  0  0  0  0
   -5.0070    2.3920    0.8760 C   0  0  0  0  0  0  0  0  0  0  0  0
   -6.1970    2.6760    1.5480 C   0  0  0  0  0  0  0  0  0  0  0  0
   -7.3490    1.9870    1.2600 C   0  0  0  0  0  0  0  0  0  0  0  0
   -7.3100    1.0040    0.2900 C   0  0  0  0  0  0  0  0  0  0  0  0
   -6.1180    0.7300   -0.3730 C   0  0  0  0  0  0  0  0  0  0  0  0
   -0.9040   -1.0620    0.4620 C   0  0  0  0  0  0  0  0  0  0  0  0
   -1.4510   -1.4160    1.7140 N   0  0  0  0  0  0  0  0  0  0  0  0
   -1.5020   -0.5940    2.6400 O   0  0  0  0  0  0  0  0  0  0  0  0
   -1.9350   -2.6770    1.9260 O   0  0  0  0  0  0  0  0  0  0  0  0
    4.5960   -2.2440   -0.0450 C   0  0  0  0  0  0  0  0  0  0  0  0
    5.5320   -1.2570   -0.2620 C   0  0  0  0  0  0  0  0  0  0  0  0
  2  1  1  6
  2  3  2  0
  2  4  2  0
  2  5  1  0
  5  6  2  0
  5 29  1  0
  6  7  1  0
  7  8  2  0
  8  9  1  0
  8 28  1  0
  9 10  1  0
 10 11  1  0
 11 12  2  0
 11 24  1  0
 12 13  1  0
 13 14  2  0
 14 15  1  0
 15 16  1  0
 15 24  2  0
 16 17  1  0
 17 18  1  0
 18 19  2  0
 18 23  1  0
 19 20  1  0
 20 21  2  0
 21 22  1  0
 22 23  2  0
 24 25  1  0
 25 26  2  0
 25 27  1  0
 28 29  2  0
M  CHG  2  25   1  27  -1
M  END
