
     RDKit          3D

 31 34  0  0  0  0  0  0  0  0999 V2000
   -3.9530   -2.2170   -0.5360 C   0  0  0  0  0  0  0  0  0  0  0  0
   -3.1910   -0.9820   -0.9180 C   0  0  2  0  0  0  0  0  0  0  0  0
   -1.9060   -0.8120   -0.1480 C   0  0  0  0  0  0  0  0  0  0  0  0
   -1.6910    0.5600    0.2700 N   0  0  0  0  0  0  0  0  0  0  0  0
   -0.3400    0.6840    0.6390 C   0  0  0  0  0  0  0  0  0  0  0  0
    0.5340    0.4130   -0.5280 C   0  0  0  0  0  0  0  0  0  0  0  0
    1.8610    0.2560   -0.4410 N   0  0  0  0  0  0  0  0  0  0  0  0
    2.3410    0.0280   -1.6650 C   0  0  0  0  0  0  0  0  0  0  0  0
    3.7450   -0.1950   -1.9880 C   0  0  0  0  0  0  0  0  0  0  0  0
    4.3430   -0.4960   -3.6450 S   0  0  0  0  0  0  0  0  0  0  0  0
    6.0730   -0.6510   -3.1580 C   0  0  0  0  0  0  0  0  0  0  0  0
    6.0340   -0.4620   -1.8010 C   0  0  0  0  0  0  0  0  0  0  0  0
    7.1920   -0.5000   -0.9890 C   0  0  0  0  0  0  0  0  0  0  0  0
    8.3320   -0.7160   -1.5070 O   0  0  0  0  0  0  0  0  0  0  0  0
    7.1160   -0.3120    0.3250 N   0  0  0  0  0  0  0  0  0  0  0  0
    8.5800   -0.3650    1.3110 S   0  0  0  0  0  0  0  0  0  0  0  0
    8.1760   -1.3470    3.1030 Cl  0  0  0  0  0  0  0  0  0  0  0  0
    5.9400   -0.0820    0.9100 C   0  0  0  0  0  0  0  0  0  0  0  0
    5.9260    0.0900    2.1650 O   0  0  0  0  0  0  0  0  0  0  0  0
    4.8550   -0.0460    0.1540 N   0  0  0  0  0  0  0  0  0  0  0  0
    4.8670   -0.2340   -1.2160 C   0  0  0  0  0  0  0  0  0  0  0  0
    1.2900    0.0490   -2.5000 N   0  0  0  0  0  0  0  0  0  0  0  0
    0.2270    0.2810   -1.7910 O   0  0  0  0  0  0  0  0  0  0  0  0
   -2.6860    0.8710    1.2410 C   0  0  1  0  0  0  0  0  0  0  0  0
   -2.6590    2.2360    1.8000 C   0  0  0  0  0  0  0  0  0  0  0  0
   -3.7560    2.3850    2.7910 C   0  0  0  0  0  0  0  0  0  0  0  0
   -4.5330    1.4270    3.0400 O   0  0  0  0  0  0  0  0  0  0  0  0
   -3.9890    3.5660    3.4900 O   0  0  0  0  0  0  0  0  0  0  0  0
   -4.0410    0.6570    0.6080 C   0  0  0  0  0  0  0  0  0  0  0  0
   -3.9650    0.2310   -0.7730 N   0  0  0  0  0  0  0  0  0  0  0  0
   -5.2670    0.1630   -1.3570 C   0  0  0  0  0  0  0  0  0  0  0  0
  2  1  1  1
  2  3  1  0
  2 30  1  0
  3  4  1  0
  4  5  1  0
  4 24  1  0
  5  6  1  0
  6  7  2  0
  6 23  1  0
  7  8  1  0
  8  9  1  0
  8 22  2  0
  9 10  1  0
  9 21  2  0
 10 11  1  0
 11 12  2  0
 12 13  1  0
 12 21  1  0
 13 14  2  0
 13 15  1  0
 15 16  1  0
 15 18  1  0
 16 17  1  0
 18 19  2  0
 18 20  1  0
 20 21  1  0
 22 23  1  0
 24 25  1  6
 24 29  1  0
 25 26  1  0
 26 27  2  0
 26 28  1  0
 29 30  1  0
 30 31  1  0
M  END
