
     RDKit          3D

 31 33  0  0  0  0  0  0  0  0999 V2000
   -1.8770    3.9210   -0.4340 C   0  0  0  0  0  0  0  0  0  0  0  0
   -2.1670    2.1290   -0.2570 S   0  0  0  0  0  0  0  0  0  0  0  0
   -2.2330    1.8860    1.2670 O   0  0  0  0  0  0  0  0  0  0  0  0
   -0.6560    1.3230   -0.8190 C   0  0  0  0  0  0  0  0  0  0  0  0
   -0.7340   -0.0940   -0.7460 N   0  0  0  0  0  0  0  0  0  0  0  0
   -1.6750   -1.0990   -1.1780 C   0  0  0  0  0  0  0  0  0  0  0  0
   -1.7180   -1.7980    0.1320 N   0  0  0  0  0  0  0  0  0  0  0  0
   -2.7240   -2.3600    0.8910 C   0  0  1  0  0  0  0  0  0  0  0  0
   -2.2780   -2.8820    2.2450 C   0  0  0  0  0  0  0  0  0  0  0  0
   -3.4860   -3.6200    2.7840 C   0  0  0  0  0  0  0  0  0  0  0  0
   -4.7700   -2.3440    2.4300 S   0  0  0  0  0  0  0  0  0  0  0  0
   -3.8870   -1.4840    1.1380 C   0  0  0  0  0  0  0  0  0  0  0  0
   -4.2550   -0.3940    0.6170 N   0  0  0  0  0  0  0  0  0  0  0  0
   -5.4220    0.3320    0.9770 C   0  0  0  0  0  0  0  0  0  0  0  0
   -6.5290    0.0820   -0.0350 C   0  0  0  0  0  0  0  0  0  0  0  0
   -7.6720    0.7840    0.3040 O   0  0  0  0  0  0  0  0  0  0  0  0
   -0.3920   -1.8120    0.5010 N   0  0  0  0  0  0  0  0  0  0  0  0
    0.2650   -0.8950    0.0360 C   0  0  0  0  0  0  0  0  0  0  0  0
    1.5230   -0.5250    0.5840 N   0  0  0  0  0  0  0  0  0  0  0  0
    2.5480   -0.2430   -0.3270 C   0  0  0  0  0  0  0  0  0  0  0  0
    2.0760   -0.4700   -1.5390 O   0  0  0  0  0  0  0  0  0  0  0  0
    3.8500    0.1870   -0.0430 C   0  0  0  0  0  0  0  0  0  0  0  0
    4.2430    0.4700    1.0980 O   0  0  0  0  0  0  0  0  0  0  0  0
    4.7850    0.3020   -1.1270 N   0  0  0  0  0  0  0  0  0  0  0  0
    6.1020    0.7110   -0.9270 C   0  0  0  0  0  0  0  0  0  0  0  0
    7.0820   -0.1350   -1.2780 C   0  0  0  0  0  0  0  0  0  0  0  0
    8.5130    0.1440   -1.1330 C   0  0  0  0  0  0  0  0  0  0  0  0
    8.7940    1.3980   -0.5840 O   0  0  0  0  0  0  0  0  0  0  0  0
    7.7790    2.2680   -0.2240 C   0  0  0  0  0  0  0  0  0  0  0  0
    6.4990    1.9870   -0.3670 C   0  0  0  0  0  0  0  0  0  0  0  0
    5.2440    3.1050    0.0970 Cl  0  0  0  0  0  0  0  0  0  0  0  0
  2  1  1  1
  2  3  2  0
  2  4  1  0
  4  5  1  0
  5  6  1  0
  5 18  1  0
  6  7  1  0
  8  7  1  1
  7 17  1  0
  8  9  1  0
  8 12  1  0
  9 10  1  0
 10 11  1  0
 11 12  1  0
 12 13  2  3
 13 14  1  0
 14 15  1  0
 15 16  1  0
 17 18  2  0
 18 19  1  0
 19 20  1  0
 20 21  2  0
 20 22  1  0
 22 23  2  0
 22 24  1  0
 24 25  1  0
 25 26  2  0
 25 30  1  0
 26 27  1  0
 27 28  1  0
 28 29  1  0
 29 30  2  0
 30 31  1  0
M  END
