
     RDKit          3D

 31 34  0  0  0  0  0  0  0  0999 V2000
   -6.1140   -2.9080   -2.5900 C   0  0  0  0  0  0  0  0  0  0  0  0
   -5.5370   -1.8870   -1.7170 N   0  0  0  0  0  0  0  0  0  0  0  0
   -4.1660   -1.5500   -1.7610 C   0  0  0  0  0  0  0  0  0  0  0  0
   -3.4680   -2.2160   -2.6310 O   0  0  0  0  0  0  0  0  0  0  0  0
   -3.5020   -0.5660   -0.9480 C   0  0  0  0  0  0  0  0  0  0  0  0
   -4.0180    0.2020   -0.0220 C   0  0  0  0  0  0  0  0  0  0  0  0
   -5.3440    0.1520    0.2990 O   0  0  0  0  0  0  0  0  0  0  0  0
   -6.2930    0.8150    1.0480 C   0  0  0  0  0  0  0  0  0  0  0  0
   -5.8410    1.8960    1.8730 N   0  0  0  0  0  0  0  0  0  0  0  0
   -4.5330    2.1410    2.3640 C   0  0  0  0  0  0  0  0  0  0  0  0
   -4.4230    2.5750    3.5370 O   0  0  0  0  0  0  0  0  0  0  0  0
   -3.2700    1.9470    1.6600 C   0  0  0  0  0  0  0  0  0  0  0  0
   -3.0630    1.1180    0.6440 C   0  0  0  0  0  0  0  0  0  0  0  0
   -1.4320    1.0830   -0.0300 S   0  0  0  0  0  0  0  0  0  0  0  0
   -0.3930    2.1560    0.9580 C   0  0  0  0  0  0  0  0  0  0  0  0
    1.0160    2.1500    0.4230 C   0  0  0  0  0  0  0  0  0  0  0  0
    1.9840    1.2650    0.7170 N   0  0  0  0  0  0  0  0  0  0  0  0
    3.1070    1.5780    0.0590 C   0  0  0  0  0  0  0  0  0  0  0  0
    4.4220    0.9400    0.0080 C   0  0  0  0  0  0  0  0  0  0  0  0
    4.7170   -0.3010   -0.1370 C   0  0  0  0  0  0  0  0  0  0  0  0
    3.4080   -1.5020   -0.3150 Cl  0  0  0  0  0  0  0  0  0  0  0  0
    6.0790   -0.6500   -0.1020 N   0  0  0  0  0  0  0  0  0  0  0  0
    6.6300   -1.9960   -0.2780 C   0  0  0  0  0  0  0  0  0  0  0  0
    7.9890   -2.1880    0.2370 C   0  0  0  0  0  0  0  0  0  0  0  0
    8.8550   -0.9880    0.2270 C   0  0  0  0  0  0  0  0  0  0  0  0
   10.0990   -1.1660    0.2010 O   0  0  0  0  0  0  0  0  0  0  0  0
    8.2400    0.2770    0.2460 N   0  0  0  0  0  0  0  0  0  0  0  0
    6.9760    0.3940    0.0950 C   0  0  0  0  0  0  0  0  0  0  0  0
    5.9420    1.8720    0.1140 S   0  0  0  0  0  0  0  0  0  0  0  0
    2.7740    2.6960   -0.6480 N   0  0  0  0  0  0  0  0  0  0  0  0
    1.5440    3.0020   -0.4120 O   0  0  0  0  0  0  0  0  0  0  0  0
  1  2  1  0
  2  3  1  0
  3  4  2  0
  3  5  1  0
  5  6  2  3
  6  7  1  0
  6 13  1  0
  7  8  1  0
  8  9  1  0
  9 10  1  0
 10 11  2  0
 10 12  1  0
 12 13  2  0
 13 14  1  0
 14 15  1  0
 15 16  1  0
 16 17  2  0
 16 31  1  0
 17 18  1  0
 18 19  1  0
 18 30  2  0
 19 20  2  0
 19 29  1  0
 20 21  1  0
 20 22  1  0
 22 23  1  0
 22 28  1  0
 23 24  1  0
 24 25  1  0
 25 26  2  0
 25 27  1  0
 27 28  2  0
 28 29  1  0
 30 31  1  0
M  END
