
     RDKit          3D

 22 22  0  0  0  0  0  0  0  0999 V2000
    5.4730   -0.5460    1.5300 C   0  0  0  0  0  0  0  0  0  0  0  0
    5.5680    0.5280    0.6680 N   0  0  0  0  0  0  0  0  0  0  0  0
    4.8250    1.1310   -0.1220 C   0  0  0  0  0  0  0  0  0  0  0  0
    5.5180    2.3000   -0.8330 C   0  0  0  0  0  0  0  0  0  0  0  0
    3.1280    0.7850   -0.4860 S   0  0  0  0  0  0  0  0  0  0  0  0
    2.5120   -0.5990    0.4370 C   0  0  0  0  0  0  0  0  0  0  0  0
    1.0730   -0.8950    0.1310 C   0  0  0  0  0  0  0  0  0  0  0  0
    0.5370   -1.8560    0.7300 O   0  0  0  0  0  0  0  0  0  0  0  0
    0.3110   -0.1350   -0.7980 N   0  0  0  0  0  0  0  0  0  0  0  0
   -1.0150   -0.4040   -1.0680 C   0  0  0  0  0  0  0  0  0  0  0  0
   -2.1230   -0.2250   -0.1350 C   0  0  0  0  0  0  0  0  0  0  0  0
   -2.1170    0.3350    1.0350 C   0  0  0  0  0  0  0  0  0  0  0  0
   -0.8160    0.9000    1.5330 C   0  0  0  0  0  0  0  0  0  0  0  0
   -3.2200    0.4630    1.9390 N   0  0  0  0  0  0  0  0  0  0  0  0
   -4.7720   -0.0390    1.4390 S   0  0  2  0  0  0  0  0  0  0  0  0
   -5.7650    1.0850    1.4180 O   0  0  0  0  0  0  0  0  0  0  0  0
   -5.2160   -1.1400    2.3720 O   0  0  0  0  0  0  0  0  0  0  0  0
   -4.5630   -0.7460   -0.1340 C   0  0  0  0  0  0  0  0  0  0  0  0
   -5.9970   -1.4270   -0.9140 Cl  0  0  0  0  0  0  0  0  0  0  0  0
   -3.4060   -0.7630   -0.6870 C   0  0  0  0  0  0  0  0  0  0  0  0
   -3.3730   -1.3870   -2.0050 N   0  0  0  0  0  0  0  0  0  0  0  0
   -3.9950   -0.6320   -3.0740 C   0  0  0  0  0  0  0  0  0  0  0  0
  1  2  1  0
  2  3  2  3
  3  4  1  0
  3  5  1  0
  5  6  1  0
  6  7  1  0
  7  8  2  0
  7  9  1  0
  9 10  1  0
 10 11  1  0
 11 12  2  0
 11 20  1  0
 12 13  1  0
 12 14  1  0
 15 14  1  1
 15 16  2  0
 15 17  2  0
 15 18  1  0
 18 19  1  0
 18 20  2  0
 20 21  1  0
 21 22  1  0
M  END
