
     RDKit          3D

 21 22  0  0  0  0  0  0  0  0999 V2000
    3.6780    2.0670    1.3490 C   0  0  0  0  0  0  0  0  0  0  0  0
    4.0140    1.3470    0.1860 O   0  0  0  0  0  0  0  0  0  0  0  0
    3.8890   -0.0290    0.1510 C   0  0  0  0  0  0  0  0  0  0  0  0
    4.4430   -0.8220    1.0330 C   0  0  0  0  0  0  0  0  0  0  0  0
    4.2780   -2.1940    0.9380 O   0  0  0  0  0  0  0  0  0  0  0  0
    3.5330   -2.8310   -0.0690 C   0  0  0  0  0  0  0  0  0  0  0  0
    2.9300   -1.8860   -1.0380 C   0  0  0  0  0  0  0  0  0  0  0  0
    3.0940   -0.5920   -0.9370 C   0  0  0  0  0  0  0  0  0  0  0  0
    2.4470    0.2930   -1.9480 C   0  0  0  0  0  0  0  0  0  0  0  0
    1.3440    1.4040   -1.0750 S   0  0  0  0  0  0  0  0  0  0  0  0
   -0.0440    0.5830   -0.3540 C   0  0  0  0  0  0  0  0  0  0  0  0
   -0.9510    1.2170    0.4170 N   0  0  0  0  0  0  0  0  0  0  0  0
   -1.8530    0.3010    0.8110 C   0  0  0  0  0  0  0  0  0  0  0  0
   -3.2320    0.7620    1.8700 S   0  0  0  0  0  0  0  0  0  0  0  0
   -4.6830    1.2700    0.9450 C   0  0  1  0  0  0  0  0  0  0  0  0
   -4.3730    1.4240   -0.5260 C   0  0  0  0  0  0  0  0  0  0  0  0
   -5.7320    0.2350    1.0860 C   0  0  0  0  0  0  0  0  0  0  0  0
   -5.4750   -1.0750    0.6130 N   0  0  0  0  0  0  0  0  0  0  0  0
   -6.8180    0.5380    1.6160 O   0  0  0  0  0  0  0  0  0  0  0  0
   -1.5070   -0.8680    0.2920 N   0  0  0  0  0  0  0  0  0  0  0  0
   -0.3900   -0.7110   -0.4310 N   0  0  0  0  0  0  0  0  0  0  0  0
  1  2  1  0
  2  3  1  0
  3  4  2  0
  3  8  1  0
  4  5  1  0
  5  6  1  0
  6  7  1  0
  7  8  2  0
  8  9  1  0
  9 10  1  0
 10 11  1  0
 11 12  2  0
 11 21  1  0
 12 13  1  0
 13 14  1  0
 13 20  2  0
 14 15  1  0
 15 16  1  6
 15 17  1  0
 17 18  1  0
 17 19  2  0
 20 21  1  0
M  END
