
     RDKit          3D

 22 23  0  0  0  0  0  0  0  0999 V2000
    4.9550    2.4480    0.4150 C   0  0  0  0  0  0  0  0  0  0  0  0
    3.1800    2.1020    0.2640 S   0  0  0  0  0  0  0  0  0  0  0  0
    2.8870    0.3610    0.0520 C   0  0  0  0  0  0  0  0  0  0  0  0
    3.9180   -0.5060    0.0210 N   0  0  0  0  0  0  0  0  0  0  0  0
    3.7210   -1.8220   -0.1380 C   0  0  0  0  0  0  0  0  0  0  0  0
    5.0480   -2.9530   -0.1790 Cl  0  0  0  0  0  0  0  0  0  0  0  0
    2.4040   -2.2870   -0.2730 C   0  0  0  0  0  0  0  0  0  0  0  0
    2.2360   -3.6950   -0.4570 C   0  0  0  0  0  0  0  0  0  0  0  0
    1.1580   -4.2720   -0.6140 O   0  0  0  0  0  0  0  0  0  0  0  0
    1.3240   -1.4090   -0.2430 C   0  0  0  0  0  0  0  0  0  0  0  0
   -0.0070   -1.8280   -0.3320 N   0  0  0  0  0  0  0  0  0  0  0  0
   -1.0930   -0.9010   -0.3450 C   0  0  0  0  0  0  0  0  0  0  0  0
   -0.9910    0.3910   -0.7300 C   0  0  0  0  0  0  0  0  0  0  0  0
   -2.0960    1.2520   -0.6910 C   0  0  0  0  0  0  0  0  0  0  0  0
   -3.3270    0.8190   -0.2620 C   0  0  0  0  0  0  0  0  0  0  0  0
   -4.7130    1.8910   -0.2120 S   0  0  1  0  0  0  0  0  0  0  0  0
   -4.8330    2.6920    1.3100 N   0  0  0  0  0  0  0  0  0  0  0  0
   -4.6440    2.8900   -1.3110 O   0  0  0  0  0  0  0  0  0  0  0  0
   -5.9890    1.1040   -0.3970 O   0  0  0  0  0  0  0  0  0  0  0  0
   -3.4100   -0.5010    0.1250 C   0  0  0  0  0  0  0  0  0  0  0  0
   -2.3470   -1.3590    0.0960 C   0  0  0  0  0  0  0  0  0  0  0  0
    1.6500   -0.0950   -0.0770 N   0  0  0  0  0  0  0  0  0  0  0  0
  1  2  1  0
  2  3  1  0
  3  4  2  0
  3 22  1  0
  4  5  1  0
  5  6  1  0
  5  7  2  0
  7  8  1  0
  7 10  1  0
  8  9  2  0
 10 11  1  0
 10 22  2  0
 11 12  1  0
 12 13  2  0
 12 21  1  0
 13 14  1  0
 14 15  2  0
 15 16  1  0
 15 20  1  0
 16 17  1  1
 16 18  2  0
 16 19  2  0
 20 21  2  0
M  END
