
     RDKit          3D

 21 22  0  0  0  0  0  0  0  0999 V2000
   -1.7810    0.6870    0.2610 C   0  0  0  0  0  0  0  0  0  0  0  0
   -2.8400   -0.0680   -0.5100 C   0  0  1  0  0  0  0  0  0  0  0  0
   -2.7070    0.3390   -1.9860 C   0  0  0  0  0  0  0  0  0  0  0  0
   -2.6660   -1.8450   -0.4510 S   0  0  0  0  0  0  0  0  0  0  0  0
   -1.2160   -2.4740   -1.3130 C   0  0  0  0  0  0  0  0  0  0  0  0
    0.0230   -2.0340   -0.6340 C   0  0  0  0  0  0  0  0  0  0  0  0
    0.7560   -2.3860    0.3030 N   0  0  0  0  0  0  0  0  0  0  0  0
    1.8300   -1.7580    0.6270 N   0  0  0  0  0  0  0  0  0  0  0  0
    2.2550   -0.7740    0.0810 C   0  0  0  0  0  0  0  0  0  0  0  0
    3.3990    0.1870    0.1600 C   0  0  0  0  0  0  0  0  0  0  0  0
    3.5370    1.1950   -0.6550 C   0  0  0  0  0  0  0  0  0  0  0  0
    4.6350    2.0340   -0.5020 O   0  0  0  0  0  0  0  0  0  0  0  0
    5.6250    1.8820    0.4820 C   0  0  0  0  0  0  0  0  0  0  0  0
    5.4030    0.7180    1.3690 C   0  0  0  0  0  0  0  0  0  0  0  0
    4.3540   -0.0540    1.1930 C   0  0  0  0  0  0  0  0  0  0  0  0
    4.1910   -1.1340    2.0540 O   0  0  0  0  0  0  0  0  0  0  0  0
    0.9890   -0.5250   -1.2080 S   0  0  0  0  0  0  0  0  0  0  0  0
   -4.2120    0.3700   -0.0890 C   0  0  0  0  0  0  0  0  0  0  0  0
   -5.0310    0.8730   -0.8920 O   0  0  0  0  0  0  0  0  0  0  0  0
   -4.5780    0.2000    1.2720 N   0  0  0  0  0  0  0  0  0  0  0  0
   -5.8270    0.5680    1.7860 N   0  0  0  0  0  0  0  0  0  0  0  0
  2  1  1  1
  2  3  1  0
  2  4  1  0
  2 18  1  0
  4  5  1  0
  5  6  1  0
  6  7  2  0
  6 17  1  0
  7  8  1  0
  8  9  2  0
  9 10  1  0
  9 17  1  0
 10 11  2  0
 10 15  1  0
 11 12  1  0
 12 13  1  0
 13 14  1  0
 14 15  2  0
 15 16  1  0
 18 19  2  0
 18 20  1  0
 20 21  1  0
M  END
