
     RDKit          3D

 22 23  0  0  0  0  0  0  0  0999 V2000
    4.7970   -0.7200    2.0780 C   0  0  0  0  0  0  0  0  0  0  0  0
    3.4160    0.4460    1.8120 S   0  0  0  0  0  0  0  0  0  0  0  0
    3.5330    1.0790    0.1650 N   0  0  0  0  0  0  0  0  0  0  0  0
    2.7780    0.6020   -0.8600 C   0  0  0  0  0  0  0  0  0  0  0  0
    1.7710   -0.4800   -0.7930 C   0  0  0  0  0  0  0  0  0  0  0  0
    0.1430    0.1780   -0.4130 S   0  0  0  0  0  0  0  0  0  0  0  0
   -1.0570   -1.1220   -0.3330 C   0  0  0  0  0  0  0  0  0  0  0  0
   -0.6950   -2.4290   -0.5480 C   0  0  0  0  0  0  0  0  0  0  0  0
   -1.6020   -3.4630   -0.4940 C   0  0  0  0  0  0  0  0  0  0  0  0
   -1.1240   -5.1330   -0.7710 Cl  0  0  0  0  0  0  0  0  0  0  0  0
   -2.9070   -3.1330   -0.2110 C   0  0  0  0  0  0  0  0  0  0  0  0
   -3.3220   -1.8120    0.0150 C   0  0  0  0  0  0  0  0  0  0  0  0
   -2.3990   -0.8020   -0.0450 C   0  0  0  0  0  0  0  0  0  0  0  0
   -2.7080    0.5590    0.1660 N   0  0  0  0  0  0  0  0  0  0  0  0
   -3.9540    1.1360    0.4650 C   0  0  0  0  0  0  0  0  0  0  0  0
   -4.9600    0.4120    0.5720 O   0  0  0  0  0  0  0  0  0  0  0  0
   -4.1170    2.6230    0.6620 C   0  0  0  0  0  0  0  0  0  0  0  0
   -5.4170    2.9540    0.9440 O   0  0  0  0  0  0  0  0  0  0  0  0
    3.1540    1.3290   -1.9250 N   0  0  0  0  0  0  0  0  0  0  0  0
    4.0840    2.2080   -1.5980 N   0  0  0  0  0  0  0  0  0  0  0  0
    4.3290    2.0590   -0.2890 C   0  0  0  0  0  0  0  0  0  0  0  0
    5.1360    2.6770    0.4620 O   0  0  0  0  0  0  0  0  0  0  0  0
  1  2  1  0
  2  3  1  0
  3  4  1  0
  3 21  1  0
  4  5  1  0
  4 19  2  0
  5  6  1  0
  6  7  1  0
  7  8  2  0
  7 13  1  0
  8  9  1  0
  9 10  1  0
  9 11  2  0
 11 12  1  0
 12 13  2  0
 13 14  1  0
 14 15  1  0
 15 16  2  0
 15 17  1  0
 17 18  1  0
 19 20  1  0
 20 21  1  0
 21 22  2  0
M  END
