
     RDKit          3D

 22 22  0  0  0  0  0  0  0  0999 V2000
    2.6280    2.0380   -0.6330 O   0  0  0  0  0  0  0  0  0  0  0  0
    2.5010    1.0370    0.1520 C   0  0  0  0  0  0  0  0  0  0  0  0
    3.6260    0.2780    0.3640 O   0  0  0  0  0  0  0  0  0  0  0  0
    4.8570    0.6070   -0.2680 C   0  0  1  0  0  0  0  0  0  0  0  0
    5.7980    0.9610    0.6900 O   0  0  0  0  0  0  0  0  0  0  0  0
    5.3320   -0.5370   -1.0720 C   0  0  0  0  0  0  0  0  0  0  0  0
    4.5680   -0.9710   -1.9910 O   0  0  0  0  0  0  0  0  0  0  0  0
    6.5610   -1.0860   -0.8050 O   0  0  0  0  0  0  0  0  0  0  0  0
    1.1610    0.7470    0.7900 C   0  0  2  0  0  0  0  0  0  0  0  0
    1.4170   -0.4080    1.5690 O   0  0  0  0  0  0  0  0  0  0  0  0
    0.2660    0.3730   -0.3440 C   0  0  0  0  0  0  0  0  0  0  0  0
   -1.1460    0.0450   -0.0320 C   0  0  1  0  0  0  0  0  0  0  0  0
   -1.8230   -0.3010   -1.3420 C   0  0  0  0  0  0  0  0  0  0  0  0
   -1.7920    0.8200   -2.3480 C   0  0  0  0  0  0  0  0  0  0  0  0
   -2.4660    0.3510   -3.5040 O   0  0  0  0  0  0  0  0  0  0  0  0
   -1.2160   -1.1320    0.8990 C   0  0  0  0  0  0  0  0  0  0  0  0
   -2.6670   -1.4390    1.2280 C   0  0  1  0  0  0  0  0  0  0  0  0
   -2.7460   -2.5230    2.1160 O   0  0  0  0  0  0  0  0  0  0  0  0
   -3.2330   -0.1870    1.8650 C   0  0  2  0  0  0  0  0  0  0  0  0
   -4.5720   -0.3090    2.1910 O   0  0  0  0  0  0  0  0  0  0  0  0
   -3.0690    0.9370    0.8830 C   0  0  0  0  0  0  0  0  0  0  0  0
   -1.7440    1.1630    0.5420 O   0  0  0  0  0  0  0  0  0  0  0  0
  1  2  2  0
  2  3  1  0
  2  9  1  0
  3  4  1  0
  4  5  1  1
  4  6  1  0
  6  7  2  0
  6  8  1  0
  9 10  1  1
  9 11  1  0
 12 11  1  6
 12 13  1  0
 12 16  1  0
 12 22  1  0
 13 14  1  0
 14 15  1  0
 16 17  1  0
 17 18  1  1
 17 19  1  0
 19 20  1  6
 19 21  1  0
 21 22  1  0
M  END
