
     RDKit          3D

 22 22  0  0  0  0  0  0  0  0999 V2000
   -3.3090   -1.0830    2.3320 C   0  0  0  0  0  0  0  0  0  0  0  0
   -3.1380   -0.3470    0.9970 C   0  0  2  0  0  0  0  0  0  0  0  0
   -1.8220   -0.7170    0.3530 C   0  0  0  0  0  0  0  0  0  0  0  0
   -1.0930    0.4430   -0.2280 C   0  0  2  0  0  0  0  0  0  0  0  0
   -1.7960    1.1860   -1.2970 C   0  0  0  0  0  0  0  0  0  0  0  0
   -2.1770    0.4530   -2.5270 C   0  0  1  0  0  0  0  0  0  0  0  0
   -3.0310   -0.6220   -2.3030 O   0  0  0  0  0  0  0  0  0  0  0  0
   -2.9710    1.3620   -3.2800 O   0  0  0  0  0  0  0  0  0  0  0  0
    0.2410   -0.0780   -0.7350 C   0  0  2  0  0  0  0  0  0  0  0  0
   -0.0170   -0.9760   -1.7340 O   0  0  0  0  0  0  0  0  0  0  0  0
    1.0830   -0.4820    0.2670 O   0  0  0  0  0  0  0  0  0  0  0  0
    2.2180    0.2100    0.4560 C   0  0  1  0  0  0  0  0  0  0  0  0
    2.3090    0.9330    1.7920 C   0  0  0  0  0  0  0  0  0  0  0  0
    3.5720    1.5790    1.7690 O   0  0  0  0  0  0  0  0  0  0  0  0
    3.4200   -0.6880    0.4040 C   0  0  1  0  0  0  0  0  0  0  0  0
    3.3980   -1.6970    1.3870 O   0  0  0  0  0  0  0  0  0  0  0  0
    3.6300   -1.3930   -0.9120 C   0  0  1  0  0  0  0  0  0  0  0  0
    2.6410   -2.3290   -1.1810 O   0  0  0  0  0  0  0  0  0  0  0  0
    3.6610   -0.4100   -1.9010 O   0  0  0  0  0  0  0  0  0  0  0  0
   -0.8830    1.3660    0.8170 O   0  0  0  0  0  0  0  0  0  0  0  0
   -1.9520    1.5300    1.6390 C   0  0  0  0  0  0  0  0  0  0  0  0
   -3.1370    1.0000    1.2290 O   0  0  0  0  0  0  0  0  0  0  0  0
  2  1  1  1
  2  3  1  0
  2 22  1  0
  3  4  1  0
  4  5  1  6
  4  9  1  0
  4 20  1  0
  5  6  1  0
  6  7  1  1
  6  8  1  0
  9 10  1  6
  9 11  1  0
 11 12  1  0
 12 13  1  1
 12 15  1  0
 13 14  1  0
 15 16  1  1
 15 17  1  0
 17 18  1  6
 17 19  1  0
 20 21  1  0
 21 22  1  0
M  END
