
     RDKit          3D

 21 21  0  0  0  0  0  0  0  0999 V2000
    2.6250    4.3380    0.3820 O   0  0  0  0  0  0  0  0  0  0  0  0
    2.0590    3.3070   -0.0490 C   0  0  0  0  0  0  0  0  0  0  0  0
    0.5800    3.2950   -0.0670 C   0  0  0  0  0  0  0  0  0  0  0  0
    0.1040    2.3170    0.7980 O   0  0  0  0  0  0  0  0  0  0  0  0
   -0.9790    1.6150    0.2040 C   0  0  2  0  0  0  0  0  0  0  0  0
   -1.9260    2.6390   -0.0480 O   0  0  0  0  0  0  0  0  0  0  0  0
   -1.4720    0.6750    1.2350 C   0  0  2  0  0  0  0  0  0  0  0  0
   -0.4320    0.3410    2.1090 O   0  0  0  0  0  0  0  0  0  0  0  0
   -2.3120   -0.4480    0.8210 C   0  0  1  0  0  0  0  0  0  0  0  0
   -3.2660    0.0470   -0.0910 O   0  0  0  0  0  0  0  0  0  0  0  0
   -1.7950   -1.7050    0.2880 C   0  0  1  0  0  0  0  0  0  0  0  0
   -1.4500   -1.7350   -1.1890 C   0  0  0  0  0  0  0  0  0  0  0  0
   -0.9700   -3.0070   -1.5130 O   0  0  0  0  0  0  0  0  0  0  0  0
   -0.8070   -2.4610    1.0340 C   0  0  0  0  0  0  0  0  0  0  0  0
    0.5060   -2.3890    1.1110 C   0  0  0  0  0  0  0  0  0  0  0  0
    1.3800   -1.5590    0.4980 O   0  0  0  0  0  0  0  0  0  0  0  0
    2.0390   -1.4750   -0.6980 C   0  0  0  0  0  0  0  0  0  0  0  0
    2.2480   -0.0610   -1.2020 C   0  0  2  0  0  0  0  0  0  0  0  0
    3.3160   -0.0620   -2.1090 O   0  0  0  0  0  0  0  0  0  0  0  0
    2.6070    0.8830   -0.0780 C   0  0  0  0  0  0  0  0  0  0  0  0
    2.7410    2.2050   -0.5000 O   0  0  0  0  0  0  0  0  0  0  0  0
  1  2  2  0
  2  3  1  0
  2 21  1  0
  3  4  1  0
  4  5  1  0
  5  6  1  1
  5  7  1  0
  7  8  1  6
  7  9  1  0
  9 10  1  6
  9 11  1  0
 11 12  1  6
 11 14  1  0
 12 13  1  0
 14 15  2  0
 15 16  1  0
 16 17  1  0
 17 18  1  0
 18 19  1  6
 18 20  1  0
 20 21  1  0
M  END
