
     RDKit          3D

 21 21  0  0  0  0  0  0  0  0999 V2000
   -3.7940    0.5850   -1.7320 O   0  0  0  0  0  0  0  0  0  0  0  0
   -3.7070    0.7990   -0.3660 C   0  0  0  0  0  0  0  0  0  0  0  0
   -2.6700   -0.2000    0.1720 C   0  0  2  0  0  0  0  0  0  0  0  0
   -3.2620   -1.4540   -0.1680 O   0  0  0  0  0  0  0  0  0  0  0  0
   -2.6320   -0.1880    1.6590 C   0  0  0  0  0  0  0  0  0  0  0  0
   -1.8890   -1.2410    2.1660 O   0  0  0  0  0  0  0  0  0  0  0  0
   -1.3860   -0.1680   -0.5560 C   0  0  2  0  0  0  0  0  0  0  0  0
   -0.4330   -1.1720    0.0280 C   0  0  0  0  0  0  0  0  0  0  0  0
    0.5400   -1.5490   -0.9340 O   0  0  0  0  0  0  0  0  0  0  0  0
    1.3300   -2.5040   -0.3520 C   0  0  0  0  0  0  0  0  0  0  0  0
    2.7590   -2.4760   -0.8320 C   0  0  0  0  0  0  0  0  0  0  0  0
    3.2770   -1.2000   -0.9070 O   0  0  0  0  0  0  0  0  0  0  0  0
    3.3500   -0.5410    0.2980 C   0  0  0  0  0  0  0  0  0  0  0  0
    3.5670    0.9380   -0.0110 C   0  0  2  0  0  0  0  0  0  0  0  0
    4.3550    1.5010    0.9960 O   0  0  0  0  0  0  0  0  0  0  0  0
    2.2860    1.6730   -0.2370 C   0  0  0  0  0  0  0  0  0  0  0  0
    1.2630    1.0790    0.5110 O   0  0  0  0  0  0  0  0  0  0  0  0
    0.0490    1.7280    0.3140 C   0  0  1  0  0  0  0  0  0  0  0  0
    0.3910    3.0470   -0.0730 O   0  0  0  0  0  0  0  0  0  0  0  0
   -0.7540    1.1620   -0.8070 C   0  0  2  0  0  0  0  0  0  0  0  0
   -1.6210    2.1440   -1.2690 O   0  0  0  0  0  0  0  0  0  0  0  0
  1  2  1  0
  2  3  1  0
  3  4  1  1
  3  5  1  0
  3  7  1  0
  5  6  1  0
  7  8  1  1
  7 20  1  0
  8  9  1  0
  9 10  1  0
 10 11  1  0
 11 12  1  0
 12 13  1  0
 13 14  1  0
 14 15  1  1
 14 16  1  0
 16 17  1  0
 17 18  1  0
 18 19  1  6
 18 20  1  0
 20 21  1  1
M  END
