
     RDKit          3D

 22 22  0  0  0  0  0  0  0  0999 V2000
   -3.7990    0.5060   -1.1510 C   0  0  0  0  0  0  0  0  0  0  0  0
   -3.2650    0.1810    0.2210 C   0  0  2  0  0  0  0  0  0  0  0  0
   -4.4030   -0.4000    1.0480 C   0  0  0  0  0  0  0  0  0  0  0  0
   -4.9170   -1.5580    0.4770 O   0  0  0  0  0  0  0  0  0  0  0  0
   -2.8410    1.4570    0.8730 C   0  0  0  0  0  0  0  0  0  0  0  0
   -2.3280    1.2770    2.1550 O   0  0  0  0  0  0  0  0  0  0  0  0
   -2.1740   -0.8570    0.1810 C   0  0  2  0  0  0  0  0  0  0  0  0
   -1.7360   -1.1040    1.4440 O   0  0  0  0  0  0  0  0  0  0  0  0
   -0.3620   -1.0440    1.4790 C   0  0  0  0  0  0  0  0  0  0  0  0
    0.0860   -0.2330    0.2870 C   0  0  1  0  0  0  0  0  0  0  0  0
    1.3150   -0.6800   -0.1640 O   0  0  0  0  0  0  0  0  0  0  0  0
    2.1890    0.3680   -0.2110 C   0  0  2  0  0  0  0  0  0  0  0  0
    2.6310    0.6370   -1.5120 O   0  0  0  0  0  0  0  0  0  0  0  0
    3.3930    0.2030    0.6890 C   0  0  2  0  0  0  0  0  0  0  0  0
    4.1610    1.3380    0.5200 O   0  0  0  0  0  0  0  0  0  0  0  0
    4.1810   -1.0160    0.4150 C   0  0  0  0  0  0  0  0  0  0  0  0
    4.6830   -1.1200   -0.8760 O   0  0  0  0  0  0  0  0  0  0  0  0
    5.5870   -0.3280   -1.5020 C   0  0  0  0  0  0  0  0  0  0  0  0
    6.0940    0.6420   -0.9160 O   0  0  0  0  0  0  0  0  0  0  0  0
    6.0060   -0.5450   -2.8300 O   0  0  0  0  0  0  0  0  0  0  0  0
   -1.0280   -0.4940   -0.6930 C   0  0  2  0  0  0  0  0  0  0  0  0
   -1.3270    0.5890   -1.4830 O   0  0  0  0  0  0  0  0  0  0  0  0
  2  1  1  6
  2  3  1  0
  2  5  1  0
  2  7  1  0
  3  4  1  0
  5  6  1  0
  7  8  1  1
  7 21  1  0
  8  9  1  0
  9 10  1  0
 10 11  1  6
 10 21  1  0
 11 12  1  0
 12 13  1  6
 12 14  1  0
 14 15  1  6
 14 16  1  0
 16 17  1  0
 17 18  1  0
 18 19  2  0
 18 20  1  0
 21 22  1  1
M  END
