
     RDKit          3D

 23 25  0  0  0  0  0  0  0  0999 V2000
   -0.0470    2.5510   -2.4030 O   0  0  0  0  0  0  0  0  0  0  0  0
   -0.1070    1.8630   -1.3250 C   0  0  0  0  0  0  0  0  0  0  0  0
   -1.3690    1.9530   -0.5330 N   0  0  0  0  0  0  0  0  0  0  0  0
   -1.6790    0.6770   -0.1560 C   0  0  0  0  0  0  0  0  0  0  0  0
   -2.8990    0.0860    0.1540 C   0  0  0  0  0  0  0  0  0  0  0  0
   -3.0150   -0.8880    1.1410 C   0  0  0  0  0  0  0  0  0  0  0  0
   -4.1940   -1.4460    1.4190 N   0  0  0  0  0  0  0  0  0  0  0  0
   -5.3400   -1.1320    0.7950 C   0  0  0  0  0  0  0  0  0  0  0  0
   -5.2570   -0.1950   -0.1610 N   0  0  0  0  0  0  0  0  0  0  0  0
   -4.1080    0.3930   -0.4780 C   0  0  0  0  0  0  0  0  0  0  0  0
   -4.0100    1.3740   -1.4770 O   0  0  0  0  0  0  0  0  0  0  0  0
   -0.4890   -0.0290   -0.2280 N   0  0  0  0  0  0  0  0  0  0  0  0
    0.2080   -1.0560   -0.8770 N   0  0  0  0  0  0  0  0  0  0  0  0
    1.1680   -0.3240   -1.5440 C   0  0  0  0  0  0  0  0  0  0  0  0
    1.0830    1.0630   -0.9920 C   0  0  2  0  0  0  0  0  0  0  0  0
    0.6940    0.5710    0.4710 C   0  0  2  0  0  0  0  0  0  0  0  0
    1.6660   -0.4260    0.8810 C   0  0  0  0  0  0  0  0  0  0  0  0
    1.5530   -1.6800    0.7130 O   0  0  0  0  0  0  0  0  0  0  0  0
    2.8410   -0.0250    1.5180 O   0  0  0  0  0  0  0  0  0  0  0  0
    3.7410   -0.9350    1.8980 O   0  0  0  0  0  0  0  0  0  0  0  0
    4.9680   -0.9690    0.6500 P   0  0  0  0  0  0  0  0  0  0  0  0
    6.2710   -1.9950    1.0860 O   0  0  0  0  0  0  0  0  0  0  0  0
    5.4980    0.6600    0.4020 O   0  0  0  0  0  0  0  0  0  0  0  0
  1  2  2  0
  2  3  1  0
  2 15  1  0
  3  4  2  0
  4  5  1  0
  4 12  1  0
  5  6  2  0
  5 10  1  0
  6  7  1  0
  7  8  2  0
  8  9  1  0
  9 10  2  0
 10 11  1  0
 12 13  1  0
 12 16  1  0
 13 14  2  0
 15 14  1  6
 15 16  1  0
 16 17  1  6
 17 18  2  0
 17 19  1  0
 19 20  1  0
 20 21  1  0
 21 22  1  0
 21 23  1  0
M  END
