
     RDKit          3D

 23 25  0  0  0  0  0  0  0  0999 V2000
   -6.9640   -0.4660   -0.9490 O   0  0  0  0  0  0  0  0  0  0  0  0
   -5.8120   -0.0100   -0.6740 C   0  0  0  0  0  0  0  0  0  0  0  0
   -5.7090    1.3080   -0.1540 N   0  0  0  0  0  0  0  0  0  0  0  0
   -4.4180    1.8060    0.1500 C   0  0  0  0  0  0  0  0  0  0  0  0
   -4.2730    2.9750    0.6160 O   0  0  0  0  0  0  0  0  0  0  0  0
   -3.2580    0.9710   -0.0750 N   0  0  0  0  0  0  0  0  0  0  0  0
   -3.3450   -0.3430   -0.5930 C   0  0  0  0  0  0  0  0  0  0  0  0
   -2.3090   -1.1250   -0.8180 C   0  0  0  0  0  0  0  0  0  0  0  0
   -0.9530   -0.6840   -0.5430 C   0  0  0  0  0  0  0  0  0  0  0  0
   -0.4040    0.5220   -0.7720 N   0  0  0  0  0  0  0  0  0  0  0  0
    0.8540    0.5360   -0.3860 N   0  0  0  0  0  0  0  0  0  0  0  0
    1.1110   -0.6750    0.0950 C   0  0  0  0  0  0  0  0  0  0  0  0
    2.4120   -1.1040    0.6400 C   0  0  0  0  0  0  0  0  0  0  0  0
    2.6170   -2.3960    1.1280 C   0  0  0  0  0  0  0  0  0  0  0  0
    3.8460   -2.4490    1.5310 O   0  0  0  0  0  0  0  0  0  0  0  0
    4.4700   -1.3220    1.3560 C   0  0  0  0  0  0  0  0  0  0  0  0
    3.5820   -0.4190    0.7810 C   0  0  0  0  0  0  0  0  0  0  0  0
    3.7940    0.8890    0.4190 O   0  0  0  0  0  0  0  0  0  0  0  0
    5.3340    1.7070    0.6350 P   0  0  0  0  0  0  0  0  0  0  0  0
    5.2750    3.2010   -0.2400 O   0  0  0  0  0  0  0  0  0  0  0  0
    6.6680    0.7930    0.0280 O   0  0  0  0  0  0  0  0  0  0  0  0
    0.0250   -1.3940   -0.0040 O   0  0  0  0  0  0  0  0  0  0  0  0
   -4.6780   -0.8280   -0.8950 N   0  0  0  0  0  0  0  0  0  0  0  0
  1  2  2  0
  2  3  1  0
  2 23  1  0
  3  4  1  0
  4  5  2  0
  4  6  1  0
  6  7  1  0
  7  8  2  3
  7 23  1  0
  8  9  1  0
  9 10  2  0
  9 22  1  0
 10 11  1  0
 11 12  2  0
 12 13  1  0
 12 22  1  0
 13 14  2  0
 13 17  1  0
 14 15  1  0
 15 16  1  0
 16 17  2  0
 17 18  1  0
 18 19  1  0
 19 20  1  0
 19 21  1  0
M  END
