
     RDKit          3D

 23 25  0  0  0  0  0  0  0  0999 V2000
   -4.2020    0.1200    2.3820 C   0  0  0  0  0  0  0  0  0  0  0  0
   -3.2950   -0.8510    2.0070 O   0  0  0  0  0  0  0  0  0  0  0  0
   -2.5490   -0.4810    0.9190 C   0  0  1  0  0  0  0  0  0  0  0  0
   -3.3500   -0.2020   -0.3130 C   0  0  0  0  0  0  0  0  0  0  0  0
   -3.2430   -0.8310   -1.4500 N   0  0  0  0  0  0  0  0  0  0  0  0
   -4.1350   -0.3180   -2.3740 O   0  0  0  0  0  0  0  0  0  0  0  0
   -5.1390    0.2770   -1.5670 C   0  0  0  0  0  0  0  0  0  0  0  0
   -4.3400    0.7480   -0.4980 O   0  0  0  0  0  0  0  0  0  0  0  0
   -1.6450    0.6850    1.2810 C   0  0  0  0  0  0  0  0  0  0  0  0
   -0.4980    0.4450    0.4440 N   0  0  0  0  0  0  0  0  0  0  0  0
   -0.4260   -0.9320    0.1620 C   0  0  0  0  0  0  0  0  0  0  0  0
    0.5720   -1.5870   -0.4290 C   0  0  0  0  0  0  0  0  0  0  0  0
    1.7380   -0.8410   -0.8470 C   0  0  0  0  0  0  0  0  0  0  0  0
    2.4580   -1.0420   -1.9570 N   0  0  0  0  0  0  0  0  0  0  0  0
    3.4180   -0.1830   -1.9690 O   0  0  0  0  0  0  0  0  0  0  0  0
    3.3540    0.5720   -0.9070 C   0  0  0  0  0  0  0  0  0  0  0  0
    4.2680    1.6700   -0.5500 C   0  0  0  0  0  0  0  0  0  0  0  0
    5.0110    1.3300    0.5610 O   0  0  0  0  0  0  0  0  0  0  0  0
    5.9790   -0.0650    0.3950 P   0  0  0  0  0  0  0  0  0  0  0  0
    7.5250    0.1960   -0.2940 O   0  0  0  0  0  0  0  0  0  0  0  0
    5.1590   -1.4460   -0.1960 O   0  0  0  0  0  0  0  0  0  0  0  0
    2.2950    0.1710   -0.1840 N   0  0  0  0  0  0  0  0  0  0  0  0
   -1.6120   -1.5500    0.6150 N   0  0  0  0  0  0  0  0  0  0  0  0
  1  2  1  0
  3  2  1  1
  3  4  1  0
  3  9  1  0
  3 23  1  0
  4  5  2  0
  4  8  1  0
  5  6  1  0
  6  7  1  0
  7  8  1  0
  9 10  1  0
 10 11  1  0
 11 12  2  3
 11 23  1  0
 12 13  1  0
 13 14  2  0
 13 22  1  0
 14 15  1  0
 15 16  1  0
 16 17  1  0
 16 22  2  0
 17 18  1  0
 18 19  1  0
 19 20  1  0
 19 21  1  0
M  END
