
     RDKit          3D

 23 24  0  0  0  0  0  0  0  0999 V2000
   -2.4180    4.8180    1.7610 N   0  0  0  0  0  0  0  0  0  0  0  0
   -2.3880    3.4300    1.9370 N   0  0  0  0  0  0  0  0  0  0  0  0
   -1.7280    2.5730    0.9820 C   0  0  0  0  0  0  0  0  0  0  0  0
   -0.8470    3.0920    0.2170 N   0  0  0  0  0  0  0  0  0  0  0  0
   -0.1650    2.2830   -0.7410 C   0  0  0  0  0  0  0  0  0  0  0  0
   -0.4170    1.0060   -0.8590 C   0  0  0  0  0  0  0  0  0  0  0  0
    0.3360    0.3370   -1.8580 O   0  0  0  0  0  0  0  0  0  0  0  0
    1.5890   -0.1360   -1.6670 C   0  0  0  0  0  0  0  0  0  0  0  0
    2.1610    0.0150   -0.5570 O   0  0  0  0  0  0  0  0  0  0  0  0
    2.3300   -0.8280   -2.7030 N   0  0  0  0  0  0  0  0  0  0  0  0
    3.6570   -1.3260   -2.4920 C   0  0  0  0  0  0  0  0  0  0  0  0
    4.1130   -1.9410   -3.6550 O   0  0  0  0  0  0  0  0  0  0  0  0
   -1.3900    0.3460   -0.0310 C   0  0  1  0  0  0  0  0  0  0  0  0
   -0.9430   -0.9030    0.5670 N   0  0  0  0  0  0  0  0  0  0  0  0
   -0.0050   -0.8110    1.6490 C   0  0  0  0  0  0  0  0  0  0  0  0
    0.9290   -2.0220    1.7290 C   0  0  0  0  0  0  0  0  0  0  0  0
    0.2100   -3.2110    2.2210 C   0  0  0  0  0  0  0  0  0  0  0  0
    0.6390   -3.7180    3.2850 O   0  0  0  0  0  0  0  0  0  0  0  0
   -0.8780   -3.8220    1.6370 O   0  0  0  0  0  0  0  0  0  0  0  0
   -1.5520   -3.3930    0.5090 O   0  0  0  0  0  0  0  0  0  0  0  0
   -1.5240   -2.0640    0.0280 C   0  0  0  0  0  0  0  0  0  0  0  0
   -2.1460   -1.9830   -1.0760 O   0  0  0  0  0  0  0  0  0  0  0  0
   -2.1230    1.1810    0.9360 C   0  0  0  0  0  0  0  0  0  0  0  0
  1  2  1  0
  2  3  1  0
  3  4  2  0
  3 23  1  0
  4  5  1  0
  5  6  2  0
  6  7  1  0
  6 13  1  0
  7  8  1  0
  8  9  2  0
  8 10  1  0
 10 11  1  0
 11 12  1  0
 13 14  1  1
 13 23  1  0
 14 15  1  0
 14 21  1  0
 15 16  1  0
 16 17  1  0
 17 18  2  0
 17 19  1  0
 19 20  1  0
 20 21  1  0
 21 22  2  0
M  END
