
     RDKit          3D

 23 24  0  0  0  0  0  0  0  0999 V2000
   -2.1650   -1.2830    0.5650 O   0  0  0  0  0  0  0  0  0  0  0  0
   -1.6950   -0.2330    0.6200 C   0  0  0  0  0  0  0  0  0  0  0  0
   -0.3490    0.2440    0.7010 C   0  0  0  0  0  0  0  0  0  0  0  0
    0.6120   -0.8460    0.3350 N   0  0  0  0  0  0  0  0  0  0  0  0
    0.4090   -0.8340   -1.1520 C   0  0  0  0  0  0  0  0  0  0  0  0
    1.0590    0.3880   -1.7160 C   0  0  0  0  0  0  0  0  0  0  0  0
    2.1190    0.9810   -1.1000 O   0  0  0  0  0  0  0  0  0  0  0  0
    2.1460    1.0010    0.2610 C   0  0  0  0  0  0  0  0  0  0  0  0
    1.9070   -0.4400    0.6790 C   0  0  2  0  0  0  0  0  0  0  0  0
    2.9810   -1.3230    0.1660 C   0  0  1  0  0  0  0  0  0  0  0  0
    2.8750   -1.5960   -1.2090 O   0  0  0  0  0  0  0  0  0  0  0  0
    4.3380   -0.5960    0.2700 C   0  0  0  0  0  0  0  0  0  0  0  0
    4.7100    0.3340   -0.6830 N   0  0  0  0  0  0  0  0  0  0  0  0
    5.9500    0.7990   -0.3040 C   0  0  0  0  0  0  0  0  0  0  0  0
    6.2210    0.1710    0.7670 O   0  0  0  0  0  0  0  0  0  0  0  0
    5.2870   -0.6630    1.1420 N   0  0  0  0  0  0  0  0  0  0  0  0
   -2.8460    1.0790    0.5490 N   0  0  0  0  0  0  0  0  0  0  0  0
   -4.0090    0.2550    0.5840 C   0  0  0  0  0  0  0  0  0  0  0  0
   -4.2320   -0.8550    0.9720 O   0  0  0  0  0  0  0  0  0  0  0  0
   -5.1080    1.0760   -0.0330 N   0  0  0  0  0  0  0  0  0  0  0  0
   -6.7270    0.4380   -0.1750 P   0  0  0  0  0  0  0  0  0  0  0  0
   -7.4970    0.9330   -1.6930 O   0  0  0  0  0  0  0  0  0  0  0  0
   -6.9030   -1.2550    0.0180 O   0  0  0  0  0  0  0  0  0  0  0  0
  1  2  2  0
  2  3  1  0
  2 17  1  0
  3  4  1  0
  4  5  1  0
  4  9  1  0
  5  6  1  0
  6  7  1  0
  7  8  1  0
  9  8  1  6
  9 10  1  0
 10 11  1  6
 10 12  1  0
 12 13  1  0
 12 16  2  0
 13 14  2  0
 14 15  1  0
 15 16  1  0
 17 18  1  0
 18 19  2  0
 18 20  1  0
 20 21  1  0
 21 22  1  0
 21 23  1  0
M  END
