
     RDKit          3D

 23 24  0  0  0  0  0  0  0  0999 V2000
   -4.8190    1.0460    0.4910 C   0  0  0  0  0  0  0  0  0  0  0  0
   -3.5590    1.7950    0.7420 C   0  0  0  0  0  0  0  0  0  0  0  0
   -2.4710    1.5850    0.0820 N   0  0  0  0  0  0  0  0  0  0  0  0
   -2.3740    0.6140   -0.9500 C   0  0  0  0  0  0  0  0  0  0  0  0
   -3.0750    0.6240   -2.0230 N   0  0  0  0  0  0  0  0  0  0  0  0
   -2.7940   -0.4120   -2.8450 O   0  0  0  0  0  0  0  0  0  0  0  0
   -1.8100   -1.1810   -2.2530 C   0  0  0  0  0  0  0  0  0  0  0  0
   -1.3520   -2.2110   -2.7630 O   0  0  0  0  0  0  0  0  0  0  0  0
   -1.4440   -0.5590   -0.9710 C   0  0  2  0  0  0  0  0  0  0  0  0
   -1.7160   -1.4690    0.1860 C   0  0  0  0  0  0  0  0  0  0  0  0
   -1.1290   -1.0160    1.4150 N   0  0  0  0  0  0  0  0  0  0  0  0
   -0.4730    0.2420    1.4330 C   0  0  0  0  0  0  0  0  0  0  0  0
   -0.4100    0.9040    2.5040 O   0  0  0  0  0  0  0  0  0  0  0  0
    0.1230    0.7700    0.2350 N   0  0  0  0  0  0  0  0  0  0  0  0
   -0.0120   -0.0090   -0.9630 C   0  0  1  0  0  0  0  0  0  0  0  0
    0.9390   -1.1340   -1.0240 C   0  0  0  0  0  0  0  0  0  0  0  0
    2.2940   -0.8930   -1.0500 O   0  0  0  0  0  0  0  0  0  0  0  0
    3.1050   -0.3320   -0.1250 C   0  0  0  0  0  0  0  0  0  0  0  0
    2.6150    0.0480    0.9660 O   0  0  0  0  0  0  0  0  0  0  0  0
    4.5280   -0.1540   -0.3490 N   0  0  0  0  0  0  0  0  0  0  0  0
    5.4940    0.5990    0.9470 P   0  0  0  0  0  0  0  0  0  0  0  0
    6.9400   -0.3050    1.2790 O   0  0  0  0  0  0  0  0  0  0  0  0
    5.8740    2.2520    0.5080 O   0  0  0  0  0  0  0  0  0  0  0  0
  1  2  1  0
  2  3  2  3
  3  4  1  0
  4  5  2  0
  4  9  1  0
  5  6  1  0
  6  7  1  0
  7  8  2  0
  7  9  1  0
  9 10  1  1
  9 15  1  0
 10 11  1  0
 11 12  1  0
 12 13  2  0
 12 14  1  0
 14 15  1  0
 15 16  1  1
 16 17  1  0
 17 18  1  0
 18 19  2  0
 18 20  1  0
 20 21  1  0
 21 22  1  0
 21 23  1  0
M  END
