
     RDKit          3D

 23 24  0  0  0  0  0  0  0  0999 V2000
   -5.8350    1.9430    0.2750 O   0  0  0  0  0  0  0  0  0  0  0  0
   -4.7060    2.4020   -0.0760 C   0  0  0  0  0  0  0  0  0  0  0  0
   -4.6570    3.6820   -0.5880 O   0  0  0  0  0  0  0  0  0  0  0  0
   -3.5620    1.5630    0.0820 N   0  0  0  0  0  0  0  0  0  0  0  0
   -3.6480    0.2480    0.6120 C   0  0  0  0  0  0  0  0  0  0  0  0
   -4.7450   -0.2250    0.9640 O   0  0  0  0  0  0  0  0  0  0  0  0
   -2.4210   -0.5490    0.7400 C   0  0  2  0  0  0  0  0  0  0  0  0
   -1.8210   -0.9170   -0.6030 C   0  0  0  0  0  0  0  0  0  0  0  0
   -0.8750   -1.9410   -0.1990 N   0  0  0  0  0  0  0  0  0  0  0  0
    0.4200   -2.1430   -0.7910 C   0  0  0  0  0  0  0  0  0  0  0  0
    1.4860   -1.3630   -0.1250 C   0  0  0  0  0  0  0  0  0  0  0  0
    2.1820   -1.8900    0.9190 N   0  0  0  0  0  0  0  0  0  0  0  0
    3.1510   -1.2200    1.5470 C   0  0  0  0  0  0  0  0  0  0  0  0
    3.4860    0.0550    1.1510 C   0  0  0  0  0  0  0  0  0  0  0  0
    2.7880    0.5950    0.0970 C   0  0  0  0  0  0  0  0  0  0  0  0
    3.1400    1.8910   -0.2930 O   0  0  0  0  0  0  0  0  0  0  0  0
    4.4820    2.0930   -1.3990 P   0  0  0  0  0  0  0  0  0  0  0  0
    5.5160    3.4010   -0.9150 O   0  0  0  0  0  0  0  0  0  0  0  0
    5.3930    0.6250   -1.5680 O   0  0  0  0  0  0  0  0  0  0  0  0
    1.8300   -0.1160   -0.4950 N   0  0  0  0  0  0  0  0  0  0  0  0
   -1.5260   -2.6380    0.8580 C   0  0  0  0  0  0  0  0  0  0  0  0
   -1.1240   -3.7500    1.2970 O   0  0  0  0  0  0  0  0  0  0  0  0
   -2.6600   -1.8680    1.2960 N   0  0  0  0  0  0  0  0  0  0  0  0
  1  2  2  0
  2  3  1  0
  2  4  1  0
  4  5  1  0
  5  6  2  0
  7  5  1  6
  7  8  1  0
  7 23  1  0
  8  9  1  0
  9 10  1  0
  9 21  1  0
 10 11  1  0
 11 12  2  0
 11 20  1  0
 12 13  1  0
 13 14  2  0
 14 15  1  0
 15 16  1  0
 15 20  2  0
 16 17  1  0
 17 18  1  0
 17 19  1  0
 21 22  2  0
 21 23  1  0
M  END
