
     RDKit          3D

 28 31  0  0  0  0  0  0  0  0999 V2000
   -7.9860   -0.7240    1.0010 C   0  0  0  0  0  0  0  0  0  0  0  0
   -6.7520   -0.1450    0.3910 C   0  0  0  0  0  0  0  0  0  0  0  0
   -6.7560    1.1800   -0.0000 C   0  0  0  0  0  0  0  0  0  0  0  0
   -5.6250    1.7330   -0.5670 C   0  0  0  0  0  0  0  0  0  0  0  0
   -5.6700    3.0370   -0.9360 F   0  0  0  0  0  0  0  0  0  0  0  0
   -4.4940    0.9610   -0.7410 C   0  0  0  0  0  0  0  0  0  0  0  0
   -4.4570   -0.3510   -0.3660 C   0  0  0  0  0  0  0  0  0  0  0  0
   -3.3480   -1.2020   -0.5090 N   0  0  0  0  0  0  0  0  0  0  0  0
   -3.2860   -2.5040   -0.7830 N   0  0  0  0  0  0  0  0  0  0  0  0
   -2.0260   -2.8860   -0.8210 N   0  0  0  0  0  0  0  0  0  0  0  0
   -1.1980   -1.8060   -0.5630 C   0  0  0  0  0  0  0  0  0  0  0  0
    0.1220   -1.5830   -0.4710 C   0  0  0  0  0  0  0  0  0  0  0  0
    0.5540   -0.3160   -0.1870 C   0  0  0  0  0  0  0  0  0  0  0  0
    1.8760    0.2220   -0.0280 C   0  0  0  0  0  0  0  0  0  0  0  0
    2.0300    1.4310    0.2340 O   0  0  0  0  0  0  0  0  0  0  0  0
    2.9810   -0.5890   -0.1620 O   0  0  0  0  0  0  0  0  0  0  0  0
    4.2740   -0.1230   -0.0190 C   0  0  0  0  0  0  0  0  0  0  0  0
    4.9880    0.3680   -1.1140 C   0  0  0  0  0  0  0  0  0  0  0  0
    6.2770    0.8290   -0.9530 C   0  0  0  0  0  0  0  0  0  0  0  0
    6.9780    1.3090   -2.0160 F   0  0  0  0  0  0  0  0  0  0  0  0
    6.9060    0.8250    0.2740 C   0  0  0  0  0  0  0  0  0  0  0  0
    8.3110    1.3310    0.4320 C   0  0  0  0  0  0  0  0  0  0  0  0
    6.1950    0.3390    1.3520 C   0  0  0  0  0  0  0  0  0  0  0  0
    4.9050   -0.1260    1.2060 C   0  0  0  0  0  0  0  0  0  0  0  0
    4.2550   -0.5990    2.3370 O   0  0  0  0  0  0  0  0  0  0  0  0
   -0.9800    0.6080   -0.0430 S   0  0  0  0  0  0  0  0  0  0  0  0
   -2.0660   -0.7630   -0.3720 C   0  0  0  0  0  0  0  0  0  0  0  0
   -5.6080   -0.8910    0.2040 C   0  0  0  0  0  0  0  0  0  0  0  0
  1  2  1  0
  2  3  2  0
  2 28  1  0
  3  4  1  0
  4  5  1  0
  4  6  2  0
  6  7  1  0
  7  8  1  0
  7 28  2  0
  8  9  1  0
  8 27  1  0
  9 10  2  0
 10 11  1  0
 11 12  1  0
 11 27  2  0
 12 13  2  0
 13 14  1  0
 13 26  1  0
 14 15  2  0
 14 16  1  0
 16 17  1  0
 17 18  2  0
 17 24  1  0
 18 19  1  0
 19 20  1  0
 19 21  2  0
 21 22  1  0
 21 23  1  0
 23 24  2  0
 24 25  1  0
 26 27  1  0
M  END
