
     RDKit          3D

 28 31  0  0  0  0  0  0  0  0999 V2000
    5.4350    1.1800   -0.9250 C   0  0  0  0  0  0  0  0  0  0  0  0
    6.2340   -0.0710   -0.9490 C   0  0  0  0  0  0  0  0  0  0  0  0
    5.5120   -1.3460   -0.7610 C   0  0  0  0  0  0  0  0  0  0  0  0
    4.8110   -1.6080    0.5110 C   0  0  0  0  0  0  0  0  0  0  0  0
    3.7790   -0.6630    0.8930 N   0  0  0  0  0  0  0  0  0  0  0  0
    4.1580    0.3220    1.7390 C   0  0  0  0  0  0  0  0  0  0  0  0
    5.3430    0.3950    2.1800 O   0  0  0  0  0  0  0  0  0  0  0  0
    2.9250    1.4150    2.1420 S   0  0  0  0  0  0  0  0  0  0  0  0
    1.4210    1.0470    1.3850 C   0  0  0  0  0  0  0  0  0  0  0  0
    0.1850    1.5750    1.3730 N   0  0  0  0  0  0  0  0  0  0  0  0
   -0.6360    0.8350    0.5650 C   0  0  0  0  0  0  0  0  0  0  0  0
   -2.0350    1.1470    0.3030 C   0  0  0  0  0  0  0  0  0  0  0  0
   -2.3240    2.3590    0.1400 O   0  0  0  0  0  0  0  0  0  0  0  0
   -3.0420    0.1640    0.2290 N   0  0  0  0  0  0  0  0  0  0  0  0
   -2.8760   -1.1570    0.4040 C   0  0  0  0  0  0  0  0  0  0  0  0
   -4.0670   -1.8370    0.2460 C   0  0  0  0  0  0  0  0  0  0  0  0
   -4.9970   -0.8880   -0.0370 C   0  0  0  0  0  0  0  0  0  0  0  0
   -4.3620    0.3430   -0.0460 C   0  0  0  0  0  0  0  0  0  0  0  0
   -5.0870    1.4150   -0.3020 C   0  0  0  0  0  0  0  0  0  0  0  0
   -6.5400    1.4360   -0.5860 C   0  0  0  0  0  0  0  0  0  0  0  0
   -7.1880    0.0950   -0.5700 C   0  0  2  0  0  0  0  0  0  0  0  0
   -7.8190   -0.1500   -1.7880 F   0  0  0  0  0  0  0  0  0  0  0  0
   -8.1980    0.1050    0.4070 F   0  0  0  0  0  0  0  0  0  0  0  0
   -6.2840   -1.0200   -0.2740 C   0  0  0  0  0  0  0  0  0  0  0  0
    0.1510   -0.1760    0.0750 C   0  0  0  0  0  0  0  0  0  0  0  0
    1.4560   -0.0680    0.5770 C   0  0  0  0  0  0  0  0  0  0  0  0
    2.5730   -0.8380    0.3740 C   0  0  0  0  0  0  0  0  0  0  0  0
    2.4040   -1.8410   -0.4180 O   0  0  0  0  0  0  0  0  0  0  0  0
  1  2  1  0
  2  3  1  0
  3  4  1  0
  4  5  1  0
  5  6  1  0
  5 27  1  0
  6  7  2  0
  6  8  1  0
  8  9  1  0
  9 10  1  0
  9 26  2  0
 10 11  1  0
 11 12  1  0
 11 25  2  0
 12 13  2  0
 12 14  1  0
 14 15  1  0
 14 18  1  0
 15 16  2  0
 16 17  1  0
 17 18  1  0
 17 24  2  0
 18 19  2  0
 19 20  1  0
 20 21  1  0
 21 22  1  6
 21 23  1  0
 21 24  1  0
 25 26  1  0
 26 27  1  0
 27 28  2  0
M  END
