
     RDKit          3D

 29 30  0  0  0  0  0  0  0  0999 V2000
    5.9270    2.7030   -0.9390 C   0  0  0  0  0  0  0  0  0  0  0  0
    4.8230    1.8000   -0.4590 C   0  0  0  0  0  0  0  0  0  0  0  0
    4.9030    1.2820    0.7330 C   0  0  0  0  0  0  0  0  0  0  0  0
    4.0340    0.4080    1.4490 C   0  0  0  0  0  0  0  0  0  0  0  0
    2.9490   -0.1440    1.1570 N   0  0  0  0  0  0  0  0  0  0  0  0
    2.1300   -0.1360   -0.0100 C   0  0  1  0  0  0  0  0  0  0  0  0
    2.7520   -0.7860   -1.2440 C   0  0  0  0  0  0  0  0  0  0  0  0
    0.7700   -0.6960    0.2350 C   0  0  0  0  0  0  0  0  0  0  0  0
    0.6610   -1.9720    0.5020 C   0  0  0  0  0  0  0  0  0  0  0  0
    1.8370   -2.8720    0.5730 C   0  0  2  0  0  0  0  0  0  0  0  0
    1.5340   -4.0800   -0.3060 C   0  0  0  0  0  0  0  0  0  0  0  0
    1.7920   -3.4570    2.0050 C   0  0  0  0  0  0  0  0  0  0  0  0
   -0.6330   -2.6870    0.7600 C   0  0  0  0  0  0  0  0  0  0  0  0
   -1.8440   -1.8450    0.7190 C   0  0  0  0  0  0  0  0  0  0  0  0
   -1.6300   -0.4290    0.4130 C   0  0  0  0  0  0  0  0  0  0  0  0
   -2.8530    0.3500    0.3780 N   0  0  0  0  0  0  0  0  0  0  0  0
   -3.3950    0.9880    1.4020 N   0  0  0  0  0  0  0  0  0  0  0  0
   -4.5470    1.5610    0.9740 C   0  0  0  0  0  0  0  0  0  0  0  0
   -5.4420    2.3520    1.7980 C   0  0  0  0  0  0  0  0  0  0  0  0
   -6.4970    2.8440    1.2990 O   0  0  0  0  0  0  0  0  0  0  0  0
   -4.7010    1.2560   -0.3590 C   0  0  0  0  0  0  0  0  0  0  0  0
   -5.8260    1.6820   -1.2240 C   0  0  0  0  0  0  0  0  0  0  0  0
   -3.6060    0.4810   -0.7200 C   0  0  0  0  0  0  0  0  0  0  0  0
   -3.3970   -0.0580   -2.0960 C   0  0  0  0  0  0  0  0  0  0  0  0
   -0.4420    0.1300    0.1850 C   0  0  0  0  0  0  0  0  0  0  0  0
   -0.4170    1.5580   -0.0990 C   0  0  0  0  0  0  0  0  0  0  0  0
    0.5940    2.2480   -0.3290 O   0  0  0  0  0  0  0  0  0  0  0  0
   -1.6360    2.2530   -0.1220 O   0  0  0  0  0  0  0  0  0  0  0  0
   -1.6650    3.6430   -0.3940 C   0  0  0  0  0  0  0  0  0  0  0  0
  1  2  1  0
  2  3  2  3
  3  4  1  0
  4  5  2  3
  5  6  1  0
  6  7  1  6
  6  8  1  0
  8  9  2  0
  8 25  1  0
  9 10  1  0
  9 13  1  0
 10 11  1  6
 10 12  1  0
 13 14  1  0
 14 15  1  0
 15 16  1  0
 15 25  2  0
 16 17  1  0
 16 23  1  0
 17 18  2  0
 18 19  1  0
 18 21  1  0
 19 20  2  0
 21 22  1  0
 21 23  2  0
 23 24  1  0
 25 26  1  0
 26 27  2  0
 26 28  1  0
 28 29  1  0
M  CHG  1   5   1
M  END
