
     RDKit          3D

 25 28  0  0  0  0  0  0  0  0999 V2000
   -4.5590    1.2780    1.9000 C   0  0  0  0  0  0  0  0  0  0  0  0
   -3.4150    0.2870    1.9040 C   0  0  0  0  0  0  0  0  0  0  0  0
   -2.5320    0.5190    0.6720 C   0  0  1  0  0  0  0  0  0  0  0  0
   -2.0680    1.8230    0.7650 O   0  0  0  0  0  0  0  0  0  0  0  0
   -1.0480    2.1660   -0.0710 C   0  0  0  0  0  0  0  0  0  0  0  0
   -0.5830    1.1100   -1.0250 C   0  0  0  0  0  0  0  0  0  0  0  0
   -0.5860   -0.2290   -0.4680 N   0  0  0  0  0  0  0  0  0  0  0  0
    0.0960   -1.2540   -1.1510 C   0  0  0  0  0  0  0  0  0  0  0  0
   -0.5890   -2.2070   -1.8950 C   0  0  0  0  0  0  0  0  0  0  0  0
    0.0660   -3.1830   -2.6080 C   0  0  0  0  0  0  0  0  0  0  0  0
    1.4310   -3.2240   -2.5900 C   0  0  0  0  0  0  0  0  0  0  0  0
    2.1160   -2.2780   -1.8510 C   0  0  0  0  0  0  0  0  0  0  0  0
    1.4730   -1.2930   -1.1280 C   0  0  0  0  0  0  0  0  0  0  0  0
    2.1710   -0.3350   -0.2930 C   0  0  0  0  0  0  0  0  0  0  0  0
    1.9260   -0.3840    1.0440 N   0  0  0  0  0  0  0  0  0  0  0  0
    2.4960    0.4540    1.8840 N   0  0  0  0  0  0  0  0  0  0  0  0
    3.3500    1.4180    1.5370 C   0  0  0  0  0  0  0  0  0  0  0  0
    3.9110    2.2310    2.2960 O   0  0  0  0  0  0  0  0  0  0  0  0
    3.6240    1.4950    0.1610 C   0  0  0  0  0  0  0  0  0  0  0  0
    4.4080    2.3230   -0.5730 C   0  0  0  0  0  0  0  0  0  0  0  0
    4.2930    1.9570   -1.8850 N   0  0  0  0  0  0  0  0  0  0  0  0
    3.4680    0.9340   -1.9880 N   0  0  0  0  0  0  0  0  0  0  0  0
    3.0450    0.6330   -0.7430 C   0  0  0  0  0  0  0  0  0  0  0  0
   -1.3000   -0.3930    0.7750 C   0  0  2  0  0  0  0  0  0  0  0  0
   -1.7110   -1.8120    1.0600 C   0  0  0  0  0  0  0  0  0  0  0  0
  1  2  1  0
  3  2  1  1
  3  4  1  0
  3 24  1  0
  4  5  1  0
  5  6  1  0
  6  7  1  0
  7  8  1  0
  7 24  1  0
  8  9  2  0
  8 13  1  0
  9 10  1  0
 10 11  2  0
 11 12  1  0
 12 13  2  0
 13 14  1  0
 14 15  2  0
 14 23  1  0
 15 16  1  0
 16 17  1  0
 17 18  2  0
 17 19  1  0
 19 20  1  0
 19 23  2  0
 20 21  2  0
 21 22  1  0
 22 23  1  0
 24 25  1  6
M  END
