
     RDKit          3D

 25 27  0  0  0  0  0  0  0  0999 V2000
    1.4090    4.8150    1.6960 C   0  0  0  0  0  0  0  0  0  0  0  0
    0.4830    4.0460    1.1560 C   0  0  0  0  0  0  0  0  0  0  0  0
    0.1110    2.7360    1.7480 C   0  0  0  0  0  0  0  0  0  0  0  0
    0.3340    1.6410    0.8320 N   0  0  0  0  0  0  0  0  0  0  0  0
    1.6910    1.2630    0.4550 C   0  0  0  0  0  0  0  0  0  0  0  0
    1.8840    0.8070   -0.6550 N   0  0  0  0  0  0  0  0  0  0  0  0
    2.6700    0.3020   -1.6270 C   0  0  0  0  0  0  0  0  0  0  0  0
    3.3800   -0.8030   -1.4670 C   0  0  0  0  0  0  0  0  0  0  0  0
    3.4510   -1.6480   -0.2840 C   0  0  0  0  0  0  0  0  0  0  0  0
    4.6550   -1.9020    0.2660 C   0  0  0  0  0  0  0  0  0  0  0  0
    2.2970   -2.3010    0.3830 C   0  0  0  0  0  0  0  0  0  0  0  0
    1.9190   -1.6910    1.6360 N   0  0  0  0  0  0  0  0  0  0  0  0
    0.6210   -1.3360    2.0310 C   0  0  0  0  0  0  0  0  0  0  0  0
    0.5070   -1.0570    3.2920 O   0  0  0  0  0  0  0  0  0  0  0  0
   -0.5380   -1.2480    1.2600 N   0  0  0  0  0  0  0  0  0  0  0  0
   -0.7530   -0.5210    0.0300 C   0  0  2  0  0  0  0  0  0  0  0  0
   -0.8010    0.9460    0.2990 C   0  0  0  0  0  0  0  0  0  0  0  0
   -1.9760    1.3270   -0.0370 N   0  0  0  0  0  0  0  0  0  0  0  0
   -2.8040    0.2980   -0.5310 C   0  0  0  0  0  0  0  0  0  0  0  0
   -2.1160   -0.8110   -0.5090 C   0  0  0  0  0  0  0  0  0  0  0  0
   -2.7200   -2.0560   -0.9680 C   0  0  0  0  0  0  0  0  0  0  0  0
   -2.3040   -3.1610   -0.5740 O   0  0  0  0  0  0  0  0  0  0  0  0
   -3.8440   -2.0100   -1.9170 C   0  0  0  0  0  0  0  0  0  0  0  0
   -4.4020   -0.6420   -2.1510 C   0  0  0  0  0  0  0  0  0  0  0  0
   -4.2370    0.3180   -1.0280 C   0  0  0  0  0  0  0  0  0  0  0  0
  1  2  2  0
  2  3  1  0
  3  4  1  0
  4  5  1  0
  4 17  1  0
  5  6  2  0
  6  7  1  0
  7  8  2  0
  8  9  1  0
  9 10  2  0
  9 11  1  0
 11 12  1  0
 12 13  1  0
 13 14  2  0
 13 15  1  0
 16 15  1  1
 16 17  1  0
 16 20  1  0
 17 18  2  0
 18 19  1  0
 19 20  2  0
 19 25  1  0
 20 21  1  0
 21 22  2  0
 21 23  1  0
 23 24  1  0
 24 25  1  0
M  END
