
     RDKit          3D

 25 28  0  0  0  0  0  0  0  0999 V2000
   -2.8940    3.8170    0.8780 C   0  0  0  0  0  0  0  0  0  0  0  0
   -2.7740    2.3350    0.8480 C   0  0  0  0  0  0  0  0  0  0  0  0
   -2.7800    1.4690    1.9290 C   0  0  0  0  0  0  0  0  0  0  0  0
   -2.6510    0.2570    1.4670 O   0  0  0  0  0  0  0  0  0  0  0  0
   -2.5580    0.2250    0.1660 C   0  0  0  0  0  0  0  0  0  0  0  0
   -2.4020   -0.9790   -0.7270 C   0  0  2  0  0  0  0  0  0  0  0  0
   -3.7490   -1.5190   -1.1300 C   0  0  0  0  0  0  0  0  0  0  0  0
   -4.3440   -2.4490   -0.1150 C   0  0  0  0  0  0  0  0  0  0  0  0
   -3.3250   -3.0390    0.8190 C   0  0  0  0  0  0  0  0  0  0  0  0
   -1.9900   -3.2460    0.1560 C   0  0  0  0  0  0  0  0  0  0  0  0
   -1.4980   -1.9510   -0.2280 N   0  0  0  0  0  0  0  0  0  0  0  0
   -0.1100   -1.6610   -0.1060 C   0  0  0  0  0  0  0  0  0  0  0  0
    0.6670   -2.5300    0.3510 O   0  0  0  0  0  0  0  0  0  0  0  0
    0.4270   -0.4250   -0.4830 N   0  0  0  0  0  0  0  0  0  0  0  0
    1.7510    0.0260   -0.4280 C   0  0  0  0  0  0  0  0  0  0  0  0
    2.0980    1.2710   -0.9550 C   0  0  0  0  0  0  0  0  0  0  0  0
    3.3750    1.7580   -0.9200 C   0  0  0  0  0  0  0  0  0  0  0  0
    4.3740    1.0300   -0.3580 C   0  0  0  0  0  0  0  0  0  0  0  0
    5.7290    1.2570   -0.1820 C   0  0  0  0  0  0  0  0  0  0  0  0
    6.4590    2.4750   -0.6150 C   0  0  0  0  0  0  0  0  0  0  0  0
    6.2120    0.1590    0.4500 N   0  0  0  0  0  0  0  0  0  0  0  0
    5.2220   -0.7060    0.6580 N   0  0  0  0  0  0  0  0  0  0  0  0
    4.0690   -0.2000    0.1710 C   0  0  0  0  0  0  0  0  0  0  0  0
    2.7540   -0.7030    0.1360 C   0  0  0  0  0  0  0  0  0  0  0  0
   -2.6360    1.5320   -0.2220 N   0  0  0  0  0  0  0  0  0  0  0  0
  1  2  1  0
  2  3  2  0
  2 25  1  0
  3  4  1  0
  4  5  1  0
  6  5  1  1
  5 25  2  0
  6  7  1  0
  6 11  1  0
  7  8  1  0
  8  9  1  0
  9 10  1  0
 10 11  1  0
 11 12  1  0
 12 13  2  0
 12 14  1  0
 14 15  1  0
 15 16  2  0
 15 24  1  0
 16 17  1  0
 17 18  2  0
 18 19  1  0
 18 23  1  0
 19 20  1  0
 19 21  2  0
 21 22  1  0
 22 23  1  0
 23 24  2  0
M  END
