
     RDKit          3D

 17 17  0  0  0  0  0  0  0  0999 V2000
    4.0030    1.2640   -0.7710 C   0  0  0  0  0  0  0  0  0  0  0  0
    4.0060   -0.0880   -1.3460 C   0  0  0  0  0  0  0  0  0  0  0  0
    2.9030   -0.8020   -1.3550 C   0  0  0  0  0  0  0  0  0  0  0  0
    1.6860   -0.2330   -0.7890 C   0  0  0  0  0  0  0  0  0  0  0  0
    0.5720   -0.9410   -0.7930 C   0  0  0  0  0  0  0  0  0  0  0  0
    0.5890   -2.2570   -1.3570 N   0  0  0  0  0  0  0  0  0  0  0  0
   -0.6420   -0.3780   -0.2160 C   0  0  0  0  0  0  0  0  0  0  0  0
   -1.8190   -1.0360   -0.1910 C   0  0  0  0  0  0  0  0  0  0  0  0
   -2.8640   -0.2530    0.4360 C   0  0  2  0  0  0  0  0  0  0  0  0
   -3.5400   -1.0560    1.4400 N   0  0  0  0  0  0  0  0  0  0  0  0
   -3.7440    0.1730   -0.5580 O   0  0  0  0  0  0  0  0  0  0  0  0
   -2.1980    0.9200    1.0430 C   0  0  2  0  0  0  0  0  0  0  0  0
   -2.9020    2.0760    0.7030 O   0  0  0  0  0  0  0  0  0  0  0  0
   -0.8170    0.9280    0.4310 C   0  0  1  0  0  0  0  0  0  0  0  0
    0.1800    1.2460    1.4820 C   0  0  0  0  0  0  0  0  0  0  0  0
    0.4930    0.2900    2.4790 N   0  0  0  0  0  0  0  0  0  0  0  0
    0.7540    2.3580    1.5070 O   0  0  0  0  0  0  0  0  0  0  0  0
  1  2  1  0
  2  3  2  3
  3  4  1  0
  4  5  2  3
  5  6  1  0
  5  7  1  0
  7  8  2  0
  7 14  1  0
  8  9  1  0
  9 10  1  1
  9 11  1  0
  9 12  1  0
 12 13  1  6
 12 14  1  0
 14 15  1  1
 15 16  1  0
 15 17  2  0
M  END
