
     RDKit          3D

 17 17  0  0  0  0  0  0  0  0999 V2000
   -0.4690   -1.3890    2.1770 N   0  0  0  0  0  0  0  0  0  0  0  0
    0.1470   -0.1140    2.1530 C   0  0  0  0  0  0  0  0  0  0  0  0
    0.4150    0.4500    0.7860 C   0  0  1  0  0  0  0  0  0  0  0  0
    1.3230   -0.4620    0.0290 C   0  0  0  0  0  0  0  0  0  0  0  0
    0.9110   -1.7540   -0.3690 N   0  0  0  0  0  0  0  0  0  0  0  0
    2.5560   -0.0960   -0.3030 C   0  0  0  0  0  0  0  0  0  0  0  0
    3.4560   -0.9680   -1.0400 C   0  0  0  0  0  0  0  0  0  0  0  0
    4.6630   -0.5920   -1.3580 C   0  0  0  0  0  0  0  0  0  0  0  0
    5.1410    0.6750   -0.9970 O   0  0  0  0  0  0  0  0  0  0  0  0
   -0.8240    0.7540    0.0290 C   0  0  0  0  0  0  0  0  0  0  0  0
   -1.2450    1.9500   -0.3580 C   0  0  0  0  0  0  0  0  0  0  0  0
   -2.5160    1.8740   -1.0880 C   0  0  2  0  0  0  0  0  0  0  0  0
   -3.5230    2.5640   -0.4160 O   0  0  0  0  0  0  0  0  0  0  0  0
   -2.8050    0.4160   -1.0830 C   0  0  0  0  0  0  0  0  0  0  0  0
   -3.9630   -0.1810   -1.6850 N   0  0  0  0  0  0  0  0  0  0  0  0
   -1.8280   -0.1780   -0.4440 C   0  0  0  0  0  0  0  0  0  0  0  0
   -1.7870   -1.5610   -0.2550 O   0  0  0  0  0  0  0  0  0  0  0  0
  1  2  1  0
  3  2  1  1
  3  4  1  0
  3 10  1  0
  4  5  1  0
  4  6  2  3
  6  7  1  0
  7  8  2  3
  8  9  1  0
 10 11  2  0
 10 16  1  0
 11 12  1  0
 12 13  1  1
 12 14  1  0
 14 15  1  0
 14 16  2  0
 16 17  1  0
M  END
