
     RDKit          3D

 17 18  0  0  0  0  0  0  0  0999 V2000
    5.0320   -0.4890   -0.3140 N   0  0  0  0  0  0  0  0  0  0  0  0
    3.6210   -0.2110   -0.2660 C   0  0  0  0  0  0  0  0  0  0  0  0
    2.9430    0.0630   -1.4280 C   0  0  0  0  0  0  0  0  0  0  0  0
    1.5710    0.3330   -1.3880 C   0  0  0  0  0  0  0  0  0  0  0  0
    0.8680    0.3350   -0.2170 C   0  0  0  0  0  0  0  0  0  0  0  0
   -0.5570    0.6110   -0.1370 C   0  0  2  0  0  0  0  0  0  0  0  0
   -1.2760   -0.3310    0.7330 N   0  0  0  0  0  0  0  0  0  0  0  0
   -2.6420    0.0900    0.4620 C   0  0  2  0  0  0  0  0  0  0  0  0
   -3.6570   -0.8410    1.0610 C   0  0  0  0  0  0  0  0  0  0  0  0
   -3.4980   -0.8970    2.4450 O   0  0  0  0  0  0  0  0  0  0  0  0
   -2.6770    0.0140   -1.0500 C   0  0  1  0  0  0  0  0  0  0  0  0
   -3.7160    0.7780   -1.5130 O   0  0  0  0  0  0  0  0  0  0  0  0
   -1.3090    0.6090   -1.4070 C   0  0  1  0  0  0  0  0  0  0  0  0
   -1.5810    1.9230   -1.8400 O   0  0  0  0  0  0  0  0  0  0  0  0
    1.5610    0.0580    0.9450 C   0  0  0  0  0  0  0  0  0  0  0  0
    2.9310   -0.2140    0.9210 C   0  0  0  0  0  0  0  0  0  0  0  0
    3.6280   -0.4950    2.1060 N   0  0  0  0  0  0  0  0  0  0  0  0
  1  2  1  0
  2  3  2  0
  2 16  1  0
  3  4  1  0
  4  5  2  0
  6  5  1  6
  5 15  1  0
  6  7  1  0
  6 13  1  0
  7  8  1  0
  8  9  1  1
  8 11  1  0
  9 10  1  0
 11 12  1  6
 11 13  1  0
 13 14  1  1
 15 16  2  0
 16 17  1  0
M  END
