
     RDKit          3D

 17 17  0  0  0  0  0  0  0  0999 V2000
    6.0630    0.5150   -0.1860 N   0  0  0  0  0  0  0  0  0  0  0  0
    4.7900    0.7100   -0.7370 C   0  0  0  0  0  0  0  0  0  0  0  0
    3.7010    0.3420   -0.0730 C   0  0  0  0  0  0  0  0  0  0  0  0
    3.8240   -0.2370    1.1720 O   0  0  0  0  0  0  0  0  0  0  0  0
    2.3730    0.5330   -0.6220 C   0  0  0  0  0  0  0  0  0  0  0  0
    1.2770    0.1730    0.0230 C   0  0  0  0  0  0  0  0  0  0  0  0
    1.5190   -0.4200    1.3110 N   0  0  0  0  0  0  0  0  0  0  0  0
   -0.0160    0.3900   -0.5550 C   0  0  0  0  0  0  0  0  0  0  0  0
   -1.1620    0.0730   -0.0110 C   0  0  0  0  0  0  0  0  0  0  0  0
   -1.3240   -0.5700    1.3030 C   0  0  0  0  0  0  0  0  0  0  0  0
   -2.7030   -1.2070    1.2740 C   0  0  1  0  0  0  0  0  0  0  0  0
   -3.5850   -0.5210    2.0890 O   0  0  0  0  0  0  0  0  0  0  0  0
   -3.1500   -1.0850   -0.1910 C   0  0  0  0  0  0  0  0  0  0  0  0
   -2.5340    0.2700   -0.4950 C   0  0  2  0  0  0  0  0  0  0  0  0
   -2.7440    0.7140   -1.8490 C   0  0  0  0  0  0  0  0  0  0  0  0
   -4.1340    0.9120   -2.2230 N   0  0  0  0  0  0  0  0  0  0  0  0
   -1.9370    0.9570   -2.7540 O   0  0  0  0  0  0  0  0  0  0  0  0
  1  2  1  0
  2  3  2  3
  3  4  1  0
  3  5  1  0
  5  6  2  3
  6  7  1  0
  6  8  1  0
  8  9  2  3
  9 10  1  0
  9 14  1  0
 10 11  1  0
 11 12  1  1
 11 13  1  0
 13 14  1  0
 14 15  1  6
 15 16  1  0
 15 17  2  0
M  END
