
     RDKit          3D

 17 18  0  0  0  0  0  0  0  0999 V2000
    2.3270   -1.3660    2.1440 N   0  0  0  0  0  0  0  0  0  0  0  0
    1.7500   -0.8230    0.9660 C   0  0  0  0  0  0  0  0  0  0  0  0
    0.3590   -0.7480    0.8080 C   0  0  0  0  0  0  0  0  0  0  0  0
   -0.2420   -0.2320   -0.3120 C   0  0  0  0  0  0  0  0  0  0  0  0
   -1.6730   -0.1210   -0.5180 C   0  0  2  0  0  0  0  0  0  0  0  0
   -2.0770   -0.8230   -1.6610 O   0  0  0  0  0  0  0  0  0  0  0  0
   -1.9760    1.3690   -0.7320 C   0  0  0  0  0  0  0  0  0  0  0  0
   -2.7240    1.8160    0.4180 N   0  0  0  0  0  0  0  0  0  0  0  0
   -2.6430    0.7970    1.4460 C   0  0  0  0  0  0  0  0  0  0  0  0
   -2.5790   -0.4600    0.6060 C   0  0  2  0  0  0  0  0  0  0  0  0
   -2.3930   -1.6190    1.2720 O   0  0  0  0  0  0  0  0  0  0  0  0
    0.6000    0.2270   -1.3140 C   0  0  0  0  0  0  0  0  0  0  0  0
    0.0320    0.7640   -2.4900 N   0  0  0  0  0  0  0  0  0  0  0  0
    1.9930    0.1640   -1.1810 C   0  0  0  0  0  0  0  0  0  0  0  0
    2.5610   -0.3600   -0.0440 C   0  0  0  0  0  0  0  0  0  0  0  0
    4.0310   -0.4410    0.1270 C   0  0  0  0  0  0  0  0  0  0  0  0
    4.7080    0.0660   -0.9780 O   0  0  0  0  0  0  0  0  0  0  0  0
  1  2  1  0
  2  3  2  0
  2 15  1  0
  3  4  1  0
  4  5  1  0
  4 12  2  0
  5  6  1  6
  5  7  1  0
  5 10  1  0
  7  8  1  0
  8  9  1  0
  9 10  1  0
 10 11  1  1
 12 13  1  0
 12 14  1  0
 14 15  2  0
 15 16  1  0
 16 17  1  0
M  END
