
     RDKit          3D

 17 17  0  0  0  0  0  0  0  0999 V2000
   -2.2890    3.1900    1.5030 C   0  0  0  0  0  0  0  0  0  0  0  0
   -2.0870    1.8310    1.1560 O   0  0  0  0  0  0  0  0  0  0  0  0
   -0.8300    1.2770    0.9960 C   0  0  0  0  0  0  0  0  0  0  0  0
    0.1500    2.0380    1.1730 O   0  0  0  0  0  0  0  0  0  0  0  0
   -0.7210   -0.1470    0.6330 C   0  0  0  0  0  0  0  0  0  0  0  0
   -1.9000   -0.7320    0.5430 C   0  0  0  0  0  0  0  0  0  0  0  0
   -3.0700    0.0810    0.7960 N   0  0  0  0  0  0  0  0  0  0  0  0
   -2.2780   -2.1470    0.2820 C   0  0  0  0  0  0  0  0  0  0  0  0
   -1.4930   -3.1570   -0.0680 C   0  0  0  0  0  0  0  0  0  0  0  0
   -0.0630   -2.9870   -0.2550 N   0  0  0  0  0  0  0  0  0  0  0  0
    0.5760   -1.7680   -0.6670 C   0  0  2  0  0  0  0  0  0  0  0  0
    1.9050   -2.1110   -1.1180 N   0  0  0  0  0  0  0  0  0  0  0  0
    0.6060   -0.7200    0.4320 C   0  0  1  0  0  0  0  0  0  0  0  0
    1.7330    0.2280    0.1720 C   0  0  0  0  0  0  0  0  0  0  0  0
    1.7340    1.0790   -1.0090 C   0  0  1  0  0  0  0  0  0  0  0  0
    3.0370    1.9130   -0.9070 C   0  0  0  0  0  0  0  0  0  0  0  0
    1.9360    0.3660   -2.2140 O   0  0  0  0  0  0  0  0  0  0  0  0
  1  2  1  0
  2  3  1  0
  3  4  2  0
  3  5  1  0
  5  6  2  0
  5 13  1  0
  6  7  1  0
  6  8  1  0
  8  9  2  0
  9 10  1  0
 10 11  1  0
 11 12  1  1
 11 13  1  0
 13 14  1  6
 14 15  1  0
 15 16  1  1
 15 17  1  0
M  END
