
     RDKit          3D

 14 15  0  0  0  0  0  0  0  0999 V2000
   -3.9770    1.4570   -0.3040 C   0  0  0  0  0  0  0  0  0  0  0  0
   -2.8060    0.9300   -0.0310 C   0  0  0  0  0  0  0  0  0  0  0  0
   -1.7390    1.6980    0.6330 C   0  0  0  0  0  0  0  0  0  0  0  0
   -0.5610    1.1580    0.9040 C   0  0  0  0  0  0  0  0  0  0  0  0
   -0.3550   -0.2030    0.5310 N   0  0  0  0  0  0  0  0  0  0  0  0
    0.9060   -0.8440    0.8000 C   0  0  0  0  0  0  0  0  0  0  0  0
    2.0410   -0.1650    0.1270 C   0  0  0  0  0  0  0  0  0  0  0  0
    2.0450    0.9410   -0.6800 C   0  0  0  0  0  0  0  0  0  0  0  0
    3.3340    1.1830   -1.0590 C   0  0  0  0  0  0  0  0  0  0  0  0
    4.1220    0.2160   -0.4770 C   0  0  0  0  0  0  0  0  0  0  0  0
    3.3120   -0.5830    0.2320 N   0  0  0  0  0  0  0  0  0  0  0  0
   -1.3680   -0.9670   -0.1110 C   0  0  0  0  0  0  0  0  0  0  0  0
   -1.0970   -2.4010   -0.4840 C   0  0  0  0  0  0  0  0  0  0  0  0
   -2.5500   -0.4470   -0.3910 C   0  0  0  0  0  0  0  0  0  0  0  0
  1  2  2  0
  2  3  1  0
  2 14  1  0
  3  4  2  0
  4  5  1  0
  5  6  1  0
  5 12  1  0
  6  7  1  0
  7  8  2  0
  7 11  1  0
  8  9  1  0
  9 10  2  0
 10 11  1  0
 12 13  1  0
 12 14  2  0
M  END
