
     RDKit          3D

 14 16  0  0  0  0  0  0  0  0999 V2000
    2.7590   -1.3930   -1.0320 C   0  0  0  0  0  0  0  0  0  0  0  0
    4.0320   -1.2560   -0.8680 N   0  0  0  0  0  0  0  0  0  0  0  0
    4.2730   -0.1340   -0.0060 C   0  0  0  0  0  0  0  0  0  0  0  0
    2.9320    0.3650    0.3090 C   0  0  0  0  0  0  0  0  0  0  0  0
    2.0240   -0.3790   -0.2980 C   0  0  0  0  0  0  0  0  0  0  0  0
    0.5660   -0.2030   -0.2330 C   0  0  0  0  0  0  0  0  0  0  0  0
   -0.4100   -0.9320   -0.8320 C   0  0  0  0  0  0  0  0  0  0  0  0
   -1.6410   -0.4090   -0.4940 C   0  0  0  0  0  0  0  0  0  0  0  0
   -2.9490   -0.7280   -0.7970 C   0  0  0  0  0  0  0  0  0  0  0  0
   -3.9980    0.0230   -0.2770 C   0  0  0  0  0  0  0  0  0  0  0  0
   -3.7210    1.0880    0.5430 C   0  0  0  0  0  0  0  0  0  0  0  0
   -2.4220    1.4050    0.8450 C   0  0  0  0  0  0  0  0  0  0  0  0
   -1.3690    0.6590    0.3290 C   0  0  0  0  0  0  0  0  0  0  0  0
   -0.0530    0.7620    0.4690 N   0  0  0  0  0  0  0  0  0  0  0  0
  1  2  2  0
  1  5  1  0
  2  3  1  0
  3  4  1  0
  4  5  2  0
  5  6  1  0
  6  7  2  0
  6 14  1  0
  7  8  1  0
  8  9  2  0
  8 13  1  0
  9 10  1  0
 10 11  2  0
 11 12  1  0
 12 13  2  0
 13 14  1  0
M  END
