
     RDKit          3D

 14 15  0  0  0  0  0  0  0  0999 V2000
   -2.9480   -2.1160   -0.5390 C   0  0  0  0  0  0  0  0  0  0  0  0
   -1.6760   -1.3660   -0.3460 C   0  0  0  0  0  0  0  0  0  0  0  0
   -1.6510   -0.0550   -0.1220 C   0  0  0  0  0  0  0  0  0  0  0  0
   -2.7960    0.8750   -0.0240 C   0  0  0  0  0  0  0  0  0  0  0  0
   -0.2310    0.3400    0.0190 C   0  0  0  0  0  0  0  0  0  0  0  0
    0.1780    1.5660    0.2470 C   0  0  0  0  0  0  0  0  0  0  0  0
   -0.7310    2.6510    0.3830 N   0  0  0  0  0  0  0  0  0  0  0  0
    0.5140   -0.8840   -0.1500 C   0  0  0  0  0  0  0  0  0  0  0  0
    1.9610   -1.0890   -0.1070 C   0  0  2  0  0  0  0  0  0  0  0  0
    2.5080   -0.6960    1.2300 C   0  0  0  0  0  0  0  0  0  0  0  0
    3.4790    0.1750    1.0390 C   0  0  0  0  0  0  0  0  0  0  0  0
    3.6180    0.4010   -0.3990 C   0  0  0  0  0  0  0  0  0  0  0  0
    2.7510   -0.3160   -1.0790 C   0  0  0  0  0  0  0  0  0  0  0  0
   -0.3470   -1.8320   -0.3560 N   0  0  0  0  0  0  0  0  0  0  0  0
  1  2  1  0
  2  3  2  0
  2 14  1  0
  3  4  1  0
  3  5  1  0
  5  6  2  3
  5  8  1  0
  6  7  1  0
  9  8  1  1
  8 14  2  0
  9 10  1  0
  9 13  1  0
 10 11  2  0
 11 12  1  0
 12 13  2  0
M  END
