
     RDKit          3D

 14 16  0  0  0  0  0  0  0  0999 V2000
   -3.7800    0.8230    0.6190 C   0  0  0  0  0  0  0  0  0  0  0  0
   -2.5960    0.2510    0.7580 C   0  0  0  0  0  0  0  0  0  0  0  0
   -1.9720    0.0870   -0.5530 C   0  0  0  0  0  0  0  0  0  0  0  0
   -0.7960   -0.4400   -0.8370 C   0  0  0  0  0  0  0  0  0  0  0  0
    0.0720   -0.9490    0.1550 N   0  0  0  0  0  0  0  0  0  0  0  0
   -0.2110   -1.8850    1.0570 C   0  0  0  0  0  0  0  0  0  0  0  0
    0.8730   -2.1170    1.8480 N   0  0  0  0  0  0  0  0  0  0  0  0
    1.8650   -1.3070    1.4350 C   0  0  0  0  0  0  0  0  0  0  0  0
    1.3350   -0.5770    0.3630 C   0  0  0  0  0  0  0  0  0  0  0  0
    2.0940    0.4370   -0.3920 C   0  0  1  0  0  0  0  0  0  0  0  0
    3.2220    1.1660    0.2470 C   0  0  0  0  0  0  0  0  0  0  0  0
    3.5490    0.0760   -0.7170 C   0  0  0  0  0  0  0  0  0  0  0  0
   -2.9360    0.6350   -1.4950 C   0  0  0  0  0  0  0  0  0  0  0  0
   -3.9820    1.0600   -0.7990 C   0  0  0  0  0  0  0  0  0  0  0  0
  1  2  2  0
  1 14  1  0
  2  3  1  0
  3  4  2  3
  3 13  1  0
  4  5  1  0
  5  6  1  0
  5  9  1  0
  6  7  2  0
  7  8  1  0
  8  9  2  0
 10  9  1  1
 10 11  1  0
 10 12  1  0
 11 12  1  0
 13 14  2  0
M  END
