
     RDKit          3D

 13 13  0  0  0  0  0  0  0  0999 V2000
    3.5610    0.8620    0.3740 C   0  0  0  0  0  0  0  0  0  0  0  0
    3.1370   -0.8530    0.5390 S   0  0  1  0  0  0  0  0  0  0  0  0
    4.2550   -1.6650   -0.0300 O   0  0  0  0  0  0  0  0  0  0  0  0
    2.9240   -1.2290    1.9740 O   0  0  0  0  0  0  0  0  0  0  0  0
    1.7400   -1.2390   -0.3900 N   0  0  0  0  0  0  0  0  0  0  0  0
    0.5860   -0.4770   -0.1640 C   0  0  0  0  0  0  0  0  0  0  0  0
    0.5140    0.4300    0.6640 O   0  0  0  0  0  0  0  0  0  0  0  0
   -0.5580   -0.7200   -0.9010 N   0  0  0  0  0  0  0  0  0  0  0  0
   -1.7270    0.0310   -0.6050 C   0  0  0  0  0  0  0  0  0  0  0  0
   -2.6090    0.2180   -1.3810 N   0  0  0  0  0  0  0  0  0  0  0  0
   -3.6770    0.9610   -1.0380 N   0  0  0  0  0  0  0  0  0  0  0  0
   -4.2450    0.5260    0.2380 C   0  0  0  0  0  0  0  0  0  0  0  0
   -2.5770    0.3950    1.0120 S   0  0  0  0  0  0  0  0  0  0  0  0
  2  1  1  1
  2  3  2  0
  2  4  2  0
  2  5  1  0
  5  6  1  0
  6  7  2  0
  6  8  1  0
  8  9  1  0
  9 10  2  0
  9 13  1  0
 10 11  1  0
 11 12  1  0
 12 13  1  0
M  END
