
     RDKit          3D

 13 13  0  0  0  0  0  0  0  0999 V2000
    2.9990   -0.7130   -1.2950 O   0  0  0  0  0  0  0  0  0  0  0  0
    2.9820   -0.0550   -0.2140 C   0  0  0  0  0  0  0  0  0  0  0  0
    3.9710    0.9250   -0.0200 O   0  0  0  0  0  0  0  0  0  0  0  0
    2.0080   -0.2710    0.8010 N   0  0  0  0  0  0  0  0  0  0  0  0
    1.0260   -1.2280    0.6360 N   0  0  0  0  0  0  0  0  0  0  0  0
   -0.1880   -0.8410    0.4130 C   0  0  0  0  0  0  0  0  0  0  0  0
   -1.4760   -1.9300    0.1960 S   0  0  0  0  0  0  0  0  0  0  0  0
   -2.9690   -1.1530   -0.0820 C   0  0  0  0  0  0  0  0  0  0  0  0
   -4.3960   -1.9210   -0.3290 S   0  0  0  0  0  0  0  0  0  0  0  0
   -2.8700    0.1930   -0.0810 N   0  0  0  0  0  0  0  0  0  0  0  0
   -1.7890    0.8900    0.1050 N   0  0  0  0  0  0  0  0  0  0  0  0
   -0.5530    0.4820    0.3310 C   0  0  0  0  0  0  0  0  0  0  0  0
    0.3580    1.3780    0.4840 O   0  0  0  0  0  0  0  0  0  0  0  0
  1  2  2  0
  2  3  1  0
  2  4  1  0
  4  5  1  0
  5  6  2  3
  6  7  1  0
  6 12  1  0
  7  8  1  0
  8  9  2  0
  8 10  1  0
 10 11  1  0
 11 12  1  0
 12 13  2  0
M  END
