
     RDKit          3D

 12 12  0  0  0  0  0  0  0  0999 V2000
   -3.4540    1.1850    0.2940 O   0  0  0  0  0  0  0  0  0  0  0  0
   -2.3040    0.7140    0.0580 C   0  0  0  0  0  0  0  0  0  0  0  0
   -2.0870   -0.5840    0.3250 N   0  0  0  0  0  0  0  0  0  0  0  0
   -0.8690   -1.1190    0.0850 C   0  0  0  0  0  0  0  0  0  0  0  0
   -0.6390   -2.3410    0.3280 O   0  0  0  0  0  0  0  0  0  0  0  0
    0.1430   -0.3990   -0.4140 N   0  0  0  0  0  0  0  0  0  0  0  0
    1.4390   -0.9770   -0.6650 C   0  0  0  0  0  0  0  0  0  0  0  0
    2.5190   -0.8220    0.7920 S   0  0  0  0  0  0  0  0  0  0  0  0
    2.8800    0.8440    1.0960 O   0  0  0  0  0  0  0  0  0  0  0  0
   -0.0900    0.8940   -0.6750 C   0  0  0  0  0  0  0  0  0  0  0  0
    1.1120    1.7940   -1.2790 S   0  0  0  0  0  0  0  0  0  0  0  0
   -1.3060    1.4580   -0.4430 N   0  0  0  0  0  0  0  0  0  0  0  0
  1  2  2  0
  2  3  1  0
  2 12  1  0
  3  4  1  0
  4  5  2  0
  4  6  1  0
  6  7  1  0
  6 10  1  0
  7  8  1  0
  8  9  1  0
 10 11  2  0
 10 12  1  0
M  END
