
     RDKit          3D

 26 29  0  0  0  0  0  0  0  0999 V2000
    5.9090    0.2240    1.8830 O   0  0  0  0  0  0  0  0  0  0  0  0
    5.4670    0.0230    0.6930 C   0  0  0  0  0  0  0  0  0  0  0  0
    4.0560   -0.2350    0.5040 C   0  0  0  0  0  0  0  0  0  0  0  0
    3.1440    0.2570    1.4690 C   0  0  0  0  0  0  0  0  0  0  0  0
    1.7980    0.0560    1.3490 C   0  0  0  0  0  0  0  0  0  0  0  0
    1.2270   -0.6320    0.2930 C   0  0  0  0  0  0  0  0  0  0  0  0
   -0.2460   -0.7990    0.2180 C   0  0  1  0  0  0  0  0  0  0  0  0
   -0.8430   -1.1040    1.4190 O   0  0  0  0  0  0  0  0  0  0  0  0
   -0.9120    0.4120   -0.3670 C   0  0  0  0  0  0  0  0  0  0  0  0
   -2.3620    0.2770   -0.4440 C   0  0  0  0  0  0  0  0  0  0  0  0
   -3.0010   -0.2830   -1.5330 C   0  0  0  0  0  0  0  0  0  0  0  0
   -4.3760   -0.3620   -1.5170 C   0  0  0  0  0  0  0  0  0  0  0  0
   -5.1380    0.1040   -0.4460 C   0  0  0  0  0  0  0  0  0  0  0  0
   -4.4940    0.6610    0.6330 C   0  0  0  0  0  0  0  0  0  0  0  0
   -3.1200    0.7370    0.6150 C   0  0  0  0  0  0  0  0  0  0  0  0
   -5.2650    1.1160    1.6840 O   0  0  0  0  0  0  0  0  0  0  0  0
   -6.5600    0.6520    1.9960 C   0  0  0  0  0  0  0  0  0  0  0  0
   -7.1880   -0.1910    0.9470 C   0  0  0  0  0  0  0  0  0  0  0  0
   -6.6080    0.0160   -0.4300 C   0  0  0  0  0  0  0  0  0  0  0  0
    2.1140   -1.1080   -0.6430 C   0  0  0  0  0  0  0  0  0  0  0  0
    3.4830   -0.9140   -0.5370 C   0  0  0  0  0  0  0  0  0  0  0  0
    6.4570    0.0840   -0.3550 C   0  0  0  0  0  0  0  0  0  0  0  0
    6.7690   -0.7530   -1.3900 C   0  0  0  0  0  0  0  0  0  0  0  0
    7.8010   -0.1580   -2.1000 C   0  0  0  0  0  0  0  0  0  0  0  0
    8.0900    1.0230   -1.4780 C   0  0  0  0  0  0  0  0  0  0  0  0
    7.2880    1.1820   -0.4240 N   0  0  0  0  0  0  0  0  0  0  0  0
  1  2  2  0
  2  3  1  0
  2 22  1  0
  3  4  2  0
  3 21  1  0
  4  5  1  0
  5  6  2  0
  6  7  1  0
  6 20  1  0
  7  8  1  1
  7  9  1  0
  9 10  1  0
 10 11  2  0
 10 15  1  0
 11 12  1  0
 12 13  2  0
 13 14  1  0
 13 19  1  0
 14 15  2  0
 14 16  1  0
 16 17  1  0
 17 18  1  0
 18 19  1  0
 20 21  2  0
 22 23  2  0
 22 26  1  0
 23 24  1  0
 24 25  2  0
 25 26  1  0
M  END
