
     RDKit          3D

 26 28  0  0  0  0  0  0  0  0999 V2000
   -5.1830    1.5170   -0.9590 C   0  0  0  0  0  0  0  0  0  0  0  0
   -4.0600    1.1270   -0.0760 C   0  0  0  0  0  0  0  0  0  0  0  0
   -2.8130    1.7270   -0.3100 C   0  0  0  0  0  0  0  0  0  0  0  0
   -1.7360    1.4120    0.4520 C   0  0  0  0  0  0  0  0  0  0  0  0
   -1.8880    0.4670    1.4830 C   0  0  0  0  0  0  0  0  0  0  0  0
   -3.0990   -0.1050    1.7000 C   0  0  0  0  0  0  0  0  0  0  0  0
   -4.2180    0.2080    0.9260 C   0  0  0  0  0  0  0  0  0  0  0  0
   -5.5560   -0.4220    1.1590 C   0  0  0  0  0  0  0  0  0  0  0  0
   -0.6150    0.2220    2.2020 C   0  0  1  0  0  0  0  0  0  0  0  0
    0.4100   -0.1190    1.2500 N   0  0  0  0  0  0  0  0  0  0  0  0
    0.4220   -1.1420    0.2950 C   0  0  0  0  0  0  0  0  0  0  0  0
   -0.5520   -2.0870    0.0990 C   0  0  0  0  0  0  0  0  0  0  0  0
   -0.5060   -3.0670   -0.8890 C   0  0  0  0  0  0  0  0  0  0  0  0
    0.5800   -3.1020   -1.7260 C   0  0  0  0  0  0  0  0  0  0  0  0
    1.5850   -2.1860   -1.5780 C   0  0  0  0  0  0  0  0  0  0  0  0
    1.5360   -1.2010   -0.5850 C   0  0  0  0  0  0  0  0  0  0  0  0
    2.4870   -0.3470   -0.4560 O   0  0  0  0  0  0  0  0  0  0  0  0
    3.4360    0.4580   -0.3760 C   0  0  0  0  0  0  0  0  0  0  0  0
    4.6850    0.5750   -0.9150 C   0  0  0  0  0  0  0  0  0  0  0  0
    5.1860   -0.4190   -1.8330 C   0  0  0  0  0  0  0  0  0  0  0  0
    6.3300   -0.4740   -2.4320 C   0  0  0  0  0  0  0  0  0  0  0  0
    7.3740    0.4760   -2.3010 C   0  0  0  0  0  0  0  0  0  0  0  0
    7.3840    1.5240   -1.6100 O   0  0  0  0  0  0  0  0  0  0  0  0
   -0.2410    1.6490    2.6900 C   0  0  0  0  0  0  0  0  0  0  0  0
    0.2090    2.4400    1.4950 C   0  0  0  0  0  0  0  0  0  0  0  0
   -0.4360    1.9630    0.3080 O   0  0  0  0  0  0  0  0  0  0  0  0
  1  2  1  0
  2  3  2  0
  2  7  1  0
  3  4  1  0
  4  5  2  0
  4 26  1  0
  5  6  1  0
  5  9  1  0
  6  7  2  0
  7  8  1  0
  9 10  1  6
  9 24  1  0
 10 11  1  0
 11 12  2  0
 11 16  1  0
 12 13  1  0
 13 14  2  0
 14 15  1  0
 15 16  2  0
 16 17  1  0
 17 18  1  0
 18 19  2  3
 19 20  1  0
 20 21  2  3
 21 22  1  0
 22 23  2  0
 24 25  1  0
 25 26  1  0
M  END
