
     RDKit          3D

 26 28  0  0  0  0  0  0  0  0999 V2000
    3.4510    2.0210   -2.7990 C   0  0  0  0  0  0  0  0  0  0  0  0
    3.6920    2.2250   -1.5220 C   0  0  0  0  0  0  0  0  0  0  0  0
    3.4510    1.1980   -0.5310 C   0  0  0  0  0  0  0  0  0  0  0  0
    3.7100    1.4530    0.7390 C   0  0  0  0  0  0  0  0  0  0  0  0
    3.4820    0.4350    1.8050 C   0  0  0  0  0  0  0  0  0  0  0  0
    2.9600   -0.0270   -0.8920 O   0  0  0  0  0  0  0  0  0  0  0  0
    1.6530   -0.4400   -0.6330 C   0  0  0  0  0  0  0  0  0  0  0  0
    0.8000    0.4190    0.0200 C   0  0  0  0  0  0  0  0  0  0  0  0
   -0.5020    0.0380    0.2910 C   0  0  0  0  0  0  0  0  0  0  0  0
   -1.3520    0.9110    0.9480 C   0  0  0  0  0  0  0  0  0  0  0  0
   -0.8480    2.2090    1.3360 C   0  0  0  0  0  0  0  0  0  0  0  0
   -0.3000    2.4290    2.4440 O   0  0  0  0  0  0  0  0  0  0  0  0
   -0.9730    3.2650    0.4430 O   0  0  0  0  0  0  0  0  0  0  0  0
   -0.4990    4.5760    0.7560 C   0  0  0  0  0  0  0  0  0  0  0  0
   -2.6350    0.5080    1.2040 C   0  0  0  0  0  0  0  0  0  0  0  0
   -3.5790    1.4230    1.9100 C   0  0  0  0  0  0  0  0  0  0  0  0
   -3.0740   -0.7360    0.8170 C   0  0  0  0  0  0  0  0  0  0  0  0
   -4.3930   -1.1240    1.0920 N   0  0  0  0  0  0  0  0  0  0  0  0
   -2.2070   -1.6010    0.1580 C   0  0  0  0  0  0  0  0  0  0  0  0
   -0.9290   -1.2430   -0.1160 C   0  0  0  0  0  0  0  0  0  0  0  0
   -0.0810   -2.0950   -0.7640 C   0  0  0  0  0  0  0  0  0  0  0  0
    1.2130   -1.6870   -1.0200 C   0  0  0  0  0  0  0  0  0  0  0  0
    2.1980   -2.5550   -1.7210 C   0  0  0  0  0  0  0  0  0  0  0  0
   -0.4800   -3.4390   -1.2080 C   0  0  0  0  0  0  0  0  0  0  0  0
   -1.9760   -3.5830   -1.3510 C   0  0  0  0  0  0  0  0  0  0  0  0
   -2.7190   -2.9320   -0.2390 C   0  0  0  0  0  0  0  0  0  0  0  0
  1  2  2  0
  2  3  1  0
  3  4  2  3
  3  6  1  0
  4  5  1  0
  6  7  1  0
  7  8  2  0
  7 22  1  0
  8  9  1  0
  9 10  2  0
  9 20  1  0
 10 11  1  0
 10 15  1  0
 11 12  2  0
 11 13  1  0
 13 14  1  0
 15 16  1  0
 15 17  2  0
 17 18  1  0
 17 19  1  0
 19 20  2  0
 19 26  1  0
 20 21  1  0
 21 22  2  0
 21 24  1  0
 22 23  1  0
 24 25  1  0
 25 26  1  0
M  END
