
     RDKit          3D

 26 28  0  0  0  0  0  0  0  0999 V2000
    7.1760    2.1680    0.0320 C   0  0  0  0  0  0  0  0  0  0  0  0
    6.1130    1.1550   -0.1190 C   0  0  0  0  0  0  0  0  0  0  0  0
    6.4300   -0.1800   -0.0780 C   0  0  0  0  0  0  0  0  0  0  0  0
    5.4520   -1.1390   -0.2180 C   0  0  0  0  0  0  0  0  0  0  0  0
    5.7580   -2.5970   -0.1920 C   0  0  0  0  0  0  0  0  0  0  0  0
    4.1400   -0.7520   -0.4010 C   0  0  0  0  0  0  0  0  0  0  0  0
    3.7790    0.5770   -0.4520 C   0  0  0  0  0  0  0  0  0  0  0  0
    2.4240    0.9120   -0.6540 O   0  0  0  0  0  0  0  0  0  0  0  0
    1.5430   -0.1530   -0.7710 C   0  0  0  0  0  0  0  0  0  0  0  0
    0.1350    0.0910   -1.0780 C   0  0  0  0  0  0  0  0  0  0  0  0
   -0.6890    0.9240   -0.1580 C   0  0  1  0  0  0  0  0  0  0  0  0
   -0.3260    2.2130   -0.0090 O   0  0  0  0  0  0  0  0  0  0  0  0
   -2.1160    0.5530   -0.0940 C   0  0  0  0  0  0  0  0  0  0  0  0
   -2.4230   -0.7940   -0.1320 C   0  0  0  0  0  0  0  0  0  0  0  0
   -3.7060   -1.2640    0.0350 C   0  0  0  0  0  0  0  0  0  0  0  0
   -3.9070   -2.5990   -0.0080 N   0  0  0  0  0  0  0  0  0  0  0  0
   -5.1550   -3.0790    0.1660 C   0  0  0  0  0  0  0  0  0  0  0  0
   -5.3340   -4.3100    0.1240 O   0  0  0  0  0  0  0  0  0  0  0  0
   -6.2240   -2.2270    0.3870 C   0  0  0  0  0  0  0  0  0  0  0  0
   -5.9990   -0.8710    0.4260 C   0  0  0  0  0  0  0  0  0  0  0  0
   -7.1370    0.0570    0.6590 C   0  0  0  0  0  0  0  0  0  0  0  0
   -4.7230   -0.3710    0.2490 C   0  0  0  0  0  0  0  0  0  0  0  0
   -4.4430    0.9810    0.2920 C   0  0  0  0  0  0  0  0  0  0  0  0
   -3.1510    1.4350    0.1210 C   0  0  0  0  0  0  0  0  0  0  0  0
   -2.9120    2.9020    0.1350 C   0  0  0  0  0  0  0  0  0  0  0  0
    4.7760    1.5050   -0.3080 C   0  0  0  0  0  0  0  0  0  0  0  0
  1  2  1  0
  2  3  2  0
  2 26  1  0
  3  4  1  0
  4  5  1  0
  4  6  2  0
  6  7  1  0
  7  8  1  0
  7 26  2  0
  8  9  1  0
  9 10  1  0
 10 11  1  0
 11 12  1  6
 11 13  1  0
 13 14  2  0
 13 24  1  0
 14 15  1  0
 15 16  1  0
 15 22  2  0
 16 17  1  0
 17 18  2  0
 17 19  1  0
 19 20  2  0
 20 21  1  0
 20 22  1  0
 22 23  1  0
 23 24  2  0
 24 25  1  0
M  END
