
     RDKit          3D

  8  8  0  0  0  0  0  0  0  0999 V2000
    2.4070   -0.4870   -0.0100 C   0  0  0  0  0  0  0  0  0  0  0  0
    1.1340    0.0720    0.6170 C   0  0  1  0  0  0  0  0  0  0  0  0
    0.6900    1.2260   -0.2150 C   0  0  0  0  0  0  0  0  0  0  0  0
   -0.9520    1.8290    0.1750 S   0  0  0  0  0  0  0  0  0  0  0  0
   -2.1700    0.6510   -0.5120 C   0  0  0  0  0  0  0  0  0  0  0  0
   -1.9630   -0.6470    0.2780 C   0  0  0  0  0  0  0  0  0  0  0  0
   -0.6450   -1.1410   -0.1450 N   0  0  0  0  0  0  0  0  0  0  0  0
    0.2010   -0.8880    0.8500 O   0  0  0  0  0  0  0  0  0  0  0  0
  2  1  1  6
  2  3  1  0
  2  8  1  0
  3  4  1  0
  4  5  1  0
  5  6  1  0
  6  7  1  0
  7  8  1  0
M  END
