
     RDKit          3D

  8  8  0  0  0  0  0  0  0  0999 V2000
    2.5270    0.5100   -0.2540 C   0  0  0  0  0  0  0  0  0  0  0  0
    1.5060   -0.3950    0.2970 C   0  0  0  0  0  0  0  0  0  0  0  0
    0.2360   -0.0920    0.2420 C   0  0  0  0  0  0  0  0  0  0  0  0
   -0.9080   -0.7960    0.6980 N   0  0  0  0  0  0  0  0  0  0  0  0
   -2.0810   -0.5280   -0.1070 C   0  0  0  0  0  0  0  0  0  0  0  0
   -2.1510    0.9150   -0.3910 C   0  0  0  0  0  0  0  0  0  0  0  0
   -3.1150    1.6020   -0.5280 O   0  0  0  0  0  0  0  0  0  0  0  0
   -0.4440    1.4230   -0.4890 S   0  0  0  0  0  0  0  0  0  0  0  0
  1  2  1  0
  2  3  2  3
  3  4  1  0
  3  8  1  0
  4  5  1  0
  5  6  1  0
  6  7  2  0
  6  8  1  0
M  END
