
     RDKit          3D

  8  8  0  0  0  0  0  0  0  0999 V2000
    3.4880    0.5080    0.4850 N   0  0  0  0  0  0  0  0  0  0  0  0
    2.1260    0.5550    0.0300 C   0  0  0  0  0  0  0  0  0  0  0  0
    1.0800   -0.5200    1.0100 S   0  0  0  0  0  0  0  0  0  0  0  0
   -0.6080   -0.4570    0.4410 C   0  0  0  0  0  0  0  0  0  0  0  0
   -1.6650   -1.1050    0.9050 C   0  0  0  0  0  0  0  0  0  0  0  0
   -2.8120   -0.7060    0.0930 C   0  0  0  0  0  0  0  0  0  0  0  0
   -2.2660   -0.2560   -1.1080 O   0  0  0  0  0  0  0  0  0  0  0  0
   -1.0810    0.3920   -0.7150 C   0  0  0  0  0  0  0  0  0  0  0  0
  1  2  1  0
  2  3  1  0
  3  4  1  0
  4  5  2  0
  4  8  1  0
  5  6  1  0
  6  7  1  0
  7  8  1  0
M  END
