
     RDKit          3D

  8  8  0  0  0  0  0  0  0  0999 V2000
   -2.1120    2.1830   -0.2150 S   0  0  0  0  0  0  0  0  0  0  0  0
   -0.9730    1.0860    0.1750 C   0  0  0  0  0  0  0  0  0  0  0  0
   -1.4800   -0.1870    0.7440 C   0  0  0  0  0  0  0  0  0  0  0  0
   -0.8960   -1.2990   -0.1290 C   0  0  0  0  0  0  0  0  0  0  0  0
    0.4310   -1.5060    0.1660 O   0  0  0  0  0  0  0  0  0  0  0  0
    1.3110   -0.7410   -0.5610 C   0  0  0  0  0  0  0  0  0  0  0  0
    1.5450    0.6140    0.1110 C   0  0  0  0  0  0  0  0  0  0  0  0
    0.3570    1.4580   -0.0680 N   0  0  0  0  0  0  0  0  0  0  0  0
  1  2  2  0
  2  3  1  0
  2  8  1  0
  3  4  1  0
  4  5  1  0
  5  6  1  0
  6  7  1  0
  7  8  1  0
M  END
