
     RDKit          3D

  8  8  0  0  0  0  0  0  0  0999 V2000
    2.3200   -0.4780   -0.2170 C   0  0  0  0  0  0  0  0  0  0  0  0
    0.9700    0.3390    0.0640 S   0  0  0  0  0  0  0  0  0  0  0  0
    1.9200    1.1980    1.2700 O   0  0  0  0  0  0  0  0  0  0  0  0
    0.0750   -0.8960    0.6960 C   0  0  0  0  0  0  0  0  0  0  0  0
   -1.2560   -1.1210    0.0200 C   0  0  0  0  0  0  0  0  0  0  0  0
   -1.5550    0.0670   -0.8400 C   0  0  0  0  0  0  0  0  0  0  0  0
   -1.3770    1.2440    0.1120 C   0  0  0  0  0  0  0  0  0  0  0  0
    0.0010    1.4730    0.3240 N   0  0  0  0  0  0  0  0  0  0  0  0
  1  2  1  0
  2  3  2  0
  2  4  1  0
  2  8  1  0
  4  5  1  0
  5  6  1  0
  6  7  1  0
  7  8  1  0
M  END
