
     RDKit          3D

  8  8  0  0  0  0  0  0  0  0999 V2000
    2.4220    0.1280   -0.1620 C   0  0  0  0  0  0  0  0  0  0  0  0
    1.3100   -0.7950   -0.4350 C   0  0  0  0  0  0  0  0  0  0  0  0
    0.0540   -0.4510   -0.1530 C   0  0  0  0  0  0  0  0  0  0  0  0
   -0.3430    0.7890    0.4190 N   0  0  0  0  0  0  0  0  0  0  0  0
   -1.7630    0.8120    0.5810 C   0  0  0  0  0  0  0  0  0  0  0  0
   -2.7140    2.0470    1.0640 S   0  0  0  0  0  0  0  0  0  0  0  0
   -2.2270   -0.5300    0.2210 C   0  0  0  0  0  0  0  0  0  0  0  0
   -1.1000   -1.1790   -0.3390 O   0  0  0  0  0  0  0  0  0  0  0  0
  1  2  1  0
  2  3  2  3
  3  4  1  0
  3  8  1  0
  4  5  1  0
  5  6  2  0
  5  7  1  0
  7  8  1  0
M  END
