
     RDKit          3D

  6  5  0  0  0  0  0  0  0  0999 V2000
   -0.9490   -1.3370   -0.5550 O   0  0  0  0  0  0  0  0  0  0  0  0
   -0.7100   -0.1570   -0.1920 C   0  0  0  0  0  0  0  0  0  0  0  0
   -1.7640    0.6790    0.0680 O   0  0  0  0  0  0  0  0  0  0  0  0
    0.6960    0.2590   -0.0660 C   0  0  0  0  0  0  0  0  0  0  0  0
    0.9670    1.4300    0.2950 O   0  0  0  0  0  0  0  0  0  0  0  0
    1.7260   -0.6150   -0.3360 O   0  0  0  0  0  0  0  0  0  0  0  0
  1  2  2  0
  2  3  1  0
  2  4  1  0
  4  5  2  0
  4  6  1  0
M  END
