
     RDKit          3D

 14 14  0  0  0  0  0  0  0  0999 V2000
   -2.9990    0.9530    0.2390 N   0  0  0  0  0  0  0  0  0  0  0  0
   -2.2910    0.5910   -0.9350 C   0  0  0  0  0  0  0  0  0  0  0  0
   -1.0110   -0.1510   -0.7290 C   0  0  2  0  0  0  0  0  0  0  0  0
   -1.3150   -1.4370    0.0070 C   0  0  0  0  0  0  0  0  0  0  0  0
   -1.8950   -1.1760    1.2400 O   0  0  0  0  0  0  0  0  0  0  0  0
    0.0600    0.6790   -0.0850 C   0  0  2  0  0  0  0  0  0  0  0  0
    0.2810    1.7630   -0.9520 O   0  0  0  0  0  0  0  0  0  0  0  0
    1.3610   -0.0090    0.0910 C   0  0  1  0  0  0  0  0  0  0  0  0
    2.1080   -0.2710   -1.1890 C   0  0  0  0  0  0  0  0  0  0  0  0
    1.5960   -1.3050   -1.9340 O   0  0  0  0  0  0  0  0  0  0  0  0
    2.2610    0.9660    0.8760 C   0  0  0  0  0  0  0  0  0  0  0  0
    2.9900    0.1030    1.6800 O   0  0  0  0  0  0  0  0  0  0  0  0
    1.9900   -0.7910    2.0920 C   0  0  0  0  0  0  0  0  0  0  0  0
    1.3700   -1.1010    0.9090 O   0  0  0  0  0  0  0  0  0  0  0  0
  1  2  1  0
  3  2  1  1
  3  4  1  0
  3  6  1  0
  4  5  1  0
  6  7  1  6
  6  8  1  0
  8  9  1  6
  8 11  1  0
  8 14  1  0
  9 10  1  0
 11 12  1  0
 12 13  1  0
 13 14  1  0
M  CHG  1   1   1
M  END
