
     RDKit          3D

 14 14  0  0  0  0  0  0  0  0999 V2000
    3.5970   -0.1940   -0.1840 C   0  0  0  0  0  0  0  0  0  0  0  0
    2.5740   -0.3620    0.7240 O   0  0  0  0  0  0  0  0  0  0  0  0
    1.4160    0.2960    0.3870 C   0  0  2  0  0  0  0  0  0  0  0  0
    1.1390    1.2010    1.4150 O   0  0  0  0  0  0  0  0  0  0  0  0
    0.1330    2.0490    0.9770 C   0  0  0  0  0  0  0  0  0  0  0  0
   -1.1450    1.3630    0.6550 C   0  0  2  0  0  0  0  0  0  0  0  0
   -1.9000    1.2700    1.8220 O   0  0  0  0  0  0  0  0  0  0  0  0
   -1.0100    0.0640   -0.0630 C   0  0  2  0  0  0  0  0  0  0  0  0
   -0.9980    0.3390   -1.5640 C   0  0  0  0  0  0  0  0  0  0  0  0
   -0.8770   -0.8040   -2.3160 O   0  0  0  0  0  0  0  0  0  0  0  0
   -2.2100   -0.8410    0.2060 C   0  0  0  0  0  0  0  0  0  0  0  0
   -2.3650   -1.1340    1.5400 O   0  0  0  0  0  0  0  0  0  0  0  0
    0.2260   -0.6560    0.3490 C   0  0  1  0  0  0  0  0  0  0  0  0
    0.5840   -1.7780   -0.4550 N   0  0  0  0  0  0  0  0  0  0  0  0
  1  2  1  0
  3  2  1  1
  3  4  1  0
  3 13  1  0
  4  5  1  0
  5  6  1  0
  6  7  1  1
  6  8  1  0
  8  9  1  6
  8 11  1  0
  8 13  1  0
  9 10  1  0
 11 12  1  0
 13 14  1  6
M  CHG  1  14   1
M  END
