
     RDKit          3D

 14 14  0  0  0  0  0  0  0  0999 V2000
    2.3790    0.9820   -1.4520 C   0  0  0  0  0  0  0  0  0  0  0  0
    1.7240   -0.2100   -1.2740 O   0  0  0  0  0  0  0  0  0  0  0  0
    1.1830   -0.3840   -0.0170 C   0  0  2  0  0  0  0  0  0  0  0  0
    2.2830   -0.3290    1.0130 C   0  0  0  0  0  0  0  0  0  0  0  0
    3.1850   -1.3520    0.7230 O   0  0  0  0  0  0  0  0  0  0  0  0
    0.5210   -1.7340    0.1040 C   0  0  0  0  0  0  0  0  0  0  0  0
   -0.7710   -1.5230    0.5780 O   0  0  0  0  0  0  0  0  0  0  0  0
   -1.1840   -0.2870    0.1500 C   0  0  2  0  0  0  0  0  0  0  0  0
   -2.2780    0.2800    1.0140 C   0  0  0  0  0  0  0  0  0  0  0  0
   -2.6870    1.5730    0.5390 N   0  0  0  0  0  0  0  0  0  0  0  0
   -1.7100   -0.3660   -1.2600 C   0  0  0  0  0  0  0  0  0  0  0  0
   -0.7960   -0.8090   -2.1780 O   0  0  0  0  0  0  0  0  0  0  0  0
    0.0570    0.5570    0.2660 C   0  0  1  0  0  0  0  0  0  0  0  0
    0.1520    0.9550    1.6170 O   0  0  0  0  0  0  0  0  0  0  0  0
  1  2  1  0
  2  3  1  0
  3  4  1  1
  3  6  1  0
  3 13  1  0
  4  5  1  0
  6  7  1  0
  7  8  1  0
  8  9  1  1
  8 11  1  0
  8 13  1  0
  9 10  1  0
 11 12  1  0
 13 14  1  1
M  CHG  1  10   1
M  END
