
     RDKit          3D

 23 24  0  0  0  0  0  0  0  0999 V2000
   -7.1060   -1.1970   -0.4890 C   0  0  0  0  0  0  0  0  0  0  0  0
   -5.7500   -0.6490   -0.2950 C   0  0  0  0  0  0  0  0  0  0  0  0
   -4.7630   -0.8950    0.6040 C   0  0  0  0  0  0  0  0  0  0  0  0
   -3.6010   -0.2570    0.5680 C   0  0  0  0  0  0  0  0  0  0  0  0
   -2.4510   -0.4900    1.5500 C   0  0  1  0  0  0  0  0  0  0  0  0
   -2.8730   -1.5100    2.5810 C   0  0  0  0  0  0  0  0  0  0  0  0
   -1.2850   -0.9230    0.8150 N   0  0  0  0  0  0  0  0  0  0  0  0
   -0.0340   -0.1940    0.9680 C   0  0  0  0  0  0  0  0  0  0  0  0
    0.0210    0.7930    1.7280 O   0  0  0  0  0  0  0  0  0  0  0  0
    1.1140   -0.6010    0.2590 N   0  0  0  0  0  0  0  0  0  0  0  0
    2.3800    0.0130    0.3240 C   0  0  0  0  0  0  0  0  0  0  0  0
    2.7820    1.0130    1.1570 C   0  0  0  0  0  0  0  0  0  0  0  0
    4.0520    1.5840    1.1650 C   0  0  0  0  0  0  0  0  0  0  0  0
    4.3610    2.6130    2.0680 O   0  0  0  0  0  0  0  0  0  0  0  0
    4.9420    1.1100    0.2840 N   0  0  0  0  0  0  0  0  0  0  0  0
    4.6190    0.1180   -0.5770 C   0  0  0  0  0  0  0  0  0  0  0  0
    5.6840   -0.3320   -1.5100 C   0  0  0  0  0  0  0  0  0  0  0  0
    5.5560    0.5360   -2.7640 C   0  0  0  0  0  0  0  0  0  0  0  0
    5.7320    1.8680   -2.3910 O   0  0  0  0  0  0  0  0  0  0  0  0
    3.3640   -0.4390   -0.5760 C   0  0  0  0  0  0  0  0  0  0  0  0
   -3.4520    0.7060   -0.4740 C   0  0  0  0  0  0  0  0  0  0  0  0
   -2.2590    1.5620   -0.7460 C   0  0  0  0  0  0  0  0  0  0  0  0
   -4.9740    0.6320   -1.3260 S   0  0  0  0  0  0  0  0  0  0  0  0
  1  2  1  0
  2  3  2  0
  2 23  1  0
  3  4  1  0
  4  5  1  0
  4 21  2  0
  5  6  1  1
  5  7  1  0
  7  8  1  0
  8  9  2  0
  8 10  1  0
 10 11  1  0
 11 12  2  0
 11 20  1  0
 12 13  1  0
 13 14  1  0
 13 15  2  0
 15 16  1  0
 16 17  1  0
 16 20  2  0
 17 18  1  0
 18 19  1  0
 21 22  1  0
 21 23  1  0
M  END
