
     RDKit          3D

 23 24  0  0  0  0  0  0  0  0999 V2000
   -6.5480    0.3550    1.9060 C   0  0  0  0  0  0  0  0  0  0  0  0
   -5.2360    0.1420    1.2130 C   0  0  0  0  0  0  0  0  0  0  0  0
   -4.2410    1.0520    1.3960 C   0  0  0  0  0  0  0  0  0  0  0  0
   -3.0050    0.8720    0.7570 C   0  0  0  0  0  0  0  0  0  0  0  0
   -2.7510   -0.1890   -0.0510 C   0  0  0  0  0  0  0  0  0  0  0  0
   -1.5550   -0.4540   -0.7280 N   0  0  0  0  0  0  0  0  0  0  0  0
   -0.3630    0.3590   -0.6940 C   0  0  0  0  0  0  0  0  0  0  0  0
   -0.3970    1.3700   -0.0140 O   0  0  0  0  0  0  0  0  0  0  0  0
    0.7980    0.0390   -1.3930 N   0  0  0  0  0  0  0  0  0  0  0  0
    2.0630    0.6190   -1.5340 C   0  0  0  0  0  0  0  0  0  0  0  0
    2.9800    0.7940   -0.3780 C   0  0  0  0  0  0  0  0  0  0  0  0
    3.9860   -0.0640   -0.3540 C   0  0  0  0  0  0  0  0  0  0  0  0
    5.0770   -0.2620    0.5430 C   0  0  0  0  0  0  0  0  0  0  0  0
    6.0530   -1.1970    0.4350 C   0  0  0  0  0  0  0  0  0  0  0  0
    7.0450   -1.1740    1.4930 C   0  0  0  0  0  0  0  0  0  0  0  0
    6.4780   -0.7750    2.7010 O   0  0  0  0  0  0  0  0  0  0  0  0
    5.5460    0.5650    2.0800 S   0  0  0  0  0  0  0  0  0  0  0  0
    2.8340    1.8640    0.5380 C   0  0  0  0  0  0  0  0  0  0  0  0
    1.8020    2.8220    0.4740 N   0  0  0  0  0  0  0  0  0  0  0  0
    3.6310    2.0400    1.4920 O   0  0  0  0  0  0  0  0  0  0  0  0
   -3.7940   -1.1070   -0.2190 C   0  0  0  0  0  0  0  0  0  0  0  0
   -3.6090   -2.2820   -1.0720 C   0  0  0  0  0  0  0  0  0  0  0  0
   -5.0070   -0.9310    0.4080 C   0  0  0  0  0  0  0  0  0  0  0  0
  1  2  1  0
  2  3  2  0
  2 23  1  0
  3  4  1  0
  4  5  2  0
  5  6  1  0
  5 21  1  0
  6  7  1  0
  7  8  2  0
  7  9  1  0
  9 10  1  0
 10 11  1  0
 11 12  2  3
 11 18  1  0
 12 13  1  0
 13 14  2  0
 13 17  1  0
 14 15  1  0
 15 16  1  0
 16 17  1  0
 18 19  1  0
 18 20  2  0
 21 22  1  0
 21 23  2  0
M  END
