
     RDKit          3D

 22 23  0  0  0  0  0  0  0  0999 V2000
    6.7900   -1.3280    1.1000 C   0  0  0  0  0  0  0  0  0  0  0  0
    6.1780    0.0430    0.7850 C   0  0  0  0  0  0  0  0  0  0  0  0
    7.0200    1.1220    0.7490 C   0  0  0  0  0  0  0  0  0  0  0  0
    5.8870    2.4950    0.3520 S   0  0  0  0  0  0  0  0  0  0  0  0
    4.4250    1.4750    0.2810 C   0  0  0  0  0  0  0  0  0  0  0  0
    3.1280    2.0100   -0.0100 N   0  0  0  0  0  0  0  0  0  0  0  0
    1.9290    1.2290   -0.0770 C   0  0  0  0  0  0  0  0  0  0  0  0
    2.0620    0.0190    0.1350 O   0  0  0  0  0  0  0  0  0  0  0  0
    0.6640    1.8500   -0.3760 C   0  0  0  0  0  0  0  0  0  0  0  0
   -0.5330    1.3180   -0.4820 C   0  0  0  0  0  0  0  0  0  0  0  0
   -0.7850   -0.0680   -0.3020 C   0  0  0  0  0  0  0  0  0  0  0  0
   -1.8610   -0.7460   -0.3790 C   0  0  0  0  0  0  0  0  0  0  0  0
   -3.2360   -0.4650   -0.6690 C   0  0  0  0  0  0  0  0  0  0  0  0
   -3.7210    0.7010   -1.2020 C   0  0  0  0  0  0  0  0  0  0  0  0
   -5.0710    0.8880   -1.3820 C   0  0  0  0  0  0  0  0  0  0  0  0
   -5.5650    2.0730   -1.9210 O   0  0  0  0  0  0  0  0  0  0  0  0
   -5.9890   -0.0790   -1.0410 C   0  0  0  0  0  0  0  0  0  0  0  0
   -5.5020   -1.2500   -0.5080 C   0  0  0  0  0  0  0  0  0  0  0  0
   -4.1720   -1.4750   -0.3120 C   0  0  0  0  0  0  0  0  0  0  0  0
   -3.7170   -2.7040    0.2480 N   0  0  0  0  0  0  0  0  0  0  0  0
   -3.5570   -2.9060    1.6140 N   0  0  0  0  0  0  0  0  0  0  0  0
    4.8700    0.2630    0.5430 C   0  0  0  0  0  0  0  0  0  0  0  0
  1  2  1  0
  2  3  2  0
  2 22  1  0
  3  4  1  0
  4  5  1  0
  5  6  1  0
  5 22  2  0
  6  7  1  0
  7  8  2  0
  7  9  1  0
  9 10  2  3
 10 11  1  0
 11 12  2  3
 12 13  1  0
 13 14  2  0
 13 19  1  0
 14 15  1  0
 15 16  1  0
 15 17  2  0
 17 18  1  0
 18 19  2  0
 19 20  1  0
 20 21  1  0
M  END
