
     RDKit          3D

 23 24  0  0  0  0  0  0  0  0999 V2000
   -4.3940    1.6760   -0.2430 C   0  0  0  0  0  0  0  0  0  0  0  0
   -3.8810    0.6660   -1.1690 C   0  0  0  0  0  0  0  0  0  0  0  0
   -4.6490    0.2760   -2.0920 O   0  0  0  0  0  0  0  0  0  0  0  0
   -2.5230    0.1170   -1.0400 C   0  0  0  0  0  0  0  0  0  0  0  0
   -1.7000    0.6170    0.0500 C   0  0  0  0  0  0  0  0  0  0  0  0
   -2.2140    1.4950    0.8130 O   0  0  0  0  0  0  0  0  0  0  0  0
   -0.3830    0.2310    0.3530 N   0  0  0  0  0  0  0  0  0  0  0  0
    0.4140    0.7170    1.4240 C   0  0  0  0  0  0  0  0  0  0  0  0
   -0.0660    1.4800    2.4640 C   0  0  0  0  0  0  0  0  0  0  0  0
    0.7730    1.8670    3.5110 C   0  0  0  0  0  0  0  0  0  0  0  0
    2.0990    1.4960    3.5310 C   0  0  0  0  0  0  0  0  0  0  0  0
    2.5510    0.7400    2.4880 C   0  0  0  0  0  0  0  0  0  0  0  0
    1.7680    0.3230    1.4140 C   0  0  0  0  0  0  0  0  0  0  0  0
    2.3700   -0.4410    0.3330 C   0  0  0  0  0  0  0  0  0  0  0  0
    2.2980   -0.0940   -0.9960 C   0  0  0  0  0  0  0  0  0  0  0  0
    2.9040   -0.8130   -1.9950 C   0  0  0  0  0  0  0  0  0  0  0  0
    3.6190   -1.9330   -1.6760 C   0  0  0  0  0  0  0  0  0  0  0  0
    3.7050   -2.2930   -0.3820 N   0  0  0  0  0  0  0  0  0  0  0  0
    3.1100   -1.5890    0.6080 C   0  0  0  0  0  0  0  0  0  0  0  0
    3.2410   -1.9940    1.7760 O   0  0  0  0  0  0  0  0  0  0  0  0
   -2.1920   -0.7670   -1.9190 C   0  0  0  0  0  0  0  0  0  0  0  0
   -3.1960   -1.1100   -2.9230 N   0  0  0  0  0  0  0  0  0  0  0  0
   -0.6590   -1.6280   -2.0690 S   0  0  0  0  0  0  0  0  0  0  0  0
  1  2  1  0
  2  3  2  0
  2  4  1  0
  4  5  1  0
  4 21  2  3
  5  6  2  0
  5  7  1  0
  7  8  1  0
  8  9  2  0
  8 13  1  0
  9 10  1  0
 10 11  2  0
 11 12  1  0
 12 13  2  0
 13 14  1  0
 14 15  2  0
 14 19  1  0
 15 16  1  0
 16 17  2  0
 17 18  1  0
 18 19  1  0
 19 20  2  0
 21 22  1  0
 21 23  1  0
M  END
