
     RDKit          3D

 23 24  0  0  0  0  0  0  0  0999 V2000
    7.2040   -0.1130    1.9810 C   0  0  0  0  0  0  0  0  0  0  0  0
    6.2630    0.7760    1.3650 O   0  0  0  0  0  0  0  0  0  0  0  0
    5.0970    0.2190    0.8090 C   0  0  0  0  0  0  0  0  0  0  0  0
    4.9450   -1.0150    0.8830 O   0  0  0  0  0  0  0  0  0  0  0  0
    4.1180    0.9990    0.1860 N   0  0  0  0  0  0  0  0  0  0  0  0
    2.9060    0.6090   -0.4140 C   0  0  0  0  0  0  0  0  0  0  0  0
    2.5170   -0.6960   -0.4510 C   0  0  0  0  0  0  0  0  0  0  0  0
    1.3120   -1.0970   -1.0450 C   0  0  0  0  0  0  0  0  0  0  0  0
    0.4720   -0.1830   -1.6180 C   0  0  0  0  0  0  0  0  0  0  0  0
   -0.7590   -0.5570   -2.2000 N   0  0  0  0  0  0  0  0  0  0  0  0
   -1.7080   -1.3300   -1.5030 C   0  0  0  0  0  0  0  0  0  0  0  0
   -3.1110   -1.7900   -2.2530 S   0  0  0  0  0  0  0  0  0  0  0  0
   -1.4850   -1.7370   -0.1750 N   0  0  0  0  0  0  0  0  0  0  0  0
   -2.4710   -2.5370    0.5290 C   0  0  0  0  0  0  0  0  0  0  0  0
   -3.6640   -1.7590    0.8420 C   0  0  0  0  0  0  0  0  0  0  0  0
   -4.7160   -2.4310    1.4880 O   0  0  0  0  0  0  0  0  0  0  0  0
   -3.7600   -0.4920    0.5400 C   0  0  0  0  0  0  0  0  0  0  0  0
   -5.0240    0.2460    0.8940 C   0  0  1  0  0  0  0  0  0  0  0  0
   -4.9710    1.7740    0.6220 C   0  0  0  0  0  0  0  0  0  0  0  0
   -5.8320    0.8690   -0.1690 C   0  0  0  0  0  0  0  0  0  0  0  0
    0.8920    1.1420   -1.5680 C   0  0  0  0  0  0  0  0  0  0  0  0
    2.0590    1.5350   -0.9930 C   0  0  0  0  0  0  0  0  0  0  0  0
    2.4630    2.9610   -0.9620 C   0  0  0  0  0  0  0  0  0  0  0  0
  1  2  1  0
  2  3  1  0
  3  4  2  0
  3  5  1  0
  5  6  1  0
  6  7  2  0
  6 22  1  0
  7  8  1  0
  8  9  2  0
  9 10  1  0
  9 21  1  0
 10 11  1  0
 11 12  2  0
 11 13  1  0
 13 14  1  0
 14 15  1  0
 15 16  1  0
 15 17  2  3
 18 17  1  6
 18 19  1  0
 18 20  1  0
 19 20  1  0
 21 22  2  0
 22 23  1  0
M  END
