
     RDKit          3D

 26 29  0  0  0  0  0  0  0  0999 V2000
   -0.5080   -1.3750    1.7170 C   0  0  0  0  0  0  0  0  0  0  0  0
    0.6560   -0.8390    0.9880 C   0  0  0  0  0  0  0  0  0  0  0  0
    1.8790   -0.9440    1.6630 C   0  0  0  0  0  0  0  0  0  0  0  0
    3.0230   -0.4680    1.0870 C   0  0  0  0  0  0  0  0  0  0  0  0
    2.9230    0.1220   -0.1880 C   0  0  0  0  0  0  0  0  0  0  0  0
    1.7330    0.2330   -0.8690 C   0  0  0  0  0  0  0  0  0  0  0  0
    1.7160    0.8470   -2.2140 C   0  0  0  0  0  0  0  0  0  0  0  0
    0.6000   -0.2550   -0.2630 C   0  0  0  0  0  0  0  0  0  0  0  0
   -0.7600   -0.1890   -0.9210 C   0  0  0  0  0  0  0  0  0  0  0  0
   -1.5410    0.8290   -0.2470 C   0  0  0  0  0  0  0  0  0  0  0  0
   -2.7830    0.6960    0.0900 C   0  0  0  0  0  0  0  0  0  0  0  0
   -3.6130   -0.4450   -0.1380 C   0  0  1  0  0  0  0  0  0  0  0  0
   -3.5140   -1.3450   -1.2890 C   0  0  0  0  0  0  0  0  0  0  0  0
   -3.5060   -2.7730   -0.7050 C   0  0  0  0  0  0  0  0  0  0  0  0
   -4.2750   -2.5890    0.5710 C   0  0  0  0  0  0  0  0  0  0  0  0
   -4.0900   -1.2060    1.0820 C   0  0  0  0  0  0  0  0  0  0  0  0
   -3.3450    1.9320    0.8080 C   0  0  0  0  0  0  0  0  0  0  0  0
   -3.2050    3.0460   -0.2110 C   0  0  0  0  0  0  0  0  0  0  0  0
   -1.7220    3.3050   -0.3930 C   0  0  0  0  0  0  0  0  0  0  0  0
   -0.8930    2.1370    0.1000 C   0  0  0  0  0  0  0  0  0  0  0  0
    4.0940    0.6670   -0.8560 C   0  0  2  0  0  0  0  0  0  0  0  0
    3.9960    1.4180   -1.9590 O   0  0  0  0  0  0  0  0  0  0  0  0
    5.1080   -0.4660   -0.9490 C   0  0  0  0  0  0  0  0  0  0  0  0
    6.0170   -0.4330    0.2570 C   0  0  0  0  0  0  0  0  0  0  0  0
    5.4600   -1.0910    1.4750 C   0  0  0  0  0  0  0  0  0  0  0  0
    4.1830   -0.6390    1.8720 O   0  0  0  0  0  0  0  0  0  0  0  0
  1  2  1  0
  2  3  2  0
  2  8  1  0
  3  4  1  0
  4  5  2  0
  4 26  1  0
  5  6  1  0
  5 21  1  0
  6  7  1  0
  6  8  2  0
  8  9  1  0
  9 10  1  0
 10 11  2  0
 10 20  1  0
 12 11  1  1
 11 17  1  0
 12 13  1  0
 12 16  1  0
 13 14  1  0
 14 15  1  0
 15 16  1  0
 17 18  1  0
 18 19  1  0
 19 20  1  0
 21 22  1  6
 21 23  1  0
 23 24  1  0
 24 25  1  0
 25 26  1  0
M  END
