
     RDKit          3D

 15 15  0  0  0  0  0  0  0  0999 V2000
   -0.6700   -2.3970    0.9030 O   0  0  0  0  0  0  0  0  0  0  0  0
    0.5230   -1.6390    0.8310 C   0  0  0  0  0  0  0  0  0  0  0  0
    0.0980   -0.3150    0.1950 C   0  0  2  0  0  0  0  0  0  0  0  0
    1.2950    0.5650    0.0750 C   0  0  0  0  0  0  0  0  0  0  0  0
    2.3990   -0.0100   -0.7720 C   0  0  0  0  0  0  0  0  0  0  0  0
    3.8060    1.1670   -0.8370 S   0  0  0  0  0  0  0  0  0  0  0  0
    4.5310    1.3380    0.7010 O   0  0  0  0  0  0  0  0  0  0  0  0
   -0.9070    0.2890    1.1510 C   0  0  1  0  0  0  0  0  0  0  0  0
   -0.2090    0.6290    2.3080 O   0  0  0  0  0  0  0  0  0  0  0  0
   -1.6730    1.4300    0.5600 C   0  0  0  0  0  0  0  0  0  0  0  0
   -2.7640    0.8650   -0.3090 C   0  0  0  0  0  0  0  0  0  0  0  0
   -2.4190    0.7230   -1.6220 O   0  0  0  0  0  0  0  0  0  0  0  0
   -1.0830    0.5100   -1.8690 C   0  0  0  0  0  0  0  0  0  0  0  0
   -0.5020   -0.6590   -1.1350 C   0  0  2  0  0  0  0  0  0  0  0  0
   -1.5050   -1.6170   -1.0060 O   0  0  0  0  0  0  0  0  0  0  0  0
  1  2  1  0
  3  2  1  1
  3  4  1  0
  3  8  1  0
  3 14  1  0
  4  5  1  0
  5  6  1  0
  6  7  1  0
  8  9  1  1
  8 10  1  0
 10 11  1  0
 11 12  1  0
 12 13  1  0
 13 14  1  0
 14 15  1  1
M  END
