
     RDKit          3D

 15 15  0  0  0  0  0  0  0  0999 V2000
    0.0290   -2.1650   -1.0860 C   0  0  0  0  0  0  0  0  0  0  0  0
   -0.8780   -1.0960   -0.5230 C   0  0  1  0  0  0  0  0  0  0  0  0
   -1.4770   -0.4610   -1.6330 O   0  0  0  0  0  0  0  0  0  0  0  0
   -1.8240   -1.7250    0.2650 O   0  0  0  0  0  0  0  0  0  0  0  0
   -2.6190   -0.9340    1.0300 C   0  0  0  0  0  0  0  0  0  0  0  0
   -1.8060    0.0480    1.8880 C   0  0  0  0  0  0  0  0  0  0  0  0
   -1.0430    0.8820    0.8870 C   0  0  1  0  0  0  0  0  0  0  0  0
   -1.9580    1.3240   -0.0710 O   0  0  0  0  0  0  0  0  0  0  0  0
   -0.3730    2.0720    1.4790 C   0  0  0  0  0  0  0  0  0  0  0  0
    0.2770    2.7440    0.4250 O   0  0  0  0  0  0  0  0  0  0  0  0
   -0.0790   -0.0670    0.1980 C   0  0  2  0  0  0  0  0  0  0  0  0
    0.9480    0.9110   -0.8790 S   0  0  0  0  0  0  0  0  0  0  0  0
    2.3080    0.0470   -1.6470 C   0  0  0  0  0  0  0  0  0  0  0  0
    3.3720   -0.3880   -0.6510 C   0  0  0  0  0  0  0  0  0  0  0  0
    3.8760    0.7540   -0.0250 O   0  0  0  0  0  0  0  0  0  0  0  0
  2  1  1  6
  2  3  1  0
  2  4  1  0
  2 11  1  0
  4  5  1  0
  5  6  1  0
  6  7  1  0
  7  8  1  6
  7  9  1  0
  7 11  1  0
  9 10  1  0
 11 12  1  6
 12 13  1  0
 13 14  1  0
 14 15  1  0
M  END
