
     RDKit          3D

 15 15  0  0  0  0  0  0  0  0999 V2000
   -1.2550   -2.7440   -0.5480 O   0  0  0  0  0  0  0  0  0  0  0  0
   -1.6110   -1.8900    0.5080 C   0  0  0  0  0  0  0  0  0  0  0  0
   -1.9200   -0.5090   -0.0240 C   0  0  0  0  0  0  0  0  0  0  0  0
   -3.1120   -0.0410    0.1870 C   0  0  0  0  0  0  0  0  0  0  0  0
   -3.6790    1.2530   -0.2130 C   0  0  1  0  0  0  0  0  0  0  0  0
   -4.1090    1.9470    0.9190 O   0  0  0  0  0  0  0  0  0  0  0  0
   -2.5120    2.2770   -1.1100 S   0  0  0  0  0  0  0  0  0  0  0  0
   -0.9920    1.3440   -1.2230 C   0  0  0  0  0  0  0  0  0  0  0  0
   -0.8470    0.1510   -0.7190 C   0  0  0  0  0  0  0  0  0  0  0  0
    0.4160   -0.4460   -0.8950 O   0  0  0  0  0  0  0  0  0  0  0  0
    1.5100    0.2720   -0.3550 C   0  0  0  0  0  0  0  0  0  0  0  0
    2.8140   -0.4570   -0.6010 C   0  0  2  0  0  0  0  0  0  0  0  0
    2.8220   -1.7190   -0.0220 O   0  0  0  0  0  0  0  0  0  0  0  0
    4.0050    0.3270   -0.1670 C   0  0  0  0  0  0  0  0  0  0  0  0
    4.0890    0.5250    1.1890 O   0  0  0  0  0  0  0  0  0  0  0  0
  1  2  1  0
  2  3  1  0
  3  4  2  0
  3  9  1  0
  4  5  1  0
  5  6  1  1
  5  7  1  0
  7  8  1  0
  8  9  2  0
  9 10  1  0
 10 11  1  0
 11 12  1  0
 12 13  1  1
 12 14  1  0
 14 15  1  0
M  END
