
     RDKit          3D

 15 15  0  0  0  0  0  0  0  0999 V2000
   -0.3470    0.6560    1.4810 C   0  0  0  0  0  0  0  0  0  0  0  0
   -0.8350    0.5400    0.0780 C   0  0  2  0  0  0  0  0  0  0  0  0
   -1.7210    1.7650   -0.1840 C   0  0  0  0  0  0  0  0  0  0  0  0
   -1.7780   -0.6530   -0.0920 C   0  0  2  0  0  0  0  0  0  0  0  0
   -2.8020   -0.5380    0.8240 O   0  0  0  0  0  0  0  0  0  0  0  0
   -1.0530   -1.9610   -0.0400 C   0  0  1  0  0  0  0  0  0  0  0  0
   -1.9160   -2.9600   -0.4330 O   0  0  0  0  0  0  0  0  0  0  0  0
    0.0680   -1.8840   -1.0860 C   0  0  0  0  0  0  0  0  0  0  0  0
    0.8860   -0.8270   -0.6750 O   0  0  0  0  0  0  0  0  0  0  0  0
    0.2460    0.4110   -0.9300 C   0  0  1  0  0  0  0  0  0  0  0  0
   -0.3060    0.2620   -2.2080 O   0  0  0  0  0  0  0  0  0  0  0  0
    1.3120    1.4480   -0.9000 C   0  0  0  0  0  0  0  0  0  0  0  0
    2.2380    1.5240    0.6490 S   0  0  0  0  0  0  0  0  0  0  0  0
    3.2370    0.0330    0.9030 C   0  0  0  0  0  0  0  0  0  0  0  0
    3.9260    0.1480    2.1090 O   0  0  0  0  0  0  0  0  0  0  0  0
  2  1  1  1
  2  3  1  0
  2  4  1  0
  2 10  1  0
  4  5  1  1
  4  6  1  0
  6  7  1  6
  6  8  1  0
  8  9  1  0
  9 10  1  0
 10 11  1  6
 10 12  1  0
 12 13  1  0
 13 14  1  0
 14 15  1  0
M  END
