
     RDKit          3D

 11 11  0  0  0  0  0  0  0  0999 V2000
   -2.8910    0.8500   -0.2680 O   0  0  0  0  0  0  0  0  0  0  0  0
   -2.5890   -0.5000   -0.2440 C   0  0  0  0  0  0  0  0  0  0  0  0
   -1.1920   -0.7640    0.2720 C   0  0  2  0  0  0  0  0  0  0  0  0
   -1.0310   -0.2890    1.5670 O   0  0  0  0  0  0  0  0  0  0  0  0
    0.3800   -0.2620    1.6610 C   0  0  0  0  0  0  0  0  0  0  0  0
    0.7010    0.4180    0.3300 C   0  0  1  0  0  0  0  0  0  0  0  0
    0.4850    1.7760    0.4030 O   0  0  0  0  0  0  0  0  0  0  0  0
    2.1360    0.1310   -0.0270 C   0  0  1  0  0  0  0  0  0  0  0  0
    2.4250   -1.2030   -0.1180 O   0  0  0  0  0  0  0  0  0  0  0  0
    2.4740    0.8540   -1.1690 O   0  0  0  0  0  0  0  0  0  0  0  0
   -0.2080   -0.1890   -0.5060 O   0  0  0  0  0  0  0  0  0  0  0  0
  1  2  1  0
  3  2  1  6
  3  4  1  0
  3 11  1  0
  4  5  1  0
  5  6  1  0
  6  7  1  1
  6  8  1  0
  6 11  1  0
  8  9  1  6
  8 10  1  0
M  END
