
     RDKit          3D

 12 12  0  0  0  0  0  0  0  0999 V2000
   -1.1210    2.7930   -0.8200 O   0  0  0  0  0  0  0  0  0  0  0  0
   -0.8020    1.5990   -0.6340 C   0  0  0  0  0  0  0  0  0  0  0  0
    0.4990    1.1380   -0.7530 O   0  0  0  0  0  0  0  0  0  0  0  0
    1.0560    0.2250    0.2040 C   0  0  2  0  0  0  0  0  0  0  0  0
    2.2370   -0.4340   -0.4460 C   0  0  0  0  0  0  0  0  0  0  0  0
    3.1800    0.5290   -0.8060 O   0  0  0  0  0  0  0  0  0  0  0  0
    0.0050   -0.6990    0.6880 C   0  0  2  0  0  0  0  0  0  0  0  0
    0.4640   -1.9570    1.0460 O   0  0  0  0  0  0  0  0  0  0  0  0
   -1.1880   -0.7830   -0.2550 C   0  0  2  0  0  0  0  0  0  0  0  0
   -0.8030   -1.1550   -1.5380 O   0  0  0  0  0  0  0  0  0  0  0  0
   -1.8440    0.5940   -0.2640 C   0  0  1  0  0  0  0  0  0  0  0  0
   -2.2820    0.8980    1.0070 O   0  0  0  0  0  0  0  0  0  0  0  0
  1  2  2  0
  2  3  1  0
  2 11  1  0
  3  4  1  0
  4  5  1  6
  4  7  1  0
  5  6  1  0
  7  8  1  6
  7  9  1  0
  9 10  1  6
  9 11  1  0
 11 12  1  1
M  END
