
     RDKit          3D

 12 12  0  0  0  0  0  0  0  0999 V2000
    2.6410   -0.5590   -1.3680 O   0  0  0  0  0  0  0  0  0  0  0  0
    2.5360   -0.2690    0.0010 C   0  0  0  0  0  0  0  0  0  0  0  0
    1.1450    0.1910    0.3610 C   0  0  2  0  0  0  0  0  0  0  0  0
    1.1300    0.4550    1.7260 O   0  0  0  0  0  0  0  0  0  0  0  0
    0.1630   -0.8760   -0.0400 C   0  0  0  0  0  0  0  0  0  0  0  0
   -0.9460   -0.0320   -0.6790 C   0  0  1  0  0  0  0  0  0  0  0  0
   -0.7890   -0.1190   -2.0440 O   0  0  0  0  0  0  0  0  0  0  0  0
   -2.2840   -0.5330   -0.1920 C   0  0  0  0  0  0  0  0  0  0  0  0
   -2.3020   -0.3840    1.2000 O   0  0  0  0  0  0  0  0  0  0  0  0
   -0.6180    1.3360   -0.1220 C   0  0  1  0  0  0  0  0  0  0  0  0
   -0.9010    1.3020    1.2450 O   0  0  0  0  0  0  0  0  0  0  0  0
    0.7850    1.3580   -0.2990 O   0  0  0  0  0  0  0  0  0  0  0  0
  1  2  1  0
  2  3  1  0
  3  4  1  1
  3  5  1  0
  3 12  1  0
  5  6  1  0
  6  7  1  6
  6  8  1  0
  6 10  1  0
  8  9  1  0
 10 11  1  1
 10 12  1  0
M  END
