
     RDKit          3D

 18 20  0  0  0  0  0  0  0  0999 V2000
    1.6290   -2.4560    0.0680 C   0  0  0  0  0  0  0  0  0  0  0  0
    1.3700   -0.9930    0.1000 C   0  0  0  0  0  0  0  0  0  0  0  0
    2.3390   -0.1240    0.2910 C   0  0  0  0  0  0  0  0  0  0  0  0
    3.7350   -0.5460    0.4880 C   0  0  0  0  0  0  0  0  0  0  0  0
    4.6140   -0.0080   -0.5350 N   0  0  0  0  0  0  0  0  0  0  0  0
    2.0580    1.3090    0.3010 C   0  0  0  0  0  0  0  0  0  0  0  0
    2.9770    2.1700    0.4850 O   0  0  0  0  0  0  0  0  0  0  0  0
    0.7450    1.8000    0.1060 N   0  0  0  0  0  0  0  0  0  0  0  0
    0.0790    3.0760    0.2830 C   0  0  0  0  0  0  0  0  0  0  0  0
   -1.4060    2.7820    0.3020 C   0  0  0  0  0  0  0  0  0  0  0  0
   -1.4400    1.3080    0.4880 C   0  0  1  0  0  0  0  0  0  0  0  0
   -2.6410    0.6250   -0.0760 C   0  0  0  0  0  0  0  0  0  0  0  0
   -2.4600   -0.8570   -0.1260 C   0  0  1  0  0  0  0  0  0  0  0  0
   -3.2760   -1.5590    0.9640 C   0  0  0  0  0  0  0  0  0  0  0  0
   -3.0040   -1.3470   -1.4580 C   0  0  0  0  0  0  0  0  0  0  0  0
   -1.0640   -1.3030    0.0440 C   0  0  0  0  0  0  0  0  0  0  0  0
    0.0020   -0.5210   -0.0740 C   0  0  0  0  0  0  0  0  0  0  0  0
   -0.2460    0.8940   -0.3900 C   0  0  2  0  0  0  0  0  0  0  0  0
  1  2  1  0
  2  3  2  0
  2 17  1  0
  3  4  1  0
  3  6  1  0
  4  5  1  0
  6  7  2  0
  6  8  1  0
  8  9  1  0
 18  8  1  1
  9 10  1  0
 11 10  1  6
 11 12  1  0
 11 18  1  0
 12 13  1  0
 13 14  1  1
 13 15  1  0
 13 16  1  0
 16 17  2  0
 17 18  1  0
M  CHG  1   5   1
M  END
