
     RDKit          3D

 12 12  0  0  0  0  0  0  0  0999 V2000
   -2.4880    1.7740    0.0800 O   0  0  0  0  0  0  0  0  0  0  0  0
   -2.0850    0.4710    0.3480 C   0  0  0  0  0  0  0  0  0  0  0  0
   -0.6130    0.3180    0.0430 C   0  0  1  0  0  0  0  0  0  0  0  0
   -0.3740    0.5980   -1.2920 O   0  0  0  0  0  0  0  0  0  0  0  0
    0.1710    1.1530    0.8290 O   0  0  0  0  0  0  0  0  0  0  0  0
    1.4450    1.2740    0.3420 C   0  0  2  0  0  0  0  0  0  0  0  0
    1.4440    2.3780   -0.5420 O   0  0  0  0  0  0  0  0  0  0  0  0
    2.0120    0.0810   -0.3120 C   0  0  0  0  0  0  0  0  0  0  0  0
    1.2840   -1.1900   -0.1720 C   0  0  0  0  0  0  0  0  0  0  0  0
   -0.1250   -1.0870    0.3120 C   0  0  1  0  0  0  0  0  0  0  0  0
   -0.1290   -1.3140    1.7050 O   0  0  0  0  0  0  0  0  0  0  0  0
   -0.9540   -2.0300   -0.3060 O   0  0  0  0  0  0  0  0  0  0  0  0
  1  2  1  0
  2  3  1  0
  3  4  1  6
  3  5  1  0
  3 10  1  0
  5  6  1  0
  6  7  1  6
  6  8  1  0
  8  9  1  0
  9 10  1  0
 10 11  1  1
 10 12  1  0
M  END
