
     RDKit          3D

 20 21  0  0  0  0  0  0  0  0999 V2000
    4.5890    0.2280   -0.2250 N   0  0  0  0  0  0  0  0  0  0  0  0
    3.2320    0.7190   -0.3250 C   0  0  0  0  0  0  0  0  0  0  0  0
    3.0040    1.8570   -0.7190 O   0  0  0  0  0  0  0  0  0  0  0  0
    2.1490   -0.1570    0.0470 N   0  0  0  0  0  0  0  0  0  0  0  0
    0.8070    0.1990    0.0140 C   0  0  0  0  0  0  0  0  0  0  0  0
   -0.1130   -0.7160    0.3580 C   0  0  0  0  0  0  0  0  0  0  0  0
    0.5900   -1.8010    0.6720 N   0  0  0  0  0  0  0  0  0  0  0  0
   -0.0490   -2.9380    1.0620 C   0  0  0  0  0  0  0  0  0  0  0  0
    0.6700   -3.9430    1.3500 O   0  0  0  0  0  0  0  0  0  0  0  0
   -1.3650   -2.9830    1.1330 N   0  0  0  0  0  0  0  0  0  0  0  0
   -2.1350   -1.9310    0.8310 C   0  0  0  0  0  0  0  0  0  0  0  0
   -3.3710   -2.0500    0.9220 O   0  0  0  0  0  0  0  0  0  0  0  0
   -1.5110   -0.7670    0.4320 C   0  0  0  0  0  0  0  0  0  0  0  0
   -2.5360    0.0070    0.1370 C   0  0  0  0  0  0  0  0  0  0  0  0
   -2.7610    1.3290   -0.4280 C   0  0  0  0  0  0  0  0  0  0  0  0
   -1.9370    2.2780   -0.8720 C   0  0  0  0  0  0  0  0  0  0  0  0
   -2.5380    3.4020   -1.3380 O   0  0  0  0  0  0  0  0  0  0  0  0
   -0.4550    2.3340   -0.9500 C   0  0  0  0  0  0  0  0  0  0  0  0
   -0.0150    3.2030   -1.7440 O   0  0  0  0  0  0  0  0  0  0  0  0
    0.5390    1.5790   -0.2860 N   0  0  0  0  0  0  0  0  0  0  0  0
  1  2  1  0
  2  3  2  0
  2  4  1  0
  4  5  1  0
  5  6  2  0
  5 20  1  0
  6  7  1  0
  6 13  1  0
  7  8  1  0
  8  9  2  0
  8 10  1  0
 10 11  1  0
 11 12  2  0
 11 13  1  0
 13 14  2  0
 14 15  1  0
 15 16  2  0
 16 17  1  0
 16 18  1  0
 18 19  2  0
 18 20  1  0
M  END
