
     RDKit          3D

 20 22  0  0  0  0  0  0  0  0999 V2000
    4.9930    1.5440    0.5860 N   0  0  0  0  0  0  0  0  0  0  0  0
    4.0090    0.5260    0.4410 C   0  0  0  0  0  0  0  0  0  0  0  0
    4.3100   -0.7700    0.6370 N   0  0  0  0  0  0  0  0  0  0  0  0
    3.3620   -1.7020    0.4930 C   0  0  0  0  0  0  0  0  0  0  0  0
    2.0980   -1.3930    0.1550 N   0  0  0  0  0  0  0  0  0  0  0  0
    1.7290   -0.1180   -0.0550 C   0  0  0  0  0  0  0  0  0  0  0  0
    2.7160    0.8490    0.0950 C   0  0  0  0  0  0  0  0  0  0  0  0
    2.1040    2.0160   -0.1640 N   0  0  0  0  0  0  0  0  0  0  0  0
    0.8120    1.8000   -0.4600 C   0  0  0  0  0  0  0  0  0  0  0  0
    0.0150    2.7370   -0.7420 O   0  0  0  0  0  0  0  0  0  0  0  0
    0.5710    0.4800   -0.3940 N   0  0  0  0  0  0  0  0  0  0  0  0
   -0.7000   -0.1050   -0.6500 C   0  0  2  0  0  0  0  0  0  0  0  0
   -1.7450    0.7830   -0.3270 O   0  0  0  0  0  0  0  0  0  0  0  0
   -2.8680   -0.0000   -0.5860 C   0  0  2  0  0  0  0  0  0  0  0  0
   -4.0880    0.5320    0.1570 C   0  0  0  0  0  0  0  0  0  0  0  0
   -3.8160    0.5080    1.5190 O   0  0  0  0  0  0  0  0  0  0  0  0
   -2.5450   -1.3950   -0.0840 C   0  0  1  0  0  0  0  0  0  0  0  0
   -2.7000   -2.2690   -1.1770 O   0  0  0  0  0  0  0  0  0  0  0  0
   -1.0510   -1.2540    0.2470 C   0  0  1  0  0  0  0  0  0  0  0  0
   -0.3900   -2.4150   -0.0190 O   0  0  0  0  0  0  0  0  0  0  0  0
  1  2  1  0
  2  3  2  0
  2  7  1  0
  3  4  1  0
  4  5  2  0
  5  6  1  0
  6  7  2  0
  6 11  1  0
  7  8  1  0
  8  9  1  0
  9 10  2  0
  9 11  1  0
 12 11  1  1
 12 13  1  0
 12 19  1  0
 13 14  1  0
 14 15  1  1
 14 17  1  0
 15 16  1  0
 17 18  1  6
 17 19  1  0
 19 20  1  6
M  END
