
     RDKit          3D

 20 21  0  0  0  0  0  0  0  0999 V2000
    1.8450   -1.1320   -2.1730 O   0  0  0  0  0  0  0  0  0  0  0  0
    2.0080   -1.0460   -0.8970 C   0  0  0  0  0  0  0  0  0  0  0  0
    2.4260    0.2410   -0.2870 C   0  0  0  0  0  0  0  0  0  0  0  0
    1.7130    1.3080   -0.9560 N   0  0  0  0  0  0  0  0  0  0  0  0
    1.2580    2.5250   -0.3950 C   0  0  0  0  0  0  0  0  0  0  0  0
    1.4780    3.5370   -1.1720 O   0  0  0  0  0  0  0  0  0  0  0  0
    0.6120    2.7770    0.8700 C   0  0  0  0  0  0  0  0  0  0  0  0
    1.1980    3.6520    1.6200 O   0  0  0  0  0  0  0  0  0  0  0  0
   -0.5620    2.2200    1.4240 N   0  0  0  0  0  0  0  0  0  0  0  0
   -1.6560    1.6220    0.6840 C   0  0  0  0  0  0  0  0  0  0  0  0
   -1.1990    0.4690   -0.1600 C   0  0  2  0  0  0  0  0  0  0  0  0
   -1.3780    0.4060   -1.5950 C   0  0  0  0  0  0  0  0  0  0  0  0
   -2.2320   -0.3890   -0.6860 C   0  0  1  0  0  0  0  0  0  0  0  0
   -1.9170   -1.8300   -0.4460 C   0  0  0  0  0  0  0  0  0  0  0  0
   -2.1180   -2.5880   -1.4270 O   0  0  0  0  0  0  0  0  0  0  0  0
   -1.4280   -2.3970    0.7600 N   0  0  0  0  0  0  0  0  0  0  0  0
   -0.2180   -2.1660    1.3990 N   0  0  0  0  0  0  0  0  0  0  0  0
    1.1080   -2.4510    1.0420 C   0  0  0  0  0  0  0  0  0  0  0  0
    1.9260   -2.9810    1.9400 O   0  0  0  0  0  0  0  0  0  0  0  0
    1.7560   -2.2550   -0.1960 N   0  0  0  0  0  0  0  0  0  0  0  0
  1  2  2  0
  2  3  1  0
  2 20  1  0
  3  4  1  0
  4  5  1  0
  5  6  2  0
  5  7  1  0
  7  8  2  0
  7  9  1  0
  9 10  1  0
 11 10  1  1
 11 12  1  0
 11 13  1  0
 13 12  1  6
 13 14  1  0
 14 15  2  0
 14 16  1  0
 16 17  1  0
 17 18  1  0
 18 19  2  0
 18 20  1  0
M  END
