
     RDKit          3D

 20 21  0  0  0  0  0  0  0  0999 V2000
   -0.7050   -0.2470   -0.7510 O   0  0  0  0  0  0  0  0  0  0  0  0
   -0.8950    0.8300   -0.1760 C   0  0  0  0  0  0  0  0  0  0  0  0
   -2.2210    1.3670    0.1610 C   0  0  0  0  0  0  0  0  0  0  0  0
   -3.2790    0.4660   -0.3420 C   0  0  1  0  0  0  0  0  0  0  0  0
   -3.2860   -0.9330    0.1930 C   0  0  0  0  0  0  0  0  0  0  0  0
   -4.6370   -1.4220   -0.3620 C   0  0  0  0  0  0  0  0  0  0  0  0
   -5.4650   -0.2340   -0.2900 N   0  0  0  0  0  0  0  0  0  0  0  0
   -4.6690    0.9180    0.0530 C   0  0  0  0  0  0  0  0  0  0  0  0
   -5.0030    2.0120    0.5460 O   0  0  0  0  0  0  0  0  0  0  0  0
    0.2410    1.6200    0.1910 N   0  0  0  0  0  0  0  0  0  0  0  0
    1.5130    1.1610   -0.1170 N   0  0  0  0  0  0  0  0  0  0  0  0
    2.2540    0.1950    0.5860 C   0  0  0  0  0  0  0  0  0  0  0  0
    1.7330   -0.3310    1.6010 O   0  0  0  0  0  0  0  0  0  0  0  0
    3.6110   -0.2140    0.1690 C   0  0  0  0  0  0  0  0  0  0  0  0
    4.3140   -1.1070    0.8020 C   0  0  0  0  0  0  0  0  0  0  0  0
    5.6190   -1.4530    0.3420 N   0  0  0  0  0  0  0  0  0  0  0  0
    6.1530   -0.8290   -0.7980 N   0  0  0  0  0  0  0  0  0  0  0  0
    5.3680    0.1370   -1.4640 C   0  0  0  0  0  0  0  0  0  0  0  0
    5.8290    0.7180   -2.4990 O   0  0  0  0  0  0  0  0  0  0  0  0
    4.1100    0.4260   -0.9670 O   0  0  0  0  0  0  0  0  0  0  0  0
  1  2  2  0
  2  3  1  0
  2 10  1  0
  4  3  1  1
  4  5  1  0
  4  8  1  0
  5  6  1  0
  6  7  1  0
  7  8  1  0
  8  9  2  0
 10 11  1  0
 11 12  1  0
 12 13  2  0
 12 14  1  0
 14 15  2  0
 14 20  1  0
 15 16  1  0
 16 17  1  0
 17 18  1  0
 18 19  2  0
 18 20  1  0
M  END
