
     RDKit          3D

 20 21  0  0  0  0  0  0  0  0999 V2000
    1.1790   -1.2010   -1.6400 N   0  0  0  0  0  0  0  0  0  0  0  0
    2.2110   -0.8630   -0.6930 C   0  0  0  0  0  0  0  0  0  0  0  0
    3.4400   -1.2420   -0.9750 C   0  0  0  0  0  0  0  0  0  0  0  0
    4.4510   -0.9340   -0.0900 O   0  0  0  0  0  0  0  0  0  0  0  0
    4.2560   -0.2370    1.1020 C   0  0  0  0  0  0  0  0  0  0  0  0
    2.8170    0.1510    1.3320 C   0  0  0  0  0  0  0  0  0  0  0  0
    1.8360   -0.1190    0.5260 C   0  0  0  0  0  0  0  0  0  0  0  0
    0.4840    0.2260    0.7060 N   0  0  0  0  0  0  0  0  0  0  0  0
   -0.0970    0.9290    1.7840 C   0  0  0  0  0  0  0  0  0  0  0  0
    0.6480    1.3090    2.7110 O   0  0  0  0  0  0  0  0  0  0  0  0
   -1.5540    1.2350    1.8600 C   0  0  0  0  0  0  0  0  0  0  0  0
   -2.2460    0.7140    0.6940 N   0  0  0  0  0  0  0  0  0  0  0  0
   -2.7540   -0.5220    0.6860 N   0  0  0  0  0  0  0  0  0  0  0  0
   -3.3950   -1.0300   -0.3710 C   0  0  0  0  0  0  0  0  0  0  0  0
   -3.8620   -2.2040   -0.3410 O   0  0  0  0  0  0  0  0  0  0  0  0
   -3.5580   -0.2790   -1.5170 C   0  0  0  0  0  0  0  0  0  0  0  0
   -4.1640   -0.7470   -2.5280 O   0  0  0  0  0  0  0  0  0  0  0  0
   -3.0510    0.9630   -1.5150 N   0  0  0  0  0  0  0  0  0  0  0  0
   -2.4080    1.4440   -0.4280 C   0  0  0  0  0  0  0  0  0  0  0  0
   -1.9260    2.6280   -0.4320 O   0  0  0  0  0  0  0  0  0  0  0  0
  1  2  1  0
  2  3  2  0
  2  7  1  0
  3  4  1  0
  4  5  1  0
  5  6  1  0
  6  7  2  0
  7  8  1  0
  8  9  1  0
  9 10  2  0
  9 11  1  0
 11 12  1  0
 12 13  1  0
 12 19  1  0
 13 14  1  0
 14 15  2  0
 14 16  1  0
 16 17  2  0
 16 18  1  0
 18 19  1  0
 19 20  2  0
M  END
