
     RDKit          3D

 20 21  0  0  0  0  0  0  0  0999 V2000
   -3.4310   -1.3880    0.4890 N   0  0  0  0  0  0  0  0  0  0  0  0
   -3.1300   -0.3400   -0.4160 C   0  0  0  0  0  0  0  0  0  0  0  0
   -3.8520    0.6870   -0.3890 O   0  0  0  0  0  0  0  0  0  0  0  0
   -2.0130   -0.4490   -1.3510 C   0  0  0  0  0  0  0  0  0  0  0  0
   -0.6710   -0.0810   -0.8580 C   0  0  2  0  0  0  0  0  0  0  0  0
    0.2090   -0.2700   -1.9710 O   0  0  0  0  0  0  0  0  0  0  0  0
   -0.1660   -1.0480    0.1990 C   0  0  0  0  0  0  0  0  0  0  0  0
    1.2150   -0.6120    0.6800 C   0  0  1  0  0  0  0  0  0  0  0  0
    2.0560   -1.7520    0.9210 N   0  0  0  0  0  0  0  0  0  0  0  0
    3.1620   -2.0700    0.1110 C   0  0  0  0  0  0  0  0  0  0  0  0
    3.8250   -3.1500    0.2890 O   0  0  0  0  0  0  0  0  0  0  0  0
    3.5480   -1.1790   -0.9180 N   0  0  0  0  0  0  0  0  0  0  0  0
    2.8380    0.0060   -1.1300 C   0  0  0  0  0  0  0  0  0  0  0  0
    3.1570    0.8270   -2.0420 O   0  0  0  0  0  0  0  0  0  0  0  0
    1.7280    0.3040   -0.3040 N   0  0  0  0  0  0  0  0  0  0  0  0
    1.0370    1.5970   -0.4320 C   0  0  0  0  0  0  0  0  0  0  0  0
   -0.4730    1.3390   -0.4580 C   0  0  2  0  0  0  0  0  0  0  0  0
   -1.0660    1.7150    0.8490 C   0  0  0  0  0  0  0  0  0  0  0  0
   -0.9840    3.0840    1.2050 N   0  0  0  0  0  0  0  0  0  0  0  0
   -1.6200    0.9570    1.6560 O   0  0  0  0  0  0  0  0  0  0  0  0
  1  2  1  0
  2  3  2  0
  2  4  1  0
  4  5  1  0
  5  6  1  6
  5  7  1  0
  5 17  1  0
  8  7  1  6
  8  9  1  0
  8 15  1  0
  9 10  1  0
 10 11  2  0
 10 12  1  0
 12 13  1  0
 13 14  2  0
 13 15  1  0
 15 16  1  0
 16 17  1  0
 17 18  1  1
 18 19  1  0
 18 20  2  0
M  END
