
     RDKit          3D

 20 21  0  0  0  0  0  0  0  0999 V2000
    3.4280   -2.1570   -1.3290 N   0  0  0  0  0  0  0  0  0  0  0  0
    2.5580   -1.4230   -0.5100 C   0  0  0  0  0  0  0  0  0  0  0  0
    1.4290   -1.9470   -0.2270 O   0  0  0  0  0  0  0  0  0  0  0  0
    2.8640   -0.1080    0.0320 C   0  0  0  0  0  0  0  0  0  0  0  0
    4.0470    0.4520   -0.2600 N   0  0  0  0  0  0  0  0  0  0  0  0
    4.3890    1.6830    0.2200 C   0  0  0  0  0  0  0  0  0  0  0  0
    5.5040    2.1980   -0.0620 O   0  0  0  0  0  0  0  0  0  0  0  0
    3.5350    2.3790    1.0110 N   0  0  0  0  0  0  0  0  0  0  0  0
    2.3370    1.8610    1.3330 C   0  0  0  0  0  0  0  0  0  0  0  0
    1.5660    2.5280    2.0670 O   0  0  0  0  0  0  0  0  0  0  0  0
    1.9970    0.5980    0.8350 C   0  0  0  0  0  0  0  0  0  0  0  0
    0.7330    0.0320    1.1630 N   0  0  0  0  0  0  0  0  0  0  0  0
   -0.4030    0.2730    0.3300 C   0  0  0  0  0  0  0  0  0  0  0  0
   -0.2700    0.9900   -0.6940 O   0  0  0  0  0  0  0  0  0  0  0  0
   -1.6830   -0.2630    0.6060 N   0  0  0  0  0  0  0  0  0  0  0  0
   -2.7680    0.0230   -0.2750 C   0  0  1  0  0  0  0  0  0  0  0  0
   -3.3790   -1.2490   -0.8710 C   0  0  0  0  0  0  0  0  0  0  0  0
   -4.7720   -0.7320   -1.1960 C   0  0  0  0  0  0  0  0  0  0  0  0
   -5.0940    0.2120   -0.2640 O   0  0  0  0  0  0  0  0  0  0  0  0
   -3.9760    0.5880    0.4280 C   0  0  0  0  0  0  0  0  0  0  0  0
  1  2  1  0
  2  3  2  0
  2  4  1  0
  4  5  1  0
  4 11  2  0
  5  6  1  0
  6  7  2  0
  6  8  1  0
  8  9  1  0
  9 10  2  0
  9 11  1  0
 11 12  1  0
 12 13  1  0
 13 14  2  0
 13 15  1  0
 16 15  1  1
 16 17  1  0
 16 20  1  0
 17 18  1  0
 18 19  1  0
 19 20  1  0
M  END
