
     RDKit          3D

 38 41  0  0  0  0  0  0  0  0999 V2000
   -7.9370   -2.4460    2.9920 C   0  0  0  0  0  0  0  0  0  0  0  0
   -6.7490   -1.9260    2.5480 C   0  0  0  0  0  0  0  0  0  0  0  0
   -5.8920   -1.4410    3.6270 C   0  0  0  0  0  0  0  0  0  0  0  0
   -6.5910   -1.8980    1.1350 C   0  0  0  0  0  0  0  0  0  0  0  0
   -5.7280   -1.5590    0.2730 C   0  0  0  0  0  0  0  0  0  0  0  0
   -4.3890   -1.0110    0.2370 C   0  0  0  0  0  0  0  0  0  0  0  0
   -3.4940   -1.0470    1.2920 C   0  0  0  0  0  0  0  0  0  0  0  0
   -2.2430   -0.4510    1.2190 C   0  0  0  0  0  0  0  0  0  0  0  0
   -1.8570    0.1990    0.0690 C   0  0  0  0  0  0  0  0  0  0  0  0
   -0.5700    0.8100   -0.0170 N   0  0  0  0  0  0  0  0  0  0  0  0
   -0.2480    1.5940   -1.1830 C   0  0  0  0  0  0  0  0  0  0  0  0
    0.9100    0.9160   -1.8740 C   0  0  0  0  0  0  0  0  0  0  0  0
    2.0390    0.8460   -0.9230 C   0  0  0  0  0  0  0  0  0  0  0  0
    1.8100    0.7310    0.4290 C   0  0  0  0  0  0  0  0  0  0  0  0
    3.0380    0.6820    1.0540 C   0  0  0  0  0  0  0  0  0  0  0  0
    3.2840    0.5580    2.5260 C   0  0  0  0  0  0  0  0  0  0  0  0
    3.9770    0.7670    0.0960 N   0  0  0  0  0  0  0  0  0  0  0  0
    5.4070    0.7480    0.3120 C   0  0  0  0  0  0  0  0  0  0  0  0
    5.9040   -0.6890    0.2510 C   0  0  0  0  0  0  0  0  0  0  0  0
    7.3700   -0.7460    0.4650 C   0  0  0  0  0  0  0  0  0  0  0  0
    8.2390   -0.6570   -0.6210 C   0  0  0  0  0  0  0  0  0  0  0  0
    9.6060   -0.7090   -0.4550 C   0  0  0  0  0  0  0  0  0  0  0  0
   10.1490   -0.8520    0.7980 C   0  0  0  0  0  0  0  0  0  0  0  0
   11.6200   -0.9040    0.9380 C   0  0  0  0  0  0  0  0  0  0  0  0
    9.2960   -0.9400    1.8710 C   0  0  0  0  0  0  0  0  0  0  0  0
    7.9310   -0.8880    1.7000 C   0  0  0  0  0  0  0  0  0  0  0  0
    3.4000    0.8700   -1.1320 C   0  0  0  0  0  0  0  0  0  0  0  0
    4.1070    0.9870   -2.4420 C   0  0  0  0  0  0  0  0  0  0  0  0
    4.0910   -0.2960   -3.2280 C   0  0  0  0  0  0  0  0  0  0  0  0
    0.4350    0.6790    1.0090 C   0  0  0  0  0  0  0  0  0  0  0  0
   -2.7350    0.2130   -0.9210 N   0  0  0  0  0  0  0  0  0  0  0  0
   -3.9490   -0.3310   -0.9260 C   0  0  0  0  0  0  0  0  0  0  0  0
   -4.8360   -0.1970   -2.1020 C   0  0  0  0  0  0  0  0  0  0  0  0
   -5.7870    0.9210   -2.1260 C   0  0  0  0  0  0  0  0  0  0  0  0
   -6.7250    1.1370   -1.1190 N   0  0  0  0  0  0  0  0  0  0  0  0
   -6.3020    1.6070    0.1460 C   0  0  0  0  0  0  0  0  0  0  0  0
   -8.0320    1.5480   -1.5360 C   0  0  0  0  0  0  0  0  0  0  0  0
   -8.8040    0.5020   -2.2730 C   0  0  0  0  0  0  0  0  0  0  0  0
  1  2  2  0
  2  3  1  0
  2  4  1  0
  4  5  2  3
  5  6  1  0
  6  7  2  0
  6 32  1  0
  7  8  1  0
  8  9  2  0
  9 10  1  0
  9 31  1  0
 10 11  1  0
 10 30  1  0
 11 12  1  0
 12 13  1  0
 13 14  1  0
 13 27  2  0
 14 15  2  0
 14 30  1  0
 15 16  1  0
 15 17  1  0
 17 18  1  0
 17 27  1  0
 18 19  1  0
 19 20  1  0
 20 21  2  0
 20 26  1  0
 21 22  1  0
 22 23  2  0
 23 24  1  0
 23 25  1  0
 25 26  2  0
 27 28  1  0
 28 29  1  0
 31 32  2  0
 32 33  1  0
 33 34  1  0
 34 35  1  0
 35 36  1  0
 35 37  1  0
 37 38  1  0
M  END
