
     RDKit          3D

 38 42  0  0  0  0  0  0  0  0999 V2000
  -11.5720    0.4900    1.3260 C   0  0  0  0  0  0  0  0  0  0  0  0
  -10.4960    0.1050    1.9540 C   0  0  0  0  0  0  0  0  0  0  0  0
   -9.3560    0.9290    2.2800 C   0  0  0  0  0  0  0  0  0  0  0  0
   -8.3560    0.3660    2.9450 C   0  0  0  0  0  0  0  0  0  0  0  0
   -9.2820    2.3490    1.9130 C   0  0  0  0  0  0  0  0  0  0  0  0
   -9.0590    2.4650    0.4070 C   0  0  0  0  0  0  0  0  0  0  0  0
   -7.7730    1.7850    0.0370 C   0  0  0  0  0  0  0  0  0  0  0  0
   -7.8040    0.5040   -0.4070 C   0  0  0  0  0  0  0  0  0  0  0  0
   -6.6370   -0.1660   -0.7340 C   0  0  0  0  0  0  0  0  0  0  0  0
   -5.4290    0.4610   -0.6120 C   0  0  0  0  0  0  0  0  0  0  0  0
   -4.1660   -0.1730   -0.9260 N   0  0  0  0  0  0  0  0  0  0  0  0
   -4.1100   -1.3710   -1.6800 C   0  0  0  0  0  0  0  0  0  0  0  0
   -3.1390   -1.0820   -2.8480 C   0  0  0  0  0  0  0  0  0  0  0  0
   -1.8050   -0.8460   -2.1840 C   0  0  0  0  0  0  0  0  0  0  0  0
   -0.6710   -1.3480   -2.7270 C   0  0  0  0  0  0  0  0  0  0  0  0
    0.5590   -1.1290   -2.0970 C   0  0  0  0  0  0  0  0  0  0  0  0
    0.6550   -0.4010   -0.9060 C   0  0  0  0  0  0  0  0  0  0  0  0
    1.9320   -0.1350   -0.2230 C   0  0  0  0  0  0  0  0  0  0  0  0
    3.1060   -0.6850   -0.7170 N   0  0  0  0  0  0  0  0  0  0  0  0
    3.3850   -2.0440   -0.7220 C   0  0  0  0  0  0  0  0  0  0  0  0
    4.1080    0.2210   -1.1600 C   0  0  0  0  0  0  0  0  0  0  0  0
    4.7380    1.0230   -0.0320 C   0  0  2  0  0  0  0  0  0  0  0  0
    5.7250    1.9670   -0.6360 C   0  0  0  0  0  0  0  0  0  0  0  0
    6.8570    1.9810    0.3930 C   0  0  0  0  0  0  0  0  0  0  0  0
    6.9570    0.5240    0.5940 N   0  0  0  0  0  0  0  0  0  0  0  0
    8.1210   -0.2830    0.5250 C   0  0  0  0  0  0  0  0  0  0  0  0
    9.3680    0.3160    0.3970 C   0  0  0  0  0  0  0  0  0  0  0  0
   10.5070   -0.4420    0.2850 C   0  0  0  0  0  0  0  0  0  0  0  0
   10.4720   -1.8090    0.2940 C   0  0  0  0  0  0  0  0  0  0  0  0
   11.7380   -2.6110    0.1470 C   0  0  0  0  0  0  0  0  0  0  0  0
    9.2280   -2.4500    0.4240 C   0  0  0  0  0  0  0  0  0  0  0  0
    8.1030   -1.6430    0.5340 C   0  0  0  0  0  0  0  0  0  0  0  0
    5.5900    0.1100    0.8510 C   0  0  0  0  0  0  0  0  0  0  0  0
   -0.5180    0.0700   -0.4210 C   0  0  0  0  0  0  0  0  0  0  0  0
   -1.7740   -0.1050   -0.9910 C   0  0  0  0  0  0  0  0  0  0  0  0
   -2.9910    0.4630   -0.4190 C   0  0  0  0  0  0  0  0  0  0  0  0
   -5.4330    1.7400   -0.1670 N   0  0  0  0  0  0  0  0  0  0  0  0
   -6.5510    2.4390    0.1670 C   0  0  0  0  0  0  0  0  0  0  0  0
  1  2  2  0
  2  3  1  0
  3  4  2  0
  3  5  1  0
  5  6  1  0
  6  7  1  0
  7  8  2  0
  7 38  1  0
  8  9  1  0
  9 10  2  0
 10 11  1  0
 10 37  1  0
 11 12  1  0
 11 36  1  0
 12 13  1  0
 13 14  1  0
 14 15  2  0
 14 35  1  0
 15 16  1  0
 16 17  2  0
 17 18  1  0
 17 34  1  0
 18 19  1  0
 19 20  1  0
 19 21  1  0
 22 21  1  6
 22 23  1  0
 22 33  1  0
 23 24  1  0
 24 25  1  0
 25 26  1  0
 25 33  1  0
 26 27  2  0
 26 32  1  0
 27 28  1  0
 28 29  2  0
 29 30  1  0
 29 31  1  0
 31 32  2  0
 34 35  2  0
 35 36  1  0
 37 38  2  0
M  END
