
     RDKit          3D

 38 42  0  0  0  0  0  0  0  0999 V2000
  -10.0530    0.9860   -0.6260 C   0  0  0  0  0  0  0  0  0  0  0  0
   -9.0980    0.5940    0.4940 C   0  0  0  0  0  0  0  0  0  0  0  0
   -8.1670    1.7540    0.6910 C   0  0  0  0  0  0  0  0  0  0  0  0
   -7.4120    2.0410   -0.5470 C   0  0  0  0  0  0  0  0  0  0  0  0
   -6.5540    0.9490   -0.9190 N   0  0  0  0  0  0  0  0  0  0  0  0
   -5.7770    1.0120   -2.1870 C   0  0  0  0  0  0  0  0  0  0  0  0
   -4.3090    1.0310   -1.8380 C   0  0  0  0  0  0  0  0  0  0  0  0
   -4.1420    0.5710   -0.3990 C   0  0  0  0  0  0  0  0  0  0  0  0
   -3.1650    1.0750    0.3310 C   0  0  0  0  0  0  0  0  0  0  0  0
   -2.8580    0.7850    1.6930 C   0  0  0  0  0  0  0  0  0  0  0  0
   -3.7870    0.9290    2.7290 C   0  0  0  0  0  0  0  0  0  0  0  0
   -3.1310    0.5590    3.8700 C   0  0  0  0  0  0  0  0  0  0  0  0
   -1.8570    0.2100    3.5040 C   0  0  0  0  0  0  0  0  0  0  0  0
   -1.6970    0.3530    2.1550 N   0  0  0  0  0  0  0  0  0  0  0  0
   -0.4570    0.0600    1.5060 C   0  0  0  0  0  0  0  0  0  0  0  0
    0.7430    0.1340    2.2190 C   0  0  0  0  0  0  0  0  0  0  0  0
    1.9500   -0.1430    1.6220 C   0  0  0  0  0  0  0  0  0  0  0  0
    2.0270   -0.5110    0.2740 C   0  0  0  0  0  0  0  0  0  0  0  0
    3.3490   -0.8050   -0.3360 C   0  0  0  0  0  0  0  0  0  0  0  0
    3.6690   -2.2900   -0.2040 C   0  0  0  0  0  0  0  0  0  0  0  0
    5.0210   -2.6000   -0.8130 C   0  0  0  0  0  0  0  0  0  0  0  0
    6.0370   -1.8180   -0.0920 N   0  0  0  0  0  0  0  0  0  0  0  0
    6.4370   -2.0250    1.2810 C   0  0  0  0  0  0  0  0  0  0  0  0
    7.7340   -1.3170    1.4790 C   0  0  0  0  0  0  0  0  0  0  0  0
    7.8160   -0.3950    0.3030 C   0  0  0  0  0  0  0  0  0  0  0  0
    8.6930    0.6330    0.0460 C   0  0  0  0  0  0  0  0  0  0  0  0
    9.7690    0.9880    0.9930 C   0  0  0  0  0  0  0  0  0  0  0  0
    8.5490    1.3370   -1.1270 C   0  0  0  0  0  0  0  0  0  0  0  0
    7.5570    1.0400   -2.0410 C   0  0  0  0  0  0  0  0  0  0  0  0
    7.4780    1.8520   -3.2750 C   0  0  0  0  0  0  0  0  0  0  0  0
    6.6980    0.0080   -1.7550 C   0  0  0  0  0  0  0  0  0  0  0  0
    6.8010   -0.7330   -0.5840 C   0  0  0  0  0  0  0  0  0  0  0  0
    0.8330   -0.5780   -0.4060 C   0  0  0  0  0  0  0  0  0  0  0  0
   -0.4010   -0.2990    0.1890 C   0  0  0  0  0  0  0  0  0  0  0  0
   -5.0470   -0.4490    0.0880 C   0  0  0  0  0  0  0  0  0  0  0  0
   -4.5920   -1.6390    0.8050 C   0  0  0  0  0  0  0  0  0  0  0  0
   -3.7320   -2.4910   -0.1460 C   0  0  0  0  0  0  0  0  0  0  0  0
   -6.3210   -0.2260   -0.1990 N   0  0  0  0  0  0  0  0  0  0  0  0
  1  2  1  0
  2  3  1  0
  3  4  1  0
  4  5  1  0
  5  6  1  0
  5 38  1  0
  6  7  1  0
  7  8  1  0
  8  9  2  3
  8 35  1  0
  9 10  1  0
 10 11  2  0
 10 14  1  0
 11 12  1  0
 12 13  2  0
 13 14  1  0
 14 15  1  0
 15 16  2  0
 15 34  1  0
 16 17  1  0
 17 18  2  0
 18 19  1  0
 18 33  1  0
 19 20  1  0
 20 21  1  0
 21 22  1  0
 22 23  1  0
 22 32  1  0
 23 24  1  0
 24 25  1  0
 25 26  2  0
 25 32  1  0
 26 27  1  0
 26 28  1  0
 28 29  2  0
 29 30  1  0
 29 31  1  0
 31 32  2  0
 33 34  2  0
 35 36  1  0
 35 38  2  0
 36 37  1  0
M  END
