
     RDKit          3D

 38 42  0  0  0  0  0  0  0  0999 V2000
   -6.9720   -0.7660   -3.1920 C   0  0  0  0  0  0  0  0  0  0  0  0
   -6.4290   -1.8460   -2.6710 C   0  0  0  0  0  0  0  0  0  0  0  0
   -6.4840   -2.0330   -1.1900 C   0  0  0  0  0  0  0  0  0  0  0  0
   -5.0910   -2.1170   -0.6520 C   0  0  0  0  0  0  0  0  0  0  0  0
   -4.2960   -0.9080   -0.9260 N   0  0  0  0  0  0  0  0  0  0  0  0
   -4.8310    0.1240   -0.0730 C   0  0  0  0  0  0  0  0  0  0  0  0
   -4.6750   -0.1650    1.3830 C   0  0  0  0  0  0  0  0  0  0  0  0
   -3.5270    0.1980    2.0260 C   0  0  0  0  0  0  0  0  0  0  0  0
   -3.3560   -0.0530    3.3530 C   0  0  0  0  0  0  0  0  0  0  0  0
   -4.3580   -0.6810    4.0520 C   0  0  0  0  0  0  0  0  0  0  0  0
   -5.5060   -1.0450    3.4180 C   0  0  0  0  0  0  0  0  0  0  0  0
   -5.6840   -0.7890    2.0560 C   0  0  0  0  0  0  0  0  0  0  0  0
   -2.9530   -1.2830   -0.7050 C   0  0  0  0  0  0  0  0  0  0  0  0
   -1.9030   -0.3260   -1.0480 C   0  0  0  0  0  0  0  0  0  0  0  0
   -2.0820    0.8110   -1.7770 C   0  0  0  0  0  0  0  0  0  0  0  0
   -0.9980    1.6280   -2.0400 C   0  0  0  0  0  0  0  0  0  0  0  0
    0.2810    1.3440   -1.5950 C   0  0  0  0  0  0  0  0  0  0  0  0
    0.4640    0.1680   -0.8420 C   0  0  0  0  0  0  0  0  0  0  0  0
   -0.6130   -0.6240   -0.5910 C   0  0  0  0  0  0  0  0  0  0  0  0
    1.7980   -0.1480   -0.3720 C   0  0  0  0  0  0  0  0  0  0  0  0
    2.0340   -1.2280    0.3330 C   0  0  0  0  0  0  0  0  0  0  0  0
    3.4350   -1.5430    0.8140 C   0  0  2  0  0  0  0  0  0  0  0  0
    3.3360   -2.7560    1.6950 C   0  0  0  0  0  0  0  0  0  0  0  0
    2.6970   -2.1460    2.9470 C   0  0  0  0  0  0  0  0  0  0  0  0
    2.9320   -0.6340    2.8200 C   0  0  0  0  0  0  0  0  0  0  0  0
    3.8440   -0.5400    1.7180 N   0  0  0  0  0  0  0  0  0  0  0  0
    5.1930   -0.4010    2.0650 C   0  0  0  0  0  0  0  0  0  0  0  0
    6.1920   -0.4770    0.9790 C   0  0  0  0  0  0  0  0  0  0  0  0
    6.9810    0.5580    0.6200 C   0  0  0  0  0  0  0  0  0  0  0  0
    7.8770    0.1930   -0.4860 C   0  0  0  0  0  0  0  0  0  0  0  0
    7.5220   -1.2300   -0.7220 C   0  0  0  0  0  0  0  0  0  0  0  0
    6.5720   -1.5730    0.1140 C   0  0  0  0  0  0  0  0  0  0  0  0
    2.8750    0.7910   -0.7200 C   0  0  0  0  0  0  0  0  0  0  0  0
    2.6480    1.8470   -1.4100 N   0  0  0  0  0  0  0  0  0  0  0  0
    1.3680    2.1990   -1.8900 N   0  0  0  0  0  0  0  0  0  0  0  0
    1.2080    3.4190   -2.6640 C   0  0  0  0  0  0  0  0  0  0  0  0
    1.5150    4.6460   -1.8290 C   0  0  0  0  0  0  0  0  0  0  0  0
    1.3490    5.9040   -2.6450 C   0  0  0  0  0  0  0  0  0  0  0  0
  1  2  2  0
  2  3  1  0
  3  4  1  0
  4  5  1  0
  5  6  1  0
  5 13  1  0
  6  7  1  0
  7  8  2  0
  7 12  1  0
  8  9  1  0
  9 10  2  0
 10 11  1  0
 11 12  2  0
 13 14  1  0
 14 15  2  0
 14 19  1  0
 15 16  1  0
 16 17  2  0
 17 18  1  0
 17 35  1  0
 18 19  2  0
 18 20  1  0
 20 21  2  3
 20 33  1  0
 22 21  1  1
 22 23  1  0
 22 26  1  0
 23 24  1  0
 24 25  1  0
 25 26  1  0
 26 27  1  0
 27 28  1  0
 28 29  2  0
 28 32  1  0
 29 30  1  0
 30 31  1  0
 31 32  2  0
 33 34  2  0
 34 35  1  0
 35 36  1  0
 36 37  1  0
 37 38  1  0
M  END
