
     RDKit          3D

 38 42  0  0  0  0  0  0  0  0999 V2000
   10.2410    0.0370    1.4150 C   0  0  0  0  0  0  0  0  0  0  0  0
    8.8440   -0.3820    1.4950 N   0  0  0  0  0  0  0  0  0  0  0  0
    8.3860   -0.7230    0.1690 C   0  0  0  0  0  0  0  0  0  0  0  0
    6.9980   -1.2070    0.0870 C   0  0  0  0  0  0  0  0  0  0  0  0
    5.9400   -0.3460    0.5000 N   0  0  0  0  0  0  0  0  0  0  0  0
    5.9260   -0.1300    1.9440 C   0  0  0  0  0  0  0  0  0  0  0  0
    5.9400    0.8800   -0.2160 C   0  0  0  0  0  0  0  0  0  0  0  0
    4.7660    1.7520   -0.1470 C   0  0  0  0  0  0  0  0  0  0  0  0
    3.4760    1.2890   -0.7550 C   0  0  0  0  0  0  0  0  0  0  0  0
    2.8540    0.1320   -0.3140 N   0  0  0  0  0  0  0  0  0  0  0  0
    3.5030   -1.0770   -0.6780 C   0  0  0  0  0  0  0  0  0  0  0  0
    1.4330    0.0440   -0.3170 C   0  0  0  0  0  0  0  0  0  0  0  0
    0.7350   -0.0700   -1.5970 C   0  0  0  0  0  0  0  0  0  0  0  0
    1.3850   -0.1630   -2.8020 C   0  0  0  0  0  0  0  0  0  0  0  0
    0.6320   -0.3200   -3.9610 C   0  0  0  0  0  0  0  0  0  0  0  0
   -0.7310   -0.3790   -3.8860 C   0  0  0  0  0  0  0  0  0  0  0  0
   -1.3900   -0.2840   -2.6520 C   0  0  0  0  0  0  0  0  0  0  0  0
   -0.6690   -0.1280   -1.4980 C   0  0  0  0  0  0  0  0  0  0  0  0
   -1.3730   -0.0230   -0.1760 C   0  0  0  0  0  0  0  0  0  0  0  0
   -2.7520    0.2270   -0.4610 N   0  0  0  0  0  0  0  0  0  0  0  0
   -3.4430    1.3430    0.0070 C   0  0  0  0  0  0  0  0  0  0  0  0
   -4.5930    1.2620    0.6370 C   0  0  0  0  0  0  0  0  0  0  0  0
   -5.2730    0.0090    0.9270 C   0  0  0  0  0  0  0  0  0  0  0  0
   -4.6790   -1.1000    1.4900 C   0  0  0  0  0  0  0  0  0  0  0  0
   -5.3700   -2.2730    1.7190 C   0  0  0  0  0  0  0  0  0  0  0  0
   -6.6930   -2.3840    1.3890 C   0  0  0  0  0  0  0  0  0  0  0  0
   -7.3860   -3.5660    1.6060 C   0  0  0  0  0  0  0  0  0  0  0  0
   -8.7080   -3.6770    1.2640 C   0  0  0  0  0  0  0  0  0  0  0  0
   -9.3680   -2.5980    0.6920 C   0  0  0  0  0  0  0  0  0  0  0  0
   -8.6480   -1.4390    0.4910 C   0  0  0  0  0  0  0  0  0  0  0  0
   -7.3180   -1.2850    0.8210 C   0  0  0  0  0  0  0  0  0  0  0  0
   -6.6150   -0.1210    0.5990 C   0  0  0  0  0  0  0  0  0  0  0  0
   -5.2150    2.5800    1.0460 C   0  0  0  0  0  0  0  0  0  0  0  0
   -4.2590    3.3880    1.8470 C   0  0  0  0  0  0  0  0  0  0  0  0
   -2.8580    3.3270    1.2390 C   0  0  0  0  0  0  0  0  0  0  0  0
   -2.9250    2.7540   -0.1720 C   0  0  0  0  0  0  0  0  0  0  0  0
   -3.4230   -0.7280   -1.3100 C   0  0  0  0  0  0  0  0  0  0  0  0
   -2.8840   -0.3900   -2.7190 C   0  0  0  0  0  0  0  0  0  0  0  0
  1  2  1  0
  2  3  1  0
  3  4  1  0
  4  5  1  0
  5  6  1  0
  5  7  1  0
  7  8  1  0
  8  9  1  0
  9 10  1  0
 10 11  1  0
 10 12  1  0
 12 13  1  0
 13 14  2  0
 13 18  1  0
 14 15  1  0
 15 16  2  0
 16 17  1  0
 17 18  2  0
 17 38  1  0
 18 19  1  0
 19 20  1  0
 20 21  1  0
 20 37  1  0
 21 22  2  0
 21 36  1  0
 22 23  1  0
 22 33  1  0
 23 24  2  0
 23 32  1  0
 24 25  1  0
 25 26  2  0
 26 27  1  0
 26 31  1  0
 27 28  2  0
 28 29  1  0
 29 30  2  0
 30 31  1  0
 31 32  2  0
 33 34  1  0
 34 35  1  0
 35 36  1  0
 37 38  1  0
M  END
