
     RDKit          3D

 29 32  0  0  0  0  0  0  0  0999 V2000
   -2.3110   -4.7670   -0.4780 O   0  0  0  0  0  0  0  0  0  0  0  0
   -3.2320   -3.9980   -0.0770 C   0  0  0  0  0  0  0  0  0  0  0  0
   -3.1880   -2.5580   -0.1760 C   0  0  0  0  0  0  0  0  0  0  0  0
   -2.1520   -1.9500   -0.7040 C   0  0  0  0  0  0  0  0  0  0  0  0
   -1.0080   -2.7420   -1.2070 C   0  0  0  0  0  0  0  0  0  0  0  0
    0.0430   -1.7130   -1.6710 C   0  0  0  0  0  0  0  0  0  0  0  0
    0.2380   -0.7410   -0.6170 N   0  0  0  0  0  0  0  0  0  0  0  0
    1.5060   -0.5790   -0.0280 C   0  0  0  0  0  0  0  0  0  0  0  0
    1.6450    0.2770    1.0400 C   0  0  0  0  0  0  0  0  0  0  0  0
    2.8770    0.4740    1.6540 C   0  0  0  0  0  0  0  0  0  0  0  0
    3.9600   -0.2190    1.1570 C   0  0  0  0  0  0  0  0  0  0  0  0
    3.8190   -1.0770    0.0860 C   0  0  0  0  0  0  0  0  0  0  0  0
    2.6070   -1.2340   -0.4750 N   0  0  0  0  0  0  0  0  0  0  0  0
    4.9710   -1.7650   -0.3840 N   0  0  0  0  0  0  0  0  0  0  0  0
    6.2230   -1.5520    0.2560 C   0  0  0  0  0  0  0  0  0  0  0  0
    7.1920   -2.3360    0.1360 O   0  0  0  0  0  0  0  0  0  0  0  0
    6.4090   -0.3480    1.1110 C   0  0  0  0  0  0  0  0  0  0  0  0
    5.1940   -0.0170    1.7780 O   0  0  0  0  0  0  0  0  0  0  0  0
   -0.8770    0.0510   -0.1840 C   0  0  1  0  0  0  0  0  0  0  0  0
   -0.6740    1.5000   -0.4460 C   0  0  0  0  0  0  0  0  0  0  0  0
    0.3740    1.8900   -1.0160 O   0  0  0  0  0  0  0  0  0  0  0  0
   -1.6060    2.4530   -0.0830 O   0  0  0  0  0  0  0  0  0  0  0  0
   -1.4410    3.8260   -0.3170 C   0  0  2  0  0  0  0  0  0  0  0  0
   -1.6160    4.6930    0.9360 C   0  0  0  0  0  0  0  0  0  0  0  0
   -2.3060    5.7020    0.0410 C   0  0  0  0  0  0  0  0  0  0  0  0
   -2.6490    4.5430   -0.8820 C   0  0  0  0  0  0  0  0  0  0  0  0
   -2.1270   -0.4730   -0.8100 C   0  0  0  0  0  0  0  0  0  0  0  0
   -4.4410   -4.6350    0.5390 C   0  0  0  0  0  0  0  0  0  0  0  0
   -4.3210   -6.0040    0.5560 F   0  0  0  0  0  0  0  0  0  0  0  0
  1  2  2  0
  2  3  1  0
  2 28  1  0
  3  4  2  3
  4  5  1  0
  4 27  1  0
  5  6  1  0
  6  7  1  0
  7  8  1  0
  7 19  1  0
  8  9  2  0
  8 13  1  0
  9 10  1  0
 10 11  2  0
 11 12  1  0
 11 18  1  0
 12 13  2  0
 12 14  1  0
 14 15  1  0
 15 16  2  0
 15 17  1  0
 17 18  1  0
 19 20  1  6
 19 27  1  0
 20 21  2  0
 20 22  1  0
 23 22  1  1
 23 24  1  0
 23 26  1  0
 24 25  1  0
 25 26  1  0
 28 29  1  0
M  END
