
     RDKit          3D

 29 32  0  0  0  0  0  0  0  0999 V2000
   -6.6590   -2.9480   -0.1810 C   0  0  0  0  0  0  0  0  0  0  0  0
   -6.0110   -1.6170   -0.1800 C   0  0  0  0  0  0  0  0  0  0  0  0
   -6.7400   -0.4830    0.1190 C   0  0  0  0  0  0  0  0  0  0  0  0
   -6.1630    0.7870    0.1300 C   0  0  0  0  0  0  0  0  0  0  0  0
   -7.0090    1.9740    0.4620 C   0  0  0  0  0  0  0  0  0  0  0  0
   -4.8220    0.8960   -0.1700 C   0  0  0  0  0  0  0  0  0  0  0  0
   -4.0610   -0.2050   -0.4730 C   0  0  0  0  0  0  0  0  0  0  0  0
   -2.6180   -0.0720   -0.7940 C   0  0  0  0  0  0  0  0  0  0  0  0
   -1.8650   -0.1830    0.4340 N   0  0  0  0  0  0  0  0  0  0  0  0
   -0.4510   -0.0810    0.3410 C   0  0  0  0  0  0  0  0  0  0  0  0
    0.3740   -0.1630    1.3820 N   0  0  0  0  0  0  0  0  0  0  0  0
    1.7010   -0.0800    1.3880 C   0  0  0  0  0  0  0  0  0  0  0  0
    2.3240   -0.1850    2.5130 O   0  0  0  0  0  0  0  0  0  0  0  0
    2.5220    0.1130    0.2940 C   0  0  0  0  0  0  0  0  0  0  0  0
    3.8760    0.1750    0.4800 N   0  0  0  0  0  0  0  0  0  0  0  0
    4.7130    0.3640   -0.5800 C   0  0  0  0  0  0  0  0  0  0  0  0
    6.1510    0.4200   -0.3120 C   0  0  0  0  0  0  0  0  0  0  0  0
    6.6310    0.2840    0.9850 C   0  0  0  0  0  0  0  0  0  0  0  0
    7.9730    0.3330    1.2640 C   0  0  0  0  0  0  0  0  0  0  0  0
    8.8990    0.5200    0.2610 C   0  0  0  0  0  0  0  0  0  0  0  0
   10.6220    0.5910    0.5580 Cl  0  0  0  0  0  0  0  0  0  0  0  0
    8.4610    0.6580   -1.0250 C   0  0  0  0  0  0  0  0  0  0  0  0
    9.5980    0.8990   -2.3380 Cl  0  0  0  0  0  0  0  0  0  0  0  0
    7.0840    0.6060   -1.2940 C   0  0  0  0  0  0  0  0  0  0  0  0
    4.2360    0.4970   -1.8490 C   0  0  0  0  0  0  0  0  0  0  0  0
    2.8860    0.4340   -2.0220 N   0  0  0  0  0  0  0  0  0  0  0  0
    2.0550    0.2490   -0.9950 C   0  0  0  0  0  0  0  0  0  0  0  0
    0.3480    0.1600   -1.1420 S   0  0  0  0  0  0  0  0  0  0  0  0
   -4.6650   -1.4410   -0.4730 C   0  0  0  0  0  0  0  0  0  0  0  0
  1  2  1  0
  2  3  2  0
  2 29  1  0
  3  4  1  0
  4  5  1  0
  4  6  2  0
  6  7  1  0
  7  8  1  0
  7 29  2  0
  8  9  1  0
  9 10  1  0
 10 11  2  0
 10 28  1  0
 11 12  1  0
 12 13  2  0
 12 14  1  0
 14 15  2  0
 14 27  1  0
 15 16  1  0
 16 17  1  0
 16 25  2  0
 17 18  2  0
 17 24  1  0
 18 19  1  0
 19 20  2  0
 20 21  1  0
 20 22  1  0
 22 23  1  0
 22 24  2  0
 25 26  1  0
 26 27  2  0
 27 28  1  0
M  END
