
     RDKit          3D

 28 31  0  0  0  0  0  0  0  0999 V2000
    5.7710    2.7510   -1.4220 C   0  0  0  0  0  0  0  0  0  0  0  0
    6.4480    1.5110   -1.3740 O   0  0  0  0  0  0  0  0  0  0  0  0
    5.8390    0.3640   -0.8560 C   0  0  0  0  0  0  0  0  0  0  0  0
    6.5670   -0.8060   -0.8440 C   0  0  0  0  0  0  0  0  0  0  0  0
    6.0200   -1.9740   -0.3450 C   0  0  0  0  0  0  0  0  0  0  0  0
    4.7330   -1.9590    0.1440 C   0  0  0  0  0  0  0  0  0  0  0  0
    4.0130   -0.7970    0.1310 C   0  0  0  0  0  0  0  0  0  0  0  0
    4.5480    0.3710   -0.3630 C   0  0  0  0  0  0  0  0  0  0  0  0
    2.6760   -1.0420    0.7040 C   0  0  0  0  0  0  0  0  0  0  0  0
    1.7150   -0.1720    0.8540 C   0  0  0  0  0  0  0  0  0  0  0  0
    0.3940   -0.4730    1.4350 C   0  0  0  0  0  0  0  0  0  0  0  0
   -0.6850   -0.1870    0.4130 C   0  0  0  0  0  0  0  0  0  0  0  0
   -0.2690    0.2360   -0.6950 O   0  0  0  0  0  0  0  0  0  0  0  0
   -2.0350   -0.3960    0.7310 N   0  0  0  0  0  0  0  0  0  0  0  0
   -2.3480   -0.8800    2.0910 C   0  0  0  0  0  0  0  0  0  0  0  0
   -3.7630   -0.3830    2.4210 C   0  0  0  0  0  0  0  0  0  0  0  0
   -4.0570    0.9750    1.8920 C   0  0  0  0  0  0  0  0  0  0  0  0
   -3.7830    1.1280    0.4350 C   0  0  2  0  0  0  0  0  0  0  0  0
   -4.9130    1.6380   -0.3680 C   0  0  0  0  0  0  0  0  0  0  0  0
   -5.7280    0.6930   -0.9610 O   0  0  0  0  0  0  0  0  0  0  0  0
   -5.4150    0.5350   -2.3250 C   0  0  0  0  0  0  0  0  0  0  0  0
   -3.9630    0.2930   -2.4490 N   0  0  0  0  0  0  0  0  0  0  0  0
   -3.0830   -0.2970   -1.4990 C   0  0  0  0  0  0  0  0  0  0  0  0
   -2.1300   -0.9540   -1.9720 O   0  0  0  0  0  0  0  0  0  0  0  0
   -3.1990   -0.2000   -0.0590 C   0  0  1  0  0  0  0  0  0  0  0  0
    2.6670   -2.4390    1.0540 C   0  0  0  0  0  0  0  0  0  0  0  0
    1.7700   -3.1520    1.5740 O   0  0  0  0  0  0  0  0  0  0  0  0
    3.9520   -3.0040    0.7020 N   0  0  0  0  0  0  0  0  0  0  0  0
  1  2  1  0
  2  3  1  0
  3  4  2  0
  3  8  1  0
  4  5  1  0
  5  6  2  0
  6  7  1  0
  6 28  1  0
  7  8  2  0
  7  9  1  0
  9 10  2  3
  9 26  1  0
 10 11  1  0
 11 12  1  0
 12 13  2  0
 12 14  1  0
 14 15  1  0
 25 14  1  1
 15 16  1  0
 16 17  1  0
 18 17  1  1
 18 19  1  0
 18 25  1  0
 19 20  1  0
 20 21  1  0
 21 22  1  0
 22 23  1  0
 23 24  2  0
 23 25  1  0
 26 27  2  0
 26 28  1  0
M  END
