
     RDKit          3D

 28 31  0  0  0  0  0  0  0  0999 V2000
   -7.2460    0.7160   -1.4810 C   0  0  0  0  0  0  0  0  0  0  0  0
   -5.8400    0.7820   -0.9040 C   0  0  2  0  0  0  0  0  0  0  0  0
   -5.1680   -0.5370   -1.1960 C   0  0  0  0  0  0  0  0  0  0  0  0
   -4.1530   -0.7900   -0.0760 C   0  0  0  0  0  0  0  0  0  0  0  0
   -3.6530    0.4210    0.4360 N   0  0  0  0  0  0  0  0  0  0  0  0
   -2.3310    0.8020    0.1760 C   0  0  0  0  0  0  0  0  0  0  0  0
   -1.2760   -0.0990    0.6660 C   0  0  0  0  0  0  0  0  0  0  0  0
   -1.5840   -1.1710    1.4760 C   0  0  0  0  0  0  0  0  0  0  0  0
   -0.5320   -1.9660    1.8870 C   0  0  0  0  0  0  0  0  0  0  0  0
    0.7320   -1.6860    1.4990 N   0  0  0  0  0  0  0  0  0  0  0  0
    1.0220   -0.6380    0.7090 C   0  0  0  0  0  0  0  0  0  0  0  0
    2.3770   -0.3680    0.3140 N   0  0  0  0  0  0  0  0  0  0  0  0
    3.4500   -1.1910    0.7420 C   0  0  0  0  0  0  0  0  0  0  0  0
    3.2500   -2.1880    1.4820 O   0  0  0  0  0  0  0  0  0  0  0  0
    4.7670   -0.8650    0.3130 C   0  0  0  0  0  0  0  0  0  0  0  0
    5.2790    0.1210   -0.4660 C   0  0  0  0  0  0  0  0  0  0  0  0
    6.5940    0.1810   -0.7050 C   0  0  0  0  0  0  0  0  0  0  0  0
    7.2730    1.1360   -1.4880 C   0  0  0  0  0  0  0  0  0  0  0  0
    8.6120    1.1120   -1.6700 C   0  0  0  0  0  0  0  0  0  0  0  0
    9.3930    2.3610   -2.6770 Cl  0  0  0  0  0  0  0  0  0  0  0  0
    9.4130    0.1550   -1.1060 C   0  0  0  0  0  0  0  0  0  0  0  0
    8.7960   -0.8100   -0.3260 C   0  0  0  0  0  0  0  0  0  0  0  0
    9.7080   -2.0850    0.4480 Cl  0  0  0  0  0  0  0  0  0  0  0  0
    7.4200   -0.7620   -0.1550 C   0  0  0  0  0  0  0  0  0  0  0  0
    6.2650   -1.7930    0.7520 S   0  0  0  0  0  0  0  0  0  0  0  0
    0.0060    0.1390    0.3050 N   0  0  0  0  0  0  0  0  0  0  0  0
   -4.5230    1.2900    1.1160 C   0  0  0  0  0  0  0  0  0  0  0  0
   -5.9410    1.0410    0.5810 C   0  0  0  0  0  0  0  0  0  0  0  0
  2  1  1  1
  2  3  1  0
  2 28  1  0
  3  4  1  0
  4  5  1  0
  5  6  1  0
  5 27  1  0
  6  7  1  0
  7  8  2  0
  7 26  1  0
  8  9  1  0
  9 10  2  0
 10 11  1  0
 11 12  1  0
 11 26  2  0
 12 13  1  0
 13 14  2  0
 13 15  1  0
 15 16  2  0
 15 25  1  0
 16 17  1  0
 17 18  2  0
 17 24  1  0
 18 19  1  0
 19 20  1  0
 19 21  2  0
 21 22  1  0
 22 23  1  0
 22 24  2  0
 24 25  1  0
 27 28  1  0
M  END
