
     RDKit          3D

 29 32  0  0  0  0  0  0  0  0999 V2000
   -6.1130   -0.8360    0.2370 C   0  0  0  0  0  0  0  0  0  0  0  0
   -4.6590   -1.0010   -0.1360 C   0  0  0  0  0  0  0  0  0  0  0  0
   -3.6750   -0.2140    0.2270 N   0  0  0  0  0  0  0  0  0  0  0  0
   -2.5530   -0.2940   -0.0270 C   0  0  0  0  0  0  0  0  0  0  0  0
   -1.2480    0.4600    0.3080 N   0  0  0  0  0  0  0  0  0  0  0  0
   -0.2930   -0.1920    1.0450 C   0  0  0  0  0  0  0  0  0  0  0  0
    1.1240   -0.2330    0.7830 C   0  0  0  0  0  0  0  0  0  0  0  0
    1.8690    0.2940   -0.2220 C   0  0  0  0  0  0  0  0  0  0  0  0
    3.2540    0.0870   -0.3060 C   0  0  0  0  0  0  0  0  0  0  0  0
    3.9840    0.6330   -1.3270 C   0  0  0  0  0  0  0  0  0  0  0  0
    5.3440    0.3990   -1.3580 C   0  0  0  0  0  0  0  0  0  0  0  0
    5.9570   -0.3630   -0.3910 C   0  0  0  0  0  0  0  0  0  0  0  0
    7.6890   -0.7090   -0.4070 Cl  0  0  0  0  0  0  0  0  0  0  0  0
    5.2290   -0.9130    0.6390 C   0  0  0  0  0  0  0  0  0  0  0  0
    5.8740   -1.7540    1.6950 C   0  0  0  0  0  0  0  0  0  0  0  0
    3.8720   -0.6600    0.6430 C   0  0  0  0  0  0  0  0  0  0  0  0
    3.1630   -1.2010    1.6600 N   0  0  0  0  0  0  0  0  0  0  0  0
    1.8660   -0.9970    1.7250 C   0  0  0  0  0  0  0  0  0  0  0  0
    1.2420   -1.5230    2.6970 O   0  0  0  0  0  0  0  0  0  0  0  0
   -1.3270    1.7610   -0.1650 C   0  0  0  0  0  0  0  0  0  0  0  0
   -2.1300    2.6490    0.6130 C   0  0  0  0  0  0  0  0  0  0  0  0
   -2.2590    3.9410    0.1710 C   0  0  0  0  0  0  0  0  0  0  0  0
   -3.2390    5.0810    1.0860 Cl  0  0  0  0  0  0  0  0  0  0  0  0
   -1.6330    4.3540   -0.9790 C   0  0  0  0  0  0  0  0  0  0  0  0
   -0.8590    3.4670   -1.7130 C   0  0  0  0  0  0  0  0  0  0  0  0
   -0.7460    2.2170   -1.2690 N   0  0  0  0  0  0  0  0  0  0  0  0
   -2.4570   -1.7750   -1.0590 S   0  0  0  0  0  0  0  0  0  0  0  0
   -4.2850   -2.0630   -0.9290 C   0  0  0  0  0  0  0  0  0  0  0  0
   -5.0060   -3.1940   -1.5540 C   0  0  0  0  0  0  0  0  0  0  0  0
  1  2  1  0
  2  3  1  0
  2 28  2  0
  3  4  2  0
  4  5  1  0
  4 27  1  0
  5  6  1  0
  5 20  1  0
  6  7  1  0
  7  8  2  0
  7 18  1  0
  8  9  1  0
  9 10  2  0
  9 16  1  0
 10 11  1  0
 11 12  2  0
 12 13  1  0
 12 14  1  0
 14 15  1  0
 14 16  2  0
 16 17  1  0
 17 18  1  0
 18 19  2  0
 20 21  2  0
 20 26  1  0
 21 22  1  0
 22 23  1  0
 22 24  2  0
 24 25  1  0
 25 26  2  0
 27 28  1  0
 28 29  1  0
M  END
