
     RDKit          3D

 28 31  0  0  0  0  0  0  0  0999 V2000
    7.6270   -0.2980    0.3010 N   0  0  0  0  0  0  0  0  0  0  0  0
    6.2820    0.7760    0.4550 S   0  0  1  0  0  0  0  0  0  0  0  0
    5.8740    0.8570    1.8830 O   0  0  0  0  0  0  0  0  0  0  0  0
    6.6780    2.1680    0.0040 O   0  0  0  0  0  0  0  0  0  0  0  0
    4.9100    0.1860   -0.4650 C   0  0  0  0  0  0  0  0  0  0  0  0
    3.6920   -0.1150    0.1670 C   0  0  0  0  0  0  0  0  0  0  0  0
    2.6260   -0.5780   -0.5570 C   0  0  0  0  0  0  0  0  0  0  0  0
    1.3460   -0.9020    0.0850 C   0  0  0  0  0  0  0  0  0  0  0  0
    0.4060   -1.3390   -0.6310 O   0  0  0  0  0  0  0  0  0  0  0  0
    1.1560   -0.7270    1.5280 C   0  0  0  0  0  0  0  0  0  0  0  0
    0.4320    0.9020    1.8410 S   0  0  0  0  0  0  0  0  0  0  0  0
   -1.2660    1.0240    1.3510 C   0  0  0  0  0  0  0  0  0  0  0  0
   -1.9730    2.1660    1.3880 N   0  0  0  0  0  0  0  0  0  0  0  0
   -3.2140    1.9490    0.9600 C   0  0  0  0  0  0  0  0  0  0  0  0
   -4.3330    2.7440    0.7990 C   0  0  0  0  0  0  0  0  0  0  0  0
   -5.5140    2.2850    0.3420 N   0  0  0  0  0  0  0  0  0  0  0  0
   -5.6140    0.9890    0.0240 C   0  0  0  0  0  0  0  0  0  0  0  0
   -6.8390    0.5310   -0.4420 C   0  0  0  0  0  0  0  0  0  0  0  0
   -6.9180   -0.8070   -0.7590 C   0  0  0  0  0  0  0  0  0  0  0  0
   -5.8310   -1.6660   -0.6220 C   0  0  0  0  0  0  0  0  0  0  0  0
   -4.6350   -1.1880   -0.1600 C   0  0  0  0  0  0  0  0  0  0  0  0
   -4.5210    0.1600    0.1690 C   0  0  0  0  0  0  0  0  0  0  0  0
   -3.2960    0.6040    0.6370 C   0  0  0  0  0  0  0  0  0  0  0  0
   -2.0900    0.0710    0.8870 N   0  0  0  0  0  0  0  0  0  0  0  0
    2.7890   -0.7380   -1.9260 C   0  0  0  0  0  0  0  0  0  0  0  0
    3.9880   -0.4420   -2.5440 C   0  0  0  0  0  0  0  0  0  0  0  0
    5.0600    0.0240   -1.8170 C   0  0  0  0  0  0  0  0  0  0  0  0
    6.6160    0.4120   -2.5640 Cl  0  0  0  0  0  0  0  0  0  0  0  0
  2  1  1  1
  2  3  2  0
  2  4  2  0
  2  5  1  0
  5  6  2  0
  5 27  1  0
  6  7  1  0
  7  8  1  0
  7 25  2  0
  8  9  2  0
  8 10  1  0
 10 11  1  0
 11 12  1  0
 12 13  2  0
 12 24  1  0
 13 14  1  0
 14 15  2  0
 14 23  1  0
 15 16  1  0
 16 17  2  0
 17 18  1  0
 17 22  1  0
 18 19  2  0
 19 20  1  0
 20 21  2  0
 21 22  1  0
 22 23  2  0
 23 24  1  0
 25 26  1  0
 26 27  2  0
 27 28  1  0
M  END
