
     RDKit          3D

 26 25  0  0  0  0  0  0  0  0999 V2000
    6.2450   -3.6550    1.4510 C   0  0  0  0  0  0  0  0  0  0  0  0
    6.6410   -2.3360    0.9860 N   0  0  0  0  0  0  0  0  0  0  0  0
    5.7190   -1.2710    0.8350 C   0  0  0  0  0  0  0  0  0  0  0  0
    4.5180   -1.4970    1.1180 O   0  0  0  0  0  0  0  0  0  0  0  0
    6.2280    0.0340    0.3550 C   0  0  0  0  0  0  0  0  0  0  0  0
    5.1060    1.0610    0.2590 C   0  0  0  0  0  0  0  0  0  0  0  0
    4.1450    0.5640   -0.6540 O   0  0  0  0  0  0  0  0  0  0  0  0
    2.9880    1.3200   -0.9310 C   0  0  0  0  0  0  0  0  0  0  0  0
    2.8810    2.3910   -0.3470 O   0  0  0  0  0  0  0  0  0  0  0  0
    2.0510    0.7080   -1.9000 C   0  0  1  0  0  0  0  0  0  0  0  0
    2.8270    0.6540   -3.2250 C   0  0  0  0  0  0  0  0  0  0  0  0
    1.8100   -0.7040   -1.3870 C   0  0  0  0  0  0  0  0  0  0  0  0
    0.5990    1.6820   -2.0560 S   0  0  0  0  0  0  0  0  0  0  0  0
   -0.5270    1.8060   -0.7100 C   0  0  2  0  0  0  0  0  0  0  0  0
   -0.0180    2.5420    0.5040 C   0  0  0  0  0  0  0  0  0  0  0  0
   -1.2010    0.5130   -0.3260 C   0  0  2  0  0  0  0  0  0  0  0  0
   -1.9640    0.0370   -1.4990 N   0  0  0  0  0  0  0  0  0  0  0  0
   -2.1730    0.6460    0.7790 C   0  0  0  0  0  0  0  0  0  0  0  0
   -1.7770    0.9160    1.9580 O   0  0  0  0  0  0  0  0  0  0  0  0
   -3.5800    0.4820    0.5930 N   0  0  0  0  0  0  0  0  0  0  0  0
   -4.4540    0.6300    1.7370 C   0  0  0  0  0  0  0  0  0  0  0  0
   -5.8750    0.4100    1.2700 C   0  0  1  0  0  0  0  0  0  0  0  0
   -6.1550    1.3510    0.3040 O   0  0  0  0  0  0  0  0  0  0  0  0
   -5.9960   -0.9970    0.7480 C   0  0  0  0  0  0  0  0  0  0  0  0
   -7.4290   -1.1860    0.2880 C   0  0  0  0  0  0  0  0  0  0  0  0
   -8.3290   -0.9980    1.3270 O   0  0  0  0  0  0  0  0  0  0  0  0
  1  2  1  0
  2  3  1  0
  3  4  2  0
  3  5  1  0
  5  6  1  0
  6  7  1  0
  7  8  1  0
  8  9  2  0
  8 10  1  0
 10 11  1  6
 10 12  1  0
 10 13  1  0
 13 14  1  0
 14 15  1  1
 14 16  1  0
 16 17  1  6
 16 18  1  0
 18 19  2  0
 18 20  1  0
 20 21  1  0
 21 22  1  0
 22 23  1  6
 22 24  1  0
 24 25  1  0
 25 26  1  0
M  CHG  1  17   1
M  END
