
     RDKit          3D

 26 26  0  0  0  0  0  0  0  0999 V2000
    2.2430   -2.6260   -0.0980 C   0  0  0  0  0  0  0  0  0  0  0  0
    1.2520   -1.6960    0.4020 N   0  0  0  0  0  0  0  0  0  0  0  0
    1.6310   -0.5550    1.1970 C   0  0  0  0  0  0  0  0  0  0  0  0
    1.9010    0.6680    0.3840 C   0  0  0  0  0  0  0  0  0  0  0  0
    3.2280    0.4680   -0.8020 S   0  0  0  0  0  0  0  0  0  0  0  0
    4.8450    0.2470   -0.0560 C   0  0  0  0  0  0  0  0  0  0  0  0
    5.2830    1.5090    0.6700 C   0  0  1  0  0  0  0  0  0  0  0  0
    6.6270    1.3650    1.3040 C   0  0  0  0  0  0  0  0  0  0  0  0
    7.4740    2.3250    0.4640 C   0  0  0  0  0  0  0  0  0  0  0  0
    6.6130    2.4700   -0.7730 C   0  0  0  0  0  0  0  0  0  0  0  0
    5.3370    2.5220   -0.2580 O   0  0  0  0  0  0  0  0  0  0  0  0
   -0.1150   -1.9790    0.0650 C   0  0  0  0  0  0  0  0  0  0  0  0
   -0.4020   -2.9650   -0.6090 O   0  0  0  0  0  0  0  0  0  0  0  0
   -1.1790   -1.1580    0.4810 N   0  0  0  0  0  0  0  0  0  0  0  0
   -2.5930   -1.4250    0.1540 C   0  0  1  0  0  0  0  0  0  0  0  0
   -2.7990   -1.4930   -1.2920 C   0  0  0  0  0  0  0  0  0  0  0  0
   -4.0800   -1.8290   -1.8110 N   0  0  0  0  0  0  0  0  0  0  0  0
   -3.0120   -2.6100    0.9720 C   0  0  0  0  0  0  0  0  0  0  0  0
   -2.3460   -3.7770    0.7820 O   0  0  0  0  0  0  0  0  0  0  0  0
   -3.2490   -0.2280    0.7650 C   0  0  0  0  0  0  0  0  0  0  0  0
   -4.5960    0.1690    0.8620 C   0  0  0  0  0  0  0  0  0  0  0  0
   -5.4840    0.4810   -0.2880 C   0  0  0  0  0  0  0  0  0  0  0  0
   -5.0270    1.4450   -1.1620 O   0  0  0  0  0  0  0  0  0  0  0  0
   -4.8260    2.6930   -0.6580 C   0  0  1  0  0  0  0  0  0  0  0  0
   -3.5300    3.1500   -0.9090 O   0  0  0  0  0  0  0  0  0  0  0  0
   -5.7160    3.5680   -1.3110 O   0  0  0  0  0  0  0  0  0  0  0  0
  1  2  1  0
  2  3  1  0
  2 12  1  0
  3  4  1  0
  4  5  1  0
  5  6  1  0
  7  6  1  6
  7  8  1  0
  7 11  1  0
  8  9  1  0
  9 10  1  0
 10 11  1  0
 12 13  2  0
 12 14  1  0
 14 15  1  0
 15 16  1  6
 15 18  1  0
 15 20  1  0
 16 17  1  0
 18 19  1  0
 20 21  1  0
 21 22  1  0
 22 23  1  0
 23 24  1  0
 24 25  1  6
 24 26  1  0
M  CHG  1  17   1
M  END
