
     RDKit          3D

 26 26  0  0  0  0  0  0  0  0999 V2000
   -1.9380    3.3300    1.8840 C   0  0  0  0  0  0  0  0  0  0  0  0
   -2.1790    2.2970    0.8200 C   0  0  1  0  0  0  0  0  0  0  0  0
   -1.5820    1.0280    1.2250 N   0  0  0  0  0  0  0  0  0  0  0  0
   -0.4320    0.4830    0.5720 C   0  0  0  0  0  0  0  0  0  0  0  0
    0.0890    1.1080   -0.3800 O   0  0  0  0  0  0  0  0  0  0  0  0
    0.1800   -0.8210    0.9880 C   0  0  1  0  0  0  0  0  0  0  0  0
    1.3000   -1.1130    0.1480 N   0  0  0  0  0  0  0  0  0  0  0  0
    2.5480   -0.5730    0.5870 C   0  0  0  0  0  0  0  0  0  0  0  0
    3.4960   -0.4000   -0.5910 C   0  0  0  0  0  0  0  0  0  0  0  0
    3.7270   -1.7180   -1.2270 C   0  0  0  0  0  0  0  0  0  0  0  0
    4.5690   -1.7260   -2.3050 O   0  0  0  0  0  0  0  0  0  0  0  0
    4.2110   -0.9600   -3.3700 C   0  0  0  0  0  0  0  0  0  0  0  0
    5.2730   -1.1230   -4.4460 C   0  0  0  0  0  0  0  0  0  0  0  0
    4.9780   -0.3680   -5.5710 O   0  0  0  0  0  0  0  0  0  0  0  0
    0.5040   -0.7490    2.4450 C   0  0  0  0  0  0  0  0  0  0  0  0
    0.7950   -2.1060    3.0520 C   0  0  0  0  0  0  0  0  0  0  0  0
   -0.5270   -2.8760    2.9310 C   0  0  0  0  0  0  0  0  0  0  0  0
   -0.6550   -3.1610    1.4400 C   0  0  0  0  0  0  0  0  0  0  0  0
   -0.8880   -1.8700    0.7100 C   0  0  0  0  0  0  0  0  0  0  0  0
   -3.5960    2.1560    0.3960 C   0  0  1  0  0  0  0  0  0  0  0  0
   -4.5500    1.7700    1.4860 C   0  0  0  0  0  0  0  0  0  0  0  0
   -4.0610    3.2610   -0.4180 N   0  0  0  0  0  0  0  0  0  0  0  0
   -4.4660    2.8180   -2.0140 S   0  0  2  0  0  0  0  0  0  0  0  0
   -3.6440    1.7010   -2.5660 O   0  0  0  0  0  0  0  0  0  0  0  0
   -4.2530    4.0130   -2.9000 O   0  0  0  0  0  0  0  0  0  0  0  0
   -6.1240    2.4520   -2.1060 O   0  0  0  0  0  0  0  0  0  0  0  0
  2  1  1  1
  2  3  1  0
  2 20  1  0
  3  4  1  0
  4  5  2  0
  4  6  1  0
  6  7  1  6
  6 15  1  0
  6 19  1  0
  7  8  1  0
  8  9  1  0
  9 10  1  0
 10 11  1  0
 11 12  1  0
 12 13  1  0
 13 14  1  0
 15 16  1  0
 16 17  1  0
 17 18  1  0
 18 19  1  0
 20 21  1  1
 20 22  1  0
 22 23  1  0
 23 24  2  0
 23 25  2  0
 23 26  1  1
M  CHG  1   7   1
M  END
