
     RDKit          3D

 25 25  0  0  0  0  0  0  0  0999 V2000
    5.7150   -2.4870    0.6690 C   0  0  0  0  0  0  0  0  0  0  0  0
    6.3160   -1.2740    0.4290 O   0  0  0  0  0  0  0  0  0  0  0  0
    5.5020   -0.2010    0.7060 C   0  0  0  0  0  0  0  0  0  0  0  0
    4.2330   -0.1430   -0.0790 C   0  0  2  0  0  0  0  0  0  0  0  0
    4.4550   -0.0480   -1.5600 C   0  0  0  0  0  0  0  0  0  0  0  0
    5.2290    1.0980   -1.9450 N   0  0  0  0  0  0  0  0  0  0  0  0
    3.5430    1.0190    0.3380 O   0  0  0  0  0  0  0  0  0  0  0  0
    2.3020    0.6560    0.8930 C   0  0  0  0  0  0  0  0  0  0  0  0
    1.6010    1.9200    1.3240 C   0  0  0  0  0  0  0  0  0  0  0  0
    0.3350    1.6760    1.9010 O   0  0  0  0  0  0  0  0  0  0  0  0
   -0.5770    0.9770    0.9230 C   0  0  0  0  0  0  0  0  0  0  0  0
   -0.9010    1.7040   -0.0640 C   0  0  0  0  0  0  0  0  0  0  0  0
   -1.7410    1.4040   -1.2160 C   0  0  0  0  0  0  0  0  0  0  0  0
   -3.0140    2.1530   -1.1270 C   0  0  0  0  0  0  0  0  0  0  0  0
   -3.2460    2.8890   -0.1280 O   0  0  0  0  0  0  0  0  0  0  0  0
   -3.9760    2.0520   -2.1590 N   0  0  0  0  0  0  0  0  0  0  0  0
   -5.1600    2.7850   -2.0200 N   0  0  0  0  0  0  0  0  0  0  0  0
   -0.8980   -0.3590    1.3200 C   0  0  0  0  0  0  0  0  0  0  0  0
   -1.6830   -1.1930    0.7160 O   0  0  0  0  0  0  0  0  0  0  0  0
   -3.0300   -1.0860    0.6130 C   0  0  1  0  0  0  0  0  0  0  0  0
   -3.5930   -1.4470   -0.6910 C   0  0  0  0  0  0  0  0  0  0  0  0
   -4.7160   -2.4720   -0.6830 C   0  0  0  0  0  0  0  0  0  0  0  0
   -5.9960   -1.8370    0.4370 S   0  0  0  0  0  0  0  0  0  0  0  0
   -5.0660   -1.3440    1.9460 C   0  0  0  0  0  0  0  0  0  0  0  0
   -3.6920   -1.9440    1.7480 C   0  0  0  0  0  0  0  0  0  0  0  0
  1  2  1  0
  2  3  1  0
  4  3  1  1
  4  5  1  0
  4  7  1  0
  5  6  1  0
  7  8  1  0
  8  9  1  0
  9 10  1  0
 10 11  1  0
 11 12  2  3
 11 18  1  0
 12 13  1  0
 13 14  1  0
 14 15  2  0
 14 16  1  0
 16 17  1  0
 18 19  1  0
 20 19  1  6
 20 21  1  0
 20 25  1  0
 21 22  1  0
 22 23  1  0
 23 24  1  0
 24 25  1  0
M  CHG  1   6   1
M  END
