
     RDKit          3D

 28 31  0  0  0  0  0  0  0  0999 V2000
    2.5700    1.7080    2.9220 O   0  0  0  0  0  0  0  0  0  0  0  0
    1.9410    2.0830    1.9950 C   0  0  0  0  0  0  0  0  0  0  0  0
    0.9190    3.0640    1.8730 C   0  0  0  0  0  0  0  0  0  0  0  0
    0.0810    3.1760    0.3170 S   0  0  0  0  0  0  0  0  0  0  0  0
   -1.2670    2.0130    0.0750 C   0  0  0  0  0  0  0  0  0  0  0  0
   -2.4290    1.9780    0.2480 N   0  0  0  0  0  0  0  0  0  0  0  0
   -3.3010    1.0330   -0.0010 C   0  0  0  0  0  0  0  0  0  0  0  0
   -4.6970    1.0250    0.2060 C   0  0  0  0  0  0  0  0  0  0  0  0
   -5.4330   -0.0770   -0.1410 C   0  0  0  0  0  0  0  0  0  0  0  0
   -4.9010   -1.2180   -0.6900 C   0  0  0  0  0  0  0  0  0  0  0  0
   -3.5180   -1.2190   -0.8990 C   0  0  0  0  0  0  0  0  0  0  0  0
   -2.7690   -0.1050   -0.5510 C   0  0  0  0  0  0  0  0  0  0  0  0
   -1.0230    0.3040   -0.6670 S   0  0  0  0  0  0  0  0  0  0  0  0
   -5.9470   -2.2300   -0.9360 C   0  0  0  0  0  0  0  0  0  0  0  0
   -7.1700   -1.3200   -1.0990 C   0  0  0  0  0  0  0  0  0  0  0  0
   -6.9160   -0.2740   -0.0290 C   0  0  0  0  0  0  0  0  0  0  0  0
    2.3630    1.3000    0.5080 N   0  0  0  0  0  0  0  0  0  0  0  0
    3.4910    0.6230    0.9610 C   0  0  0  0  0  0  0  0  0  0  0  0
    3.9990    0.4950    2.0440 O   0  0  0  0  0  0  0  0  0  0  0  0
    4.0970   -0.0010   -0.2330 N   0  0  0  0  0  0  0  0  0  0  0  0
    5.2680   -0.6760   -0.2470 C   0  0  0  0  0  0  0  0  0  0  0  0
    6.0980   -0.8690    0.8380 C   0  0  0  0  0  0  0  0  0  0  0  0
    7.3100   -1.5220    0.6390 C   0  0  0  0  0  0  0  0  0  0  0  0
    8.0720   -1.6980    1.6440 O   0  0  0  0  0  0  0  0  0  0  0  0
    7.6980   -1.9690   -0.5510 N   0  0  0  0  0  0  0  0  0  0  0  0
    6.8830   -1.7800   -1.6020 C   0  0  0  0  0  0  0  0  0  0  0  0
    5.6760   -1.1500   -1.5090 C   0  0  0  0  0  0  0  0  0  0  0  0
    4.6620   -0.9520   -2.9000 Cl  0  0  0  0  0  0  0  0  0  0  0  0
  1  2  2  0
  2  3  1  0
  2 17  1  0
  3  4  1  0
  4  5  1  0
  5  6  2  0
  5 13  1  0
  6  7  1  0
  7  8  2  0
  7 12  1  0
  8  9  1  0
  9 10  2  0
  9 16  1  0
 10 11  1  0
 10 14  1  0
 11 12  2  0
 12 13  1  0
 14 15  1  0
 15 16  1  0
 17 18  1  0
 18 19  2  0
 18 20  1  0
 20 21  1  0
 21 22  2  0
 21 27  1  0
 22 23  1  0
 23 24  2  0
 23 25  1  0
 25 26  1  0
 26 27  2  0
 27 28  1  0
M  END
