
     RDKit          3D

 28 31  0  0  0  0  0  0  0  0999 V2000
   -7.7150    0.5560   -1.3240 O   0  0  0  0  0  0  0  0  0  0  0  0
   -6.7380   -0.2020   -1.0060 C   0  0  0  0  0  0  0  0  0  0  0  0
   -6.7330   -1.6410   -1.4030 C   0  0  0  0  0  0  0  0  0  0  0  0
   -4.9230   -1.8270   -1.7160 S   0  0  0  0  0  0  0  0  0  0  0  0
   -4.4050   -0.4340   -0.7350 C   0  0  0  0  0  0  0  0  0  0  0  0
   -3.1740   -0.0770   -0.5050 C   0  0  0  0  0  0  0  0  0  0  0  0
   -2.8100    1.1090    0.3310 C   0  0  0  0  0  0  0  0  0  0  0  0
   -2.0040    0.8010    1.4970 C   0  0  0  0  0  0  0  0  0  0  0  0
   -2.6970    0.6770    3.1170 S   0  0  0  0  0  0  0  0  0  0  0  0
   -1.1270    0.2640    3.9310 C   0  0  0  0  0  0  0  0  0  0  0  0
   -0.9790    0.0470    5.1550 O   0  0  0  0  0  0  0  0  0  0  0  0
   -0.2740    0.2650    2.9230 N   0  0  0  0  0  0  0  0  0  0  0  0
   -0.6890    0.5300    1.7090 C   0  0  0  0  0  0  0  0  0  0  0  0
    0.2490    0.5640    0.5390 C   0  0  0  0  0  0  0  0  0  0  0  0
   -0.1370    0.8850   -0.6040 O   0  0  0  0  0  0  0  0  0  0  0  0
    1.6390    0.2280    0.6690 N   0  0  0  0  0  0  0  0  0  0  0  0
    2.4880    0.2750   -0.4660 C   0  0  0  0  0  0  0  0  0  0  0  0
    1.9410    0.6420   -1.6530 N   0  0  0  0  0  0  0  0  0  0  0  0
    2.6830    0.7070   -2.7640 C   0  0  0  0  0  0  0  0  0  0  0  0
    4.0240    0.4020   -2.7320 C   0  0  0  0  0  0  0  0  0  0  0  0
    4.5910    0.0270   -1.5330 C   0  0  0  0  0  0  0  0  0  0  0  0
    5.9320   -0.2890   -1.4480 C   0  0  0  0  0  0  0  0  0  0  0  0
    6.5100   -0.6640   -0.2570 C   0  0  0  0  0  0  0  0  0  0  0  0
    8.2050   -1.0520   -0.2060 Cl  0  0  0  0  0  0  0  0  0  0  0  0
    5.7410   -0.7250    0.8650 C   0  0  0  0  0  0  0  0  0  0  0  0
    4.3750   -0.4110    0.8170 C   0  0  0  0  0  0  0  0  0  0  0  0
    3.8090   -0.0390   -0.3700 C   0  0  0  0  0  0  0  0  0  0  0  0
   -5.5910    0.1680   -0.2820 N   0  0  0  0  0  0  0  0  0  0  0  0
  1  2  2  0
  2  3  1  0
  2 28  1  0
  3  4  1  0
  4  5  1  0
  5  6  2  3
  5 28  1  0
  6  7  1  0
  7  8  1  0
  8  9  1  0
  8 13  2  0
  9 10  1  0
 10 11  2  0
 10 12  1  0
 12 13  1  0
 13 14  1  0
 14 15  2  0
 14 16  1  0
 16 17  1  0
 17 18  2  0
 17 27  1  0
 18 19  1  0
 19 20  2  0
 20 21  1  0
 21 22  2  0
 21 27  1  0
 22 23  1  0
 23 24  1  0
 23 25  2  0
 25 26  1  0
 26 27  2  0
M  END
