
     RDKit          3D

 28 31  0  0  0  0  0  0  0  0999 V2000
    8.3360    1.2100    0.7370 N   0  0  0  0  0  0  0  0  0  0  0  0
    7.0740    0.5700    0.4850 C   0  0  0  0  0  0  0  0  0  0  0  0
    6.1040    0.6000   -0.1260 N   0  0  0  0  0  0  0  0  0  0  0  0
    5.0480   -0.1710   -0.1420 C   0  0  0  0  0  0  0  0  0  0  0  0
    3.9220   -0.0540   -0.9080 C   0  0  0  0  0  0  0  0  0  0  0  0
    2.8610   -0.9520   -0.8130 C   0  0  0  0  0  0  0  0  0  0  0  0
    1.7040   -0.9920   -1.4520 N   0  0  0  0  0  0  0  0  0  0  0  0
    0.8170   -1.7020   -1.3910 C   0  0  0  0  0  0  0  0  0  0  0  0
   -0.5480   -2.0320   -1.9130 C   0  0  0  0  0  0  0  0  0  0  0  0
   -1.4540   -1.1520   -1.0760 C   0  0  0  0  0  0  0  0  0  0  0  0
   -1.6540   -1.3930    0.1180 O   0  0  0  0  0  0  0  0  0  0  0  0
   -2.0720   -0.0320   -1.6840 N   0  0  0  0  0  0  0  0  0  0  0  0
   -2.9410    0.8980   -1.0770 C   0  0  0  0  0  0  0  0  0  0  0  0
   -3.5020    0.7300    0.1600 C   0  0  0  0  0  0  0  0  0  0  0  0
   -4.3760    1.6530    0.7510 C   0  0  0  0  0  0  0  0  0  0  0  0
   -4.9420    1.4790    1.9980 O   0  0  0  0  0  0  0  0  0  0  0  0
   -4.6650    0.3070    2.7300 C   0  0  0  0  0  0  0  0  0  0  0  0
   -5.1930   -0.8460    1.9120 C   0  0  0  0  0  0  0  0  0  0  0  0
   -5.0110   -1.9630    2.3770 O   0  0  0  0  0  0  0  0  0  0  0  0
   -4.6950    2.8120    0.0390 C   0  0  0  0  0  0  0  0  0  0  0  0
   -4.1400    2.9930   -1.2030 C   0  0  0  0  0  0  0  0  0  0  0  0
   -3.2860    2.0780   -1.7680 C   0  0  0  0  0  0  0  0  0  0  0  0
   -2.5640    2.3070   -3.3460 Cl  0  0  0  0  0  0  0  0  0  0  0  0
    1.4270   -2.8910   -0.0750 S   0  0  0  0  0  0  0  0  0  0  0  0
    3.0010   -2.0100    0.1260 C   0  0  0  0  0  0  0  0  0  0  0  0
    4.1010   -2.1680    0.9080 C   0  0  0  0  0  0  0  0  0  0  0  0
    5.1400   -1.2390    0.7760 C   0  0  0  0  0  0  0  0  0  0  0  0
    6.7070   -1.0010    1.5320 S   0  0  0  0  0  0  0  0  0  0  0  0
  1  2  1  0
  2  3  2  0
  2 28  1  0
  3  4  1  0
  4  5  2  0
  4 27  1  0
  5  6  1  0
  6  7  1  0
  6 25  2  0
  7  8  2  0
  8  9  1  0
  8 24  1  0
  9 10  1  0
 10 11  2  0
 10 12  1  0
 12 13  1  0
 13 14  2  0
 13 22  1  0
 14 15  1  0
 15 16  1  0
 15 20  2  0
 16 17  1  0
 17 18  1  0
 18 19  2  0
 20 21  1  0
 21 22  2  0
 22 23  1  0
 24 25  1  0
 25 26  1  0
 26 27  2  0
 27 28  1  0
M  END
