
     RDKit          3D

 22 22  0  0  0  0  0  0  0  0999 V2000
    6.8200    1.6670   -0.0410 C   0  0  0  0  0  0  0  0  0  0  0  0
    5.9770    0.5990   -0.5410 N   0  0  0  0  0  0  0  0  0  0  0  0
    6.5580   -0.3770   -1.4410 C   0  0  0  0  0  0  0  0  0  0  0  0
    4.6080    0.5030   -0.1620 C   0  0  0  0  0  0  0  0  0  0  0  0
    3.8030   -0.5080   -0.6320 C   0  0  0  0  0  0  0  0  0  0  0  0
    2.4670   -0.6120   -0.2700 C   0  0  0  0  0  0  0  0  0  0  0  0
    1.9140    0.3030    0.5760 C   0  0  0  0  0  0  0  0  0  0  0  0
    0.5240    0.2310    0.9790 C   0  0  0  0  0  0  0  0  0  0  0  0
    0.0310    1.0930    1.7660 O   0  0  0  0  0  0  0  0  0  0  0  0
   -0.3790   -0.7740    0.5470 N   0  0  0  0  0  0  0  0  0  0  0  0
   -1.7540   -0.8210    0.9630 C   0  0  0  0  0  0  0  0  0  0  0  0
   -2.4500   -2.0090    0.3310 C   0  0  0  0  0  0  0  0  0  0  0  0
   -3.8750   -2.1320    0.7080 C   0  0  0  0  0  0  0  0  0  0  0  0
   -4.7610   -0.9930    0.3530 C   0  0  0  0  0  0  0  0  0  0  0  0
   -4.8670   -0.6590   -1.0740 C   0  0  0  0  0  0  0  0  0  0  0  0
   -5.7790    0.4980   -1.3810 C   0  0  0  0  0  0  0  0  0  0  0  0
   -5.3310    1.7600   -0.7530 C   0  0  0  0  0  0  0  0  0  0  0  0
   -4.2350    1.8550   -0.1470 O   0  0  0  0  0  0  0  0  0  0  0  0
   -6.1510    2.9300   -0.8230 N   0  0  0  0  0  0  0  0  0  0  0  0
   -5.6650    4.0600   -0.9640 O   0  0  0  0  0  0  0  0  0  0  0  0
    2.6930    1.3230    1.0620 C   0  0  0  0  0  0  0  0  0  0  0  0
    4.0400    1.4240    0.6930 C   0  0  0  0  0  0  0  0  0  0  0  0
  1  2  1  0
  2  3  1  0
  2  4  1  0
  4  5  2  0
  4 22  1  0
  5  6  1  0
  6  7  2  0
  7  8  1  0
  7 21  1  0
  8  9  2  0
  8 10  1  0
 10 11  1  0
 11 12  1  0
 12 13  1  0
 13 14  1  0
 14 15  1  0
 15 16  1  0
 16 17  1  0
 17 18  2  0
 17 19  1  0
 19 20  2  0
 21 22  2  0
M  END
