
     RDKit          3D

 24 26  0  0  0  0  0  0  0  0999 V2000
   -3.4890   -1.4780    0.9180 C   0  0  0  0  0  0  0  0  0  0  0  0
   -3.5210   -0.2350    0.4950 C   0  0  0  0  0  0  0  0  0  0  0  0
   -4.5350    0.5830    1.0130 O   0  0  0  0  0  0  0  0  0  0  0  0
   -2.6030    0.3430   -0.4490 C   0  0  0  0  0  0  0  0  0  0  0  0
   -2.7350    1.6020   -0.7970 C   0  0  0  0  0  0  0  0  0  0  0  0
   -3.7570    2.5310   -0.3100 C   0  0  0  0  0  0  0  0  0  0  0  0
   -1.5130   -0.5030   -1.0230 C   0  0  2  0  0  0  0  0  0  0  0  0
   -2.1250   -1.6870   -1.7960 C   0  0  0  0  0  0  0  0  0  0  0  0
   -0.6100   -1.0180   -0.1130 N   0  0  0  0  0  0  0  0  0  0  0  0
    0.2360   -0.3140    0.7080 C   0  0  2  0  0  0  0  0  0  0  0  0
    1.3130    0.5100    0.1210 C   0  0  0  0  0  0  0  0  0  0  0  0
    2.6550    0.4410    0.3930 N   0  0  0  0  0  0  0  0  0  0  0  0
    3.3310    1.3590   -0.3070 C   0  0  0  0  0  0  0  0  0  0  0  0
    4.6500    1.7400   -0.4340 C   0  0  0  0  0  0  0  0  0  0  0  0
    5.0630    2.7650   -1.2690 C   0  0  0  0  0  0  0  0  0  0  0  0
    4.1030    3.4360   -2.0070 C   0  0  0  0  0  0  0  0  0  0  0  0
    2.7740    3.0810   -1.9050 C   0  0  0  0  0  0  0  0  0  0  0  0
    2.4020    2.0550   -1.0630 C   0  0  0  0  0  0  0  0  0  0  0  0
    1.1930    1.4990   -0.7640 N   0  0  0  0  0  0  0  0  0  0  0  0
    0.9640   -1.3080    1.6330 C   0  0  2  0  0  0  0  0  0  0  0  0
    1.7690   -2.3190    0.9030 C   0  0  0  0  0  0  0  0  0  0  0  0
    1.6720   -3.5240    1.7990 C   0  0  0  0  0  0  0  0  0  0  0  0
    0.5780   -3.3990    2.6040 O   0  0  0  0  0  0  0  0  0  0  0  0
    0.0600   -2.1140    2.4830 C   0  0  0  0  0  0  0  0  0  0  0  0
  1  2  2  0
  2  3  1  0
  2  4  1  0
  4  5  2  3
  4  7  1  0
  5  6  1  0
  7  8  1  1
  7  9  1  0
 10  9  1  6
 10 11  1  0
 10 20  1  0
 11 12  2  0
 11 19  1  0
 12 13  1  0
 13 14  2  0
 13 18  1  0
 14 15  1  0
 15 16  2  0
 16 17  1  0
 17 18  2  0
 18 19  1  0
 20 21  1  6
 20 24  1  0
 21 22  1  0
 22 23  1  0
 23 24  1  0
M  END
