
     RDKit          3D

 23 25  0  0  0  0  0  0  0  0999 V2000
    8.3500    0.6550   -0.8820 C   0  0  0  0  0  0  0  0  0  0  0  0
    7.1400    1.3370   -0.7750 O   0  0  0  0  0  0  0  0  0  0  0  0
    6.1810    0.4130   -0.3700 C   0  0  0  0  0  0  0  0  0  0  0  0
    4.8120    1.0740   -0.2250 C   0  0  0  0  0  0  0  0  0  0  0  0
    3.8560   -0.0160    0.2160 C   0  0  2  0  0  0  0  0  0  0  0  0
    3.7580   -1.1690   -0.7830 C   0  0  0  0  0  0  0  0  0  0  0  0
    2.5800   -0.2330   -0.4760 C   0  0  1  0  0  0  0  0  0  0  0  0
    1.5190   -0.9130    0.2770 N   0  0  0  0  0  0  0  0  0  0  0  0
    0.1490   -0.7320   -0.0520 C   0  0  0  0  0  0  0  0  0  0  0  0
   -0.0960    0.0380   -1.0170 O   0  0  0  0  0  0  0  0  0  0  0  0
   -0.9550   -1.3910    0.6730 C   0  0  0  0  0  0  0  0  0  0  0  0
   -2.2800   -1.0500    0.1450 C   0  0  0  0  0  0  0  0  0  0  0  0
   -2.8080   -1.5660   -1.0190 C   0  0  0  0  0  0  0  0  0  0  0  0
   -2.1700   -2.4980   -1.8840 N   0  0  0  0  0  0  0  0  0  0  0  0
   -4.0430   -1.0350   -1.2020 N   0  0  0  0  0  0  0  0  0  0  0  0
   -4.3470   -0.1880   -0.2020 C   0  0  0  0  0  0  0  0  0  0  0  0
   -5.4540    0.5860    0.0670 C   0  0  0  0  0  0  0  0  0  0  0  0
   -6.6340    0.6050   -0.8220 C   0  0  0  0  0  0  0  0  0  0  0  0
   -5.4430    1.3580    1.2020 C   0  0  0  0  0  0  0  0  0  0  0  0
   -4.3470    1.3660    2.0670 C   0  0  0  0  0  0  0  0  0  0  0  0
   -4.3690    2.2160    3.2900 C   0  0  0  0  0  0  0  0  0  0  0  0
   -3.2580    0.5790    1.7650 C   0  0  0  0  0  0  0  0  0  0  0  0
   -3.2410   -0.1990    0.6410 C   0  0  0  0  0  0  0  0  0  0  0  0
  1  2  1  0
  2  3  1  0
  3  4  1  0
  5  4  1  6
  5  6  1  0
  5  7  1  0
  6  7  1  0
  7  8  1  1
  8  9  1  0
  9 10  2  0
  9 11  1  0
 11 12  1  0
 12 13  2  0
 12 23  1  0
 13 14  1  0
 13 15  1  0
 15 16  1  0
 16 17  2  0
 16 23  1  0
 17 18  1  0
 17 19  1  0
 19 20  2  0
 20 21  1  0
 20 22  1  0
 22 23  2  0
M  END
