
     RDKit          3D

 24 26  0  0  0  0  0  0  0  0999 V2000
   -1.5480   -3.0120    0.6960 C   0  0  0  0  0  0  0  0  0  0  0  0
   -2.2020   -1.7220    0.4760 C   0  0  0  0  0  0  0  0  0  0  0  0
   -3.4580   -1.6460    0.3100 N   0  0  0  0  0  0  0  0  0  0  0  0
   -4.1640   -0.4800    0.0970 N   0  0  0  0  0  0  0  0  0  0  0  0
   -5.5520   -0.7050   -0.0540 C   0  0  0  0  0  0  0  0  0  0  0  0
   -6.5320    0.1360   -0.2670 C   0  0  0  0  0  0  0  0  0  0  0  0
   -6.4330    1.5960   -0.4100 C   0  0  0  0  0  0  0  0  0  0  0  0
   -5.3700    2.3360   -0.3540 C   0  0  0  0  0  0  0  0  0  0  0  0
   -3.9430    1.9880   -0.1360 C   0  0  0  0  0  0  0  0  0  0  0  0
   -3.4730    0.7780    0.0510 C   0  0  0  0  0  0  0  0  0  0  0  0
   -2.0370    0.7610    0.2350 C   0  0  0  0  0  0  0  0  0  0  0  0
   -1.3020    1.9150    0.2050 C   0  0  0  0  0  0  0  0  0  0  0  0
    0.0670    1.8280    0.3880 C   0  0  0  0  0  0  0  0  0  0  0  0
    0.6800    0.5970    0.5960 C   0  0  0  0  0  0  0  0  0  0  0  0
    2.1720    0.5340    0.7830 C   0  0  2  0  0  0  0  0  0  0  0  0
    2.7590    1.3020   -0.2400 O   0  0  0  0  0  0  0  0  0  0  0  0
    2.6960   -0.8480    0.7190 C   0  0  0  0  0  0  0  0  0  0  0  0
    4.1710   -0.9410    0.9250 C   0  0  0  0  0  0  0  0  0  0  0  0
    4.9780   -0.1940   -0.0770 C   0  0  0  0  0  0  0  0  0  0  0  0
    6.4600   -0.4160    0.1940 C   0  0  0  0  0  0  0  0  0  0  0  0
    7.3710    0.2270   -0.6710 N   0  0  0  0  0  0  0  0  0  0  0  0
    6.7870   -1.1420    1.1500 O   0  0  0  0  0  0  0  0  0  0  0  0
   -0.0740   -0.5410    0.6210 C   0  0  0  0  0  0  0  0  0  0  0  0
   -1.4350   -0.4860    0.4430 C   0  0  0  0  0  0  0  0  0  0  0  0
  1  2  1  0
  2  3  2  0
  2 24  1  0
  3  4  1  0
  4  5  1  0
  4 10  1  0
  5  6  2  0
  6  7  1  0
  7  8  2  0
  8  9  1  0
  9 10  2  0
 10 11  1  0
 11 12  2  0
 11 24  1  0
 12 13  1  0
 13 14  2  0
 14 15  1  0
 14 23  1  0
 15 16  1  6
 15 17  1  0
 17 18  1  0
 18 19  1  0
 19 20  1  0
 20 21  1  0
 20 22  2  0
 23 24  2  0
M  END
