
     RDKit          3D

 24 25  0  0  0  0  0  0  0  0999 V2000
   -6.5240   -0.9300    2.6210 C   0  0  0  0  0  0  0  0  0  0  0  0
   -7.0780   -0.8600    1.2540 C   0  0  0  0  0  0  0  0  0  0  0  0
   -6.4790   -0.3990    0.2080 C   0  0  0  0  0  0  0  0  0  0  0  0
   -5.1510    0.1500    0.1080 C   0  0  0  0  0  0  0  0  0  0  0  0
   -4.1680    0.3330    1.0550 C   0  0  0  0  0  0  0  0  0  0  0  0
   -3.0420    0.9110    0.4720 C   0  0  0  0  0  0  0  0  0  0  0  0
   -1.7650    1.2790    1.1050 C   0  0  1  0  0  0  0  0  0  0  0  0
   -1.8300    1.0650    2.6210 C   0  0  0  0  0  0  0  0  0  0  0  0
   -0.6300    0.5190    0.6340 N   0  0  0  0  0  0  0  0  0  0  0  0
    0.4910    1.2080    0.1140 C   0  0  0  0  0  0  0  0  0  0  0  0
    0.5270    2.4750    0.0490 O   0  0  0  0  0  0  0  0  0  0  0  0
    1.6590    0.4800   -0.3720 C   0  0  0  0  0  0  0  0  0  0  0  0
    1.6480   -0.7890   -0.3170 O   0  0  0  0  0  0  0  0  0  0  0  0
    2.7880    1.1370   -0.8940 N   0  0  0  0  0  0  0  0  0  0  0  0
    3.9390    0.4300   -1.3700 C   0  0  0  0  0  0  0  0  0  0  0  0
    4.6010   -0.4130   -0.2930 C   0  0  0  0  0  0  0  0  0  0  0  0
    5.7900   -1.1240   -0.8290 C   0  0  0  0  0  0  0  0  0  0  0  0
    5.9750   -2.4320   -0.8710 C   0  0  0  0  0  0  0  0  0  0  0  0
    7.2940   -2.7530   -1.4820 C   0  0  0  0  0  0  0  0  0  0  0  0
    7.8410   -1.4170   -1.7860 C   0  0  0  0  0  0  0  0  0  0  0  0
    6.9630   -0.5090   -1.4040 C   0  0  0  0  0  0  0  0  0  0  0  0
   -3.3590    1.0750   -0.8480 C   0  0  0  0  0  0  0  0  0  0  0  0
   -2.5260    1.6570   -1.9500 C   0  0  0  0  0  0  0  0  0  0  0  0
   -4.6000    0.6210   -1.0350 N   0  0  0  0  0  0  0  0  0  0  0  0
  1  2  1  0
  2  3  2  3
  3  4  1  0
  4  5  2  0
  4 24  1  0
  5  6  1  0
  6  7  1  0
  6 22  2  0
  7  8  1  1
  7  9  1  0
  9 10  1  0
 10 11  2  0
 10 12  1  0
 12 13  2  0
 12 14  1  0
 14 15  1  0
 15 16  1  0
 16 17  1  0
 17 18  2  0
 17 21  1  0
 18 19  1  0
 19 20  1  0
 20 21  2  0
 22 23  1  0
 22 24  1  0
M  END
