
     RDKit          3D

 28 30  0  0  0  0  0  0  0  0999 V2000
   -6.3710   -0.6960    0.9470 C   0  0  0  0  0  0  0  0  0  0  0  0
   -5.1490   -0.4560    0.5260 C   0  0  0  0  0  0  0  0  0  0  0  0
   -4.0470   -0.5790    1.4250 N   0  0  0  0  0  0  0  0  0  0  0  0
   -2.7190   -0.4800    0.9090 C   0  0  0  0  0  0  0  0  0  0  0  0
   -2.4890   -0.3110   -0.4350 C   0  0  0  0  0  0  0  0  0  0  0  0
   -1.2220   -0.0060   -0.8700 C   0  0  0  0  0  0  0  0  0  0  0  0
   -0.1500    0.1310    0.0260 C   0  0  0  0  0  0  0  0  0  0  0  0
    1.1900    0.3790   -0.5410 C   0  0  0  0  0  0  0  0  0  0  0  0
    1.3120    1.1700   -1.5210 O   0  0  0  0  0  0  0  0  0  0  0  0
    2.3490   -0.2430   -0.0320 N   0  0  0  0  0  0  0  0  0  0  0  0
    3.6790   -0.0790   -0.4610 C   0  0  0  0  0  0  0  0  0  0  0  0
    4.1130    0.8060   -1.4010 C   0  0  0  0  0  0  0  0  0  0  0  0
    5.4770    0.9130   -1.7440 C   0  0  0  0  0  0  0  0  0  0  0  0
    6.4230    0.1300   -1.1440 C   0  0  0  0  0  0  0  0  0  0  0  0
    7.7790    0.1870   -1.4340 O   0  0  0  0  0  0  0  0  0  0  0  0
    8.3980    1.0240   -2.3540 C   0  0  0  0  0  0  0  0  0  0  0  0
    5.9960   -0.7610   -0.2000 C   0  0  0  0  0  0  0  0  0  0  0  0
    4.6520   -0.8730    0.1440 C   0  0  0  0  0  0  0  0  0  0  0  0
    4.2500   -1.8470    1.1530 C   0  0  0  0  0  0  0  0  0  0  0  0
   -0.4130   -0.0490    1.3550 C   0  0  0  0  0  0  0  0  0  0  0  0
    0.6390    0.1480    2.3790 C   0  0  0  0  0  0  0  0  0  0  0  0
   -1.6810   -0.3570    1.8440 C   0  0  0  0  0  0  0  0  0  0  0  0
   -2.0080   -0.5710    3.2530 C   0  0  0  0  0  0  0  0  0  0  0  0
   -3.5680   -0.6740   -1.4490 C   0  0  0  0  0  0  0  0  0  0  0  0
   -4.8860   -0.1930   -0.8620 C   0  0  0  0  0  0  0  0  0  0  0  0
   -5.6030    0.5640   -1.6310 C   0  0  0  0  0  0  0  0  0  0  0  0
   -6.7500    1.3870   -1.5940 C   0  0  0  0  0  0  0  0  0  0  0  0
   -7.5080    1.7470   -0.6660 N   0  0  0  0  0  0  0  0  0  0  0  0
  1  2  2  0
  2  3  1  0
  2 25  1  0
  3  4  1  0
  4  5  2  0
  4 22  1  0
  5  6  1  0
  5 24  1  0
  6  7  2  0
  7  8  1  0
  7 20  1  0
  8  9  2  0
  8 10  1  0
 10 11  1  0
 11 12  2  0
 11 18  1  0
 12 13  1  0
 13 14  2  0
 14 15  1  0
 14 17  1  0
 15 16  1  0
 17 18  2  0
 18 19  1  0
 20 21  1  0
 20 22  2  0
 22 23  1  0
 24 25  1  0
 25 26  2  3
 26 27  1  0
 27 28  2  0
M  CHG  1  28   1
M  END
