
     RDKit          3D

 28 31  0  0  0  0  0  0  0  0999 V2000
   -1.9110    2.5780   -1.4020 C   0  0  0  0  0  0  0  0  0  0  0  0
   -0.5500    2.2800   -1.0370 C   0  0  0  0  0  0  0  0  0  0  0  0
    0.2450    3.5450   -1.0240 N   0  0  0  0  0  0  0  0  0  0  0  0
    0.1940    4.4530    0.0590 C   0  0  2  0  0  0  0  0  0  0  0  0
   -1.1670    5.0590    0.3380 C   0  0  0  0  0  0  0  0  0  0  0  0
    1.2110    5.5570   -0.1880 C   0  0  0  0  0  0  0  0  0  0  0  0
    0.0920    1.2170   -0.6920 C   0  0  0  0  0  0  0  0  0  0  0  0
    1.5520    1.4180   -0.4090 C   0  0  0  0  0  0  0  0  0  0  0  0
    2.1100    2.5580   -0.5610 O   0  0  0  0  0  0  0  0  0  0  0  0
    2.4290    0.3620    0.0460 C   0  0  0  0  0  0  0  0  0  0  0  0
    1.9150   -0.8290    0.2150 C   0  0  0  0  0  0  0  0  0  0  0  0
    0.5060   -1.0610   -0.0520 C   0  0  0  0  0  0  0  0  0  0  0  0
   -0.3740   -0.1440   -0.4710 C   0  0  0  0  0  0  0  0  0  0  0  0
   -1.7670   -0.5040   -0.5790 C   0  0  0  0  0  0  0  0  0  0  0  0
   -2.6260    0.2450   -1.0910 O   0  0  0  0  0  0  0  0  0  0  0  0
   -2.3780   -1.7200   -0.1290 N   0  0  0  0  0  0  0  0  0  0  0  0
   -3.8230   -1.8800   -0.5020 C   0  0  0  0  0  0  0  0  0  0  0  0
   -4.0230   -3.3260   -0.8720 C   0  0  0  0  0  0  0  0  0  0  0  0
   -3.8940   -4.1480    0.3340 N   0  0  0  0  0  0  0  0  0  0  0  0
   -3.1250   -3.4550    1.3260 C   0  0  0  0  0  0  0  0  0  0  0  0
   -1.8820   -2.7740    0.6730 C   0  0  0  0  0  0  0  0  0  0  0  0
    2.9990   -1.7100    0.6750 C   0  0  0  0  0  0  0  0  0  0  0  0
    3.0460   -3.0460    1.0070 C   0  0  0  0  0  0  0  0  0  0  0  0
    4.2290   -3.6250    1.4180 C   0  0  0  0  0  0  0  0  0  0  0  0
    5.3910   -2.8870    1.5060 C   0  0  0  0  0  0  0  0  0  0  0  0
    5.3520   -1.5600    1.1780 C   0  0  0  0  0  0  0  0  0  0  0  0
    4.1650   -0.9890    0.7680 C   0  0  0  0  0  0  0  0  0  0  0  0
    3.8830    0.3890    0.3720 C   0  0  0  0  0  0  0  0  0  0  0  0
  1  2  1  0
  2  3  1  0
  2  7  2  3
  3  4  1  0
  4  5  1  6
  4  6  1  0
  7  8  1  0
  7 13  1  0
  8  9  2  0
  8 10  1  0
 10 11  2  0
 10 28  1  0
 11 12  1  0
 11 22  1  0
 12 13  2  0
 13 14  1  0
 14 15  2  0
 14 16  1  0
 16 17  1  0
 16 21  1  0
 17 18  1  0
 18 19  1  0
 19 20  1  0
 20 21  1  0
 22 23  2  0
 22 27  1  0
 23 24  1  0
 24 25  2  0
 25 26  1  0
 26 27  2  0
 27 28  1  0
M  CHG  1  19   1
M  END
