
     RDKit          3D

 28 31  0  0  0  0  0  0  0  0999 V2000
    4.6800    2.4600    1.6610 C   0  0  0  0  0  0  0  0  0  0  0  0
    4.3650    1.4370    0.6360 C   0  0  0  0  0  0  0  0  0  0  0  0
    5.1440    1.2800   -0.4670 C   0  0  0  0  0  0  0  0  0  0  0  0
    4.8170    0.3290   -1.3800 C   0  0  0  0  0  0  0  0  0  0  0  0
    3.6910   -0.4880   -1.1960 C   0  0  0  0  0  0  0  0  0  0  0  0
    2.8900   -0.3450   -0.0850 C   0  0  0  0  0  0  0  0  0  0  0  0
    3.2580    0.6420    0.8290 C   0  0  0  0  0  0  0  0  0  0  0  0
    1.7000   -1.2160    0.1010 C   0  0  1  0  0  0  0  0  0  0  0  0
    0.5720   -0.7970   -0.6570 N   0  0  0  0  0  0  0  0  0  0  0  0
   -0.0110    0.4700   -0.2820 C   0  0  0  0  0  0  0  0  0  0  0  0
   -0.7040    0.4450    1.0570 C   0  0  0  0  0  0  0  0  0  0  0  0
   -1.7920   -0.4930    1.1110 N   0  0  0  0  0  0  0  0  0  0  0  0
   -1.6170   -1.8530    1.2950 C   0  0  0  0  0  0  0  0  0  0  0  0
   -2.8070   -2.4910    1.2090 C   0  0  0  0  0  0  0  0  0  0  0  0
   -3.7640   -1.5010    0.9630 C   0  0  0  0  0  0  0  0  0  0  0  0
   -3.0950   -0.2800    0.9130 C   0  0  0  0  0  0  0  0  0  0  0  0
   -3.7940    0.8560    0.7640 C   0  0  0  0  0  0  0  0  0  0  0  0
   -3.1390    2.1570    0.8040 C   0  0  0  0  0  0  0  0  0  0  0  0
   -2.4790    2.6240   -0.3740 N   0  0  0  0  0  0  0  0  0  0  0  0
   -2.9990    2.8340   -1.6550 C   0  0  0  0  0  0  0  0  0  0  0  0
   -4.1980    2.6000   -1.8720 O   0  0  0  0  0  0  0  0  0  0  0  0
   -5.2420    0.7330    0.5910 C   0  0  0  0  0  0  0  0  0  0  0  0
   -5.8840    1.8420    0.4980 O   0  0  0  0  0  0  0  0  0  0  0  0
   -5.9560   -0.5320    0.5260 C   0  0  0  0  0  0  0  0  0  0  0  0
   -5.0600   -1.6670    0.7830 C   0  0  0  0  0  0  0  0  0  0  0  0
    2.1100   -2.5810   -0.4490 C   0  0  0  0  0  0  0  0  0  0  0  0
    2.4440   -2.5040   -1.9090 C   0  0  0  0  0  0  0  0  0  0  0  0
    3.4580   -1.4770   -2.2710 C   0  0  0  0  0  0  0  0  0  0  0  0
  1  2  1  0
  2  3  2  0
  2  7  1  0
  3  4  1  0
  4  5  2  0
  5  6  1  0
  5 28  1  0
  6  7  2  0
  6  8  1  0
  8  9  1  6
  8 26  1  0
  9 10  1  0
 10 11  1  0
 11 12  1  0
 12 13  1  0
 12 16  1  0
 13 14  2  0
 14 15  1  0
 15 16  1  0
 15 25  2  0
 16 17  2  0
 17 18  1  0
 17 22  1  0
 18 19  1  0
 19 20  1  0
 20 21  2  0
 22 23  2  0
 22 24  1  0
 24 25  1  0
 26 27  1  0
 27 28  1  0
M  CHG  1   9   1
M  END
