
     RDKit          3D

 28 31  0  0  0  0  0  0  0  0999 V2000
   -7.2030   -0.7320    2.3720 C   0  0  0  0  0  0  0  0  0  0  0  0
   -5.8940   -0.3740    1.7750 C   0  0  0  0  0  0  0  0  0  0  0  0
   -5.7970    0.7140    0.9070 C   0  0  0  0  0  0  0  0  0  0  0  0
   -4.5920    1.0660    0.3400 C   0  0  0  0  0  0  0  0  0  0  0  0
   -3.4510    0.3550    0.6150 C   0  0  0  0  0  0  0  0  0  0  0  0
   -2.1160    0.7060    0.0120 C   0  0  0  0  0  0  0  0  0  0  0  0
   -1.8880   -0.1920   -1.0720 N   0  0  1  0  0  0  0  0  0  0  0  0
   -2.6610    0.2080   -2.2090 C   0  0  0  0  0  0  0  0  0  0  0  0
   -2.2520    1.5610   -2.7460 C   0  0  0  0  0  0  0  0  0  0  0  0
   -0.7630    1.6310   -2.7000 C   0  0  0  0  0  0  0  0  0  0  0  0
   -0.1960    0.2240   -2.6620 C   0  0  0  0  0  0  0  0  0  0  0  0
   -0.5020   -0.4900   -1.3510 C   0  0  1  0  0  0  0  0  0  0  0  0
    0.4090   -0.1100   -0.2390 C   0  0  0  0  0  0  0  0  0  0  0  0
    1.8160   -0.4620   -0.5550 C   0  0  0  0  0  0  0  0  0  0  0  0
    2.0580   -1.0950   -1.5890 O   0  0  0  0  0  0  0  0  0  0  0  0
    2.8910   -0.0940    0.2950 N   0  0  0  0  0  0  0  0  0  0  0  0
    4.2510   -0.3590    0.1190 C   0  0  0  0  0  0  0  0  0  0  0  0
    4.7200   -1.0660   -0.9510 C   0  0  0  0  0  0  0  0  0  0  0  0
    6.0980   -1.3170   -1.0900 C   0  0  0  0  0  0  0  0  0  0  0  0
    6.9520   -0.8400   -0.1340 C   0  0  0  0  0  0  0  0  0  0  0  0
    6.5010   -0.1170    0.9680 C   0  0  0  0  0  0  0  0  0  0  0  0
    5.1490    0.1160    1.0810 C   0  0  0  0  0  0  0  0  0  0  0  0
    4.9830    0.8970    2.3240 C   0  0  0  0  0  0  0  0  0  0  0  0
    4.0180    1.6240    2.6010 O   0  0  0  0  0  0  0  0  0  0  0  0
    6.2110    0.6100    3.1370 C   0  0  0  0  0  0  0  0  0  0  0  0
    7.1860    0.4730    2.0790 N   0  0  0  0  0  0  0  0  0  0  0  0
   -3.5610   -0.7210    1.4770 C   0  0  0  0  0  0  0  0  0  0  0  0
   -4.7600   -1.0850    2.0520 C   0  0  0  0  0  0  0  0  0  0  0  0
  1  2  1  0
  2  3  2  0
  2 28  1  0
  3  4  1  0
  4  5  2  0
  5  6  1  0
  5 27  1  0
  7  6  1  1
  7  8  1  0
  7 12  1  0
  8  9  1  0
  9 10  1  0
 10 11  1  0
 11 12  1  0
 12 13  1  1
 13 14  1  0
 14 15  2  0
 14 16  1  0
 16 17  1  0
 17 18  2  0
 17 22  1  0
 18 19  1  0
 19 20  2  0
 20 21  1  0
 21 22  2  0
 21 26  1  0
 22 23  1  0
 23 24  2  0
 23 25  1  0
 25 26  1  0
 27 28  2  0
M  CHG  1   7   1
M  END
