
     RDKit          3D

 23 25  0  0  0  0  0  0  0  0999 V2000
    5.7200    1.7030   -0.2350 C   0  0  0  0  0  0  0  0  0  0  0  0
    4.5410    0.8220   -0.0720 C   0  0  0  0  0  0  0  0  0  0  0  0
    4.7420   -0.5610   -0.0560 C   0  0  0  0  0  0  0  0  0  0  0  0
    3.7110   -1.4430    0.0890 C   0  0  0  0  0  0  0  0  0  0  0  0
    3.9570   -2.8880    0.1020 C   0  0  0  0  0  0  0  0  0  0  0  0
    2.4290   -0.9650    0.2240 C   0  0  0  0  0  0  0  0  0  0  0  0
    1.3690   -1.7640    0.3700 N   0  0  0  0  0  0  0  0  0  0  0  0
    0.0880   -1.3120    0.5040 C   0  0  0  0  0  0  0  0  0  0  0  0
   -0.7890   -2.2360    0.6350 O   0  0  0  0  0  0  0  0  0  0  0  0
   -0.2180    0.0150    0.5000 C   0  0  0  0  0  0  0  0  0  0  0  0
   -1.3850    0.5720    0.6180 O   0  0  0  0  0  0  0  0  0  0  0  0
   -2.6030    0.8480    0.2900 C   0  0  0  0  0  0  0  0  0  0  0  0
   -2.9030    2.2140   -0.0070 C   0  0  0  0  0  0  0  0  0  0  0  0
   -4.1400    2.6460   -0.3660 C   0  0  0  0  0  0  0  0  0  0  0  0
   -4.3720    3.9670   -0.6400 F   0  0  0  0  0  0  0  0  0  0  0  0
   -5.1800    1.7430   -0.4570 C   0  0  0  0  0  0  0  0  0  0  0  0
   -4.9550    0.4250   -0.1850 C   0  0  0  0  0  0  0  0  0  0  0  0
   -6.0760   -0.5470   -0.2830 C   0  0  0  0  0  0  0  0  0  0  0  0
   -3.6730    0.0150    0.1810 C   0  0  0  0  0  0  0  0  0  0  0  0
   -3.5330   -1.3650    0.4660 N   0  0  0  0  0  0  0  0  0  0  0  0
    0.9100    0.8730    0.3460 C   0  0  0  0  0  0  0  0  0  0  0  0
    2.1800    0.4100    0.2130 C   0  0  0  0  0  0  0  0  0  0  0  0
    3.2520    1.2720    0.0640 C   0  0  0  0  0  0  0  0  0  0  0  0
  1  2  1  0
  2  3  2  0
  2 23  1  0
  3  4  1  0
  4  5  1  0
  4  6  2  0
  6  7  1  0
  6 22  1  0
  7  8  1  0
  8  9  2  0
  8 10  1  0
 10 11  1  0
 10 21  2  0
 11 12  1  0
 12 13  2  0
 12 19  1  0
 13 14  1  0
 14 15  1  0
 14 16  2  0
 16 17  1  0
 17 18  1  0
 17 19  2  0
 19 20  1  0
 21 22  1  0
 22 23  2  0
M  END
