
     RDKit          3D

 24 27  0  0  0  0  0  0  0  0999 V2000
    1.7470    2.9080    0.9220 O   0  0  0  0  0  0  0  0  0  0  0  0
    1.1030    1.9210    0.2140 C   0  0  2  0  0  0  0  0  0  0  0  0
    0.0440    1.4030    0.9720 O   0  0  0  0  0  0  0  0  0  0  0  0
   -0.6470    0.4860    0.1870 C   0  0  2  0  0  0  0  0  0  0  0  0
   -1.4000    1.5090   -1.2030 P   0  0  0  0  0  0  0  0  0  0  0  0
   -1.9550    3.0940   -0.4880 C   0  0  0  0  0  0  0  0  0  0  0  0
   -2.9970    3.0300    0.3840 O   0  0  0  0  0  0  0  0  0  0  0  0
   -3.6900    1.5000    0.6420 P   0  0  0  0  0  0  0  0  0  0  0  0
   -4.4310    0.9330   -0.8360 O   0  0  0  0  0  0  0  0  0  0  0  0
   -2.1500   -0.0070    1.2110 P   0  0  0  0  0  0  0  0  0  0  0  0
   -2.7950   -1.6560    0.6300 C   0  0  1  0  0  0  0  0  0  0  0  0
   -4.0670   -1.5790    0.1030 O   0  0  0  0  0  0  0  0  0  0  0  0
   -1.8570   -2.0960   -0.4740 C   0  0  0  0  0  0  0  0  0  0  0  0
   -0.4200   -1.9110   -0.0180 C   0  0  0  0  0  0  0  0  0  0  0  0
    0.0870   -0.6150   -0.2850 N   0  0  0  0  0  0  0  0  0  0  0  0
    1.4470   -0.5220   -0.1140 N   0  0  0  0  0  0  0  0  0  0  0  0
    2.0310    0.7670    0.0320 C   0  0  0  0  0  0  0  0  0  0  0  0
    3.3600    0.9600    0.0070 C   0  0  0  0  0  0  0  0  0  0  0  0
    4.1200   -0.2190   -0.1710 N   0  0  0  0  0  0  0  0  0  0  0  0
    5.3330   -0.1490   -0.7390 O   0  0  0  0  0  0  0  0  0  0  0  0
    3.6250   -1.3690    0.2280 O   0  0  0  0  0  0  0  0  0  0  0  0
    2.3370   -1.6720   -0.0810 C   0  0  1  0  0  0  0  0  0  0  0  0
    1.9350   -2.6150    0.8970 O   0  0  0  0  0  0  0  0  0  0  0  0
    2.3140   -2.2340   -1.3620 O   0  0  0  0  0  0  0  0  0  0  0  0
  2  1  1  1
  2  3  1  0
  2 17  1  0
  4  3  1  1
  4  5  1  0
  4 10  1  0
  4 15  1  0
  5  6  1  0
  6  7  1  0
  7  8  1  0
  8  9  1  0
  8 10  1  0
 10 11  1  0
 11 12  1  6
 11 13  1  0
 13 14  1  0
 14 15  1  0
 15 16  1  0
 16 17  1  0
 16 22  1  0
 17 18  2  0
 18 19  1  0
 19 20  1  0
 19 21  1  0
 21 22  1  0
 22 23  1  1
 22 24  1  0
M  END
