
     RDKit          3D

 23 26  0  0  0  0  0  0  0  0999 V2000
   -1.0120   -3.6200    0.0690 C   0  0  0  0  0  0  0  0  0  0  0  0
   -0.3280   -2.4220    0.4190 N   0  0  0  0  0  0  0  0  0  0  0  0
   -1.1170   -1.3030    0.2690 C   0  0  0  0  0  0  0  0  0  0  0  0
   -0.6300    0.0650    0.3170 C   0  0  1  0  0  0  0  0  0  0  0  0
   -0.4750    0.7730   -1.0300 C   0  0  0  0  0  0  0  0  0  0  0  0
   -1.0350    1.9200   -0.4720 O   0  0  0  0  0  0  0  0  0  0  0  0
   -1.7590    1.0750    0.3710 C   0  0  1  0  0  0  0  0  0  0  0  0
   -3.0790    0.7730   -0.1430 C   0  0  1  0  0  0  0  0  0  0  0  0
   -3.2440    0.1660   -1.3360 O   0  0  0  0  0  0  0  0  0  0  0  0
   -3.7880    0.0160    0.8220 O   0  0  0  0  0  0  0  0  0  0  0  0
   -3.8570    2.1010   -0.2100 C   0  0  0  0  0  0  0  0  0  0  0  0
   -5.1910    1.8670   -0.4460 O   0  0  0  0  0  0  0  0  0  0  0  0
    0.2970    0.4550    1.1990 O   0  0  0  0  0  0  0  0  0  0  0  0
    1.6810   -0.3440    1.5370 P   0  0  0  0  0  0  0  0  0  0  0  0
    3.0350   -0.2440    0.2270 C   0  0  1  0  0  0  0  0  0  0  0  0
    4.0150    0.6350    0.7190 N   0  0  0  0  0  0  0  0  0  0  0  0
    5.1500    0.8170   -0.2030 C   0  0  0  0  0  0  0  0  0  0  0  0
    5.6390    2.1010    0.0430 O   0  0  0  0  0  0  0  0  0  0  0  0
    4.6960    2.9530   -0.3700 O   0  0  0  0  0  0  0  0  0  0  0  0
    3.3400    2.3260    0.5680 P   0  0  0  0  0  0  0  0  0  0  0  0
    3.5000   -1.6430    0.2520 N   0  0  0  0  0  0  0  0  0  0  0  0
    2.5200   -2.4000   -0.2950 O   0  0  0  0  0  0  0  0  0  0  0  0
    1.2680   -2.4830    0.9520 P   0  0  0  0  0  0  0  0  0  0  0  0
  1  2  1  0
  2  3  1  0
  2 23  1  0
  4  3  1  6
  4  5  1  0
  4  7  1  0
  4 13  1  0
  5  6  1  0
  7  6  1  6
  7  8  1  0
  8  9  1  6
  8 10  1  0
  8 11  1  0
 11 12  1  0
 13 14  1  0
 14 15  1  0
 14 23  1  0
 15 16  1  1
 15 21  1  0
 16 17  1  0
 16 20  1  0
 17 18  1  0
 18 19  1  0
 19 20  1  0
 21 22  1  0
 22 23  1  0
M  END
