
     RDKit          3D

 24 26  0  0  0  0  0  0  0  0999 V2000
    1.1680   -2.9690   -2.5350 O   0  0  0  0  0  0  0  0  0  0  0  0
    0.5580   -2.1510   -1.8230 C   0  0  0  0  0  0  0  0  0  0  0  0
   -0.8350   -2.5050   -1.3770 C   0  0  0  0  0  0  0  0  0  0  0  0
   -1.4580   -1.2920   -0.8210 N   0  0  0  0  0  0  0  0  0  0  0  0
   -2.7580   -1.0180   -1.0620 O   0  0  0  0  0  0  0  0  0  0  0  0
   -3.7820   -1.7560    0.1280 P   0  0  0  0  0  0  0  0  0  0  0  0
   -4.5460   -0.5670    1.1310 O   0  0  0  0  0  0  0  0  0  0  0  0
   -5.0110   -2.6750   -0.6760 O   0  0  0  0  0  0  0  0  0  0  0  0
   -0.7370   -0.3740   -0.0230 C   0  0  0  0  0  0  0  0  0  0  0  0
   -1.4930    0.6570    1.0370 P   0  0  0  0  0  0  0  0  0  0  0  0
   -0.6920    1.8810    2.1190 C   0  0  0  0  0  0  0  0  0  0  0  0
   -0.7480    3.1400    1.4770 O   0  0  0  0  0  0  0  0  0  0  0  0
   -0.1890    4.0640    2.2010 O   0  0  0  0  0  0  0  0  0  0  0  0
    0.7370   -0.3240   -0.1230 C   0  0  2  0  0  0  0  0  0  0  0  0
    1.3340   -1.2250    0.8900 N   0  0  0  0  0  0  0  0  0  0  0  0
    3.0510   -0.6290    0.6720 P   0  0  0  0  0  0  0  0  0  0  0  0
    3.9650   -0.8650    2.1030 O   0  0  0  0  0  0  0  0  0  0  0  0
    2.5150    1.1460    0.4570 C   0  0  1  0  0  0  0  0  0  0  0  0
    2.7950    1.7980   -0.8010 C   0  0  0  0  0  0  0  0  0  0  0  0
    3.7460    2.1170   -1.4680 O   0  0  0  0  0  0  0  0  0  0  0  0
    1.3220    1.9200   -0.9390 C   0  0  0  0  0  0  0  0  0  0  0  0
    1.1400    1.0000    0.1610 N   0  0  0  0  0  0  0  0  0  0  0  0
    1.1360   -0.8720   -1.4090 C   0  0  0  0  0  0  0  0  0  0  0  0
    1.9400   -0.3620   -2.2260 O   0  0  0  0  0  0  0  0  0  0  0  0
  1  2  2  0
  2  3  1  0
  2 23  1  0
  3  4  1  0
  4  5  1  0
  4  9  1  0
  5  6  1  0
  6  7  1  0
  6  8  1  0
  9 10  2  3
  9 14  1  0
 10 11  1  0
 11 12  1  0
 12 13  1  0
 14 15  1  1
 14 22  1  0
 14 23  1  0
 15 16  1  0
 16 17  1  0
 18 16  1  6
 18 19  1  0
 18 22  1  0
 19 20  2  0
 19 21  1  0
 21 22  1  0
 23 24  2  0
M  END
