
     RDKit          3D

 24 25  0  0  0  0  0  0  0  0999 V2000
   -3.1760   -0.9540   -1.8550 N   0  0  0  0  0  0  0  0  0  0  0  0
   -3.1020   -0.4820   -0.4630 C   0  0  2  0  0  0  0  0  0  0  0  0
   -4.4670   -0.4940    0.0250 N   0  0  0  0  0  0  0  0  0  0  0  0
   -4.5850   -0.0820    1.3140 O   0  0  0  0  0  0  0  0  0  0  0  0
   -5.2630    1.0780    1.6690 C   0  0  0  0  0  0  0  0  0  0  0  0
   -5.7760    1.7520    0.7510 O   0  0  0  0  0  0  0  0  0  0  0  0
   -5.3810    1.4970    2.9910 O   0  0  0  0  0  0  0  0  0  0  0  0
   -2.5440    0.8340   -0.4910 N   0  0  0  0  0  0  0  0  0  0  0  0
   -1.1470    0.9050   -0.1250 C   0  0  0  0  0  0  0  0  0  0  0  0
   -0.4260   -0.2530   -0.7700 C   0  0  1  0  0  0  0  0  0  0  0  0
    1.0580   -0.1810   -0.5870 C   0  0  0  0  0  0  0  0  0  0  0  0
    1.6300    0.7800    0.0610 C   0  0  0  0  0  0  0  0  0  0  0  0
    3.0690    0.9180    0.2810 C   0  0  0  0  0  0  0  0  0  0  0  0
    3.6980    2.1920    1.1220 P   0  0  0  0  0  0  0  0  0  0  0  0
    5.3650    2.3430    1.3710 O   0  0  0  0  0  0  0  0  0  0  0  0
    6.2850    1.1700    0.5160 P   0  0  0  0  0  0  0  0  0  0  0  0
    5.1920   -0.3550    0.3850 C   0  0  0  0  0  0  0  0  0  0  0  0
    3.9620   -0.0090   -0.2040 O   0  0  0  0  0  0  0  0  0  0  0  0
    2.0360   -1.5290   -1.3330 P   0  0  0  0  0  0  0  0  0  0  0  0
    2.8140   -2.4610   -0.1090 O   0  0  0  0  0  0  0  0  0  0  0  0
    3.1520   -0.9360   -2.4890 O   0  0  0  0  0  0  0  0  0  0  0  0
   -0.9710   -1.4990   -0.1680 C   0  0  0  0  0  0  0  0  0  0  0  0
   -0.2750   -2.5320   -0.0290 O   0  0  0  0  0  0  0  0  0  0  0  0
   -2.3160   -1.4330    0.2310 O   0  0  0  0  0  0  0  0  0  0  0  0
  2  1  1  6
  2  3  1  0
  2  8  1  0
  2 24  1  0
  3  4  1  0
  4  5  1  0
  5  6  2  0
  5  7  1  0
  8  9  1  0
  9 10  1  0
 10 11  1  1
 10 22  1  0
 11 12  2  3
 11 19  1  0
 12 13  1  0
 13 14  2  0
 13 18  1  0
 14 15  1  0
 15 16  1  0
 16 17  1  0
 17 18  1  0
 19 20  1  0
 19 21  1  0
 22 23  2  0
 22 24  1  0
M  END
