
     RDKit          3D

 21 23  0  0  0  0  0  0  0  0999 V2000
   -4.1410   -0.9280    0.9980 C   0  0  0  0  0  0  0  0  0  0  0  0
   -4.2610    0.1240    0.0110 N   0  0  1  0  0  0  0  0  0  0  0  0
   -4.1420    1.4410    0.6060 C   0  0  0  0  0  0  0  0  0  0  0  0
   -2.6920    1.8060    0.8320 C   0  0  0  0  0  0  0  0  0  0  0  0
   -1.9130    1.6570   -0.2690 O   0  0  0  0  0  0  0  0  0  0  0  0
   -2.0320    0.5260   -1.0120 C   0  0  1  0  0  0  0  0  0  0  0  0
   -1.1040   -0.5160   -0.4380 C   0  0  0  0  0  0  0  0  0  0  0  0
    0.2690   -0.2140   -0.4310 N   0  0  0  0  0  0  0  0  0  0  0  0
    1.0670   -0.5880   -1.6140 C   0  0  0  0  0  0  0  0  0  0  0  0
    2.3410   -1.2540   -1.2200 C   0  0  1  0  0  0  0  0  0  0  0  0
    3.1780   -1.2480   -2.3470 O   0  0  0  0  0  0  0  0  0  0  0  0
    3.0880   -0.5520   -0.1310 C   0  0  0  0  0  0  0  0  0  0  0  0
    2.4520    0.2190    0.7010 C   0  0  0  0  0  0  0  0  0  0  0  0
    3.1290    0.9080    1.7560 N   0  0  0  0  0  0  0  0  0  0  0  0
    4.5260    0.7270    1.8710 C   0  0  0  0  0  0  0  0  0  0  0  0
    5.0920    1.0690    2.9170 O   0  0  0  0  0  0  0  0  0  0  0  0
    5.3320    0.1360    0.7650 C   0  0  0  0  0  0  0  0  0  0  0  0
    4.5400   -0.7980   -0.0760 C   0  0  0  0  0  0  0  0  0  0  0  0
    1.0050    0.4180    0.5820 C   0  0  0  0  0  0  0  0  0  0  0  0
    0.4080    1.1540    1.3830 O   0  0  0  0  0  0  0  0  0  0  0  0
   -3.4110   -0.0680   -1.1130 C   0  0  0  0  0  0  0  0  0  0  0  0
  2  1  1  1
  2  3  1  0
  2 21  1  0
  3  4  1  0
  4  5  1  0
  5  6  1  0
  6  7  1  1
  6 21  1  0
  7  8  1  0
  8  9  1  0
  8 19  1  0
  9 10  1  0
 10 11  1  6
 10 12  1  0
 12 13  2  0
 12 18  1  0
 13 14  1  0
 13 19  1  0
 14 15  1  0
 15 16  2  0
 15 17  1  0
 17 18  1  0
 19 20  2  0
M  CHG  1   2   1
M  END
