
     RDKit          3D

 21 23  0  0  0  0  0  0  0  0999 V2000
   -1.1090   -2.5060    0.8990 C   0  0  0  0  0  0  0  0  0  0  0  0
   -1.3620   -2.2510   -0.5720 C   0  0  0  0  0  0  0  0  0  0  0  0
   -1.1860   -0.8000   -0.9310 C   0  0  2  0  0  0  0  0  0  0  0  0
    0.2150   -0.3370   -0.6270 C   0  0  0  0  0  0  0  0  0  0  0  0
    1.2460   -1.1830   -0.7940 N   0  0  0  0  0  0  0  0  0  0  0  0
    2.5300   -0.8070   -0.5300 C   0  0  0  0  0  0  0  0  0  0  0  0
    3.4800   -1.6220   -0.6950 O   0  0  0  0  0  0  0  0  0  0  0  0
    2.7860    0.4690   -0.0810 C   0  0  0  0  0  0  0  0  0  0  0  0
    4.1580    0.8920    0.2070 C   0  0  0  0  0  0  0  0  0  0  0  0
    4.3540    2.0760    0.6190 O   0  0  0  0  0  0  0  0  0  0  0  0
    5.2480    0.0830    0.0590 O   0  0  0  0  0  0  0  0  0  0  0  0
    6.5420    0.5720    0.3600 C   0  0  0  0  0  0  0  0  0  0  0  0
    1.7430    1.2990    0.0790 N   0  0  0  0  0  0  0  0  0  0  0  0
    0.4630    0.9530   -0.1740 C   0  0  0  0  0  0  0  0  0  0  0  0
   -0.6300    1.9090    0.0220 C   0  0  0  0  0  0  0  0  0  0  0  0
   -0.3960    3.0110    0.5530 O   0  0  0  0  0  0  0  0  0  0  0  0
   -1.9630    1.5110   -0.4240 C   0  0  2  0  0  0  0  0  0  0  0  0
   -3.0530    2.0460    0.3290 N   0  0  0  0  0  0  0  0  0  0  0  0
   -4.1480    1.0930    0.2580 C   0  0  0  0  0  0  0  0  0  0  0  0
   -3.5630   -0.1710   -0.3860 C   0  0  0  0  0  0  0  0  0  0  0  0
   -2.1050    0.0150   -0.0980 C   0  0  1  0  0  0  0  0  0  0  0  0
  1  2  1  0
  3  2  1  1
  3  4  1  0
  3 21  1  0
  4  5  1  0
  4 14  2  0
  5  6  1  0
  6  7  2  0
  6  8  1  0
  8  9  1  0
  8 13  2  0
  9 10  2  0
  9 11  1  0
 11 12  1  0
 13 14  1  0
 14 15  1  0
 15 16  2  0
 15 17  1  0
 17 18  1  1
 17 21  1  0
 18 19  1  0
 19 20  1  0
 21 20  1  6
M  CHG  1  18   1
M  END
