
     RDKit          3D

 10 10  0  0  0  0  0  0  0  0999 V2000
    2.8230   -0.8490   -0.0720 C   0  0  0  0  0  0  0  0  0  0  0  0
    1.4140   -0.4000    0.2270 C   0  0  0  0  0  0  0  0  0  0  0  0
    0.7060   -1.3220    0.8520 C   0  0  0  0  0  0  0  0  0  0  0  0
   -0.9940   -1.1070    1.3480 S   0  0  0  0  0  0  0  0  0  0  0  0
   -1.8420   -0.1370    0.1540 C   0  0  0  0  0  0  0  0  0  0  0  0
   -3.2420   -0.5190   -0.1020 C   0  0  0  0  0  0  0  0  0  0  0  0
   -1.3740    0.8620   -0.5140 N   0  0  0  0  0  0  0  0  0  0  0  0
   -0.1080    1.4780   -0.5170 C   0  0  0  0  0  0  0  0  0  0  0  0
   -0.1280    2.8120   -0.9000 O   0  0  0  0  0  0  0  0  0  0  0  0
    1.0530    0.9420   -0.2050 C   0  0  0  0  0  0  0  0  0  0  0  0
  1  2  1  0
  2  3  2  0
  2 10  1  0
  3  4  1  0
  4  5  1  0
  5  6  1  0
  5  7  2  0
  7  8  1  0
  8  9  1  0
  8 10  2  0
M  END
