
     RDKit          3D

 31 32  0  0  0  0  0  0  0  0999 V2000
    7.2060    0.5770    2.2170 C   0  0  0  0  0  0  0  0  0  0  0  0
    5.9390    1.1970    2.3130 O   0  0  0  0  0  0  0  0  0  0  0  0
    5.0410    0.9640    1.2730 C   0  0  0  0  0  0  0  0  0  0  0  0
    3.7870    1.5330    1.2940 C   0  0  0  0  0  0  0  0  0  0  0  0
    2.8930    1.3090    0.2700 C   0  0  0  0  0  0  0  0  0  0  0  0
    3.1960    0.5150   -0.8160 C   0  0  0  0  0  0  0  0  0  0  0  0
    2.0460    0.2510   -2.1000 S   0  0  2  0  0  0  0  0  0  0  0  0
    2.7210    0.1490   -3.4380 O   0  0  0  0  0  0  0  0  0  0  0  0
    1.1810    1.4940   -2.1650 O   0  0  0  0  0  0  0  0  0  0  0  0
    1.1010   -1.1150   -1.7660 N   0  0  0  0  0  0  0  0  0  0  0  0
    0.3370   -0.9870   -0.5780 C   0  0  0  0  0  0  0  0  0  0  0  0
   -1.0090   -0.3430   -0.8670 C   0  0  0  0  0  0  0  0  0  0  0  0
   -1.7660   -0.2120    0.2920 O   0  0  0  0  0  0  0  0  0  0  0  0
   -2.9900    0.3600    0.0840 C   0  0  2  0  0  0  0  0  0  0  0  0
   -3.0640    1.5670    0.7560 O   0  0  0  0  0  0  0  0  0  0  0  0
   -4.2510    2.2420    0.5690 C   0  0  2  0  0  0  0  0  0  0  0  0
   -4.8920    2.6330    1.8990 C   0  0  0  0  0  0  0  0  0  0  0  0
   -4.0660    3.4550    2.6390 O   0  0  0  0  0  0  0  0  0  0  0  0
   -5.2360    1.5590   -0.3110 C   0  0  1  0  0  0  0  0  0  0  0  0
   -4.9640    1.8630   -1.6650 O   0  0  0  0  0  0  0  0  0  0  0  0
   -5.3760    0.0950   -0.1020 C   0  0  2  0  0  0  0  0  0  0  0  0
   -6.5420   -0.2700    0.5600 O   0  0  0  0  0  0  0  0  0  0  0  0
   -4.1430   -0.4930    0.5620 C   0  0  1  0  0  0  0  0  0  0  0  0
   -3.9860   -1.8350    0.2410 O   0  0  0  0  0  0  0  0  0  0  0  0
    1.7080   -2.3760   -2.0170 C   0  0  0  0  0  0  0  0  0  0  0  0
    2.4200   -2.9490   -0.8540 C   0  0  0  0  0  0  0  0  0  0  0  0
    2.4580   -2.3410    0.2420 O   0  0  0  0  0  0  0  0  0  0  0  0
    3.0740   -4.1910   -0.9450 N   0  0  0  0  0  0  0  0  0  0  0  0
    3.7430   -4.7560    0.1010 O   0  0  0  0  0  0  0  0  0  0  0  0
    4.4600   -0.0600   -0.8410 C   0  0  0  0  0  0  0  0  0  0  0  0
    5.3440    0.1710    0.1860 C   0  0  0  0  0  0  0  0  0  0  0  0
  1  2  1  0
  2  3  1  0
  3  4  2  0
  3 31  1  0
  4  5  1  0
  5  6  2  0
  6  7  1  0
  6 30  1  0
  7  8  2  0
  7  9  2  0
  7 10  1  1
 10 11  1  0
 10 25  1  0
 11 12  1  0
 12 13  1  0
 14 13  1  1
 14 15  1  0
 14 23  1  0
 15 16  1  0
 16 17  1  1
 16 19  1  0
 17 18  1  0
 19 20  1  6
 19 21  1  0
 21 22  1  1
 21 23  1  0
 23 24  1  6
 25 26  1  0
 26 27  2  0
 26 28  1  0
 28 29  1  0
 30 31  2  0
M  END
