
     RDKit          3D

 31 34  0  0  0  0  0  0  0  0999 V2000
    9.7110   -0.3890   -0.8190 O   0  0  0  0  0  0  0  0  0  0  0  0
    8.9290    0.1430   -0.0220 C   0  0  0  0  0  0  0  0  0  0  0  0
    7.4730    0.1340   -0.2720 C   0  0  0  0  0  0  0  0  0  0  0  0
    6.8730   -0.4320   -1.3550 C   0  0  0  0  0  0  0  0  0  0  0  0
    5.5020   -0.2200   -1.2090 C   0  0  0  0  0  0  0  0  0  0  0  0
    5.3070    0.4730   -0.0340 C   0  0  0  0  0  0  0  0  0  0  0  0
    4.0650    0.9270    0.5660 C   0  0  0  0  0  0  0  0  0  0  0  0
    4.1920    1.5470    1.6980 O   0  0  0  0  0  0  0  0  0  0  0  0
    2.7830    0.7740    0.0700 N   0  0  0  0  0  0  0  0  0  0  0  0
    2.4280    0.1380   -1.1450 C   0  0  0  0  0  0  0  0  0  0  0  0
    0.8830    0.1850   -1.2820 C   0  0  0  0  0  0  0  0  0  0  0  0
    0.3470   -0.5710   -0.0810 C   0  0  2  0  0  0  0  0  0  0  0  0
   -1.1140   -0.7780   -0.1710 C   0  0  0  0  0  0  0  0  0  0  0  0
   -1.5860   -2.0680   -0.2330 C   0  0  0  0  0  0  0  0  0  0  0  0
   -2.9460   -2.2720   -0.3180 C   0  0  0  0  0  0  0  0  0  0  0  0
   -3.8550   -1.2300   -0.3450 C   0  0  0  0  0  0  0  0  0  0  0  0
   -5.2040   -1.5180   -0.4320 C   0  0  0  0  0  0  0  0  0  0  0  0
   -5.6800   -2.9230   -0.4970 C   0  0  0  0  0  0  0  0  0  0  0  0
   -5.4710   -3.4630   -1.7510 F   0  0  0  0  0  0  0  0  0  0  0  0
   -6.0730   -0.4530   -0.4550 C   0  0  0  0  0  0  0  0  0  0  0  0
   -5.6010    0.8420   -0.3940 C   0  0  0  0  0  0  0  0  0  0  0  0
   -6.4800    1.9100   -0.4180 O   0  0  0  0  0  0  0  0  0  0  0  0
   -7.1410    2.5710    1.0190 S   0  0  0  0  0  0  0  0  0  0  0  0
   -6.2270    3.6210    1.6130 O   0  0  0  0  0  0  0  0  0  0  0  0
   -4.2460    1.1330   -0.3070 C   0  0  0  0  0  0  0  0  0  0  0  0
   -3.8460    2.4510   -0.2490 O   0  0  0  0  0  0  0  0  0  0  0  0
   -3.3630    0.0760   -0.2820 C   0  0  0  0  0  0  0  0  0  0  0  0
   -2.0070    0.2900   -0.1970 C   0  0  0  0  0  0  0  0  0  0  0  0
    0.7010    0.1720    1.1980 C   0  0  0  0  0  0  0  0  0  0  0  0
    1.6690    1.3140    0.8720 C   0  0  0  0  0  0  0  0  0  0  0  0
    6.5480    0.6760    0.5220 N   0  0  0  0  0  0  0  0  0  0  0  0
  1  2  2  0
  2  3  1  0
  3  4  2  0
  3 31  1  0
  4  5  1  0
  5  6  2  0
  6  7  1  0
  6 31  1  0
  7  8  2  0
  7  9  1  0
  9 10  1  0
  9 30  1  0
 10 11  1  0
 11 12  1  0
 12 13  1  6
 12 29  1  0
 13 14  2  0
 13 28  1  0
 14 15  1  0
 15 16  2  0
 16 17  1  0
 16 27  1  0
 17 18  1  0
 17 20  2  0
 18 19  1  0
 20 21  1  0
 21 22  1  0
 21 25  2  0
 22 23  1  0
 23 24  2  0
 25 26  1  0
 25 27  1  0
 27 28  2  0
 29 30  1  0
M  END
