
     RDKit          3D

 31 34  0  0  0  0  0  0  0  0999 V2000
   -8.9300    0.7960   -0.7100 C   0  0  0  0  0  0  0  0  0  0  0  0
   -7.4950    0.5160   -0.4620 C   0  0  0  0  0  0  0  0  0  0  0  0
   -6.5280    0.4660   -1.4430 C   0  0  0  0  0  0  0  0  0  0  0  0
   -5.2040    0.2020   -1.1650 C   0  0  0  0  0  0  0  0  0  0  0  0
   -4.3640    0.1800   -2.1990 F   0  0  0  0  0  0  0  0  0  0  0  0
   -4.8330   -0.0190    0.1430 C   0  0  0  0  0  0  0  0  0  0  0  0
   -5.7840    0.0240    1.1610 C   0  0  0  0  0  0  0  0  0  0  0  0
   -7.1010    0.2920    0.8380 C   0  0  0  0  0  0  0  0  0  0  0  0
   -5.3910   -0.2000    2.4590 C   0  0  0  0  0  0  0  0  0  0  0  0
   -6.2830   -0.1520    3.3550 O   0  0  0  0  0  0  0  0  0  0  0  0
   -4.1280   -0.4610    2.8020 N   0  0  0  0  0  0  0  0  0  0  0  0
   -3.1870   -0.5100    1.8470 C   0  0  0  0  0  0  0  0  0  0  0  0
   -1.8660   -0.7790    2.1740 C   0  0  0  0  0  0  0  0  0  0  0  0
   -0.8850   -0.8340    1.2100 C   0  0  0  0  0  0  0  0  0  0  0  0
   -1.2000   -0.6220   -0.0950 C   0  0  0  0  0  0  0  0  0  0  0  0
   -0.2810   -0.6380   -1.1650 N   0  0  0  0  0  0  0  0  0  0  0  0
    1.1330   -0.6660   -1.0670 C   0  0  0  0  0  0  0  0  0  0  0  0
    1.6770   -0.6760    0.0440 O   0  0  0  0  0  0  0  0  0  0  0  0
    1.9880   -0.6850   -2.2780 C   0  0  0  0  0  0  0  0  0  0  0  0
    3.4400   -0.5000   -1.9890 C   0  0  0  0  0  0  0  0  0  0  0  0
    3.8220    1.0610   -1.2920 S   0  0  2  0  0  0  0  0  0  0  0  0
    3.0560    1.4080   -0.0880 O   0  0  0  0  0  0  0  0  0  0  0  0
    3.4850    2.1110   -2.3460 O   0  0  0  0  0  0  0  0  0  0  0  0
    5.5800    1.2170   -0.9690 C   0  0  0  0  0  0  0  0  0  0  0  0
    6.0200    0.1330    0.0050 C   0  0  1  0  0  0  0  0  0  0  0  0
    7.4860    0.3070    0.2390 C   0  0  0  0  0  0  0  0  0  0  0  0
    7.6800   -0.2120    1.6480 C   0  0  0  0  0  0  0  0  0  0  0  0
    6.2820   -0.2170    2.1920 C   0  0  0  0  0  0  0  0  0  0  0  0
    5.4590    0.3360    1.2410 O   0  0  0  0  0  0  0  0  0  0  0  0
   -2.5400   -0.3480   -0.4420 C   0  0  0  0  0  0  0  0  0  0  0  0
   -3.5290   -0.2890    0.5030 C   0  0  0  0  0  0  0  0  0  0  0  0
  1  2  1  0
  2  3  2  0
  2  8  1  0
  3  4  1  0
  4  5  1  0
  4  6  2  0
  6  7  1  0
  6 31  1  0
  7  8  2  0
  7  9  1  0
  9 10  2  0
  9 11  1  0
 11 12  1  0
 12 13  2  0
 12 31  1  0
 13 14  1  0
 14 15  2  0
 15 16  1  0
 15 30  1  0
 16 17  1  0
 17 18  2  0
 17 19  1  0
 19 20  1  0
 21 20  1  6
 21 22  2  0
 21 23  2  0
 21 24  1  0
 25 24  1  6
 25 26  1  0
 25 29  1  0
 26 27  1  0
 27 28  1  0
 28 29  1  0
 30 31  2  0
M  END
