
     RDKit          3D

 31 33  0  0  0  0  0  0  0  0999 V2000
   -5.6470    0.7800   -3.1130 C   0  0  0  0  0  0  0  0  0  0  0  0
   -5.2810    0.2980   -1.7610 N   0  0  0  0  0  0  0  0  0  0  0  0
   -4.0070    0.2510   -1.5070 C   0  0  0  0  0  0  0  0  0  0  0  0
   -3.1460    0.6810   -2.5810 N   0  0  0  0  0  0  0  0  0  0  0  0
   -3.4600   -0.2910   -0.2920 C   0  0  0  0  0  0  0  0  0  0  0  0
   -4.2070   -1.0000    0.6990 C   0  0  0  0  0  0  0  0  0  0  0  0
   -3.3910   -1.2910    1.7610 C   0  0  0  0  0  0  0  0  0  0  0  0
   -2.2070   -0.7970    1.4550 N   0  0  0  0  0  0  0  0  0  0  0  0
   -2.2360   -0.1940    0.2250 N   0  0  0  0  0  0  0  0  0  0  0  0
   -1.0740    0.4350   -0.3030 C   0  0  0  0  0  0  0  0  0  0  0  0
   -1.0420    0.9990   -1.3830 O   0  0  0  0  0  0  0  0  0  0  0  0
    0.1850    0.3810    0.5620 C   0  0  0  0  0  0  0  0  0  0  0  0
    1.3200    0.9470   -0.2120 C   0  0  1  0  0  0  0  0  0  0  0  0
    0.8790    2.2950   -0.5370 O   0  0  0  0  0  0  0  0  0  0  0  0
    2.5080    1.2780    0.6830 C   0  0  0  0  0  0  0  0  0  0  0  0
    2.1490    2.3420    1.7330 C   0  0  0  0  0  0  0  0  0  0  0  0
    3.3780    2.6460    2.5800 C   0  0  0  0  0  0  0  0  0  0  0  0
    2.9830    3.6140    3.5070 O   0  0  0  0  0  0  0  0  0  0  0  0
    1.6690    0.3570   -1.4950 C   0  0  0  0  0  0  0  0  0  0  0  0
    2.0760   -0.9700   -1.6640 N   0  0  0  0  0  0  0  0  0  0  0  0
    2.8660   -1.6230   -0.6870 C   0  0  0  0  0  0  0  0  0  0  0  0
    4.2610   -1.1730   -0.6030 C   0  0  0  0  0  0  0  0  0  0  0  0
    4.9190   -0.5370   -1.6190 C   0  0  0  0  0  0  0  0  0  0  0  0
    6.2280   -0.1310   -1.4900 C   0  0  0  0  0  0  0  0  0  0  0  0
    6.9350   -0.3490   -0.3220 C   0  0  0  0  0  0  0  0  0  0  0  0
    6.2730   -0.9970    0.7190 C   0  0  0  0  0  0  0  0  0  0  0  0
    4.9610   -1.4060    0.5930 C   0  0  0  0  0  0  0  0  0  0  0  0
   -3.9410   -2.0280    2.9430 C   0  0  0  0  0  0  0  0  0  0  0  0
   -4.6700   -3.0920    2.3690 O   0  0  0  0  0  0  0  0  0  0  0  0
   -5.8050   -2.6290    1.7650 C   0  0  0  0  0  0  0  0  0  0  0  0
   -5.6000   -1.4960    0.7810 C   0  0  0  0  0  0  0  0  0  0  0  0
  1  2  1  0
  2  3  2  3
  3  4  1  0
  3  5  1  0
  5  6  2  0
  5  9  1  0
  6  7  1  0
  6 31  1  0
  7  8  2  0
  7 28  1  0
  8  9  1  0
  9 10  1  0
 10 11  2  0
 10 12  1  0
 12 13  1  0
 13 14  1  6
 13 15  1  0
 13 19  1  0
 15 16  1  0
 16 17  1  0
 17 18  1  0
 19 20  1  0
 20 21  1  0
 21 22  1  0
 22 23  2  0
 22 27  1  0
 23 24  1  0
 24 25  2  0
 25 26  1  0
 26 27  2  0
 28 29  1  0
 29 30  1  0
 30 31  1  0
M  CHG  2   2   1  20   1
M  END
