
     RDKit          3D

 31 34  0  0  0  0  0  0  0  0999 V2000
    0.3370   -3.4190    0.4470 C   0  0  0  0  0  0  0  0  0  0  0  0
    0.7920   -2.7200   -0.8070 C   0  0  0  0  0  0  0  0  0  0  0  0
    1.5010   -1.4630   -0.4910 C   0  0  0  0  0  0  0  0  0  0  0  0
    2.8170   -1.3100   -0.4560 O   0  0  0  0  0  0  0  0  0  0  0  0
    3.1650   -0.1070   -0.1490 C   0  0  0  0  0  0  0  0  0  0  0  0
    4.5070    0.4670   -0.0070 C   0  0  0  0  0  0  0  0  0  0  0  0
    4.6530    1.6680    0.3140 O   0  0  0  0  0  0  0  0  0  0  0  0
    5.6700   -0.3210   -0.2280 N   0  0  0  0  0  0  0  0  0  0  0  0
    6.9380    0.2960   -0.0770 C   0  0  0  0  0  0  0  0  0  0  0  0
    8.1440   -0.3370   -0.2570 C   0  0  0  0  0  0  0  0  0  0  0  0
    9.1360    0.6060   -0.0170 C   0  0  0  0  0  0  0  0  0  0  0  0
    8.4640    1.7660    0.2970 C   0  0  0  0  0  0  0  0  0  0  0  0
    9.1490    3.0330    0.6250 C   0  0  0  0  0  0  0  0  0  0  0  0
   10.3930    3.1510    0.6410 O   0  0  0  0  0  0  0  0  0  0  0  0
    8.3980    4.1200    0.9220 F   0  0  0  0  0  0  0  0  0  0  0  0
    7.1940    1.5340    0.2480 O   0  0  0  0  0  0  0  0  0  0  0  0
    2.0290    0.6240    0.0410 C   0  0  0  0  0  0  0  0  0  0  0  0
    0.9490   -0.2570   -0.1820 C   0  0  0  0  0  0  0  0  0  0  0  0
   -0.4240    0.1940   -0.0690 C   0  0  0  0  0  0  0  0  0  0  0  0
   -0.6160    1.4670    0.0140 O   0  0  0  0  0  0  0  0  0  0  0  0
   -1.5970   -0.5580   -0.0360 N   0  0  0  0  0  0  0  0  0  0  0  0
   -2.8940    0.0800    0.0720 C   0  0  0  0  0  0  0  0  0  0  0  0
   -3.2230    1.8040    0.1550 S   0  0  0  0  0  0  0  0  0  0  0  0
   -5.0070    1.6510    0.2580 C   0  0  0  0  0  0  0  0  0  0  0  0
   -5.9550    2.7780    0.3570 C   0  0  0  0  0  0  0  0  0  0  0  0
   -6.6940    3.0870   -0.8990 C   0  0  0  0  0  0  0  0  0  0  0  0
   -5.1940    0.3100    0.2210 C   0  0  0  0  0  0  0  0  0  0  0  0
   -4.1540   -0.5250    0.1280 C   0  0  0  0  0  0  0  0  0  0  0  0
   -4.6400   -1.9730    0.1180 C   0  0  0  0  0  0  0  0  0  0  0  0
   -6.0490   -1.8280   -0.4030 C   0  0  0  0  0  0  0  0  0  0  0  0
   -6.4700   -0.5450    0.2590 C   0  0  0  0  0  0  0  0  0  0  0  0
  1  2  1  0
  2  3  1  0
  3  4  1  0
  3 18  2  0
  4  5  1  0
  5  6  1  0
  5 17  2  0
  6  7  2  0
  6  8  1  0
  8  9  1  0
  9 10  2  0
  9 16  1  0
 10 11  1  0
 11 12  2  0
 12 13  1  0
 12 16  1  0
 13 14  2  0
 13 15  1  0
 17 18  1  0
 18 19  1  0
 19 20  2  0
 19 21  1  0
 21 22  1  0
 22 23  1  0
 22 28  2  0
 23 24  1  0
 24 25  1  0
 24 27  2  0
 25 26  1  0
 27 28  1  0
 27 31  1  0
 28 29  1  0
 29 30  1  0
 30 31  1  0
M  END
