
     RDKit          3D

 20 20  0  0  0  0  0  0  0  0999 V2000
   -6.8790   -0.3490   -1.8170 C   0  0  0  0  0  0  0  0  0  0  0  0
   -6.2140    0.1870   -0.8030 C   0  0  0  0  0  0  0  0  0  0  0  0
   -6.2500   -0.4730    0.5200 C   0  0  0  0  0  0  0  0  0  0  0  0
   -4.9380   -0.8530    0.9560 N   0  0  0  0  0  0  0  0  0  0  0  0
   -4.1630    0.3580    1.2410 C   0  0  0  0  0  0  0  0  0  0  0  0
   -2.8050    0.0250    1.7070 C   0  0  0  0  0  0  0  0  0  0  0  0
   -1.7100    0.3970    1.1010 C   0  0  0  0  0  0  0  0  0  0  0  0
   -0.0160    0.0420    1.5910 S   0  0  0  0  0  0  0  0  0  0  0  0
    0.7800    0.8950    0.2480 C   0  0  0  0  0  0  0  0  0  0  0  0
    2.0420    1.2170   -0.3020 N   0  0  0  0  0  0  0  0  0  0  0  0
    3.2030    0.8050    0.2920 C   0  0  0  0  0  0  0  0  0  0  0  0
    3.0240    0.1630    1.3030 O   0  0  0  0  0  0  0  0  0  0  0  0
    4.4390    1.0980   -0.2180 O   0  0  0  0  0  0  0  0  0  0  0  0
    5.5880    0.6660    0.4100 C   0  0  0  0  0  0  0  0  0  0  0  0
    5.7330   -0.8090    0.5610 C   0  0  0  0  0  0  0  0  0  0  0  0
    5.7370   -1.6620   -1.0170 S   0  0  0  0  0  0  0  0  0  0  0  0
    7.2230   -1.2010   -1.9400 C   0  0  0  0  0  0  0  0  0  0  0  0
   -0.1230    1.3450   -0.4140 N   0  0  0  0  0  0  0  0  0  0  0  0
   -1.4230    1.1630   -0.0880 C   0  0  0  0  0  0  0  0  0  0  0  0
   -2.3100    1.6570   -0.8180 O   0  0  0  0  0  0  0  0  0  0  0  0
  1  2  2  0
  2  3  1  0
  3  4  1  0
  4  5  1  0
  5  6  1  0
  6  7  2  3
  7  8  1  0
  7 19  1  0
  8  9  1  0
  9 10  1  0
  9 18  2  0
 10 11  1  0
 11 12  2  0
 11 13  1  0
 13 14  1  0
 14 15  1  0
 15 16  1  0
 16 17  1  0
 18 19  1  0
 19 20  2  0
M  END
