
     RDKit          3D

 21 22  0  0  0  0  0  0  0  0999 V2000
   -5.8250    0.7050    0.2570 C   0  0  0  0  0  0  0  0  0  0  0  0
   -4.3600    0.5240    0.0580 C   0  0  0  0  0  0  0  0  0  0  0  0
   -3.6090    1.3850   -0.6790 C   0  0  0  0  0  0  0  0  0  0  0  0
   -2.2130    1.2170   -0.8720 C   0  0  0  0  0  0  0  0  0  0  0  0
   -1.5710    2.2050   -1.6930 C   0  0  0  0  0  0  0  0  0  0  0  0
   -0.3820    2.2200   -1.9940 O   0  0  0  0  0  0  0  0  0  0  0  0
   -1.5720    0.1400   -0.2940 C   0  0  0  0  0  0  0  0  0  0  0  0
   -0.1700   -0.0390   -0.4480 N   0  0  0  0  0  0  0  0  0  0  0  0
    0.5970   -1.1250    0.0020 C   0  0  0  0  0  0  0  0  0  0  0  0
    0.0900   -2.0770    0.6050 O   0  0  0  0  0  0  0  0  0  0  0  0
    2.0710   -1.1790   -0.2290 C   0  0  0  0  0  0  0  0  0  0  0  0
    2.9800   -0.4210    1.1380 S   0  0  0  0  0  0  0  0  0  0  0  0
    4.7370   -0.5820    0.6850 C   0  0  0  0  0  0  0  0  0  0  0  0
    5.4420   -0.9780   -0.1290 N   0  0  0  0  0  0  0  0  0  0  0  0
    6.7270   -0.9660   -0.2100 N   0  0  0  0  0  0  0  0  0  0  0  0
    7.3920   -0.4150    0.7870 C   0  0  0  0  0  0  0  0  0  0  0  0
    8.6030   -0.2170    1.0660 O   0  0  0  0  0  0  0  0  0  0  0  0
    6.0060    0.1130    1.9080 S   0  0  0  0  0  0  0  0  0  0  0  0
   -2.3500   -0.7200    0.4490 C   0  0  0  0  0  0  0  0  0  0  0  0
   -3.7310   -0.5420    0.6310 C   0  0  0  0  0  0  0  0  0  0  0  0
   -4.6370   -1.6880    1.5920 Cl  0  0  0  0  0  0  0  0  0  0  0  0
  1  2  1  0
  2  3  2  0
  2 20  1  0
  3  4  1  0
  4  5  1  0
  4  7  2  0
  5  6  2  0
  7  8  1  0
  7 19  1  0
  8  9  1  0
  9 10  2  0
  9 11  1  0
 11 12  1  0
 12 13  1  0
 13 14  2  0
 13 18  1  0
 14 15  1  0
 15 16  1  0
 16 17  2  0
 16 18  1  0
 19 20  2  0
 20 21  1  0
M  END
