
     RDKit          3D

 21 22  0  0  0  0  0  0  0  0999 V2000
    3.3370   -0.8660    2.1360 C   0  0  0  0  0  0  0  0  0  0  0  0
    4.2430   -1.7940    0.8690 S   0  0  0  0  0  0  0  0  0  0  0  0
    3.6520   -1.3420   -0.7550 C   0  0  0  0  0  0  0  0  0  0  0  0
    4.1820   -1.9060   -1.8220 C   0  0  0  0  0  0  0  0  0  0  0  0
    5.4550   -3.0870   -1.6270 Cl  0  0  0  0  0  0  0  0  0  0  0  0
    2.5760   -0.3450   -0.9320 C   0  0  0  0  0  0  0  0  0  0  0  0
    1.3490   -0.8030   -0.2480 N   0  0  0  0  0  0  0  0  0  0  0  0
    0.2280    0.0200   -0.3140 C   0  0  0  0  0  0  0  0  0  0  0  0
    0.2540    1.6170   -1.2100 S   0  0  0  0  0  0  0  0  0  0  0  0
   -1.4390    2.0150   -0.8380 C   0  0  0  0  0  0  0  0  0  0  0  0
   -2.1560    3.1380   -1.2120 C   0  0  0  0  0  0  0  0  0  0  0  0
   -1.5500    3.9930   -1.8990 O   0  0  0  0  0  0  0  0  0  0  0  0
   -3.4340    3.2580   -0.8320 N   0  0  0  0  0  0  0  0  0  0  0  0
   -3.9060    2.2410   -0.1020 C   0  0  0  0  0  0  0  0  0  0  0  0
   -5.1280    2.3300    0.2760 O   0  0  0  0  0  0  0  0  0  0  0  0
   -3.2270    1.1520    0.2660 N   0  0  0  0  0  0  0  0  0  0  0  0
   -1.8970    0.9700   -0.0970 C   0  0  0  0  0  0  0  0  0  0  0  0
   -1.0620   -0.0640    0.1850 C   0  0  0  0  0  0  0  0  0  0  0  0
   -1.3920   -1.2730    0.9720 C   0  0  0  0  0  0  0  0  0  0  0  0
   -2.6820   -1.5580    1.5850 C   0  0  0  0  0  0  0  0  0  0  0  0
   -0.4990   -2.1420    1.1390 O   0  0  0  0  0  0  0  0  0  0  0  0
  1  2  1  0
  2  3  1  0
  3  4  2  3
  3  6  1  0
  4  5  1  0
  6  7  1  0
  7  8  1  0
  8  9  1  0
  8 18  2  0
  9 10  1  0
 10 11  1  0
 10 17  2  0
 11 12  2  0
 11 13  1  0
 13 14  1  0
 14 15  2  0
 14 16  1  0
 16 17  1  0
 17 18  1  0
 18 19  1  0
 19 20  1  0
 19 21  2  0
M  END
