
     RDKit          3D

 21 21  0  0  0  0  0  0  0  0999 V2000
   -6.7140   -1.1360    0.6700 C   0  0  0  0  0  0  0  0  0  0  0  0
   -6.3070    0.1610   -0.0190 C   0  0  0  0  0  0  0  0  0  0  0  0
   -5.0470   -0.1170   -0.7120 N   0  0  0  0  0  0  0  0  0  0  0  0
   -3.9130   -0.5430    0.0240 C   0  0  0  0  0  0  0  0  0  0  0  0
   -3.9790   -0.6860    1.2710 O   0  0  0  0  0  0  0  0  0  0  0  0
   -2.6560   -0.8170   -0.6890 C   0  0  0  0  0  0  0  0  0  0  0  0
   -1.5930   -1.2640    0.2660 C   0  0  0  0  0  0  0  0  0  0  0  0
   -0.4870   -0.6280    0.4330 C   0  0  0  0  0  0  0  0  0  0  0  0
    0.0320    0.8640   -0.3820 S   0  0  0  0  0  0  0  0  0  0  0  0
    1.6210    0.9540    0.4710 C   0  0  0  0  0  0  0  0  0  0  0  0
    2.7650    2.2850    0.1530 S   0  0  0  0  0  0  0  0  0  0  0  0
    4.2890    2.0950    1.1100 C   0  0  0  0  0  0  0  0  0  0  0  0
    4.9940    0.9000    0.5850 C   0  0  0  0  0  0  0  0  0  0  0  0
    4.7470   -0.2170    1.0730 O   0  0  0  0  0  0  0  0  0  0  0  0
    5.9490    0.9990   -0.4630 N   0  0  0  0  0  0  0  0  0  0  0  0
    6.6570   -0.0970   -1.0110 C   0  0  0  0  0  0  0  0  0  0  0  0
    6.5360   -0.3690   -2.2920 C   0  0  0  0  0  0  0  0  0  0  0  0
    7.3920   -1.7200   -3.0390 Cl  0  0  0  0  0  0  0  0  0  0  0  0
    1.6640   -0.0340    1.2330 N   0  0  0  0  0  0  0  0  0  0  0  0
    0.6200   -0.9290    1.2980 C   0  0  0  0  0  0  0  0  0  0  0  0
    0.6210   -1.9570    2.0660 O   0  0  0  0  0  0  0  0  0  0  0  0
  1  2  1  0
  2  3  1  0
  3  4  1  0
  4  5  2  0
  4  6  1  0
  6  7  1  0
  7  8  2  3
  8  9  1  0
  8 20  1  0
  9 10  1  0
 10 11  1  0
 10 19  2  0
 11 12  1  0
 12 13  1  0
 13 14  2  0
 13 15  1  0
 15 16  1  0
 16 17  2  3
 17 18  1  0
 19 20  1  0
 20 21  2  0
M  END
