
     RDKit          3D

 21 23  0  0  0  0  0  0  0  0999 V2000
    3.5650   -4.1190    0.4240 C   0  0  0  0  0  0  0  0  0  0  0  0
    2.4610   -3.3350    0.4440 C   0  0  0  0  0  0  0  0  0  0  0  0
    1.2070   -4.0160    0.7590 C   0  0  0  0  0  0  0  0  0  0  0  0
    2.6110   -1.9470    0.1720 C   0  0  0  0  0  0  0  0  0  0  0  0
    1.7940   -0.9480    0.1090 C   0  0  0  0  0  0  0  0  0  0  0  0
    2.3140    0.3580   -0.2020 N   0  0  0  0  0  0  0  0  0  0  0  0
    1.5650    1.3980   -0.2820 C   0  0  0  0  0  0  0  0  0  0  0  0
    2.3080    2.9790   -0.6740 S   0  0  0  0  0  0  0  0  0  0  0  0
    4.0780    2.7500   -0.9000 C   0  0  0  0  0  0  0  0  0  0  0  0
    4.3650    1.9060   -2.1310 C   0  0  0  0  0  0  0  0  0  0  0  0
    0.1760    1.3790   -0.0800 N   0  0  0  0  0  0  0  0  0  0  0  0
   -0.7630    2.3330   -0.1180 N   0  0  0  0  0  0  0  0  0  0  0  0
   -1.9320    1.7890    0.1480 C   0  0  0  0  0  0  0  0  0  0  0  0
   -1.7190    0.4390    0.3610 C   0  0  0  0  0  0  0  0  0  0  0  0
   -0.3970    0.1910    0.2160 C   0  0  0  0  0  0  0  0  0  0  0  0
    0.4120   -1.0160    0.3190 N   0  0  0  0  0  0  0  0  0  0  0  0
   -2.7540   -0.5700    0.6790 C   0  0  0  0  0  0  0  0  0  0  0  0
   -4.1080   -0.1070    0.1610 C   0  0  0  0  0  0  0  0  0  0  0  0
   -4.7580    0.7460    1.2060 C   0  0  0  0  0  0  0  0  0  0  0  0
   -4.0700    2.0370    1.3620 C   0  0  0  0  0  0  0  0  0  0  0  0
   -3.2150    2.5090    0.2120 C   0  0  0  0  0  0  0  0  0  0  0  0
  1  2  2  0
  2  3  1  0
  2  4  1  0
  4  5  2  3
  5  6  1  0
  5 16  1  0
  6  7  2  0
  7  8  1  0
  7 11  1  0
  8  9  1  0
  9 10  1  0
 11 12  1  0
 11 15  1  0
 12 13  2  0
 13 14  1  0
 13 21  1  0
 14 15  2  0
 14 17  1  0
 15 16  1  0
 17 18  1  0
 18 19  1  0
 19 20  1  0
 20 21  1  0
M  END
