
     RDKit          3D

 21 23  0  0  0  0  0  0  0  0999 V2000
   -4.6210    2.4120    0.0720 C   0  0  0  0  0  0  0  0  0  0  0  0
   -3.6540    1.2840    0.1390 C   0  0  0  0  0  0  0  0  0  0  0  0
   -2.3070    1.5630    0.2550 C   0  0  0  0  0  0  0  0  0  0  0  0
   -1.4120    0.5460    0.3170 N   0  0  0  0  0  0  0  0  0  0  0  0
   -0.1120    0.5560    0.4260 N   0  0  0  0  0  0  0  0  0  0  0  0
    0.3360   -0.7190    0.4480 C   0  0  0  0  0  0  0  0  0  0  0  0
    1.7570   -1.1460    0.5620 C   0  0  0  0  0  0  0  0  0  0  0  0
    2.3220   -1.2640   -0.8010 C   0  0  0  0  0  0  0  0  0  0  0  0
    3.3540   -0.5190   -1.1260 C   0  0  0  0  0  0  0  0  0  0  0  0
    3.9160    0.3790   -0.1950 N   0  0  0  0  0  0  0  0  0  0  0  0
    5.2870    0.2920    0.1810 C   0  0  0  0  0  0  0  0  0  0  0  0
    6.0960   -0.6140    0.6960 C   0  0  0  0  0  0  0  0  0  0  0  0
    7.2200    0.2960    0.6690 C   0  0  0  0  0  0  0  0  0  0  0  0
    6.4260    1.2190    0.1520 C   0  0  0  0  0  0  0  0  0  0  0  0
    6.7110    2.9030   -0.3530 S   0  0  0  0  0  0  0  0  0  0  0  0
   -0.7160   -1.5570    0.3500 N   0  0  0  0  0  0  0  0  0  0  0  0
   -1.7940   -0.7440    0.2700 C   0  0  0  0  0  0  0  0  0  0  0  0
   -3.1510   -1.0380    0.1530 C   0  0  0  0  0  0  0  0  0  0  0  0
   -3.6330   -2.4360    0.0960 C   0  0  0  0  0  0  0  0  0  0  0  0
   -4.0790   -0.0230    0.0870 C   0  0  0  0  0  0  0  0  0  0  0  0
   -5.5170   -0.3560   -0.0370 C   0  0  0  0  0  0  0  0  0  0  0  0
  1  2  1  0
  2  3  2  0
  2 20  1  0
  3  4  1  0
  4  5  1  0
  4 17  1  0
  5  6  2  0
  6  7  1  0
  6 16  1  0
  7  8  1  0
  8  9  2  3
  9 10  1  0
 10 11  1  0
 11 12  2  0
 11 14  1  0
 12 13  1  0
 13 14  2  0
 14 15  1  0
 16 17  2  0
 17 18  1  0
 18 19  1  0
 18 20  2  0
 20 21  1  0
M  END
