
     RDKit          3D

 21 23  0  0  0  0  0  0  0  0999 V2000
   -6.0180   -0.7100   -0.9420 C   0  0  0  0  0  0  0  0  0  0  0  0
   -5.4510    0.3240   -0.3450 C   0  0  0  0  0  0  0  0  0  0  0  0
   -6.0760    1.5870    0.0190 C   0  0  0  0  0  0  0  0  0  0  0  0
   -5.1480    2.3330    0.5940 C   0  0  0  0  0  0  0  0  0  0  0  0
   -3.8770    1.6350    0.6490 C   0  0  0  0  0  0  0  0  0  0  0  0
   -4.0490    0.4390    0.0920 C   0  0  0  0  0  0  0  0  0  0  0  0
   -3.0960   -0.5890   -0.0810 N   0  0  0  0  0  0  0  0  0  0  0  0
   -1.7200   -0.2990   -0.3620 C   0  0  0  0  0  0  0  0  0  0  0  0
   -0.9180   -1.5730   -0.5010 C   0  0  0  0  0  0  0  0  0  0  0  0
    0.4470   -1.1960   -0.7810 N   0  0  0  0  0  0  0  0  0  0  0  0
    1.4190   -0.9670    0.1220 C   0  0  0  0  0  0  0  0  0  0  0  0
    2.5390   -0.6400   -0.5770 C   0  0  0  0  0  0  0  0  0  0  0  0
    3.8810   -0.2980   -0.0600 C   0  0  0  0  0  0  0  0  0  0  0  0
    4.7950   -0.0190   -0.9430 C   0  0  0  0  0  0  0  0  0  0  0  0
    6.1820    0.3520   -0.8750 C   0  0  0  0  0  0  0  0  0  0  0  0
    6.8140    0.9280    0.1300 C   0  0  0  0  0  0  0  0  0  0  0  0
    6.1500    1.4240    1.7120 S   0  0  0  0  0  0  0  0  0  0  0  0
    4.8500    0.3020    2.1940 C   0  0  0  0  0  0  0  0  0  0  0  0
    4.0180   -0.3150    1.3880 C   0  0  0  0  0  0  0  0  0  0  0  0
    2.2190   -0.6780   -1.8740 N   0  0  0  0  0  0  0  0  0  0  0  0
    0.9310   -1.0200   -1.9990 N   0  0  0  0  0  0  0  0  0  0  0  0
  1  2  2  0
  2  3  1  0
  2  6  1  0
  3  4  2  0
  4  5  1  0
  5  6  2  0
  6  7  1  0
  7  8  1  0
  8  9  1  0
  9 10  1  0
 10 11  1  0
 10 21  1  0
 11 12  2  0
 12 13  1  0
 12 20  1  0
 13 14  2  0
 13 19  1  0
 14 15  1  0
 15 16  2  0
 16 17  1  0
 17 18  1  0
 18 19  2  0
 20 21  2  0
M  END
