
     RDKit          3D

 21 23  0  0  0  0  0  0  0  0999 V2000
   -3.3780   -0.5850   -2.7550 C   0  0  0  0  0  0  0  0  0  0  0  0
   -4.0140   -0.1010   -1.5100 C   0  0  0  0  0  0  0  0  0  0  0  0
   -3.2580    0.5260   -0.6310 C   0  0  0  0  0  0  0  0  0  0  0  0
   -1.8990    0.7030   -0.9150 N   0  0  0  0  0  0  0  0  0  0  0  0
   -0.8790   -0.2020   -0.4940 C   0  0  0  0  0  0  0  0  0  0  0  0
    0.3720   -0.2550   -0.6230 N   0  0  0  0  0  0  0  0  0  0  0  0
    1.1410   -1.1820   -0.1560 C   0  0  0  0  0  0  0  0  0  0  0  0
    2.6620   -1.2800   -0.2920 C   0  0  0  0  0  0  0  0  0  0  0  0
    3.2460   -0.6750    0.8630 N   0  0  0  0  0  0  0  0  0  0  0  0
    2.9090    0.7010    1.0390 C   0  0  0  0  0  0  0  0  0  0  0  0
    4.1600    1.4350    1.4440 C   0  0  0  0  0  0  0  0  0  0  0  0
    5.1300    0.2970    1.7600 C   0  0  0  0  0  0  0  0  0  0  0  0
    4.6910   -0.7360    0.7360 C   0  0  2  0  0  0  0  0  0  0  0  0
    5.0820   -0.2450   -0.6350 C   0  0  0  0  0  0  0  0  0  0  0  0
    0.5140   -2.2190    0.5580 C   0  0  0  0  0  0  0  0  0  0  0  0
   -1.2010   -1.6910    0.4570 S   0  0  0  0  0  0  0  0  0  0  0  0
   -3.8150    1.0130    0.5810 N   0  0  0  0  0  0  0  0  0  0  0  0
   -2.9650    1.6930    1.5220 C   0  0  0  0  0  0  0  0  0  0  0  0
   -5.1950    0.8090    0.8240 C   0  0  0  0  0  0  0  0  0  0  0  0
   -5.9280    0.1800   -0.0700 C   0  0  0  0  0  0  0  0  0  0  0  0
   -5.4590   -0.3580   -1.3440 C   0  0  0  0  0  0  0  0  0  0  0  0
  1  2  1  0
  2  3  2  0
  2 21  1  0
  3  4  1  0
  3 17  1  0
  4  5  1  0
  5  6  2  0
  5 16  1  0
  6  7  1  0
  7  8  1  0
  7 15  2  0
  8  9  1  0
  9 10  1  0
  9 13  1  0
 10 11  1  0
 11 12  1  0
 12 13  1  0
 13 14  1  6
 15 16  1  0
 17 18  1  0
 17 19  1  0
 19 20  2  0
 20 21  1  0
M  END
