
     RDKit          3D

 21 23  0  0  0  0  0  0  0  0999 V2000
   -2.9310    2.9090    0.6930 C   0  0  0  0  0  0  0  0  0  0  0  0
   -3.5590    1.6490    0.2790 N   0  0  0  0  0  0  0  0  0  0  0  0
   -2.7640    0.5220   -0.0180 C   0  0  0  0  0  0  0  0  0  0  0  0
   -1.4100    0.5520    0.0640 N   0  0  0  0  0  0  0  0  0  0  0  0
   -0.6660   -0.5240   -0.2200 C   0  0  0  0  0  0  0  0  0  0  0  0
    0.7740   -0.4560   -0.1220 C   0  0  0  0  0  0  0  0  0  0  0  0
    1.9230   -1.7590   -0.4530 S   0  0  0  0  0  0  0  0  0  0  0  0
    3.3910   -0.8630   -0.1030 C   0  0  0  0  0  0  0  0  0  0  0  0
    4.7010   -1.2080   -0.1370 N   0  0  0  0  0  0  0  0  0  0  0  0
    5.6450   -0.3050    0.1870 C   0  0  0  0  0  0  0  0  0  0  0  0
    7.0790   -0.6930    0.1460 C   0  0  0  0  0  0  0  0  0  0  0  0
    5.2180    0.9060    0.5290 N   0  0  0  0  0  0  0  0  0  0  0  0
    3.9400    1.2970    0.5780 C   0  0  0  0  0  0  0  0  0  0  0  0
    2.9240    0.3630    0.2410 C   0  0  0  0  0  0  0  0  0  0  0  0
    1.5990    0.5850    0.2370 C   0  0  0  0  0  0  0  0  0  0  0  0
    0.9210    1.9090    0.6000 C   0  0  0  0  0  0  0  0  0  0  0  0
   -1.2890   -1.6900   -0.6050 C   0  0  0  0  0  0  0  0  0  0  0  0
   -2.6660   -1.7830   -0.7070 C   0  0  0  0  0  0  0  0  0  0  0  0
   -3.2810   -3.0500   -1.1230 C   0  0  0  0  0  0  0  0  0  0  0  0
   -3.3850   -0.6470   -0.4040 C   0  0  0  0  0  0  0  0  0  0  0  0
   -4.8750   -0.7290   -0.5090 C   0  0  0  0  0  0  0  0  0  0  0  0
  1  2  1  0
  2  3  1  0
  3  4  2  0
  3 20  1  0
  4  5  1  0
  5  6  1  0
  5 17  2  0
  6  7  1  0
  6 15  2  0
  7  8  1  0
  8  9  2  0
  8 14  1  0
  9 10  1  0
 10 11  1  0
 10 12  2  0
 12 13  1  0
 13 14  2  0
 14 15  1  0
 15 16  1  0
 17 18  1  0
 18 19  1  0
 18 20  2  0
 20 21  1  0
M  END
