
     RDKit          3D

 21 23  0  0  0  0  0  0  0  0999 V2000
   -4.2190   -1.6380    0.5770 C   0  0  0  0  0  0  0  0  0  0  0  0
   -4.0580   -0.5230   -0.0610 C   0  0  0  0  0  0  0  0  0  0  0  0
   -5.4010    0.2830   -1.0300 S   0  0  0  0  0  0  0  0  0  0  0  0
   -4.8620    1.9490   -0.3640 C   0  0  0  0  0  0  0  0  0  0  0  0
   -3.4080    1.6880   -0.3800 C   0  0  0  0  0  0  0  0  0  0  0  0
   -3.0080    0.4470   -0.2320 C   0  0  0  0  0  0  0  0  0  0  0  0
   -1.5690    0.0870   -0.1810 C   0  0  0  0  0  0  0  0  0  0  0  0
   -0.5940    1.0120    0.0840 N   0  0  0  0  0  0  0  0  0  0  0  0
    0.6370    0.4700    0.0020 C   0  0  0  0  0  0  0  0  0  0  0  0
    1.8610    1.2230    0.1820 C   0  0  0  0  0  0  0  0  0  0  0  0
    1.8330    2.6290    0.1990 C   0  0  0  0  0  0  0  0  0  0  0  0
    2.9290    3.3820    0.3680 N   0  0  0  0  0  0  0  0  0  0  0  0
    4.1210    2.8060    0.5300 C   0  0  0  0  0  0  0  0  0  0  0  0
    4.1920    1.4810    0.5210 N   0  0  0  0  0  0  0  0  0  0  0  0
    3.0910    0.6730    0.3520 C   0  0  0  0  0  0  0  0  0  0  0  0
    3.2970   -0.7310    0.4400 N   0  0  0  0  0  0  0  0  0  0  0  0
    2.8840   -1.5270    1.5790 C   0  0  0  0  0  0  0  0  0  0  0  0
    3.9700   -1.3860   -0.6560 C   0  0  0  0  0  0  0  0  0  0  0  0
    0.4370   -0.8340   -0.3260 C   0  0  0  0  0  0  0  0  0  0  0  0
   -0.9410   -1.0830   -0.4440 C   0  0  0  0  0  0  0  0  0  0  0  0
   -1.5500   -2.3700   -0.8500 C   0  0  0  0  0  0  0  0  0  0  0  0
  1  2  2  0
  2  3  1  0
  2  6  1  0
  3  4  1  0
  4  5  1  0
  5  6  2  0
  6  7  1  0
  7  8  1  0
  7 20  2  0
  8  9  1  0
  9 10  1  0
  9 19  2  0
 10 11  2  0
 10 15  1  0
 11 12  1  0
 12 13  2  0
 13 14  1  0
 14 15  2  0
 15 16  1  0
 16 17  1  0
 16 18  1  0
 19 20  1  0
 20 21  1  0
M  END
