
     RDKit          3D

 21 23  0  0  0  0  0  0  0  0999 V2000
    6.8150   -1.4630   -0.3680 C   0  0  0  0  0  0  0  0  0  0  0  0
    5.7100   -0.7590   -0.2880 C   0  0  0  0  0  0  0  0  0  0  0  0
    4.3360   -1.2560   -0.2520 C   0  0  0  0  0  0  0  0  0  0  0  0
    3.4990   -0.2410   -0.1700 C   0  0  0  0  0  0  0  0  0  0  0  0
    2.0630   -0.3690   -0.1140 C   0  0  0  0  0  0  0  0  0  0  0  0
    1.2640    0.7440   -0.0280 C   0  0  0  0  0  0  0  0  0  0  0  0
   -0.1020    0.5710    0.0220 C   0  0  0  0  0  0  0  0  0  0  0  0
   -0.7040   -0.6710   -0.0100 C   0  0  0  0  0  0  0  0  0  0  0  0
   -2.1120   -0.8390    0.0420 N   0  0  0  0  0  0  0  0  0  0  0  0
   -2.9520    0.3130    0.1310 C   0  0  0  0  0  0  0  0  0  0  0  0
   -4.4090    0.0110    0.1800 C   0  0  1  0  0  0  0  0  0  0  0  0
   -5.1550    1.3440    0.2730 C   0  0  0  0  0  0  0  0  0  0  0  0
   -4.8140   -0.7400   -1.0660 C   0  0  0  0  0  0  0  0  0  0  0  0
   -4.8090   -0.7860    1.3970 C   0  0  0  0  0  0  0  0  0  0  0  0
    0.1460   -1.7190   -0.0950 N   0  0  0  0  0  0  0  0  0  0  0  0
    1.4560   -1.5770   -0.1440 N   0  0  0  0  0  0  0  0  0  0  0  0
    4.3180    0.9860   -0.1470 C   0  0  0  0  0  0  0  0  0  0  0  0
    3.9640    2.3980   -0.0670 N   0  0  0  0  0  0  0  0  0  0  0  0
    5.4980    3.1860   -0.0960 S   0  0  0  0  0  0  0  0  0  0  0  0
    6.5140    1.7800   -0.2040 C   0  0  0  0  0  0  0  0  0  0  0  0
    5.5930    0.7390   -0.2130 C   0  0  0  0  0  0  0  0  0  0  0  0
  1  2  2  0
  2  3  1  0
  2 21  1  0
  3  4  2  0
  4  5  1  0
  4 17  1  0
  5  6  2  0
  5 16  1  0
  6  7  1  0
  7  8  2  0
  8  9  1  0
  8 15  1  0
  9 10  1  0
 10 11  1  0
 11 12  1  1
 11 13  1  0
 11 14  1  0
 15 16  2  0
 17 18  2  0
 17 21  1  0
 18 19  1  0
 19 20  1  0
 20 21  2  0
M  END
