
     RDKit          3D

 21 23  0  0  0  0  0  0  0  0999 V2000
   -5.7620    0.0100   -0.6130 C   0  0  0  0  0  0  0  0  0  0  0  0
   -4.5620   -0.2850   -0.1900 C   0  0  0  0  0  0  0  0  0  0  0  0
   -4.3940   -1.1340    0.9050 C   0  0  0  0  0  0  0  0  0  0  0  0
   -3.1730   -1.4780    1.3920 C   0  0  0  0  0  0  0  0  0  0  0  0
   -2.0410   -0.9640    0.7740 C   0  0  0  0  0  0  0  0  0  0  0  0
   -0.7300   -1.1250    1.0280 N   0  0  0  0  0  0  0  0  0  0  0  0
   -0.0140   -0.4290    0.1610 C   0  0  0  0  0  0  0  0  0  0  0  0
    1.4800   -0.3000    0.0490 C   0  0  2  0  0  0  0  0  0  0  0  0
    2.0390   -1.6850   -0.2130 C   0  0  0  0  0  0  0  0  0  0  0  0
    2.1610    0.3090    1.5920 S   0  0  0  0  0  0  0  0  0  0  0  0
    3.9430    0.4390    1.3950 C   0  0  0  0  0  0  0  0  0  0  0  0
    4.5600    0.1110    0.2450 N   0  0  0  0  0  0  0  0  0  0  0  0
    5.8880    0.1990    0.0710 C   0  0  0  0  0  0  0  0  0  0  0  0
    6.6810    0.6470    1.1120 C   0  0  0  0  0  0  0  0  0  0  0  0
    6.0600    0.9890    2.3010 C   0  0  0  0  0  0  0  0  0  0  0  0
    4.7290    0.8770    2.4090 N   0  0  0  0  0  0  0  0  0  0  0  0
   -0.9150    0.1920   -0.6690 N   0  0  0  0  0  0  0  0  0  0  0  0
   -2.1740   -0.1090   -0.3280 C   0  0  0  0  0  0  0  0  0  0  0  0
   -3.4350    0.2420   -0.8250 C   0  0  0  0  0  0  0  0  0  0  0  0
   -3.5470    1.0300   -1.8400 C   0  0  0  0  0  0  0  0  0  0  0  0
   -2.5580    1.7090   -2.6750 C   0  0  0  0  0  0  0  0  0  0  0  0
  1  2  2  0
  2  3  1  0
  2 19  1  0
  3  4  2  0
  4  5  1  0
  5  6  1  0
  5 18  2  0
  6  7  2  0
  7  8  1  0
  7 17  1  0
  8  9  1  1
  8 10  1  0
 10 11  1  0
 11 12  2  0
 11 16  1  0
 12 13  1  0
 13 14  2  0
 14 15  1  0
 15 16  2  0
 17 18  1  0
 18 19  1  0
 19 20  2  3
 20 21  1  0
M  END
