
     RDKit          3D

 21 23  0  0  0  0  0  0  0  0999 V2000
    4.9160    2.1140   -0.7000 C   0  0  0  0  0  0  0  0  0  0  0  0
    4.7720    0.6660   -0.4490 C   0  0  0  0  0  0  0  0  0  0  0  0
    3.6220    0.0910   -0.1510 C   0  0  0  0  0  0  0  0  0  0  0  0
    3.5060   -1.3320    0.0910 C   0  0  0  0  0  0  0  0  0  0  0  0
    2.3830   -1.9580    0.3870 C   0  0  0  0  0  0  0  0  0  0  0  0
    2.3930   -3.4600    0.6230 C   0  0  0  0  0  0  0  0  0  0  0  0
    1.2750   -3.3790    2.1140 S   0  0  0  0  0  0  0  0  0  0  0  0
    0.2890   -2.0570    1.4870 C   0  0  0  0  0  0  0  0  0  0  0  0
   -0.9250   -1.4120    1.5210 C   0  0  0  0  0  0  0  0  0  0  0  0
   -0.9420   -0.4010    0.6250 C   0  0  0  0  0  0  0  0  0  0  0  0
   -1.9010    0.6250    0.3110 C   0  0  0  0  0  0  0  0  0  0  0  0
   -1.4230    1.8760   -0.1580 C   0  0  0  0  0  0  0  0  0  0  0  0
   -2.2380    2.9010   -0.5440 C   0  0  0  0  0  0  0  0  0  0  0  0
   -1.7660    4.0210   -0.9650 N   0  0  0  0  0  0  0  0  0  0  0  0
   -3.6020    2.7290   -0.4810 C   0  0  0  0  0  0  0  0  0  0  0  0
   -4.0300    1.5540   -0.0420 N   0  0  0  0  0  0  0  0  0  0  0  0
   -3.2250    0.5290    0.3430 N   0  0  0  0  0  0  0  0  0  0  0  0
   -3.9340   -0.6830    0.6910 C   0  0  0  0  0  0  0  0  0  0  0  0
   -4.1640   -1.4590   -0.6300 C   0  0  0  0  0  0  0  0  0  0  0  0
    0.3000   -0.4260    0.0270 N   0  0  0  0  0  0  0  0  0  0  0  0
    1.0410   -1.4150    0.5400 C   0  0  0  0  0  0  0  0  0  0  0  0
  1  2  1  0
  2  3  2  3
  3  4  1  0
  4  5  2  3
  5  6  1  0
  5 21  1  0
  6  7  1  0
  7  8  1  0
  8  9  1  0
  8 21  2  0
  9 10  2  0
 10 11  1  0
 10 20  1  0
 11 12  2  0
 11 17  1  0
 12 13  1  0
 13 14  2  0
 13 15  1  0
 15 16  2  0
 16 17  1  0
 17 18  1  0
 18 19  1  0
 20 21  1  0
M  END
