
     RDKit          3D

 15 15  0  0  0  0  0  0  0  0999 V2000
    4.4440   -0.7300   -0.5570 C   0  0  0  0  0  0  0  0  0  0  0  0
    3.1620   -0.5370    0.2000 C   0  0  0  0  0  0  0  0  0  0  0  0
    3.1490   -0.5880    1.4610 O   0  0  0  0  0  0  0  0  0  0  0  0
    1.9350   -0.2930   -0.4770 N   0  0  0  0  0  0  0  0  0  0  0  0
    0.6720   -0.1010    0.2220 C   0  0  1  0  0  0  0  0  0  0  0  0
    0.1190    1.2870   -0.0030 C   0  0  1  0  0  0  0  0  0  0  0  0
    1.1180    2.2310   -0.2290 O   0  0  0  0  0  0  0  0  0  0  0  0
   -0.7700    1.3410   -1.0520 O   0  0  0  0  0  0  0  0  0  0  0  0
   -1.9150    0.6040   -0.8750 C   0  0  2  0  0  0  0  0  0  0  0  0
   -2.9580    1.3900   -0.0700 C   0  0  0  0  0  0  0  0  0  0  0  0
   -4.0930    0.6240    0.0890 O   0  0  0  0  0  0  0  0  0  0  0  0
   -1.7250   -0.7100   -0.2040 C   0  0  2  0  0  0  0  0  0  0  0  0
   -2.2870   -0.7130    1.0830 O   0  0  0  0  0  0  0  0  0  0  0  0
   -0.3010   -1.1790   -0.1460 C   0  0  2  0  0  0  0  0  0  0  0  0
   -0.2270   -2.2050    0.7970 O   0  0  0  0  0  0  0  0  0  0  0  0
  1  2  1  0
  2  3  2  0
  2  4  1  0
  5  4  1  6
  5  6  1  0
  5 14  1  0
  6  7  1  6
  6  8  1  0
  8  9  1  0
  9 10  1  1
  9 12  1  0
 10 11  1  0
 12 13  1  1
 12 14  1  0
 14 15  1  1
M  END
