
     RDKit          3D

 30 33  0  0  0  0  0  0  0  0999 V2000
    6.9280   -0.0700   -1.7610 C   0  0  0  0  0  0  0  0  0  0  0  0
    5.9150    0.2170   -0.9410 C   0  0  0  0  0  0  0  0  0  0  0  0
    4.5760   -0.3640   -1.2220 C   0  0  0  0  0  0  0  0  0  0  0  0
    3.7130   -0.0650   -0.1190 N   0  0  0  0  0  0  0  0  0  0  0  0
    2.3870   -0.5650   -0.2430 C   0  0  0  0  0  0  0  0  0  0  0  0
    1.5130    0.0970    0.7860 C   0  0  1  0  0  0  0  0  0  0  0  0
    0.0820   -0.1840    0.6190 C   0  0  0  0  0  0  0  0  0  0  0  0
   -0.6380   -0.7280    1.4940 O   0  0  0  0  0  0  0  0  0  0  0  0
   -0.5190    0.1710   -0.5790 O   0  0  0  0  0  0  0  0  0  0  0  0
   -1.9380   -0.0810   -0.8090 C   0  0  1  0  0  0  0  0  0  0  0  0
   -2.1300    0.4620   -2.2100 C   0  0  0  0  0  0  0  0  0  0  0  0
   -2.0590   -1.5710   -0.6980 C   0  0  0  0  0  0  0  0  0  0  0  0
   -2.6810    0.6980    0.1900 C   0  0  0  0  0  0  0  0  0  0  0  0
   -2.0520    1.5550    1.0880 N   0  0  0  0  0  0  0  0  0  0  0  0
   -2.9450    2.1380    1.8390 N   0  0  0  0  0  0  0  0  0  0  0  0
   -4.1550    1.7200    1.5000 C   0  0  0  0  0  0  0  0  0  0  0  0
   -3.9930    0.8000    0.4480 C   0  0  0  0  0  0  0  0  0  0  0  0
   -5.1800    0.0980   -0.1090 C   0  0  0  0  0  0  0  0  0  0  0  0
   -5.2090   -0.6460   -1.2370 C   0  0  0  0  0  0  0  0  0  0  0  0
   -6.3720   -1.2380   -1.6450 N   0  0  0  0  0  0  0  0  0  0  0  0
   -7.5280   -1.1300   -0.9820 C   0  0  0  0  0  0  0  0  0  0  0  0
   -7.4520   -0.3570    0.1700 C   0  0  0  0  0  0  0  0  0  0  0  0
   -6.3430    0.2190    0.5760 N   0  0  0  0  0  0  0  0  0  0  0  0
    1.9770   -0.3360    2.0900 N   0  0  0  0  0  0  0  0  0  0  0  0
    3.3790   -0.4910    2.2610 C   0  0  0  0  0  0  0  0  0  0  0  0
    3.8630   -0.8400    3.3700 O   0  0  0  0  0  0  0  0  0  0  0  0
    4.3250   -0.2510    1.1550 C   0  0  2  0  0  0  0  0  0  0  0  0
    5.2010    0.9830    1.4120 C   0  0  0  0  0  0  0  0  0  0  0  0
    6.0930    1.0830    0.2190 C   0  0  0  0  0  0  0  0  0  0  0  0
    7.0210    1.9310    0.2070 O   0  0  0  0  0  0  0  0  0  0  0  0
  1  2  2  0
  2  3  1  0
  2 29  1  0
  3  4  1  0
  4  5  1  0
  4 27  1  0
  5  6  1  0
  6  7  1  6
  6 24  1  0
  7  8  2  0
  7  9  1  0
  9 10  1  0
 10 11  1  6
 10 12  1  0
 10 13  1  0
 13 14  2  0
 13 17  1  0
 14 15  1  0
 15 16  1  0
 16 17  2  0
 17 18  1  0
 18 19  2  0
 18 23  1  0
 19 20  1  0
 20 21  2  0
 21 22  1  0
 22 23  2  0
 24 25  1  0
 25 26  2  0
 25 27  1  0
 27 28  1  1
 28 29  1  0
 29 30  2  0
M  END
