
     RDKit          3D

 30 33  0  0  0  0  0  0  0  0999 V2000
   -3.5380   -1.8800    3.7660 C   0  0  0  0  0  0  0  0  0  0  0  0
   -2.9060   -1.1240    2.6300 C   0  0  0  0  0  0  0  0  0  0  0  0
   -3.6710   -0.4720    1.6830 C   0  0  0  0  0  0  0  0  0  0  0  0
   -3.0880    0.2240    0.6350 C   0  0  0  0  0  0  0  0  0  0  0  0
   -1.7160    0.2810    0.5130 C   0  0  0  0  0  0  0  0  0  0  0  0
   -0.9350   -0.3620    1.4490 C   0  0  0  0  0  0  0  0  0  0  0  0
   -1.5350   -1.0580    2.4980 C   0  0  0  0  0  0  0  0  0  0  0  0
   -0.6590   -1.7280    3.4760 C   0  0  0  0  0  0  0  0  0  0  0  0
   -0.9320    0.9380   -0.4900 N   0  0  0  0  0  0  0  0  0  0  0  0
    0.2300    0.2460   -0.8740 C   0  0  0  0  0  0  0  0  0  0  0  0
    0.3430   -0.9950   -0.5780 O   0  0  0  0  0  0  0  0  0  0  0  0
    1.3410    0.8150   -1.5860 N   0  0  0  0  0  0  0  0  0  0  0  0
    2.4980   -0.0190   -1.9330 C   0  0  1  0  0  0  0  0  0  0  0  0
    2.6620   -0.0670   -3.4500 C   0  0  0  0  0  0  0  0  0  0  0  0
    4.1380   -0.2300   -3.5770 C   0  0  0  0  0  0  0  0  0  0  0  0
    4.7360    0.2580   -2.4520 O   0  0  0  0  0  0  0  0  0  0  0  0
    3.7950    0.6300   -1.5220 C   0  0  2  0  0  0  0  0  0  0  0  0
    4.2530    0.3370   -0.1480 C   0  0  2  0  0  0  0  0  0  0  0  0
    4.5070   -1.1250    0.1470 C   0  0  0  0  0  0  0  0  0  0  0  0
    4.8270   -1.0170    1.6470 C   0  0  0  0  0  0  0  0  0  0  0  0
    4.1870    0.3300    1.9950 C   0  0  0  0  0  0  0  0  0  0  0  0
    3.3950    0.6670    0.8730 O   0  0  0  0  0  0  0  0  0  0  0  0
   -1.2020    2.1820   -1.1790 C   0  0  0  0  0  0  0  0  0  0  0  0
   -2.5480    2.2720   -1.7830 C   0  0  0  0  0  0  0  0  0  0  0  0
   -2.6070    2.7360   -2.9820 O   0  0  0  0  0  0  0  0  0  0  0  0
   -3.7860    1.9100   -1.2020 N   0  0  0  0  0  0  0  0  0  0  0  0
   -4.0530    0.8790   -0.2500 C   0  0  0  0  0  0  0  0  0  0  0  0
   -5.2510    0.4650   -0.1300 N   0  0  0  0  0  0  0  0  0  0  0  0
   -6.3210    0.9570   -0.8770 N   0  0  0  0  0  0  0  0  0  0  0  0
   -6.8090    0.1790   -1.9320 N   0  0  0  0  0  0  0  0  0  0  0  0
  1  2  1  0
  2  3  2  0
  2  7  1  0
  3  4  1  0
  4  5  2  0
  4 27  1  0
  5  6  1  0
  5  9  1  0
  6  7  2  0
  7  8  1  0
  9 10  1  0
  9 23  1  0
 10 11  2  0
 10 12  1  0
 13 12  1  6
 13 14  1  0
 13 17  1  0
 14 15  1  0
 15 16  1  0
 17 16  1  6
 17 18  1  0
 18 19  1  6
 18 22  1  0
 19 20  1  0
 20 21  1  0
 21 22  1  0
 23 24  1  0
 24 25  2  0
 24 26  1  0
 26 27  1  0
 27 28  2  3
 28 29  1  0
 29 30  1  0
M  END
