
     RDKit          3D

 30 34  0  0  0  0  0  0  0  0999 V2000
   -7.9380    3.4560    2.2300 C   0  0  0  0  0  0  0  0  0  0  0  0
   -6.9160    2.5660    1.7680 O   0  0  0  0  0  0  0  0  0  0  0  0
   -7.2070    1.2950    1.2920 C   0  0  0  0  0  0  0  0  0  0  0  0
   -8.4040    0.9490    1.2800 O   0  0  0  0  0  0  0  0  0  0  0  0
   -6.1280    0.4130    0.8270 C   0  0  0  0  0  0  0  0  0  0  0  0
   -4.7750    0.6790    0.7920 C   0  0  0  0  0  0  0  0  0  0  0  0
   -4.1040   -0.4310    0.2790 C   0  0  0  0  0  0  0  0  0  0  0  0
   -2.7710   -0.7210    0.0240 C   0  0  0  0  0  0  0  0  0  0  0  0
   -1.6730    0.0230    0.2060 N   0  0  0  0  0  0  0  0  0  0  0  0
   -0.5960   -0.7000   -0.1950 C   0  0  0  0  0  0  0  0  0  0  0  0
    0.7660   -0.2830   -0.1710 N   0  0  0  0  0  0  0  0  0  0  0  0
    1.8650   -1.0570   -0.5950 C   0  0  0  0  0  0  0  0  0  0  0  0
    1.6600   -2.2070   -1.0330 O   0  0  0  0  0  0  0  0  0  0  0  0
    3.2740   -0.5430   -0.5380 C   0  0  1  0  0  0  0  0  0  0  0  0
    3.3990    0.6880   -1.3780 C   0  0  0  0  0  0  0  0  0  0  0  0
    4.6460    1.4550   -1.0870 C   0  0  0  0  0  0  0  0  0  0  0  0
    4.9030    1.6850    0.3720 C   0  0  2  0  0  0  0  0  0  0  0  0
    6.3930    2.0110    0.5340 C   0  0  0  0  0  0  0  0  0  0  0  0
    7.0760    0.6650    0.6050 C   0  0  1  0  0  0  0  0  0  0  0  0
    7.9950    0.5910    1.6490 O   0  0  0  0  0  0  0  0  0  0  0  0
    5.9550   -0.3440    0.7600 C   0  0  0  0  0  0  0  0  0  0  0  0
    4.8150    0.4440    1.1100 N   0  0  0  0  0  0  0  0  0  0  0  0
    3.5550   -0.2000    0.9090 C   0  0  0  0  0  0  0  0  0  0  0  0
   -1.0710   -1.9160   -0.6300 C   0  0  0  0  0  0  0  0  0  0  0  0
   -2.4210   -1.9150   -0.4880 N   0  0  0  0  0  0  0  0  0  0  0  0
   -3.3760   -2.8300   -0.7530 C   0  0  0  0  0  0  0  0  0  0  0  0
   -4.6880   -2.5190   -0.4920 C   0  0  0  0  0  0  0  0  0  0  0  0
   -5.7240   -3.5520   -0.7950 C   0  0  0  0  0  0  0  0  0  0  0  0
   -5.0590   -1.3310    0.0200 N   0  0  0  0  0  0  0  0  0  0  0  0
   -6.2600   -0.8340    0.3440 N   0  0  0  0  0  0  0  0  0  0  0  0
  1  2  1  0
  2  3  1  0
  3  4  2  0
  3  5  1  0
  5  6  1  0
  5 30  2  0
  6  7  2  0
  7  8  1  0
  7 29  1  0
  8  9  2  0
  8 25  1  0
  9 10  1  0
 10 11  1  0
 10 24  2  0
 11 12  1  0
 12 13  2  0
 14 12  1  1
 14 15  1  0
 14 23  1  0
 15 16  1  0
 17 16  1  6
 17 18  1  0
 17 22  1  0
 18 19  1  0
 19 20  1  1
 19 21  1  0
 21 22  1  0
 22 23  1  0
 24 25  1  0
 25 26  1  0
 26 27  2  0
 27 28  1  0
 27 29  1  0
 29 30  1  0
M  END
