
     RDKit          3D

 30 32  0  0  0  0  0  0  0  0999 V2000
   -2.9420    6.2820   -0.0020 C   0  0  0  0  0  0  0  0  0  0  0  0
   -2.2670    5.0360   -0.5130 C   0  0  0  0  0  0  0  0  0  0  0  0
   -2.4670    3.9770    0.4440 N   0  0  0  0  0  0  0  0  0  0  0  0
   -1.9580    2.7190    0.1990 C   0  0  0  0  0  0  0  0  0  0  0  0
   -1.2860    2.3780   -0.8090 O   0  0  0  0  0  0  0  0  0  0  0  0
   -2.1680    1.6580    1.0940 N   0  0  0  0  0  0  0  0  0  0  0  0
   -1.5200    0.4580    0.8550 C   0  0  0  0  0  0  0  0  0  0  0  0
   -2.3240   -0.4390    1.4040 N   0  0  0  0  0  0  0  0  0  0  0  0
   -1.8400   -1.7310    1.2340 C   0  0  0  0  0  0  0  0  0  0  0  0
   -2.4890   -2.5160    0.4010 C   0  0  0  0  0  0  0  0  0  0  0  0
   -3.6800   -2.2170   -0.3910 C   0  0  0  0  0  0  0  0  0  0  0  0
   -4.3430   -1.1580   -0.4330 O   0  0  0  0  0  0  0  0  0  0  0  0
   -3.9550   -3.3860   -1.1290 N   0  0  0  0  0  0  0  0  0  0  0  0
   -2.9840   -4.3930   -0.8250 C   0  0  0  0  0  0  0  0  0  0  0  0
   -2.1340   -3.8960    0.0580 C   0  0  0  0  0  0  0  0  0  0  0  0
   -0.9880   -4.6430    0.6110 C   0  0  0  0  0  0  0  0  0  0  0  0
   -0.2730    0.0090    0.4850 N   0  0  0  0  0  0  0  0  0  0  0  0
   -0.0630   -0.5340   -0.8160 C   0  0  0  0  0  0  0  0  0  0  0  0
    1.1040    0.0820   -1.4950 C   0  0  0  0  0  0  0  0  0  0  0  0
    2.2550    0.3680   -0.6030 C   0  0  1  0  0  0  0  0  0  0  0  0
    2.4220    1.8530   -0.5140 C   0  0  0  0  0  0  0  0  0  0  0  0
    3.3920    2.3770   -1.1020 O   0  0  0  0  0  0  0  0  0  0  0  0
    1.5780    2.6910    0.1750 O   0  0  0  0  0  0  0  0  0  0  0  0
    2.1240   -0.2510    0.7320 C   0  0  2  0  0  0  0  0  0  0  0  0
    2.2570   -1.7180    0.7010 C   0  0  0  0  0  0  0  0  0  0  0  0
    2.7550   -2.3780   -0.5150 C   0  0  0  0  0  0  0  0  0  0  0  0
    3.4550   -1.5220   -1.5060 C   0  0  0  0  0  0  0  0  0  0  0  0
    3.4920   -0.1400   -1.2020 N   0  0  0  0  0  0  0  0  0  0  0  0
    4.6350    0.3200   -0.5020 C   0  0  0  0  0  0  0  0  0  0  0  0
    0.8380    0.1320    1.4380 C   0  0  0  0  0  0  0  0  0  0  0  0
  1  2  1  0
  2  3  1  0
  3  4  1  0
  4  5  2  0
  4  6  1  0
  6  7  1  0
  7  8  2  3
  7 17  1  0
  8  9  1  0
  9 10  2  3
 10 11  1  0
 10 15  1  0
 11 12  2  0
 11 13  1  0
 13 14  1  0
 14 15  2  0
 15 16  1  0
 17 18  1  0
 17 30  1  0
 18 19  1  0
 19 20  1  0
 20 21  1  1
 20 24  1  0
 20 28  1  0
 21 22  2  0
 21 23  1  0
 24 25  1  6
 24 30  1  0
 25 26  1  0
 26 27  1  0
 27 28  1  0
 28 29  1  0
M  END
