
     RDKit          3D

 30 33  0  0  0  0  0  0  0  0999 V2000
    7.2500    0.4780   -0.1980 C   0  0  0  0  0  0  0  0  0  0  0  0
    6.3990   -0.7710   -0.1890 C   0  0  1  0  0  0  0  0  0  0  0  0
    6.5800   -1.4500    1.1490 C   0  0  0  0  0  0  0  0  0  0  0  0
    5.0030   -0.4870   -0.4100 N   0  0  0  0  0  0  0  0  0  0  0  0
    4.3110    0.2920    0.3660 C   0  0  0  0  0  0  0  0  0  0  0  0
    4.7310    0.9910    1.5220 N   0  0  0  0  0  0  0  0  0  0  0  0
    3.6390    1.7200    2.0560 C   0  0  0  0  0  0  0  0  0  0  0  0
    3.6240    2.4580    3.0750 O   0  0  0  0  0  0  0  0  0  0  0  0
    2.5200    1.4290    1.1580 C   0  0  0  0  0  0  0  0  0  0  0  0
    1.2130    1.6820    0.9360 N   0  0  0  0  0  0  0  0  0  0  0  0
    0.7830    1.0350   -0.1530 N   0  0  0  0  0  0  0  0  0  0  0  0
   -0.5900    1.0730   -0.6780 C   0  0  0  0  0  0  0  0  0  0  0  0
   -1.3850    0.0000    0.0600 C   0  0  2  0  0  0  0  0  0  0  0  0
   -0.7330   -1.3460   -0.1980 C   0  0  0  0  0  0  0  0  0  0  0  0
   -1.4950   -2.5200    0.2880 C   0  0  1  0  0  0  0  0  0  0  0  0
   -0.8910   -2.9460    1.6300 C   0  0  0  0  0  0  0  0  0  0  0  0
   -2.9550   -2.3000    0.3900 C   0  0  0  0  0  0  0  0  0  0  0  0
   -3.3790   -1.2750   -0.6810 C   0  0  0  0  0  0  0  0  0  0  0  0
   -2.7820   -0.0230   -0.3210 N   0  0  0  0  0  0  0  0  0  0  0  0
   -3.5030    1.1710   -0.4080 C   0  0  0  0  0  0  0  0  0  0  0  0
   -2.9440    2.1580    0.2550 O   0  0  0  0  0  0  0  0  0  0  0  0
   -4.7290    1.4640   -1.0980 C   0  0  0  0  0  0  0  0  0  0  0  0
   -5.2930    2.6670   -0.9480 C   0  0  0  0  0  0  0  0  0  0  0  0
   -6.5420    3.1100   -1.5880 C   0  0  0  0  0  0  0  0  0  0  0  0
   -7.0450    2.2090   -2.5290 O   0  0  0  0  0  0  0  0  0  0  0  0
   -6.4780    0.9730   -2.7020 C   0  0  0  0  0  0  0  0  0  0  0  0
   -5.3720    0.5800   -2.0370 C   0  0  0  0  0  0  0  0  0  0  0  0
    1.8470    0.3670   -0.6130 C   0  0  0  0  0  0  0  0  0  0  0  0
    1.9020   -0.3750   -1.6240 O   0  0  0  0  0  0  0  0  0  0  0  0
    2.9280    0.6000    0.1860 N   0  0  0  0  0  0  0  0  0  0  0  0
  2  1  1  1
  2  3  1  0
  2  4  1  0
  4  5  2  3
  5  6  1  0
  5 30  1  0
  6  7  1  0
  7  8  2  0
  7  9  1  0
  9 10  2  0
  9 30  1  0
 10 11  1  0
 11 12  1  0
 11 28  1  0
 13 12  1  6
 13 14  1  0
 13 19  1  0
 14 15  1  0
 15 16  1  1
 15 17  1  0
 17 18  1  0
 18 19  1  0
 19 20  1  0
 20 21  2  0
 20 22  1  0
 22 23  2  0
 22 27  1  0
 23 24  1  0
 24 25  1  0
 25 26  1  0
 26 27  2  0
 28 29  2  0
 28 30  1  0
M  END
