
     RDKit          3D

 17 18  0  0  0  0  0  0  0  0999 V2000
    1.0110    1.2280    1.6670 O   0  0  0  0  0  0  0  0  0  0  0  0
    0.9800    0.2610    0.8740 C   0  0  0  0  0  0  0  0  0  0  0  0
   -0.1970   -0.1530    0.3380 O   0  0  0  0  0  0  0  0  0  0  0  0
   -1.4600    0.4650    0.6270 C   0  0  2  0  0  0  0  0  0  0  0  0
   -2.3630   -0.5710    1.2050 C   0  0  0  0  0  0  0  0  0  0  0  0
   -3.7820   -0.4970    0.8060 C   0  0  0  0  0  0  0  0  0  0  0  0
   -4.0210   -0.0880   -0.5530 N   0  0  0  0  0  0  0  0  0  0  0  0
   -2.7830   -0.0640   -1.3300 C   0  0  0  0  0  0  0  0  0  0  0  0
   -1.9420    1.0410   -0.6760 C   0  0  1  0  0  0  0  0  0  0  0  0
   -2.7530    2.1640   -0.4400 O   0  0  0  0  0  0  0  0  0  0  0  0
    2.2460   -0.4220    0.5330 C   0  0  1  0  0  0  0  0  0  0  0  0
    2.4920   -0.3920   -0.9480 C   0  0  0  0  0  0  0  0  0  0  0  0
    4.0260   -0.3690   -0.9740 C   0  0  2  0  0  0  0  0  0  0  0  0
    4.4670   -1.6530   -0.7600 O   0  0  0  0  0  0  0  0  0  0  0  0
    4.2850    0.4610    0.2610 C   0  0  1  0  0  0  0  0  0  0  0  0
    4.2400    1.8250   -0.0370 O   0  0  0  0  0  0  0  0  0  0  0  0
    3.3130    0.1390    1.1710 O   0  0  0  0  0  0  0  0  0  0  0  0
  1  2  2  0
  2  3  1  0
 11  2  1  6
  4  3  1  6
  4  5  1  0
  4  9  1  0
  5  6  1  0
  6  7  1  0
  7  8  1  0
  8  9  1  0
  9 10  1  1
 11 12  1  0
 11 17  1  0
 12 13  1  0
 13 14  1  1
 13 15  1  0
 15 16  1  6
 15 17  1  0
M  CHG  1   7   1
M  END
