
     RDKit          3D

 17 18  0  0  0  0  0  0  0  0999 V2000
   -3.1230   -0.3830    1.2000 N   0  0  0  0  0  0  0  0  0  0  0  0
   -2.2890   -0.8260    0.0700 C   0  0  1  0  0  0  0  0  0  0  0  0
   -2.9080   -0.2920   -1.1710 C   0  0  0  0  0  0  0  0  0  0  0  0
   -2.0370    0.0080   -2.1830 O   0  0  0  0  0  0  0  0  0  0  0  0
   -0.9500    0.7630   -1.8080 C   0  0  0  0  0  0  0  0  0  0  0  0
   -0.0900   -0.1110   -0.9130 C   0  0  1  0  0  0  0  0  0  0  0  0
    0.2240   -1.2480   -1.6280 O   0  0  0  0  0  0  0  0  0  0  0  0
    1.1070    0.6070   -0.3740 C   0  0  2  0  0  0  0  0  0  0  0  0
    2.2240   -0.3700   -0.2140 C   0  0  0  0  0  0  0  0  0  0  0  0
    2.0870   -1.5840   -0.5140 O   0  0  0  0  0  0  0  0  0  0  0  0
    3.4600    0.0350    0.2720 O   0  0  0  0  0  0  0  0  0  0  0  0
    4.4990   -0.9180    0.4110 C   0  0  0  0  0  0  0  0  0  0  0  0
    5.6410   -0.3290    0.9060 O   0  0  0  0  0  0  0  0  0  0  0  0
    0.7030    1.2090    0.9550 C   0  0  0  0  0  0  0  0  0  0  0  0
   -0.7870    0.8980    1.0980 C   0  0  2  0  0  0  0  0  0  0  0  0
   -1.0220    0.7290    2.4610 O   0  0  0  0  0  0  0  0  0  0  0  0
   -0.8950   -0.3990    0.3290 C   0  0  1  0  0  0  0  0  0  0  0  0
  2  1  1  1
  2  3  1  0
 17  2  1  6
  3  4  1  0
  4  5  1  0
  5  6  1  0
  6  7  1  6
  6  8  1  0
  6 17  1  0
  8  9  1  1
  8 14  1  0
  9 10  2  0
  9 11  1  0
 11 12  1  0
 12 13  1  0
 14 15  1  0
 15 16  1  1
 15 17  1  0
M  CHG  1   1   1
M  END
