
     RDKit          3D

 23 24  0  0  0  0  0  0  0  0999 V2000
   -3.6750    2.2580    0.9690 C   0  0  0  0  0  0  0  0  0  0  0  0
   -3.6030    1.2320   -0.1830 C   0  0  2  0  0  0  0  0  0  0  0  0
   -5.0620    1.4590   -0.8100 C   0  0  0  0  0  0  0  0  0  0  0  0
   -3.6030   -0.1640    0.2700 C   0  0  0  0  0  0  0  0  0  0  0  0
   -4.7550   -0.7120    0.7690 C   0  0  0  0  0  0  0  0  0  0  0  0
   -4.8810   -2.0860    1.0360 C   0  0  0  0  0  0  0  0  0  0  0  0
   -3.7910   -2.8650    0.7730 C   0  0  0  0  0  0  0  0  0  0  0  0
   -2.5930   -2.3010    0.2570 C   0  0  0  0  0  0  0  0  0  0  0  0
   -2.4670   -0.9820    0.0060 C   0  0  0  0  0  0  0  0  0  0  0  0
   -1.3230   -0.3150   -0.3520 N   0  0  0  0  0  0  0  0  0  0  0  0
    0.0390   -0.7210   -0.3370 C   0  0  0  0  0  0  0  0  0  0  0  0
    0.2940   -1.8760    0.0180 O   0  0  0  0  0  0  0  0  0  0  0  0
    1.0570    0.1880   -0.6910 N   0  0  0  0  0  0  0  0  0  0  0  0
    2.4350   -0.0790   -0.6260 C   0  0  0  0  0  0  0  0  0  0  0  0
    3.2720    1.0440   -0.8770 C   0  0  0  0  0  0  0  0  0  0  0  0
    4.6320    1.0070   -0.7220 C   0  0  0  0  0  0  0  0  0  0  0  0
    5.2170   -0.2020   -0.2900 C   0  0  0  0  0  0  0  0  0  0  0  0
    6.9430   -0.2790   -0.0490 S   0  0  2  0  0  0  0  0  0  0  0  0
    7.4040    0.8940    1.1970 N   0  0  0  0  0  0  0  0  0  0  0  0
    7.7080    0.0710   -1.2770 O   0  0  0  0  0  0  0  0  0  0  0  0
    7.3460   -1.6490    0.4130 O   0  0  0  0  0  0  0  0  0  0  0  0
    4.4410   -1.2810   -0.0520 C   0  0  0  0  0  0  0  0  0  0  0  0
    3.0610   -1.2170   -0.2210 C   0  0  0  0  0  0  0  0  0  0  0  0
  2  1  1  1
  2  3  1  0
  2  4  1  0
  4  5  2  0
  4  9  1  0
  5  6  1  0
  6  7  2  0
  7  8  1  0
  8  9  2  0
  9 10  1  0
 10 11  1  0
 11 12  2  0
 11 13  1  0
 13 14  1  0
 14 15  2  0
 14 23  1  0
 15 16  1  0
 16 17  2  0
 17 18  1  0
 17 22  1  0
 18 19  1  1
 18 20  2  0
 18 21  2  0
 22 23  2  0
M  END
