
     RDKit          3D

 18 19  0  0  0  0  0  0  0  0999 V2000
   -1.6000   -3.7270    1.2380 O   0  0  0  0  0  0  0  0  0  0  0  0
   -1.3070   -2.6960    0.6010 C   0  0  0  0  0  0  0  0  0  0  0  0
   -2.1350   -2.0660   -0.4820 C   0  0  0  0  0  0  0  0  0  0  0  0
   -1.3500   -1.0280   -0.9540 O   0  0  0  0  0  0  0  0  0  0  0  0
   -0.5670   -0.6490    0.1370 C   0  0  2  0  0  0  0  0  0  0  0  0
   -1.4560    0.0690    1.1520 C   0  0  0  0  0  0  0  0  0  0  0  0
   -2.1380    1.2060    0.4730 C   0  0  1  0  0  0  0  0  0  0  0  0
   -2.8360    1.9350    1.4390 O   0  0  0  0  0  0  0  0  0  0  0  0
   -1.1820    2.1360   -0.2320 C   0  0  2  0  0  0  0  0  0  0  0  0
   -1.9390    2.9110   -1.1080 O   0  0  0  0  0  0  0  0  0  0  0  0
   -0.1490    1.4230   -1.0340 C   0  0  0  0  0  0  0  0  0  0  0  0
    0.5280    0.2800   -0.2460 C   0  0  1  0  0  0  0  0  0  0  0  0
    1.0730    0.8230    0.9360 O   0  0  0  0  0  0  0  0  0  0  0  0
    1.5750   -0.2670   -1.1490 C   0  0  0  0  0  0  0  0  0  0  0  0
    2.3970   -1.3080   -0.6330 N   0  0  0  0  0  0  0  0  0  0  0  0
    3.3600   -0.8740    0.3680 C   0  0  0  0  0  0  0  0  0  0  0  0
    3.6040    0.4960    0.3110 O   0  0  0  0  0  0  0  0  0  0  0  0
   -0.1870   -1.8650    0.6960 O   0  0  0  0  0  0  0  0  0  0  0  0
  1  2  2  0
  2  3  1  0
  2 18  1  0
  3  4  1  0
  4  5  1  0
  5  6  1  1
  5 12  1  0
  5 18  1  0
  6  7  1  0
  7  8  1  1
  7  9  1  0
  9 10  1  6
  9 11  1  0
 11 12  1  0
 12 13  1  1
 12 14  1  0
 14 15  1  0
 15 16  1  0
 16 17  1  0
M  CHG  1  15   1
M  END
