
     RDKit          3D

 13 14  0  0  0  0  0  0  0  0999 V2000
   -0.2550    0.4340    1.5430 O   0  0  0  0  0  0  0  0  0  0  0  0
    0.2160    0.1560    0.4100 C   0  0  0  0  0  0  0  0  0  0  0  0
   -0.6890   -0.1810   -0.6260 N   0  0  0  0  0  0  0  0  0  0  0  0
   -2.0810   -0.1890   -0.3380 C   0  0  0  0  0  0  0  0  0  0  0  0
   -3.0090   -0.4970   -1.2610 N   0  0  0  0  0  0  0  0  0  0  0  0
   -4.2040   -0.4070   -0.6560 C   0  0  0  0  0  0  0  0  0  0  0  0
   -4.0410   -0.0470    0.6300 N   0  0  0  0  0  0  0  0  0  0  0  0
   -2.7230    0.0800    0.7980 N   0  0  0  0  0  0  0  0  0  0  0  0
    1.6630    0.1890    0.2050 C   0  0  0  0  0  0  0  0  0  0  0  0
    2.3390   -0.0690   -0.9000 C   0  0  0  0  0  0  0  0  0  0  0  0
    3.7890    0.0880   -0.6530 C   0  0  0  0  0  0  0  0  0  0  0  0
    3.8410    0.4670    0.7320 N   0  0  0  0  0  0  0  0  0  0  0  0
    2.6610    0.5220    1.2040 C   0  0  0  0  0  0  0  0  0  0  0  0
  1  2  2  0
  2  3  1  0
  2  9  1  0
  3  4  1  0
  4  5  1  0
  4  8  2  0
  5  6  2  0
  6  7  1  0
  7  8  1  0
  9 10  2  0
  9 13  1  0
 10 11  1  0
 11 12  1  0
 12 13  2  0
M  END
