
     RDKit          3D

 13 14  0  0  0  0  0  0  0  0999 V2000
   -0.6990   -1.0280   -1.5190 O   0  0  0  0  0  0  0  0  0  0  0  0
   -0.0800   -0.3750   -0.6420 C   0  0  0  0  0  0  0  0  0  0  0  0
   -0.8600    0.2790    0.3550 N   0  0  0  0  0  0  0  0  0  0  0  0
   -2.2730    0.2470    0.4280 C   0  0  0  0  0  0  0  0  0  0  0  0
   -3.1920   -0.3710   -0.3720 C   0  0  0  0  0  0  0  0  0  0  0  0
   -4.4000   -0.0800    0.1430 N   0  0  0  0  0  0  0  0  0  0  0  0
   -4.2640    0.6820    1.2160 N   0  0  0  0  0  0  0  0  0  0  0  0
   -2.9710    0.8850    1.3950 N   0  0  0  0  0  0  0  0  0  0  0  0
    1.3800   -0.2940   -0.6490 C   0  0  0  0  0  0  0  0  0  0  0  0
    2.1080   -0.8750   -1.5380 N   0  0  0  0  0  0  0  0  0  0  0  0
    3.5120   -0.6160   -1.2870 C   0  0  0  0  0  0  0  0  0  0  0  0
    3.4820    0.2300   -0.0810 C   0  0  0  0  0  0  0  0  0  0  0  0
    2.2320    0.4190    0.2940 C   0  0  0  0  0  0  0  0  0  0  0  0
  1  2  2  0
  2  3  1  0
  2  9  1  0
  3  4  1  0
  4  5  1  0
  4  8  2  0
  5  6  2  0
  6  7  1  0
  7  8  1  0
  9 10  2  0
  9 13  1  0
 10 11  1  0
 11 12  1  0
 12 13  2  0
M  END
