
     RDKit          3D

 13 14  0  0  0  0  0  0  0  0999 V2000
   -2.2540    2.0700   -0.0730 C   0  0  0  0  0  0  0  0  0  0  0  0
   -1.2410    1.2030    0.4560 N   0  0  0  0  0  0  0  0  0  0  0  0
   -1.1440   -0.1860    0.1380 C   0  0  0  0  0  0  0  0  0  0  0  0
   -2.1680   -1.0040   -0.0050 C   0  0  0  0  0  0  0  0  0  0  0  0
   -1.5780   -2.3190   -0.3260 C   0  0  0  0  0  0  0  0  0  0  0  0
   -0.1660   -2.1130   -0.3360 N   0  0  0  0  0  0  0  0  0  0  0  0
    0.1060   -0.8970   -0.0730 C   0  0  0  0  0  0  0  0  0  0  0  0
    1.4670   -0.2900    0.0090 C   0  0  0  0  0  0  0  0  0  0  0  0
    1.7060    1.0010    0.2910 N   0  0  0  0  0  0  0  0  0  0  0  0
    2.9920    1.2490    0.2950 N   0  0  0  0  0  0  0  0  0  0  0  0
    3.5920    0.0810    0.0070 C   0  0  0  0  0  0  0  0  0  0  0  0
    4.8420   -0.1260   -0.0900 O   0  0  0  0  0  0  0  0  0  0  0  0
    2.6450   -0.8850   -0.1730 N   0  0  0  0  0  0  0  0  0  0  0  0
  1  2  1  0
  2  3  1  0
  3  4  2  0
  3  7  1  0
  4  5  1  0
  5  6  1  0
  6  7  2  0
  7  8  1  0
  8  9  2  0
  8 13  1  0
  9 10  1  0
 10 11  1  0
 11 12  2  0
 11 13  1  0
M  END
