
     RDKit          3D

 20 21  0  0  0  0  0  0  0  0999 V2000
   -2.5190    2.9340   -0.2770 C   0  0  0  0  0  0  0  0  0  0  0  0
   -2.5510    1.4380   -0.3650 C   0  0  2  0  0  0  0  0  0  0  0  0
   -3.9420    0.9020   -0.6180 C   0  0  0  0  0  0  0  0  0  0  0  0
   -3.9790   -0.5320   -0.1330 C   0  0  1  0  0  0  0  0  0  0  0  0
   -4.9940   -1.3140   -0.8090 N   0  0  0  0  0  0  0  0  0  0  0  0
   -2.5920   -1.1090   -0.3180 C   0  0  0  0  0  0  0  0  0  0  0  0
   -1.6930   -0.4200    0.6880 C   0  0  1  0  0  0  0  0  0  0  0  0
   -0.2460   -0.5930    0.3430 C   0  0  0  0  0  0  0  0  0  0  0  0
    0.5610    0.4190    0.0970 C   0  0  0  0  0  0  0  0  0  0  0  0
    1.9160   -0.1000   -0.2090 C   0  0  1  0  0  0  0  0  0  0  0  0
    2.8280    0.4320    0.7620 N   0  0  0  0  0  0  0  0  0  0  0  0
    4.1960    0.0530    0.7100 C   0  0  0  0  0  0  0  0  0  0  0  0
    5.0010    0.0580    1.9080 N   0  0  0  0  0  0  0  0  0  0  0  0
    4.6840   -0.2870   -0.4200 N   0  0  0  0  0  0  0  0  0  0  0  0
    6.0440   -0.6650   -0.4770 C   0  0  0  0  0  0  0  0  0  0  0  0
    6.6310   -1.4320    0.3720 N   0  0  0  0  0  0  0  0  0  0  0  0
    1.7530   -1.5650   -0.0970 C   0  0  0  0  0  0  0  0  0  0  0  0
    2.6740   -2.4030   -0.2810 O   0  0  0  0  0  0  0  0  0  0  0  0
    0.4340   -1.7960    0.2360 O   0  0  0  0  0  0  0  0  0  0  0  0
   -1.9940    0.9270    0.8140 O   0  0  0  0  0  0  0  0  0  0  0  0
  2  1  1  1
  2  3  1  0
  2 20  1  0
  3  4  1  0
  4  5  1  6
  4  6  1  0
  6  7  1  0
  7  8  1  6
  7 20  1  0
  8  9  2  0
  8 19  1  0
  9 10  1  0
 10 11  1  1
 10 17  1  0
 11 12  1  0
 12 13  1  0
 12 14  2  3
 14 15  1  0
 15 16  2  0
 17 18  2  0
 17 19  1  0
M  CHG  2   5   1  14   1
M  END
