
     RDKit          3D

 20 21  0  0  0  0  0  0  0  0999 V2000
   -2.6830    1.3870    2.9280 C   0  0  0  0  0  0  0  0  0  0  0  0
   -1.9990    0.7930    2.0240 C   0  0  0  0  0  0  0  0  0  0  0  0
   -0.7930    0.0960    2.4040 N   0  0  0  0  0  0  0  0  0  0  0  0
    0.0280   -0.5820    1.4290 C   0  0  0  0  0  0  0  0  0  0  0  0
    0.6220   -1.6240    1.7190 O   0  0  0  0  0  0  0  0  0  0  0  0
    0.0290    0.1340    0.1300 C   0  0  1  0  0  0  0  0  0  0  0  0
    0.8330   -0.3640   -0.9820 C   0  0  1  0  0  0  0  0  0  0  0  0
    2.3120   -0.2060   -0.9280 C   0  0  2  0  0  0  0  0  0  0  0  0
    2.8600   -0.7780   -2.1490 N   0  0  0  0  0  0  0  0  0  0  0  0
    3.0290   -0.6960    0.2690 C   0  0  0  0  0  0  0  0  0  0  0  0
    4.4590   -0.3910    0.0080 N   0  0  0  0  0  0  0  0  0  0  0  0
    0.3820   -1.6780   -1.4930 C   0  0  0  0  0  0  0  0  0  0  0  0
    1.1320   -2.7110   -1.5230 O   0  0  0  0  0  0  0  0  0  0  0  0
   -0.9650   -1.7420   -1.9650 N   0  0  0  0  0  0  0  0  0  0  0  0
   -1.8580   -0.8440   -1.2790 C   0  0  0  0  0  0  0  0  0  0  0  0
   -3.0620   -0.8230   -1.6180 O   0  0  0  0  0  0  0  0  0  0  0  0
   -1.3850   -0.0020   -0.2410 N   0  0  0  0  0  0  0  0  0  0  0  0
   -2.3190    0.7480    0.6060 C   0  0  0  0  0  0  0  0  0  0  0  0
   -3.3320    1.2610    0.0060 C   0  0  0  0  0  0  0  0  0  0  0  0
   -4.4140    2.0170    0.6340 C   0  0  0  0  0  0  0  0  0  0  0  0
  1  2  2  0
  2  3  1  0
  2 18  1  0
  3  4  1  0
  4  5  2  0
  6  4  1  1
  6  7  1  0
  6 17  1  0
  7  8  1  0
  7 12  1  1
  8  9  1  6
  8 10  1  0
 10 11  1  0
 12 13  2  0
 12 14  1  0
 14 15  1  0
 15 16  2  0
 15 17  1  0
 17 18  1  0
 18 19  2  3
 19 20  1  0
M  CHG  2   9   1  11   1
M  END
