
     RDKit          3D

 12 12  0  0  0  0  0  0  0  0999 V2000
    3.3420    0.2280    0.0210 O   0  0  0  0  0  0  0  0  0  0  0  0
    2.2220    0.3660    0.5560 C   0  0  0  0  0  0  0  0  0  0  0  0
    2.1910    0.7700    1.8840 O   0  0  0  0  0  0  0  0  0  0  0  0
    0.9360    0.1220   -0.1490 C   0  0  2  0  0  0  0  0  0  0  0  0
    1.2760   -0.2680   -1.4550 O   0  0  0  0  0  0  0  0  0  0  0  0
    0.1310    1.3650   -0.1460 C   0  0  0  0  0  0  0  0  0  0  0  0
   -1.1510    1.2580   -0.4630 C   0  0  0  0  0  0  0  0  0  0  0  0
   -1.7630   -0.0520   -0.8080 C   0  0  1  0  0  0  0  0  0  0  0  0
   -1.5400   -0.3780   -2.1530 O   0  0  0  0  0  0  0  0  0  0  0  0
   -1.2490   -1.0960    0.1250 C   0  0  2  0  0  0  0  0  0  0  0  0
   -2.0950   -1.1220    1.2480 O   0  0  0  0  0  0  0  0  0  0  0  0
    0.1720   -0.9700    0.5220 C   0  0  0  0  0  0  0  0  0  0  0  0
  1  2  2  0
  2  3  1  0
  2  4  1  0
  4  5  1  6
  4  6  1  0
  4 12  1  0
  6  7  2  0
  7  8  1  0
  8  9  1  6
  8 10  1  0
 10 11  1  1
 10 12  1  0
M  END
