
     RDKit          3D

 12 12  0  0  0  0  0  0  0  0999 V2000
    1.2080    2.3100    0.8450 O   0  0  0  0  0  0  0  0  0  0  0  0
    0.2200    1.9110   -0.0590 C   0  0  0  0  0  0  0  0  0  0  0  0
   -0.2980    0.5540    0.2760 C   0  0  1  0  0  0  0  0  0  0  0  0
   -1.3580    0.1550   -0.7160 C   0  0  2  0  0  0  0  0  0  0  0  0
   -2.3800    1.0960   -0.6510 O   0  0  0  0  0  0  0  0  0  0  0  0
   -1.9280   -1.1740   -0.2600 C   0  0  0  0  0  0  0  0  0  0  0  0
   -0.8960   -2.1050   -0.3490 O   0  0  0  0  0  0  0  0  0  0  0  0
    0.0090   -1.8040    0.6750 C   0  0  0  0  0  0  0  0  0  0  0  0
    0.7570   -0.5070    0.3670 C   0  0  2  0  0  0  0  0  0  0  0  0
    1.6270   -0.2880    1.4080 O   0  0  0  0  0  0  0  0  0  0  0  0
    1.4980   -0.7200   -0.9250 C   0  0  0  0  0  0  0  0  0  0  0  0
    2.2840    0.3400   -1.3020 O   0  0  0  0  0  0  0  0  0  0  0  0
  1  2  1  0
  3  2  1  6
  3  4  1  0
  3  9  1  0
  4  5  1  1
  4  6  1  0
  6  7  1  0
  7  8  1  0
  8  9  1  0
  9 10  1  1
  9 11  1  0
 11 12  1  0
M  END
