
     RDKit          3D

 12 12  0  0  0  0  0  0  0  0999 V2000
    2.3000   -0.9700   -0.8680 O   0  0  0  0  0  0  0  0  0  0  0  0
    2.4290   -0.4360    0.4130 C   0  0  0  0  0  0  0  0  0  0  0  0
    1.2890    0.5330    0.6960 C   0  0  1  0  0  0  0  0  0  0  0  0
    1.3400    1.5300   -0.2230 O   0  0  0  0  0  0  0  0  0  0  0  0
    0.1680    1.9270   -0.7820 C   0  0  0  0  0  0  0  0  0  0  0  0
   -0.6590    0.8040   -1.3560 C   0  0  0  0  0  0  0  0  0  0  0  0
   -0.7800   -0.3520   -0.4260 C   0  0  2  0  0  0  0  0  0  0  0  0
   -0.3860   -1.5030   -1.1220 O   0  0  0  0  0  0  0  0  0  0  0  0
   -2.2460   -0.5920   -0.0400 C   0  0  0  0  0  0  0  0  0  0  0  0
   -2.7580    0.4860    0.6620 O   0  0  0  0  0  0  0  0  0  0  0  0
   -0.0200   -0.1620    0.8450 C   0  0  1  0  0  0  0  0  0  0  0  0
    0.2340   -1.4270    1.4120 O   0  0  0  0  0  0  0  0  0  0  0  0
  1  2  1  0
  3  2  1  6
  3  4  1  0
  3 11  1  0
  4  5  1  0
  5  6  1  0
  6  7  1  0
  7  8  1  6
  7  9  1  0
  7 11  1  0
  9 10  1  0
 11 12  1  6
M  END
