
     RDKit          3D

 12 12  0  0  0  0  0  0  0  0999 V2000
    2.8970    0.5610    0.4280 O   0  0  0  0  0  0  0  0  0  0  0  0
    2.5270   -0.7290    0.0760 C   0  0  0  0  0  0  0  0  0  0  0  0
    1.0820   -0.9900    0.4190 C   0  0  0  0  0  0  0  0  0  0  0  0
    0.1370   -0.0580   -0.2860 C   0  0  2  0  0  0  0  0  0  0  0  0
    0.3740    1.3850    0.0450 C   0  0  1  0  0  0  0  0  0  0  0  0
    1.1610    2.0460   -0.8830 O   0  0  0  0  0  0  0  0  0  0  0  0
   -1.0160    1.9730    0.1120 C   0  0  0  0  0  0  0  0  0  0  0  0
   -1.9130    0.9450    0.2080 O   0  0  0  0  0  0  0  0  0  0  0  0
   -1.2690   -0.2630    0.2310 C   0  0  2  0  0  0  0  0  0  0  0  0
   -1.1930   -0.7480    1.5120 O   0  0  0  0  0  0  0  0  0  0  0  0
   -2.0410   -1.2050   -0.6910 C   0  0  0  0  0  0  0  0  0  0  0  0
   -3.3370   -1.3570   -0.2610 O   0  0  0  0  0  0  0  0  0  0  0  0
  1  2  1  0
  2  3  1  0
  4  3  1  1
  4  5  1  0
  4  9  1  0
  5  6  1  6
  5  7  1  0
  7  8  1  0
  8  9  1  0
  9 10  1  1
  9 11  1  0
 11 12  1  0
M  END
