
     RDKit          3D

 21 23  0  0  0  0  0  0  0  0999 V2000
    0.6440   -1.8540    2.0250 C   0  0  0  0  0  0  0  0  0  0  0  0
    0.4750   -0.4890    1.9730 O   0  0  0  0  0  0  0  0  0  0  0  0
   -0.4190   -0.1270    0.9970 C   0  0  2  0  0  0  0  0  0  0  0  0
   -1.7870   -0.6550    1.2950 C   0  0  0  0  0  0  0  0  0  0  0  0
   -2.7180   -0.2600    0.2830 N   0  0  0  0  0  0  0  0  0  0  0  0
   -3.5020    0.8100    0.1690 C   0  0  0  0  0  0  0  0  0  0  0  0
   -4.2990    0.9680   -0.8800 C   0  0  0  0  0  0  0  0  0  0  0  0
   -4.2620   -0.0560   -1.8520 C   0  0  0  0  0  0  0  0  0  0  0  0
   -4.9030   -0.1930   -2.9610 O   0  0  0  0  0  0  0  0  0  0  0  0
   -3.0380   -1.2150   -1.1610 P   0  0  0  0  0  0  0  0  0  0  0  0
   -2.4500   -2.6270   -1.6880 O   0  0  0  0  0  0  0  0  0  0  0  0
    0.0810   -0.5730   -0.2180 O   0  0  0  0  0  0  0  0  0  0  0  0
    1.1190    0.3130   -0.4680 C   0  0  2  0  0  0  0  0  0  0  0  0
    2.3100   -0.3220   -0.1430 O   0  0  0  0  0  0  0  0  0  0  0  0
    3.6490    0.7470   -0.0380 P   0  0  0  0  0  0  0  0  0  0  0  0
    4.4160    1.0270   -1.5600 O   0  0  0  0  0  0  0  0  0  0  0  0
    6.0570    0.4310   -1.5460 P   0  0  0  0  0  0  0  0  0  0  0  0
    3.0540    2.3210    0.5840 N   0  0  0  0  0  0  0  0  0  0  0  0
    1.7640    2.4600    0.7220 C   0  0  0  0  0  0  0  0  0  0  0  0
    0.8450    1.4510    0.4120 N   0  0  0  0  0  0  0  0  0  0  0  0
   -0.4370    1.2630    0.8040 O   0  0  0  0  0  0  0  0  0  0  0  0
  1  2  1  0
  2  3  1  0
  3  4  1  1
  3 12  1  0
  3 21  1  0
  4  5  1  0
  5  6  1  0
  5 10  1  0
  6  7  2  0
  7  8  1  0
  8  9  2  0
  8 10  1  0
 10 11  1  0
 13 12  1  1
 13 14  1  0
 13 20  1  0
 14 15  1  0
 15 16  1  0
 15 18  1  0
 16 17  1  0
 18 19  2  0
 19 20  1  0
 20 21  1  0
M  END
