
     RDKit          3D

 20 21  0  0  0  0  0  0  0  0999 V2000
   -0.4840   -0.1590   -2.6900 C   0  0  0  0  0  0  0  0  0  0  0  0
   -0.8940    0.8610   -1.9610 C   0  0  0  0  0  0  0  0  0  0  0  0
   -1.8040    1.8540   -2.5950 C   0  0  0  0  0  0  0  0  0  0  0  0
   -2.0790    2.9190   -1.7290 O   0  0  0  0  0  0  0  0  0  0  0  0
   -0.6010    3.5990   -1.1200 P   0  0  0  0  0  0  0  0  0  0  0  0
    0.3200    2.2530   -0.3610 N   0  0  0  0  0  0  0  0  0  0  0  0
   -0.5030    1.0670   -0.5720 C   0  0  2  0  0  0  0  0  0  0  0  0
    0.0460   -0.1360    0.1470 C   0  0  1  0  0  0  0  0  0  0  0  0
   -0.8360   -1.1870   -0.1540 O   0  0  0  0  0  0  0  0  0  0  0  0
   -0.4930   -2.3550    0.5050 C   0  0  0  0  0  0  0  0  0  0  0  0
   -1.4250   -3.3230    0.1380 O   0  0  0  0  0  0  0  0  0  0  0  0
   -1.4190   -3.5340   -1.1800 N   0  0  0  0  0  0  0  0  0  0  0  0
   -2.3290   -2.7460   -1.7970 O   0  0  0  0  0  0  0  0  0  0  0  0
    1.3000   -0.5250   -0.2450 O   0  0  0  0  0  0  0  0  0  0  0  0
    2.3400   -0.0180    0.4700 C   0  0  0  0  0  0  0  0  0  0  0  0
    2.8230   -0.9060    1.4610 O   0  0  0  0  0  0  0  0  0  0  0  0
    1.8250   -0.5480    2.8660 P   0  0  0  0  0  0  0  0  0  0  0  0
    2.6590    0.8510    3.7610 C   0  0  0  0  0  0  0  0  0  0  0  0
   -0.0330    0.2830    1.9620 P   0  0  0  0  0  0  0  0  0  0  0  0
   -1.4290   -0.3440    2.7190 O   0  0  0  0  0  0  0  0  0  0  0  0
  1  2  2  0
  2  3  1  0
  2  7  1  0
  3  4  1  0
  4  5  1  0
  5  6  1  0
  7  6  1  6
  7  8  1  0
  8  9  1  1
  8 14  1  0
  8 19  1  0
  9 10  1  0
 10 11  1  0
 11 12  1  0
 12 13  1  0
 14 15  1  0
 15 16  1  0
 16 17  1  0
 17 18  1  0
 17 19  1  0
 19 20  1  0
M  END
