
     RDKit          3D

 21 22  0  0  0  0  0  0  0  0999 V2000
   -5.0640    2.8000    0.2510 C   0  0  0  0  0  0  0  0  0  0  0  0
   -4.8880    2.0290   -1.2090 P   0  0  0  0  0  0  0  0  0  0  0  0
   -3.6640    0.1980   -1.2800 P   0  0  0  0  0  0  0  0  0  0  0  0
   -4.1990   -0.8970    0.1050 C   0  0  0  0  0  0  0  0  0  0  0  0
   -1.9060    0.6640   -1.1350 C   0  0  1  0  0  0  0  0  0  0  0  0
   -1.6440    1.1870    0.1710 O   0  0  0  0  0  0  0  0  0  0  0  0
   -0.4030    0.7450    0.6070 C   0  0  0  0  0  0  0  0  0  0  0  0
    0.1370    1.1340    1.6650 O   0  0  0  0  0  0  0  0  0  0  0  0
    0.1100   -0.2180   -0.3760 C   0  0  2  0  0  0  0  0  0  0  0  0
    1.4170    0.1510   -0.9840 C   0  0  0  0  0  0  0  0  0  0  0  0
    2.6950    0.2910    0.3490 P   0  0  0  0  0  0  0  0  0  0  0  0
    2.9560    1.9320    0.8260 O   0  0  0  0  0  0  0  0  0  0  0  0
    4.2620   -0.5770   -0.0800 C   0  0  0  0  0  0  0  0  0  0  0  0
    5.1050    0.1910   -0.8710 O   0  0  0  0  0  0  0  0  0  0  0  0
    5.5860    1.6600   -0.1410 P   0  0  0  0  0  0  0  0  0  0  0  0
   -0.9680   -0.3600   -1.2840 N   0  0  0  0  0  0  0  0  0  0  0  0
   -1.2350   -1.5100   -1.6950 O   0  0  0  0  0  0  0  0  0  0  0  0
   -1.1510   -2.5190   -0.8450 N   0  0  0  0  0  0  0  0  0  0  0  0
    0.1380   -1.9690    0.3210 P   0  0  0  0  0  0  0  0  0  0  0  0
    1.6270   -2.7360   -0.0410 O   0  0  0  0  0  0  0  0  0  0  0  0
    1.3720   -3.9470   -0.5320 O   0  0  0  0  0  0  0  0  0  0  0  0
  1  2  2  0
  2  3  1  0
  3  4  1  0
  5  3  1  1
  5  6  1  0
  5 16  1  0
  6  7  1  0
  7  8  2  0
  7  9  1  0
  9 10  1  6
  9 16  1  0
  9 19  1  0
 10 11  1  0
 11 12  1  0
 11 13  1  0
 13 14  1  0
 14 15  1  0
 16 17  1  0
 17 18  1  0
 18 19  1  0
 19 20  1  0
 20 21  1  0
M  END
