
     RDKit          3D

 21 21  0  0  0  0  0  0  0  0999 V2000
    1.4430    0.3460   -1.4550 C   0  0  0  0  0  0  0  0  0  0  0  0
    1.0940    0.7480   -0.2580 C   0  0  0  0  0  0  0  0  0  0  0  0
    1.9530    1.5960    0.4700 N   0  0  0  0  0  0  0  0  0  0  0  0
    3.4540    1.0880    0.8300 P   0  0  0  0  0  0  0  0  0  0  0  0
    4.0050   -0.4690    0.3330 O   0  0  0  0  0  0  0  0  0  0  0  0
    5.6470   -0.3240   -0.1990 P   0  0  0  0  0  0  0  0  0  0  0  0
    6.3830    1.3110    0.2350 C   0  0  0  0  0  0  0  0  0  0  0  0
    6.6180   -1.7400    0.5040 C   0  0  0  0  0  0  0  0  0  0  0  0
   -0.1960    0.3100    0.3230 C   0  0  2  0  0  0  0  0  0  0  0  0
    0.0600   -0.3970    1.5030 O   0  0  0  0  0  0  0  0  0  0  0  0
   -0.8770   -0.4730   -0.5760 O   0  0  0  0  0  0  0  0  0  0  0  0
   -2.0470    0.0290   -0.8280 O   0  0  0  0  0  0  0  0  0  0  0  0
   -2.9840   -0.2350    0.1800 C   0  0  0  0  0  0  0  0  0  0  0  0
   -4.2830    0.4040   -0.2480 C   0  0  2  0  0  0  0  0  0  0  0  0
   -4.6650   -0.2040   -1.5080 N   0  0  0  0  0  0  0  0  0  0  0  0
   -4.9170   -1.6040   -1.4340 C   0  0  0  0  0  0  0  0  0  0  0  0
   -4.0430    1.7390   -0.5030 O   0  0  0  0  0  0  0  0  0  0  0  0
   -4.3650    2.5180    1.0410 P   0  0  0  0  0  0  0  0  0  0  0  0
   -5.2860    1.1750    1.7680 O   0  0  0  0  0  0  0  0  0  0  0  0
   -5.3650    0.2570    0.7180 C   0  0  0  0  0  0  0  0  0  0  0  0
   -6.3020   -0.6140    0.6360 O   0  0  0  0  0  0  0  0  0  0  0  0
  1  2  2  0
  2  3  1  0
  2  9  1  0
  3  4  2  3
  4  5  1  0
  5  6  1  0
  6  7  1  0
  6  8  1  0
  9 10  1  1
  9 11  1  0
 11 12  1  0
 12 13  1  0
 14 13  1  1
 14 15  1  0
 14 17  1  0
 14 20  1  0
 15 16  1  0
 17 18  1  0
 18 19  1  0
 19 20  1  0
 20 21  2  0
M  END
