
     RDKit          3D

 21 21  0  0  0  0  0  0  0  0999 V2000
   -3.2580   -3.5650    1.2740 C   0  0  0  0  0  0  0  0  0  0  0  0
   -2.5520   -2.4610    1.1630 C   0  0  0  0  0  0  0  0  0  0  0  0
   -1.8030   -1.3700    0.9730 C   0  0  0  0  0  0  0  0  0  0  0  0
   -0.9570   -1.1580    2.0090 O   0  0  0  0  0  0  0  0  0  0  0  0
   -0.2830   -0.1310    2.4240 O   0  0  0  0  0  0  0  0  0  0  0  0
    1.0430   -0.2070    2.1690 O   0  0  0  0  0  0  0  0  0  0  0  0
    1.1130    0.2790    0.8570 C   0  0  0  0  0  0  0  0  0  0  0  0
    2.4530    0.4580    0.3100 C   0  0  0  0  0  0  0  0  0  0  0  0
    3.3710   -0.5860    0.5470 O   0  0  0  0  0  0  0  0  0  0  0  0
    4.6590   -0.4540    0.0410 C   0  0  0  0  0  0  0  0  0  0  0  0
    5.6720   -1.4310    0.2100 N   0  0  0  0  0  0  0  0  0  0  0  0
    4.9510    0.5970   -0.6080 O   0  0  0  0  0  0  0  0  0  0  0  0
    2.7480    1.5030   -0.3380 N   0  0  0  0  0  0  0  0  0  0  0  0
    2.0380    2.6380   -0.6920 C   0  0  0  0  0  0  0  0  0  0  0  0
    0.5350    2.6450   -1.3200 P   0  0  0  0  0  0  0  0  0  0  0  0
   -0.8980    1.1340   -1.8430 P   0  0  0  0  0  0  0  0  0  0  0  0
   -1.6240    1.3040   -3.4000 O   0  0  0  0  0  0  0  0  0  0  0  0
   -2.1040    0.6220   -0.5360 C   0  0  2  0  0  0  0  0  0  0  0  0
   -3.4960    0.7920   -1.1830 C   0  0  0  0  0  0  0  0  0  0  0  0
   -2.0680    1.4880    0.5370 O   0  0  0  0  0  0  0  0  0  0  0  0
   -2.0250   -0.7110   -0.1730 O   0  0  0  0  0  0  0  0  0  0  0  0
  1  2  2  0
  2  3  2  0
  3  4  1  0
  3 21  1  0
  4  5  1  0
  5  6  1  0
  6  7  1  0
  7  8  1  0
  8  9  1  0
  8 13  2  0
  9 10  1  0
 10 11  1  0
 10 12  2  0
 13 14  1  0
 14 15  2  0
 15 16  1  0
 16 17  1  0
 16 18  1  0
 18 19  1  6
 18 20  1  0
 18 21  1  0
M  END
