
     RDKit          3D

 26 29  0  0  0  0  0  0  0  0999 V2000
   -4.1620    2.7050    0.1720 C   0  0  0  0  0  0  0  0  0  0  0  0
   -5.0100    1.8460   -0.7260 C   0  0  0  0  0  0  0  0  0  0  0  0
   -6.5430    2.5110   -1.3260 Cl  0  0  0  0  0  0  0  0  0  0  0  0
   -4.6830    0.6350   -1.0850 C   0  0  0  0  0  0  0  0  0  0  0  0
   -3.4650   -0.0730   -0.6850 C   0  0  0  0  0  0  0  0  0  0  0  0
   -2.2210    0.4890   -0.7550 C   0  0  0  0  0  0  0  0  0  0  0  0
   -1.0530   -0.2000   -0.3590 C   0  0  0  0  0  0  0  0  0  0  0  0
    0.2330    0.5060   -0.5090 C   0  0  0  0  0  0  0  0  0  0  0  0
    1.4370   -0.1630   -0.1140 C   0  0  0  0  0  0  0  0  0  0  0  0
    1.4790   -1.2820    0.4120 O   0  0  0  0  0  0  0  0  0  0  0  0
    2.6990    0.4910   -0.3360 N   0  0  0  0  0  0  0  0  0  0  0  0
    2.9470    1.7730   -0.9570 C   0  0  0  0  0  0  0  0  0  0  0  0
    4.2400    2.2180   -0.3650 C   0  0  0  0  0  0  0  0  0  0  0  0
    4.6920    3.3780   -0.1980 O   0  0  0  0  0  0  0  0  0  0  0  0
    4.9250    0.9910    0.0040 C   0  0  0  0  0  0  0  0  0  0  0  0
    6.2460    0.7030    0.3230 C   0  0  0  0  0  0  0  0  0  0  0  0
    6.6400   -0.5730    0.6490 C   0  0  0  0  0  0  0  0  0  0  0  0
    5.6670   -1.5490    0.6430 C   0  0  0  0  0  0  0  0  0  0  0  0
    4.3500   -1.3320    0.3390 C   0  0  0  0  0  0  0  0  0  0  0  0
    3.9930   -0.0240    0.0150 C   0  0  0  0  0  0  0  0  0  0  0  0
   -1.2550   -1.4690    0.1020 C   0  0  0  0  0  0  0  0  0  0  0  0
   -2.5300   -2.0580    0.1800 C   0  0  0  0  0  0  0  0  0  0  0  0
   -2.9730   -3.2550    0.5930 N   0  0  0  0  0  0  0  0  0  0  0  0
   -4.3020   -3.3430    0.4760 C   0  0  0  0  0  0  0  0  0  0  0  0
   -4.7750   -2.1400   -0.0420 C   0  0  0  0  0  0  0  0  0  0  0  0
   -3.6480   -1.3660   -0.2130 C   0  0  0  0  0  0  0  0  0  0  0  0
  1  2  1  0
  2  3  1  0
  2  4  2  3
  4  5  1  0
  5  6  2  0
  5 26  1  0
  6  7  1  0
  7  8  1  0
  7 21  2  0
  8  9  1  0
  9 10  2  0
  9 11  1  0
 11 12  1  0
 11 20  1  0
 12 13  1  0
 13 14  2  0
 13 15  1  0
 15 16  2  0
 15 20  1  0
 16 17  1  0
 17 18  2  0
 18 19  1  0
 19 20  2  0
 21 22  1  0
 22 23  1  0
 22 26  2  0
 23 24  1  0
 24 25  2  0
 25 26  1  0
M  END
