
     RDKit          3D

 21 22  0  0  0  0  0  0  0  0999 V2000
    1.7070   -4.2590    1.2200 C   0  0  0  0  0  0  0  0  0  0  0  0
    1.9730   -2.7950    1.1930 C   0  0  0  0  0  0  0  0  0  0  0  0
    3.0610   -2.2200    1.8200 C   0  0  0  0  0  0  0  0  0  0  0  0
    2.9350   -0.8730    1.5540 C   0  0  0  0  0  0  0  0  0  0  0  0
    1.7830   -0.6690    0.7790 C   0  0  0  0  0  0  0  0  0  0  0  0
    1.3740    0.6450    0.3260 C   0  0  0  0  0  0  0  0  0  0  0  0
    2.1710    1.7690    0.4800 N   0  0  0  0  0  0  0  0  0  0  0  0
    1.5930    2.8280   -0.0600 C   0  0  0  0  0  0  0  0  0  0  0  0
    2.1220    4.1920   -0.1030 C   0  0  0  0  0  0  0  0  0  0  0  0
    1.4320    5.2700   -0.7130 N   0  0  0  0  0  0  0  0  0  0  0  0
    3.2380    4.4360    0.4220 O   0  0  0  0  0  0  0  0  0  0  0  0
    0.4050    2.3830   -0.5700 C   0  0  0  0  0  0  0  0  0  0  0  0
   -0.5530    3.2630   -1.2620 C   0  0  0  0  0  0  0  0  0  0  0  0
    0.2610    1.0160   -0.3280 N   0  0  0  0  0  0  0  0  0  0  0  0
   -0.9220    0.3530   -0.6520 C   0  0  0  0  0  0  0  0  0  0  0  0
   -1.4400   -0.7380   -0.1740 C   0  0  0  0  0  0  0  0  0  0  0  0
   -2.7300   -1.2370   -0.7080 C   0  0  0  0  0  0  0  0  0  0  0  0
   -3.2740   -2.3410   -0.2390 C   0  0  0  0  0  0  0  0  0  0  0  0
   -4.5040   -2.8400   -0.7310 N   0  0  0  0  0  0  0  0  0  0  0  0
   -5.6840   -2.1990   -0.5120 O   0  0  0  0  0  0  0  0  0  0  0  0
    1.2880   -1.8430    0.6190 O   0  0  0  0  0  0  0  0  0  0  0  0
  1  2  1  0
  2  3  2  0
  2 21  1  0
  3  4  1  0
  4  5  2  0
  5  6  1  0
  5 21  1  0
  6  7  2  0
  6 14  1  0
  7  8  1  0
  8  9  1  0
  8 12  2  0
  9 10  1  0
  9 11  2  0
 12 13  1  0
 12 14  1  0
 14 15  1  0
 15 16  2  3
 16 17  1  0
 17 18  2  3
 18 19  1  0
 19 20  1  0
M  END
