
     RDKit          3D

 21 22  0  0  0  0  0  0  0  0999 V2000
    4.4590    0.9390    0.9740 C   0  0  0  0  0  0  0  0  0  0  0  0
    4.6880   -0.2320    0.0930 C   0  0  0  0  0  0  0  0  0  0  0  0
    5.8680   -0.9270   -0.0310 C   0  0  0  0  0  0  0  0  0  0  0  0
    5.7320   -1.9570   -0.9400 C   0  0  0  0  0  0  0  0  0  0  0  0
    4.4590   -1.8860   -1.3700 N   0  0  0  0  0  0  0  0  0  0  0  0
    3.8120   -0.8540   -0.7610 C   0  0  0  0  0  0  0  0  0  0  0  0
    2.3810   -0.4590   -0.9850 C   0  0  0  0  0  0  0  0  0  0  0  0
    1.5980   -0.9440    0.1930 C   0  0  0  0  0  0  0  0  0  0  0  0
    0.1890   -0.6340    0.1130 N   0  0  0  0  0  0  0  0  0  0  0  0
   -0.3330    0.6860    0.0430 C   0  0  0  0  0  0  0  0  0  0  0  0
    0.5570    1.6060    0.0620 O   0  0  0  0  0  0  0  0  0  0  0  0
   -1.7240    1.0400   -0.0450 C   0  0  0  0  0  0  0  0  0  0  0  0
   -2.6840    0.1570   -0.0750 C   0  0  0  0  0  0  0  0  0  0  0  0
   -4.0990    0.4540   -0.1630 C   0  0  0  0  0  0  0  0  0  0  0  0
   -4.5570    1.7720   -0.2230 C   0  0  0  0  0  0  0  0  0  0  0  0
   -5.8720    1.9790   -0.3080 N   0  0  0  0  0  0  0  0  0  0  0  0
   -6.8040    1.0230   -0.3400 C   0  0  0  0  0  0  0  0  0  0  0  0
   -8.0490    1.2540   -0.4210 O   0  0  0  0  0  0  0  0  0  0  0  0
   -6.3820   -0.2540   -0.2830 N   0  0  0  0  0  0  0  0  0  0  0  0
   -5.0700   -0.5310   -0.1970 C   0  0  0  0  0  0  0  0  0  0  0  0
   -4.7360   -1.7430   -0.1460 O   0  0  0  0  0  0  0  0  0  0  0  0
  1  2  1  0
  2  3  1  0
  2  6  2  0
  3  4  2  0
  4  5  1  0
  5  6  1  0
  6  7  1  0
  7  8  1  0
  8  9  1  0
  9 10  1  0
 10 11  2  0
 10 12  1  0
 12 13  2  3
 13 14  1  0
 14 15  2  0
 14 20  1  0
 15 16  1  0
 16 17  1  0
 17 18  2  0
 17 19  1  0
 19 20  1  0
 20 21  2  0
M  END
