
     RDKit          3D

 21 21  0  0  0  0  0  0  0  0999 V2000
   -4.4270    3.7260    0.7190 C   0  0  0  0  0  0  0  0  0  0  0  0
   -4.0820    2.4470    0.4240 C   0  0  0  0  0  0  0  0  0  0  0  0
   -2.7100    2.1090    0.1360 C   0  0  0  0  0  0  0  0  0  0  0  0
   -2.3090    0.8530   -0.0750 C   0  0  0  0  0  0  0  0  0  0  0  0
   -0.9440    0.6360   -0.3470 N   0  0  0  0  0  0  0  0  0  0  0  0
   -0.0380   -0.0150    0.4880 C   0  0  0  0  0  0  0  0  0  0  0  0
   -0.4270   -0.4570    1.6020 O   0  0  0  0  0  0  0  0  0  0  0  0
    1.3510   -0.2040    0.1230 N   0  0  0  0  0  0  0  0  0  0  0  0
    2.1790   -0.8690    1.0630 C   0  0  0  0  0  0  0  0  0  0  0  0
    3.5770   -1.0520    0.7060 C   0  0  0  0  0  0  0  0  0  0  0  0
    4.3020   -1.6500    1.5700 O   0  0  0  0  0  0  0  0  0  0  0  0
    4.2290   -0.6500   -0.4770 N   0  0  0  0  0  0  0  0  0  0  0  0
    5.5800   -0.9010   -0.6620 N   0  0  0  0  0  0  0  0  0  0  0  0
    6.5240   -0.1100    0.0310 C   0  0  0  0  0  0  0  0  0  0  0  0
    7.9940   -0.2730   -0.0770 C   0  0  0  0  0  0  0  0  0  0  0  0
    6.1230    0.8100    0.8060 O   0  0  0  0  0  0  0  0  0  0  0  0
   -3.3370   -0.1810   -0.0520 C   0  0  0  0  0  0  0  0  0  0  0  0
   -2.9760   -1.5990   -0.3240 C   0  0  0  0  0  0  0  0  0  0  0  0
   -4.2110   -2.4760   -0.3090 C   0  0  0  0  0  0  0  0  0  0  0  0
   -4.6060    0.0910    0.1670 C   0  0  0  0  0  0  0  0  0  0  0  0
   -5.1380    1.4280    0.4070 C   0  0  0  0  0  0  0  0  0  0  0  0
  1  2  2  0
  2  3  1  0
  2 21  1  0
  3  4  2  0
  4  5  1  0
  4 17  1  0
  5  6  1  0
  6  7  2  0
  6  8  1  0
  8  9  1  0
  9 10  1  0
 10 11  2  0
 10 12  1  0
 12 13  1  0
 13 14  1  0
 14 15  1  0
 14 16  2  0
 17 18  1  0
 17 20  2  0
 18 19  1  0
 20 21  1  0
M  END
