
     RDKit          3D

  9  9  0  0  0  0  0  0  0  0999 V2000
    1.0980   -0.4030   -3.0790 N   0  0  0  0  0  0  0  0  0  0  0  0
    0.6980   -0.2640   -2.1140 C   0  0  0  0  0  0  0  0  0  0  0  0
    0.1310   -0.0390   -0.7330 C   0  0  0  0  0  0  0  0  0  0  0  0
   -1.1660    0.0730   -0.5690 C   0  0  0  0  0  0  0  0  0  0  0  0
   -1.7780    0.2870    0.7610 C   0  0  0  0  0  0  0  0  0  0  0  0
   -0.8290    0.4110    1.7380 O   0  0  0  0  0  0  0  0  0  0  0  0
    0.5100    0.2970    1.5970 C   0  0  0  0  0  0  0  0  0  0  0  0
    1.0530    0.0720    0.3870 C   0  0  0  0  0  0  0  0  0  0  0  0
    2.8050   -0.0960    0.1270 S   0  0  0  0  0  0  0  0  0  0  0  0
  1  2  3  0
  2  3  1  0
  3  4  2  0
  3  8  1  0
  4  5  1  0
  5  6  1  0
  6  7  1  0
  7  8  2  0
  8  9  1  0
M  END
