
     RDKit          3D

  9  9  0  0  0  0  0  0  0  0999 V2000
    3.5480    0.1150    0.1760 C   0  0  0  0  0  0  0  0  0  0  0  0
    2.1530   -0.1680   -0.2620 C   0  0  0  0  0  0  0  0  0  0  0  0
    1.1840    0.3270    0.6430 O   0  0  0  0  0  0  0  0  0  0  0  0
   -0.1670    0.1050    0.3100 C   0  0  0  0  0  0  0  0  0  0  0  0
   -0.5130   -0.4760   -0.7630 N   0  0  0  0  0  0  0  0  0  0  0  0
   -1.8670   -0.6900   -1.0800 C   0  0  0  0  0  0  0  0  0  0  0  0
   -2.8890   -0.3500   -0.3750 C   0  0  0  0  0  0  0  0  0  0  0  0
   -2.9430    0.3410    0.9310 C   0  0  0  0  0  0  0  0  0  0  0  0
   -1.3030    0.7280    1.5550 S   0  0  0  0  0  0  0  0  0  0  0  0
  1  2  1  0
  2  3  1  0
  3  4  1  0
  4  5  2  0
  4  9  1  0
  5  6  1  0
  6  7  2  0
  7  8  1  0
  8  9  1  0
M  END
