
     RDKit          3D

 18 18  0  0  0  0  0  0  0  0999 V2000
    3.8300    0.0800    1.7190 C   0  0  0  0  0  0  0  0  0  0  0  0
    4.0130    0.2510    0.3280 O   0  0  0  0  0  0  0  0  0  0  0  0
    2.4380    0.5150   -0.3570 P   0  0  0  0  0  0  0  0  0  0  0  0
    2.6400    0.5840   -2.1990 C   0  0  0  0  0  0  0  0  0  0  0  0
    3.7550   -0.8060   -2.7020 P   0  0  0  0  0  0  0  0  0  0  0  0
    4.1670   -1.9400   -1.7010 O   0  0  0  0  0  0  0  0  0  0  0  0
    1.4620   -0.8740    0.0870 O   0  0  0  0  0  0  0  0  0  0  0  0
    0.7770   -1.2810   -0.9700 O   0  0  0  0  0  0  0  0  0  0  0  0
   -0.8910   -1.1500   -0.6000 P   0  0  0  0  0  0  0  0  0  0  0  0
   -1.5870    0.3310   -1.2440 O   0  0  0  0  0  0  0  0  0  0  0  0
   -2.9290    0.1320   -1.2640 O   0  0  0  0  0  0  0  0  0  0  0  0
   -3.7600    0.6690   -0.2860 C   0  0  0  0  0  0  0  0  0  0  0  0
   -5.2460    0.4300   -0.3370 C   0  0  0  0  0  0  0  0  0  0  0  0
   -3.2300    1.3480    0.6220 O   0  0  0  0  0  0  0  0  0  0  0  0
   -1.1310   -1.0630    1.2320 C   0  0  0  0  0  0  0  0  0  0  0  0
   -1.7590   -1.6950    2.1480 O   0  0  0  0  0  0  0  0  0  0  0  0
   -1.4390   -1.0400    3.1880 O   0  0  0  0  0  0  0  0  0  0  0  0
   -0.5020    0.0280    2.3810 P   0  0  0  0  0  0  0  0  0  0  0  0
  1  2  1  0
  2  3  1  0
  3  4  1  0
  3  7  1  0
  4  5  1  0
  5  6  2  0
  7  8  1  0
  8  9  1  0
  9 10  1  0
  9 15  1  0
 10 11  1  0
 11 12  1  0
 12 13  1  0
 12 14  2  0
 15 16  1  0
 15 18  2  0
 16 17  1  0
 17 18  1  0
M  END
