
     RDKit          3D

 17 16  0  0  0  0  0  0  0  0999 V2000
   -2.3720    1.6850    1.0610 C   0  0  0  0  0  0  0  0  0  0  0  0
   -1.8970    0.5620    0.1530 C   0  0  1  0  0  0  0  0  0  0  0  0
   -0.4960    0.1870    0.6560 C   0  0  0  0  0  0  0  0  0  0  0  0
   -0.0210   -0.8610   -0.1380 O   0  0  0  0  0  0  0  0  0  0  0  0
    1.2500   -1.3800    0.1310 C   0  0  0  0  0  0  0  0  0  0  0  0
    2.1210   -0.7140    0.9810 O   0  0  0  0  0  0  0  0  0  0  0  0
    3.7150   -0.2020    0.4950 P   0  0  0  0  0  0  0  0  0  0  0  0
    4.0430    1.3670    1.1380 O   0  0  0  0  0  0  0  0  0  0  0  0
    3.8370   -0.2410   -1.2300 O   0  0  0  0  0  0  0  0  0  0  0  0
    1.7630   -2.8030   -0.5510 P   0  0  0  0  0  0  0  0  0  0  0  0
    3.3350   -3.4450   -0.2180 O   0  0  0  0  0  0  0  0  0  0  0  0
   -2.6660   -0.5810    0.2890 O   0  0  0  0  0  0  0  0  0  0  0  0
   -4.3190   -0.3630   -0.0830 P   0  0  0  0  0  0  0  0  0  0  0  0
   -5.3310   -1.4450    0.4440 O   0  0  0  0  0  0  0  0  0  0  0  0
   -1.8510    0.9850   -1.2620 C   0  0  0  0  0  0  0  0  0  0  0  0
   -2.4530    0.3350   -2.1110 O   0  0  0  0  0  0  0  0  0  0  0  0
   -1.1750    2.0660   -1.6860 F   0  0  0  0  0  0  0  0  0  0  0  0
  2  1  1  1
  2  3  1  0
  2 12  1  0
  2 15  1  0
  3  4  1  0
  4  5  1  0
  5  6  1  0
  5 10  2  3
  6  7  1  0
  7  8  1  0
  7  9  1  0
 10 11  1  0
 12 13  1  0
 13 14  2  0
 15 16  2  0
 15 17  1  0
M  END
