
     RDKit          3D

 18 17  0  0  0  0  0  0  0  0999 V2000
    2.3180   -1.5120   -1.2160 C   0  0  0  0  0  0  0  0  0  0  0  0
    2.2470    0.1900   -0.4880 P   0  0  0  0  0  0  0  0  0  0  0  0
    0.7840    0.2580    0.6690 C   0  0  0  0  0  0  0  0  0  0  0  0
   -0.7020    0.0130   -0.3810 P   0  0  0  0  0  0  0  0  0  0  0  0
   -1.2300    1.4120   -1.1880 O   0  0  0  0  0  0  0  0  0  0  0  0
   -2.3110    2.3050   -0.2020 P   0  0  0  0  0  0  0  0  0  0  0  0
   -3.9480    2.1550   -0.8130 O   0  0  0  0  0  0  0  0  0  0  0  0
   -1.8990    3.9970   -0.1470 O   0  0  0  0  0  0  0  0  0  0  0  0
   -2.0080   -0.9980    0.3730 C   0  0  2  0  0  0  0  0  0  0  0  0
   -3.0410   -0.2190    0.9420 O   0  0  0  0  0  0  0  0  0  0  0  0
   -1.4290   -1.7800    1.3990 O   0  0  0  0  0  0  0  0  0  0  0  0
   -2.5980   -1.9530   -0.5900 C   0  0  0  0  0  0  0  0  0  0  0  0
   -1.8420   -2.7360   -1.2030 O   0  0  0  0  0  0  0  0  0  0  0  0
   -3.9550   -2.0110   -0.8370 O   0  0  0  0  0  0  0  0  0  0  0  0
    3.8160    0.6590    0.3620 C   0  0  1  0  0  0  0  0  0  0  0  0
    4.8870    0.1550   -0.3630 O   0  0  0  0  0  0  0  0  0  0  0  0
    3.8730    2.0450    0.4210 O   0  0  0  0  0  0  0  0  0  0  0  0
    3.8580    0.0860    1.6190 F   0  0  0  0  0  0  0  0  0  0  0  0
  1  2  1  0
  2  3  1  0
  2 15  1  0
  3  4  1  0
  4  5  1  0
  4  9  1  0
  5  6  1  0
  6  7  1  0
  6  8  1  0
  9 10  1  1
  9 11  1  0
  9 12  1  0
 12 13  2  0
 12 14  1  0
 15 16  1  6
 15 17  1  0
 15 18  1  0
M  END
