
     RDKit          3D

 19 18  0  0  0  0  0  0  0  0999 V2000
    1.7460   -1.6950   -0.9260 O   0  0  0  0  0  0  0  0  0  0  0  0
    2.0750   -0.9410    0.0160 C   0  0  0  0  0  0  0  0  0  0  0  0
    3.3390   -0.1600   -0.0850 C   0  0  0  0  0  0  0  0  0  0  0  0
    3.9830   -0.4030   -1.2700 O   0  0  0  0  0  0  0  0  0  0  0  0
    5.3740    0.5250   -1.2720 P   0  0  0  0  0  0  0  0  0  0  0  0
    5.9630    1.0260    0.2240 O   0  0  0  0  0  0  0  0  0  0  0  0
    6.2270    0.7470   -2.6030 O   0  0  0  0  0  0  0  0  0  0  0  0
    4.5090    1.7870   -1.3370 O   0  0  0  0  0  0  0  0  0  0  0  0
    1.2360   -0.8530    1.1500 N   0  0  0  0  0  0  0  0  0  0  0  0
    1.5370   -0.0600    2.1940 O   0  0  0  0  0  0  0  0  0  0  0  0
    0.0220   -1.6310    1.1960 C   0  0  0  0  0  0  0  0  0  0  0  0
   -1.1140   -0.7990    0.5890 C   0  0  0  0  0  0  0  0  0  0  0  0
   -2.3770   -1.6260    0.6440 C   0  0  0  0  0  0  0  0  0  0  0  0
   -3.5030   -0.8450    0.0620 C   0  0  0  0  0  0  0  0  0  0  0  0
   -3.7830    0.3270    0.6840 O   0  0  0  0  0  0  0  0  0  0  0  0
   -5.0160    1.1900    0.0430 P   0  0  0  0  0  0  0  0  0  0  0  0
   -4.4610    1.0750   -1.3660 O   0  0  0  0  0  0  0  0  0  0  0  0
   -6.4580    0.4970   -0.3700 O   0  0  0  0  0  0  0  0  0  0  0  0
   -4.9220    2.8520    0.0120 O   0  0  0  0  0  0  0  0  0  0  0  0
  1  2  2  0
  2  3  1  0
  2  9  1  0
  3  4  1  0
  4  5  1  0
  5  6  1  0
  5  7  1  0
  5  8  1  0
  9 10  1  0
  9 11  1  0
 11 12  1  0
 12 13  1  0
 13 14  1  0
 14 15  1  0
 15 16  1  0
 16 17  1  0
 16 18  1  0
 16 19  1  0
M  END
