
     RDKit          3D

 16 15  0  0  0  0  0  0  0  0999 V2000
   -3.9150   -1.2820   -0.2650 C   0  0  0  0  0  0  0  0  0  0  0  0
   -2.9970   -0.2860   -0.5710 O   0  0  0  0  0  0  0  0  0  0  0  0
   -2.2430    0.3160    0.8520 P   0  0  0  0  0  0  0  0  0  0  0  0
   -2.3810   -0.7800    2.1910 O   0  0  0  0  0  0  0  0  0  0  0  0
   -0.4640    0.7780    0.5470 C   0  0  1  0  0  0  0  0  0  0  0  0
   -0.3500    1.2650   -0.8630 C   0  0  0  0  0  0  0  0  0  0  0  0
   -0.0890    1.6740    1.5030 O   0  0  0  0  0  0  0  0  0  0  0  0
   -0.9580    3.1210    1.5680 P   0  0  0  0  0  0  0  0  0  0  0  0
   -1.9180    3.4590    0.1880 O   0  0  0  0  0  0  0  0  0  0  0  0
    0.5980   -0.7380    0.7160 P   0  0  0  0  0  0  0  0  0  0  0  0
   -0.1130   -2.1850   -0.1680 C   0  0  0  0  0  0  0  0  0  0  0  0
    2.3070   -0.3780    0.1880 C   0  0  0  0  0  0  0  0  0  0  0  0
    2.7080    0.8030   -0.0500 O   0  0  0  0  0  0  0  0  0  0  0  0
    3.2260   -1.3920    0.0310 O   0  0  0  0  0  0  0  0  0  0  0  0
    4.5740   -1.1490   -0.3810 C   0  0  0  0  0  0  0  0  0  0  0  0
    5.2350   -0.3110    0.5220 O   0  0  0  0  0  0  0  0  0  0  0  0
  1  2  1  0
  2  3  1  0
  3  4  1  0
  3  5  1  0
  5  6  1  6
  5  7  1  0
  5 10  1  0
  7  8  1  0
  8  9  1  0
 10 11  1  0
 10 12  1  0
 12 13  2  0
 12 14  1  0
 14 15  1  0
 15 16  1  0
M  END
