
     RDKit          3D

 18 18  0  0  0  0  0  0  0  0999 V2000
   -1.1880   -3.3800    2.1650 O   0  0  0  0  0  0  0  0  0  0  0  0
   -0.8080   -1.9010    2.1250 P   0  0  0  0  0  0  0  0  0  0  0  0
   -1.0560   -0.7840    0.6760 C   0  0  1  0  0  0  0  0  0  0  0  0
   -1.1940   -1.7170   -0.9150 P   0  0  0  0  0  0  0  0  0  0  0  0
   -0.5400   -3.2950   -0.8200 O   0  0  0  0  0  0  0  0  0  0  0  0
   -0.6460   -0.8140   -2.2670 O   0  0  0  0  0  0  0  0  0  0  0  0
   -2.2830    0.0460    0.8250 C   0  0  0  0  0  0  0  0  0  0  0  0
   -3.0870   -0.1140    1.7240 O   0  0  0  0  0  0  0  0  0  0  0  0
   -2.4770    1.1170   -0.2200 C   0  0  0  0  0  0  0  0  0  0  0  0
   -1.2900    2.0060   -0.1110 C   0  0  0  0  0  0  0  0  0  0  0  0
   -1.4300    3.3510   -0.4160 O   0  0  0  0  0  0  0  0  0  0  0  0
   -0.1110    1.5440    0.2670 C   0  0  0  0  0  0  0  0  0  0  0  0
    0.1100    0.1320    0.6050 C   0  0  0  0  0  0  0  0  0  0  0  0
    1.3080   -0.3380    0.8450 C   0  0  0  0  0  0  0  0  0  0  0  0
    1.4720   -1.6680    1.1580 O   0  0  0  0  0  0  0  0  0  0  0  0
    2.7560    0.7780    0.7620 P   0  0  0  0  0  0  0  0  0  0  0  0
    4.1920   -0.1410    0.9490 O   0  0  0  0  0  0  0  0  0  0  0  0
    2.7580    1.6960   -0.7110 O   0  0  0  0  0  0  0  0  0  0  0  0
  1  2  2  0
  2  3  1  0
  3  4  1  6
  3  7  1  0
  3 13  1  0
  4  5  1  0
  4  6  1  0
  7  8  2  0
  7  9  1  0
  9 10  1  0
 10 11  1  0
 10 12  2  0
 12 13  1  0
 13 14  2  3
 14 15  1  0
 14 16  1  0
 16 17  1  0
 16 18  1  0
M  END
