
     RDKit          3D

 18 18  0  0  0  0  0  0  0  0999 V2000
    5.1930   -1.4180   -0.4710 O   0  0  0  0  0  0  0  0  0  0  0  0
    4.8910    0.0790   -0.1530 P   0  0  0  0  0  0  0  0  0  0  0  0
    3.2840    0.5200    0.2950 O   0  0  0  0  0  0  0  0  0  0  0  0
    2.1930   -0.2670   -0.8290 P   0  0  0  0  0  0  0  0  0  0  0  0
    2.9760   -1.7650   -1.2960 O   0  0  0  0  0  0  0  0  0  0  0  0
    0.7260   -0.5710   -0.0130 O   0  0  0  0  0  0  0  0  0  0  0  0
   -0.2680    0.3860   -0.2810 C   0  0  2  0  0  0  0  0  0  0  0  0
   -0.5630    0.4200   -1.6490 O   0  0  0  0  0  0  0  0  0  0  0  0
    0.1070    1.7090    0.2370 C   0  0  0  0  0  0  0  0  0  0  0  0
    1.4770    2.7970   -0.3350 P   0  0  0  0  0  0  0  0  0  0  0  0
    1.2760    3.9030   -1.3830 O   0  0  0  0  0  0  0  0  0  0  0  0
   -0.7270    1.9960    1.2090 C   0  0  0  0  0  0  0  0  0  0  0  0
   -1.6840    0.9240    1.4040 C   0  0  0  0  0  0  0  0  0  0  0  0
   -1.4140   -0.0160    0.5320 C   0  0  0  0  0  0  0  0  0  0  0  0
   -2.1560   -1.2790    0.3990 C   0  0  0  0  0  0  0  0  0  0  0  0
   -1.7960   -2.0980   -0.4780 O   0  0  0  0  0  0  0  0  0  0  0  0
   -3.2250   -1.5570    1.2210 O   0  0  0  0  0  0  0  0  0  0  0  0
   -3.9010   -2.6990    1.1050 O   0  0  0  0  0  0  0  0  0  0  0  0
  1  2  2  0
  2  3  1  0
  3  4  1  0
  4  5  1  0
  4  6  1  0
  6  7  1  0
  7  8  1  6
  7  9  1  0
  7 14  1  0
  9 10  1  0
  9 12  2  0
 10 11  2  0
 12 13  1  0
 13 14  2  0
 14 15  1  0
 15 16  2  0
 15 17  1  0
 17 18  1  0
M  END
