
     RDKit          3D

 24 25  0  0  0  0  0  0  0  0999 V2000
    6.0370    1.2450   -0.9020 C   0  0  0  0  0  0  0  0  0  0  0  0
    4.7190    1.5590   -0.2420 C   0  0  0  0  0  0  0  0  0  0  0  0
    3.7600    0.5640   -0.3260 O   0  0  0  0  0  0  0  0  0  0  0  0
    3.8050   -0.7160    0.1390 C   0  0  0  0  0  0  0  0  0  0  0  0
    2.7260   -1.4510    0.3230 C   0  0  0  0  0  0  0  0  0  0  0  0
    1.3620   -1.0380    0.0730 C   0  0  0  0  0  0  0  0  0  0  0  0
    0.8800    0.1970    0.4380 C   0  0  0  0  0  0  0  0  0  0  0  0
    1.6790    1.1550    1.1180 N   0  0  0  0  0  0  0  0  0  0  0  0
   -0.4410    0.5280    0.1500 C   0  0  0  0  0  0  0  0  0  0  0  0
   -1.3030   -0.3360   -0.4920 C   0  0  0  0  0  0  0  0  0  0  0  0
   -2.6790    0.0570   -0.7690 C   0  0  0  0  0  0  0  0  0  0  0  0
   -3.0460    1.2030   -0.4070 O   0  0  0  0  0  0  0  0  0  0  0  0
   -3.5950   -0.7400   -1.3960 O   0  0  0  0  0  0  0  0  0  0  0  0
   -4.9330   -0.4080   -1.6850 C   0  0  0  0  0  0  0  0  0  0  0  0
   -5.7420   -0.0940   -0.5110 C   0  0  0  0  0  0  0  0  0  0  0  0
   -6.0560    1.0730    0.1630 C   0  0  0  0  0  0  0  0  0  0  0  0
   -6.8440    1.0260    1.2280 C   0  0  0  0  0  0  0  0  0  0  0  0
   -7.3460   -0.1930    1.6570 C   0  0  0  0  0  0  0  0  0  0  0  0
   -6.6730   -1.3410    0.4980 S   0  0  0  0  0  0  0  0  0  0  0  0
   -0.8080   -1.5370   -0.8380 N   0  0  0  0  0  0  0  0  0  0  0  0
    0.4620   -1.8900   -0.5760 C   0  0  0  0  0  0  0  0  0  0  0  0
    0.8690   -3.0270   -0.9230 O   0  0  0  0  0  0  0  0  0  0  0  0
    5.1330   -1.3260    0.4590 C   0  0  0  0  0  0  0  0  0  0  0  0
    4.9290   -2.9990    1.0440 Cl  0  0  0  0  0  0  0  0  0  0  0  0
  1  2  1  0
  2  3  1  0
  3  4  1  0
  4  5  2  3
  4 23  1  0
  5  6  1  0
  6  7  2  0
  6 21  1  0
  7  8  1  0
  7  9  1  0
  9 10  2  0
 10 11  1  0
 10 20  1  0
 11 12  2  0
 11 13  1  0
 13 14  1  0
 14 15  1  0
 15 16  2  0
 15 19  1  0
 16 17  1  0
 17 18  2  0
 18 19  1  0
 20 21  1  0
 21 22  2  0
 23 24  1  0
M  END
