
     RDKit          3D

 24 25  0  0  0  0  0  0  0  0999 V2000
   -3.3740    2.4070   -1.6210 C   0  0  0  0  0  0  0  0  0  0  0  0
   -2.5250    1.6850   -0.8800 C   0  0  0  0  0  0  0  0  0  0  0  0
   -1.1260    2.0590   -1.0000 C   0  0  0  0  0  0  0  0  0  0  0  0
   -3.1260    0.6450    0.0100 C   0  0  0  0  0  0  0  0  0  0  0  0
   -2.3430   -0.1020    0.7290 C   0  0  0  0  0  0  0  0  0  0  0  0
   -0.9580    0.1170    0.6070 O   0  0  0  0  0  0  0  0  0  0  0  0
   -0.0810   -0.7320   -0.0380 C   0  0  0  0  0  0  0  0  0  0  0  0
    1.3400   -0.1940    0.0350 C   0  0  0  0  0  0  0  0  0  0  0  0
    1.5750    0.8500    0.6560 O   0  0  0  0  0  0  0  0  0  0  0  0
    2.3850   -0.8950   -0.6110 N   0  0  0  0  0  0  0  0  0  0  0  0
    3.7380   -0.5140   -0.6250 C   0  0  0  0  0  0  0  0  0  0  0  0
    4.2700    0.5920   -0.0200 C   0  0  0  0  0  0  0  0  0  0  0  0
    5.6350    0.9230   -0.0680 C   0  0  0  0  0  0  0  0  0  0  0  0
    6.4530    0.1060   -0.7450 N   0  0  0  0  0  0  0  0  0  0  0  0
    6.0020   -0.9880   -1.3580 C   0  0  0  0  0  0  0  0  0  0  0  0
    4.6500   -1.3170   -1.3100 C   0  0  0  0  0  0  0  0  0  0  0  0
    4.3010   -2.4630   -1.9750 O   0  0  0  0  0  0  0  0  0  0  0  0
   -2.7710   -1.1570    1.6700 C   0  0  0  0  0  0  0  0  0  0  0  0
   -1.7090   -1.8870    2.4690 C   0  0  0  0  0  0  0  0  0  0  0  0
   -0.9770   -0.9720    3.1900 O   0  0  0  0  0  0  0  0  0  0  0  0
   -4.0370   -1.4350    1.8600 C   0  0  0  0  0  0  0  0  0  0  0  0
   -4.4540   -2.6940    2.9870 Cl  0  0  0  0  0  0  0  0  0  0  0  0
   -5.3210   -0.5820    1.0300 S   0  0  0  0  0  0  0  0  0  0  0  0
   -4.6340    0.6070   -0.0670 C   0  0  0  0  0  0  0  0  0  0  0  0
  1  2  2  0
  2  3  1  0
  2  4  1  0
  4  5  2  0
  4 24  1  0
  5  6  1  0
  5 18  1  0
  6  7  1  0
  7  8  1  0
  8  9  2  0
  8 10  1  0
 10 11  1  0
 11 12  2  0
 11 16  1  0
 12 13  1  0
 13 14  2  0
 14 15  1  0
 15 16  2  0
 16 17  1  0
 18 19  1  0
 18 21  2  0
 19 20  1  0
 21 22  1  0
 21 23  1  0
 23 24  1  0
M  END
