
     RDKit          3D

 24 25  0  0  0  0  0  0  0  0999 V2000
   -3.8580   -1.9760   -2.3140 C   0  0  0  0  0  0  0  0  0  0  0  0
   -4.3290   -1.3620   -1.0470 C   0  0  0  0  0  0  0  0  0  0  0  0
   -3.7630   -0.2520   -0.6030 C   0  0  0  0  0  0  0  0  0  0  0  0
   -2.6710    0.2750   -1.4650 C   0  0  0  0  0  0  0  0  0  0  0  0
   -1.4200    0.3990   -1.0380 O   0  0  0  0  0  0  0  0  0  0  0  0
   -0.5120    0.9340   -0.2710 C   0  0  0  0  0  0  0  0  0  0  0  0
   -0.8520    1.8250    0.5420 O   0  0  0  0  0  0  0  0  0  0  0  0
    0.9300    0.5880   -0.2570 C   0  0  0  0  0  0  0  0  0  0  0  0
    1.4090   -0.3760   -1.1090 C   0  0  0  0  0  0  0  0  0  0  0  0
    2.7490   -0.6850   -1.0840 C   0  0  0  0  0  0  0  0  0  0  0  0
    3.6340   -0.0480   -0.2200 C   0  0  0  0  0  0  0  0  0  0  0  0
    4.9820   -0.3890   -0.2260 O   0  0  0  0  0  0  0  0  0  0  0  0
    5.8350    0.3010    0.6840 C   0  0  0  0  0  0  0  0  0  0  0  0
    7.2130   -0.2020    0.5230 C   0  0  0  0  0  0  0  0  0  0  0  0
    8.2870    0.2880    1.2860 N   0  0  0  0  0  0  0  0  0  0  0  0
    7.4770   -1.1150   -0.3310 O   0  0  0  0  0  0  0  0  0  0  0  0
    3.1160    0.9180    0.6240 C   0  0  0  0  0  0  0  0  0  0  0  0
    1.7590    1.2470    0.6150 C   0  0  0  0  0  0  0  0  0  0  0  0
   -4.2450    0.3910    0.5910 C   0  0  0  0  0  0  0  0  0  0  0  0
   -3.6350    1.6490    0.9970 N   0  0  0  0  0  0  0  0  0  0  0  0
   -5.2310   -0.0180    1.3330 C   0  0  0  0  0  0  0  0  0  0  0  0
   -5.5970    0.9860    2.7500 Cl  0  0  0  0  0  0  0  0  0  0  0  0
   -6.1140   -1.1800    1.1990 C   0  0  0  0  0  0  0  0  0  0  0  0
   -5.6250   -2.1740   -0.1920 S   0  0  0  0  0  0  0  0  0  0  0  0
  1  2  1  0
  2  3  2  0
  2 24  1  0
  3  4  1  0
  3 19  1  0
  4  5  1  0
  5  6  1  0
  6  7  2  0
  6  8  1  0
  8  9  2  0
  8 18  1  0
  9 10  1  0
 10 11  2  0
 11 12  1  0
 11 17  1  0
 12 13  1  0
 13 14  1  0
 14 15  1  0
 14 16  2  0
 17 18  2  0
 19 20  1  0
 19 21  2  0
 21 22  1  0
 21 23  1  0
 23 24  1  0
M  END
