
     RDKit          3D

 18 19  0  0  0  0  0  0  0  0999 V2000
   -4.2090    2.3560    1.2150 C   0  0  0  0  0  0  0  0  0  0  0  0
   -3.2990    1.2540    1.1380 O   0  0  0  0  0  0  0  0  0  0  0  0
   -2.6620    0.9770   -0.0550 C   0  0  0  0  0  0  0  0  0  0  0  0
   -2.9050    1.7100   -1.0450 O   0  0  0  0  0  0  0  0  0  0  0  0
   -1.7290   -0.1250   -0.2010 C   0  0  2  0  0  0  0  0  0  0  0  0
   -1.2190   -0.1990   -1.4950 O   0  0  0  0  0  0  0  0  0  0  0  0
   -2.3190   -1.4810    0.1180 C   0  0  0  0  0  0  0  0  0  0  0  0
   -1.4040   -2.4690   -0.3870 N   0  0  0  0  0  0  0  0  0  0  0  0
   -0.0850   -2.3810    0.1470 C   0  0  0  0  0  0  0  0  0  0  0  0
    0.4950   -0.9960    0.1410 C   0  0  2  0  0  0  0  0  0  0  0  0
    1.6740   -0.9780    0.9530 N   0  0  0  0  0  0  0  0  0  0  0  0
    2.6780   -0.2550    0.5930 C   0  0  0  0  0  0  0  0  0  0  0  0
    2.8300    0.6040   -0.5790 C   0  0  0  0  0  0  0  0  0  0  0  0
    3.9040    1.3630   -0.3680 C   0  0  0  0  0  0  0  0  0  0  0  0
    4.3710    2.3270   -1.2900 N   0  0  0  0  0  0  0  0  0  0  0  0
    4.4750    1.0690    0.8580 O   0  0  0  0  0  0  0  0  0  0  0  0
    3.9640   -0.1530    1.3570 C   0  0  0  0  0  0  0  0  0  0  0  0
   -0.5070    0.0140    0.7190 C   0  0  0  0  0  0  0  0  0  0  0  0
  1  2  1  0
  2  3  1  0
  3  4  2  0
  3  5  1  0
  5  6  1  6
  5  7  1  0
  5 18  1  0
  7  8  1  0
  8  9  1  0
  9 10  1  0
 10 11  1  1
 10 18  1  0
 11 12  2  3
 12 13  1  0
 12 17  1  0
 13 14  2  0
 14 15  1  0
 14 16  1  0
 16 17  1  0
M  CHG  1   8   1
M  END
