
     RDKit          3D

 19 20  0  0  0  0  0  0  0  0999 V2000
    6.3890    0.5620    0.8780 C   0  0  0  0  0  0  0  0  0  0  0  0
    5.1500    0.9110    0.2930 O   0  0  0  0  0  0  0  0  0  0  0  0
    4.1210    0.0150    0.3310 C   0  0  0  0  0  0  0  0  0  0  0  0
    4.3260   -1.1060    0.8980 O   0  0  0  0  0  0  0  0  0  0  0  0
    2.7970    0.2820   -0.2490 C   0  0  0  0  0  0  0  0  0  0  0  0
    2.4570    1.4100   -0.8660 N   0  0  0  0  0  0  0  0  0  0  0  0
    1.1560    1.2940   -1.2680 C   0  0  0  0  0  0  0  0  0  0  0  0
    0.5980    2.2420   -1.8830 O   0  0  0  0  0  0  0  0  0  0  0  0
    0.6690    0.1000   -0.9090 N   0  0  0  0  0  0  0  0  0  0  0  0
   -0.6510   -0.4060   -1.1360 C   0  0  0  0  0  0  0  0  0  0  0  0
   -1.6450   -0.1580   -0.0490 C   0  0  1  0  0  0  0  0  0  0  0  0
   -1.9000    1.2760    0.2780 C   0  0  0  0  0  0  0  0  0  0  0  0
   -3.0100    1.6230   -0.6950 C   0  0  0  0  0  0  0  0  0  0  0  0
   -3.7870    0.4760   -0.7950 O   0  0  0  0  0  0  0  0  0  0  0  0
   -2.9920   -0.6070   -0.5690 C   0  0  2  0  0  0  0  0  0  0  0  0
   -3.7090   -1.5280    0.4190 C   0  0  0  0  0  0  0  0  0  0  0  0
   -3.9700   -0.8660    1.6650 N   0  0  0  0  0  0  0  0  0  0  0  0
    1.6950   -0.5280   -0.2740 C   0  0  0  0  0  0  0  0  0  0  0  0
    1.6300   -1.8230    0.2760 N   0  0  0  0  0  0  0  0  0  0  0  0
  1  2  1  0
  2  3  1  0
  3  4  2  0
  3  5  1  0
  5  6  1  0
  5 18  2  0
  6  7  1  0
  7  8  2  0
  7  9  1  0
  9 10  1  0
  9 18  1  0
 11 10  1  6
 11 12  1  0
 11 15  1  0
 12 13  1  0
 13 14  1  0
 14 15  1  0
 15 16  1  1
 16 17  1  0
 18 19  1  0
M  CHG  1  17   1
M  END
