
     RDKit          3D

 19 20  0  0  0  0  0  0  0  0999 V2000
    3.6100   -2.4410    0.1470 C   0  0  0  0  0  0  0  0  0  0  0  0
    3.2040   -1.1720    0.5350 O   0  0  0  0  0  0  0  0  0  0  0  0
    2.8820   -0.3560   -0.5200 C   0  0  2  0  0  0  0  0  0  0  0  0
    3.6800    0.9090   -0.5850 C   0  0  2  0  0  0  0  0  0  0  0  0
    4.5030    1.1100    0.5960 N   0  0  0  0  0  0  0  0  0  0  0  0
    2.6670    2.0110   -0.6250 C   0  0  0  0  0  0  0  0  0  0  0  0
    1.4400    1.3150   -1.1850 C   0  0  0  0  0  0  0  0  0  0  0  0
    1.4730    0.0430   -0.4890 N   0  0  0  0  0  0  0  0  0  0  0  0
    0.3980   -0.6670    0.0950 C   0  0  0  0  0  0  0  0  0  0  0  0
    0.5900   -1.7540    0.6620 O   0  0  0  0  0  0  0  0  0  0  0  0
   -0.9130   -0.1490    0.0430 N   0  0  0  0  0  0  0  0  0  0  0  0
   -1.9990   -0.8860    0.6440 C   0  0  0  0  0  0  0  0  0  0  0  0
   -3.2890   -0.1210    0.4520 C   0  0  1  0  0  0  0  0  0  0  0  0
   -3.2570    1.1330    1.0280 O   0  0  0  0  0  0  0  0  0  0  0  0
   -3.6670    0.0280   -0.9920 C   0  0  0  0  0  0  0  0  0  0  0  0
   -5.1590    0.3650   -0.8700 C   0  0  0  0  0  0  0  0  0  0  0  0
   -5.5750   -0.5070    0.2310 N   0  0  0  0  0  0  0  0  0  0  0  0
   -4.4440   -0.8690    1.0060 C   0  0  0  0  0  0  0  0  0  0  0  0
   -4.4060   -1.6640    1.9750 O   0  0  0  0  0  0  0  0  0  0  0  0
  1  2  1  0
  3  2  1  1
  3  4  1  0
  3  8  1  0
  4  5  1  1
  4  6  1  0
  6  7  1  0
  7  8  1  0
  8  9  1  0
  9 10  2  0
  9 11  1  0
 11 12  1  0
 12 13  1  0
 13 14  1  1
 13 15  1  0
 13 18  1  0
 15 16  1  0
 16 17  1  0
 17 18  1  0
 18 19  2  0
M  CHG  1   5   1
M  END
