
     RDKit          3D

 22 24  0  0  0  0  0  0  0  0999 V2000
    2.9110   -2.3170    2.2300 C   0  0  0  0  0  0  0  0  0  0  0  0
    2.6230   -1.2880    1.4340 C   0  0  0  0  0  0  0  0  0  0  0  0
    3.6010   -0.2020    1.2170 C   0  0  0  0  0  0  0  0  0  0  0  0
    3.3140    0.8180    0.4260 C   0  0  0  0  0  0  0  0  0  0  0  0
    4.4740    2.1530    0.1370 S   0  0  0  0  0  0  0  0  0  0  0  0
    2.0540    0.8370   -0.2000 N   0  0  0  0  0  0  0  0  0  0  0  0
    1.1480   -0.0680   -0.0600 C   0  0  0  0  0  0  0  0  0  0  0  0
   -0.1400    0.1250   -0.8150 C   0  0  0  0  0  0  0  0  0  0  0  0
   -0.0670    0.2620   -2.1560 C   0  0  0  0  0  0  0  0  0  0  0  0
    1.1310    0.2620   -3.0600 C   0  0  0  0  0  0  0  0  0  0  0  0
   -1.7490    0.4540   -2.6890 S   0  0  0  0  0  0  0  0  0  0  0  0
   -2.4450    0.3320   -1.0150 C   0  0  0  0  0  0  0  0  0  0  0  0
   -3.8830    0.4280   -0.7680 C   0  0  0  0  0  0  0  0  0  0  0  0
   -4.6160    0.3890    0.3250 N   0  0  0  0  0  0  0  0  0  0  0  0
   -5.9080    0.5270   -0.0110 C   0  0  0  0  0  0  0  0  0  0  0  0
   -5.9530    0.6520   -1.3370 N   0  0  0  0  0  0  0  0  0  0  0  0
   -4.7510    0.5920   -1.7710 O   0  0  0  0  0  0  0  0  0  0  0  0
   -1.3680    0.1630   -0.2300 C   0  0  0  0  0  0  0  0  0  0  0  0
   -1.5430    0.0870    1.2590 C   0  0  0  0  0  0  0  0  0  0  0  0
   -0.4380    0.2220    2.1400 N   0  0  0  0  0  0  0  0  0  0  0  0
   -2.6470   -0.0920    1.7980 O   0  0  0  0  0  0  0  0  0  0  0  0
    1.3800   -1.1790    0.7600 N   0  0  0  0  0  0  0  0  0  0  0  0
  1  2  2  0
  2  3  1  0
  2 22  1  0
  3  4  2  0
  4  5  1  0
  4  6  1  0
  6  7  2  0
  7  8  1  0
  7 22  1  0
  8  9  2  0
  8 18  1  0
  9 10  1  0
  9 11  1  0
 11 12  1  0
 12 13  1  0
 12 18  2  0
 13 14  2  0
 13 17  1  0
 14 15  1  0
 15 16  2  0
 16 17  1  0
 18 19  1  0
 19 20  1  0
 19 21  2  0
M  END
