
     RDKit          3D

 12 13  0  0  0  0  0  0  0  0999 V2000
   -2.5230    1.6550   -0.1540 C   0  0  0  0  0  0  0  0  0  0  0  0
   -1.4370    0.6530    0.1290 C   0  0  0  0  0  0  0  0  0  0  0  0
   -0.2050    1.0630    0.4050 C   0  0  0  0  0  0  0  0  0  0  0  0
    0.9010    0.1990    0.6930 C   0  0  1  0  0  0  0  0  0  0  0  0
    0.5340   -1.2680    0.5780 C   0  0  0  0  0  0  0  0  0  0  0  0
   -0.6720   -1.6720    0.2960 C   0  0  0  0  0  0  0  0  0  0  0  0
   -1.7240   -0.7140    0.0620 N   0  0  0  0  0  0  0  0  0  0  0  0
   -3.0790   -1.1280   -0.2430 C   0  0  0  0  0  0  0  0  0  0  0  0
    1.8390   -1.8710    0.7770 C   0  0  0  0  0  0  0  0  0  0  0  0
    2.7720   -1.0040    0.3330 C   0  0  0  0  0  0  0  0  0  0  0  0
    2.0520    0.1610   -0.1560 N   0  0  2  0  0  0  0  0  0  0  0  0
    2.8870    1.3360   -0.0620 C   0  0  0  0  0  0  0  0  0  0  0  0
  1  2  1  0
  2  3  2  0
  2  7  1  0
  4  3  1  6
  4  5  1  0
  4 11  1  0
  5  6  2  0
  5  9  1  0
  6  7  1  0
  7  8  1  0
  9 10  2  0
 10 11  1  0
 11 12  1  1
M  CHG  1  11   1
M  END
