
     RDKit          3D

 12 13  0  0  0  0  0  0  0  0999 V2000
    3.1040    1.8800   -0.0200 C   0  0  0  0  0  0  0  0  0  0  0  0
    1.7910    1.7760   -0.0580 C   0  0  0  0  0  0  0  0  0  0  0  0
    1.1220    0.4800   -0.1710 C   0  0  0  0  0  0  0  0  0  0  0  0
   -0.1900    0.3400   -0.2130 C   0  0  0  0  0  0  0  0  0  0  0  0
   -1.5040    1.0690   -0.1890 C   0  0  0  0  0  0  0  0  0  0  0  0
   -2.4310    0.0600    0.2270 N   0  0  0  0  0  0  0  0  0  0  0  0
   -3.7460    0.4110   -0.2640 C   0  0  0  0  0  0  0  0  0  0  0  0
   -1.9910   -1.1860   -0.3700 C   0  0  0  0  0  0  0  0  0  0  0  0
   -0.5020   -1.0720   -0.3270 C   0  0  0  0  0  0  0  0  0  0  0  0
    0.5760   -1.7640   -0.3540 N   0  0  0  0  0  0  0  0  0  0  0  0
    1.6940   -0.8640   -0.2590 C   0  0  2  0  0  0  0  0  0  0  0  0
    2.5010   -1.2310    0.9700 C   0  0  0  0  0  0  0  0  0  0  0  0
  1  2  2  0
  2  3  1  0
  3  4  2  0
  3 11  1  0
  4  5  1  0
  4  9  1  0
  5  6  1  0
  6  7  1  0
  6  8  1  0
  8  9  1  0
  9 10  2  0
 10 11  1  0
 11 12  1  1
M  CHG  1  10   1
M  END
