
     RDKit          3D

 22 24  0  0  0  0  0  0  0  0999 V2000
   -0.4360    1.1250   -0.2040 O   0  0  0  0  0  0  0  0  0  0  0  0
   -0.2200   -0.1060   -0.0550 C   0  0  0  0  0  0  0  0  0  0  0  0
    1.1720   -0.6790   -0.0530 C   0  0  0  0  0  0  0  0  0  0  0  0
    2.1450    0.4340   -0.2490 C   0  0  0  0  0  0  0  0  0  0  0  0
    3.5700   -0.0690   -0.2560 C   0  0  0  0  0  0  0  0  0  0  0  0
    3.8370   -1.3290   -0.1030 C   0  0  0  0  0  0  0  0  0  0  0  0
    5.1200   -2.0250   -0.0770 C   0  0  0  0  0  0  0  0  0  0  0  0
    6.5120   -0.9070   -0.2960 S   0  0  0  0  0  0  0  0  0  0  0  0
    5.8750    0.7430   -0.4820 C   0  0  0  0  0  0  0  0  0  0  0  0
    7.0590    2.0600   -0.7170 S   0  0  0  0  0  0  0  0  0  0  0  0
    4.5840    0.9540   -0.4430 C   0  0  0  0  0  0  0  0  0  0  0  0
   -1.3560   -0.9530    0.1140 N   0  0  0  0  0  0  0  0  0  0  0  0
   -2.6810   -0.4350    0.1160 C   0  0  0  0  0  0  0  0  0  0  0  0
   -3.8010   -1.2210    0.2760 C   0  0  0  0  0  0  0  0  0  0  0  0
   -4.9080   -0.3990    0.2270 C   0  0  0  0  0  0  0  0  0  0  0  0
   -6.2120   -0.6710    0.3300 N   0  0  0  0  0  0  0  0  0  0  0  0
   -7.0820    0.3510    0.2430 C   0  0  0  0  0  0  0  0  0  0  0  0
   -6.6150    1.6020    0.0560 N   0  0  0  0  0  0  0  0  0  0  0  0
   -5.3050    1.8880   -0.0500 C   0  0  0  0  0  0  0  0  0  0  0  0
   -4.9150    3.0710   -0.2240 O   0  0  0  0  0  0  0  0  0  0  0  0
   -4.4370    0.8650    0.0380 N   0  0  0  0  0  0  0  0  0  0  0  0
   -3.1100    0.8160   -0.0250 N   0  0  0  0  0  0  0  0  0  0  0  0
  1  2  2  0
  2  3  1  0
  2 12  1  0
  3  4  1  0
  4  5  1  0
  5  6  2  0
  5 11  1  0
  6  7  1  0
  7  8  1  0
  8  9  1  0
  9 10  1  0
  9 11  2  0
 12 13  1  0
 13 14  1  0
 13 22  2  0
 14 15  2  0
 15 16  1  0
 15 21  1  0
 16 17  2  0
 17 18  1  0
 18 19  1  0
 19 20  2  0
 19 21  1  0
 21 22  1  0
M  END
