
     RDKit          3D

 12 13  0  0  0  0  0  0  0  0999 V2000
    4.0500    1.4410   -0.7510 C   0  0  0  0  0  0  0  0  0  0  0  0
    2.9540    0.9590    0.1100 C   0  0  0  0  0  0  0  0  0  0  0  0
    1.8200    0.5770   -0.4080 C   0  0  0  0  0  0  0  0  0  0  0  0
    0.6640    0.0800    0.3640 C   0  0  0  0  0  0  0  0  0  0  0  0
    0.6890   -0.0170    1.6440 N   0  0  0  0  0  0  0  0  0  0  0  0
   -0.4580   -0.5080    2.3740 C   0  0  0  0  0  0  0  0  0  0  0  0
   -1.7160   -0.5950    1.5880 C   0  0  0  0  0  0  0  0  0  0  0  0
   -1.4240   -1.1970    0.2310 C   0  0  1  0  0  0  0  0  0  0  0  0
   -2.6240   -1.1580   -0.6780 C   0  0  0  0  0  0  0  0  0  0  0  0
   -2.4290    0.0800   -1.5550 C   0  0  0  0  0  0  0  0  0  0  0  0
   -0.9170    0.0880   -1.7060 C   0  0  0  0  0  0  0  0  0  0  0  0
   -0.4850   -0.2870   -0.3880 N   0  0  0  0  0  0  0  0  0  0  0  0
  1  2  1  0
  2  3  2  3
  3  4  1  0
  4  5  2  0
  4 12  1  0
  5  6  1  0
  6  7  1  0
  8  7  1  1
  8  9  1  0
  8 12  1  0
  9 10  1  0
 10 11  1  0
 11 12  1  0
M  CHG  1   5   1
M  END
