
     RDKit          3D

 19 20  0  0  0  0  0  0  0  0999 V2000
   -2.1830    2.1520   -0.7990 C   0  0  0  0  0  0  0  0  0  0  0  0
   -2.5800    0.7040   -0.6850 C   0  0  2  0  0  0  0  0  0  0  0  0
   -3.8170    0.6220    0.0240 N   0  0  0  0  0  0  0  0  0  0  0  0
   -1.4740   -0.1010   -0.0060 C   0  0  0  0  0  0  0  0  0  0  0  0
   -0.2720    0.0150   -0.7490 O   0  0  0  0  0  0  0  0  0  0  0  0
    0.9010   -0.6310   -0.3380 C   0  0  0  0  0  0  0  0  0  0  0  0
    0.8980   -1.8540    0.1510 C   0  0  0  0  0  0  0  0  0  0  0  0
    0.0840   -3.0580    0.5270 C   0  0  0  0  0  0  0  0  0  0  0  0
    1.0750   -4.2070    0.5400 C   0  0  0  0  0  0  0  0  0  0  0  0
    2.2730   -3.5310    1.0010 N   0  0  0  0  0  0  0  0  0  0  0  0
    2.2760   -2.1890    0.4650 C   0  0  0  0  0  0  0  0  0  0  0  0
    3.0560   -1.2110    0.1750 N   0  0  0  0  0  0  0  0  0  0  0  0
    2.2710   -0.1370   -0.3570 C   0  0  2  0  0  0  0  0  0  0  0  0
    2.4580    1.1350    0.3800 C   0  0  0  0  0  0  0  0  0  0  0  0
    3.2140    1.2530    1.3530 O   0  0  0  0  0  0  0  0  0  0  0  0
    1.7270    2.2700   -0.0620 N   0  0  0  0  0  0  0  0  0  0  0  0
    1.8310    3.5420    0.5740 C   0  0  0  0  0  0  0  0  0  0  0  0
    2.5860    3.6760    1.5530 O   0  0  0  0  0  0  0  0  0  0  0  0
    1.1090    4.6400    0.1290 O   0  0  0  0  0  0  0  0  0  0  0  0
  2  1  1  1
  2  3  1  0
  2  4  1  0
  4  5  1  0
  5  6  1  0
  6  7  2  0
  6 13  1  0
  7  8  1  0
  7 11  1  0
  8  9  1  0
  9 10  1  0
 10 11  1  0
 11 12  2  0
 12 13  1  0
 13 14  1  1
 14 15  2  0
 14 16  1  0
 16 17  1  0
 17 18  2  0
 17 19  1  0
M  CHG  1   3   1
M  END
