
     RDKit          3D

 19 20  0  0  0  0  0  0  0  0999 V2000
   -2.4980    1.6140   -2.3100 C   0  0  0  0  0  0  0  0  0  0  0  0
   -2.8500    1.0290   -1.1250 O   0  0  0  0  0  0  0  0  0  0  0  0
   -2.1880   -0.1050   -0.7630 C   0  0  2  0  0  0  0  0  0  0  0  0
   -3.1070   -1.3050   -0.6170 C   0  0  2  0  0  0  0  0  0  0  0  0
   -4.3470   -1.0660   -1.3120 N   0  0  0  0  0  0  0  0  0  0  0  0
   -3.3550   -1.4690    0.8580 C   0  0  0  0  0  0  0  0  0  0  0  0
   -2.3860   -0.5590    1.5460 C   0  0  0  0  0  0  0  0  0  0  0  0
   -1.5130   -0.0470    0.5160 N   0  0  0  0  0  0  0  0  0  0  0  0
   -0.1890    0.4360    0.7510 C   0  0  0  0  0  0  0  0  0  0  0  0
    0.2190    0.4090    1.9570 O   0  0  0  0  0  0  0  0  0  0  0  0
    0.6290    0.9170   -0.2830 N   0  0  0  0  0  0  0  0  0  0  0  0
    1.9550    1.3950   -0.0540 C   0  0  0  0  0  0  0  0  0  0  0  0
    2.9410    0.4340    0.4890 C   0  0  1  0  0  0  0  0  0  0  0  0
    2.6880   -0.1310    1.7020 O   0  0  0  0  0  0  0  0  0  0  0  0
    3.3050   -0.6530   -0.5070 C   0  0  0  0  0  0  0  0  0  0  0  0
    4.7110   -1.0190   -0.0190 C   0  0  0  0  0  0  0  0  0  0  0  0
    5.2980    0.3020    0.1310 N   0  0  0  0  0  0  0  0  0  0  0  0
    4.2580    1.1580    0.5700 C   0  0  0  0  0  0  0  0  0  0  0  0
    4.4340    2.3440    0.9640 O   0  0  0  0  0  0  0  0  0  0  0  0
  1  2  1  0
  3  2  1  1
  3  4  1  0
  3  8  1  0
  4  5  1  6
  4  6  1  0
  6  7  1  0
  7  8  1  0
  8  9  1  0
  9 10  2  0
  9 11  1  0
 11 12  1  0
 12 13  1  0
 13 14  1  1
 13 15  1  0
 13 18  1  0
 15 16  1  0
 16 17  1  0
 17 18  1  0
 18 19  2  0
M  CHG  1   5   1
M  END
