
     RDKit          3D

 15 17  0  0  0  0  0  0  0  0999 V2000
    3.9790   -0.0820   -0.2900 O   0  0  0  0  0  0  0  0  0  0  0  0
    2.8000    0.6580   -0.3620 C   0  0  0  0  0  0  0  0  0  0  0  0
    1.6070    0.0450   -0.1910 C   0  0  0  0  0  0  0  0  0  0  0  0
    1.6390   -1.3910    0.0650 C   0  0  0  0  0  0  0  0  0  0  0  0
    0.3380   -2.0200    0.2530 C   0  0  0  0  0  0  0  0  0  0  0  0
   -0.8710   -1.2040    0.1650 C   0  0  0  0  0  0  0  0  0  0  0  0
   -0.9190    0.0860   -0.0680 C   0  0  0  0  0  0  0  0  0  0  0  0
   -2.1110    0.7810   -0.1340 O   0  0  0  0  0  0  0  0  0  0  0  0
   -3.3700    0.1520    0.0460 C   0  0  0  0  0  0  0  0  0  0  0  0
   -3.2630   -1.1750    0.7340 C   0  0  0  0  0  0  0  0  0  0  0  0
   -2.0920   -1.8880    0.3530 O   0  0  0  0  0  0  0  0  0  0  0  0
    0.3680    0.7850   -0.2620 C   0  0  0  0  0  0  0  0  0  0  0  0
    0.3810    2.0880   -0.4990 C   0  0  0  0  0  0  0  0  0  0  0  0
    1.6520    2.8090   -0.6940 C   0  0  0  0  0  0  0  0  0  0  0  0
    2.7920    2.0010   -0.6030 O   0  0  0  0  0  0  0  0  0  0  0  0
  1  2  1  0
  2  3  2  0
  2 15  1  0
  3  4  1  0
  3 12  1  0
  4  5  1  0
  5  6  1  0
  6  7  2  0
  6 11  1  0
  7  8  1  0
  7 12  1  0
  8  9  1  0
  9 10  1  0
 10 11  1  0
 12 13  2  0
 13 14  1  0
 14 15  1  0
M  END
