
     RDKit          3D

 22 24  0  0  0  0  0  0  0  0999 V2000
   -0.4180   -0.5530   -1.0650 O   0  0  0  0  0  0  0  0  0  0  0  0
   -0.1650    0.0470    0.0060 C   0  0  0  0  0  0  0  0  0  0  0  0
    1.2450    0.3200    0.3820 C   0  0  0  0  0  0  0  0  0  0  0  0
    2.1500   -0.2160   -0.6710 C   0  0  0  0  0  0  0  0  0  0  0  0
    3.5940    0.0250   -0.3590 C   0  0  0  0  0  0  0  0  0  0  0  0
    3.9380    0.6430    0.7350 C   0  0  0  0  0  0  0  0  0  0  0  0
    5.2710    0.9880    1.2470 C   0  0  0  0  0  0  0  0  0  0  0  0
    6.5880    0.4450    0.1450 S   0  0  0  0  0  0  0  0  0  0  0  0
    5.8320   -0.3540   -1.2420 C   0  0  0  0  0  0  0  0  0  0  0  0
    6.9320   -0.9960   -2.5040 S   0  0  0  0  0  0  0  0  0  0  0  0
    4.5280   -0.4690   -1.3380 C   0  0  0  0  0  0  0  0  0  0  0  0
   -1.2250    0.4580    0.8450 N   0  0  0  0  0  0  0  0  0  0  0  0
   -2.6040    0.2390    0.5650 C   0  0  0  0  0  0  0  0  0  0  0  0
   -3.1650   -0.3850   -0.5250 C   0  0  0  0  0  0  0  0  0  0  0  0
   -4.5580   -0.3770   -0.3910 C   0  0  0  0  0  0  0  0  0  0  0  0
   -5.5750   -0.8370   -1.1420 N   0  0  0  0  0  0  0  0  0  0  0  0
   -6.8670   -0.6920   -0.7670 C   0  0  0  0  0  0  0  0  0  0  0  0
   -7.1040   -0.0650    0.3970 N   0  0  0  0  0  0  0  0  0  0  0  0
   -6.0860    0.3930    1.1440 C   0  0  0  0  0  0  0  0  0  0  0  0
   -6.3350    0.9810    2.2370 O   0  0  0  0  0  0  0  0  0  0  0  0
   -4.7840    0.2510    0.7730 N   0  0  0  0  0  0  0  0  0  0  0  0
   -3.6520    0.6170    1.3430 N   0  0  0  0  0  0  0  0  0  0  0  0
  1  2  2  0
  2  3  1  0
  2 12  1  0
  3  4  1  0
  4  5  1  0
  5  6  2  0
  5 11  1  0
  6  7  1  0
  7  8  1  0
  8  9  1  0
  9 10  1  0
  9 11  2  0
 12 13  1  0
 13 14  1  0
 13 22  2  0
 14 15  2  0
 15 16  1  0
 15 21  1  0
 16 17  2  0
 17 18  1  0
 18 19  1  0
 19 20  2  0
 19 21  1  0
 21 22  1  0
M  END
