
     RDKit          3D

 22 24  0  0  0  0  0  0  0  0999 V2000
   -4.2260    1.7630   -0.1590 C   0  0  0  0  0  0  0  0  0  0  0  0
   -3.3230    0.8210   -0.3710 C   0  0  0  0  0  0  0  0  0  0  0  0
   -3.5970   -0.3400   -1.2100 C   0  0  0  0  0  0  0  0  0  0  0  0
   -2.6510   -1.2320   -1.3750 C   0  0  0  0  0  0  0  0  0  0  0  0
   -2.9890   -2.6550   -2.4040 S   0  0  0  0  0  0  0  0  0  0  0  0
   -1.3690   -1.1050   -0.7620 N   0  0  0  0  0  0  0  0  0  0  0  0
   -1.0490   -0.1180   -0.0120 C   0  0  0  0  0  0  0  0  0  0  0  0
    0.3200   -0.0350    0.6090 C   0  0  0  0  0  0  0  0  0  0  0  0
    0.3830    0.1590    2.0180 C   0  0  0  0  0  0  0  0  0  0  0  0
   -0.7990    0.2980    2.9340 C   0  0  0  0  0  0  0  0  0  0  0  0
    2.0550    0.1920    2.3880 S   0  0  0  0  0  0  0  0  0  0  0  0
    2.6570   -0.0480    0.6900 C   0  0  0  0  0  0  0  0  0  0  0  0
    4.0630   -0.1030    0.3550 C   0  0  0  0  0  0  0  0  0  0  0  0
    5.0600    0.0020    1.2900 N   0  0  0  0  0  0  0  0  0  0  0  0
    6.2470   -0.0820    0.6980 C   0  0  0  0  0  0  0  0  0  0  0  0
    5.9800   -0.2410   -0.6260 N   0  0  0  0  0  0  0  0  0  0  0  0
    4.6890   -0.2460   -0.7690 O   0  0  0  0  0  0  0  0  0  0  0  0
    1.4980   -0.1310   -0.0080 C   0  0  0  0  0  0  0  0  0  0  0  0
    1.5630   -0.2690   -1.5070 C   0  0  0  0  0  0  0  0  0  0  0  0
    0.4380   -0.0340   -2.3360 N   0  0  0  0  0  0  0  0  0  0  0  0
    2.6100   -0.5930   -2.0840 O   0  0  0  0  0  0  0  0  0  0  0  0
   -2.0150    0.8950    0.2190 N   0  0  0  0  0  0  0  0  0  0  0  0
  1  2  2  0
  2  3  1  0
  2 22  1  0
  3  4  2  0
  4  5  1  0
  4  6  1  0
  6  7  2  0
  7  8  1  0
  7 22  1  0
  8  9  2  0
  8 18  1  0
  9 10  1  0
  9 11  1  0
 11 12  1  0
 12 13  1  0
 12 18  2  0
 13 14  2  0
 13 17  1  0
 14 15  1  0
 15 16  2  0
 16 17  1  0
 18 19  1  0
 19 20  1  0
 19 21  2  0
M  END
