
     RDKit          3D

 28 30  0  0  0  0  0  0  0  0999 V2000
    1.0490   -0.7630    2.9170 C   0  0  0  0  0  0  0  0  0  0  0  0
    2.0910   -0.4470    1.8970 C   0  0  0  0  0  0  0  0  0  0  0  0
    3.3670   -0.9500    2.1010 C   0  0  0  0  0  0  0  0  0  0  0  0
    4.3910   -0.6600    1.1910 C   0  0  0  0  0  0  0  0  0  0  0  0
    5.6670   -1.1680    1.3970 O   0  0  0  0  0  0  0  0  0  0  0  0
    6.7180   -0.8870    0.5270 C   0  0  0  0  0  0  0  0  0  0  0  0
    7.0760    0.5410    0.4390 C   0  0  0  0  0  0  0  0  0  0  0  0
    6.5460    1.4580    1.1120 O   0  0  0  0  0  0  0  0  0  0  0  0
    8.0810    0.9620   -0.4510 O   0  0  0  0  0  0  0  0  0  0  0  0
    4.0920    0.1280    0.1050 C   0  0  0  0  0  0  0  0  0  0  0  0
    2.7940    0.6230   -0.0770 C   0  0  0  0  0  0  0  0  0  0  0  0
    2.4990    1.4630   -1.2440 C   0  0  0  0  0  0  0  0  0  0  0  0
    1.7840    0.3400    0.8150 C   0  0  0  0  0  0  0  0  0  0  0  0
    0.4450    0.8530    0.5500 C   0  0  0  0  0  0  0  0  0  0  0  0
   -0.4710   -0.1100   -0.1060 C   0  0  0  0  0  0  0  0  0  0  0  0
   -0.3320   -1.4650   -0.1240 C   0  0  0  0  0  0  0  0  0  0  0  0
   -1.2810   -2.2470   -0.7570 C   0  0  0  0  0  0  0  0  0  0  0  0
   -2.3990   -1.7000   -1.3930 C   0  0  0  0  0  0  0  0  0  0  0  0
   -3.3220   -2.5320   -2.0150 O   0  0  0  0  0  0  0  0  0  0  0  0
   -2.5420   -0.3380   -1.3790 C   0  0  0  0  0  0  0  0  0  0  0  0
   -3.7130    0.3060   -2.0210 C   0  0  0  0  0  0  0  0  0  0  0  0
   -4.9490    0.2140   -1.1910 C   0  0  0  0  0  0  0  0  0  0  0  0
   -5.9080   -0.7470   -1.3260 C   0  0  0  0  0  0  0  0  0  0  0  0
   -7.0220   -0.7660   -0.5040 C   0  0  0  0  0  0  0  0  0  0  0  0
   -7.1540    0.2120    0.4670 C   0  0  0  0  0  0  0  0  0  0  0  0
   -6.2060    1.1980    0.6330 C   0  0  0  0  0  0  0  0  0  0  0  0
   -5.1180    1.1710   -0.2100 C   0  0  0  0  0  0  0  0  0  0  0  0
   -1.5910    0.4420   -0.7440 C   0  0  0  0  0  0  0  0  0  0  0  0
  1  2  1  0
  2  3  2  0
  2 13  1  0
  3  4  1  0
  4  5  1  0
  4 10  2  0
  5  6  1  0
  6  7  1  0
  7  8  2  0
  7  9  1  0
 10 11  1  0
 11 12  1  0
 11 13  2  0
 13 14  1  0
 14 15  1  0
 15 16  2  0
 15 28  1  0
 16 17  1  0
 17 18  2  0
 18 19  1  0
 18 20  1  0
 20 21  1  0
 20 28  2  0
 21 22  1  0
 22 23  2  0
 22 27  1  0
 23 24  1  0
 24 25  2  0
 25 26  1  0
 26 27  2  0
M  END
