
     RDKit          3D

 12 13  0  0  0  0  0  0  0  0999 V2000
   -3.6170   -0.0760    0.9480 C   0  0  0  0  0  0  0  0  0  0  0  0
   -2.4570   -0.5450    0.1770 N   0  0  1  0  0  0  0  0  0  0  0  0
   -2.6200   -0.3330   -1.2300 C   0  0  0  0  0  0  0  0  0  0  0  0
   -1.2380   -0.0540    0.7220 C   0  0  2  0  0  0  0  0  0  0  0  0
   -0.5490    0.9790   -0.1350 C   0  0  0  0  0  0  0  0  0  0  0  0
    0.8800    0.8870    0.3990 C   0  0  2  0  0  0  0  0  0  0  0  0
    1.8140    1.1220   -0.7520 C   0  0  0  0  0  0  0  0  0  0  0  0
    3.2500    0.8510   -0.4150 C   0  0  0  0  0  0  0  0  0  0  0  0
    3.3660   -0.1260    0.7270 C   0  0  0  0  0  0  0  0  0  0  0  0
    2.2030   -1.1140    0.5670 C   0  0  0  0  0  0  0  0  0  0  0  0
    1.0150   -0.4070    0.9970 N   0  0  0  0  0  0  0  0  0  0  0  0
   -0.1750   -1.1610    0.7270 C   0  0  0  0  0  0  0  0  0  0  0  0
  2  1  1  1
  2  3  1  0
  2  4  1  0
  4  5  1  6
  4 12  1  0
  6  5  1  6
  6  7  1  0
  6 11  1  0
  7  8  1  0
  8  9  1  0
  9 10  1  0
 10 11  1  0
 11 12  1  0
M  CHG  1   2   1
M  END
