
     RDKit          3D

 22 24  0  0  0  0  0  0  0  0999 V2000
   -5.8190    1.7890    0.6220 C   0  0  0  0  0  0  0  0  0  0  0  0
   -5.2690    0.3960    0.2390 C   0  0  0  0  0  0  0  0  0  0  0  0
   -6.0900   -0.6610    0.4220 C   0  0  0  0  0  0  0  0  0  0  0  0
   -5.0710   -2.0790   -0.1400 S   0  0  0  0  0  0  0  0  0  0  0  0
   -3.6260   -1.0880   -0.5700 C   0  0  0  0  0  0  0  0  0  0  0  0
   -2.4190   -1.6080   -1.1200 C   0  0  0  0  0  0  0  0  0  0  0  0
   -1.2230   -1.2510   -0.6950 C   0  0  0  0  0  0  0  0  0  0  0  0
   -0.8220   -0.3030    0.3710 C   0  0  0  0  0  0  0  0  0  0  0  0
    0.6230   -0.4080    0.3840 N   0  0  0  0  0  0  0  0  0  0  0  0
    1.0250   -1.3050   -0.6310 C   0  0  0  0  0  0  0  0  0  0  0  0
    2.7220   -1.7570   -1.0710 S   0  0  0  0  0  0  0  0  0  0  0  0
    3.8790   -0.8510   -0.0910 C   0  0  0  0  0  0  0  0  0  0  0  0
    4.2980   -1.3240    1.0850 N   0  0  0  0  0  0  0  0  0  0  0  0
    5.1870   -0.6400    1.8550 C   0  0  0  0  0  0  0  0  0  0  0  0
    5.5640   -1.1160    2.9650 O   0  0  0  0  0  0  0  0  0  0  0  0
    5.6530    0.5250    1.4340 N   0  0  0  0  0  0  0  0  0  0  0  0
    5.2380    1.0120    0.2490 C   0  0  0  0  0  0  0  0  0  0  0  0
    5.7020    2.1250   -0.1230 O   0  0  0  0  0  0  0  0  0  0  0  0
    4.3480    0.3250   -0.5210 N   0  0  0  0  0  0  0  0  0  0  0  0
    3.9700    0.9290   -1.7680 C   0  0  0  0  0  0  0  0  0  0  0  0
    0.0080   -1.7710   -1.2290 N   0  0  0  0  0  0  0  0  0  0  0  0
   -4.0440    0.1730   -0.2560 C   0  0  0  0  0  0  0  0  0  0  0  0
  1  2  1  0
  2  3  2  0
  2 22  1  0
  3  4  1  0
  4  5  1  0
  5  6  1  0
  5 22  2  0
  6  7  2  3
  7  8  1  0
  7 21  1  0
  8  9  1  0
  9 10  1  0
 10 11  1  0
 10 21  2  0
 11 12  1  0
 12 13  2  0
 12 19  1  0
 13 14  1  0
 14 15  2  0
 14 16  1  0
 16 17  1  0
 17 18  2  0
 17 19  1  0
 19 20  1  0
M  END
