
     RDKit          3D

 12 13  0  0  0  0  0  0  0  0999 V2000
   -0.8930   -2.1270   -0.0760 C   0  0  0  0  0  0  0  0  0  0  0  0
   -0.7530   -0.7350    0.3970 C   0  0  2  0  0  0  0  0  0  0  0  0
   -1.9730   -0.0580   -0.0950 N   0  0  0  0  0  0  0  0  0  0  0  0
   -2.3180    1.0720    0.6880 C   0  0  0  0  0  0  0  0  0  0  0  0
   -1.0690    1.6060    1.3210 C   0  0  0  0  0  0  0  0  0  0  0  0
    0.1420    1.5070    0.4240 C   0  0  0  0  0  0  0  0  0  0  0  0
    0.3040    0.1120   -0.1900 C   0  0  1  0  0  0  0  0  0  0  0  0
    1.6210   -0.3050   -0.2430 N   0  0  2  0  0  0  0  0  0  0  0  0
    1.9420   -1.6660    0.1150 C   0  0  0  0  0  0  0  0  0  0  0  0
    2.5900    0.5030    0.5230 C   0  0  0  0  0  0  0  0  0  0  0  0
   -0.2400    0.2790   -1.6240 C   0  0  0  0  0  0  0  0  0  0  0  0
   -1.7200    0.3090   -1.4460 C   0  0  0  0  0  0  0  0  0  0  0  0
  2  1  1  6
  2  3  1  0
  2  7  1  0
  3  4  1  0
  3 12  1  0
  4  5  1  0
  5  6  1  0
  7  6  1  1
  7  8  1  0
  7 11  1  0
  8  9  1  1
  8 10  1  0
 11 12  1  0
M  CHG  1   8   1
M  END
