
     RDKit          3D

 23 24  0  0  0  0  0  0  0  0999 V2000
   -1.5310    0.1060   -2.7580 O   0  0  0  0  0  0  0  0  0  0  0  0
   -2.4160   -0.9490   -2.6190 C   0  0  0  0  0  0  0  0  0  0  0  0
   -2.6810   -1.3060   -1.1700 C   0  0  1  0  0  0  0  0  0  0  0  0
   -1.5500   -1.6750   -0.4940 O   0  0  0  0  0  0  0  0  0  0  0  0
   -1.0250   -0.6210    0.2250 C   0  0  2  0  0  0  0  0  0  0  0  0
    0.2020   -0.8110    0.7490 O   0  0  0  0  0  0  0  0  0  0  0  0
    1.1980    0.0430    0.4010 C   0  0  2  0  0  0  0  0  0  0  0  0
    2.2940   -0.7560   -0.2780 C   0  0  1  0  0  0  0  0  0  0  0  0
    2.2060   -0.5770   -1.7970 C   0  0  0  0  0  0  0  0  0  0  0  0
    3.0930   -1.4220   -2.4460 O   0  0  0  0  0  0  0  0  0  0  0  0
    3.5490   -0.4820    0.2110 O   0  0  0  0  0  0  0  0  0  0  0  0
    3.8810    0.8450    0.2380 C   0  0  2  0  0  0  0  0  0  0  0  0
    5.1220    0.9480    0.9080 O   0  0  0  0  0  0  0  0  0  0  0  0
    2.9030    1.6720    1.0090 C   0  0  2  0  0  0  0  0  0  0  0  0
    3.5000    2.4480    2.0030 O   0  0  0  0  0  0  0  0  0  0  0  0
    1.8400    0.7520    1.5750 C   0  0  1  0  0  0  0  0  0  0  0  0
    0.9370    1.5560    2.2660 O   0  0  0  0  0  0  0  0  0  0  0  0
   -1.9860   -0.3700    1.3940 C   0  0  2  0  0  0  0  0  0  0  0  0
   -1.7220   -1.3830    2.3200 O   0  0  0  0  0  0  0  0  0  0  0  0
   -3.4170   -0.3980    0.9640 C   0  0  1  0  0  0  0  0  0  0  0  0
   -4.2300    0.4810    1.6410 O   0  0  0  0  0  0  0  0  0  0  0  0
   -3.4540   -0.1900   -0.5370 C   0  0  2  0  0  0  0  0  0  0  0  0
   -4.7900   -0.3260   -0.9300 O   0  0  0  0  0  0  0  0  0  0  0  0
  1  2  1  0
  3  2  1  6
  3  4  1  0
  3 22  1  0
  4  5  1  0
  5  6  1  1
  5 18  1  0
  7  6  1  1
  7  8  1  0
  7 16  1  0
  8  9  1  6
  8 11  1  0
  9 10  1  0
 11 12  1  0
 12 13  1  1
 12 14  1  0
 14 15  1  1
 14 16  1  0
 16 17  1  6
 18 19  1  1
 18 20  1  0
 20 21  1  1
 20 22  1  0
 22 23  1  6
M  END
