
     RDKit          3D

 25 26  0  0  0  0  0  0  0  0999 V2000
    6.1180    1.2860    2.2160 C   0  0  0  0  0  0  0  0  0  0  0  0
    5.8360    0.6590    0.8690 C   0  0  0  0  0  0  0  0  0  0  0  0
    6.5090    1.0970   -0.2340 C   0  0  0  0  0  0  0  0  0  0  0  0
    5.8050    0.0350   -1.5480 S   0  0  0  0  0  0  0  0  0  0  0  0
    4.6820   -0.8460   -0.3300 C   0  0  0  0  0  0  0  0  0  0  0  0
    3.8290   -1.9000   -0.9860 C   0  0  1  0  0  0  0  0  0  0  0  0
    3.8230   -3.0030   -0.1300 O   0  0  0  0  0  0  0  0  0  0  0  0
    2.4310   -1.3770   -1.2300 C   0  0  0  0  0  0  0  0  0  0  0  0
    1.6330   -0.9010    0.2770 S   0  0  1  0  0  0  0  0  0  0  0  0
    1.4910   -2.1180    1.1350 O   0  0  0  0  0  0  0  0  0  0  0  0
    2.3620    0.1590    1.0050 O   0  0  0  0  0  0  0  0  0  0  0  0
   -0.0090   -0.3010   -0.1450 C   0  0  0  0  0  0  0  0  0  0  0  0
   -0.6730    0.0960    1.1220 C   0  0  0  0  0  0  0  0  0  0  0  0
   -2.0190    0.6110    0.9770 N   0  0  0  0  0  0  0  0  0  0  0  0
   -3.0110   -0.2320    0.4170 C   0  0  0  0  0  0  0  0  0  0  0  0
   -2.6370   -1.4080    0.0790 O   0  0  0  0  0  0  0  0  0  0  0  0
   -4.3960    0.1460    0.2060 C   0  0  0  0  0  0  0  0  0  0  0  0
   -4.8130    1.4060    0.5640 C   0  0  0  0  0  0  0  0  0  0  0  0
   -6.1250    1.8580    0.3990 C   0  0  0  0  0  0  0  0  0  0  0  0
   -6.4940    3.1500    0.7810 O   0  0  0  0  0  0  0  0  0  0  0  0
   -7.0490    1.0040   -0.1480 C   0  0  0  0  0  0  0  0  0  0  0  0
   -6.6700   -0.2500   -0.5130 C   0  0  0  0  0  0  0  0  0  0  0  0
   -5.3370   -0.6880   -0.3370 C   0  0  0  0  0  0  0  0  0  0  0  0
   -5.0790   -1.9610   -0.7400 O   0  0  0  0  0  0  0  0  0  0  0  0
    4.9720   -0.3030    0.6430 N   0  0  0  0  0  0  0  0  0  0  0  0
  1  2  1  0
  2  3  2  0
  2 25  1  0
  3  4  1  0
  4  5  1  0
  5  6  1  0
  5 25  2  0
  6  7  1  1
  6  8  1  0
  9  8  1  6
  9 10  2  0
  9 11  2  0
  9 12  1  0
 12 13  1  0
 13 14  1  0
 14 15  1  0
 15 16  2  0
 15 17  1  0
 17 18  2  0
 17 23  1  0
 18 19  1  0
 19 20  1  0
 19 21  2  0
 21 22  1  0
 22 23  2  0
 23 24  1  0
M  END
