
     RDKit          3D

 25 26  0  0  0  0  0  0  0  0999 V2000
    7.7550    1.1920    0.4180 C   0  0  0  0  0  0  0  0  0  0  0  0
    6.7100    0.1930    0.5470 O   0  0  0  0  0  0  0  0  0  0  0  0
    5.4480    0.5700   -0.0010 C   0  0  0  0  0  0  0  0  0  0  0  0
    5.4050    1.6720   -0.5170 O   0  0  0  0  0  0  0  0  0  0  0  0
    4.2850   -0.3870    0.0930 C   0  0  0  0  0  0  0  0  0  0  0  0
    4.4700   -1.6230    0.7270 C   0  0  0  0  0  0  0  0  0  0  0  0
    5.7350   -2.2300    1.0900 N   0  0  0  0  0  0  0  0  0  0  0  0
    2.8860   -2.2280    0.9180 S   0  0  0  0  0  0  0  0  0  0  0  0
    1.9970   -0.8400    0.1370 C   0  0  0  0  0  0  0  0  0  0  0  0
    0.5770   -0.8520    0.1140 C   0  0  0  0  0  0  0  0  0  0  0  0
   -0.1690   -1.8960    0.6740 C   0  0  0  0  0  0  0  0  0  0  0  0
   -1.5480   -1.9220    0.6570 C   0  0  0  0  0  0  0  0  0  0  0  0
   -2.2590   -0.9150    0.0890 C   0  0  0  0  0  0  0  0  0  0  0  0
   -3.5760   -0.6760   -0.0890 O   0  0  0  0  0  0  0  0  0  0  0  0
   -4.7430   -0.5630   -0.1940 C   0  0  0  0  0  0  0  0  0  0  0  0
   -6.1610   -0.4130   -0.3320 C   0  0  0  0  0  0  0  0  0  0  0  0
   -6.6510    0.9090    0.0080 N   0  0  0  0  0  0  0  0  0  0  0  0
   -8.2880    1.2570   -0.2160 S   0  0  1  0  0  0  0  0  0  0  0  0
   -8.7520    0.8560   -1.6050 O   0  0  0  0  0  0  0  0  0  0  0  0
   -9.1600    0.6470    0.7970 O   0  0  0  0  0  0  0  0  0  0  0  0
   -1.4910    0.1680   -0.4790 C   0  0  0  0  0  0  0  0  0  0  0  0
   -2.1410    1.1990   -1.0630 O   0  0  0  0  0  0  0  0  0  0  0  0
   -0.1420    0.1690   -0.4440 C   0  0  0  0  0  0  0  0  0  0  0  0
    3.0290   -0.0560   -0.1850 C   0  0  0  0  0  0  0  0  0  0  0  0
    2.7700    1.2290   -0.9900 C   0  0  0  0  0  0  0  0  0  0  0  0
  1  2  1  0
  2  3  1  0
  3  4  2  0
  3  5  1  0
  5  6  2  0
  5 24  1  0
  6  7  1  0
  6  8  1  0
  8  9  1  0
  9 10  1  0
  9 24  2  0
 10 11  2  0
 10 23  1  0
 11 12  1  0
 12 13  2  0
 13 14  1  0
 13 21  1  0
 14 15  1  0
 15 16  1  0
 16 17  1  0
 18 17  1  1
 18 19  2  0
 18 20  2  0
 21 22  1  0
 21 23  2  0
 24 25  1  0
M  END
