
     RDKit          3D

 25 26  0  0  0  0  0  0  0  0999 V2000
   -4.0550   -0.6640   -2.3200 C   0  0  0  0  0  0  0  0  0  0  0  0
   -3.7250    0.1100   -1.0620 C   0  0  0  0  0  0  0  0  0  0  0  0
   -3.3470   -0.8360    0.0460 C   0  0  2  0  0  0  0  0  0  0  0  0
   -4.5200   -1.7680    0.3190 C   0  0  0  0  0  0  0  0  0  0  0  0
   -4.8740   -2.5210   -0.7880 O   0  0  0  0  0  0  0  0  0  0  0  0
   -3.0290   -0.1390    1.3290 C   0  0  0  0  0  0  0  0  0  0  0  0
   -1.9720    0.7650    1.2740 O   0  0  0  0  0  0  0  0  0  0  0  0
   -0.6770    0.4110    0.9260 C   0  0  0  0  0  0  0  0  0  0  0  0
   -0.5390   -0.7960    0.6640 O   0  0  0  0  0  0  0  0  0  0  0  0
    0.4480    1.3960    0.8720 C   0  0  0  0  0  0  0  0  0  0  0  0
    1.6930    0.9350    0.5140 C   0  0  0  0  0  0  0  0  0  0  0  0
    2.1170   -0.4160    0.1610 N   0  0  0  0  0  0  0  0  0  0  0  0
    3.5160   -0.5640   -0.1700 C   0  0  0  0  0  0  0  0  0  0  0  0
    4.3280    0.3880   -0.1610 O   0  0  0  0  0  0  0  0  0  0  0  0
    4.0020   -1.9120   -0.5350 C   0  0  0  0  0  0  0  0  0  0  0  0
    5.3830   -1.8540   -0.8230 O   0  0  0  0  0  0  0  0  0  0  0  0
    6.0490   -2.9950   -1.1870 C   0  0  0  0  0  0  0  0  0  0  0  0
    7.4370   -3.0020   -1.4880 N   0  0  0  0  0  0  0  0  0  0  0  0
    5.4340   -4.0970   -1.2670 O   0  0  0  0  0  0  0  0  0  0  0  0
    2.7420    2.3110    0.5520 S   0  0  0  0  0  0  0  0  0  0  0  0
    1.3970    3.5020    1.0730 C   0  0  0  0  0  0  0  0  0  0  0  0
    0.3580    2.7390    1.1510 C   0  0  0  0  0  0  0  0  0  0  0  0
   -0.8850    3.5530    1.5780 C   0  0  0  0  0  0  0  0  0  0  0  0
   -0.3880    5.2630    1.2320 S   0  0  0  0  0  0  0  0  0  0  0  0
    1.4110    4.8990    1.3400 C   0  0  0  0  0  0  0  0  0  0  0  0
  1  2  1  0
  3  2  1  6
  3  4  1  0
  3  6  1  0
  4  5  1  0
  6  7  1  0
  7  8  1  0
  8  9  2  0
  8 10  1  0
 10 11  2  0
 10 22  1  0
 11 12  1  0
 11 20  1  0
 12 13  1  0
 13 14  2  0
 13 15  1  0
 15 16  1  0
 16 17  1  0
 17 18  1  0
 17 19  2  0
 20 21  1  0
 21 22  2  0
 21 25  1  0
 22 23  1  0
 23 24  1  0
 24 25  1  0
M  END
