
     RDKit          3D

 23 23  0  0  0  0  0  0  0  0999 V2000
    4.8610   -3.0690   -0.3850 C   0  0  0  0  0  0  0  0  0  0  0  0
    4.7170   -1.5530   -0.3130 C   0  0  0  0  0  0  0  0  0  0  0  0
    4.0110   -1.2570    0.9870 C   0  0  0  0  0  0  0  0  0  0  0  0
    3.7760    0.0260    1.2880 O   0  0  0  0  0  0  0  0  0  0  0  0
    2.9990    0.8410    0.5530 C   0  0  2  0  0  0  0  0  0  0  0  0
    3.3500    1.1180   -0.8510 C   0  0  0  0  0  0  0  0  0  0  0  0
    3.0400    2.1930    1.3040 C   0  0  0  0  0  0  0  0  0  0  0  0
    4.4280    2.4990    1.3070 O   0  0  0  0  0  0  0  0  0  0  0  0
    1.5230    0.3790    0.6200 C   0  0  0  0  0  0  0  0  0  0  0  0
    0.6300    1.2230   -0.1500 C   0  0  0  0  0  0  0  0  0  0  0  0
   -0.8340    1.1210   -0.1860 C   0  0  1  0  0  0  0  0  0  0  0  0
   -1.3450    2.1020   -1.0860 O   0  0  0  0  0  0  0  0  0  0  0  0
   -1.6160   -0.0700   -0.0830 C   0  0  0  0  0  0  0  0  0  0  0  0
   -1.1200   -1.2170    0.5230 C   0  0  0  0  0  0  0  0  0  0  0  0
   -1.8900   -2.3670    0.6560 C   0  0  0  0  0  0  0  0  0  0  0  0
   -1.2680   -3.5550    1.3220 C   0  0  0  0  0  0  0  0  0  0  0  0
   -3.1610   -2.3760    0.1860 C   0  0  0  0  0  0  0  0  0  0  0  0
   -3.6490   -1.2410   -0.4110 C   0  0  0  0  0  0  0  0  0  0  0  0
   -5.0680   -1.2660   -0.9170 C   0  0  0  0  0  0  0  0  0  0  0  0
   -2.9320   -0.0700   -0.5730 C   0  0  0  0  0  0  0  0  0  0  0  0
   -3.5340    1.0920   -1.1870 C   0  0  0  0  0  0  0  0  0  0  0  0
   -4.0490    2.1000   -0.2080 C   0  0  0  0  0  0  0  0  0  0  0  0
   -4.6490    3.3100   -0.8900 C   0  0  0  0  0  0  0  0  0  0  0  0
  1  2  1  0
  2  3  1  0
  3  4  1  0
  4  5  1  0
  5  6  1  6
  5  7  1  0
  5  9  1  0
  7  8  1  0
  9 10  1  0
 10 11  1  0
 11 12  1  6
 11 13  1  0
 13 14  2  0
 13 20  1  0
 14 15  1  0
 15 16  1  0
 15 17  2  0
 17 18  1  0
 18 19  1  0
 18 20  2  0
 20 21  1  0
 21 22  1  0
 22 23  1  0
M  END
