
     RDKit          3D

 26 28  0  0  0  0  0  0  0  0999 V2000
   -2.7470    0.4980   -0.9050 O   0  0  0  0  0  0  0  0  0  0  0  0
   -3.0800   -0.3970   -0.1050 C   0  0  0  0  0  0  0  0  0  0  0  0
   -4.4950   -0.4690    0.3400 C   0  0  0  0  0  0  0  0  0  0  0  0
   -5.3440    0.3990   -0.1170 C   0  0  0  0  0  0  0  0  0  0  0  0
   -6.7780    0.5030    0.1920 C   0  0  0  0  0  0  0  0  0  0  0  0
   -7.4940    1.0370   -1.0170 C   0  0  0  0  0  0  0  0  0  0  0  0
   -6.7610    2.2630   -1.5080 C   0  0  0  0  0  0  0  0  0  0  0  0
   -5.0190    1.7220   -1.2560 S   0  0  0  0  0  0  0  0  0  0  0  0
   -2.1220   -1.3130    0.3610 N   0  0  0  0  0  0  0  0  0  0  0  0
   -0.7530   -1.3470    0.0080 C   0  0  0  0  0  0  0  0  0  0  0  0
    0.0660   -2.2050    0.7710 C   0  0  0  0  0  0  0  0  0  0  0  0
    1.4060   -2.2990    0.4770 C   0  0  0  0  0  0  0  0  0  0  0  0
    2.0050   -1.5950   -0.5330 C   0  0  0  0  0  0  0  0  0  0  0  0
    3.3300   -1.6970   -0.8100 O   0  0  0  0  0  0  0  0  0  0  0  0
    4.3530   -0.8830   -0.3820 C   0  0  0  0  0  0  0  0  0  0  0  0
    5.1550   -0.1920   -1.2920 C   0  0  0  0  0  0  0  0  0  0  0  0
    6.1660    0.6110   -0.8260 C   0  0  0  0  0  0  0  0  0  0  0  0
    6.4480    0.7840    0.5080 C   0  0  0  0  0  0  0  0  0  0  0  0
    7.7450    1.8150    1.0630 S   0  0  2  0  0  0  0  0  0  0  0  0
    8.3470    1.2570    2.3040 O   0  0  0  0  0  0  0  0  0  0  0  0
    7.1430    3.1640    1.3560 O   0  0  0  0  0  0  0  0  0  0  0  0
    5.6530    0.0990    1.3970 C   0  0  0  0  0  0  0  0  0  0  0  0
    4.6140   -0.7280    0.9560 C   0  0  0  0  0  0  0  0  0  0  0  0
    3.9000   -1.3490    1.9350 F   0  0  0  0  0  0  0  0  0  0  0  0
    1.1840   -0.7610   -1.2690 C   0  0  0  0  0  0  0  0  0  0  0  0
   -0.1850   -0.6330   -1.0060 C   0  0  0  0  0  0  0  0  0  0  0  0
  1  2  2  0
  2  3  1  0
  2  9  1  0
  3  4  2  3
  4  5  1  0
  4  8  1  0
  5  6  1  0
  6  7  1  0
  7  8  1  0
  9 10  1  0
 10 11  2  0
 10 26  1  0
 11 12  1  0
 12 13  2  0
 13 14  1  0
 13 25  1  0
 14 15  1  0
 15 16  2  0
 15 23  1  0
 16 17  1  0
 17 18  2  0
 19 18  1  1
 18 22  1  0
 19 20  2  0
 19 21  2  0
 22 23  2  0
 23 24  1  0
 25 26  2  0
M  END
