
     RDKit          3D

 26 28  0  0  0  0  0  0  0  0999 V2000
    4.9990   -2.3130   -1.0000 C   0  0  0  0  0  0  0  0  0  0  0  0
    3.5790   -2.2820   -0.6340 N   0  0  0  0  0  0  0  0  0  0  0  0
    2.9980   -1.0960   -0.0810 C   0  0  0  0  0  0  0  0  0  0  0  0
    3.7090   -0.0710    0.1030 O   0  0  0  0  0  0  0  0  0  0  0  0
    1.5460   -1.0410    0.2690 C   0  0  0  0  0  0  0  0  0  0  0  0
    0.9050   -2.0250    0.8230 C   0  0  0  0  0  0  0  0  0  0  0  0
    1.3440   -3.3630    1.4340 C   0  0  0  0  0  0  0  0  0  0  0  0
   -0.7880   -1.5490    0.8260 S   0  0  0  0  0  0  0  0  0  0  0  0
   -0.5100    0.0040    0.0520 C   0  0  0  0  0  0  0  0  0  0  0  0
   -1.8220    1.1370   -0.4550 S   0  0  0  0  0  0  0  0  0  0  0  0
   -3.4140    0.3930   -0.1880 C   0  0  0  0  0  0  0  0  0  0  0  0
   -3.9190   -0.5640   -1.0750 C   0  0  0  0  0  0  0  0  0  0  0  0
   -5.1310   -1.1560   -0.9750 C   0  0  0  0  0  0  0  0  0  0  0  0
   -5.5470   -2.0630   -1.8690 F   0  0  0  0  0  0  0  0  0  0  0  0
   -5.9480   -0.7810    0.1020 C   0  0  0  0  0  0  0  0  0  0  0  0
   -5.4850    0.1550    0.9950 C   0  0  0  0  0  0  0  0  0  0  0  0
   -4.2230    0.7520    0.8650 C   0  0  0  0  0  0  0  0  0  0  0  0
   -3.8400    1.6850    1.8050 O   0  0  0  0  0  0  0  0  0  0  0  0
    0.8180    0.0450   -0.1450 C   0  0  0  0  0  0  0  0  0  0  0  0
    1.4260    1.2110   -0.8100 C   0  0  0  0  0  0  0  0  0  0  0  0
    1.8950    0.9300   -1.9710 O   0  0  0  0  0  0  0  0  0  0  0  0
    1.5150    2.5390   -0.2790 C   0  0  0  0  0  0  0  0  0  0  0  0
    1.7430    3.6410   -1.0990 C   0  0  0  0  0  0  0  0  0  0  0  0
    1.7810    4.7630   -0.3050 C   0  0  0  0  0  0  0  0  0  0  0  0
    1.5700    4.3070    0.9810 C   0  0  0  0  0  0  0  0  0  0  0  0
    1.4210    2.9890    0.9310 O   0  0  0  0  0  0  0  0  0  0  0  0
  1  2  1  0
  2  3  1  0
  3  4  2  0
  3  5  1  0
  5  6  2  0
  5 19  1  0
  6  7  1  0
  6  8  1  0
  8  9  1  0
  9 10  1  0
  9 19  2  0
 10 11  1  0
 11 12  2  0
 11 17  1  0
 12 13  1  0
 13 14  1  0
 13 15  2  0
 15 16  1  0
 16 17  2  0
 17 18  1  0
 19 20  1  0
 20 21  2  0
 20 22  1  0
 22 23  2  0
 22 26  1  0
 23 24  1  0
 24 25  2  0
 25 26  1  0
M  END
