
     RDKit          3D

 25 27  0  0  0  0  0  0  0  0999 V2000
   -5.8250    1.7110    1.0460 C   0  0  0  0  0  0  0  0  0  0  0  0
   -5.9910    0.3110    1.0880 O   0  0  0  0  0  0  0  0  0  0  0  0
   -5.1250   -0.5590    0.4430 C   0  0  0  0  0  0  0  0  0  0  0  0
   -5.3590   -1.9130    0.5350 C   0  0  0  0  0  0  0  0  0  0  0  0
   -4.5020   -2.8110   -0.1060 C   0  0  0  0  0  0  0  0  0  0  0  0
   -3.4290   -2.3740   -0.8270 C   0  0  0  0  0  0  0  0  0  0  0  0
   -2.5750   -3.2390   -1.4640 F   0  0  0  0  0  0  0  0  0  0  0  0
   -3.1790   -1.0250   -0.9300 C   0  0  0  0  0  0  0  0  0  0  0  0
   -1.7750   -0.4640   -1.8750 S   0  0  0  0  0  0  0  0  0  0  0  0
   -0.3620   -0.3530   -0.8000 C   0  0  0  0  0  0  0  0  0  0  0  0
   -0.4740   -0.6800    0.5320 C   0  0  0  0  0  0  0  0  0  0  0  0
    0.6370   -0.5820    1.3270 C   0  0  0  0  0  0  0  0  0  0  0  0
    1.8910   -0.1620    0.8440 C   0  0  0  0  0  0  0  0  0  0  0  0
    1.9580    0.1530   -0.4820 C   0  0  0  0  0  0  0  0  0  0  0  0
    0.8670    0.0600   -1.2800 C   0  0  0  0  0  0  0  0  0  0  0  0
    3.4790    0.6970   -1.2200 S   0  0  0  0  0  0  0  0  0  0  0  0
    4.6770    0.6980    0.1000 C   0  0  0  0  0  0  0  0  0  0  0  0
    5.9210    1.0520   -0.0970 C   0  0  0  0  0  0  0  0  0  0  0  0
    6.4280    1.4720   -1.4030 C   0  0  0  0  0  0  0  0  0  0  0  0
    7.7830    1.8500   -1.5880 N   0  0  0  0  0  0  0  0  0  0  0  0
    5.5990    1.4820   -2.3680 O   0  0  0  0  0  0  0  0  0  0  0  0
    4.2230    0.2900    1.4160 C   0  0  0  0  0  0  0  0  0  0  0  0
    5.1350    0.3130    2.3260 O   0  0  0  0  0  0  0  0  0  0  0  0
    2.9430   -0.1000    1.7350 O   0  0  0  0  0  0  0  0  0  0  0  0
   -4.0350   -0.1420   -0.2910 C   0  0  0  0  0  0  0  0  0  0  0  0
  1  2  1  0
  2  3  1  0
  3  4  2  0
  3 25  1  0
  4  5  1  0
  5  6  2  0
  6  7  1  0
  6  8  1  0
  8  9  1  0
  8 25  2  0
  9 10  1  0
 10 11  2  0
 10 15  1  0
 11 12  1  0
 12 13  2  0
 13 14  1  0
 13 24  1  0
 14 15  2  0
 14 16  1  0
 16 17  1  0
 17 18  2  3
 17 22  1  0
 18 19  1  0
 19 20  1  0
 19 21  2  0
 22 23  2  0
 22 24  1  0
M  END
