
     RDKit          3D

 30 32  0  0  0  0  0  0  0  0999 V2000
    5.4840    2.7750   -0.8410 C   0  0  0  0  0  0  0  0  0  0  0  0
    4.0600    2.7470   -0.4040 C   0  0  0  0  0  0  0  0  0  0  0  0
    3.4450    1.6300   -0.0610 C   0  0  0  0  0  0  0  0  0  0  0  0
    4.1190    0.3340   -0.0850 C   0  0  0  0  0  0  0  0  0  0  0  0
    5.4230    0.2780   -0.4940 N   0  0  0  0  0  0  0  0  0  0  0  0
    6.1150   -0.8660   -0.5580 C   0  0  0  0  0  0  0  0  0  0  0  0
    5.4700   -2.0260   -0.1920 C   0  0  0  0  0  0  0  0  0  0  0  0
    4.1560   -1.9940    0.2240 C   0  0  0  0  0  0  0  0  0  0  0  0
    3.4370   -0.7960    0.2890 C   0  0  0  0  0  0  0  0  0  0  0  0
    2.0740   -0.7220    0.7870 C   0  0  0  0  0  0  0  0  0  0  0  0
    1.8950    0.0920    2.0400 C   0  0  0  0  0  0  0  0  0  0  0  0
    1.0220   -1.3150    0.2770 C   0  0  0  0  0  0  0  0  0  0  0  0
   -0.3150   -1.1570    0.8950 C   0  0  0  0  0  0  0  0  0  0  0  0
   -1.2380   -0.5560   -0.0120 N   0  0  0  0  0  0  0  0  0  0  0  0
   -1.6230    0.8190    0.3520 C   0  0  1  0  0  0  0  0  0  0  0  0
   -2.2760    1.3720   -0.9000 C   0  0  0  0  0  0  0  0  0  0  0  0
   -3.0780    2.5350   -0.6390 N   0  0  0  0  0  0  0  0  0  0  0  0
   -4.4990    2.2110   -0.5580 C   0  0  0  0  0  0  0  0  0  0  0  0
   -4.7460    0.9660    0.1960 C   0  0  0  0  0  0  0  0  0  0  0  0
   -5.9900    0.4600   -0.0950 C   0  0  0  0  0  0  0  0  0  0  0  0
   -6.4100   -0.6640    0.4820 N   0  0  0  0  0  0  0  0  0  0  0  0
   -5.6160   -1.3250    1.3660 C   0  0  0  0  0  0  0  0  0  0  0  0
   -4.3820   -0.8400    1.6670 C   0  0  0  0  0  0  0  0  0  0  0  0
   -3.9310    0.3170    1.0820 C   0  0  0  0  0  0  0  0  0  0  0  0
   -2.5640    0.7290    1.5040 C   0  0  2  0  0  0  0  0  0  0  0  0
   -2.6250    1.9090    2.2500 O   0  0  0  0  0  0  0  0  0  0  0  0
    1.1380   -2.0900   -0.9410 C   0  0  0  0  0  0  0  0  0  0  0  0
    2.2140   -2.2120   -1.6100 O   0  0  0  0  0  0  0  0  0  0  0  0
    0.0360   -2.8130   -1.5270 N   0  0  0  0  0  0  0  0  0  0  0  0
    0.2040   -3.5670   -2.7480 C   0  0  0  0  0  0  0  0  0  0  0  0
  1  2  1  0
  2  3  2  3
  3  4  1  0
  4  5  2  0
  4  9  1  0
  5  6  1  0
  6  7  2  0
  7  8  1  0
  8  9  2  0
  9 10  1  0
 10 11  1  0
 10 12  2  3
 12 13  1  0
 12 27  1  0
 13 14  1  0
 15 14  1  6
 15 16  1  0
 15 25  1  0
 16 17  1  0
 17 18  1  0
 18 19  1  0
 19 20  2  0
 19 24  1  0
 20 21  1  0
 21 22  2  0
 22 23  1  0
 23 24  2  0
 24 25  1  0
 25 26  1  6
 27 28  2  0
 27 29  1  0
 29 30  1  0
M  CHG  2  14   1  17   1
M  END
