
     RDKit          3D

 29 31  0  0  0  0  0  0  0  0999 V2000
   -4.6530   -2.0530    2.0630 O   0  0  0  0  0  0  0  0  0  0  0  0
   -4.1330   -2.0740    0.8730 C   0  0  0  0  0  0  0  0  0  0  0  0
   -4.0040   -3.4140    0.3060 C   0  0  0  0  0  0  0  0  0  0  0  0
   -3.1910   -3.5660   -1.2730 S   0  0  0  0  0  0  0  0  0  0  0  0
   -3.7670   -0.8540    0.2900 N   0  0  0  0  0  0  0  0  0  0  0  0
   -3.2290   -0.6930   -1.0190 C   0  0  0  0  0  0  0  0  0  0  0  0
   -1.7540   -0.7850   -1.0500 C   0  0  0  0  0  0  0  0  0  0  0  0
   -0.9940   -0.9990   -2.1710 C   0  0  0  0  0  0  0  0  0  0  0  0
    0.3300   -1.0170   -1.8470 N   0  0  0  0  0  0  0  0  0  0  0  0
    1.4470   -1.1870   -2.5870 C   0  0  0  0  0  0  0  0  0  0  0  0
    2.6760   -1.1460   -1.9490 C   0  0  0  0  0  0  0  0  0  0  0  0
    2.8060   -0.9430   -0.6080 C   0  0  0  0  0  0  0  0  0  0  0  0
    4.0160   -0.9010    0.0210 O   0  0  0  0  0  0  0  0  0  0  0  0
    4.5640    0.2600    0.4940 C   0  0  0  0  0  0  0  0  0  0  0  0
    4.7540    0.3590    1.8860 C   0  0  0  0  0  0  0  0  0  0  0  0
    5.2880    1.4540    2.4980 C   0  0  0  0  0  0  0  0  0  0  0  0
    5.6650    2.5270    1.7170 C   0  0  0  0  0  0  0  0  0  0  0  0
    6.2050    3.6470    2.3010 F   0  0  0  0  0  0  0  0  0  0  0  0
    5.4980    2.4670    0.3630 C   0  0  0  0  0  0  0  0  0  0  0  0
    4.9420    1.3210   -0.2560 C   0  0  0  0  0  0  0  0  0  0  0  0
    4.8450    1.4130   -1.6050 O   0  0  0  0  0  0  0  0  0  0  0  0
    1.6050   -0.7750    0.0990 C   0  0  0  0  0  0  0  0  0  0  0  0
    0.3730   -0.8130   -0.5200 C   0  0  0  0  0  0  0  0  0  0  0  0
   -0.8910   -0.6710   -0.0270 N   0  0  0  0  0  0  0  0  0  0  0  0
   -3.9180    0.3300    1.1110 C   0  0  0  0  0  0  0  0  0  0  0  0
   -4.4230    0.2250    2.2820 O   0  0  0  0  0  0  0  0  0  0  0  0
   -3.5310    1.6050    0.6800 N   0  0  0  0  0  0  0  0  0  0  0  0
   -3.7190    2.7520    1.5760 C   0  0  0  0  0  0  0  0  0  0  0  0
   -3.2730    3.9190    0.9680 O   0  0  0  0  0  0  0  0  0  0  0  0
  1  2  2  0
  2  3  1  0
  2  5  1  0
  3  4  1  0
  5  6  1  0
  5 25  1  0
  6  7  1  0
  7  8  2  0
  7 24  1  0
  8  9  1  0
  9 10  1  0
  9 23  1  0
 10 11  2  0
 11 12  1  0
 12 13  1  0
 12 22  2  0
 13 14  1  0
 14 15  2  0
 14 20  1  0
 15 16  1  0
 16 17  2  0
 17 18  1  0
 17 19  1  0
 19 20  2  0
 20 21  1  0
 22 23  1  0
 23 24  2  0
 25 26  2  0
 25 27  1  0
 27 28  1  0
 28 29  1  0
M  END
