
     RDKit          3D

 30 32  0  0  0  0  0  0  0  0999 V2000
   -4.7980    3.7760   -0.2120 C   0  0  0  0  0  0  0  0  0  0  0  0
   -4.3410    2.4320   -0.6240 C   0  0  0  0  0  0  0  0  0  0  0  0
   -5.1510    1.4260   -0.6120 N   0  0  0  0  0  0  0  0  0  0  0  0
   -3.0150    2.1760   -1.0530 N   0  0  0  0  0  0  0  0  0  0  0  0
   -2.2590    0.9960   -0.7300 C   0  0  0  0  0  0  0  0  0  0  0  0
   -1.8480    0.8890    0.7140 C   0  0  2  0  0  0  0  0  0  0  0  0
   -3.0720    0.8520    1.5920 C   0  0  0  0  0  0  0  0  0  0  0  0
   -1.1040    2.1850    1.1210 C   0  0  0  0  0  0  0  0  0  0  0  0
   -0.9270   -0.2670    0.9650 C   0  0  2  0  0  0  0  0  0  0  0  0
    0.2970   -0.1960    0.2220 N   0  0  0  0  0  0  0  0  0  0  0  0
    1.5860   -0.1320    0.8500 C   0  0  0  0  0  0  0  0  0  0  0  0
    1.6000   -0.1430    2.1000 O   0  0  0  0  0  0  0  0  0  0  0  0
    2.8370   -0.0560    0.1260 C   0  0  0  0  0  0  0  0  0  0  0  0
    2.9610   -0.2000   -1.2380 C   0  0  0  0  0  0  0  0  0  0  0  0
    4.1940   -0.1010   -1.8430 C   0  0  0  0  0  0  0  0  0  0  0  0
    5.3570    0.1470   -1.1050 C   0  0  0  0  0  0  0  0  0  0  0  0
    5.2320    0.2900    0.2550 C   0  0  0  0  0  0  0  0  0  0  0  0
    3.9870    0.1870    0.8380 C   0  0  0  0  0  0  0  0  0  0  0  0
    6.3770    0.5550    1.0500 N   0  0  0  0  0  0  0  0  0  0  0  0
    7.6260    0.6620    0.3820 C   0  0  0  0  0  0  0  0  0  0  0  0
    8.7060    0.3850    0.9580 O   0  0  0  0  0  0  0  0  0  0  0  0
    7.5510    1.1240   -1.0380 C   0  0  0  0  0  0  0  0  0  0  0  0
    6.6170    0.2450   -1.7100 N   0  0  0  0  0  0  0  0  0  0  0  0
   -1.6350   -1.5330    0.6540 C   0  0  0  0  0  0  0  0  0  0  0  0
   -1.6770   -2.0060   -0.6380 C   0  0  0  0  0  0  0  0  0  0  0  0
   -2.3350   -3.1700   -0.9580 C   0  0  0  0  0  0  0  0  0  0  0  0
   -2.9890   -3.9210    0.0200 C   0  0  0  0  0  0  0  0  0  0  0  0
   -3.7010   -5.1750   -0.3090 C   0  0  0  0  0  0  0  0  0  0  0  0
   -2.9260   -3.4180    1.3030 C   0  0  0  0  0  0  0  0  0  0  0  0
   -2.2800   -2.2680    1.6360 C   0  0  0  0  0  0  0  0  0  0  0  0
  1  2  1  0
  2  3  2  0
  2  4  1  0
  4  5  1  0
  5  6  1  0
  6  7  1  1
  6  8  1  0
  6  9  1  0
  9 10  1  6
  9 24  1  0
 10 11  1  0
 11 12  2  0
 11 13  1  0
 13 14  2  0
 13 18  1  0
 14 15  1  0
 15 16  2  0
 16 17  1  0
 16 23  1  0
 17 18  2  0
 17 19  1  0
 19 20  1  0
 20 21  2  0
 20 22  1  0
 22 23  1  0
 24 25  2  0
 24 30  1  0
 25 26  1  0
 26 27  2  0
 27 28  1  0
 27 29  1  0
 29 30  2  0
M  CHG  2   3   1  23   1
M  END
