
     RDKit          3D

 30 32  0  0  0  0  0  0  0  0999 V2000
   -6.7000   -0.7810   -3.3080 C   0  0  0  0  0  0  0  0  0  0  0  0
   -5.7380   -0.0720   -4.2870 C   0  0  0  0  0  0  0  0  0  0  0  0
   -4.3660   -0.3720   -3.7480 C   0  0  0  0  0  0  0  0  0  0  0  0
   -3.3000   -0.6170   -3.3480 C   0  0  0  0  0  0  0  0  0  0  0  0
   -1.9950   -0.8930   -2.8610 C   0  0  0  0  0  0  0  0  0  0  0  0
   -0.9660   -1.1770   -3.6970 N   0  0  0  0  0  0  0  0  0  0  0  0
    0.2430   -1.3780   -3.2230 C   0  0  0  0  0  0  0  0  0  0  0  0
    0.5240   -1.3110   -1.8510 C   0  0  0  0  0  0  0  0  0  0  0  0
   -0.5190   -1.0100   -0.9780 C   0  0  0  0  0  0  0  0  0  0  0  0
   -0.2610   -0.8010    0.4270 N   0  0  0  0  0  0  0  0  0  0  0  0
    1.0520   -0.4730    0.8520 C   0  0  0  0  0  0  0  0  0  0  0  0
    1.9410   -0.4300   -0.1100 O   0  0  0  0  0  0  0  0  0  0  0  0
    1.5530   -0.1850    2.1670 C   0  0  0  0  0  0  0  0  0  0  0  0
    2.9920   -0.6040    2.3880 C   0  0  0  0  0  0  0  0  0  0  0  0
    3.9750   -0.1630    1.4980 N   0  0  0  0  0  0  0  0  0  0  0  0
    5.1660    0.4560    1.9310 C   0  0  2  0  0  0  0  0  0  0  0  0
    6.3120   -0.0750    1.0070 C   0  0  0  0  0  0  0  0  0  0  0  0
    7.4840    0.8440    1.1220 C   0  0  0  0  0  0  0  0  0  0  0  0
    7.3240    1.6160    2.2890 O   0  0  0  0  0  0  0  0  0  0  0  0
    7.0220    0.9220    3.4160 C   0  0  0  0  0  0  0  0  0  0  0  0
    5.6770    0.1860    3.3040 C   0  0  0  0  0  0  0  0  0  0  0  0
   -1.7600   -0.8200   -1.4830 C   0  0  0  0  0  0  0  0  0  0  0  0
   -2.9260   -0.7000   -0.6150 C   0  0  0  0  0  0  0  0  0  0  0  0
   -3.6680    0.5220   -0.4800 C   0  0  0  0  0  0  0  0  0  0  0  0
   -3.3490    1.7150   -1.0360 C   0  0  0  0  0  0  0  0  0  0  0  0
   -4.1420    2.8610   -0.8370 C   0  0  0  0  0  0  0  0  0  0  0  0
   -5.2510    2.7340   -0.0600 N   0  0  0  0  0  0  0  0  0  0  0  0
   -5.5720    1.5670    0.4840 C   0  0  0  0  0  0  0  0  0  0  0  0
   -4.8330    0.4560    0.3150 C   0  0  0  0  0  0  0  0  0  0  0  0
   -5.1340   -0.8360    0.9340 N   0  0  0  0  0  0  0  0  0  0  0  0
  1  2  1  0
  2  3  1  0
  3  4  3  0
  4  5  1  0
  5  6  2  0
  5 22  1  0
  6  7  1  0
  7  8  2  0
  8  9  1  0
  9 10  1  0
  9 22  2  0
 10 11  1  0
 11 12  2  0
 11 13  1  0
 13 14  1  0
 14 15  1  0
 16 15  1  6
 16 17  1  0
 16 21  1  0
 17 18  1  0
 18 19  1  0
 19 20  1  0
 20 21  1  0
 22 23  1  0
 23 24  1  0
 24 25  2  0
 24 29  1  0
 25 26  1  0
 26 27  2  0
 27 28  1  0
 28 29  2  0
 29 30  1  0
M  CHG  2  15   1  27   1
M  END
