
     RDKit          3D

 12 12  0  0  0  0  0  0  0  0999 V2000
    2.3650    0.9790   -0.6360 O   0  0  0  0  0  0  0  0  0  0  0  0
    2.1510   -0.2020    0.0420 C   0  0  0  0  0  0  0  0  0  0  0  0
    0.8850   -0.0490    0.8510 C   0  0  1  0  0  0  0  0  0  0  0  0
    0.6170   -1.2070    1.5570 O   0  0  0  0  0  0  0  0  0  0  0  0
    1.1020    0.9890    1.7560 O   0  0  0  0  0  0  0  0  0  0  0  0
   -0.2380    0.3680   -0.0540 C   0  0  1  0  0  0  0  0  0  0  0  0
    0.1490    1.5370   -0.7040 O   0  0  0  0  0  0  0  0  0  0  0  0
   -0.6160   -0.6980   -1.0520 C   0  0  0  0  0  0  0  0  0  0  0  0
   -1.8170   -1.3310   -0.4280 C   0  0  0  0  0  0  0  0  0  0  0  0
   -2.1970   -0.5970    0.6600 O   0  0  0  0  0  0  0  0  0  0  0  0
   -1.5270    0.6050    0.6540 C   0  0  2  0  0  0  0  0  0  0  0  0
   -2.2870    1.4870   -0.1490 O   0  0  0  0  0  0  0  0  0  0  0  0
  1  2  1  0
  2  3  1  0
  3  4  1  1
  3  5  1  0
  3  6  1  0
  6  7  1  6
  6  8  1  0
  6 11  1  0
  8  9  1  0
  9 10  1  0
 10 11  1  0
 11 12  1  6
M  END
