
     RDKit          3D

 13 12  0  0  0  0  0  0  0  0999 V2000
   -2.3400    1.8710    0.1460 C   0  0  0  0  0  0  0  0  0  0  0  0
   -1.1070    1.3040   -0.1130 O   0  0  0  0  0  0  0  0  0  0  0  0
   -1.1800    0.0310   -0.6010 C   0  0  1  0  0  0  0  0  0  0  0  0
   -0.6860   -0.0460   -1.9140 O   0  0  0  0  0  0  0  0  0  0  0  0
   -0.4520   -0.9230    0.3010 C   0  0  1  0  0  0  0  0  0  0  0  0
   -0.9440   -0.9490    1.6090 O   0  0  0  0  0  0  0  0  0  0  0  0
   -0.7000   -2.3500   -0.2920 C   0  0  0  0  0  0  0  0  0  0  0  0
   -0.2450   -2.4210   -1.5830 O   0  0  0  0  0  0  0  0  0  0  0  0
    0.9010   -0.7400    0.2660 O   0  0  0  0  0  0  0  0  0  0  0  0
    1.4200    0.3810    0.8300 C   0  0  1  0  0  0  0  0  0  0  0  0
    2.3740    0.0970    1.8260 O   0  0  0  0  0  0  0  0  0  0  0  0
    2.1560    1.1780   -0.2330 C   0  0  0  0  0  0  0  0  0  0  0  0
    3.1730    0.3210   -0.7110 O   0  0  0  0  0  0  0  0  0  0  0  0
  1  2  1  0
  2  3  1  0
  3  4  1  6
  3  5  1  0
  5  6  1  1
  5  7  1  0
  5  9  1  0
  7  8  1  0
  9 10  1  0
 10 11  1  1
 10 12  1  0
 12 13  1  0
M  END
