
     RDKit          3D

 12 11  0  0  0  0  0  0  0  0999 V2000
   -3.1790    0.0660    0.7960 C   0  0  0  0  0  0  0  0  0  0  0  0
   -2.4690   -0.2570   -0.5060 C   0  0  1  0  0  0  0  0  0  0  0  0
   -3.2590    0.1480   -1.5920 O   0  0  0  0  0  0  0  0  0  0  0  0
   -1.1810    0.5390   -0.5350 C   0  0  1  0  0  0  0  0  0  0  0  0
   -1.5180    1.8770   -0.4330 O   0  0  0  0  0  0  0  0  0  0  0  0
   -0.3510    0.1070    0.4960 O   0  0  0  0  0  0  0  0  0  0  0  0
    0.8380   -0.4180    0.0410 C   0  0  2  0  0  0  0  0  0  0  0  0
    1.0840   -1.7030    0.4590 O   0  0  0  0  0  0  0  0  0  0  0  0
    2.0200    0.4430    0.4920 C   0  0  1  0  0  0  0  0  0  0  0  0
    2.0050    0.4570    1.8750 O   0  0  0  0  0  0  0  0  0  0  0  0
    3.2670   -0.2430    0.0090 C   0  0  0  0  0  0  0  0  0  0  0  0
    3.3130   -0.2740   -1.3850 O   0  0  0  0  0  0  0  0  0  0  0  0
  2  1  1  1
  2  3  1  0
  2  4  1  0
  4  5  1  1
  4  6  1  0
  6  7  1  0
  7  8  1  1
  7  9  1  0
  9 10  1  1
  9 11  1  0
 11 12  1  0
M  END
