
     RDKit          3D

 12 11  0  0  0  0  0  0  0  0999 V2000
   -2.8620   -1.1840    1.6270 C   0  0  0  0  0  0  0  0  0  0  0  0
   -2.0460   -1.0770    0.5090 O   0  0  0  0  0  0  0  0  0  0  0  0
   -2.1530    0.1310   -0.1340 C   0  0  2  0  0  0  0  0  0  0  0  0
   -2.4010   -0.1050   -1.5020 O   0  0  0  0  0  0  0  0  0  0  0  0
   -0.7630    0.7900   -0.0790 C   0  0  2  0  0  0  0  0  0  0  0  0
   -0.8140    2.0260   -0.7210 O   0  0  0  0  0  0  0  0  0  0  0  0
    0.1910   -0.1480   -0.7640 C   0  0  0  0  0  0  0  0  0  0  0  0
    1.4590    0.3480   -0.7960 O   0  0  0  0  0  0  0  0  0  0  0  0
    2.0140    0.5450    0.4490 C   0  0  2  0  0  0  0  0  0  0  0  0
    2.3390    1.9060    0.5390 O   0  0  0  0  0  0  0  0  0  0  0  0
    3.3340   -0.2340    0.4900 C   0  0  0  0  0  0  0  0  0  0  0  0
    3.0140   -1.5620    0.2720 O   0  0  0  0  0  0  0  0  0  0  0  0
  1  2  1  0
  2  3  1  0
  3  4  1  6
  3  5  1  0
  5  6  1  6
  5  7  1  0
  7  8  1  0
  8  9  1  0
  9 10  1  6
  9 11  1  0
 11 12  1  0
M  END
