
     RDKit          3D

 13 12  0  0  0  0  0  0  0  0999 V2000
   -3.5770   -2.1090   -1.1010 O   0  0  0  0  0  0  0  0  0  0  0  0
   -2.2740   -1.6710   -0.9060 C   0  0  0  0  0  0  0  0  0  0  0  0
   -2.2300   -0.5700    0.1400 C   0  0  1  0  0  0  0  0  0  0  0  0
   -2.7390   -1.1230    1.3200 O   0  0  0  0  0  0  0  0  0  0  0  0
   -0.9490   -0.1480    0.4000 O   0  0  0  0  0  0  0  0  0  0  0  0
   -0.8060    1.2030    0.1970 C   0  0  0  0  0  0  0  0  0  0  0  0
    0.5870    1.7010    0.4730 C   0  0  2  0  0  0  0  0  0  0  0  0
    0.5820    3.0770    0.2280 O   0  0  0  0  0  0  0  0  0  0  0  0
    1.5460    1.1600   -0.3730 O   0  0  0  0  0  0  0  0  0  0  0  0
    2.5100    0.5220    0.3690 C   0  0  2  0  0  0  0  0  0  0  0  0
    3.7400    1.1990    0.1850 O   0  0  0  0  0  0  0  0  0  0  0  0
    2.7670   -0.9020   -0.0080 C   0  0  0  0  0  0  0  0  0  0  0  0
    1.6840   -1.7430    0.1010 O   0  0  0  0  0  0  0  0  0  0  0  0
  1  2  1  0
  2  3  1  0
  3  4  1  1
  3  5  1  0
  5  6  1  0
  6  7  1  0
  7  8  1  6
  7  9  1  0
  9 10  1  0
 10 11  1  6
 10 12  1  0
 12 13  1  0
M  END
