
     RDKit          3D

 12 11  0  0  0  0  0  0  0  0999 V2000
   -1.0560    1.7980    1.5680 C   0  0  0  0  0  0  0  0  0  0  0  0
   -0.9630    1.6030    0.1950 O   0  0  0  0  0  0  0  0  0  0  0  0
   -0.3930    0.3760   -0.1360 C   0  0  2  0  0  0  0  0  0  0  0  0
    0.7640    0.6590   -0.8550 O   0  0  0  0  0  0  0  0  0  0  0  0
    1.9100    0.2040   -0.2170 C   0  0  2  0  0  0  0  0  0  0  0  0
    2.8550    1.1940   -0.0340 O   0  0  0  0  0  0  0  0  0  0  0  0
    2.5620   -0.8920   -1.0440 C   0  0  0  0  0  0  0  0  0  0  0  0
    3.7150   -1.3070   -0.3430 O   0  0  0  0  0  0  0  0  0  0  0  0
   -1.3940   -0.3930   -0.9730 C   0  0  2  0  0  0  0  0  0  0  0  0
   -1.6900    0.3290   -2.1190 O   0  0  0  0  0  0  0  0  0  0  0  0
   -2.6500   -0.6960   -0.1920 C   0  0  0  0  0  0  0  0  0  0  0  0
   -2.2640   -1.4320    0.9450 O   0  0  0  0  0  0  0  0  0  0  0  0
  1  2  1  0
  3  2  1  6
  3  4  1  0
  3  9  1  0
  4  5  1  0
  5  6  1  6
  5  7  1  0
  7  8  1  0
  9 10  1  6
  9 11  1  0
 11 12  1  0
M  END
