
     RDKit          3D

 18 18  0  0  0  0  0  0  0  0999 V2000
    4.7610   -2.0380    0.4480 C   0  0  0  0  0  0  0  0  0  0  0  0
    3.3040   -2.3090    0.6760 C   0  0  0  0  0  0  0  0  0  0  0  0
    2.5780   -1.1730    1.1840 N   0  0  0  0  0  0  0  0  0  0  0  0
    2.3390   -0.0020    0.4200 C   0  0  0  0  0  0  0  0  0  0  0  0
    1.2310    0.0650   -0.3170 C   0  0  0  0  0  0  0  0  0  0  0  0
    0.2070   -1.3480   -0.2260 S   0  0  0  0  0  0  0  0  0  0  0  0
    0.3950   -2.2960   -1.4060 O   0  0  0  0  0  0  0  0  0  0  0  0
   -1.4380   -1.0880    0.1310 N   0  0  0  0  0  0  0  0  0  0  0  0
   -1.9820    0.1190   -0.3770 C   0  0  0  0  0  0  0  0  0  0  0  0
   -3.4650    0.2800    0.0010 C   0  0  1  0  0  0  0  0  0  0  0  0
   -3.9000    1.5990   -0.6000 C   0  0  0  0  0  0  0  0  0  0  0  0
   -4.2140   -0.8450   -0.6690 C   0  0  0  0  0  0  0  0  0  0  0  0
   -3.6700    0.2630    1.4920 C   0  0  0  0  0  0  0  0  0  0  0  0
    0.8280    1.1840   -1.1520 C   0  0  0  0  0  0  0  0  0  0  0  0
    1.2850    2.4070   -1.1670 N   0  0  0  0  0  0  0  0  0  0  0  0
    2.3060    3.0080   -0.3780 C   0  0  0  0  0  0  0  0  0  0  0  0
    3.2050    2.3940    0.3700 C   0  0  0  0  0  0  0  0  0  0  0  0
    3.3790    0.9810    0.5760 N   0  0  0  0  0  0  0  0  0  0  0  0
  1  2  1  0
  2  3  1  0
  3  4  1  0
  4  5  2  0
  4 18  1  0
  5  6  1  0
  5 14  1  0
  6  7  2  0
  6  8  1  6
  8  9  1  0
  9 10  1  0
 10 11  1  6
 10 12  1  0
 10 13  1  0
 14 15  2  0
 15 16  1  0
 16 17  2  0
 17 18  1  0
M  END
