
     RDKit          3D

  9  8  0  0  0  0  0  0  0  0999 V2000
   -2.5260    0.2660    1.0060 C   0  0  0  0  0  0  0  0  0  0  0  0
   -1.9300   -0.1790   -0.0710 C   0  0  0  0  0  0  0  0  0  0  0  0
   -2.5650   -0.0240   -1.2930 O   0  0  0  0  0  0  0  0  0  0  0  0
   -0.6080   -0.8410   -0.0530 C   0  0  1  0  0  0  0  0  0  0  0  0
   -0.7400   -2.1350   -0.5670 O   0  0  0  0  0  0  0  0  0  0  0  0
    0.3250   -0.0990   -0.7360 O   0  0  0  0  0  0  0  0  0  0  0  0
    1.3310    0.2930    0.1230 C   0  0  0  0  0  0  0  0  0  0  0  0
    2.3930    1.1190   -0.5800 C   0  0  0  0  0  0  0  0  0  0  0  0
    3.3670    1.4750    0.3420 O   0  0  0  0  0  0  0  0  0  0  0  0
  1  2  2  0
  2  3  1  0
  2  4  1  0
  4  5  1  6
  4  6  1  0
  6  7  1  0
  7  8  1  0
  8  9  1  0
M  END
