
     RDKit          3D

 18 19  0  0  0  0  0  0  0  0999 V2000
    4.2920   -0.3410   -0.1720 C   0  0  0  0  0  0  0  0  0  0  0  0
    3.9660   -1.5980    0.2960 O   0  0  0  0  0  0  0  0  0  0  0  0
    3.1340   -1.5550    1.4080 C   0  0  0  0  0  0  0  0  0  0  0  0
    1.8620   -0.8620    1.0780 C   0  0  0  0  0  0  0  0  0  0  0  0
    1.7680    0.4590    1.2430 N   0  0  0  0  0  0  0  0  0  0  0  0
    0.6440    1.1760    0.9660 C   0  0  0  0  0  0  0  0  0  0  0  0
    0.7180    2.5620    1.2300 N   0  0  0  0  0  0  0  0  0  0  0  0
   -0.4290    0.5340    0.5010 C   0  0  0  0  0  0  0  0  0  0  0  0
   -0.3460   -0.8570    0.3230 C   0  0  0  0  0  0  0  0  0  0  0  0
    0.7830   -1.5120    0.6120 N   0  0  0  0  0  0  0  0  0  0  0  0
   -1.5110   -1.5970   -0.1540 C   0  0  1  0  0  0  0  0  0  0  0  0
   -1.4780   -1.6310   -1.6630 C   0  0  0  0  0  0  0  0  0  0  0  0
   -1.3510   -3.0590    0.2930 C   0  0  0  0  0  0  0  0  0  0  0  0
   -2.7730   -1.0820    0.2540 N   0  0  0  0  0  0  0  0  0  0  0  0
   -2.8610    0.2690    0.6670 C   0  0  0  0  0  0  0  0  0  0  0  0
   -1.7100    1.1200    0.1450 C   0  0  1  0  0  0  0  0  0  0  0  0
   -1.9670    2.8130    0.5630 S   0  0  0  0  0  0  0  0  0  0  0  0
   -1.0880    4.0290   -0.4020 C   0  0  0  0  0  0  0  0  0  0  0  0
  1  2  1  0
  2  3  1  0
  3  4  1  0
  4  5  2  0
  4 10  1  0
  5  6  1  0
  6  7  1  0
  6  8  2  0
  8  9  1  0
  8 16  1  0
  9 10  2  0
  9 11  1  0
 11 12  1  6
 11 13  1  0
 11 14  1  0
 14 15  1  0
 15 16  1  0
 16 17  1  1
 17 18  1  0
M  END
