
     RDKit          3D

 18 19  0  0  0  0  0  0  0  0999 V2000
    2.7110   -0.9120    1.9340 C   0  0  0  0  0  0  0  0  0  0  0  0
    3.2130   -0.9180    0.5100 C   0  0  0  0  0  0  0  0  0  0  0  0
    2.8280    0.0390   -0.2810 C   0  0  0  0  0  0  0  0  0  0  0  0
    1.9560    1.0850    0.1240 N   0  0  0  0  0  0  0  0  0  0  0  0
    2.3580    2.1500    0.8900 C   0  0  0  0  0  0  0  0  0  0  0  0
    1.3500    2.9910    1.0980 N   0  0  0  0  0  0  0  0  0  0  0  0
    0.2560    2.5130    0.4830 C   0  0  0  0  0  0  0  0  0  0  0  0
   -1.0360    3.0970    0.4630 N   0  0  0  0  0  0  0  0  0  0  0  0
    0.6700    1.3120   -0.1210 C   0  0  0  0  0  0  0  0  0  0  0  0
   -0.2840    0.4870   -0.9350 C   0  0  1  0  0  0  0  0  0  0  0  0
    0.2580   -0.8900   -1.0420 C   0  0  0  0  0  0  0  0  0  0  0  0
   -1.5560    0.5940   -0.3620 N   0  0  0  0  0  0  0  0  0  0  0  0
   -2.6690   -0.0910   -0.8820 C   0  0  1  0  0  0  0  0  0  0  0  0
   -2.7360   -1.5360   -0.4770 C   0  0  0  0  0  0  0  0  0  0  0  0
   -3.7150   -1.0660    0.6380 C   0  0  0  0  0  0  0  0  0  0  0  0
   -3.9730    0.1440   -0.2020 C   0  0  0  0  0  0  0  0  0  0  0  0
    4.2880   -2.2200   -0.0100 S   0  0  0  0  0  0  0  0  0  0  0  0
    4.3560   -3.2830    1.0680 O   0  0  0  0  0  0  0  0  0  0  0  0
  1  2  1  0
  2  3  2  3
  2 17  1  0
  3  4  1  0
  4  5  1  0
  4  9  1  0
  5  6  2  0
  6  7  1  0
  7  8  1  0
  7  9  2  0
  9 10  1  0
 10 11  1  1
 10 12  1  0
 13 12  1  1
 13 14  1  0
 13 16  1  0
 14 15  1  0
 15 16  1  0
 17 18  2  0
M  END
