
     RDKit          3D

 18 19  0  0  0  0  0  0  0  0999 V2000
    2.4930   -2.2510    0.2770 O   0  0  0  0  0  0  0  0  0  0  0  0
    2.2920   -1.1420   -0.2500 C   0  0  0  0  0  0  0  0  0  0  0  0
    0.9390   -0.8050   -0.5380 N   0  0  0  0  0  0  0  0  0  0  0  0
   -0.1230   -1.6640   -0.2510 N   0  0  0  0  0  0  0  0  0  0  0  0
   -1.4820   -1.2610   -0.4210 C   0  0  0  0  0  0  0  0  0  0  0  0
   -1.8660   -0.1320    0.0930 C   0  0  0  0  0  0  0  0  0  0  0  0
   -3.2040    0.3850   -0.0070 C   0  0  0  0  0  0  0  0  0  0  0  0
   -3.5400    1.5700    0.5500 C   0  0  0  0  0  0  0  0  0  0  0  0
   -4.9130    2.1170    0.4560 C   0  0  0  0  0  0  0  0  0  0  0  0
   -5.9140    1.1900    1.1270 C   0  0  0  0  0  0  0  0  0  0  0  0
   -5.6780   -0.4880    0.4460 S   0  0  0  0  0  0  0  0  0  0  0  0
   -4.2650   -0.3550   -0.7210 C   0  0  0  0  0  0  0  0  0  0  0  0
    3.3830   -0.3060   -0.5230 N   0  0  0  0  0  0  0  0  0  0  0  0
    4.7400   -0.6160   -0.2480 C   0  0  0  0  0  0  0  0  0  0  0  0
    5.2750   -1.7500    0.3190 C   0  0  0  0  0  0  0  0  0  0  0  0
    6.6590   -1.6440    0.4110 C   0  0  0  0  0  0  0  0  0  0  0  0
    6.9570   -0.4380   -0.1030 N   0  0  0  0  0  0  0  0  0  0  0  0
    5.8280    0.1940   -0.5040 C   0  0  0  0  0  0  0  0  0  0  0  0
  1  2  2  0
  2  3  1  0
  2 13  1  0
  3  4  1  0
  4  5  1  0
  5  6  2  3
  6  7  1  0
  7  8  2  0
  7 12  1  0
  8  9  1  0
  9 10  1  0
 10 11  1  0
 11 12  1  0
 13 14  1  0
 14 15  1  0
 14 18  2  0
 15 16  2  0
 16 17  1  0
 17 18  1  0
M  END
