
     RDKit          3D

 14 15  0  0  0  0  0  0  0  0999 V2000
   -3.8830   -1.5320    0.0080 C   0  0  0  0  0  0  0  0  0  0  0  0
   -2.5840   -1.5310   -0.2280 C   0  0  0  0  0  0  0  0  0  0  0  0
   -1.7130   -2.6400   -0.6740 C   0  0  0  0  0  0  0  0  0  0  0  0
   -0.4440   -2.2260   -0.1610 O   0  0  0  0  0  0  0  0  0  0  0  0
   -0.3870   -0.8600   -0.0570 C   0  0  0  0  0  0  0  0  0  0  0  0
    0.7030   -0.0100    0.0660 C   0  0  0  0  0  0  0  0  0  0  0  0
    1.9920   -0.5230    0.1000 O   0  0  0  0  0  0  0  0  0  0  0  0
    3.0720    0.3940    0.2270 C   0  0  0  0  0  0  0  0  0  0  0  0
    4.3860   -0.3450    0.2450 C   0  0  0  0  0  0  0  0  0  0  0  0
    0.4550    1.3450    0.1520 C   0  0  0  0  0  0  0  0  0  0  0  0
   -0.8180    1.8680    0.1200 C   0  0  0  0  0  0  0  0  0  0  0  0
   -1.0110    3.2670    0.2120 N   0  0  0  0  0  0  0  0  0  0  0  0
   -1.8750    0.9790   -0.0040 C   0  0  0  0  0  0  0  0  0  0  0  0
   -1.6820   -0.3760   -0.0930 C   0  0  0  0  0  0  0  0  0  0  0  0
  1  2  2  0
  2  3  1  0
  2 14  1  0
  3  4  1  0
  4  5  1  0
  5  6  2  0
  5 14  1  0
  6  7  1  0
  6 10  1  0
  7  8  1  0
  8  9  1  0
 10 11  2  0
 11 12  1  0
 11 13  1  0
 13 14  2  0
M  END
