
     RDKit          3D

 14 14  0  0  0  0  0  0  0  0999 V2000
   -2.7940    0.1340   -1.7980 C   0  0  0  0  0  0  0  0  0  0  0  0
   -3.2880   -0.2320   -0.6430 C   0  0  0  0  0  0  0  0  0  0  0  0
   -2.5090    0.0120    0.5670 C   0  0  0  0  0  0  0  0  0  0  0  0
   -3.0350   -0.3680    1.7170 C   0  0  0  0  0  0  0  0  0  0  0  0
   -1.2360    0.6350    0.5040 N   0  0  0  0  0  0  0  0  0  0  0  0
   -0.0430   -0.0780    0.2610 C   0  0  0  0  0  0  0  0  0  0  0  0
   -0.0260   -1.4480    0.0660 C   0  0  0  0  0  0  0  0  0  0  0  0
    1.1740   -2.1300   -0.1730 C   0  0  0  0  0  0  0  0  0  0  0  0
    2.3710   -1.4450   -0.2190 C   0  0  0  0  0  0  0  0  0  0  0  0
    3.5600   -2.1040   -0.4530 O   0  0  0  0  0  0  0  0  0  0  0  0
    2.3590   -0.0700   -0.0230 C   0  0  0  0  0  0  0  0  0  0  0  0
    1.1670    0.5820    0.2110 C   0  0  0  0  0  0  0  0  0  0  0  0
    1.2150    1.9560    0.4000 O   0  0  0  0  0  0  0  0  0  0  0  0
    2.3990    2.7000    0.3640 C   0  0  0  0  0  0  0  0  0  0  0  0
  1  2  2  0
  2  3  1  0
  3  4  2  0
  3  5  1  0
  5  6  1  0
  6  7  2  0
  6 12  1  0
  7  8  1  0
  8  9  2  0
  9 10  1  0
  9 11  1  0
 11 12  2  0
 12 13  1  0
 13 14  1  0
M  END
