
     RDKit          3D

 14 15  0  0  0  0  0  0  0  0999 V2000
   -0.2990    0.0520    1.2890 O   0  0  0  0  0  0  0  0  0  0  0  0
    0.1760    0.6220    0.2750 C   0  0  0  0  0  0  0  0  0  0  0  0
    1.4320    0.2210   -0.2820 N   0  0  0  0  0  0  0  0  0  0  0  0
    2.1650   -0.8700    0.3460 C   0  0  0  0  0  0  0  0  0  0  0  0
    3.4370   -1.0830   -0.4340 C   0  0  1  0  0  0  0  0  0  0  0  0
    4.3350    0.1410   -0.4650 C   0  0  0  0  0  0  0  0  0  0  0  0
    4.7530   -1.1290    0.2430 C   0  0  0  0  0  0  0  0  0  0  0  0
   -0.5880    1.6500   -0.2570 O   0  0  0  0  0  0  0  0  0  0  0  0
   -1.8020    2.0060    0.3160 C   0  0  0  0  0  0  0  0  0  0  0  0
   -2.7990    0.9100    0.3420 C   0  0  0  0  0  0  0  0  0  0  0  0
   -3.3770    0.3710    1.3770 C   0  0  0  0  0  0  0  0  0  0  0  0
   -4.2930   -0.6800    0.9270 C   0  0  0  0  0  0  0  0  0  0  0  0
   -4.1670   -0.6810   -0.5390 C   0  0  0  0  0  0  0  0  0  0  0  0
   -3.2940    0.2510   -0.8440 C   0  0  0  0  0  0  0  0  0  0  0  0
  1  2  2  0
  2  3  1  0
  2  8  1  0
  3  4  1  0
  5  4  1  1
  5  6  1  0
  5  7  1  0
  6  7  1  0
  8  9  1  0
  9 10  1  0
 10 11  2  0
 10 14  1  0
 11 12  1  0
 12 13  1  0
 13 14  2  0
M  END
