
     RDKit          3D

 39 44  0  0  0  0  0  0  0  0999 V2000
    6.3690   -5.9990   -0.3740 C   0  0  0  0  0  0  0  0  0  0  0  0
    6.1320   -4.5270   -0.3950 C   0  0  0  0  0  0  0  0  0  0  0  0
    5.2280   -3.9400    0.4420 C   0  0  0  0  0  0  0  0  0  0  0  0
    4.9760   -2.5870    0.4630 C   0  0  0  0  0  0  0  0  0  0  0  0
    5.6770   -1.7870   -0.4120 C   0  0  0  0  0  0  0  0  0  0  0  0
    6.6140   -2.3510   -1.2880 C   0  0  0  0  0  0  0  0  0  0  0  0
    7.3350   -1.5890   -2.1760 C   0  0  0  0  0  0  0  0  0  0  0  0
    7.0970   -0.2370   -2.1700 C   0  0  0  0  0  0  0  0  0  0  0  0
    6.1840    0.2830   -1.3090 C   0  0  0  0  0  0  0  0  0  0  0  0
    5.9690    1.5230   -1.3060 O   0  0  0  0  0  0  0  0  0  0  0  0
    5.4620   -0.4680   -0.4230 N   0  0  0  0  0  0  0  0  0  0  0  0
    4.5140    0.1730    0.4630 C   0  0  0  0  0  0  0  0  0  0  0  0
    3.1420    0.2620   -0.1840 C   0  0  0  0  0  0  0  0  0  0  0  0
    2.2010    0.9400    0.7740 C   0  0  0  0  0  0  0  0  0  0  0  0
    2.6360    1.2480    1.8930 O   0  0  0  0  0  0  0  0  0  0  0  0
    0.8760    1.2310    0.4470 N   0  0  0  0  0  0  0  0  0  0  0  0
   -0.1000    1.8610    1.2630 C   0  0  0  0  0  0  0  0  0  0  0  0
    0.0420    2.0820    2.6070 C   0  0  0  0  0  0  0  0  0  0  0  0
   -0.9260    2.7290    3.3900 C   0  0  0  0  0  0  0  0  0  0  0  0
   -2.0830    3.1730    2.8000 C   0  0  0  0  0  0  0  0  0  0  0  0
   -3.1500    3.8220    3.2920 N   0  0  0  0  0  0  0  0  0  0  0  0
   -4.0390    4.0610    2.3170 C   0  0  0  0  0  0  0  0  0  0  0  0
   -5.3390    4.7600    2.4730 C   0  0  0  0  0  0  0  0  0  0  0  0
   -3.4810    3.5200    1.1450 C   0  0  0  0  0  0  0  0  0  0  0  0
   -4.1830    3.6320   -0.1280 C   0  0  0  0  0  0  0  0  0  0  0  0
   -3.6530    3.0200   -1.2750 N   0  0  0  0  0  0  0  0  0  0  0  0
   -3.7830    1.6090   -1.4830 C   0  0  0  0  0  0  0  0  0  0  0  0
   -3.2150    0.9770   -2.5600 C   0  0  0  0  0  0  0  0  0  0  0  0
   -3.3740   -0.3770   -2.7140 C   0  0  0  0  0  0  0  0  0  0  0  0
   -4.0980   -1.1590   -1.8120 C   0  0  0  0  0  0  0  0  0  0  0  0
   -4.6640   -0.5180   -0.7350 C   0  0  0  0  0  0  0  0  0  0  0  0
   -4.4980    0.8630   -0.5830 C   0  0  0  0  0  0  0  0  0  0  0  0
   -5.4600   -1.2700    0.2610 C   0  0  0  0  0  0  0  0  0  0  0  0
   -5.2130   -2.6820    0.1750 N   0  0  0  0  0  0  0  0  0  0  0  0
   -5.3550   -3.1470   -1.1870 C   0  0  0  0  0  0  0  0  0  0  0  0
   -4.2210   -2.6310   -2.0570 C   0  0  0  0  0  0  0  0  0  0  0  0
   -2.2520    2.9600    1.4360 C   0  0  0  0  0  0  0  0  0  0  0  0
   -1.2860    2.3230    0.6950 C   0  0  0  0  0  0  0  0  0  0  0  0
    6.8340   -3.7060   -1.2750 C   0  0  0  0  0  0  0  0  0  0  0  0
  1  2  1  0
  2  3  2  0
  2 39  1  0
  3  4  1  0
  4  5  2  0
  5  6  1  0
  5 11  1  0
  6  7  1  0
  6 39  2  0
  7  8  2  0
  8  9  1  0
  9 10  2  0
  9 11  1  0
 11 12  1  0
 12 13  1  0
 13 14  1  0
 14 15  2  0
 14 16  1  0
 16 17  1  0
 17 18  2  0
 17 38  1  0
 18 19  1  0
 19 20  2  0
 20 21  1  0
 20 37  1  0
 21 22  1  0
 22 23  1  0
 22 24  2  0
 24 25  1  0
 24 37  1  0
 25 26  1  0
 26 27  1  0
 27 28  2  0
 27 32  1  0
 28 29  1  0
 29 30  2  0
 30 31  1  0
 30 36  1  0
 31 32  2  0
 31 33  1  0
 33 34  1  0
 34 35  1  0
 35 36  1  0
 37 38  2  0
M  END
