
     RDKit          3D

 39 44  0  0  0  0  0  0  0  0999 V2000
    3.8170   -3.0120    4.0830 O   0  0  0  0  0  0  0  0  0  0  0  0
    3.8070   -2.6570    2.9010 C   0  0  0  0  0  0  0  0  0  0  0  0
    4.8560   -3.0420    1.8880 C   0  0  0  0  0  0  0  0  0  0  0  0
    5.4250   -1.7100    1.4400 C   0  0  1  0  0  0  0  0  0  0  0  0
    6.6740   -1.8810    0.6410 C   0  0  0  0  0  0  0  0  0  0  0  0
    7.1900   -0.5200    0.2680 C   0  0  0  0  0  0  0  0  0  0  0  0
    6.6130    0.5190    0.6460 O   0  0  0  0  0  0  0  0  0  0  0  0
    8.3580   -0.3890   -0.5320 N   0  0  0  0  0  0  0  0  0  0  0  0
    8.9740    0.7820   -0.9750 C   0  0  0  0  0  0  0  0  0  0  0  0
   10.2430    0.6870   -1.5450 C   0  0  0  0  0  0  0  0  0  0  0  0
   10.8640    1.8350   -2.0040 C   0  0  0  0  0  0  0  0  0  0  0  0
   10.2450    3.0730   -1.9060 C   0  0  0  0  0  0  0  0  0  0  0  0
    9.0410    3.1310   -1.3610 N   0  0  0  0  0  0  0  0  0  0  0  0
    8.4130    2.0150   -0.9030 C   0  0  0  0  0  0  0  0  0  0  0  0
    4.3810   -0.8990    0.8500 C   0  0  0  0  0  0  0  0  0  0  0  0
    3.1130   -0.9230    1.3120 C   0  0  0  0  0  0  0  0  0  0  0  0
    2.1940   -0.1310    0.7130 N   0  0  0  0  0  0  0  0  0  0  0  0
    1.3330    0.5270    0.2720 C   0  0  0  0  0  0  0  0  0  0  0  0
    0.0140    0.6300    0.8940 N   0  0  0  0  0  0  0  0  0  0  0  0
   -0.7230   -0.5370    1.2390 C   0  0  0  0  0  0  0  0  0  0  0  0
   -1.2260   -1.3050    0.0370 C   0  0  0  0  0  0  0  0  0  0  0  0
   -2.1460   -0.4010   -0.6940 C   0  0  0  0  0  0  0  0  0  0  0  0
   -1.7620    0.4560   -1.6690 C   0  0  0  0  0  0  0  0  0  0  0  0
   -2.7040    1.2520   -2.2800 C   0  0  0  0  0  0  0  0  0  0  0  0
   -4.0320    1.2250   -1.9500 C   0  0  0  0  0  0  0  0  0  0  0  0
   -4.9680    2.0130   -2.5590 C   0  0  0  0  0  0  0  0  0  0  0  0
   -6.2880    1.9430   -2.1920 C   0  0  0  0  0  0  0  0  0  0  0  0
   -6.7170    1.0940   -1.2140 C   0  0  0  0  0  0  0  0  0  0  0  0
   -8.0700    1.0360   -0.8600 C   0  0  0  0  0  0  0  0  0  0  0  0
   -8.4400    0.1580    0.1260 C   0  0  0  0  0  0  0  0  0  0  0  0
   -9.8860    0.0800    0.5120 C   0  0  1  0  0  0  0  0  0  0  0  0
  -10.7520    1.2480    0.2760 C   0  0  0  0  0  0  0  0  0  0  0  0
  -10.9200    0.0450   -0.6080 C   0  0  0  0  0  0  0  0  0  0  0  0
   -7.5250   -0.6440    0.7540 C   0  0  0  0  0  0  0  0  0  0  0  0
   -6.1730   -0.5830    0.3960 C   0  0  0  0  0  0  0  0  0  0  0  0
   -5.7820    0.2780   -0.5780 C   0  0  0  0  0  0  0  0  0  0  0  0
   -4.4410    0.3500   -0.9510 C   0  0  0  0  0  0  0  0  0  0  0  0
   -3.4990   -0.4550   -0.3310 C   0  0  0  0  0  0  0  0  0  0  0  0
    2.7690   -1.8340    2.3970 N   0  0  0  0  0  0  0  0  0  0  0  0
  1  2  2  0
  2  3  1  0
  2 39  1  0
  3  4  1  0
  4  5  1  6
  4 15  1  0
  5  6  1  0
  6  7  2  0
  6  8  1  0
  8  9  1  0
  9 10  2  0
  9 14  1  0
 10 11  1  0
 11 12  2  0
 12 13  1  0
 13 14  2  0
 15 16  2  0
 16 17  1  0
 16 39  1  0
 17 18  2  3
 18 19  1  0
 19 20  1  0
 20 21  1  0
 21 22  1  0
 22 23  2  0
 22 38  1  0
 23 24  1  0
 24 25  2  0
 25 26  1  0
 25 37  1  0
 26 27  2  0
 27 28  1  0
 28 29  2  0
 28 36  1  0
 29 30  1  0
 31 30  1  6
 30 34  2  0
 31 32  1  0
 31 33  1  0
 32 33  1  0
 34 35  1  0
 35 36  2  0
 36 37  1  0
 37 38  2  0
M  END
