
     RDKit          3D

 39 43  0  0  0  0  0  0  0  0999 V2000
  -11.2480    1.2850   -0.3240 C   0  0  0  0  0  0  0  0  0  0  0  0
  -10.0470    0.9440   -0.7500 C   0  0  0  0  0  0  0  0  0  0  0  0
   -9.5120    1.0830   -2.0500 N   0  0  0  0  0  0  0  0  0  0  0  0
   -8.2970    0.6390   -2.0990 C   0  0  0  0  0  0  0  0  0  0  0  0
   -7.4500    0.6380   -3.3140 C   0  0  0  0  0  0  0  0  0  0  0  0
   -8.1570    1.2160   -4.4390 N   0  0  0  0  0  0  0  0  0  0  0  0
   -7.9050    0.1510   -0.7960 C   0  0  0  0  0  0  0  0  0  0  0  0
   -6.7060   -0.4130   -0.3590 C   0  0  0  0  0  0  0  0  0  0  0  0
   -6.6680   -0.7720    0.9610 C   0  0  0  0  0  0  0  0  0  0  0  0
   -5.4210   -1.3830    1.4960 C   0  0  0  0  0  0  0  0  0  0  0  0
   -4.5490   -0.3310    2.0180 C   0  0  0  0  0  0  0  0  0  0  0  0
   -3.3170   -0.0510    1.6540 C   0  0  0  0  0  0  0  0  0  0  0  0
   -2.6440   -0.8050    0.6250 C   0  0  0  0  0  0  0  0  0  0  0  0
   -1.4270   -0.5640    0.2430 C   0  0  0  0  0  0  0  0  0  0  0  0
   -0.8680   -1.4470   -0.8530 C   0  0  0  0  0  0  0  0  0  0  0  0
    0.3780   -1.8940   -0.3670 O   0  0  0  0  0  0  0  0  0  0  0  0
    1.2690   -1.1200    0.3590 C   0  0  0  0  0  0  0  0  0  0  0  0
    2.5910   -1.4920    0.5140 C   0  0  0  0  0  0  0  0  0  0  0  0
    3.5310   -0.7700    1.2220 C   0  0  0  0  0  0  0  0  0  0  0  0
    4.8570   -1.2030    1.3490 N   0  0  0  0  0  0  0  0  0  0  0  0
    5.2340   -2.4580    0.6780 C   0  0  0  0  0  0  0  0  0  0  0  0
    5.8610   -0.5130    2.0890 C   0  0  0  0  0  0  0  0  0  0  0  0
    6.9390    0.1000    1.2470 C   0  0  0  0  0  0  0  0  0  0  0  0
    7.8070    0.6900    1.8750 O   0  0  0  0  0  0  0  0  0  0  0  0
    6.9980    0.0290   -0.2260 C   0  0  0  0  0  0  0  0  0  0  0  0
    8.2300    0.7800   -0.6520 C   0  0  0  0  0  0  0  0  0  0  0  0
    9.5220    0.3350   -0.5500 C   0  0  0  0  0  0  0  0  0  0  0  0
    9.9420   -0.9980    0.0000 C   0  0  0  0  0  0  0  0  0  0  0  0
   10.3110    1.3010   -1.0350 N   0  0  0  0  0  0  0  0  0  0  0  0
    9.5730    2.3320   -1.4380 N   0  0  0  0  0  0  0  0  0  0  0  0
    8.3130    2.0290   -1.2110 C   0  0  0  0  0  0  0  0  0  0  0  0
    7.1220    2.8820   -1.5060 C   0  0  0  0  0  0  0  0  0  0  0  0
    3.0990    0.3920    1.8010 C   0  0  0  0  0  0  0  0  0  0  0  0
    1.7630    0.7910    1.6590 C   0  0  0  0  0  0  0  0  0  0  0  0
    0.8530    0.0380    0.9410 C   0  0  0  0  0  0  0  0  0  0  0  0
   -0.5740    0.4840    0.8120 C   0  0  0  0  0  0  0  0  0  0  0  0
   -7.7240   -0.6040    1.8380 C   0  0  0  0  0  0  0  0  0  0  0  0
   -8.8910   -0.0460    1.3750 C   0  0  0  0  0  0  0  0  0  0  0  0
   -8.9820    0.3370    0.0410 C   0  0  0  0  0  0  0  0  0  0  0  0
  1  2  2  0
  2  3  1  0
  2 39  1  0
  3  4  2  0
  4  5  1  0
  4  7  1  0
  5  6  1  0
  7  8  2  0
  7 39  1  0
  8  9  1  0
  9 10  1  0
  9 37  2  0
 10 11  1  0
 11 12  2  3
 12 13  1  0
 13 14  2  3
 14 15  1  0
 14 36  1  0
 15 16  1  0
 16 17  1  0
 17 18  2  0
 17 35  1  0
 18 19  1  0
 19 20  1  0
 19 33  2  0
 20 21  1  0
 20 22  1  0
 22 23  1  0
 23 24  2  0
 23 25  1  0
 25 26  1  0
 26 27  1  0
 26 31  2  0
 27 28  1  0
 27 29  2  0
 29 30  1  0
 30 31  1  0
 31 32  1  0
 33 34  1  0
 34 35  2  0
 35 36  1  0
 37 38  1  0
 38 39  2  0
M  END
