
     RDKit          3D

 12 11  0  0  0  0  0  0  0  0999 V2000
    4.1240    1.8740   -0.3410 C   0  0  0  0  0  0  0  0  0  0  0  0
    3.8170    0.4020   -0.3690 C   0  0  0  0  0  0  0  0  0  0  0  0
    2.3920    0.2430    0.1790 C   0  0  0  0  0  0  0  0  0  0  0  0
    2.0820   -1.2220    0.1520 C   0  0  0  0  0  0  0  0  0  0  0  0
    0.6990   -1.5030    0.6710 C   0  0  0  0  0  0  0  0  0  0  0  0
   -0.2910   -0.8670   -0.0760 O   0  0  0  0  0  0  0  0  0  0  0  0
   -1.4990   -1.2270    0.5300 C   0  0  0  0  0  0  0  0  0  0  0  0
   -2.6960   -0.6390   -0.1320 C   0  0  1  0  0  0  0  0  0  0  0  0
   -3.9140   -1.1160    0.6320 C   0  0  0  0  0  0  0  0  0  0  0  0
   -2.6670    0.8930   -0.1020 C   0  0  2  0  0  0  0  0  0  0  0  0
   -1.4540    1.4200   -0.8080 C   0  0  0  0  0  0  0  0  0  0  0  0
   -2.6460    1.3160    1.2310 O   0  0  0  0  0  0  0  0  0  0  0  0
  1  2  1  0
  2  3  1  0
  3  4  1  0
  4  5  1  0
  5  6  1  0
  6  7  1  0
  7  8  1  0
  8  9  1  1
  8 10  1  0
 10 11  1  6
 10 12  1  0
M  END
