
     RDKit          3D

 12 11  0  0  0  0  0  0  0  0999 V2000
   -1.9780    2.2060    1.2010 C   0  0  0  0  0  0  0  0  0  0  0  0
   -2.5510    1.1280    0.7410 C   0  0  0  0  0  0  0  0  0  0  0  0
   -1.7900    0.1800   -0.0530 C   0  0  0  0  0  0  0  0  0  0  0  0
   -2.3970   -0.9020   -0.5050 C   0  0  0  0  0  0  0  0  0  0  0  0
   -3.8220   -1.1730   -0.2280 C   0  0  0  0  0  0  0  0  0  0  0  0
   -0.3500    0.4500   -0.3380 C   0  0  0  0  0  0  0  0  0  0  0  0
    0.2700   -0.6240   -1.1710 C   0  0  0  0  0  0  0  0  0  0  0  0
    1.7250   -0.3900   -1.4800 C   0  0  0  0  0  0  0  0  0  0  0  0
    2.5930   -0.3220   -0.2890 C   0  0  0  0  0  0  0  0  0  0  0  0
    2.1210   -0.4850    0.8390 O   0  0  0  0  0  0  0  0  0  0  0  0
    3.9310   -0.0740   -0.4640 O   0  0  0  0  0  0  0  0  0  0  0  0
    4.8590    0.0130    0.6020 C   0  0  0  0  0  0  0  0  0  0  0  0
  1  2  2  0
  2  3  1  0
  3  4  2  3
  3  6  1  0
  4  5  1  0
  6  7  1  0
  7  8  1  0
  8  9  1  0
  9 10  2  0
  9 11  1  0
 11 12  1  0
M  END
