
     RDKit          3D

 12 11  0  0  0  0  0  0  0  0999 V2000
   -5.0570    1.2480   -0.0110 C   0  0  0  0  0  0  0  0  0  0  0  0
   -4.6630   -0.1660   -0.3960 C   0  0  0  0  0  0  0  0  0  0  0  0
   -3.4580   -0.6230    0.3160 C   0  0  0  0  0  0  0  0  0  0  0  0
   -2.3840   -0.9730   -0.3680 C   0  0  0  0  0  0  0  0  0  0  0  0
   -1.1280   -1.4470    0.3290 C   0  0  0  0  0  0  0  0  0  0  0  0
   -0.1190   -0.5400   -0.0510 O   0  0  0  0  0  0  0  0  0  0  0  0
    1.1970   -0.6180    0.3750 C   0  0  0  0  0  0  0  0  0  0  0  0
    1.4730   -1.5710    1.1480 O   0  0  0  0  0  0  0  0  0  0  0  0
    2.1920    0.3460   -0.0500 C   0  0  0  0  0  0  0  0  0  0  0  0
    3.4200    0.1970    0.4020 C   0  0  0  0  0  0  0  0  0  0  0  0
    4.5100    1.1650    0.0010 C   0  0  0  0  0  0  0  0  0  0  0  0
    5.5600    0.3540   -0.6920 C   0  0  0  0  0  0  0  0  0  0  0  0
  1  2  1  0
  2  3  1  0
  3  4  2  3
  4  5  1  0
  5  6  1  0
  6  7  1  0
  7  8  2  0
  7  9  1  0
  9 10  2  3
 10 11  1  0
 11 12  1  0
M  END
