
     RDKit          3D

 18 20  0  0  0  0  0  0  0  0999 V2000
    3.5190   -1.5410    0.1980 C   0  0  0  0  0  0  0  0  0  0  0  0
    2.3850   -0.5800    0.1510 C   0  0  0  0  0  0  0  0  0  0  0  0
    2.6280    0.7690    0.1470 C   0  0  0  0  0  0  0  0  0  0  0  0
    1.6000    1.6770    0.1040 C   0  0  0  0  0  0  0  0  0  0  0  0
    1.9170    3.1160    0.1020 C   0  0  0  0  0  0  0  0  0  0  0  0
    0.2980    1.2260    0.0630 C   0  0  0  0  0  0  0  0  0  0  0  0
   -0.7600    2.1150    0.0190 C   0  0  0  0  0  0  0  0  0  0  0  0
   -0.4940    3.3420    0.0170 O   0  0  0  0  0  0  0  0  0  0  0  0
   -1.9960    1.6500   -0.0200 N   0  0  0  0  0  0  0  0  0  0  0  0
   -2.3080    0.3470   -0.0190 C   0  0  0  0  0  0  0  0  0  0  0  0
   -3.6240   -0.0540   -0.0610 C   0  0  0  0  0  0  0  0  0  0  0  0
   -3.9450   -1.3860   -0.0600 C   0  0  0  0  0  0  0  0  0  0  0  0
   -2.9340   -2.3190   -0.0170 C   0  0  0  0  0  0  0  0  0  0  0  0
   -1.5840   -1.9430    0.0260 C   0  0  0  0  0  0  0  0  0  0  0  0
   -0.6540   -2.9400    0.0670 O   0  0  0  0  0  0  0  0  0  0  0  0
   -1.2750   -0.6120    0.0250 C   0  0  0  0  0  0  0  0  0  0  0  0
    0.0400   -0.1580    0.0660 C   0  0  0  0  0  0  0  0  0  0  0  0
    1.0650   -1.0550    0.1090 C   0  0  0  0  0  0  0  0  0  0  0  0
  1  2  1  0
  2  3  2  0
  2 18  1  0
  3  4  1  0
  4  5  1  0
  4  6  2  0
  6  7  1  0
  6 17  1  0
  7  8  2  0
  7  9  1  0
  9 10  1  0
 10 11  2  0
 10 16  1  0
 11 12  1  0
 12 13  2  0
 13 14  1  0
 14 15  1  0
 14 16  2  0
 16 17  1  0
 17 18  2  0
M  END
