
     RDKit          3D

 19 21  0  0  0  0  0  0  0  0999 V2000
   -4.4150    0.1020    0.2870 C   0  0  0  0  0  0  0  0  0  0  0  0
   -3.1600   -0.2960   -0.3930 C   0  0  0  0  0  0  0  0  0  0  0  0
   -3.1640   -1.2770   -1.3570 C   0  0  0  0  0  0  0  0  0  0  0  0
   -2.0150   -1.6700   -2.0090 C   0  0  0  0  0  0  0  0  0  0  0  0
   -0.8070   -1.0870   -1.7130 C   0  0  0  0  0  0  0  0  0  0  0  0
   -0.7710   -0.1040   -0.7540 C   0  0  0  0  0  0  0  0  0  0  0  0
    0.4560    0.6150   -0.4110 C   0  0  0  0  0  0  0  0  0  0  0  0
    0.4540    2.0030   -0.5690 C   0  0  0  0  0  0  0  0  0  0  0  0
    1.6260    2.6600   -0.3040 C   0  0  0  0  0  0  0  0  0  0  0  0
    1.6200    3.9150   -0.4480 O   0  0  0  0  0  0  0  0  0  0  0  0
    2.7350    2.0210    0.0900 N   0  0  0  0  0  0  0  0  0  0  0  0
    2.7780    0.6830    0.2550 C   0  0  0  0  0  0  0  0  0  0  0  0
    3.9210    0.0370    0.6700 C   0  0  0  0  0  0  0  0  0  0  0  0
    3.9040   -1.3350    0.8340 C   0  0  0  0  0  0  0  0  0  0  0  0
    2.7390   -2.0360    0.5780 C   0  0  0  0  0  0  0  0  0  0  0  0
    1.5890   -1.4030    0.1620 C   0  0  0  0  0  0  0  0  0  0  0  0
    1.6080   -0.0270   -0.0030 C   0  0  0  0  0  0  0  0  0  0  0  0
   -1.9240    0.2830   -0.1060 C   0  0  0  0  0  0  0  0  0  0  0  0
   -1.9670    1.2640    0.8740 O   0  0  0  0  0  0  0  0  0  0  0  0
  1  2  1  0
  2  3  2  0
  2 18  1  0
  3  4  1  0
  4  5  2  0
  5  6  1  0
  6  7  1  0
  6 18  2  0
  7  8  2  0
  7 17  1  0
  8  9  1  0
  9 10  2  0
  9 11  1  0
 11 12  1  0
 12 13  2  0
 12 17  1  0
 13 14  1  0
 14 15  2  0
 15 16  1  0
 16 17  2  0
 18 19  1  0
M  END
