
     RDKit          3D

 19 21  0  0  0  0  0  0  0  0999 V2000
    5.6400   -0.1900    0.5680 C   0  0  0  0  0  0  0  0  0  0  0  0
    4.4930   -0.3600   -0.3320 C   0  0  0  0  0  0  0  0  0  0  0  0
    4.6840   -0.6770   -1.5390 O   0  0  0  0  0  0  0  0  0  0  0  0
    3.1220   -0.1670    0.1540 C   0  0  0  0  0  0  0  0  0  0  0  0
    2.8780    0.1780    1.4660 C   0  0  0  0  0  0  0  0  0  0  0  0
    1.5940    0.3590    1.9220 C   0  0  0  0  0  0  0  0  0  0  0  0
    0.4900    0.2070    1.1030 C   0  0  0  0  0  0  0  0  0  0  0  0
    0.7070   -0.1370   -0.2100 C   0  0  0  0  0  0  0  0  0  0  0  0
    2.0290   -0.3180   -0.6590 C   0  0  0  0  0  0  0  0  0  0  0  0
   -0.3930   -0.3290   -1.1870 C   0  0  0  0  0  0  0  0  0  0  0  0
   -1.7100   -0.1140   -0.6060 C   0  0  0  0  0  0  0  0  0  0  0  0
   -2.8120   -0.2730   -1.4520 C   0  0  0  0  0  0  0  0  0  0  0  0
   -2.6250   -0.6270   -2.8080 N   0  0  0  0  0  0  0  0  0  0  0  0
   -4.0620   -0.0750   -0.9220 C   0  0  0  0  0  0  0  0  0  0  0  0
   -4.2720    0.2710    0.4000 C   0  0  0  0  0  0  0  0  0  0  0  0
   -3.1660    0.4190    1.2030 C   0  0  0  0  0  0  0  0  0  0  0  0
   -3.2900    0.7920    2.6490 C   0  0  0  0  0  0  0  0  0  0  0  0
   -1.8620    0.2290    0.7160 C   0  0  0  0  0  0  0  0  0  0  0  0
   -0.7950    0.3930    1.5770 O   0  0  0  0  0  0  0  0  0  0  0  0
  1  2  1  0
  2  3  2  0
  2  4  1  0
  4  5  2  0
  4  9  1  0
  5  6  1  0
  6  7  2  0
  7  8  1  0
  7 19  1  0
  8  9  2  0
  8 10  1  0
 10 11  1  0
 11 12  2  0
 11 18  1  0
 12 13  1  0
 12 14  1  0
 14 15  2  0
 15 16  1  0
 16 17  1  0
 16 18  2  0
 18 19  1  0
M  END
