
     RDKit          3D

 19 21  0  0  0  0  0  0  0  0999 V2000
   -0.0720   -1.3820    3.0400 C   0  0  0  0  0  0  0  0  0  0  0  0
    0.4560   -0.6640    1.8480 C   0  0  0  0  0  0  0  0  0  0  0  0
    1.8100   -0.3710    1.7300 C   0  0  0  0  0  0  0  0  0  0  0  0
    2.3020    0.2860    0.6410 C   0  0  0  0  0  0  0  0  0  0  0  0
    3.7750    0.5840    0.5530 C   0  0  1  0  0  0  0  0  0  0  0  0
    4.3460   -0.4540   -0.4010 C   0  0  0  0  0  0  0  0  0  0  0  0
    4.0110    1.8730    0.1400 O   0  0  0  0  0  0  0  0  0  0  0  0
    1.4550    0.6760   -0.3750 C   0  0  0  0  0  0  0  0  0  0  0  0
    0.0970    0.4080   -0.3050 C   0  0  0  0  0  0  0  0  0  0  0  0
   -0.7480    0.8070   -1.3370 C   0  0  0  0  0  0  0  0  0  0  0  0
   -0.2980    1.4120   -2.3400 O   0  0  0  0  0  0  0  0  0  0  0  0
   -2.0950    0.5330   -1.2530 C   0  0  0  0  0  0  0  0  0  0  0  0
   -2.9960    0.9010   -2.2460 C   0  0  0  0  0  0  0  0  0  0  0  0
   -4.3450    0.6250   -2.1590 C   0  0  0  0  0  0  0  0  0  0  0  0
   -4.7740   -0.0420   -1.0310 C   0  0  0  0  0  0  0  0  0  0  0  0
   -3.8830   -0.4110   -0.0410 C   0  0  0  0  0  0  0  0  0  0  0  0
   -2.5340   -0.1350   -0.1290 C   0  0  0  0  0  0  0  0  0  0  0  0
   -1.6920   -0.5080    0.8550 N   0  0  0  0  0  0  0  0  0  0  0  0
   -0.3630   -0.2580    0.8110 C   0  0  0  0  0  0  0  0  0  0  0  0
  1  2  1  0
  2  3  2  0
  2 19  1  0
  3  4  1  0
  4  5  1  0
  4  8  2  0
  5  6  1  6
  5  7  1  0
  8  9  1  0
  9 10  1  0
  9 19  2  0
 10 11  2  0
 10 12  1  0
 12 13  2  0
 12 17  1  0
 13 14  1  0
 14 15  2  0
 15 16  1  0
 16 17  2  0
 17 18  1  0
 18 19  1  0
M  END
