
     RDKit          3D

 25 25  0  0  0  0  0  0  0  0999 V2000
    8.0470    1.3350   -1.0830 C   0  0  0  0  0  0  0  0  0  0  0  0
    7.1950    1.4680    0.1410 C   0  0  0  0  0  0  0  0  0  0  0  0
    5.7840    1.0190   -0.1350 C   0  0  0  0  0  0  0  0  0  0  0  0
    5.4990    0.6100   -1.2710 O   0  0  0  0  0  0  0  0  0  0  0  0
    4.7960    1.0610    0.8860 N   0  0  0  0  0  0  0  0  0  0  0  0
    3.4110    0.6330    0.6610 C   0  0  0  0  0  0  0  0  0  0  0  0
    3.3290   -0.7930    0.2520 C   0  0  0  0  0  0  0  0  0  0  0  0
    1.9670   -1.1990    0.0260 N   0  0  0  0  0  0  0  0  0  0  0  0
    0.9760   -1.1740    1.0430 C   0  0  0  0  0  0  0  0  0  0  0  0
    1.3560   -0.7720    2.1930 O   0  0  0  0  0  0  0  0  0  0  0  0
   -0.3760   -1.5640    0.8440 N   0  0  0  0  0  0  0  0  0  0  0  0
   -1.2850   -1.4940    1.9720 C   0  0  0  0  0  0  0  0  0  0  0  0
   -2.1780   -0.2880    1.8120 C   0  0  0  0  0  0  0  0  0  0  0  0
   -2.5050   -0.1980    0.3400 C   0  0  0  0  0  0  0  0  0  0  0  0
   -2.9650    0.9120   -0.2030 C   0  0  0  0  0  0  0  0  0  0  0  0
   -3.2370    2.3850    0.7860 S   0  0  0  0  0  0  0  0  0  0  0  0
   -4.7290    3.2240    0.1330 C   0  0  0  0  0  0  0  0  0  0  0  0
   -4.4450    3.6810   -1.1640 O   0  0  0  0  0  0  0  0  0  0  0  0
   -2.3070   -1.3800   -0.4860 C   0  0  0  0  0  0  0  0  0  0  0  0
   -3.2590   -1.9050   -1.2060 C   0  0  0  0  0  0  0  0  0  0  0  0
   -4.6280   -1.5230   -1.3700 C   0  0  0  0  0  0  0  0  0  0  0  0
   -5.1640   -0.5650   -0.7810 O   0  0  0  0  0  0  0  0  0  0  0  0
   -5.5020   -2.2230   -2.2370 O   0  0  0  0  0  0  0  0  0  0  0  0
   -6.8430   -1.8440   -2.3930 C   0  0  0  0  0  0  0  0  0  0  0  0
   -0.9240   -2.0330   -0.4140 C   0  0  0  0  0  0  0  0  0  0  0  0
  1  2  1  0
  2  3  1  0
  3  4  2  0
  3  5  1  0
  5  6  1  0
  6  7  1  0
  7  8  1  0
  8  9  1  0
  9 10  2  0
  9 11  1  0
 11 12  1  0
 11 25  1  0
 12 13  1  0
 13 14  1  0
 14 15  2  3
 14 19  1  0
 15 16  1  0
 16 17  1  0
 17 18  1  0
 19 20  2  3
 19 25  1  0
 20 21  1  0
 21 22  2  0
 21 23  1  0
 23 24  1  0
M  END
