
     RDKit          3D

 25 26  0  0  0  0  0  0  0  0999 V2000
   -5.6950   -1.0740   -0.0590 C   0  0  0  0  0  0  0  0  0  0  0  0
   -4.7150   -2.2700    0.0370 C   0  0  0  0  0  0  0  0  0  0  0  0
   -5.1520   -3.3300    0.7960 C   0  0  0  0  0  0  0  0  0  0  0  0
   -3.7670   -4.5290    0.6400 S   0  0  0  0  0  0  0  0  0  0  0  0
   -2.7310   -3.4440   -0.4550 C   0  0  0  0  0  0  0  0  0  0  0  0
   -3.5450   -2.3000   -0.5790 C   0  0  0  0  0  0  0  0  0  0  0  0
   -2.9760   -1.1460   -1.3850 C   0  0  0  0  0  0  0  0  0  0  0  0
   -3.4140   -0.8520   -2.5020 O   0  0  0  0  0  0  0  0  0  0  0  0
   -1.9190   -0.4160   -0.8160 N   0  0  0  0  0  0  0  0  0  0  0  0
   -1.3240    0.7010   -1.5060 C   0  0  0  0  0  0  0  0  0  0  0  0
   -0.1340    1.1810   -0.6650 C   0  0  0  0  0  0  0  0  0  0  0  0
   -0.2280    2.3930   -0.2350 C   0  0  0  0  0  0  0  0  0  0  0  0
    0.7040    3.1430    0.5820 C   0  0  0  0  0  0  0  0  0  0  0  0
    1.2690    4.3610    0.2690 C   0  0  0  0  0  0  0  0  0  0  0  0
    2.0740    4.7080    1.3210 C   0  0  0  0  0  0  0  0  0  0  0  0
    1.9820    3.6850    2.2630 C   0  0  0  0  0  0  0  0  0  0  0  0
    1.1580    2.8090    1.7490 O   0  0  0  0  0  0  0  0  0  0  0  0
    0.9540    0.2380   -0.6100 C   0  0  0  0  0  0  0  0  0  0  0  0
    0.7260   -0.9450   -1.0710 O   0  0  0  0  0  0  0  0  0  0  0  0
    2.2520    0.4940   -0.1080 N   0  0  0  0  0  0  0  0  0  0  0  0
    3.2360   -0.5500   -0.1230 C   0  0  0  0  0  0  0  0  0  0  0  0
    2.8970   -1.6720   -0.5760 O   0  0  0  0  0  0  0  0  0  0  0  0
    4.6310   -0.3730    0.3680 C   0  0  0  0  0  0  0  0  0  0  0  0
    5.4250   -1.6500    0.1500 C   0  0  0  0  0  0  0  0  0  0  0  0
    4.7610   -2.6530    0.8550 O   0  0  0  0  0  0  0  0  0  0  0  0
  1  2  1  0
  2  3  2  0
  2  6  1  0
  3  4  1  0
  4  5  1  0
  5  6  2  0
  6  7  1  0
  7  8  2  0
  7  9  1  0
  9 10  1  0
 10 11  1  0
 11 12  2  3
 11 18  1  0
 12 13  1  0
 13 14  2  0
 13 17  1  0
 14 15  1  0
 15 16  2  0
 16 17  1  0
 18 19  2  0
 18 20  1  0
 20 21  1  0
 21 22  2  0
 21 23  1  0
 23 24  1  0
 24 25  1  0
M  END
