
     RDKit          3D

 25 26  0  0  0  0  0  0  0  0999 V2000
   -4.6170   -3.4920    0.4400 C   0  0  0  0  0  0  0  0  0  0  0  0
   -3.4680   -2.5420    0.2920 C   0  0  0  0  0  0  0  0  0  0  0  0
   -3.8840   -1.2030    0.1220 O   0  0  0  0  0  0  0  0  0  0  0  0
   -2.8980   -0.2380   -0.0250 C   0  0  0  0  0  0  0  0  0  0  0  0
   -1.5700   -0.5720   -0.0060 C   0  0  0  0  0  0  0  0  0  0  0  0
   -0.5570    0.3880   -0.1530 C   0  0  0  0  0  0  0  0  0  0  0  0
    0.8040   -0.0420   -0.1580 N   0  0  0  0  0  0  0  0  0  0  0  0
    1.8450    0.7220    0.3290 C   0  0  0  0  0  0  0  0  0  0  0  0
    1.5440    2.1900    1.0330 S   0  0  0  0  0  0  0  0  0  0  0  0
    3.1930    0.3080    0.3040 N   0  0  0  0  0  0  0  0  0  0  0  0
    3.6750   -0.9010   -0.2450 C   0  0  0  0  0  0  0  0  0  0  0  0
    2.9210   -1.7380   -0.7780 O   0  0  0  0  0  0  0  0  0  0  0  0
    5.1360   -1.1580   -0.1720 C   0  0  0  0  0  0  0  0  0  0  0  0
    5.7580   -2.2820   -0.6590 C   0  0  0  0  0  0  0  0  0  0  0  0
    7.1030   -2.1260   -0.3920 C   0  0  0  0  0  0  0  0  0  0  0  0
    7.2590   -0.9220    0.2450 C   0  0  0  0  0  0  0  0  0  0  0  0
    8.5400   -0.3040    0.7400 C   0  0  0  0  0  0  0  0  0  0  0  0
    6.0620   -0.4030    0.3430 O   0  0  0  0  0  0  0  0  0  0  0  0
   -0.9760    1.6750   -0.3170 C   0  0  0  0  0  0  0  0  0  0  0  0
   -2.3330    2.0300   -0.3380 C   0  0  0  0  0  0  0  0  0  0  0  0
   -3.3220    1.0900   -0.1930 C   0  0  0  0  0  0  0  0  0  0  0  0
   -4.6570    1.3230   -0.1970 O   0  0  0  0  0  0  0  0  0  0  0  0
   -5.4200    2.4480   -0.3130 C   0  0  0  0  0  0  0  0  0  0  0  0
   -5.2880    3.5050    0.7260 C   0  0  0  0  0  0  0  0  0  0  0  0
   -6.1780    4.5530    0.3790 O   0  0  0  0  0  0  0  0  0  0  0  0
  1  2  1  0
  2  3  1  0
  3  4  1  0
  4  5  2  0
  4 21  1  0
  5  6  1  0
  6  7  1  0
  6 19  2  0
  7  8  1  0
  8  9  2  0
  8 10  1  0
 10 11  1  0
 11 12  2  0
 11 13  1  0
 13 14  2  0
 13 18  1  0
 14 15  1  0
 15 16  2  0
 16 17  1  0
 16 18  1  0
 19 20  1  0
 20 21  2  0
 21 22  1  0
 22 23  1  0
 23 24  1  0
 24 25  1  0
M  END
