
     RDKit          3D

 34 37  0  0  0  0  0  0  0  0999 V2000
   -0.2530    0.8330    1.5620 C   0  0  0  0  0  0  0  0  0  0  0  0
   -0.6750    0.8380    0.1330 C   0  0  2  0  0  0  0  0  0  0  0  0
   -0.7360    2.3060   -0.3060 C   0  0  0  0  0  0  0  0  0  0  0  0
   -2.0890    0.3140   -0.0200 C   0  0  0  0  0  0  0  0  0  0  0  0
   -2.9930    1.1940    0.7620 C   0  0  0  0  0  0  0  0  0  0  0  0
   -2.5620    2.2300    1.4630 O   0  0  0  0  0  0  0  0  0  0  0  0
   -3.3530    3.0030    2.1490 C   0  0  0  0  0  0  0  0  0  0  0  0
   -4.7120    2.7910    2.1900 C   0  0  0  0  0  0  0  0  0  0  0  0
   -5.1970    1.7150    1.4660 C   0  0  0  0  0  0  0  0  0  0  0  0
   -6.4250    1.4640    1.4590 O   0  0  0  0  0  0  0  0  0  0  0  0
   -4.3420    0.9060    0.7440 C   0  0  0  0  0  0  0  0  0  0  0  0
   -4.8220   -0.2350   -0.0290 C   0  0  0  0  0  0  0  0  0  0  0  0
   -4.7750   -1.5370    0.4240 C   0  0  0  0  0  0  0  0  0  0  0  0
   -5.2380   -2.6020   -0.3310 C   0  0  0  0  0  0  0  0  0  0  0  0
   -5.7710   -2.3810   -1.5840 C   0  0  0  0  0  0  0  0  0  0  0  0
   -5.8270   -1.0830   -2.0580 C   0  0  0  0  0  0  0  0  0  0  0  0
   -6.4970   -0.7920   -3.6390 Cl  0  0  0  0  0  0  0  0  0  0  0  0
   -5.3560   -0.0210   -1.2840 C   0  0  0  0  0  0  0  0  0  0  0  0
    0.2730    0.1590   -0.8040 C   0  0  0  0  0  0  0  0  0  0  0  0
    0.5660   -1.5330   -0.4690 S   0  0  1  0  0  0  0  0  0  0  0  0
    1.1980   -1.7770    0.8550 O   0  0  0  0  0  0  0  0  0  0  0  0
   -0.6850   -2.3420   -0.5420 O   0  0  0  0  0  0  0  0  0  0  0  0
    1.7170   -2.1260   -1.7140 C   0  0  0  0  0  0  0  0  0  0  0  0
    2.9660   -1.2920   -1.5700 C   0  0  0  0  0  0  0  0  0  0  0  0
    4.0350   -1.5870   -0.7670 C   0  0  0  0  0  0  0  0  0  0  0  0
    4.9750   -0.5880   -0.9110 C   0  0  0  0  0  0  0  0  0  0  0  0
    6.2850   -0.4710   -0.2510 C   0  0  0  0  0  0  0  0  0  0  0  0
    7.0670    0.5840   -0.5220 N   0  0  0  0  0  0  0  0  0  0  0  0
    8.2850    0.7640    0.0440 C   0  0  0  0  0  0  0  0  0  0  0  0
    8.7350   -0.1720    0.9300 C   0  0  0  0  0  0  0  0  0  0  0  0
    7.9460   -1.2690    1.2270 C   0  0  0  0  0  0  0  0  0  0  0  0
    6.7320   -1.3870    0.6210 N   0  0  0  0  0  0  0  0  0  0  0  0
    4.4330    0.2680   -1.7940 N   0  0  0  0  0  0  0  0  0  0  0  0
    3.2470   -0.1410   -2.1880 N   0  0  0  0  0  0  0  0  0  0  0  0
  2  1  1  1
  2  3  1  0
  2  4  1  0
  2 19  1  0
  4  5  1  0
  5  6  1  0
  5 11  2  0
  6  7  1  0
  7  8  2  0
  8  9  1  0
  9 10  2  0
  9 11  1  0
 11 12  1  0
 12 13  2  0
 12 18  1  0
 13 14  1  0
 14 15  2  0
 15 16  1  0
 16 17  1  0
 16 18  2  0
 20 19  1  6
 20 21  2  0
 20 22  2  0
 20 23  1  0
 23 24  1  0
 24 25  1  0
 24 34  2  0
 25 26  2  0
 26 27  1  0
 26 33  1  0
 27 28  2  0
 27 32  1  0
 28 29  1  0
 29 30  2  0
 30 31  1  0
 31 32  2  0
 33 34  1  0
M  END
