
     RDKit          3D

 34 37  0  0  0  0  0  0  0  0999 V2000
    3.9070   -2.0300   -1.6970 C   0  0  0  0  0  0  0  0  0  0  0  0
    4.8550   -0.8220   -1.7140 C   0  0  0  0  0  0  0  0  0  0  0  0
    5.1670   -0.4590   -0.3010 C   0  0  2  0  0  0  0  0  0  0  0  0
    3.9490   -0.0980    0.4730 C   0  0  0  0  0  0  0  0  0  0  0  0
    3.6610   -0.7650    1.4990 O   0  0  0  0  0  0  0  0  0  0  0  0
    3.1530    0.9870    0.0250 N   0  0  0  0  0  0  0  0  0  0  0  0
    1.9770    1.3490    0.7590 C   0  0  0  0  0  0  0  0  0  0  0  0
    0.9810    0.2320    0.8430 C   0  0  0  0  0  0  0  0  0  0  0  0
    0.0040   -0.0220    0.0500 N   0  0  0  0  0  0  0  0  0  0  0  0
   -0.8110   -1.0120    0.1980 C   0  0  0  0  0  0  0  0  0  0  0  0
   -1.9660   -1.2640   -0.7880 C   0  0  0  0  0  0  0  0  0  0  0  0
   -3.2220   -0.8230   -0.1520 C   0  0  0  0  0  0  0  0  0  0  0  0
   -3.2770   -0.3370    1.0000 O   0  0  0  0  0  0  0  0  0  0  0  0
   -4.3930   -0.9620   -0.8830 O   0  0  0  0  0  0  0  0  0  0  0  0
   -5.6410   -0.6000   -0.4320 C   0  0  0  0  0  0  0  0  0  0  0  0
   -6.3900   -1.5360    0.2190 C   0  0  0  0  0  0  0  0  0  0  0  0
   -5.7530   -3.1560    0.4620 Cl  0  0  0  0  0  0  0  0  0  0  0  0
   -7.6380   -1.1630    0.6660 C   0  0  0  0  0  0  0  0  0  0  0  0
   -8.1010    0.1050    0.4590 C   0  0  0  0  0  0  0  0  0  0  0  0
   -7.3170    1.0460   -0.2090 C   0  0  0  0  0  0  0  0  0  0  0  0
   -6.0720    0.7000   -0.6640 C   0  0  0  0  0  0  0  0  0  0  0  0
   -5.4510    1.8400   -1.3240 C   0  0  0  0  0  0  0  0  0  0  0  0
   -6.2970    2.8470   -1.2690 C   0  0  0  0  0  0  0  0  0  0  0  0
   -7.5340    2.4460   -0.5720 C   0  0  0  0  0  0  0  0  0  0  0  0
   -0.6080   -1.8570    1.2990 C   0  0  0  0  0  0  0  0  0  0  0  0
   -1.2790   -3.0290    1.7870 C   0  0  0  0  0  0  0  0  0  0  0  0
    0.8620   -1.0250    2.0240 S   0  0  0  0  0  0  0  0  0  0  0  0
    6.1230    0.5880   -0.1410 N   0  0  0  0  0  0  0  0  0  0  0  0
    6.4830    0.8800    1.1430 C   0  0  0  0  0  0  0  0  0  0  0  0
    7.3760    1.8450    1.4240 N   0  0  0  0  0  0  0  0  0  0  0  0
    7.9670    2.5780    0.4650 C   0  0  0  0  0  0  0  0  0  0  0  0
    7.6220    2.3040   -0.8410 C   0  0  0  0  0  0  0  0  0  0  0  0
    6.7010    1.3050   -1.0930 C   0  0  0  0  0  0  0  0  0  0  0  0
    6.3850    1.0530   -2.2860 O   0  0  0  0  0  0  0  0  0  0  0  0
  1  2  1  0
  3  2  1  6
  3  4  1  0
  3 28  1  0
  4  5  2  0
  4  6  1  0
  6  7  1  0
  7  8  1  0
  8  9  2  0
  8 27  1  0
  9 10  1  0
 10 11  1  0
 10 25  2  0
 11 12  1  0
 12 13  2  0
 12 14  1  0
 14 15  1  0
 15 16  2  0
 15 21  1  0
 16 17  1  0
 16 18  1  0
 18 19  2  0
 19 20  1  0
 20 21  2  0
 20 24  1  0
 21 22  1  0
 22 23  2  0
 23 24  1  0
 25 26  1  0
 25 27  1  0
 28 29  1  0
 28 33  1  0
 29 30  2  0
 30 31  1  0
 31 32  2  0
 32 33  1  0
 33 34  2  0
M  END
