
     RDKit          3D

 34 37  0  0  0  0  0  0  0  0999 V2000
    6.9310    3.0570    1.0230 C   0  0  0  0  0  0  0  0  0  0  0  0
    7.4150    1.8430    0.7640 C   0  0  0  0  0  0  0  0  0  0  0  0
    6.8780    0.6280    1.4250 C   0  0  0  0  0  0  0  0  0  0  0  0
    6.3480   -0.3120    0.4140 C   0  0  0  0  0  0  0  0  0  0  0  0
    7.2050   -1.2420   -0.1220 C   0  0  0  0  0  0  0  0  0  0  0  0
    6.7990   -2.1580   -1.0700 C   0  0  0  0  0  0  0  0  0  0  0  0
    5.4930   -2.1560   -1.5060 C   0  0  0  0  0  0  0  0  0  0  0  0
    5.0960   -3.0790   -2.4550 C   0  0  0  0  0  0  0  0  0  0  0  0
    6.2200   -4.2470   -3.1130 Cl  0  0  0  0  0  0  0  0  0  0  0  0
    3.7960   -3.0430   -2.8590 C   0  0  0  0  0  0  0  0  0  0  0  0
    2.9180   -2.1440   -2.3580 C   0  0  0  0  0  0  0  0  0  0  0  0
    3.2970   -1.1950   -1.3910 C   0  0  0  0  0  0  0  0  0  0  0  0
    2.2860   -0.2680   -0.9120 C   0  0  0  0  0  0  0  0  0  0  0  0
    1.0860   -0.3610   -1.3840 O   0  0  0  0  0  0  0  0  0  0  0  0
    2.4190    0.7360    0.0080 O   0  0  0  0  0  0  0  0  0  0  0  0
    1.4280    1.6090    0.4480 C   0  0  0  0  0  0  0  0  0  0  0  0
    0.2750    0.9330    1.0900 C   0  0  0  0  0  0  0  0  0  0  0  0
    0.2210    0.5220    2.3670 N   0  0  0  0  0  0  0  0  0  0  0  0
   -0.9640   -0.0400    2.6070 N   0  0  0  0  0  0  0  0  0  0  0  0
   -1.6840    0.0140    1.4520 C   0  0  0  0  0  0  0  0  0  0  0  0
   -3.3420   -0.5900    1.1840 S   0  0  0  0  0  0  0  0  0  0  0  0
   -4.4690    0.7990    1.5870 C   0  0  1  0  0  0  0  0  0  0  0  0
   -4.3020    1.9180    0.6110 C   0  0  0  0  0  0  0  0  0  0  0  0
   -5.8790    0.3270    1.7110 C   0  0  0  0  0  0  0  0  0  0  0  0
   -6.4870    0.4750    2.8270 O   0  0  0  0  0  0  0  0  0  0  0  0
   -6.5730   -0.2820    0.6430 N   0  0  0  0  0  0  0  0  0  0  0  0
   -5.9580   -0.4810   -0.6450 C   0  0  0  0  0  0  0  0  0  0  0  0
   -6.8950    0.1270   -1.6770 C   0  0  0  0  0  0  0  0  0  0  0  0
   -8.1310   -0.4930   -1.5270 O   0  0  0  0  0  0  0  0  0  0  0  0
   -8.7500   -0.1490   -0.3410 C   0  0  0  0  0  0  0  0  0  0  0  0
   -7.9330   -0.7250    0.8130 C   0  0  0  0  0  0  0  0  0  0  0  0
   -0.9010    0.6140    0.5450 N   0  0  0  0  0  0  0  0  0  0  0  0
    4.5970   -1.2220   -0.9800 C   0  0  0  0  0  0  0  0  0  0  0  0
    5.0360   -0.3180   -0.0330 C   0  0  0  0  0  0  0  0  0  0  0  0
  1  2  2  0
  2  3  1  0
  3  4  1  0
  4  5  2  0
  4 34  1  0
  5  6  1  0
  6  7  2  0
  7  8  1  0
  7 33  1  0
  8  9  1  0
  8 10  2  0
 10 11  1  0
 11 12  2  0
 12 13  1  0
 12 33  1  0
 13 14  2  0
 13 15  1  0
 15 16  1  0
 16 17  1  0
 17 18  2  0
 17 32  1  0
 18 19  1  0
 19 20  2  0
 20 21  1  0
 20 32  1  0
 21 22  1  0
 22 23  1  6
 22 24  1  0
 24 25  2  0
 24 26  1  0
 26 27  1  0
 26 31  1  0
 27 28  1  0
 28 29  1  0
 29 30  1  0
 30 31  1  0
 33 34  2  0
M  END
