
     RDKit          3D

 34 37  0  0  0  0  0  0  0  0999 V2000
    9.1560    0.9250    1.1530 C   0  0  0  0  0  0  0  0  0  0  0  0
    8.2200   -0.0360    0.5070 C   0  0  0  0  0  0  0  0  0  0  0  0
    7.4050    0.4230   -0.4790 N   0  0  0  0  0  0  0  0  0  0  0  0
    6.5510   -0.4370   -1.0730 C   0  0  0  0  0  0  0  0  0  0  0  0
    5.6260   -0.0470   -2.1480 C   0  0  0  0  0  0  0  0  0  0  0  0
    4.3650    0.3710   -1.4760 N   0  0  0  0  0  0  0  0  0  0  0  0
    4.2720    1.6140   -0.8320 C   0  0  0  0  0  0  0  0  0  0  0  0
    5.4130    2.2890   -0.9140 O   0  0  0  0  0  0  0  0  0  0  0  0
    3.1900    2.2350   -0.1360 C   0  0  0  0  0  0  0  0  0  0  0  0
    1.9860    2.0480    0.1850 C   0  0  0  0  0  0  0  0  0  0  0  0
    0.9400    1.0610    0.0340 C   0  0  0  0  0  0  0  0  0  0  0  0
    0.8520   -0.0980   -0.6550 C   0  0  0  0  0  0  0  0  0  0  0  0
   -0.4220   -0.6350   -0.4150 C   0  0  0  0  0  0  0  0  0  0  0  0
   -0.9420   -1.8720   -0.9560 C   0  0  0  0  0  0  0  0  0  0  0  0
   -1.3500   -2.8730   -1.3760 N   0  0  0  0  0  0  0  0  0  0  0  0
   -1.0600    0.2390    0.4230 C   0  0  0  0  0  0  0  0  0  0  0  0
   -2.7430   -0.0080    1.0310 S   0  0  0  0  0  0  0  0  0  0  0  0
   -3.8660    0.7720   -0.1640 C   0  0  0  0  0  0  0  0  0  0  0  0
   -5.2570    0.5450    0.3710 C   0  0  0  0  0  0  0  0  0  0  0  0
   -5.8330    1.4690    1.2320 C   0  0  0  0  0  0  0  0  0  0  0  0
   -7.1100    1.2080    1.6930 C   0  0  0  0  0  0  0  0  0  0  0  0
   -7.7810    0.0560    1.2970 C   0  0  0  0  0  0  0  0  0  0  0  0
   -9.0550   -0.2250    1.7430 C   0  0  0  0  0  0  0  0  0  0  0  0
   -9.7000   -1.3720    1.3400 C   0  0  0  0  0  0  0  0  0  0  0  0
   -9.1150   -2.2890    0.4780 C   0  0  0  0  0  0  0  0  0  0  0  0
   -9.9300   -3.7510   -0.0410 Cl  0  0  0  0  0  0  0  0  0  0  0  0
   -7.8410   -2.0040    0.0350 C   0  0  0  0  0  0  0  0  0  0  0  0
   -7.1810   -0.8420    0.4400 C   0  0  0  0  0  0  0  0  0  0  0  0
   -5.9390   -0.5570    0.0130 N   0  0  0  0  0  0  0  0  0  0  0  0
   -0.2580    1.1980    0.6620 O   0  0  0  0  0  0  0  0  0  0  0  0
    6.5520   -1.7470   -0.6430 C   0  0  0  0  0  0  0  0  0  0  0  0
    7.3910   -2.1810    0.3600 C   0  0  0  0  0  0  0  0  0  0  0  0
    7.4240   -3.3670    0.7820 O   0  0  0  0  0  0  0  0  0  0  0  0
    8.1970   -1.2870    0.8930 O   0  0  0  0  0  0  0  0  0  0  0  0
  1  2  1  0
  2  3  2  0
  2 34  1  0
  3  4  1  0
  4  5  1  0
  4 31  2  0
  5  6  1  0
  6  7  1  0
  7  8  2  0
  7  9  1  0
  9 10  2  3
 10 11  1  0
 11 12  2  0
 11 30  1  0
 12 13  1  0
 13 14  1  0
 13 16  2  0
 14 15  3  0
 16 17  1  0
 16 30  1  0
 17 18  1  0
 18 19  1  0
 19 20  2  0
 19 29  1  0
 20 21  1  0
 21 22  2  0
 22 23  1  0
 22 28  1  0
 23 24  2  0
 24 25  1  0
 25 26  1  0
 25 27  2  0
 27 28  1  0
 28 29  2  0
 31 32  1  0
 32 33  2  0
 32 34  1  0
M  END
