
     RDKit          3D

 34 37  0  0  0  0  0  0  0  0999 V2000
    7.4140    3.6630    1.3380 C   0  0  0  0  0  0  0  0  0  0  0  0
    7.2410    4.3690    0.1640 O   0  0  0  0  0  0  0  0  0  0  0  0
    7.3070    3.4980   -0.9150 C   0  0  0  0  0  0  0  0  0  0  0  0
    6.2610    2.4630   -0.7740 C   0  0  0  0  0  0  0  0  0  0  0  0
    5.2990    2.0190   -0.4740 N   0  0  0  0  0  0  0  0  0  0  0  0
    4.3200    1.3830   -0.2210 C   0  0  0  0  0  0  0  0  0  0  0  0
    3.1400    0.6150    0.0840 C   0  0  0  0  0  0  0  0  0  0  0  0
    2.0950    1.3530    0.4500 O   0  0  0  0  0  0  0  0  0  0  0  0
    2.8850   -0.7180    0.0880 N   0  0  0  0  0  0  0  0  0  0  0  0
    1.9590   -1.5210    0.2780 C   0  0  0  0  0  0  0  0  0  0  0  0
    0.6900   -1.0650    0.6090 N   0  0  0  0  0  0  0  0  0  0  0  0
    0.2070   -0.5080    1.8520 C   0  0  0  0  0  0  0  0  0  0  0  0
   -1.1240    0.0790    1.4560 C   0  0  0  0  0  0  0  0  0  0  0  0
   -2.3260   -0.1800    2.0210 C   0  0  0  0  0  0  0  0  0  0  0  0
   -3.2480    0.5550    1.3190 C   0  0  0  0  0  0  0  0  0  0  0  0
   -4.6040    0.7140    1.3900 C   0  0  0  0  0  0  0  0  0  0  0  0
   -5.2890    1.5410    0.5050 C   0  0  0  0  0  0  0  0  0  0  0  0
   -6.7570    1.6220    0.5420 C   0  0  0  0  0  0  0  0  0  0  0  0
   -7.4320    0.5750   -0.2900 C   0  0  2  0  0  0  0  0  0  0  0  0
   -7.0200    0.6160   -1.7290 C   0  0  0  0  0  0  0  0  0  0  0  0
   -8.9580    0.8190   -0.3070 C   0  0  0  0  0  0  0  0  0  0  0  0
   -4.6090    2.2160   -0.4500 C   0  0  0  0  0  0  0  0  0  0  0  0
   -5.3930    3.3830   -1.5330 Cl  0  0  0  0  0  0  0  0  0  0  0  0
   -3.2130    2.0590   -0.5400 C   0  0  0  0  0  0  0  0  0  0  0  0
   -2.5590    1.2340    0.3470 C   0  0  0  0  0  0  0  0  0  0  0  0
   -1.2650    0.9090    0.4820 O   0  0  0  0  0  0  0  0  0  0  0  0
    2.1880   -2.9460    0.0290 N   0  0  0  0  0  0  0  0  0  0  0  0
    2.1140   -3.4690   -1.3040 C   0  0  0  0  0  0  0  0  0  0  0  0
    3.3300   -4.3180   -1.5470 C   0  0  0  0  0  0  0  0  0  0  0  0
    3.3860   -5.2740   -0.4960 O   0  0  0  0  0  0  0  0  0  0  0  0
    3.7470   -4.6070    0.6700 C   0  0  0  0  0  0  0  0  0  0  0  0
    2.5080   -3.8280    1.1270 C   0  0  0  0  0  0  0  0  0  0  0  0
    5.1260    0.0600   -0.9600 C   0  0  0  0  0  0  0  0  0  0  0  0
    6.6720    0.6840   -1.4620 S   0  0  0  0  0  0  0  0  0  0  0  0
  1  2  1  0
  2  3  1  0
  3  4  1  0
  4  5  2  0
  4 34  1  0
  5  6  1  0
  6  7  1  0
  6 33  2  0
  7  8  2  0
  7  9  1  0
  9 10  2  3
 10 11  1  0
 10 27  1  0
 11 12  1  0
 12 13  1  0
 13 14  2  0
 13 26  1  0
 14 15  1  0
 15 16  2  0
 15 25  1  0
 16 17  1  0
 17 18  1  0
 17 22  2  0
 18 19  1  0
 19 20  1  6
 19 21  1  0
 22 23  1  0
 22 24  1  0
 24 25  2  0
 25 26  1  0
 27 28  1  0
 27 32  1  0
 28 29  1  0
 29 30  1  0
 30 31  1  0
 31 32  1  0
 33 34  1  0
M  END
