
     RDKit          3D

 34 37  0  0  0  0  0  0  0  0999 V2000
   -5.9810    2.6570   -0.5070 C   0  0  0  0  0  0  0  0  0  0  0  0
   -5.6720    2.2460    0.8880 C   0  0  0  0  0  0  0  0  0  0  0  0
   -4.6460    1.1520    1.0440 C   0  0  2  0  0  0  0  0  0  0  0  0
   -3.3250    1.4440    0.5210 C   0  0  0  0  0  0  0  0  0  0  0  0
   -2.2760    1.4470    1.2660 O   0  0  0  0  0  0  0  0  0  0  0  0
   -3.0760    1.7480   -0.8340 N   0  0  0  0  0  0  0  0  0  0  0  0
   -1.7290    2.0380   -1.3230 C   0  0  0  0  0  0  0  0  0  0  0  0
   -0.8160    0.8560   -1.0850 C   0  0  0  0  0  0  0  0  0  0  0  0
   -0.0800    0.3740   -0.3170 N   0  0  0  0  0  0  0  0  0  0  0  0
    0.6090   -0.7290   -0.3980 C   0  0  0  0  0  0  0  0  0  0  0  0
    1.5440   -1.2810    0.6550 C   0  0  0  0  0  0  0  0  0  0  0  0
    2.9380   -1.0340    0.2240 C   0  0  0  0  0  0  0  0  0  0  0  0
    3.1710   -0.4390   -0.8710 O   0  0  0  0  0  0  0  0  0  0  0  0
    4.0410   -1.4190    0.9550 O   0  0  0  0  0  0  0  0  0  0  0  0
    5.3260   -1.1590    0.5010 C   0  0  0  0  0  0  0  0  0  0  0  0
    5.9560   -2.0760   -0.3130 C   0  0  0  0  0  0  0  0  0  0  0  0
    5.1030   -3.5410   -0.7440 Cl  0  0  0  0  0  0  0  0  0  0  0  0
    7.2450   -1.8050   -0.7620 C   0  0  0  0  0  0  0  0  0  0  0  0
    7.8650   -0.6300   -0.3870 C   0  0  0  0  0  0  0  0  0  0  0  0
    7.2470    0.3080    0.4330 C   0  0  0  0  0  0  0  0  0  0  0  0
    5.9690    0.0130    0.8640 C   0  0  0  0  0  0  0  0  0  0  0  0
    5.5670    1.1410    1.6920 C   0  0  0  0  0  0  0  0  0  0  0  0
    6.5040    2.0530    1.7700 C   0  0  0  0  0  0  0  0  0  0  0  0
    7.6800    1.6210    0.9750 C   0  0  0  0  0  0  0  0  0  0  0  0
    0.4430   -1.4420   -1.5800 C   0  0  0  0  0  0  0  0  0  0  0  0
    1.0540   -2.7030   -2.0010 C   0  0  0  0  0  0  0  0  0  0  0  0
   -0.7050   -0.4310   -2.4620 S   0  0  0  0  0  0  0  0  0  0  0  0
   -5.1590   -0.1690    0.7240 N   0  0  0  0  0  0  0  0  0  0  0  0
   -4.6960   -0.8580   -0.3150 C   0  0  0  0  0  0  0  0  0  0  0  0
   -5.2340   -2.0870   -0.5400 N   0  0  0  0  0  0  0  0  0  0  0  0
   -6.1830   -2.6250    0.2130 C   0  0  0  0  0  0  0  0  0  0  0  0
   -6.6550   -1.9130    1.2790 C   0  0  0  0  0  0  0  0  0  0  0  0
   -6.1330   -0.6630    1.5380 C   0  0  0  0  0  0  0  0  0  0  0  0
   -6.6000   -0.0540    2.5270 O   0  0  0  0  0  0  0  0  0  0  0  0
  1  2  1  0
  3  2  1  6
  3  4  1  0
  3 28  1  0
  4  5  2  0
  4  6  1  0
  6  7  1  0
  7  8  1  0
  8  9  2  0
  8 27  1  0
  9 10  1  0
 10 11  1  0
 10 25  2  0
 11 12  1  0
 12 13  2  0
 12 14  1  0
 14 15  1  0
 15 16  2  0
 15 21  1  0
 16 17  1  0
 16 18  1  0
 18 19  2  0
 19 20  1  0
 20 21  2  0
 20 24  1  0
 21 22  1  0
 22 23  2  0
 23 24  1  0
 25 26  1  0
 25 27  1  0
 28 29  1  0
 28 33  1  0
 29 30  2  0
 30 31  1  0
 31 32  2  0
 32 33  1  0
 33 34  2  0
M  END
