
     RDKit          3D

 34 37  0  0  0  0  0  0  0  0999 V2000
    9.0250   -2.2720    0.7170 C   0  0  0  0  0  0  0  0  0  0  0  0
    8.1930   -1.0310    0.5180 C   0  0  0  0  0  0  0  0  0  0  0  0
    8.6790    0.2370    0.2910 C   0  0  0  0  0  0  0  0  0  0  0  0
    7.5780    1.0500    0.1700 C   0  0  0  0  0  0  0  0  0  0  0  0
    6.4550    0.2620    0.3260 C   0  0  0  0  0  0  0  0  0  0  0  0
    5.0790    0.8000    0.2580 C   0  0  2  0  0  0  0  0  0  0  0  0
    4.3440    0.5380    1.5380 C   0  0  0  0  0  0  0  0  0  0  0  0
    4.9400   -0.0500    2.4200 O   0  0  0  0  0  0  0  0  0  0  0  0
    4.1150    0.0280   -1.0640 S   0  0  0  0  0  0  0  0  0  0  0  0
    2.4780    0.7700   -1.0330 C   0  0  0  0  0  0  0  0  0  0  0  0
    2.1910    1.8710   -1.7520 N   0  0  0  0  0  0  0  0  0  0  0  0
    0.9710    2.4480   -1.7460 C   0  0  0  0  0  0  0  0  0  0  0  0
    0.6980    3.4770   -2.4150 O   0  0  0  0  0  0  0  0  0  0  0  0
   -0.0440    1.9020   -0.9760 C   0  0  0  0  0  0  0  0  0  0  0  0
    0.2480    0.7700   -0.2360 C   0  0  0  0  0  0  0  0  0  0  0  0
   -0.7500    0.1670    0.5700 N   0  0  0  0  0  0  0  0  0  0  0  0
   -1.8090   -0.2770    0.0400 C   0  0  0  0  0  0  0  0  0  0  0  0
   -2.9150   -0.9260    0.7940 C   0  0  0  0  0  0  0  0  0  0  0  0
   -4.0750   -0.1470    0.5730 O   0  0  0  0  0  0  0  0  0  0  0  0
   -5.2750   -0.5020    1.1500 C   0  0  0  0  0  0  0  0  0  0  0  0
   -5.3360   -1.6210    1.9430 C   0  0  0  0  0  0  0  0  0  0  0  0
   -6.5610   -1.9660    2.5200 C   0  0  0  0  0  0  0  0  0  0  0  0
   -7.6760   -1.2050    2.2980 C   0  0  0  0  0  0  0  0  0  0  0  0
   -9.1940   -1.6650    3.0360 Cl  0  0  0  0  0  0  0  0  0  0  0  0
   -7.5800   -0.0930    1.5000 C   0  0  0  0  0  0  0  0  0  0  0  0
   -6.3800    0.2720    0.9160 C   0  0  0  0  0  0  0  0  0  0  0  0
   -6.3570    1.4790    0.0720 C   0  0  0  0  0  0  0  0  0  0  0  0
   -1.9860   -0.1660   -1.3680 N   0  0  0  0  0  0  0  0  0  0  0  0
   -1.0900   -0.6760   -2.2450 C   0  0  0  0  0  0  0  0  0  0  0  0
   -1.5900   -0.3800   -3.4990 C   0  0  0  0  0  0  0  0  0  0  0  0
   -2.7670    0.2970   -3.3550 C   0  0  0  0  0  0  0  0  0  0  0  0
   -2.9990    0.4220   -2.0020 C   0  0  0  0  0  0  0  0  0  0  0  0
    1.4920    0.2430   -0.2880 N   0  0  0  0  0  0  0  0  0  0  0  0
    6.8890   -0.9380    0.5250 O   0  0  0  0  0  0  0  0  0  0  0  0
  1  2  1  0
  2  3  2  0
  2 34  1  0
  3  4  1  0
  4  5  2  0
  5  6  1  0
  5 34  1  0
  6  7  1  0
  6  9  1  6
  7  8  2  0
  9 10  1  0
 10 11  2  0
 10 33  1  0
 11 12  1  0
 12 13  2  0
 12 14  1  0
 14 15  2  0
 15 16  1  0
 15 33  1  0
 16 17  2  3
 17 18  1  0
 17 28  1  0
 18 19  1  0
 19 20  1  0
 20 21  2  0
 20 26  1  0
 21 22  1  0
 22 23  2  0
 23 24  1  0
 23 25  1  0
 25 26  2  0
 26 27  1  0
 28 29  1  0
 28 32  1  0
 29 30  2  0
 30 31  1  0
 31 32  2  0
M  END
