
     RDKit          3D

 34 37  0  0  0  0  0  0  0  0999 V2000
    2.1600   -1.3120   -0.3420 O   0  0  0  0  0  0  0  0  0  0  0  0
    2.8840   -0.6700    0.4420 C   0  0  0  0  0  0  0  0  0  0  0  0
    2.5290   -0.7140    1.8060 O   0  0  0  0  0  0  0  0  0  0  0  0
    1.4150   -1.4450    2.2550 C   0  0  0  0  0  0  0  0  0  0  0  0
    0.1900   -0.9690    1.6530 C   0  0  0  0  0  0  0  0  0  0  0  0
   -1.0360   -1.2200    1.6030 N   0  0  0  0  0  0  0  0  0  0  0  0
   -1.8880   -0.5610    0.9390 N   0  0  0  0  0  0  0  0  0  0  0  0
   -1.6790    0.4130    0.2460 C   0  0  0  0  0  0  0  0  0  0  0  0
   -2.3280    1.3520   -0.5890 N   0  0  0  0  0  0  0  0  0  0  0  0
   -3.4730    1.8140   -0.3250 C   0  0  0  0  0  0  0  0  0  0  0  0
   -4.1340    1.3610    0.8710 N   0  0  0  0  0  0  0  0  0  0  0  0
   -3.8540    1.8320    2.1110 C   0  0  0  0  0  0  0  0  0  0  0  0
   -4.6670    1.1820    2.9980 C   0  0  0  0  0  0  0  0  0  0  0  0
   -5.4300    0.3180    2.2440 C   0  0  0  0  0  0  0  0  0  0  0  0
   -5.0870    0.4350    0.8860 C   0  0  0  0  0  0  0  0  0  0  0  0
   -5.7280   -0.3530   -0.1520 C   0  0  0  0  0  0  0  0  0  0  0  0
   -6.7320   -1.2740    0.1620 C   0  0  0  0  0  0  0  0  0  0  0  0
   -7.3650   -2.0410   -0.7870 C   0  0  0  0  0  0  0  0  0  0  0  0
   -7.0310   -1.9340   -2.1120 C   0  0  0  0  0  0  0  0  0  0  0  0
   -7.8640   -2.9320   -3.2850 Cl  0  0  0  0  0  0  0  0  0  0  0  0
   -6.0520   -1.0440   -2.4560 C   0  0  0  0  0  0  0  0  0  0  0  0
   -5.4100   -0.2630   -1.4780 C   0  0  0  0  0  0  0  0  0  0  0  0
    0.1890    0.5410    0.5130 S   0  0  0  0  0  0  0  0  0  0  0  0
    4.0290    0.0810   -0.0210 C   0  0  0  0  0  0  0  0  0  0  0  0
    4.8050    0.7640    0.8030 C   0  0  0  0  0  0  0  0  0  0  0  0
    4.6690    0.8820    2.2220 C   0  0  0  0  0  0  0  0  0  0  0  0
    5.5610    1.6290    2.9220 C   0  0  0  0  0  0  0  0  0  0  0  0
    5.4620    1.7640    4.2790 O   0  0  0  0  0  0  0  0  0  0  0  0
    4.3820    0.1050   -1.4240 C   0  0  0  0  0  0  0  0  0  0  0  0
    3.6880   -0.5270   -2.3590 C   0  0  0  0  0  0  0  0  0  0  0  0
    4.0790   -0.4810   -3.8010 C   0  0  0  0  0  0  0  0  0  0  0  0
    5.4060   -0.3100   -4.0400 O   0  0  0  0  0  0  0  0  0  0  0  0
    6.2040   -0.2140   -2.9350 C   0  0  0  0  0  0  0  0  0  0  0  0
    5.5700    0.8300   -1.9890 C   0  0  0  0  0  0  0  0  0  0  0  0
  1  2  2  0
  2  3  1  0
  2 24  1  0
  3  4  1  0
  4  5  1  0
  5  6  2  0
  5 23  1  0
  6  7  1  0
  7  8  2  0
  8  9  1  0
  8 23  1  0
  9 10  2  3
 10 11  1  0
 11 12  1  0
 11 15  1  0
 12 13  2  0
 13 14  1  0
 14 15  2  0
 15 16  1  0
 16 17  2  0
 16 22  1  0
 17 18  1  0
 18 19  2  0
 19 20  1  0
 19 21  1  0
 21 22  2  0
 24 25  2  3
 24 29  1  0
 25 26  1  0
 26 27  2  3
 27 28  1  0
 29 30  2  0
 29 34  1  0
 30 31  1  0
 31 32  1  0
 32 33  1  0
 33 34  1  0
M  END
