
     RDKit          3D

 34 37  0  0  0  0  0  0  0  0999 V2000
   -7.3930    1.5550    1.6630 C   0  0  0  0  0  0  0  0  0  0  0  0
   -6.7250    1.2220    2.7520 C   0  0  0  0  0  0  0  0  0  0  0  0
   -5.7590    0.0960    2.7500 C   0  0  0  0  0  0  0  0  0  0  0  0
   -5.6630   -0.5550    1.4180 C   0  0  0  0  0  0  0  0  0  0  0  0
   -6.4710   -1.6050    1.0430 C   0  0  0  0  0  0  0  0  0  0  0  0
   -6.3360   -2.1710   -0.2050 C   0  0  0  0  0  0  0  0  0  0  0  0
   -5.4150   -1.7400   -1.1340 C   0  0  0  0  0  0  0  0  0  0  0  0
   -5.3050   -2.3270   -2.3740 C   0  0  0  0  0  0  0  0  0  0  0  0
   -6.3630   -3.6730   -2.8140 Cl  0  0  0  0  0  0  0  0  0  0  0  0
   -4.3930   -1.9080   -3.3090 C   0  0  0  0  0  0  0  0  0  0  0  0
   -3.5810   -0.8590   -2.9410 C   0  0  0  0  0  0  0  0  0  0  0  0
   -3.6630   -0.2380   -1.6920 C   0  0  0  0  0  0  0  0  0  0  0  0
   -2.7670    0.8540   -1.3950 C   0  0  0  0  0  0  0  0  0  0  0  0
   -2.6690    1.5260   -0.3660 O   0  0  0  0  0  0  0  0  0  0  0  0
   -1.8650    1.2250   -2.4140 O   0  0  0  0  0  0  0  0  0  0  0  0
   -0.9560    2.2660   -2.2260 C   0  0  0  0  0  0  0  0  0  0  0  0
   -0.0510    1.9740   -1.0950 C   0  0  0  0  0  0  0  0  0  0  0  0
   -0.2000    2.3460    0.1840 N   0  0  0  0  0  0  0  0  0  0  0  0
    0.8280    1.8870    0.9030 N   0  0  0  0  0  0  0  0  0  0  0  0
    1.6460    1.2150    0.0850 C   0  0  0  0  0  0  0  0  0  0  0  0
    3.1590    0.4060    0.5430 S   0  0  0  0  0  0  0  0  0  0  0  0
    3.9310   -0.3720   -0.9290 C   0  0  1  0  0  0  0  0  0  0  0  0
    4.3910    0.6510   -1.9220 C   0  0  0  0  0  0  0  0  0  0  0  0
    4.9810   -1.3000   -0.4730 C   0  0  0  0  0  0  0  0  0  0  0  0
    4.8610   -2.5420   -0.7780 O   0  0  0  0  0  0  0  0  0  0  0  0
    6.0980   -0.8730    0.2800 N   0  0  0  0  0  0  0  0  0  0  0  0
    7.1270   -1.7910    0.7280 C   0  0  0  0  0  0  0  0  0  0  0  0
    8.1580   -0.9380    1.4680 C   0  0  0  0  0  0  0  0  0  0  0  0
    8.6240    0.0910    0.6830 O   0  0  0  0  0  0  0  0  0  0  0  0
    7.6550    0.9200    0.1750 C   0  0  0  0  0  0  0  0  0  0  0  0
    6.2470    0.5160    0.6270 C   0  0  0  0  0  0  0  0  0  0  0  0
    1.1040    1.2710   -1.1360 N   0  0  0  0  0  0  0  0  0  0  0  0
   -4.5830   -0.6740   -0.7740 C   0  0  0  0  0  0  0  0  0  0  0  0
   -4.7270   -0.1160    0.4760 C   0  0  0  0  0  0  0  0  0  0  0  0
  1  2  2  0
  2  3  1  0
  3  4  1  0
  4  5  2  0
  4 34  1  0
  5  6  1  0
  6  7  2  0
  7  8  1  0
  7 33  1  0
  8  9  1  0
  8 10  2  0
 10 11  1  0
 11 12  2  0
 12 13  1  0
 12 33  1  0
 13 14  2  0
 13 15  1  0
 15 16  1  0
 16 17  1  0
 17 18  2  0
 17 32  1  0
 18 19  1  0
 19 20  2  0
 20 21  1  0
 20 32  1  0
 21 22  1  0
 22 23  1  6
 22 24  1  0
 24 25  2  0
 24 26  1  0
 26 27  1  0
 26 31  1  0
 27 28  1  0
 28 29  1  0
 29 30  1  0
 30 31  1  0
 33 34  2  0
M  END
