
     RDKit          3D

 34 37  0  0  0  0  0  0  0  0999 V2000
   -2.1390    0.7570   -1.4820 C   0  0  0  0  0  0  0  0  0  0  0  0
   -1.1490   -0.1900   -0.8830 C   0  0  2  0  0  0  0  0  0  0  0  0
   -0.4770   -0.9060   -2.0640 C   0  0  0  0  0  0  0  0  0  0  0  0
   -1.7000   -1.2630   -0.0070 C   0  0  0  0  0  0  0  0  0  0  0  0
   -2.4020   -0.8940    1.2030 C   0  0  0  0  0  0  0  0  0  0  0  0
   -1.6450   -0.8490    2.3260 O   0  0  0  0  0  0  0  0  0  0  0  0
   -2.1180   -0.5330    3.4920 C   0  0  0  0  0  0  0  0  0  0  0  0
   -3.4460   -0.2210    3.6380 C   0  0  0  0  0  0  0  0  0  0  0  0
   -4.2710   -0.2460    2.5480 C   0  0  0  0  0  0  0  0  0  0  0  0
   -5.4920    0.0240    2.5950 O   0  0  0  0  0  0  0  0  0  0  0  0
   -3.7100   -0.5970    1.2990 C   0  0  0  0  0  0  0  0  0  0  0  0
   -4.6100   -0.6250    0.1670 C   0  0  0  0  0  0  0  0  0  0  0  0
   -5.1980    0.5380   -0.3200 C   0  0  0  0  0  0  0  0  0  0  0  0
   -6.0550    0.5450   -1.3920 C   0  0  0  0  0  0  0  0  0  0  0  0
   -6.3180   -0.6730   -1.9830 C   0  0  0  0  0  0  0  0  0  0  0  0
   -5.7450   -1.8400   -1.5160 C   0  0  0  0  0  0  0  0  0  0  0  0
   -6.0980   -3.3910   -2.2920 Cl  0  0  0  0  0  0  0  0  0  0  0  0
   -4.8900   -1.8330   -0.4420 C   0  0  0  0  0  0  0  0  0  0  0  0
   -0.1150    0.6260   -0.1210 C   0  0  0  0  0  0  0  0  0  0  0  0
    0.7370    1.7530   -1.1350 S   0  0  1  0  0  0  0  0  0  0  0  0
    1.4100    1.1710   -2.3170 O   0  0  0  0  0  0  0  0  0  0  0  0
   -0.2330    2.8180   -1.6500 O   0  0  0  0  0  0  0  0  0  0  0  0
    1.9650    2.6740   -0.2040 C   0  0  0  0  0  0  0  0  0  0  0  0
    2.9830    1.8250    0.4040 C   0  0  0  0  0  0  0  0  0  0  0  0
    4.2140    1.4590   -0.1420 C   0  0  0  0  0  0  0  0  0  0  0  0
    4.8830    0.6500    0.7530 C   0  0  0  0  0  0  0  0  0  0  0  0
    6.2140    0.0460    0.5850 C   0  0  0  0  0  0  0  0  0  0  0  0
    6.7190   -0.7120    1.5590 N   0  0  0  0  0  0  0  0  0  0  0  0
    7.9370   -1.2950    1.4820 C   0  0  0  0  0  0  0  0  0  0  0  0
    8.6890   -1.0980    0.3480 C   0  0  0  0  0  0  0  0  0  0  0  0
    8.1700   -0.3150   -0.6620 C   0  0  0  0  0  0  0  0  0  0  0  0
    6.9410    0.2380   -0.5140 N   0  0  0  0  0  0  0  0  0  0  0  0
    4.0650    0.5370    1.8080 N   0  0  0  0  0  0  0  0  0  0  0  0
    2.9560    1.2230    1.6040 N   0  0  0  0  0  0  0  0  0  0  0  0
  2  1  1  6
  2  3  1  0
  2  4  1  0
  2 19  1  0
  4  5  1  0
  5  6  1  0
  5 11  2  0
  6  7  1  0
  7  8  2  0
  8  9  1  0
  9 10  2  0
  9 11  1  0
 11 12  1  0
 12 13  2  0
 12 18  1  0
 13 14  1  0
 14 15  2  0
 15 16  1  0
 16 17  1  0
 16 18  2  0
 20 19  1  1
 20 21  2  0
 20 22  2  0
 20 23  1  0
 23 24  1  0
 24 25  1  0
 24 34  2  0
 25 26  2  0
 26 27  1  0
 26 33  1  0
 27 28  2  0
 27 32  1  0
 28 29  1  0
 29 30  2  0
 30 31  1  0
 31 32  2  0
 33 34  1  0
M  END
