
     RDKit          3D

 34 37  0  0  0  0  0  0  0  0999 V2000
   -7.1040    1.2720    0.3610 C   0  0  0  0  0  0  0  0  0  0  0  0
   -6.9820    0.0420   -0.0920 C   0  0  0  0  0  0  0  0  0  0  0  0
   -7.9700   -1.0260    0.3130 C   0  0  0  0  0  0  0  0  0  0  0  0
   -7.2780   -2.2230    0.4380 O   0  0  0  0  0  0  0  0  0  0  0  0
   -6.2490   -2.5540   -0.4040 C   0  0  0  0  0  0  0  0  0  0  0  0
   -5.9090   -3.7520   -0.5530 O   0  0  0  0  0  0  0  0  0  0  0  0
   -5.5410   -1.5270   -1.1330 C   0  0  0  0  0  0  0  0  0  0  0  0
   -5.8770   -0.2670   -0.9950 C   0  0  0  0  0  0  0  0  0  0  0  0
   -5.1440    0.8070   -1.7020 C   0  0  0  0  0  0  0  0  0  0  0  0
   -3.7430    0.0920   -2.5860 S   0  0  0  0  0  0  0  0  0  0  0  0
   -2.4640   -0.3260   -1.4140 C   0  0  0  0  0  0  0  0  0  0  0  0
   -1.4970    0.6210   -1.0460 C   0  0  0  0  0  0  0  0  0  0  0  0
   -0.4830    0.3910   -0.1760 C   0  0  0  0  0  0  0  0  0  0  0  0
    0.5200    1.3990    0.1970 C   0  0  0  0  0  0  0  0  0  0  0  0
    0.4670    2.6660   -0.3260 C   0  0  0  0  0  0  0  0  0  0  0  0
    1.4410    3.5990    0.0550 C   0  0  0  0  0  0  0  0  0  0  0  0
    2.3920    3.1690    0.9400 C   0  0  0  0  0  0  0  0  0  0  0  0
    3.2830    3.9740    1.3080 O   0  0  0  0  0  0  0  0  0  0  0  0
    2.4080    1.9180    1.4290 N   0  0  0  0  0  0  0  0  0  0  0  0
    3.4720    1.5480    2.3740 C   0  0  0  0  0  0  0  0  0  0  0  0
    4.6440    1.0160    1.6170 C   0  0  0  0  0  0  0  0  0  0  0  0
    5.5010    1.8270    1.2600 O   0  0  0  0  0  0  0  0  0  0  0  0
    4.7280   -0.3570    1.3460 N   0  0  0  0  0  0  0  0  0  0  0  0
    5.7900   -0.9380    0.6370 C   0  0  0  0  0  0  0  0  0  0  0  0
    6.7150   -0.2800   -0.1120 C   0  0  0  0  0  0  0  0  0  0  0  0
    7.7560   -0.9500   -0.7710 C   0  0  0  0  0  0  0  0  0  0  0  0
    7.8700   -2.3150   -0.6770 C   0  0  0  0  0  0  0  0  0  0  0  0
    9.1650   -3.1760   -1.4950 Cl  0  0  0  0  0  0  0  0  0  0  0  0
    6.9400   -2.9690    0.0730 C   0  0  0  0  0  0  0  0  0  0  0  0
    5.9300   -2.3340    0.7150 C   0  0  0  0  0  0  0  0  0  0  0  0
    1.4880    1.0500    1.0630 N   0  0  0  0  0  0  0  0  0  0  0  0
   -0.3980   -0.8870    0.3950 C   0  0  0  0  0  0  0  0  0  0  0  0
   -1.3470   -1.8230    0.0360 C   0  0  0  0  0  0  0  0  0  0  0  0
   -2.3280   -1.5220   -0.8360 N   0  0  0  0  0  0  0  0  0  0  0  0
  1  2  2  0
  2  3  1  0
  2  8  1  0
  3  4  1  0
  4  5  1  0
  5  6  2  0
  5  7  1  0
  7  8  2  0
  8  9  1  0
  9 10  1  0
 10 11  1  0
 11 12  2  0
 11 34  1  0
 12 13  1  0
 13 14  1  0
 13 32  2  0
 14 15  1  0
 14 31  2  0
 15 16  2  0
 16 17  1  0
 17 18  2  0
 17 19  1  0
 19 20  1  0
 19 31  1  0
 20 21  1  0
 21 22  2  0
 21 23  1  0
 23 24  1  0
 24 25  2  0
 24 30  1  0
 25 26  1  0
 26 27  2  0
 27 28  1  0
 27 29  1  0
 29 30  2  0
 32 33  1  0
 33 34  2  0
M  END
