
     RDKit          3D

 34 37  0  0  0  0  0  0  0  0999 V2000
    7.5610    2.8910   -0.7470 C   0  0  0  0  0  0  0  0  0  0  0  0
    7.5810    1.5430   -0.3960 O   0  0  0  0  0  0  0  0  0  0  0  0
    6.8870    1.2680    0.7640 C   0  0  0  0  0  0  0  0  0  0  0  0
    5.4510    1.6730    0.5780 C   0  0  0  0  0  0  0  0  0  0  0  0
    4.4620    1.2990    0.1970 N   0  0  0  0  0  0  0  0  0  0  0  0
    3.2810    1.8710    0.1400 C   0  0  0  0  0  0  0  0  0  0  0  0
    2.0490    1.2240   -0.4060 C   0  0  0  0  0  0  0  0  0  0  0  0
    0.9390    1.8540   -0.4220 O   0  0  0  0  0  0  0  0  0  0  0  0
    2.0030   -0.0590   -0.9220 N   0  0  0  0  0  0  0  0  0  0  0  0
    1.9010   -1.1950   -0.4200 C   0  0  0  0  0  0  0  0  0  0  0  0
    1.8000   -1.3530    0.9890 N   0  0  0  0  0  0  0  0  0  0  0  0
    1.0550   -0.4520    1.8300 C   0  0  0  0  0  0  0  0  0  0  0  0
   -0.4040   -0.4160    1.4490 C   0  0  0  0  0  0  0  0  0  0  0  0
   -1.3840    0.2980    2.1200 C   0  0  0  0  0  0  0  0  0  0  0  0
   -2.5930    0.0910    1.4860 C   0  0  0  0  0  0  0  0  0  0  0  0
   -3.8900    0.5190    1.6800 C   0  0  0  0  0  0  0  0  0  0  0  0
   -4.9290    0.1290    0.8520 C   0  0  0  0  0  0  0  0  0  0  0  0
   -6.3230    0.5550    1.0160 C   0  0  0  0  0  0  0  0  0  0  0  0
   -6.7510    1.6050    0.0340 C   0  0  1  0  0  0  0  0  0  0  0  0
   -8.2120    1.9370    0.3330 C   0  0  0  0  0  0  0  0  0  0  0  0
   -5.9730    2.8910    0.2860 C   0  0  0  0  0  0  0  0  0  0  0  0
   -4.6090   -0.7160   -0.1890 C   0  0  0  0  0  0  0  0  0  0  0  0
   -5.8490   -1.2670   -1.2930 Cl  0  0  0  0  0  0  0  0  0  0  0  0
   -3.3210   -1.1610   -0.4080 C   0  0  0  0  0  0  0  0  0  0  0  0
   -2.2920   -0.7560    0.4380 C   0  0  0  0  0  0  0  0  0  0  0  0
   -1.0070   -1.0170    0.4640 O   0  0  0  0  0  0  0  0  0  0  0  0
    1.8940   -2.3450   -1.2650 N   0  0  0  0  0  0  0  0  0  0  0  0
    0.9240   -3.3950   -1.2450 C   0  0  0  0  0  0  0  0  0  0  0  0
    1.6570   -4.7080   -1.1230 C   0  0  0  0  0  0  0  0  0  0  0  0
    2.5870   -4.8590   -2.1200 O   0  0  0  0  0  0  0  0  0  0  0  0
    3.5510   -3.8670   -2.1400 C   0  0  0  0  0  0  0  0  0  0  0  0
    2.9600   -2.4840   -2.2450 C   0  0  0  0  0  0  0  0  0  0  0  0
    3.2170    3.1490    0.6240 C   0  0  0  0  0  0  0  0  0  0  0  0
    4.9630    3.4140    1.1430 S   0  0  0  0  0  0  0  0  0  0  0  0
  1  2  1  0
  2  3  1  0
  3  4  1  0
  4  5  2  0
  4 34  1  0
  5  6  1  0
  6  7  1  0
  6 33  2  0
  7  8  2  0
  7  9  1  0
  9 10  2  3
 10 11  1  0
 10 27  1  0
 11 12  1  0
 12 13  1  0
 13 14  2  0
 13 26  1  0
 14 15  1  0
 15 16  2  0
 15 25  1  0
 16 17  1  0
 17 18  1  0
 17 22  2  0
 18 19  1  0
 19 20  1  1
 19 21  1  0
 22 23  1  0
 22 24  1  0
 24 25  2  0
 25 26  1  0
 27 28  1  0
 27 32  1  0
 28 29  1  0
 29 30  1  0
 30 31  1  0
 31 32  1  0
 33 34  1  0
M  END
