
     RDKit          3D

 35 37  0  0  0  0  0  0  0  0999 V2000
   -2.8470    2.3720   -0.4400 C   0  0  0  0  0  0  0  0  0  0  0  0
   -3.7920    1.4830    0.3540 C   0  0  2  0  0  0  0  0  0  0  0  0
   -4.8270    2.3400    1.0520 C   0  0  0  0  0  0  0  0  0  0  0  0
   -2.9630    0.7590    1.3640 C   0  0  0  0  0  0  0  0  0  0  0  0
   -1.9500   -0.0520    0.7330 N   0  0  0  0  0  0  0  0  0  0  0  0
   -0.6890    0.2090    1.3210 C   0  0  0  0  0  0  0  0  0  0  0  0
    0.4720    0.2290    0.3780 C   0  0  1  0  0  0  0  0  0  0  0  0
    0.4050    1.1630   -0.6260 O   0  0  0  0  0  0  0  0  0  0  0  0
    1.7480    0.2620    1.1740 C   0  0  2  0  0  0  0  0  0  0  0  0
    1.9890    1.5590    1.9050 C   0  0  0  0  0  0  0  0  0  0  0  0
    2.0820    2.7400    1.0150 C   0  0  0  0  0  0  0  0  0  0  0  0
    1.0060    3.5230    0.6680 C   0  0  0  0  0  0  0  0  0  0  0  0
    1.1500    4.6230   -0.1770 C   0  0  0  0  0  0  0  0  0  0  0  0
    2.3820    4.9660   -0.6980 C   0  0  0  0  0  0  0  0  0  0  0  0
    3.4610    4.1840   -0.3520 C   0  0  0  0  0  0  0  0  0  0  0  0
    3.3170    3.1140    0.4710 C   0  0  0  0  0  0  0  0  0  0  0  0
    2.9130    0.0060    0.3090 N   0  0  0  0  0  0  0  0  0  0  0  0
    3.7380   -1.1090    0.5210 C   0  0  0  0  0  0  0  0  0  0  0  0
    3.4400   -1.8800    1.4810 O   0  0  0  0  0  0  0  0  0  0  0  0
    4.8580   -1.3970   -0.2730 O   0  0  0  0  0  0  0  0  0  0  0  0
    5.5930   -2.5460    0.0540 C   0  0  1  0  0  0  0  0  0  0  0  0
    5.6910   -3.5190   -1.1020 C   0  0  0  0  0  0  0  0  0  0  0  0
    6.9920   -4.2190   -0.7750 C   0  0  0  0  0  0  0  0  0  0  0  0
    7.7720   -3.3650   -0.0530 O   0  0  0  0  0  0  0  0  0  0  0  0
    7.0520   -2.2660    0.3190 C   0  0  0  0  0  0  0  0  0  0  0  0
   -2.4270   -1.6590    0.6320 S   0  0  1  0  0  0  0  0  0  0  0  0
   -1.3660   -2.4930   -0.0450 O   0  0  0  0  0  0  0  0  0  0  0  0
   -2.7710   -2.2610    1.9890 O   0  0  0  0  0  0  0  0  0  0  0  0
   -3.8690   -1.8190   -0.3340 C   0  0  0  0  0  0  0  0  0  0  0  0
   -3.8430   -1.9030   -1.7160 C   0  0  0  0  0  0  0  0  0  0  0  0
   -4.9960   -2.0450   -2.4640 C   0  0  0  0  0  0  0  0  0  0  0  0
   -6.2290   -2.1090   -1.8300 C   0  0  0  0  0  0  0  0  0  0  0  0
   -7.4510   -2.2550   -2.5310 N   0  0  0  0  0  0  0  0  0  0  0  0
   -6.2880   -2.0290   -0.4560 C   0  0  0  0  0  0  0  0  0  0  0  0
   -5.1360   -1.8890    0.2480 C   0  0  0  0  0  0  0  0  0  0  0  0
  2  1  1  1
  2  3  1  0
  2  4  1  0
  4  5  1  0
  5  6  1  0
 26  5  1  1
  6  7  1  0
  7  8  1  6
  7  9  1  0
  9 10  1  6
  9 17  1  0
 10 11  1  0
 11 12  2  0
 11 16  1  0
 12 13  1  0
 13 14  2  0
 14 15  1  0
 15 16  2  0
 17 18  1  0
 18 19  2  0
 18 20  1  0
 21 20  1  6
 21 22  1  0
 21 25  1  0
 22 23  1  0
 23 24  1  0
 24 25  1  0
 26 27  2  0
 26 28  2  0
 26 29  1  0
 29 30  2  0
 29 35  1  0
 30 31  1  0
 31 32  2  0
 32 33  1  0
 32 34  1  0
 34 35  2  0
M  END
