
     RDKit          3D

 34 37  0  0  0  0  0  0  0  0999 V2000
   -7.4000   -3.4230   -1.2530 C   0  0  0  0  0  0  0  0  0  0  0  0
   -6.3840   -2.6930   -0.7890 C   0  0  0  0  0  0  0  0  0  0  0  0
   -5.5020   -1.9590   -1.7570 C   0  0  0  0  0  0  0  0  0  0  0  0
   -5.5350   -0.4880   -1.4980 C   0  0  0  0  0  0  0  0  0  0  0  0
   -6.4420    0.3510   -2.0970 C   0  0  0  0  0  0  0  0  0  0  0  0
   -6.4720    1.6980   -1.8590 C   0  0  0  0  0  0  0  0  0  0  0  0
   -5.5530    2.2400   -0.9810 C   0  0  0  0  0  0  0  0  0  0  0  0
   -5.6130    3.6010   -0.7680 C   0  0  0  0  0  0  0  0  0  0  0  0
   -6.8170    4.6020   -1.5870 Cl  0  0  0  0  0  0  0  0  0  0  0  0
   -4.7030    4.1540    0.1020 C   0  0  0  0  0  0  0  0  0  0  0  0
   -3.7700    3.3670    0.7340 C   0  0  0  0  0  0  0  0  0  0  0  0
   -3.6920    1.9710    0.5300 C   0  0  0  0  0  0  0  0  0  0  0  0
   -2.6870    1.2100    1.2330 C   0  0  0  0  0  0  0  0  0  0  0  0
   -1.8580    1.8080    2.0040 O   0  0  0  0  0  0  0  0  0  0  0  0
   -2.5350   -0.1360    1.1470 O   0  0  0  0  0  0  0  0  0  0  0  0
   -1.5400   -0.8600    1.8460 C   0  0  0  0  0  0  0  0  0  0  0  0
   -0.2180   -0.3460    1.4190 C   0  0  0  0  0  0  0  0  0  0  0  0
    0.0330    0.6130    0.5230 N   0  0  0  0  0  0  0  0  0  0  0  0
    1.3220    0.7700    0.4340 N   0  0  0  0  0  0  0  0  0  0  0  0
    1.9070   -0.1000    1.2850 C   0  0  0  0  0  0  0  0  0  0  0  0
    3.6650   -0.2940    1.5510 S   0  0  0  0  0  0  0  0  0  0  0  0
    4.5570    0.8850    0.4800 C   0  0  1  0  0  0  0  0  0  0  0  0
    4.2820    2.3090    0.8960 C   0  0  0  0  0  0  0  0  0  0  0  0
    6.0050    0.5590    0.6030 C   0  0  0  0  0  0  0  0  0  0  0  0
    6.7640    1.4520    1.0500 O   0  0  0  0  0  0  0  0  0  0  0  0
    6.5460   -0.6900    0.2450 N   0  0  0  0  0  0  0  0  0  0  0  0
    7.9600   -0.9200    0.3980 C   0  0  0  0  0  0  0  0  0  0  0  0
    8.4800   -1.4420   -0.9290 C   0  0  0  0  0  0  0  0  0  0  0  0
    7.7390   -2.5910   -1.2320 O   0  0  0  0  0  0  0  0  0  0  0  0
    6.4320   -2.2560   -1.5480 C   0  0  0  0  0  0  0  0  0  0  0  0
    5.7440   -1.7710   -0.2790 C   0  0  0  0  0  0  0  0  0  0  0  0
    0.9500   -0.8040    1.9070 N   0  0  0  0  0  0  0  0  0  0  0  0
   -4.6000    1.4360   -0.3360 C   0  0  0  0  0  0  0  0  0  0  0  0
   -4.6130    0.0860   -0.6100 C   0  0  0  0  0  0  0  0  0  0  0  0
  1  2  2  0
  2  3  1  0
  3  4  1  0
  4  5  2  0
  4 34  1  0
  5  6  1  0
  6  7  2  0
  7  8  1  0
  7 33  1  0
  8  9  1  0
  8 10  2  0
 10 11  1  0
 11 12  2  0
 12 13  1  0
 12 33  1  0
 13 14  2  0
 13 15  1  0
 15 16  1  0
 16 17  1  0
 17 18  2  0
 17 32  1  0
 18 19  1  0
 19 20  2  0
 20 21  1  0
 20 32  1  0
 21 22  1  0
 22 23  1  1
 22 24  1  0
 24 25  2  0
 24 26  1  0
 26 27  1  0
 26 31  1  0
 27 28  1  0
 28 29  1  0
 29 30  1  0
 30 31  1  0
 33 34  2  0
M  END
