
     RDKit          3D

 34 37  0  0  0  0  0  0  0  0999 V2000
    6.3840    0.2990   -2.2320 C   0  0  0  0  0  0  0  0  0  0  0  0
    5.7780   -0.6350   -1.2170 C   0  0  0  0  0  0  0  0  0  0  0  0
    5.7680   -2.0020   -1.2700 C   0  0  0  0  0  0  0  0  0  0  0  0
    5.1170   -2.4400   -0.1490 C   0  0  0  0  0  0  0  0  0  0  0  0
    4.7380   -1.3010    0.5750 C   0  0  0  0  0  0  0  0  0  0  0  0
    4.0000   -1.3050    1.8690 C   0  0  2  0  0  0  0  0  0  0  0  0
    4.6860   -2.1400    2.8610 C   0  0  0  0  0  0  0  0  0  0  0  0
    4.1210   -3.0940    3.3530 O   0  0  0  0  0  0  0  0  0  0  0  0
    2.3360   -1.9670    1.4920 S   0  0  0  0  0  0  0  0  0  0  0  0
    1.4600   -0.8240    0.4350 C   0  0  0  0  0  0  0  0  0  0  0  0
    1.5810   -0.9500   -0.9140 N   0  0  0  0  0  0  0  0  0  0  0  0
    0.9590   -0.1340   -1.7710 C   0  0  0  0  0  0  0  0  0  0  0  0
    1.0740   -0.2550   -3.0310 O   0  0  0  0  0  0  0  0  0  0  0  0
    0.1690    0.8670   -1.2690 C   0  0  0  0  0  0  0  0  0  0  0  0
    0.0150    1.0350    0.1010 C   0  0  0  0  0  0  0  0  0  0  0  0
   -0.7610    2.0470    0.6460 N   0  0  0  0  0  0  0  0  0  0  0  0
   -1.9840    2.2100    0.7980 C   0  0  0  0  0  0  0  0  0  0  0  0
   -2.9850    1.2320    0.3730 C   0  0  0  0  0  0  0  0  0  0  0  0
   -2.4530    0.0630   -0.1990 O   0  0  0  0  0  0  0  0  0  0  0  0
   -3.3930   -0.9020   -0.6200 C   0  0  0  0  0  0  0  0  0  0  0  0
   -4.7570   -0.6830   -0.4660 C   0  0  0  0  0  0  0  0  0  0  0  0
   -5.6840   -1.6280   -0.8780 C   0  0  0  0  0  0  0  0  0  0  0  0
   -5.2920   -2.8200   -1.4550 C   0  0  0  0  0  0  0  0  0  0  0  0
   -6.4510   -4.0230   -1.9800 Cl  0  0  0  0  0  0  0  0  0  0  0  0
   -3.9410   -3.0330   -1.6050 C   0  0  0  0  0  0  0  0  0  0  0  0
   -3.0000   -2.0840   -1.1920 C   0  0  0  0  0  0  0  0  0  0  0  0
   -1.5590   -2.3620   -1.3740 C   0  0  0  0  0  0  0  0  0  0  0  0
   -2.4260    3.4320    1.4240 N   0  0  0  0  0  0  0  0  0  0  0  0
   -3.6360    3.6600    1.9560 C   0  0  0  0  0  0  0  0  0  0  0  0
   -3.6900    4.9430    2.4590 C   0  0  0  0  0  0  0  0  0  0  0  0
   -2.4580    5.5270    2.2260 C   0  0  0  0  0  0  0  0  0  0  0  0
   -1.7150    4.5580    1.5860 C   0  0  0  0  0  0  0  0  0  0  0  0
    0.6850    0.1590    0.9020 N   0  0  0  0  0  0  0  0  0  0  0  0
    5.1580   -0.2830   -0.1110 O   0  0  0  0  0  0  0  0  0  0  0  0
  1  2  1  0
  2  3  2  0
  2 34  1  0
  3  4  1  0
  4  5  2  0
  5  6  1  0
  5 34  1  0
  6  7  1  0
  6  9  1  6
  7  8  2  0
  9 10  1  0
 10 11  2  0
 10 33  1  0
 11 12  1  0
 12 13  2  0
 12 14  1  0
 14 15  2  0
 15 16  1  0
 15 33  1  0
 16 17  2  3
 17 18  1  0
 17 28  1  0
 18 19  1  0
 19 20  1  0
 20 21  2  0
 20 26  1  0
 21 22  1  0
 22 23  2  0
 23 24  1  0
 23 25  1  0
 25 26  2  0
 26 27  1  0
 28 29  1  0
 28 32  1  0
 29 30  2  0
 30 31  1  0
 31 32  2  0
M  END
