
     RDKit          3D

 34 37  0  0  0  0  0  0  0  0999 V2000
    8.6040    1.8000    0.4520 C   0  0  0  0  0  0  0  0  0  0  0  0
    8.1560    0.4820   -0.1660 C   0  0  0  0  0  0  0  0  0  0  0  0
    6.9280    0.2750   -0.5060 N   0  0  0  0  0  0  0  0  0  0  0  0
    6.4500   -0.8600   -0.9900 C   0  0  0  0  0  0  0  0  0  0  0  0
    5.0760   -1.2440   -1.2630 C   0  0  0  0  0  0  0  0  0  0  0  0
    3.9600   -0.4950   -0.7360 N   0  0  0  0  0  0  0  0  0  0  0  0
    4.0480    0.4800    0.2450 C   0  0  0  0  0  0  0  0  0  0  0  0
    5.2120    0.7640    0.7190 O   0  0  0  0  0  0  0  0  0  0  0  0
    2.9990    1.2320    0.8400 C   0  0  0  0  0  0  0  0  0  0  0  0
    1.7820    1.1660    0.8610 C   0  0  0  0  0  0  0  0  0  0  0  0
    0.6830    0.3050    0.3500 C   0  0  0  0  0  0  0  0  0  0  0  0
    0.5070   -0.9190    0.9270 C   0  0  0  0  0  0  0  0  0  0  0  0
   -0.6150   -1.5190    0.3340 C   0  0  0  0  0  0  0  0  0  0  0  0
   -1.1040   -2.7360    0.8730 C   0  0  0  0  0  0  0  0  0  0  0  0
   -1.5690   -3.8560    1.3530 N   0  0  0  0  0  0  0  0  0  0  0  0
   -1.0400   -0.6330   -0.5470 C   0  0  0  0  0  0  0  0  0  0  0  0
   -2.4760   -0.7560   -1.6170 S   0  0  0  0  0  0  0  0  0  0  0  0
   -3.7160    0.3970   -1.1720 C   0  0  0  0  0  0  0  0  0  0  0  0
   -4.9230    0.3130   -0.4180 C   0  0  0  0  0  0  0  0  0  0  0  0
   -5.0990    1.2330    0.6790 C   0  0  0  0  0  0  0  0  0  0  0  0
   -6.4130    1.4470    1.1750 C   0  0  0  0  0  0  0  0  0  0  0  0
   -7.4070    0.8340    0.6700 C   0  0  0  0  0  0  0  0  0  0  0  0
   -8.7900    0.9500    0.9420 C   0  0  0  0  0  0  0  0  0  0  0  0
   -9.8270    0.5010    0.5460 C   0  0  0  0  0  0  0  0  0  0  0  0
   -9.7360   -0.5260   -0.6040 C   0  0  0  0  0  0  0  0  0  0  0  0
  -11.1050   -1.1760   -1.2200 Cl  0  0  0  0  0  0  0  0  0  0  0  0
   -8.3790   -0.6590   -0.8930 C   0  0  0  0  0  0  0  0  0  0  0  0
   -7.3190   -0.1850   -0.4640 C   0  0  0  0  0  0  0  0  0  0  0  0
   -6.0010   -0.2980   -0.8740 N   0  0  0  0  0  0  0  0  0  0  0  0
   -0.2280    0.4940   -0.5570 O   0  0  0  0  0  0  0  0  0  0  0  0
    7.4770   -1.8620   -1.1300 C   0  0  0  0  0  0  0  0  0  0  0  0
    8.7430   -1.5700   -0.7680 C   0  0  0  0  0  0  0  0  0  0  0  0
    9.6980   -2.4130   -0.9100 O   0  0  0  0  0  0  0  0  0  0  0  0
    9.0590   -0.4080   -0.2920 O   0  0  0  0  0  0  0  0  0  0  0  0
  1  2  1  0
  2  3  2  0
  2 34  1  0
  3  4  1  0
  4  5  1  0
  4 31  2  0
  5  6  1  0
  6  7  1  0
  7  8  2  0
  7  9  1  0
  9 10  2  3
 10 11  1  0
 11 12  2  0
 11 30  1  0
 12 13  1  0
 13 14  1  0
 13 16  2  0
 14 15  3  0
 16 17  1  0
 16 30  1  0
 17 18  1  0
 18 19  1  0
 19 20  2  0
 19 29  1  0
 20 21  1  0
 21 22  2  0
 22 23  1  0
 22 28  1  0
 23 24  2  0
 24 25  1  0
 25 26  1  0
 25 27  2  0
 27 28  1  0
 28 29  2  0
 31 32  1  0
 32 33  2  0
 32 34  1  0
M  END
