
     RDKit          3D

 34 37  0  0  0  0  0  0  0  0999 V2000
    8.5000    1.1840   -0.9190 C   0  0  0  0  0  0  0  0  0  0  0  0
    7.0060    1.2530   -0.8750 C   0  0  0  0  0  0  0  0  0  0  0  0
    6.1220    0.6670   -1.7490 C   0  0  0  0  0  0  0  0  0  0  0  0
    4.8500    1.0180   -1.2950 C   0  0  0  0  0  0  0  0  0  0  0  0
    5.0190    1.7940   -0.1790 C   0  0  0  0  0  0  0  0  0  0  0  0
    3.9310    2.3860    0.6310 C   0  0  2  0  0  0  0  0  0  0  0  0
    3.8380    1.5370    1.8940 C   0  0  0  0  0  0  0  0  0  0  0  0
    4.6000    0.6040    1.9930 O   0  0  0  0  0  0  0  0  0  0  0  0
    2.3580    2.3230   -0.2450 S   0  0  0  0  0  0  0  0  0  0  0  0
    1.8060    0.6260   -0.3210 C   0  0  0  0  0  0  0  0  0  0  0  0
    2.5240   -0.3490    0.2640 N   0  0  0  0  0  0  0  0  0  0  0  0
    2.1760   -1.6490    0.2730 C   0  0  0  0  0  0  0  0  0  0  0  0
    2.8670   -2.5440    0.8280 O   0  0  0  0  0  0  0  0  0  0  0  0
    1.0110   -2.0030   -0.3560 C   0  0  0  0  0  0  0  0  0  0  0  0
    0.2480   -1.0090   -0.9700 C   0  0  0  0  0  0  0  0  0  0  0  0
   -0.9630   -1.4140   -1.5990 N   0  0  0  0  0  0  0  0  0  0  0  0
   -1.9630   -1.7280   -0.8540 C   0  0  0  0  0  0  0  0  0  0  0  0
   -1.8480   -1.6640    0.6000 C   0  0  0  0  0  0  0  0  0  0  0  0
   -2.8690   -1.0390    1.2900 O   0  0  0  0  0  0  0  0  0  0  0  0
   -3.3620    0.2160    1.2190 C   0  0  0  0  0  0  0  0  0  0  0  0
   -2.8330    1.1200    0.3320 C   0  0  0  0  0  0  0  0  0  0  0  0
   -3.2750    2.4180    0.1930 C   0  0  0  0  0  0  0  0  0  0  0  0
   -4.3150    2.7930    1.0150 C   0  0  0  0  0  0  0  0  0  0  0  0
   -4.9170    4.4330    0.8860 Cl  0  0  0  0  0  0  0  0  0  0  0  0
   -4.8720    1.9140    1.9180 C   0  0  0  0  0  0  0  0  0  0  0  0
   -4.4010    0.6210    2.0260 C   0  0  0  0  0  0  0  0  0  0  0  0
   -5.0340   -0.3070    3.0210 C   0  0  0  0  0  0  0  0  0  0  0  0
   -3.1620   -2.1640   -1.4820 N   0  0  0  0  0  0  0  0  0  0  0  0
   -4.1970   -2.8100   -0.8960 C   0  0  0  0  0  0  0  0  0  0  0  0
   -5.1960   -3.0840   -1.8020 C   0  0  0  0  0  0  0  0  0  0  0  0
   -4.7590   -2.5840   -3.0070 C   0  0  0  0  0  0  0  0  0  0  0  0
   -3.5230   -2.0330   -2.7770 C   0  0  0  0  0  0  0  0  0  0  0  0
    0.6520    0.2690   -0.9430 N   0  0  0  0  0  0  0  0  0  0  0  0
    6.3140    1.9020    0.0260 O   0  0  0  0  0  0  0  0  0  0  0  0
  1  2  1  0
  2  3  2  0
  2 34  1  0
  3  4  1  0
  4  5  2  0
  5  6  1  0
  5 34  1  0
  6  7  1  0
  6  9  1  6
  7  8  2  0
  9 10  1  0
 10 11  2  0
 10 33  1  0
 11 12  1  0
 12 13  2  0
 12 14  1  0
 14 15  2  0
 15 16  1  0
 15 33  1  0
 16 17  2  3
 17 18  1  0
 17 28  1  0
 18 19  1  0
 19 20  1  0
 20 21  2  0
 20 26  1  0
 21 22  1  0
 22 23  2  0
 23 24  1  0
 23 25  1  0
 25 26  2  0
 26 27  1  0
 28 29  1  0
 28 32  1  0
 29 30  2  0
 30 31  1  0
 31 32  2  0
M  END
