
     RDKit          3D

 34 37  0  0  0  0  0  0  0  0999 V2000
    7.3920    3.4270    1.9380 C   0  0  0  0  0  0  0  0  0  0  0  0
    6.4370    3.0290    2.8540 O   0  0  0  0  0  0  0  0  0  0  0  0
    5.6260    2.0080    2.4280 C   0  0  0  0  0  0  0  0  0  0  0  0
    4.8320    2.3490    1.1960 C   0  0  0  0  0  0  0  0  0  0  0  0
    4.3380    1.8810    0.2750 N   0  0  0  0  0  0  0  0  0  0  0  0
    3.6510    2.4420   -0.7020 C   0  0  0  0  0  0  0  0  0  0  0  0
    3.0630    1.7080   -1.8530 C   0  0  0  0  0  0  0  0  0  0  0  0
    2.4130    2.3280   -2.7470 O   0  0  0  0  0  0  0  0  0  0  0  0
    3.2020    0.3510   -1.9900 N   0  0  0  0  0  0  0  0  0  0  0  0
    2.4460   -0.6460   -1.8840 C   0  0  0  0  0  0  0  0  0  0  0  0
    1.0730   -0.4530   -1.5360 N   0  0  0  0  0  0  0  0  0  0  0  0
    0.6060    0.4430   -0.5100 C   0  0  0  0  0  0  0  0  0  0  0  0
   -0.8810    0.3620   -0.4620 C   0  0  0  0  0  0  0  0  0  0  0  0
   -1.6230    0.9590    0.5260 C   0  0  0  0  0  0  0  0  0  0  0  0
   -2.9320    0.6590    0.2210 C   0  0  0  0  0  0  0  0  0  0  0  0
   -4.1400    0.9790    0.8430 C   0  0  0  0  0  0  0  0  0  0  0  0
   -5.3160    0.5450    0.3200 C   0  0  0  0  0  0  0  0  0  0  0  0
   -6.6010    0.8830    0.9810 C   0  0  0  0  0  0  0  0  0  0  0  0
   -7.0830   -0.3630    1.7080 C   0  0  2  0  0  0  0  0  0  0  0  0
   -8.3970   -0.1120    2.4190 C   0  0  0  0  0  0  0  0  0  0  0  0
   -6.0550   -0.8940    2.6630 C   0  0  0  0  0  0  0  0  0  0  0  0
   -5.3080   -0.2070   -0.8210 C   0  0  0  0  0  0  0  0  0  0  0  0
   -6.8010   -0.7730   -1.5060 Cl  0  0  0  0  0  0  0  0  0  0  0  0
   -4.1020   -0.5260   -1.4420 C   0  0  0  0  0  0  0  0  0  0  0  0
   -2.8980   -0.0970   -0.9290 C   0  0  0  0  0  0  0  0  0  0  0  0
   -1.6500   -0.2520   -1.3060 O   0  0  0  0  0  0  0  0  0  0  0  0
    2.9060   -1.9910   -2.1150 N   0  0  0  0  0  0  0  0  0  0  0  0
    4.1570   -2.3990   -1.5380 C   0  0  0  0  0  0  0  0  0  0  0  0
    4.4080   -3.8370   -1.9390 C   0  0  0  0  0  0  0  0  0  0  0  0
    3.3540   -4.6800   -1.7330 O   0  0  0  0  0  0  0  0  0  0  0  0
    2.1070   -4.2150   -2.0280 C   0  0  0  0  0  0  0  0  0  0  0  0
    2.1930   -2.9650   -2.8910 C   0  0  0  0  0  0  0  0  0  0  0  0
    3.5080    3.7890   -0.5950 C   0  0  0  0  0  0  0  0  0  0  0  0
    4.4090    4.1710    0.9670 S   0  0  0  0  0  0  0  0  0  0  0  0
  1  2  1  0
  2  3  1  0
  3  4  1  0
  4  5  2  0
  4 34  1  0
  5  6  1  0
  6  7  1  0
  6 33  2  0
  7  8  2  0
  7  9  1  0
  9 10  2  3
 10 11  1  0
 10 27  1  0
 11 12  1  0
 12 13  1  0
 13 14  2  0
 13 26  1  0
 14 15  1  0
 15 16  2  0
 15 25  1  0
 16 17  1  0
 17 18  1  0
 17 22  2  0
 18 19  1  0
 19 20  1  1
 19 21  1  0
 22 23  1  0
 22 24  1  0
 24 25  2  0
 25 26  1  0
 27 28  1  0
 27 32  1  0
 28 29  1  0
 29 30  1  0
 30 31  1  0
 31 32  1  0
 33 34  1  0
M  END
