
     RDKit          3D

 34 37  0  0  0  0  0  0  0  0999 V2000
    6.7640    2.7110   -0.1180 C   0  0  0  0  0  0  0  0  0  0  0  0
    5.4890    2.6700    0.6090 C   0  0  0  0  0  0  0  0  0  0  0  0
    4.4910    1.8510    0.2260 C   0  0  0  0  0  0  0  0  0  0  0  0
    4.7200    1.0100   -0.9300 C   0  0  0  0  0  0  0  0  0  0  0  0
    3.8700    0.1460   -1.4630 C   0  0  0  0  0  0  0  0  0  0  0  0
    4.4470   -0.7400   -2.8800 Cl  0  0  0  0  0  0  0  0  0  0  0  0
    2.5000    0.0390   -0.9790 C   0  0  0  0  0  0  0  0  0  0  0  0
    1.8400    0.8820   -0.1900 N   0  0  0  0  0  0  0  0  0  0  0  0
    0.6210    0.5000    0.0100 N   0  0  0  0  0  0  0  0  0  0  0  0
   -0.3570    1.1540    0.7790 C   0  0  0  0  0  0  0  0  0  0  0  0
   -0.9180    2.3750    0.3860 C   0  0  0  0  0  0  0  0  0  0  0  0
   -1.8780    3.0130    1.1450 C   0  0  0  0  0  0  0  0  0  0  0  0
   -2.3020    2.4370    2.3240 C   0  0  0  0  0  0  0  0  0  0  0  0
   -3.3100    3.0810    3.1460 C   0  0  0  0  0  0  0  0  0  0  0  0
   -3.6820    2.5390    4.2180 O   0  0  0  0  0  0  0  0  0  0  0  0
   -3.8620    4.2750    2.7670 O   0  0  0  0  0  0  0  0  0  0  0  0
   -4.8540    4.9580    3.5280 C   0  0  0  0  0  0  0  0  0  0  0  0
   -1.7480    1.2460    2.6980 C   0  0  0  0  0  0  0  0  0  0  0  0
   -0.8250    0.6560    1.9460 N   0  0  0  0  0  0  0  0  0  0  0  0
    0.4240   -0.6980   -0.6940 C   0  0  0  0  0  0  0  0  0  0  0  0
   -0.8070   -1.3370   -0.5230 N   0  0  0  0  0  0  0  0  0  0  0  0
   -1.5980   -2.1740   -1.2760 C   0  0  0  0  0  0  0  0  0  0  0  0
   -1.3350   -2.3740   -2.4580 O   0  0  0  0  0  0  0  0  0  0  0  0
   -2.8040   -2.8560   -0.6460 C   0  0  2  0  0  0  0  0  0  0  0  0
   -4.0680   -2.4780   -1.3740 C   0  0  0  0  0  0  0  0  0  0  0  0
   -5.0360   -2.1270   -0.2950 C   0  0  0  0  0  0  0  0  0  0  0  0
   -4.2510   -2.2900    0.9600 C   0  0  0  0  0  0  0  0  0  0  0  0
   -2.9320   -2.5180    0.6580 O   0  0  0  0  0  0  0  0  0  0  0  0
    1.5980   -0.9950   -1.3090 C   0  0  0  0  0  0  0  0  0  0  0  0
    2.0650   -2.2840   -1.9190 C   0  0  0  0  0  0  0  0  0  0  0  0
    3.1960   -2.8380   -1.4980 C   0  0  0  0  0  0  0  0  0  0  0  0
    3.6310   -4.0930   -2.1170 C   0  0  0  0  0  0  0  0  0  0  0  0
    2.8760   -3.8250   -3.7930 S   0  0  0  0  0  0  0  0  0  0  0  0
    1.4110   -2.9570   -3.0330 C   0  0  0  0  0  0  0  0  0  0  0  0
  1  2  1  0
  2  3  2  3
  3  4  1  0
  4  5  2  3
  5  6  1  0
  5  7  1  0
  7  8  2  0
  7 29  1  0
  8  9  1  0
  9 10  1  0
  9 20  1  0
 10 11  2  0
 10 19  1  0
 11 12  1  0
 12 13  2  0
 13 14  1  0
 13 18  1  0
 14 15  2  0
 14 16  1  0
 16 17  1  0
 18 19  2  0
 20 21  1  0
 20 29  2  0
 21 22  1  0
 22 23  2  0
 24 22  1  6
 24 25  1  0
 24 28  1  0
 25 26  1  0
 26 27  1  0
 27 28  1  0
 29 30  1  0
 30 31  2  0
 30 34  1  0
 31 32  1  0
 32 33  1  0
 33 34  1  0
M  END
