
     RDKit          3D

 34 37  0  0  0  0  0  0  0  0999 V2000
    6.4120   -2.3740    1.8260 C   0  0  0  0  0  0  0  0  0  0  0  0
    6.8560   -2.9520    0.7240 C   0  0  0  0  0  0  0  0  0  0  0  0
    7.1650   -2.1060   -0.4550 C   0  0  0  0  0  0  0  0  0  0  0  0
    6.8970   -0.6900   -0.1420 C   0  0  0  0  0  0  0  0  0  0  0  0
    7.8300    0.1490    0.3820 C   0  0  0  0  0  0  0  0  0  0  0  0
    7.5090    1.4560    0.6480 C   0  0  0  0  0  0  0  0  0  0  0  0
    6.2430    1.9370    0.3890 C   0  0  0  0  0  0  0  0  0  0  0  0
    5.9400    3.2660    0.6620 C   0  0  0  0  0  0  0  0  0  0  0  0
    7.1470    4.3390    1.3370 Cl  0  0  0  0  0  0  0  0  0  0  0  0
    4.6830    3.7630    0.4070 C   0  0  0  0  0  0  0  0  0  0  0  0
    3.7470    2.9030   -0.1230 C   0  0  0  0  0  0  0  0  0  0  0  0
    3.9910    1.5720   -0.4160 C   0  0  0  0  0  0  0  0  0  0  0  0
    2.9360    0.7620   -0.9580 C   0  0  0  0  0  0  0  0  0  0  0  0
    2.9290   -0.4500   -1.2210 O   0  0  0  0  0  0  0  0  0  0  0  0
    1.7190    1.4000   -1.2480 O   0  0  0  0  0  0  0  0  0  0  0  0
    0.5910    0.7810   -1.7720 C   0  0  0  0  0  0  0  0  0  0  0  0
   -0.0050   -0.2880   -0.9710 C   0  0  0  0  0  0  0  0  0  0  0  0
    0.5840   -1.3270   -0.3920 N   0  0  0  0  0  0  0  0  0  0  0  0
   -0.3170   -2.0380    0.2250 N   0  0  0  0  0  0  0  0  0  0  0  0
   -1.5140   -1.4640    0.0530 C   0  0  0  0  0  0  0  0  0  0  0  0
   -3.0770   -2.0790    0.7170 S   0  0  0  0  0  0  0  0  0  0  0  0
   -4.3810   -0.9320    0.1720 C   0  0  1  0  0  0  0  0  0  0  0  0
   -4.5130   -1.0210   -1.3170 C   0  0  0  0  0  0  0  0  0  0  0  0
   -5.6220   -1.2650    0.8820 C   0  0  0  0  0  0  0  0  0  0  0  0
   -5.6660   -2.2080    1.6850 O   0  0  0  0  0  0  0  0  0  0  0  0
   -6.7870   -0.5110    0.6570 N   0  0  0  0  0  0  0  0  0  0  0  0
   -8.0530   -0.7990    1.3350 C   0  0  0  0  0  0  0  0  0  0  0  0
   -9.1470   -0.4520    0.3450 C   0  0  0  0  0  0  0  0  0  0  0  0
   -9.1660    0.8940    0.0700 O   0  0  0  0  0  0  0  0  0  0  0  0
   -7.9410    1.5140    0.1100 C   0  0  0  0  0  0  0  0  0  0  0  0
   -6.7900    0.6040   -0.2680 C   0  0  0  0  0  0  0  0  0  0  0  0
   -1.3140   -0.3810   -0.6880 N   0  0  0  0  0  0  0  0  0  0  0  0
    5.2580    1.1180   -0.1460 C   0  0  0  0  0  0  0  0  0  0  0  0
    5.6190   -0.1800   -0.3970 C   0  0  0  0  0  0  0  0  0  0  0  0
  1  2  2  0
  2  3  1  0
  3  4  1  0
  4  5  2  0
  4 34  1  0
  5  6  1  0
  6  7  2  0
  7  8  1  0
  7 33  1  0
  8  9  1  0
  8 10  2  0
 10 11  1  0
 11 12  2  0
 12 13  1  0
 12 33  1  0
 13 14  2  0
 13 15  1  0
 15 16  1  0
 16 17  1  0
 17 18  2  0
 17 32  1  0
 18 19  1  0
 19 20  2  0
 20 21  1  0
 20 32  1  0
 21 22  1  0
 22 23  1  6
 22 24  1  0
 24 25  2  0
 24 26  1  0
 26 27  1  0
 26 31  1  0
 27 28  1  0
 28 29  1  0
 29 30  1  0
 30 31  1  0
 33 34  2  0
M  END
