
     RDKit          3D

 35 37  0  0  0  0  0  0  0  0999 V2000
   -3.0700   -2.1710    1.5980 C   0  0  0  0  0  0  0  0  0  0  0  0
   -3.4650   -1.5390    0.2570 C   0  0  2  0  0  0  0  0  0  0  0  0
   -4.0160   -2.6740   -0.6020 C   0  0  0  0  0  0  0  0  0  0  0  0
   -2.1870   -1.0790   -0.4100 C   0  0  0  0  0  0  0  0  0  0  0  0
   -1.4420   -0.1240    0.3220 N   0  0  0  0  0  0  0  0  0  0  0  0
   -0.0650   -0.4010    0.5490 C   0  0  0  0  0  0  0  0  0  0  0  0
    0.6970   -0.7750   -0.6960 C   0  0  1  0  0  0  0  0  0  0  0  0
    0.6070    0.3300   -1.5760 O   0  0  0  0  0  0  0  0  0  0  0  0
    2.1620   -0.9730   -0.4210 C   0  0  2  0  0  0  0  0  0  0  0  0
    2.4730   -2.1470    0.4620 C   0  0  0  0  0  0  0  0  0  0  0  0
    2.0550   -3.4450   -0.0470 C   0  0  0  0  0  0  0  0  0  0  0  0
    0.8170   -3.9410    0.2590 C   0  0  0  0  0  0  0  0  0  0  0  0
    0.3920   -5.1810   -0.2170 C   0  0  0  0  0  0  0  0  0  0  0  0
    1.2190   -5.9210   -1.0030 C   0  0  0  0  0  0  0  0  0  0  0  0
    2.4660   -5.4480   -1.3250 C   0  0  0  0  0  0  0  0  0  0  0  0
    2.8700   -4.2210   -0.8460 C   0  0  0  0  0  0  0  0  0  0  0  0
    2.6830    0.2210    0.2040 N   0  0  0  0  0  0  0  0  0  0  0  0
    3.6460    1.0340   -0.4520 C   0  0  0  0  0  0  0  0  0  0  0  0
    4.0560    0.7040   -1.6090 O   0  0  0  0  0  0  0  0  0  0  0  0
    4.1420    2.1820    0.1580 O   0  0  0  0  0  0  0  0  0  0  0  0
    5.0920    2.9300   -0.5580 C   0  0  1  0  0  0  0  0  0  0  0  0
    4.6590    4.3680   -0.7610 C   0  0  0  0  0  0  0  0  0  0  0  0
    6.0180    5.0300   -0.8850 C   0  0  0  0  0  0  0  0  0  0  0  0
    6.7290    4.4430    0.1280 O   0  0  0  0  0  0  0  0  0  0  0  0
    6.3680    3.1230    0.2300 C   0  0  0  0  0  0  0  0  0  0  0  0
   -1.7780    1.5100   -0.0140 S   0  0  1  0  0  0  0  0  0  0  0  0
   -0.8800    2.4360    0.7800 O   0  0  0  0  0  0  0  0  0  0  0  0
   -1.5200    1.8640   -1.4690 O   0  0  0  0  0  0  0  0  0  0  0  0
   -3.4140    1.9870    0.3290 C   0  0  0  0  0  0  0  0  0  0  0  0
   -3.7380    2.4420    1.5970 C   0  0  0  0  0  0  0  0  0  0  0  0
   -5.0070    2.8410    1.9470 C   0  0  0  0  0  0  0  0  0  0  0  0
   -5.9920    2.7740    0.9640 C   0  0  0  0  0  0  0  0  0  0  0  0
   -7.3120    3.1890    1.3280 N   0  0  0  0  0  0  0  0  0  0  0  0
   -5.7150    2.3280   -0.3050 C   0  0  0  0  0  0  0  0  0  0  0  0
   -4.4370    1.9380   -0.6200 C   0  0  0  0  0  0  0  0  0  0  0  0
  2  1  1  1
  2  3  1  0
  2  4  1  0
  4  5  1  0
  5  6  1  0
 26  5  1  6
  6  7  1  0
  7  8  1  6
  7  9  1  0
  9 10  1  1
  9 17  1  0
 10 11  1  0
 11 12  2  0
 11 16  1  0
 12 13  1  0
 13 14  2  0
 14 15  1  0
 15 16  2  0
 17 18  1  0
 18 19  2  0
 18 20  1  0
 21 20  1  1
 21 22  1  0
 21 25  1  0
 22 23  1  0
 23 24  1  0
 24 25  1  0
 26 27  2  0
 26 28  2  0
 26 29  1  0
 29 30  2  0
 29 35  1  0
 30 31  1  0
 31 32  2  0
 32 33  1  0
 32 34  1  0
 34 35  2  0
M  END
