
     RDKit          3D

 34 37  0  0  0  0  0  0  0  0999 V2000
   -7.6640   -0.8800   -0.4130 C   0  0  0  0  0  0  0  0  0  0  0  0
   -6.8580    0.1440   -0.9830 C   0  0  0  0  0  0  0  0  0  0  0  0
   -5.7150    0.3720   -1.3640 N   0  0  0  0  0  0  0  0  0  0  0  0
   -5.0560    1.3350   -1.8800 C   0  0  0  0  0  0  0  0  0  0  0  0
   -3.5580    1.2520   -2.2160 C   0  0  0  0  0  0  0  0  0  0  0  0
   -2.8580    1.8510   -1.2100 N   0  0  0  0  0  0  0  0  0  0  0  0
   -2.6280    3.3860   -1.0700 C   0  0  0  0  0  0  0  0  0  0  0  0
   -2.9690    4.1230   -1.7520 O   0  0  0  0  0  0  0  0  0  0  0  0
   -1.8310    3.4220    0.2820 C   0  0  0  0  0  0  0  0  0  0  0  0
   -1.1870    2.6130    0.8900 C   0  0  0  0  0  0  0  0  0  0  0  0
   -0.6440    1.2990    0.9550 C   0  0  0  0  0  0  0  0  0  0  0  0
   -0.5330    0.0720    0.2830 C   0  0  0  0  0  0  0  0  0  0  0  0
    0.2390   -0.7400    0.9840 C   0  0  0  0  0  0  0  0  0  0  0  0
    0.2500   -2.2130    1.3460 C   0  0  0  0  0  0  0  0  0  0  0  0
    0.2660   -3.3570    1.6090 N   0  0  0  0  0  0  0  0  0  0  0  0
    0.6800    0.1480    2.2960 C   0  0  0  0  0  0  0  0  0  0  0  0
    1.7880   -0.6450    3.4530 S   0  0  0  0  0  0  0  0  0  0  0  0
    3.4510   -0.1860    3.0410 C   0  0  0  0  0  0  0  0  0  0  0  0
    4.1090   -1.0290    1.9310 C   0  0  0  0  0  0  0  0  0  0  0  0
    4.0850   -2.4440    2.2520 C   0  0  0  0  0  0  0  0  0  0  0  0
    5.0030   -3.3140    1.5240 C   0  0  0  0  0  0  0  0  0  0  0  0
    5.8410   -2.6510    0.5610 C   0  0  0  0  0  0  0  0  0  0  0  0
    6.8560   -3.3280   -0.0740 C   0  0  0  0  0  0  0  0  0  0  0  0
    7.7690   -2.7110   -0.9070 C   0  0  0  0  0  0  0  0  0  0  0  0
    7.6760   -1.4120   -1.1230 C   0  0  0  0  0  0  0  0  0  0  0  0
    8.8390   -0.6270   -2.1680 Cl  0  0  0  0  0  0  0  0  0  0  0  0
    6.6900   -0.6590   -0.5230 C   0  0  0  0  0  0  0  0  0  0  0  0
    5.7250   -1.2650    0.3590 C   0  0  0  0  0  0  0  0  0  0  0  0
    4.8690   -0.5840    1.0550 N   0  0  0  0  0  0  0  0  0  0  0  0
    0.0830    1.0260    1.9380 O   0  0  0  0  0  0  0  0  0  0  0  0
   -5.7440    2.4860   -2.1080 C   0  0  0  0  0  0  0  0  0  0  0  0
   -7.0900    2.3930   -1.7140 C   0  0  0  0  0  0  0  0  0  0  0  0
   -7.6270    3.6240   -1.9540 O   0  0  0  0  0  0  0  0  0  0  0  0
   -7.7340    1.5200   -1.2410 O   0  0  0  0  0  0  0  0  0  0  0  0
  1  2  1  0
  2  3  2  0
  2 34  1  0
  3  4  1  0
  4  5  1  0
  4 31  2  0
  5  6  1  0
  6  7  1  0
  7  8  2  0
  7  9  1  0
  9 10  2  3
 10 11  1  0
 11 12  2  0
 11 30  1  0
 12 13  1  0
 13 14  1  0
 13 16  2  0
 14 15  3  0
 16 17  1  0
 16 30  1  0
 17 18  1  0
 18 19  1  0
 19 20  2  0
 19 29  1  0
 20 21  1  0
 21 22  2  0
 22 23  1  0
 22 28  1  0
 23 24  2  0
 24 25  1  0
 25 26  1  0
 25 27  2  0
 27 28  1  0
 28 29  2  0
 31 32  1  0
 32 33  2  0
 32 34  1  0
M  END
