
     RDKit          3D

 34 37  0  0  0  0  0  0  0  0999 V2000
   -0.8920   -0.5960   -2.5690 C   0  0  0  0  0  0  0  0  0  0  0  0
   -0.7570   -0.4920   -1.0320 C   0  0  2  0  0  0  0  0  0  0  0  0
   -0.3610   -1.8290   -0.5290 C   0  0  0  0  0  0  0  0  0  0  0  0
   -2.1220   -0.0570   -0.4700 C   0  0  0  0  0  0  0  0  0  0  0  0
   -3.1740   -1.0160   -0.8090 C   0  0  0  0  0  0  0  0  0  0  0  0
   -2.9600   -2.0960   -1.4980 O   0  0  0  0  0  0  0  0  0  0  0  0
   -3.8550   -2.9760   -1.8240 C   0  0  0  0  0  0  0  0  0  0  0  0
   -5.1490   -2.7520   -1.4060 C   0  0  0  0  0  0  0  0  0  0  0  0
   -5.4530   -1.6380   -0.6760 C   0  0  0  0  0  0  0  0  0  0  0  0
   -6.6150   -1.3840   -0.2690 O   0  0  0  0  0  0  0  0  0  0  0  0
   -4.4580   -0.7440   -0.3640 C   0  0  0  0  0  0  0  0  0  0  0  0
   -4.7560    0.4560    0.4120 C   0  0  0  0  0  0  0  0  0  0  0  0
   -4.5140    0.5470    1.7670 C   0  0  0  0  0  0  0  0  0  0  0  0
   -4.8130    1.7060    2.4690 C   0  0  0  0  0  0  0  0  0  0  0  0
   -5.3610    2.8090    1.8490 C   0  0  0  0  0  0  0  0  0  0  0  0
   -5.6050    2.7240    0.4950 C   0  0  0  0  0  0  0  0  0  0  0  0
   -6.3020    4.1070   -0.3280 Cl  0  0  0  0  0  0  0  0  0  0  0  0
   -5.3080    1.5730   -0.2000 C   0  0  0  0  0  0  0  0  0  0  0  0
    0.2240    0.6340   -0.8290 C   0  0  0  0  0  0  0  0  0  0  0  0
    0.6350    1.0390    0.8060 S   0  0  1  0  0  0  0  0  0  0  0  0
    1.6090    2.2250    0.7410 O   0  0  0  0  0  0  0  0  0  0  0  0
   -0.5430    1.5020    1.6190 O   0  0  0  0  0  0  0  0  0  0  0  0
    1.4910   -0.2470    1.6230 C   0  0  0  0  0  0  0  0  0  0  0  0
    2.8130   -0.4510    0.9280 C   0  0  0  0  0  0  0  0  0  0  0  0
    3.9930    0.2370    1.2610 C   0  0  0  0  0  0  0  0  0  0  0  0
    5.0060   -0.1840    0.4430 C   0  0  0  0  0  0  0  0  0  0  0  0
    6.4090    0.2480    0.4130 C   0  0  0  0  0  0  0  0  0  0  0  0
    6.8350    1.1780    1.2780 N   0  0  0  0  0  0  0  0  0  0  0  0
    8.1210    1.6130    1.2930 C   0  0  0  0  0  0  0  0  0  0  0  0
    9.0450    1.0970    0.3950 C   0  0  0  0  0  0  0  0  0  0  0  0
    8.5850    0.1410   -0.4860 C   0  0  0  0  0  0  0  0  0  0  0  0
    7.2890   -0.2600   -0.4590 N   0  0  0  0  0  0  0  0  0  0  0  0
    4.4580   -1.1060   -0.3700 N   0  0  0  0  0  0  0  0  0  0  0  0
    3.1790   -1.2470   -0.0700 N   0  0  0  0  0  0  0  0  0  0  0  0
  2  1  1  6
  2  3  1  0
  2  4  1  0
  2 19  1  0
  4  5  1  0
  5  6  1  0
  5 11  2  0
  6  7  1  0
  7  8  2  0
  8  9  1  0
  9 10  2  0
  9 11  1  0
 11 12  1  0
 12 13  2  0
 12 18  1  0
 13 14  1  0
 14 15  2  0
 15 16  1  0
 16 17  1  0
 16 18  2  0
 20 19  1  6
 20 21  2  0
 20 22  2  0
 20 23  1  0
 23 24  1  0
 24 25  1  0
 24 34  2  0
 25 26  2  0
 26 27  1  0
 26 33  1  0
 27 28  2  0
 27 32  1  0
 28 29  1  0
 29 30  2  0
 30 31  1  0
 31 32  2  0
 33 34  1  0
M  END
