
     RDKit          3D

 34 37  0  0  0  0  0  0  0  0999 V2000
   -4.1080   -7.0200    0.9400 C   0  0  0  0  0  0  0  0  0  0  0  0
   -3.0720   -5.9710    0.7420 C   0  0  0  0  0  0  0  0  0  0  0  0
   -3.4640   -4.7480    0.4620 C   0  0  0  0  0  0  0  0  0  0  0  0
   -2.4850   -3.7120    0.2650 C   0  0  0  0  0  0  0  0  0  0  0  0
   -2.7890   -2.4570   -0.0190 C   0  0  0  0  0  0  0  0  0  0  0  0
   -4.4680   -2.0700   -0.1550 Cl  0  0  0  0  0  0  0  0  0  0  0  0
   -1.7450   -1.4490   -0.0720 C   0  0  0  0  0  0  0  0  0  0  0  0
   -0.5020   -1.6640    0.4480 N   0  0  0  0  0  0  0  0  0  0  0  0
    0.2610   -0.5890    0.3380 N   0  0  0  0  0  0  0  0  0  0  0  0
    1.6320   -0.5670    0.7640 C   0  0  0  0  0  0  0  0  0  0  0  0
    2.6530   -0.6480   -0.1960 C   0  0  0  0  0  0  0  0  0  0  0  0
    3.9630   -0.6820    0.1380 C   0  0  0  0  0  0  0  0  0  0  0  0
    4.3440   -0.6380    1.4550 C   0  0  0  0  0  0  0  0  0  0  0  0
    5.7450   -0.6720    1.8610 C   0  0  0  0  0  0  0  0  0  0  0  0
    6.0680   -0.6310    3.0610 O   0  0  0  0  0  0  0  0  0  0  0  0
    6.7290   -0.7510    0.9130 O   0  0  0  0  0  0  0  0  0  0  0  0
    8.1220   -0.7900    1.2060 C   0  0  0  0  0  0  0  0  0  0  0  0
    3.3200   -0.5570    2.4040 C   0  0  0  0  0  0  0  0  0  0  0  0
    2.0190   -0.5250    2.0460 N   0  0  0  0  0  0  0  0  0  0  0  0
   -0.4590    0.3590   -0.2570 C   0  0  0  0  0  0  0  0  0  0  0  0
   -0.1580    1.7050   -0.5400 N   0  0  0  0  0  0  0  0  0  0  0  0
    0.8920    2.5270   -0.0980 C   0  0  0  0  0  0  0  0  0  0  0  0
    1.6950    2.1130    0.7450 O   0  0  0  0  0  0  0  0  0  0  0  0
    1.0540    3.9410   -0.6500 C   0  0  2  0  0  0  0  0  0  0  0  0
    0.8760    4.8660    0.5210 C   0  0  0  0  0  0  0  0  0  0  0  0
   -0.4640    5.4950    0.3040 C   0  0  0  0  0  0  0  0  0  0  0  0
   -0.8270    5.0900   -1.0820 C   0  0  0  0  0  0  0  0  0  0  0  0
    0.0630    4.1670   -1.5520 O   0  0  0  0  0  0  0  0  0  0  0  0
   -1.7480   -0.1650   -0.5360 C   0  0  0  0  0  0  0  0  0  0  0  0
   -2.8130    0.4730   -1.3690 C   0  0  0  0  0  0  0  0  0  0  0  0
   -3.5020   -0.2360   -2.2040 C   0  0  0  0  0  0  0  0  0  0  0  0
   -4.5590    0.4470   -2.9950 C   0  0  0  0  0  0  0  0  0  0  0  0
   -4.9820    1.7320   -1.7070 S   0  0  0  0  0  0  0  0  0  0  0  0
   -3.1670    1.9100   -1.2660 C   0  0  0  0  0  0  0  0  0  0  0  0
  1  2  1  0
  2  3  2  3
  3  4  1  0
  4  5  2  3
  5  6  1  0
  5  7  1  0
  7  8  2  0
  7 29  1  0
  8  9  1  0
  9 10  1  0
  9 20  1  0
 10 11  2  0
 10 19  1  0
 11 12  1  0
 12 13  2  0
 13 14  1  0
 13 18  1  0
 14 15  2  0
 14 16  1  0
 16 17  1  0
 18 19  2  0
 20 21  1  0
 20 29  2  0
 21 22  1  0
 22 23  2  0
 24 22  1  1
 24 25  1  0
 24 28  1  0
 25 26  1  0
 26 27  1  0
 27 28  1  0
 29 30  1  0
 30 31  2  0
 30 34  1  0
 31 32  1  0
 32 33  1  0
 33 34  1  0
M  END
