
     RDKit          3D

 35 37  0  0  0  0  0  0  0  0999 V2000
   -1.6290   -1.3030    4.2460 C   0  0  0  0  0  0  0  0  0  0  0  0
   -1.8370   -1.8480    2.8460 C   0  0  2  0  0  0  0  0  0  0  0  0
   -0.8030   -2.9150    2.6270 C   0  0  0  0  0  0  0  0  0  0  0  0
   -1.6740   -0.6870    1.8930 C   0  0  0  0  0  0  0  0  0  0  0  0
   -1.8470   -1.0640    0.5210 N   0  0  0  0  0  0  0  0  0  0  0  0
   -0.8350   -0.4290   -0.2780 C   0  0  0  0  0  0  0  0  0  0  0  0
   -0.1570   -1.4360   -1.1370 C   0  0  1  0  0  0  0  0  0  0  0  0
   -1.0750   -2.0410   -1.9800 O   0  0  0  0  0  0  0  0  0  0  0  0
    0.9180   -0.8430   -2.0150 C   0  0  2  0  0  0  0  0  0  0  0  0
    1.5410   -1.9780   -2.8090 C   0  0  0  0  0  0  0  0  0  0  0  0
    2.1580   -3.0150   -1.9510 C   0  0  0  0  0  0  0  0  0  0  0  0
    1.4650   -4.1140   -1.5130 C   0  0  0  0  0  0  0  0  0  0  0  0
    2.1050   -5.0510   -0.7050 C   0  0  0  0  0  0  0  0  0  0  0  0
    3.4190   -4.8900   -0.3420 C   0  0  0  0  0  0  0  0  0  0  0  0
    4.1230   -3.7950   -0.7750 C   0  0  0  0  0  0  0  0  0  0  0  0
    3.4740   -2.8790   -1.5730 C   0  0  0  0  0  0  0  0  0  0  0  0
    1.9370   -0.1680   -1.2330 N   0  0  0  0  0  0  0  0  0  0  0  0
    2.2010    1.2230   -1.4300 C   0  0  0  0  0  0  0  0  0  0  0  0
    1.5410    1.8760   -2.2950 O   0  0  0  0  0  0  0  0  0  0  0  0
    3.1520    1.9030   -0.7150 O   0  0  0  0  0  0  0  0  0  0  0  0
    3.4710    3.2570   -0.8470 C   0  0  1  0  0  0  0  0  0  0  0  0
    3.3820    4.0420    0.4190 C   0  0  0  0  0  0  0  0  0  0  0  0
    4.5240    5.0170    0.3000 C   0  0  0  0  0  0  0  0  0  0  0  0
    5.0970    4.8120   -0.9510 O   0  0  0  0  0  0  0  0  0  0  0  0
    4.9110    3.4800   -1.2670 C   0  0  0  0  0  0  0  0  0  0  0  0
   -3.4310   -0.9640   -0.0510 S   0  0  2  0  0  0  0  0  0  0  0  0
   -4.2710   -1.9230    0.7900 O   0  0  0  0  0  0  0  0  0  0  0  0
   -3.5210   -1.4470   -1.4620 O   0  0  0  0  0  0  0  0  0  0  0  0
   -4.1010    0.6390   -0.0040 C   0  0  0  0  0  0  0  0  0  0  0  0
   -3.9660    1.4830   -1.0750 C   0  0  0  0  0  0  0  0  0  0  0  0
   -4.4960    2.7610   -1.0480 C   0  0  0  0  0  0  0  0  0  0  0  0
   -5.1660    3.1520    0.1010 C   0  0  0  0  0  0  0  0  0  0  0  0
   -5.7440    4.4590    0.2120 N   0  0  0  0  0  0  0  0  0  0  0  0
   -5.3090    2.3130    1.1860 C   0  0  0  0  0  0  0  0  0  0  0  0
   -4.7670    1.0560    1.1110 C   0  0  0  0  0  0  0  0  0  0  0  0
  2  1  1  1
  2  3  1  0
  2  4  1  0
  4  5  1  0
  5  6  1  0
 26  5  1  1
  6  7  1  0
  7  8  1  6
  7  9  1  0
  9 10  1  1
  9 17  1  0
 10 11  1  0
 11 12  2  0
 11 16  1  0
 12 13  1  0
 13 14  2  0
 14 15  1  0
 15 16  2  0
 17 18  1  0
 18 19  2  0
 18 20  1  0
 21 20  1  1
 21 22  1  0
 21 25  1  0
 22 23  1  0
 23 24  1  0
 24 25  1  0
 26 27  2  0
 26 28  2  0
 26 29  1  0
 29 30  2  0
 29 35  1  0
 30 31  1  0
 31 32  2  0
 32 33  1  0
 32 34  1  0
 34 35  2  0
M  END
