
     RDKit          3D

 34 36  0  0  0  0  0  0  0  0999 V2000
    1.1470   -2.3540   -1.7440 C   0  0  0  0  0  0  0  0  0  0  0  0
    0.2810   -2.1290   -0.6570 O   0  0  0  0  0  0  0  0  0  0  0  0
   -0.7080   -1.1610   -0.6400 C   0  0  0  0  0  0  0  0  0  0  0  0
   -1.9630   -1.4640   -1.0850 C   0  0  0  0  0  0  0  0  0  0  0  0
   -2.3620   -2.7790   -1.5630 C   0  0  0  0  0  0  0  0  0  0  0  0
   -2.7090   -3.8040   -0.5520 C   0  0  1  0  0  0  0  0  0  0  0  0
   -3.8680   -3.3940    0.3390 C   0  0  0  0  0  0  0  0  0  0  0  0
   -3.2450   -5.0320   -1.3240 C   0  0  0  0  0  0  0  0  0  0  0  0
   -1.5650   -4.3060    0.2630 C   0  0  0  0  0  0  0  0  0  0  0  0
   -2.8810   -0.4580   -1.0400 N   0  0  0  0  0  0  0  0  0  0  0  0
   -2.6430    0.7670   -0.6040 C   0  0  0  0  0  0  0  0  0  0  0  0
   -3.5230    1.6690   -0.5800 O   0  0  0  0  0  0  0  0  0  0  0  0
   -1.3680    1.0800   -0.1490 C   0  0  0  0  0  0  0  0  0  0  0  0
   -1.0370    2.4010    0.3470 C   0  0  0  0  0  0  0  0  0  0  0  0
   -1.9280    3.3420    0.3840 N   0  0  0  0  0  0  0  0  0  0  0  0
   -1.6360    4.6450    0.8640 C   0  0  0  0  0  0  0  0  0  0  0  0
   -0.8840    5.5060    0.2060 C   0  0  0  0  0  0  0  0  0  0  0  0
   -0.7790    6.7570    0.9730 C   0  0  0  0  0  0  0  0  0  0  0  0
   -1.5830    6.5010    2.1840 C   0  0  0  0  0  0  0  0  0  0  0  0
   -1.8630    7.6230    3.5280 Cl  0  0  0  0  0  0  0  0  0  0  0  0
   -2.0640    5.2820    2.0980 C   0  0  0  0  0  0  0  0  0  0  0  0
   -2.9320    4.6210    3.1140 C   0  0  0  0  0  0  0  0  0  0  0  0
   -0.3860    0.1180   -0.1630 C   0  0  0  0  0  0  0  0  0  0  0  0
    0.9700    0.4210    0.3080 C   0  0  0  0  0  0  0  0  0  0  0  0
    1.1520    0.2040    1.5460 O   0  0  0  0  0  0  0  0  0  0  0  0
    1.9780    0.9140   -0.5480 N   0  0  0  0  0  0  0  0  0  0  0  0
    3.1660    0.4430   -0.4360 C   0  0  0  0  0  0  0  0  0  0  0  0
    3.7190   -0.4440    0.3280 N   0  0  0  0  0  0  0  0  0  0  0  0
    4.9870   -0.7460    0.2430 C   0  0  0  0  0  0  0  0  0  0  0  0
    5.7530   -0.1050   -0.6820 C   0  0  0  0  0  0  0  0  0  0  0  0
    7.1690   -0.1980   -1.0310 C   0  0  0  0  0  0  0  0  0  0  0  0
    7.9850   -1.1470   -0.2760 C   0  0  0  0  0  0  0  0  0  0  0  0
    7.6890    0.4890   -1.9310 O   0  0  0  0  0  0  0  0  0  0  0  0
    4.5530    0.9840   -1.4530 S   0  0  0  0  0  0  0  0  0  0  0  0
  1  2  1  0
  2  3  1  0
  3  4  2  0
  3 23  1  0
  4  5  1  0
  4 10  1  0
  5  6  1  0
  6  7  1  1
  6  8  1  0
  6  9  1  0
 10 11  1  0
 11 12  2  0
 11 13  1  0
 13 14  1  0
 13 23  2  0
 14 15  2  3
 15 16  1  0
 16 17  2  0
 16 21  1  0
 17 18  1  0
 18 19  1  0
 19 20  1  0
 19 21  2  0
 21 22  1  0
 23 24  1  0
 24 25  2  0
 24 26  1  0
 26 27  2  3
 27 28  1  0
 27 34  1  0
 28 29  1  0
 29 30  2  0
 30 31  1  0
 30 34  1  0
 31 32  1  0
 31 33  2  0
M  END
