
     RDKit          3D

 34 37  0  0  0  0  0  0  0  0999 V2000
   -5.1060   -6.6710    0.3670 C   0  0  0  0  0  0  0  0  0  0  0  0
   -3.9010   -5.7710    0.3260 C   0  0  0  0  0  0  0  0  0  0  0  0
   -4.0760   -4.4810    0.2160 C   0  0  0  0  0  0  0  0  0  0  0  0
   -2.9350   -3.5960    0.1740 C   0  0  0  0  0  0  0  0  0  0  0  0
   -3.0650   -2.2680    0.0620 C   0  0  0  0  0  0  0  0  0  0  0  0
   -4.6720   -1.6360   -0.0340 Cl  0  0  0  0  0  0  0  0  0  0  0  0
   -1.8810   -1.4510   -0.0760 C   0  0  0  0  0  0  0  0  0  0  0  0
   -0.6240   -1.9260   -0.3140 N   0  0  0  0  0  0  0  0  0  0  0  0
    0.2110   -0.9710   -0.4380 N   0  0  0  0  0  0  0  0  0  0  0  0
    1.6050   -1.0270   -0.7000 C   0  0  0  0  0  0  0  0  0  0  0  0
    2.4130   -1.8740    0.0440 C   0  0  0  0  0  0  0  0  0  0  0  0
    3.7690   -1.9710   -0.1650 C   0  0  0  0  0  0  0  0  0  0  0  0
    4.3350   -1.1960   -1.1490 C   0  0  0  0  0  0  0  0  0  0  0  0
    5.7730   -1.2830   -1.3860 C   0  0  0  0  0  0  0  0  0  0  0  0
    6.4880   -2.0570   -0.7010 O   0  0  0  0  0  0  0  0  0  0  0  0
    6.4000   -0.5260   -2.3650 O   0  0  0  0  0  0  0  0  0  0  0  0
    7.7830   -0.5980   -2.6070 C   0  0  0  0  0  0  0  0  0  0  0  0
    3.5120   -0.3690   -1.8670 C   0  0  0  0  0  0  0  0  0  0  0  0
    2.1880   -0.2950   -1.6400 N   0  0  0  0  0  0  0  0  0  0  0  0
   -0.4600    0.2500   -0.2830 C   0  0  0  0  0  0  0  0  0  0  0  0
    0.3040    1.4230   -0.2770 N   0  0  0  0  0  0  0  0  0  0  0  0
    0.0540    2.7390   -0.6500 C   0  0  0  0  0  0  0  0  0  0  0  0
   -0.9810    3.0390   -1.2580 O   0  0  0  0  0  0  0  0  0  0  0  0
    1.0480    3.8380   -0.3190 C   0  0  2  0  0  0  0  0  0  0  0  0
    1.3260    3.9110    1.1390 C   0  0  0  0  0  0  0  0  0  0  0  0
    1.3570    5.4060    1.4040 C   0  0  0  0  0  0  0  0  0  0  0  0
    0.5900    5.9530    0.2480 C   0  0  0  0  0  0  0  0  0  0  0  0
    0.6120    5.0480   -0.7700 O   0  0  0  0  0  0  0  0  0  0  0  0
   -1.7690   -0.0440   -0.0490 C   0  0  0  0  0  0  0  0  0  0  0  0
   -2.8710    0.8240    0.4840 C   0  0  0  0  0  0  0  0  0  0  0  0
   -3.5110    0.3900    1.5680 C   0  0  0  0  0  0  0  0  0  0  0  0
   -4.6040    1.2200    2.1090 C   0  0  0  0  0  0  0  0  0  0  0  0
   -5.1610    1.9500    0.4960 S   0  0  0  0  0  0  0  0  0  0  0  0
   -3.3880    2.0580   -0.0960 C   0  0  0  0  0  0  0  0  0  0  0  0
  1  2  1  0
  2  3  2  3
  3  4  1  0
  4  5  2  3
  5  6  1  0
  5  7  1  0
  7  8  2  0
  7 29  1  0
  8  9  1  0
  9 10  1  0
  9 20  1  0
 10 11  2  0
 10 19  1  0
 11 12  1  0
 12 13  2  0
 13 14  1  0
 13 18  1  0
 14 15  2  0
 14 16  1  0
 16 17  1  0
 18 19  2  0
 20 21  1  0
 20 29  2  0
 21 22  1  0
 22 23  2  0
 24 22  1  1
 24 25  1  0
 24 28  1  0
 25 26  1  0
 26 27  1  0
 27 28  1  0
 29 30  1  0
 30 31  2  0
 30 34  1  0
 31 32  1  0
 32 33  1  0
 33 34  1  0
M  END
