
     RDKit          3D

 34 37  0  0  0  0  0  0  0  0999 V2000
   -6.8930    2.0430   -2.0360 C   0  0  0  0  0  0  0  0  0  0  0  0
   -7.3470    0.8890   -1.5780 C   0  0  0  0  0  0  0  0  0  0  0  0
   -6.5970   -0.3790   -1.8110 C   0  0  0  0  0  0  0  0  0  0  0  0
   -6.2140   -1.0340   -0.5220 C   0  0  0  0  0  0  0  0  0  0  0  0
   -7.0100   -1.9770    0.0770 C   0  0  0  0  0  0  0  0  0  0  0  0
   -6.6550   -2.5840    1.2590 C   0  0  0  0  0  0  0  0  0  0  0  0
   -5.4520   -2.2000    1.8250 C   0  0  0  0  0  0  0  0  0  0  0  0
   -5.1020   -2.8070    3.0250 C   0  0  0  0  0  0  0  0  0  0  0  0
   -6.1550   -4.0120    3.7520 Cl  0  0  0  0  0  0  0  0  0  0  0  0
   -3.9170   -2.4290    3.6060 C   0  0  0  0  0  0  0  0  0  0  0  0
   -3.0950   -1.4900    3.0370 C   0  0  0  0  0  0  0  0  0  0  0  0
   -3.4290   -0.8620    1.8210 C   0  0  0  0  0  0  0  0  0  0  0  0
   -2.5100    0.1030    1.2510 C   0  0  0  0  0  0  0  0  0  0  0  0
   -2.4850    0.5780    0.1120 O   0  0  0  0  0  0  0  0  0  0  0  0
   -1.4910    0.5820    2.1070 O   0  0  0  0  0  0  0  0  0  0  0  0
   -0.5330    1.5200    1.7170 C   0  0  0  0  0  0  0  0  0  0  0  0
    0.2640    0.9470    0.5890 C   0  0  0  0  0  0  0  0  0  0  0  0
    0.4500   -0.3210    0.2420 N   0  0  0  0  0  0  0  0  0  0  0  0
    1.2370   -0.3680   -0.8210 N   0  0  0  0  0  0  0  0  0  0  0  0
    1.5820    0.8830   -1.1890 C   0  0  0  0  0  0  0  0  0  0  0  0
    2.6200    1.4220   -2.5480 S   0  0  0  0  0  0  0  0  0  0  0  0
    4.3160    1.5590   -1.9220 C   0  0  1  0  0  0  0  0  0  0  0  0
    4.3820    2.6790   -0.8740 C   0  0  0  0  0  0  0  0  0  0  0  0
    4.7020    0.2740   -1.3060 C   0  0  0  0  0  0  0  0  0  0  0  0
    3.8240   -0.6640   -1.3490 O   0  0  0  0  0  0  0  0  0  0  0  0
    5.9580    0.0400   -0.6870 N   0  0  0  0  0  0  0  0  0  0  0  0
    6.9350    1.0730   -0.6580 C   0  0  0  0  0  0  0  0  0  0  0  0
    8.2680    0.4590   -1.0890 C   0  0  0  0  0  0  0  0  0  0  0  0
    8.5430   -0.5150   -0.1060 O   0  0  0  0  0  0  0  0  0  0  0  0
    7.6790   -1.5730   -0.2510 C   0  0  0  0  0  0  0  0  0  0  0  0
    6.2200   -1.2280   -0.0840 C   0  0  0  0  0  0  0  0  0  0  0  0
    0.9720    1.6950   -0.3070 N   0  0  0  0  0  0  0  0  0  0  0  0
   -4.6110   -1.2370    1.2440 C   0  0  0  0  0  0  0  0  0  0  0  0
   -5.0160   -0.6570    0.0530 C   0  0  0  0  0  0  0  0  0  0  0  0
  1  2  2  0
  2  3  1  0
  3  4  1  0
  4  5  2  0
  4 34  1  0
  5  6  1  0
  6  7  2  0
  7  8  1  0
  7 33  1  0
  8  9  1  0
  8 10  2  0
 10 11  1  0
 11 12  2  0
 12 13  1  0
 12 33  1  0
 13 14  2  0
 13 15  1  0
 15 16  1  0
 16 17  1  0
 17 18  2  0
 17 32  1  0
 18 19  1  0
 19 20  2  0
 20 21  1  0
 20 32  1  0
 21 22  1  0
 22 23  1  1
 22 24  1  0
 24 25  2  0
 24 26  1  0
 26 27  1  0
 26 31  1  0
 27 28  1  0
 28 29  1  0
 29 30  1  0
 30 31  1  0
 33 34  2  0
M  END
