
     RDKit          3D

 34 37  0  0  0  0  0  0  0  0999 V2000
   -6.9840   -2.8570    0.4290 C   0  0  0  0  0  0  0  0  0  0  0  0
   -6.1990   -3.2880   -0.6190 O   0  0  0  0  0  0  0  0  0  0  0  0
   -5.0090   -3.8280   -0.1680 C   0  0  0  0  0  0  0  0  0  0  0  0
   -4.2930   -2.7330    0.5980 C   0  0  0  0  0  0  0  0  0  0  0  0
   -3.5960   -1.8210    0.4650 N   0  0  0  0  0  0  0  0  0  0  0  0
   -3.0870   -0.9890    1.3510 C   0  0  0  0  0  0  0  0  0  0  0  0
   -2.1860    0.1670    1.0630 C   0  0  0  0  0  0  0  0  0  0  0  0
   -1.7610    0.8930    1.9860 O   0  0  0  0  0  0  0  0  0  0  0  0
   -1.8160    0.4380   -0.2590 N   0  0  0  0  0  0  0  0  0  0  0  0
   -1.7910    1.5840   -0.8150 C   0  0  0  0  0  0  0  0  0  0  0  0
   -1.3860    1.7160   -2.1950 N   0  0  0  0  0  0  0  0  0  0  0  0
   -0.9290    0.5090   -2.8610 C   0  0  0  0  0  0  0  0  0  0  0  0
    0.2780   -0.0420   -2.1550 C   0  0  0  0  0  0  0  0  0  0  0  0
    0.9720    0.4950   -1.1130 C   0  0  0  0  0  0  0  0  0  0  0  0
    2.0040   -0.3670   -0.8000 C   0  0  0  0  0  0  0  0  0  0  0  0
    3.0190   -0.3780    0.1300 C   0  0  0  0  0  0  0  0  0  0  0  0
    3.9490   -1.4210    0.2130 C   0  0  0  0  0  0  0  0  0  0  0  0
    5.0400   -1.3780    1.1820 C   0  0  0  0  0  0  0  0  0  0  0  0
    6.3350   -0.8260    0.7150 C   0  0  1  0  0  0  0  0  0  0  0  0
    7.3670   -0.8610    1.8520 C   0  0  0  0  0  0  0  0  0  0  0  0
    6.9680   -1.4340   -0.4790 C   0  0  0  0  0  0  0  0  0  0  0  0
    3.8000   -2.4440   -0.6820 C   0  0  0  0  0  0  0  0  0  0  0  0
    4.8540   -3.8510   -0.6620 Cl  0  0  0  0  0  0  0  0  0  0  0  0
    2.7910   -2.4580   -1.6270 C   0  0  0  0  0  0  0  0  0  0  0  0
    1.8880   -1.4110   -1.6840 C   0  0  0  0  0  0  0  0  0  0  0  0
    0.8460   -1.1670   -2.4660 O   0  0  0  0  0  0  0  0  0  0  0  0
   -2.1520    2.7740   -0.1290 N   0  0  0  0  0  0  0  0  0  0  0  0
   -3.4620    3.3850   -0.2960 C   0  0  0  0  0  0  0  0  0  0  0  0
   -3.3820    4.7480    0.3620 C   0  0  0  0  0  0  0  0  0  0  0  0
   -2.2720    5.4650    0.0030 O   0  0  0  0  0  0  0  0  0  0  0  0
   -1.0600    4.8580    0.1980 C   0  0  0  0  0  0  0  0  0  0  0  0
   -1.2490    3.4590    0.7750 C   0  0  0  0  0  0  0  0  0  0  0  0
   -3.4410   -1.2450    2.6540 C   0  0  0  0  0  0  0  0  0  0  0  0
   -4.5220   -2.7230    2.4800 S   0  0  0  0  0  0  0  0  0  0  0  0
  1  2  1  0
  2  3  1  0
  3  4  1  0
  4  5  2  0
  4 34  1  0
  5  6  1  0
  6  7  1  0
  6 33  2  0
  7  8  2  0
  7  9  1  0
  9 10  2  3
 10 11  1  0
 10 27  1  0
 11 12  1  0
 12 13  1  0
 13 14  2  0
 13 26  1  0
 14 15  1  0
 15 16  2  0
 15 25  1  0
 16 17  1  0
 17 18  1  0
 17 22  2  0
 18 19  1  0
 19 20  1  1
 19 21  1  0
 22 23  1  0
 22 24  1  0
 24 25  2  0
 25 26  1  0
 27 28  1  0
 27 32  1  0
 28 29  1  0
 29 30  1  0
 30 31  1  0
 31 32  1  0
 33 34  1  0
M  END
