
     RDKit          3D

 34 37  0  0  0  0  0  0  0  0999 V2000
   -1.0350   -2.2790   -1.2130 C   0  0  0  0  0  0  0  0  0  0  0  0
   -1.4720   -2.0090    0.2040 C   0  0  2  0  0  0  0  0  0  0  0  0
   -2.5020   -3.0930    0.5550 C   0  0  0  0  0  0  0  0  0  0  0  0
   -2.2560   -0.6900    0.3180 C   0  0  0  0  0  0  0  0  0  0  0  0
   -3.4440   -0.8420   -0.5560 C   0  0  0  0  0  0  0  0  0  0  0  0
   -3.6980   -1.9090   -1.2740 O   0  0  0  0  0  0  0  0  0  0  0  0
   -4.7470   -2.0450   -2.0480 C   0  0  0  0  0  0  0  0  0  0  0  0
   -5.6680   -1.0380   -2.1490 C   0  0  0  0  0  0  0  0  0  0  0  0
   -5.4690    0.1000   -1.4310 C   0  0  0  0  0  0  0  0  0  0  0  0
   -6.2620    1.0940   -1.4530 O   0  0  0  0  0  0  0  0  0  0  0  0
   -4.3420    0.2060   -0.6210 C   0  0  0  0  0  0  0  0  0  0  0  0
   -4.0770    1.3940    0.1730 C   0  0  0  0  0  0  0  0  0  0  0  0
   -3.2040    2.3880   -0.2040 C   0  0  0  0  0  0  0  0  0  0  0  0
   -2.9680    3.5080    0.5650 C   0  0  0  0  0  0  0  0  0  0  0  0
   -3.6270    3.6570    1.7700 C   0  0  0  0  0  0  0  0  0  0  0  0
   -4.5070    2.6800    2.1750 C   0  0  0  0  0  0  0  0  0  0  0  0
   -5.3250    2.8980    3.7030 Cl  0  0  0  0  0  0  0  0  0  0  0  0
   -4.7280    1.5580    1.3800 C   0  0  0  0  0  0  0  0  0  0  0  0
   -0.3990   -2.0970    1.2240 C   0  0  0  0  0  0  0  0  0  0  0  0
    0.9520   -1.0160    1.0840 S   0  0  1  0  0  0  0  0  0  0  0  0
    0.5370    0.4180    1.3460 O   0  0  0  0  0  0  0  0  0  0  0  0
    1.9100   -1.3380    2.2280 O   0  0  0  0  0  0  0  0  0  0  0  0
    1.8950   -1.1490   -0.3910 C   0  0  0  0  0  0  0  0  0  0  0  0
    3.0430   -0.1760   -0.3670 C   0  0  0  0  0  0  0  0  0  0  0  0
    4.3180   -0.3420    0.1220 C   0  0  0  0  0  0  0  0  0  0  0  0
    5.0040    0.8150   -0.0790 C   0  0  0  0  0  0  0  0  0  0  0  0
    6.3720    1.1010    0.2700 C   0  0  0  0  0  0  0  0  0  0  0  0
    6.9240    2.2970    0.0070 N   0  0  0  0  0  0  0  0  0  0  0  0
    8.2010    2.5910    0.3260 C   0  0  0  0  0  0  0  0  0  0  0  0
    8.9830    1.6360    0.9460 C   0  0  0  0  0  0  0  0  0  0  0  0
    8.4180    0.4140    1.2150 C   0  0  0  0  0  0  0  0  0  0  0  0
    7.1450    0.1800    0.8750 N   0  0  0  0  0  0  0  0  0  0  0  0
    4.1510    1.6570   -0.6780 N   0  0  0  0  0  0  0  0  0  0  0  0
    2.9630    1.0670   -0.8560 N   0  0  0  0  0  0  0  0  0  0  0  0
  2  1  1  6
  2  3  1  0
  2  4  1  0
  2 19  1  0
  4  5  1  0
  5  6  1  0
  5 11  2  0
  6  7  1  0
  7  8  2  0
  8  9  1  0
  9 10  2  0
  9 11  1  0
 11 12  1  0
 12 13  2  0
 12 18  1  0
 13 14  1  0
 14 15  2  0
 15 16  1  0
 16 17  1  0
 16 18  2  0
 20 19  1  6
 20 21  2  0
 20 22  2  0
 20 23  1  0
 23 24  1  0
 24 25  1  0
 24 34  2  0
 25 26  2  0
 26 27  1  0
 26 33  1  0
 27 28  2  0
 27 32  1  0
 28 29  1  0
 29 30  2  0
 30 31  1  0
 31 32  2  0
 33 34  1  0
M  END
