
     RDKit          3D

 16 17  0  0  0  0  0  0  0  0999 V2000
    5.0090   -0.2120   -0.1920 C   0  0  0  0  0  0  0  0  0  0  0  0
    3.6660   -0.5210   -0.4430 O   0  0  0  0  0  0  0  0  0  0  0  0
    2.9200   -0.0830    0.6290 C   0  0  0  0  0  0  0  0  0  0  0  0
    1.4460   -0.3860    0.4260 C   0  0  1  0  0  0  0  0  0  0  0  0
    0.6710    0.0590    1.6480 C   0  0  0  0  0  0  0  0  0  0  0  0
   -0.9850   -0.7360    1.4630 S   0  0  0  0  0  0  0  0  0  0  0  0
   -1.4900   -0.2210   -0.1780 C   0  0  0  0  0  0  0  0  0  0  0  0
   -2.7530   -0.0330   -0.4260 C   0  0  0  0  0  0  0  0  0  0  0  0
   -3.8530   -0.2090    0.5430 C   0  0  0  0  0  0  0  0  0  0  0  0
   -4.9900    0.0800   -0.0300 C   0  0  0  0  0  0  0  0  0  0  0  0
   -4.8180    0.4640   -1.3720 N   0  0  0  0  0  0  0  0  0  0  0  0
   -3.4020    0.4020   -1.6530 C   0  0  0  0  0  0  0  0  0  0  0  0
   -2.8970    0.6890   -2.7820 O   0  0  0  0  0  0  0  0  0  0  0  0
   -0.4400   -0.0510   -1.1370 C   0  0  0  0  0  0  0  0  0  0  0  0
   -0.6460   -0.1460   -2.3860 O   0  0  0  0  0  0  0  0  0  0  0  0
    0.9130    0.2370   -0.7330 N   0  0  0  0  0  0  0  0  0  0  0  0
  1  2  1  0
  2  3  1  0
  4  3  1  1
  4  5  1  0
  4 16  1  0
  5  6  1  0
  6  7  1  0
  7  8  2  3
  7 14  1  0
  8  9  1  0
  8 12  1  0
  9 10  2  0
 10 11  1  0
 11 12  1  0
 12 13  2  0
 14 15  2  0
 14 16  1  0
M  END
