
     RDKit          3D

 16 16  0  0  0  0  0  0  0  0999 V2000
   -3.0720    2.1760   -0.1250 C   0  0  0  0  0  0  0  0  0  0  0  0
   -2.6590    0.8800   -0.1750 C   0  0  0  0  0  0  0  0  0  0  0  0
   -3.7330   -0.1010   -0.1610 C   0  0  0  0  0  0  0  0  0  0  0  0
   -1.2560    0.6750   -0.2340 C   0  0  0  0  0  0  0  0  0  0  0  0
   -0.4340   -0.3200   -0.2920 C   0  0  0  0  0  0  0  0  0  0  0  0
    1.0260    0.0050   -0.3390 C   0  0  0  0  0  0  0  0  0  0  0  0
    1.9080   -0.9680   -0.3990 C   0  0  0  0  0  0  0  0  0  0  0  0
    3.3020   -0.6240   -0.4430 N   0  0  0  0  0  0  0  0  0  0  0  0
    3.8420    0.3300    0.4580 C   0  0  0  0  0  0  0  0  0  0  0  0
    2.9720    0.9340    1.4000 N   0  0  0  0  0  0  0  0  0  0  0  0
    5.4260    0.7140    0.4000 S   0  0  0  0  0  0  0  0  0  0  0  0
    1.5870   -2.3790   -0.4250 C   0  0  0  0  0  0  0  0  0  0  0  0
    2.5050   -3.2580   -0.4830 O   0  0  0  0  0  0  0  0  0  0  0  0
    0.2590   -2.7320   -0.3830 O   0  0  0  0  0  0  0  0  0  0  0  0
   -0.7440   -1.7230   -0.3180 C   0  0  0  0  0  0  0  0  0  0  0  0
   -1.9340   -2.1060   -0.2830 O   0  0  0  0  0  0  0  0  0  0  0  0
  1  2  2  0
  2  3  1  0
  2  4  1  0
  4  5  2  3
  5  6  1  0
  5 15  1  0
  6  7  2  0
  7  8  1  0
  7 12  1  0
  8  9  1  0
  9 10  1  0
  9 11  2  0
 12 13  2  0
 12 14  1  0
 14 15  1  0
 15 16  2  0
M  END
