
     RDKit          3D

 15 16  0  0  0  0  0  0  0  0999 V2000
    2.4200    1.6740    2.6070 O   0  0  0  0  0  0  0  0  0  0  0  0
    2.3000    1.1330    1.4800 C   0  0  0  0  0  0  0  0  0  0  0  0
    1.2380    0.3400    1.2670 N   0  0  0  0  0  0  0  0  0  0  0  0
    1.0690   -0.2650    0.0610 C   0  0  0  0  0  0  0  0  0  0  0  0
    2.0310   -0.0100   -0.8730 C   0  0  0  0  0  0  0  0  0  0  0  0
    3.1160    0.8020   -0.6530 C   0  0  0  0  0  0  0  0  0  0  0  0
    3.9330    0.9650   -1.5800 O   0  0  0  0  0  0  0  0  0  0  0  0
    3.2420    1.3800    0.5530 N   0  0  0  0  0  0  0  0  0  0  0  0
    1.5580   -1.0020   -2.3190 S   0  0  0  0  0  0  0  0  0  0  0  0
    0.5400   -2.2000   -1.3190 C   0  0  0  0  0  0  0  0  0  0  0  0
   -0.0150   -1.1260   -0.3810 C   0  0  0  0  0  0  0  0  0  0  0  0
   -1.3070   -1.0670   -0.1180 C   0  0  0  0  0  0  0  0  0  0  0  0
   -2.0460   -0.1190    0.6920 C   0  0  0  0  0  0  0  0  0  0  0  0
   -3.1140    0.4880   -0.2480 C   0  0  0  0  0  0  0  0  0  0  0  0
   -3.8710    1.4210    0.4760 O   0  0  0  0  0  0  0  0  0  0  0  0
  1  2  2  0
  2  3  1  0
  2  8  1  0
  3  4  1  0
  4  5  2  0
  4 11  1  0
  5  6  1  0
  5  9  1  0
  6  7  2  0
  6  8  1  0
  9 10  1  0
 10 11  1  0
 11 12  2  3
 12 13  1  0
 13 14  1  0
 14 15  1  0
M  END
