
     RDKit          3D

 11 12  0  0  0  0  0  0  0  0999 V2000
    1.5340   -0.7210   -1.1220 C   0  0  0  0  0  0  0  0  0  0  0  0
    0.7450   -0.0600   -0.0500 C   0  0  1  0  0  0  0  0  0  0  0  0
    1.4970   -0.0080    1.2330 C   0  0  0  0  0  0  0  0  0  0  0  0
    0.2800    1.3330   -0.5110 C   0  0  2  0  0  0  0  0  0  0  0  0
   -0.5020    1.7260    0.7220 C   0  0  0  0  0  0  0  0  0  0  0  0
   -1.2470    0.4410    1.0300 C   0  0  0  0  0  0  0  0  0  0  0  0
   -0.6600   -0.6150    0.0990 C   0  0  2  0  0  0  0  0  0  0  0  0
   -0.7450   -1.9870    0.5870 C   0  0  0  0  0  0  0  0  0  0  0  0
   -1.2100   -0.3430   -1.2360 C   0  0  0  0  0  0  0  0  0  0  0  0
   -1.9050   -1.0950   -1.8760 O   0  0  0  0  0  0  0  0  0  0  0  0
   -0.7270    1.0170   -1.5930 C   0  0  0  0  0  0  0  0  0  0  0  0
  2  1  1  6
  2  3  1  0
  2  4  1  0
  2  7  1  0
  4  5  1  1
  4 11  1  0
  5  6  1  0
  6  7  1  0
  7  8  1  1
  7  9  1  0
  9 10  2  0
  9 11  1  0
M  END
