
     RDKit          3D

 16 17  0  0  0  0  0  0  0  0999 V2000
   -4.3160    1.8120   -0.7200 O   0  0  0  0  0  0  0  0  0  0  0  0
   -3.3150    1.1840   -0.3150 C   0  0  0  0  0  0  0  0  0  0  0  0
   -3.5140    0.0310    0.6340 C   0  0  0  0  0  0  0  0  0  0  0  0
   -2.5990   -1.0980    0.2750 C   0  0  0  0  0  0  0  0  0  0  0  0
   -1.2040   -0.8660    0.6170 N   0  0  0  0  0  0  0  0  0  0  0  0
   -0.4870   -0.0950   -0.3470 C   0  0  2  0  0  0  0  0  0  0  0  0
    1.0070   -0.2040   -0.1320 C   0  0  0  0  0  0  0  0  0  0  0  0
    1.4860   -0.8080    0.8960 C   0  0  0  0  0  0  0  0  0  0  0  0
    2.8460   -1.0580    1.3410 C   0  0  0  0  0  0  0  0  0  0  0  0
    4.0220   -0.3150    0.2830 S   0  0  2  0  0  0  0  0  0  0  0  0
    5.0340   -1.3260   -0.2150 O   0  0  0  0  0  0  0  0  0  0  0  0
    4.7290    0.7850    1.0430 O   0  0  0  0  0  0  0  0  0  0  0  0
    3.1800    0.4410   -1.0270 C   0  0  0  0  0  0  0  0  0  0  0  0
    1.8790    0.4240   -1.0990 C   0  0  0  0  0  0  0  0  0  0  0  0
   -0.7820    1.3790   -0.2130 C   0  0  0  0  0  0  0  0  0  0  0  0
   -2.0720    1.6410   -0.8080 N   0  0  0  0  0  0  0  0  0  0  0  0
  1  2  2  0
  2  3  1  0
  2 16  1  0
  3  4  1  0
  4  5  1  0
  5  6  1  0
  6  7  1  1
  6 15  1  0
  7  8  2  0
  7 14  1  0
  8  9  1  0
 10  9  1  1
 10 11  2  0
 10 12  2  0
 10 13  1  0
 13 14  2  0
 15 16  1  0
M  END
