
     RDKit          3D

 34 36  0  0  0  0  0  0  0  0999 V2000
    6.6030    3.0480    1.3710 C   0  0  0  0  0  0  0  0  0  0  0  0
    6.5190    1.6120    1.4510 N   0  0  0  0  0  0  0  0  0  0  0  0
    5.4070    0.9010    0.9210 C   0  0  0  0  0  0  0  0  0  0  0  0
    4.0070    1.6680    0.1110 S   0  0  0  0  0  0  0  0  0  0  0  0
    3.1360    0.0900   -0.2180 C   0  0  0  0  0  0  0  0  0  0  0  0
    1.8620    0.0280   -0.8770 C   0  0  0  0  0  0  0  0  0  0  0  0
    1.2280    1.0220   -1.2650 O   0  0  0  0  0  0  0  0  0  0  0  0
    1.3000   -1.2650   -1.0970 N   0  0  0  0  0  0  0  0  0  0  0  0
    0.0110   -1.3140   -1.7640 C   0  0  2  0  0  0  0  0  0  0  0  0
    0.1110   -0.6710   -3.1100 C   0  0  0  0  0  0  0  0  0  0  0  0
   -0.9660   -0.5880   -0.8750 C   0  0  0  0  0  0  0  0  0  0  0  0
   -0.7800   -0.5710    0.3630 O   0  0  0  0  0  0  0  0  0  0  0  0
   -2.0720    0.0660   -1.4240 N   0  0  0  0  0  0  0  0  0  0  0  0
   -3.0830    0.7760   -0.7350 C   0  0  0  0  0  0  0  0  0  0  0  0
   -3.2280    0.8010    0.6230 C   0  0  0  0  0  0  0  0  0  0  0  0
   -4.2670    1.5050    1.2650 C   0  0  0  0  0  0  0  0  0  0  0  0
   -4.3970    1.5060    2.7030 C   0  0  0  0  0  0  0  0  0  0  0  0
   -3.4810    0.7030    3.5440 C   0  0  0  0  0  0  0  0  0  0  0  0
   -5.2820    2.1780    3.3030 O   0  0  0  0  0  0  0  0  0  0  0  0
   -5.1760    2.1980    0.4980 C   0  0  0  0  0  0  0  0  0  0  0  0
   -6.2740    2.9430    1.1390 C   0  0  0  0  0  0  0  0  0  0  0  0
   -5.0340    2.1740   -0.8330 N   0  0  0  0  0  0  0  0  0  0  0  0
   -4.0480    1.5050   -1.4460 C   0  0  0  0  0  0  0  0  0  0  0  0
   -3.9890    1.5360   -2.6990 O   0  0  0  0  0  0  0  0  0  0  0  0
   -0.4240   -2.7380   -1.9200 C   0  0  0  0  0  0  0  0  0  0  0  0
    0.3250   -3.8820   -1.8410 C   0  0  0  0  0  0  0  0  0  0  0  0
   -0.5140   -4.9420   -2.0510 C   0  0  0  0  0  0  0  0  0  0  0  0
   -1.7800   -4.3910   -2.2570 C   0  0  0  0  0  0  0  0  0  0  0  0
   -1.6580   -3.1090   -2.1680 O   0  0  0  0  0  0  0  0  0  0  0  0
    3.9770   -0.8230    0.3080 C   0  0  0  0  0  0  0  0  0  0  0  0
    5.1200   -0.4300    0.8820 C   0  0  0  0  0  0  0  0  0  0  0  0
    6.1040   -1.4200    1.4920 C   0  0  1  0  0  0  0  0  0  0  0  0
    7.3340   -1.3210    0.9050 F   0  0  0  0  0  0  0  0  0  0  0  0
    6.1870   -1.0840    2.8280 F   0  0  0  0  0  0  0  0  0  0  0  0
  1  2  1  0
  2  3  1  0
  3  4  1  0
  3 31  2  0
  4  5  1  0
  5  6  1  0
  5 30  2  0
  6  7  2  0
  6  8  1  0
  8  9  1  0
  9 10  1  6
  9 11  1  0
  9 25  1  0
 11 12  2  0
 11 13  1  0
 13 14  1  0
 14 15  2  0
 14 23  1  0
 15 16  1  0
 16 17  1  0
 16 20  2  0
 17 18  1  0
 17 19  2  0
 20 21  1  0
 20 22  1  0
 22 23  1  0
 23 24  2  0
 25 26  2  0
 25 29  1  0
 26 27  1  0
 27 28  2  0
 28 29  1  0
 30 31  1  0
 31 32  1  0
 32 33  1  6
 32 34  1  0
M  END
