
     RDKit          3D

 34 36  0  0  0  0  0  0  0  0999 V2000
   -7.3490   -2.7090    0.2300 C   0  0  0  0  0  0  0  0  0  0  0  0
   -5.9880   -3.2240   -0.2550 C   0  0  0  0  0  0  0  0  0  0  0  0
   -5.5610   -2.3600   -1.8130 S   0  0  0  0  0  0  0  0  0  0  0  0
   -5.4110   -0.6410   -1.4350 C   0  0  0  0  0  0  0  0  0  0  0  0
   -6.4760    0.1980   -1.5900 C   0  0  0  0  0  0  0  0  0  0  0  0
   -6.3720    1.5370   -1.2810 C   0  0  0  0  0  0  0  0  0  0  0  0
   -5.1600    2.0220   -0.8100 C   0  0  0  0  0  0  0  0  0  0  0  0
   -4.0750    1.1620   -0.6560 C   0  0  0  0  0  0  0  0  0  0  0  0
   -4.1590   -0.1570   -0.9550 C   0  0  0  0  0  0  0  0  0  0  0  0
   -3.1080   -1.0660   -0.8480 N   0  0  0  0  0  0  0  0  0  0  0  0
   -1.8010   -0.6800   -0.5860 C   0  0  0  0  0  0  0  0  0  0  0  0
   -1.4880    0.5580   -0.4040 O   0  0  0  0  0  0  0  0  0  0  0  0
   -0.6010   -1.5770   -0.4860 C   0  0  0  0  0  0  0  0  0  0  0  0
    0.5470   -0.7330   -0.3020 N   0  0  0  0  0  0  0  0  0  0  0  0
    0.8450    0.0510    0.8540 C   0  0  0  0  0  0  0  0  0  0  0  0
    0.1710    0.0420    1.8440 O   0  0  0  0  0  0  0  0  0  0  0  0
    2.1010    0.9290    0.7810 C   0  0  2  0  0  0  0  0  0  0  0  0
    2.1790    1.6740    2.1490 C   0  0  0  0  0  0  0  0  0  0  0  0
    1.9310    1.9910   -0.2320 C   0  0  0  0  0  0  0  0  0  0  0  0
    3.1620    0.0200    0.7060 N   0  0  0  0  0  0  0  0  0  0  0  0
    4.5100    0.3440    0.4210 C   0  0  0  0  0  0  0  0  0  0  0  0
    4.8060    1.5300    0.2320 O   0  0  0  0  0  0  0  0  0  0  0  0
    5.5020   -0.6370    0.3350 N   0  0  0  0  0  0  0  0  0  0  0  0
    6.8600   -0.5160   -0.0160 C   0  0  0  0  0  0  0  0  0  0  0  0
    7.4800    0.6580   -0.3240 C   0  0  0  0  0  0  0  0  0  0  0  0
    8.8140    0.6920   -0.7330 C   0  0  0  0  0  0  0  0  0  0  0  0
    9.3940    1.8700   -1.0410 F   0  0  0  0  0  0  0  0  0  0  0  0
    9.5460   -0.4640   -0.8370 C   0  0  0  0  0  0  0  0  0  0  0  0
    8.9640   -1.6580   -0.5390 C   0  0  0  0  0  0  0  0  0  0  0  0
    7.6250   -1.6690   -0.1280 C   0  0  0  0  0  0  0  0  0  0  0  0
    7.0420   -2.8480    0.1750 F   0  0  0  0  0  0  0  0  0  0  0  0
   -5.2760    3.3780   -0.5620 O   0  0  0  0  0  0  0  0  0  0  0  0
   -6.6330    3.7150   -0.6250 C   0  0  0  0  0  0  0  0  0  0  0  0
   -7.2170    2.6290   -1.3090 O   0  0  0  0  0  0  0  0  0  0  0  0
  1  2  1  0
  2  3  1  0
  3  4  1  0
  4  5  2  0
  4  9  1  0
  5  6  1  0
  6  7  2  0
  6 34  1  0
  7  8  1  0
  7 32  1  0
  8  9  2  0
  9 10  1  0
 10 11  1  0
 11 12  2  0
 11 13  1  0
 13 14  1  0
 14 15  1  0
 15 16  2  0
 15 17  1  0
 17 18  1  1
 17 19  1  0
 17 20  1  0
 20 21  1  0
 21 22  2  0
 21 23  1  0
 23 24  1  0
 24 25  2  0
 24 30  1  0
 25 26  1  0
 26 27  1  0
 26 28  2  0
 28 29  1  0
 29 30  2  0
 30 31  1  0
 32 33  1  0
 33 34  1  0
M  END
