
     RDKit          3D

 33 35  0  0  0  0  0  0  0  0999 V2000
    8.4520    0.8090    2.4620 C   0  0  0  0  0  0  0  0  0  0  0  0
    7.8350    0.2330    1.4340 O   0  0  0  0  0  0  0  0  0  0  0  0
    7.2710   -0.3060    0.4770 C   0  0  0  0  0  0  0  0  0  0  0  0
    7.7530   -1.2650   -0.4870 N   0  0  0  0  0  0  0  0  0  0  0  0
    7.0900   -1.7800   -1.4410 C   0  0  0  0  0  0  0  0  0  0  0  0
    5.7440   -1.4090   -1.6350 C   0  0  0  0  0  0  0  0  0  0  0  0
    5.1920   -0.5310   -0.8070 C   0  0  0  0  0  0  0  0  0  0  0  0
    3.8720    0.0950   -0.6710 C   0  0  0  0  0  0  0  0  0  0  0  0
    3.9520    0.8340    0.2760 C   0  0  0  0  0  0  0  0  0  0  0  0
    2.8640    1.7670    0.9060 C   0  0  0  0  0  0  0  0  0  0  0  0
    1.5920    1.1090    0.6220 C   0  0  0  0  0  0  0  0  0  0  0  0
    0.7420    0.3690    0.2550 C   0  0  0  0  0  0  0  0  0  0  0  0
    0.7610   -0.5170   -0.7580 O   0  0  0  0  0  0  0  0  0  0  0  0
   -0.5950    0.1850    0.8610 N   0  0  0  0  0  0  0  0  0  0  0  0
   -1.7310   -0.4850    0.5690 C   0  0  0  0  0  0  0  0  0  0  0  0
   -3.0530   -0.0120    1.8640 S   0  0  0  0  0  0  0  0  0  0  0  0
   -4.6140    0.1590    1.0850 C   0  0  0  0  0  0  0  0  0  0  0  0
   -5.8090   -0.1030    1.5260 C   0  0  0  0  0  0  0  0  0  0  0  0
   -7.0510    0.0460    0.7730 C   0  0  1  0  0  0  0  0  0  0  0  0
   -7.3500   -1.2260    0.1740 F   0  0  0  0  0  0  0  0  0  0  0  0
   -8.1400    0.3550    1.6000 F   0  0  0  0  0  0  0  0  0  0  0  0
   -7.0480    0.9970   -0.3350 C   0  0  0  0  0  0  0  0  0  0  0  0
   -5.7210    1.2660   -0.8540 C   0  0  0  0  0  0  0  0  0  0  0  0
   -4.6130    0.9150   -0.2440 C   0  0  0  0  0  0  0  0  0  0  0  0
   -3.3730    1.4970   -0.8180 C   0  0  0  0  0  0  0  0  0  0  0  0
   -2.2190   -1.1460   -0.3650 C   0  0  0  0  0  0  0  0  0  0  0  0
   -1.6220   -1.3960   -1.7530 C   0  0  0  0  0  0  0  0  0  0  0  0
   -1.2150   -1.5780   -2.6990 N   0  0  0  0  0  0  0  0  0  0  0  0
   -3.3960   -2.0780   -0.1790 C   0  0  0  0  0  0  0  0  0  0  0  0
   -3.8940   -2.7240   -1.3590 N   0  0  0  0  0  0  0  0  0  0  0  0
   -3.8890   -2.2850    0.9030 O   0  0  0  0  0  0  0  0  0  0  0  0
    5.1370    0.9110    0.9490 O   0  0  0  0  0  0  0  0  0  0  0  0
    5.9010   -0.0030    0.1930 C   0  0  0  0  0  0  0  0  0  0  0  0
  1  2  1  0
  2  3  1  0
  3  4  2  0
  3 33  1  0
  4  5  1  0
  5  6  2  0
  6  7  1  0
  7  8  1  0
  7 33  2  0
  8  9  2  0
  9 10  1  0
  9 32  1  0
 10 11  2  3
 11 12  1  0
 12 13  2  0
 12 14  1  0
 14 15  1  0
 15 16  1  0
 15 26  2  3
 16 17  1  0
 17 18  2  0
 17 24  1  0
 18 19  1  0
 19 20  1  6
 19 21  1  0
 19 22  1  0
 22 23  1  0
 23 24  2  0
 24 25  1  0
 26 27  1  0
 26 29  1  0
 27 28  3  0
 29 30  1  0
 29 31  2  0
 32 33  1  0
M  END
