
     RDKit          3D

 34 36  0  0  0  0  0  0  0  0999 V2000
   -2.8190    1.2390   -2.4850 C   0  0  0  0  0  0  0  0  0  0  0  0
   -1.8100    0.7160   -1.6360 O   0  0  0  0  0  0  0  0  0  0  0  0
   -2.2070    0.3130   -0.3690 C   0  0  0  0  0  0  0  0  0  0  0  0
   -3.5120    0.3980    0.0860 C   0  0  0  0  0  0  0  0  0  0  0  0
   -3.8870   -0.0050    1.3430 C   0  0  0  0  0  0  0  0  0  0  0  0
   -5.2150    0.0740    1.8280 N   0  0  0  0  0  0  0  0  0  0  0  0
   -6.2300    0.5990    0.9760 C   0  0  0  0  0  0  0  0  0  0  0  0
   -7.4030    0.0130    0.8620 C   0  0  0  0  0  0  0  0  0  0  0  0
   -7.7380   -1.1980    1.5900 C   0  0  0  0  0  0  0  0  0  0  0  0
   -8.8280   -1.7820    1.5130 O   0  0  0  0  0  0  0  0  0  0  0  0
   -8.3990    0.5930   -0.0210 C   0  0  0  0  0  0  0  0  0  0  0  0
   -8.1190    1.7910   -0.7650 N   0  0  0  0  0  0  0  0  0  0  0  0
   -9.8770   -0.0610   -0.2270 S   0  0  0  0  0  0  0  0  0  0  0  0
   -2.9050   -0.5120    2.1640 C   0  0  0  0  0  0  0  0  0  0  0  0
   -1.5760   -0.6130    1.7360 C   0  0  0  0  0  0  0  0  0  0  0  0
   -1.2420   -0.1970    0.4690 C   0  0  0  0  0  0  0  0  0  0  0  0
    0.0670   -0.2870    0.0240 O   0  0  0  0  0  0  0  0  0  0  0  0
    0.9990    0.7110    0.1760 C   0  0  0  0  0  0  0  0  0  0  0  0
    0.6430    1.7680    0.7540 O   0  0  0  0  0  0  0  0  0  0  0  0
    2.3750    0.5440   -0.3250 C   0  0  0  0  0  0  0  0  0  0  0  0
    2.8410   -0.5810   -0.9680 C   0  0  0  0  0  0  0  0  0  0  0  0
    4.1700   -0.3640   -1.2840 C   0  0  0  0  0  0  0  0  0  0  0  0
    5.0140   -1.3450   -1.9880 C   0  0  0  0  0  0  0  0  0  0  0  0
    6.3500   -0.9730   -2.0250 O   0  0  0  0  0  0  0  0  0  0  0  0
    7.0800   -0.8010   -0.8650 C   0  0  0  0  0  0  0  0  0  0  0  0
    8.4130   -0.4170   -1.0470 C   0  0  0  0  0  0  0  0  0  0  0  0
    9.2050   -0.2270    0.0580 C   0  0  0  0  0  0  0  0  0  0  0  0
    8.6840   -0.4140    1.3080 C   0  0  0  0  0  0  0  0  0  0  0  0
    9.4690   -0.2250    2.4000 F   0  0  0  0  0  0  0  0  0  0  0  0
    7.3760   -0.7920    1.5100 C   0  0  0  0  0  0  0  0  0  0  0  0
    6.8640   -0.9750    2.7360 F   0  0  0  0  0  0  0  0  0  0  0  0
    6.5580   -0.9890    0.3940 C   0  0  0  0  0  0  0  0  0  0  0  0
    4.4500    0.8720   -0.8240 N   0  0  0  0  0  0  0  0  0  0  0  0
    3.3850    1.4060   -0.2570 N   0  0  0  0  0  0  0  0  0  0  0  0
  1  2  1  0
  2  3  1  0
  3  4  2  0
  3 16  1  0
  4  5  1  0
  5  6  1  0
  5 14  2  0
  6  7  1  0
  7  8  2  3
  8  9  1  0
  8 11  1  0
  9 10  2  0
 11 12  1  0
 11 13  2  0
 14 15  1  0
 15 16  2  0
 16 17  1  0
 17 18  1  0
 18 19  2  0
 18 20  1  0
 20 21  2  0
 20 34  1  0
 21 22  1  0
 22 23  1  0
 22 33  2  0
 23 24  1  0
 24 25  1  0
 25 26  2  0
 25 32  1  0
 26 27  1  0
 27 28  2  0
 28 29  1  0
 28 30  1  0
 30 31  1  0
 30 32  2  0
 33 34  1  0
M  END
