
     RDKit          3D

 30 31  0  0  0  0  0  0  0  0999 V2000
   -5.0470   -0.9290    2.6220 C   0  0  0  0  0  0  0  0  0  0  0  0
   -6.0650   -1.1770    1.8120 C   0  0  0  0  0  0  0  0  0  0  0  0
   -6.5220   -0.2130    0.8250 C   0  0  0  0  0  0  0  0  0  0  0  0
   -7.5260   -0.4130    0.0160 C   0  0  0  0  0  0  0  0  0  0  0  0
   -8.3750   -1.5980   -0.0700 C   0  0  0  0  0  0  0  0  0  0  0  0
   -8.3530   -2.3940   -1.6930 S   0  0  0  0  0  0  0  0  0  0  0  0
   -8.6370   -3.8930   -1.4390 O   0  0  0  0  0  0  0  0  0  0  0  0
   -5.8380    1.0190    0.7360 O   0  0  0  0  0  0  0  0  0  0  0  0
   -4.5550    1.1360    0.2910 C   0  0  0  0  0  0  0  0  0  0  0  0
   -3.7250    0.1360   -0.1250 C   0  0  0  0  0  0  0  0  0  0  0  0
   -2.4120    0.3770   -0.5640 C   0  0  0  0  0  0  0  0  0  0  0  0
   -1.9260    1.6460   -0.5850 C   0  0  0  0  0  0  0  0  0  0  0  0
   -0.5680    1.9040   -0.9720 N   0  0  0  0  0  0  0  0  0  0  0  0
    0.5070    1.5340   -0.1190 C   0  0  0  0  0  0  0  0  0  0  0  0
    0.1830    0.9660    0.9730 O   0  0  0  0  0  0  0  0  0  0  0  0
    1.9210    1.7730   -0.4270 C   0  0  0  0  0  0  0  0  0  0  0  0
    2.1950    2.2890   -1.5230 O   0  0  0  0  0  0  0  0  0  0  0  0
    2.9250    1.4230    0.5190 N   0  0  0  0  0  0  0  0  0  0  0  0
    4.2530    1.6680    0.2240 N   0  0  0  0  0  0  0  0  0  0  0  0
    5.2080    0.6320    0.2980 C   0  0  0  0  0  0  0  0  0  0  0  0
    4.8790   -0.5540    0.6270 O   0  0  0  0  0  0  0  0  0  0  0  0
    6.6340    0.9500   -0.0190 C   0  0  0  0  0  0  0  0  0  0  0  0
    7.4240   -0.3190    0.0700 C   0  0  0  0  0  0  0  0  0  0  0  0
    8.4040   -0.4670    0.9180 C   0  0  0  0  0  0  0  0  0  0  0  0
    9.2020   -1.7080    1.0300 C   0  0  0  0  0  0  0  0  0  0  0  0
    8.8250   -2.6880    0.0890 O   0  0  0  0  0  0  0  0  0  0  0  0
    7.7910   -2.5360   -0.8060 C   0  0  0  0  0  0  0  0  0  0  0  0
    7.1030   -1.4190   -0.8430 C   0  0  0  0  0  0  0  0  0  0  0  0
   -2.7370    2.6830   -0.1740 C   0  0  0  0  0  0  0  0  0  0  0  0
   -4.0180    2.4230    0.2530 C   0  0  0  0  0  0  0  0  0  0  0  0
  1  2  2  0
  2  3  1  0
  3  4  2  3
  3  8  1  0
  4  5  1  0
  5  6  1  0
  6  7  2  0
  8  9  1  0
  9 10  2  0
  9 30  1  0
 10 11  1  0
 11 12  2  0
 12 13  1  0
 12 29  1  0
 13 14  1  0
 14 15  2  0
 14 16  1  0
 16 17  2  0
 16 18  1  0
 18 19  1  0
 19 20  1  0
 20 21  2  0
 20 22  1  0
 22 23  1  0
 23 24  2  0
 23 28  1  0
 24 25  1  0
 25 26  1  0
 26 27  1  0
 27 28  2  0
 29 30  2  0
M  END
