
     RDKit          3D

 30 31  0  0  0  0  0  0  0  0999 V2000
   -3.2460   -4.0120    1.7430 C   0  0  0  0  0  0  0  0  0  0  0  0
   -3.6020   -3.4710    0.5960 C   0  0  0  0  0  0  0  0  0  0  0  0
   -4.2560   -4.2850   -0.3390 O   0  0  0  0  0  0  0  0  0  0  0  0
   -5.1720   -3.6070   -1.1890 C   0  0  0  0  0  0  0  0  0  0  0  0
   -4.4330   -2.5090   -1.8990 C   0  0  0  0  0  0  0  0  0  0  0  0
   -3.7420   -1.6510   -0.9020 C   0  0  0  0  0  0  0  0  0  0  0  0
   -3.3370   -2.0690    0.2790 C   0  0  0  0  0  0  0  0  0  0  0  0
   -2.7070   -1.2590    1.1690 O   0  0  0  0  0  0  0  0  0  0  0  0
   -1.9200   -0.1140    0.7120 C   0  0  0  0  0  0  0  0  0  0  0  0
   -2.5830    0.9620    0.4820 C   0  0  0  0  0  0  0  0  0  0  0  0
   -2.2680    2.3040    0.0330 C   0  0  2  0  0  0  0  0  0  0  0  0
   -2.1260    3.2070    1.1080 O   0  0  0  0  0  0  0  0  0  0  0  0
   -1.0220    4.0160    0.9120 C   0  0  0  0  0  0  0  0  0  0  0  0
   -3.4710    2.8520   -0.7320 C   0  0  0  0  0  0  0  0  0  0  0  0
   -4.1330    4.0000   -0.2920 N   0  0  0  0  0  0  0  0  0  0  0  0
   -3.8240    2.2330   -1.7510 O   0  0  0  0  0  0  0  0  0  0  0  0
   -0.5250   -0.4590    0.6180 C   0  0  0  0  0  0  0  0  0  0  0  0
   -0.1500   -1.6530    0.9240 O   0  0  0  0  0  0  0  0  0  0  0  0
    0.5380    0.3820    0.2150 N   0  0  0  0  0  0  0  0  0  0  0  0
    1.9070   -0.1150    0.1730 C   0  0  0  0  0  0  0  0  0  0  0  0
    2.3400   -1.7570    0.6360 S   0  0  0  0  0  0  0  0  0  0  0  0
    3.9990   -1.5990    0.3380 C   0  0  0  0  0  0  0  0  0  0  0  0
    5.0500   -2.6820    0.5320 C   0  0  0  0  0  0  0  0  0  0  0  0
    4.1760   -0.3200   -0.1000 C   0  0  0  0  0  0  0  0  0  0  0  0
    5.5710    0.1010   -0.4420 C   0  0  0  0  0  0  0  0  0  0  0  0
    6.2680    0.4300    0.8570 C   0  0  0  0  0  0  0  0  0  0  0  0
    3.0710    0.4540   -0.1840 C   0  0  0  0  0  0  0  0  0  0  0  0
    3.0600    1.8620   -0.6230 C   0  0  0  0  0  0  0  0  0  0  0  0
    4.2150    2.5950   -0.9980 N   0  0  0  0  0  0  0  0  0  0  0  0
    1.9870    2.5410   -0.6980 O   0  0  0  0  0  0  0  0  0  0  0  0
  1  2  2  0
  2  3  1  0
  2  7  1  0
  3  4  1  0
  4  5  1  0
  5  6  1  0
  6  7  2  0
  7  8  1  0
  8  9  1  0
  9 10  2  3
  9 17  1  0
 10 11  1  0
 11 12  1  1
 11 14  1  0
 12 13  1  0
 14 15  1  0
 14 16  2  0
 17 18  2  0
 17 19  1  0
 19 20  1  0
 20 21  1  0
 20 27  2  0
 21 22  1  0
 22 23  1  0
 22 24  2  0
 24 25  1  0
 24 27  1  0
 25 26  1  0
 27 28  1  0
 28 29  1  0
 28 30  2  0
M  END
