
     RDKit          3D

 29 33  0  0  0  0  0  0  0  0999 V2000
    3.0890    1.9320   -0.5310 O   0  0  0  0  0  0  0  0  0  0  0  0
    3.8880    1.0660   -0.0520 C   0  0  0  0  0  0  0  0  0  0  0  0
    3.3260    0.1600    0.8850 N   0  0  0  0  0  0  0  0  0  0  0  0
    1.9200    0.2480    1.2490 C   0  0  0  0  0  0  0  0  0  0  0  0
    1.0460   -0.2970    0.1850 C   0  0  0  0  0  0  0  0  0  0  0  0
   -0.2870   -0.2230    0.3160 N   0  0  0  0  0  0  0  0  0  0  0  0
   -1.1610   -0.6820   -0.5790 C   0  0  0  0  0  0  0  0  0  0  0  0
   -2.5430   -0.5940   -0.4220 N   0  0  0  0  0  0  0  0  0  0  0  0
   -3.1500   -0.0050    0.7090 C   0  0  0  0  0  0  0  0  0  0  0  0
   -4.5240    0.1200    0.9390 C   0  0  0  0  0  0  0  0  0  0  0  0
   -4.7320    0.7480    2.1460 C   0  0  0  0  0  0  0  0  0  0  0  0
   -6.0800    1.0510    2.7140 C   0  0  1  0  0  0  0  0  0  0  0  0
   -7.1190    1.4720    1.7440 C   0  0  0  0  0  0  0  0  0  0  0  0
   -7.1930    0.1250    2.3880 C   0  0  0  0  0  0  0  0  0  0  0  0
   -3.5240    0.9980    2.6370 N   0  0  0  0  0  0  0  0  0  0  0  0
   -2.5970    0.5560    1.7950 N   0  0  0  0  0  0  0  0  0  0  0  0
   -0.6610   -1.2850   -1.7420 C   0  0  0  0  0  0  0  0  0  0  0  0
   -1.2840   -1.8480   -2.8360 C   0  0  0  0  0  0  0  0  0  0  0  0
   -0.2760   -2.2870   -3.6770 C   0  0  0  0  0  0  0  0  0  0  0  0
    0.8970   -1.9690   -3.0530 C   0  0  0  0  0  0  0  0  0  0  0  0
    0.6700   -1.3550   -1.8670 N   0  0  0  0  0  0  0  0  0  0  0  0
    1.5110   -0.8760   -0.9330 N   0  0  0  0  0  0  0  0  0  0  0  0
    5.2850    1.0420   -0.4680 C   0  0  0  0  0  0  0  0  0  0  0  0
    6.2150    0.1560    0.0210 C   0  0  0  0  0  0  0  0  0  0  0  0
    7.5410    0.1640   -0.4010 C   0  0  0  0  0  0  0  0  0  0  0  0
    7.8950    1.1080   -1.3440 C   0  0  0  0  0  0  0  0  0  0  0  0
    9.2050    1.1000   -1.7490 F   0  0  0  0  0  0  0  0  0  0  0  0
    7.0050    1.9820   -1.8350 N   0  0  0  0  0  0  0  0  0  0  0  0
    5.7180    1.9540   -1.4070 C   0  0  0  0  0  0  0  0  0  0  0  0
  1  2  2  0
  2  3  1  0
  2 23  1  0
  3  4  1  0
  4  5  1  0
  5  6  1  0
  5 22  2  0
  6  7  2  0
  7  8  1  0
  7 17  1  0
  8  9  1  0
  9 10  2  0
  9 16  1  0
 10 11  1  0
 12 11  1  6
 11 15  2  0
 12 13  1  0
 12 14  1  0
 13 14  1  0
 15 16  1  0
 17 18  2  0
 17 21  1  0
 18 19  1  0
 19 20  2  0
 20 21  1  0
 21 22  1  0
 23 24  2  0
 23 29  1  0
 24 25  1  0
 25 26  2  0
 26 27  1  0
 26 28  1  0
 28 29  2  0
M  END
