
     RDKit          3D

 16 16  0  0  0  0  0  0  0  0999 V2000
   -2.8450   -1.6830   -0.7940 C   0  0  0  0  0  0  0  0  0  0  0  0
   -3.3940   -0.4540   -0.2180 C   0  0  0  0  0  0  0  0  0  0  0  0
   -2.8120    0.5550    0.3350 C   0  0  0  0  0  0  0  0  0  0  0  0
   -1.4720    0.8930    0.6090 N   0  0  0  0  0  0  0  0  0  0  0  0
   -0.3170    0.1570    0.3270 C   0  0  0  0  0  0  0  0  0  0  0  0
   -0.3210   -0.9320   -0.2230 O   0  0  0  0  0  0  0  0  0  0  0  0
    1.0030    0.6620    0.6850 N   0  0  0  0  0  0  0  0  0  0  0  0
    2.1700   -0.1410    0.3710 C   0  0  0  0  0  0  0  0  0  0  0  0
    3.3760    0.6300    0.8530 C   0  0  0  0  0  0  0  0  0  0  0  0
    4.8940   -0.2150    0.5450 S   0  0  2  0  0  0  0  0  0  0  0  0
    5.0920   -0.4840   -1.1920 C   0  0  0  0  0  0  0  0  0  0  0  0
    5.0450   -1.4450    1.3550 O   0  0  0  0  0  0  0  0  0  0  0  0
    6.0100    0.7320    0.9660 O   0  0  0  0  0  0  0  0  0  0  0  0
   -3.8630    1.5410    0.7500 C   0  0  0  0  0  0  0  0  0  0  0  0
   -5.0520    1.0940    0.4320 C   0  0  0  0  0  0  0  0  0  0  0  0
   -4.8740   -0.2050   -0.2080 C   0  0  0  0  0  0  0  0  0  0  0  0
  1  2  1  0
  2  3  2  0
  2 16  1  0
  3  4  1  0
  3 14  1  0
  4  5  1  0
  5  6  2  0
  5  7  1  0
  7  8  1  0
  8  9  1  0
  9 10  1  0
 10 11  1  6
 10 12  2  0
 10 13  2  0
 14 15  2  0
 15 16  1  0
M  END
