
     RDKit          3D

 26 28  0  0  0  0  0  0  0  0999 V2000
    8.9130    0.5500    0.8280 C   0  0  0  0  0  0  0  0  0  0  0  0
    7.6010    0.0590    0.5140 C   0  0  0  0  0  0  0  0  0  0  0  0
    7.0780   -0.9380   -0.2360 C   0  0  0  0  0  0  0  0  0  0  0  0
    5.7650   -1.1500   -0.3340 C   0  0  0  0  0  0  0  0  0  0  0  0
    4.9290   -0.2950    0.3750 C   0  0  0  0  0  0  0  0  0  0  0  0
    3.4500   -0.2980    0.4460 C   0  0  0  0  0  0  0  0  0  0  0  0
    2.8780    0.5710    1.1520 O   0  0  0  0  0  0  0  0  0  0  0  0
    2.6690   -1.2310   -0.2410 N   0  0  0  0  0  0  0  0  0  0  0  0
    1.2880   -1.2930   -0.2230 N   0  0  0  0  0  0  0  0  0  0  0  0
    0.4670   -0.1360   -0.4480 C   0  0  0  0  0  0  0  0  0  0  0  0
    1.0140    0.9520   -0.6670 O   0  0  0  0  0  0  0  0  0  0  0  0
   -0.9910   -0.2380   -0.4210 C   0  0  0  0  0  0  0  0  0  0  0  0
   -1.8770   -1.7610   -0.1040 S   0  0  0  0  0  0  0  0  0  0  0  0
   -3.4980   -1.0620   -0.2320 C   0  0  0  0  0  0  0  0  0  0  0  0
   -4.7300   -1.7830   -0.0760 N   0  0  0  0  0  0  0  0  0  0  0  0
   -5.8220   -1.7850   -0.8570 C   0  0  0  0  0  0  0  0  0  0  0  0
   -6.7860   -2.6250   -0.3360 C   0  0  0  0  0  0  0  0  0  0  0  0
   -6.2460   -3.1540    0.8150 C   0  0  0  0  0  0  0  0  0  0  0  0
   -4.9720   -2.6140    0.9490 C   0  0  0  0  0  0  0  0  0  0  0  0
   -3.2610    0.2140   -0.4930 C   0  0  0  0  0  0  0  0  0  0  0  0
   -1.9960    0.6880   -0.5990 C   0  0  0  0  0  0  0  0  0  0  0  0
   -1.6730    2.0750   -0.9230 N   0  0  0  0  0  0  0  0  0  0  0  0
   -2.6600    3.1250   -0.9090 C   0  0  0  0  0  0  0  0  0  0  0  0
   -3.0210    3.6280    0.4510 C   0  0  0  0  0  0  0  0  0  0  0  0
   -3.5340    2.6260    1.2470 O   0  0  0  0  0  0  0  0  0  0  0  0
    6.0240    0.8060    1.1770 S   0  0  0  0  0  0  0  0  0  0  0  0
  1  2  1  0
  2  3  2  0
  2 26  1  0
  3  4  1  0
  4  5  2  0
  5  6  1  0
  5 26  1  0
  6  7  2  0
  6  8  1  0
  8  9  1  0
  9 10  1  0
 10 11  2  0
 10 12  1  0
 12 13  1  0
 12 21  2  0
 13 14  1  0
 14 15  1  0
 14 20  2  0
 15 16  1  0
 15 19  1  0
 16 17  2  0
 17 18  1  0
 18 19  2  0
 20 21  1  0
 21 22  1  0
 22 23  1  0
 23 24  1  0
 24 25  1  0
M  END
