
     RDKit          3D

 26 28  0  0  0  0  0  0  0  0999 V2000
   -6.3420   -0.4760    2.9870 O   0  0  0  0  0  0  0  0  0  0  0  0
   -7.1420    0.4250    2.0830 S   0  0  2  0  0  0  0  0  0  0  0  0
   -6.7550    1.8560    2.3710 O   0  0  0  0  0  0  0  0  0  0  0  0
   -8.7830    0.1990    2.2920 O   0  0  0  0  0  0  0  0  0  0  0  0
   -6.6880    0.0810    0.4110 C   0  0  0  0  0  0  0  0  0  0  0  0
   -5.2180    0.2880    0.2390 C   0  0  0  0  0  0  0  0  0  0  0  0
   -4.4830   -0.7170   -0.1450 C   0  0  0  0  0  0  0  0  0  0  0  0
   -3.0500   -0.5640   -0.3250 C   0  0  0  0  0  0  0  0  0  0  0  0
   -2.3080   -1.6770   -0.7390 C   0  0  0  0  0  0  0  0  0  0  0  0
   -0.9680   -1.5710   -0.9170 C   0  0  0  0  0  0  0  0  0  0  0  0
   -0.2520   -0.4150   -0.7170 C   0  0  0  0  0  0  0  0  0  0  0  0
    1.1910   -0.3240   -0.9160 C   0  0  1  0  0  0  0  0  0  0  0  0
    1.4570    0.5970   -2.0750 C   0  0  0  0  0  0  0  0  0  0  0  0
    2.8850    0.9280   -2.2980 C   0  0  0  0  0  0  0  0  0  0  0  0
    3.7230    1.0020   -1.0360 C   0  0  2  0  0  0  0  0  0  0  0  0
    4.2320   -0.3320   -0.8040 N   0  0  0  0  0  0  0  0  0  0  0  0
    5.1590   -0.6060    0.2320 C   0  0  0  0  0  0  0  0  0  0  0  0
    5.6990   -1.8080    0.5480 N   0  0  0  0  0  0  0  0  0  0  0  0
    6.5210   -1.6000    1.5720 C   0  0  0  0  0  0  0  0  0  0  0  0
    7.4180   -2.7630    2.3190 S   0  0  0  0  0  0  0  0  0  0  0  0
    6.5080   -0.3150    1.8970 N   0  0  0  0  0  0  0  0  0  0  0  0
    5.6630    0.3140    1.0690 N   0  0  0  0  0  0  0  0  0  0  0  0
    2.7000    1.3300    0.0670 C   0  0  0  0  0  0  0  0  0  0  0  0
    1.9700    0.0260    0.3120 C   0  0  0  0  0  0  0  0  0  0  0  0
   -0.9790    0.6770   -0.3120 C   0  0  0  0  0  0  0  0  0  0  0  0
   -2.3610    0.6060   -0.1170 C   0  0  0  0  0  0  0  0  0  0  0  0
  1  2  2  0
  2  3  2  0
  2  4  1  6
  2  5  1  0
  5  6  1  0
  6  7  2  3
  7  8  1  0
  8  9  2  0
  8 26  1  0
  9 10  1  0
 10 11  2  0
 12 11  1  1
 11 25  1  0
 12 13  1  0
 12 24  1  0
 13 14  1  0
 14 15  1  0
 15 16  1  1
 15 23  1  0
 16 17  1  0
 17 18  2  0
 17 22  1  0
 18 19  1  0
 19 20  2  0
 19 21  1  0
 21 22  1  0
 23 24  1  0
 25 26  2  0
M  END
