
     RDKit          3D

 34 34  0  0  0  0  0  0  0  0999 V2000
   -5.4470   -4.3850    1.7200 C   0  0  0  0  0  0  0  0  0  0  0  0
   -4.3930   -3.7870    0.8740 C   0  0  0  0  0  0  0  0  0  0  0  0
   -3.4750   -4.4000    0.3420 O   0  0  0  0  0  0  0  0  0  0  0  0
   -4.4970   -2.3470    0.6470 N   0  0  0  0  0  0  0  0  0  0  0  0
   -3.6820   -1.8800   -0.4190 C   0  0  1  0  0  0  0  0  0  0  0  0
   -4.6790   -0.7210   -0.9650 C   0  0  0  0  0  0  0  0  0  0  0  0
   -6.0750   -1.1230   -0.7390 C   0  0  0  0  0  0  0  0  0  0  0  0
   -6.7290   -1.9500   -1.2710 O   0  0  0  0  0  0  0  0  0  0  0  0
   -6.7340   -0.2900    0.2910 O   0  0  0  0  0  0  0  0  0  0  0  0
   -2.6830   -0.8080    0.0740 C   0  0  0  0  0  0  0  0  0  0  0  0
   -2.9650   -0.1510    1.0540 O   0  0  0  0  0  0  0  0  0  0  0  0
   -1.5020   -0.6270   -0.6500 N   0  0  0  0  0  0  0  0  0  0  0  0
   -0.7610    0.6020   -0.5530 C   0  0  1  0  0  0  0  0  0  0  0  0
   -1.7470    1.7430   -0.5500 C   0  0  0  0  0  0  0  0  0  0  0  0
   -1.3240    3.1220   -0.2830 C   0  0  0  0  0  0  0  0  0  0  0  0
   -0.7380    3.8980   -1.2540 C   0  0  0  0  0  0  0  0  0  0  0  0
   -0.6750    5.2960   -1.0380 C   0  0  0  0  0  0  0  0  0  0  0  0
   -1.2040    5.7790    0.0640 C   0  0  0  0  0  0  0  0  0  0  0  0
   -1.8390    5.0700    1.0520 C   0  0  0  0  0  0  0  0  0  0  0  0
   -1.8470    3.6980    0.8700 C   0  0  0  0  0  0  0  0  0  0  0  0
    0.4090    0.8530    0.6030 P   0  0  0  0  0  0  0  0  0  0  0  0
   -0.4960    0.5900    1.8100 O   0  0  0  0  0  0  0  0  0  0  0  0
    0.5050    2.4670    1.3110 O   0  0  0  0  0  0  0  0  0  0  0  0
    1.6950   -0.2260    0.9810 C   0  0  0  0  0  0  0  0  0  0  0  0
    2.4920   -0.7650   -0.1910 C   0  0  1  0  0  0  0  0  0  0  0  0
    2.9890    0.4220   -1.0600 C   0  0  0  0  0  0  0  0  0  0  0  0
    3.8470   -1.1240    0.4720 C   0  0  0  0  0  0  0  0  0  0  0  0
    4.0260   -0.7460    1.6220 O   0  0  0  0  0  0  0  0  0  0  0  0
    4.7490   -1.8090   -0.2940 N   0  0  0  0  0  0  0  0  0  0  0  0
    6.0820   -2.0870    0.1640 C   0  0  1  0  0  0  0  0  0  0  0  0
    6.9950   -2.7130   -0.7780 C   0  0  0  0  0  0  0  0  0  0  0  0
    6.6530   -0.7620    0.6330 C   0  0  0  0  0  0  0  0  0  0  0  0
    7.0980    0.1330   -0.3900 N   0  0  0  0  0  0  0  0  0  0  0  0
    6.7090   -0.4390    1.8220 O   0  0  0  0  0  0  0  0  0  0  0  0
  1  2  1  0
  2  3  2  0
  2  4  1  0
  4  5  1  0
  5  6  1  6
  5 10  1  0
  6  7  1  0
  7  8  2  0
  7  9  1  0
 10 11  2  0
 10 12  1  0
 12 13  1  0
 13 14  1  1
 13 21  1  0
 14 15  1  0
 15 16  2  0
 15 20  1  0
 16 17  1  0
 17 18  2  0
 18 19  1  0
 19 20  2  0
 21 22  1  0
 21 23  1  0
 21 24  1  0
 24 25  1  0
 25 26  1  6
 25 27  1  0
 27 28  2  0
 27 29  1  0
 29 30  1  0
 30 31  1  6
 30 32  1  0
 32 33  1  0
 32 34  2  0
M  END
