
     RDKit          3D

 35 39  0  0  0  0  0  0  0  0999 V2000
   -3.8750   -0.3270    2.8100 O   0  0  0  0  0  0  0  0  0  0  0  0
   -4.4950   -0.7490    1.8840 N   0  0  0  0  0  0  0  0  0  0  0  0
   -4.2880   -0.0540    0.6170 C   0  0  1  0  0  0  0  0  0  0  0  0
   -5.0250    1.2520    0.7500 C   0  0  0  0  0  0  0  0  0  0  0  0
   -5.0540    2.0780   -0.1450 O   0  0  0  0  0  0  0  0  0  0  0  0
   -5.9110    1.6260    2.2980 P   0  0  0  0  0  0  0  0  0  0  0  0
   -7.7000    0.3600    2.5490 P   0  0  0  0  0  0  0  0  0  0  0  0
   -2.8420    0.1810    0.5350 C   0  0  0  0  0  0  0  0  0  0  0  0
   -2.1070   -0.2370   -0.4610 C   0  0  0  0  0  0  0  0  0  0  0  0
   -2.7000   -0.9920   -1.5860 C   0  0  0  0  0  0  0  0  0  0  0  0
   -3.9860   -1.2330   -1.5580 C   0  0  0  0  0  0  0  0  0  0  0  0
   -4.8800   -0.8040   -0.4860 C   0  0  0  0  0  0  0  0  0  0  0  0
   -1.8340   -1.4040   -2.6690 C   0  0  0  0  0  0  0  0  0  0  0  0
   -2.3840   -1.8780   -3.7180 O   0  0  0  0  0  0  0  0  0  0  0  0
   -0.3730   -1.2820   -2.5660 C   0  0  0  0  0  0  0  0  0  0  0  0
    0.1030   -0.4810   -1.4930 N   0  0  0  0  0  0  0  0  0  0  0  0
    1.4840   -0.1130   -1.3780 C   0  0  0  0  0  0  0  0  0  0  0  0
    2.1370    0.0860   -2.4380 O   0  0  0  0  0  0  0  0  0  0  0  0
    2.1910    0.0480   -0.0910 C   0  0  2  0  0  0  0  0  0  0  0  0
    1.2880    0.4650    1.0450 C   0  0  0  0  0  0  0  0  0  0  0  0
   -0.0720    0.7900    0.5810 C   0  0  0  0  0  0  0  0  0  0  0  0
   -0.6900    1.7440    1.0650 O   0  0  0  0  0  0  0  0  0  0  0  0
   -0.7070    0.0040   -0.4500 N   0  0  0  0  0  0  0  0  0  0  0  0
    3.2120    1.0600   -0.2710 N   0  0  0  0  0  0  0  0  0  0  0  0
    4.3990    0.3520   -0.6050 C   0  0  0  0  0  0  0  0  0  0  0  0
    5.6010    1.0110   -1.1930 C   0  0  0  0  0  0  0  0  0  0  0  0
    6.6410    0.1150   -1.4290 O   0  0  0  0  0  0  0  0  0  0  0  0
    7.2510   -0.6520   -0.3850 C   0  0  0  0  0  0  0  0  0  0  0  0
    8.0580   -1.4360   -0.1320 N   0  0  0  0  0  0  0  0  0  0  0  0
    8.3420   -1.9350    1.0490 N   0  0  0  0  0  0  0  0  0  0  0  0
    7.7680   -1.6120    2.0240 C   0  0  0  0  0  0  0  0  0  0  0  0
    7.8160   -2.0170    3.7990 Cl  0  0  0  0  0  0  0  0  0  0  0  0
    6.5380   -0.3650    1.3830 S   0  0  0  0  0  0  0  0  0  0  0  0
    4.2050   -0.8770   -0.3060 N   0  0  0  0  0  0  0  0  0  0  0  0
    2.9650   -1.0950    0.2160 O   0  0  0  0  0  0  0  0  0  0  0  0
  1  2  2  0
  3  2  1  1
  3  4  1  0
  3  8  1  0
  3 12  1  0
  4  5  2  0
  4  6  1  0
  6  7  1  0
  8  9  2  0
  9 10  1  0
  9 23  1  0
 10 11  2  0
 10 13  1  0
 11 12  1  0
 13 14  2  0
 13 15  1  0
 15 16  1  0
 16 17  1  0
 16 23  1  0
 17 18  2  0
 17 19  1  0
 19 20  1  1
 19 24  1  0
 19 35  1  0
 20 21  1  0
 21 22  2  0
 21 23  1  0
 24 25  1  0
 25 26  1  0
 25 34  2  0
 26 27  1  0
 27 28  1  0
 28 29  2  0
 28 33  1  0
 29 30  1  0
 30 31  2  0
 31 32  1  0
 31 33  1  0
 34 35  1  0
M  END
