
     RDKit          3D

 35 36  0  0  0  0  0  0  0  0999 V2000
    1.3120   -1.5560    3.9080 C   0  0  0  0  0  0  0  0  0  0  0  0
    1.9020   -1.0580    2.5720 C   0  0  2  0  0  0  0  0  0  0  0  0
    0.8820   -1.1650    1.5350 C   0  0  0  0  0  0  0  0  0  0  0  0
    0.2890   -0.1590    0.8640 C   0  0  0  0  0  0  0  0  0  0  0  0
   -0.6880   -0.4450   -0.1220 N   0  0  0  0  0  0  0  0  0  0  0  0
   -2.0130   -0.0350    0.0340 C   0  0  0  0  0  0  0  0  0  0  0  0
   -2.3790    0.6060    1.0450 O   0  0  0  0  0  0  0  0  0  0  0  0
   -3.0840   -0.3200   -0.9630 C   0  0  1  0  0  0  0  0  0  0  0  0
   -2.6130   -0.9980   -2.0660 O   0  0  0  0  0  0  0  0  0  0  0  0
   -4.0750   -1.1570   -0.2490 C   0  0  0  0  0  0  0  0  0  0  0  0
   -4.3700   -2.3690   -0.5620 O   0  0  0  0  0  0  0  0  0  0  0  0
   -4.6560   -0.4760    0.8130 O   0  0  0  0  0  0  0  0  0  0  0  0
   -4.7190    1.1930    0.2660 S   0  0  0  0  0  0  0  0  0  0  0  0
   -3.7990    0.9470   -1.2860 C   0  0  1  0  0  0  0  0  0  0  0  0
   -2.8470    2.1030   -1.5330 C   0  0  0  0  0  0  0  0  0  0  0  0
   -3.6380    3.1990   -1.8210 F   0  0  0  0  0  0  0  0  0  0  0  0
   -4.8050    0.8410   -2.4010 C   0  0  2  0  0  0  0  0  0  0  0  0
   -5.9230   -0.1290   -2.1610 C   0  0  0  0  0  0  0  0  0  0  0  0
   -4.0830    0.3320   -3.5080 O   0  0  0  0  0  0  0  0  0  0  0  0
   -5.3560    2.0750   -2.7040 O   0  0  0  0  0  0  0  0  0  0  0  0
    0.6250    1.2360    1.1120 C   0  0  0  0  0  0  0  0  0  0  0  0
   -0.3180    2.1190    1.2070 O   0  0  0  0  0  0  0  0  0  0  0  0
    1.9100    1.7720    1.2700 N   0  0  0  0  0  0  0  0  0  0  0  0
    2.9750    1.6120    0.6540 N   0  0  0  0  0  0  0  0  0  0  0  0
    4.4720    2.4830    1.1420 P   0  0  0  0  0  0  0  0  0  0  0  0
    4.2500    4.6520    0.7920 P   0  0  0  0  0  0  0  0  0  0  0  0
    5.8810    1.8060    0.2380 C   0  0  0  0  0  0  0  0  0  0  0  0
    6.0280    0.6270   -0.1060 N   0  0  0  0  0  0  0  0  0  0  0  0
    5.1800   -0.5280    0.0820 C   0  0  0  0  0  0  0  0  0  0  0  0
    4.1970   -0.6210   -0.6040 N   0  0  0  0  0  0  0  0  0  0  0  0
    3.0580   -1.1310   -1.1070 C   0  0  0  0  0  0  0  0  0  0  0  0
    2.5120   -2.2840   -0.7250 C   0  0  0  0  0  0  0  0  0  0  0  0
    3.0340   -3.1820    0.2810 C   0  0  0  0  0  0  0  0  0  0  0  0
    3.2860   -2.9490    1.5360 C   0  0  0  0  0  0  0  0  0  0  0  0
    3.1340   -1.7830    2.2900 N   0  0  0  0  0  0  0  0  0  0  0  0
  2  1  1  1
  2  3  1  0
  2 35  1  0
  3  4  2  0
  4  5  1  0
  4 21  1  0
  5  6  1  0
  6  7  2  0
  6  8  1  0
  8  9  1  6
  8 10  1  0
  8 14  1  0
 10 11  2  0
 10 12  1  0
 12 13  1  0
 13 14  1  0
 14 15  1  6
 14 17  1  0
 15 16  1  0
 17 18  1  1
 17 19  1  0
 17 20  1  0
 21 22  2  0
 21 23  1  0
 23 24  2  0
 24 25  1  0
 25 26  1  0
 25 27  1  0
 27 28  2  0
 28 29  1  0
 29 30  2  0
 30 31  1  0
 31 32  2  0
 32 33  1  0
 33 34  2  0
 34 35  1  0
M  END
