
     RDKit          3D

 34 38  0  0  0  0  0  0  0  0999 V2000
    5.8140    0.6460    1.9680 O   0  0  0  0  0  0  0  0  0  0  0  0
    6.4560    1.0980    0.9840 C   0  0  0  0  0  0  0  0  0  0  0  0
    8.1490    1.7890    1.2040 P   0  0  0  0  0  0  0  0  0  0  0  0
    5.8300    1.0530   -0.2900 N   0  0  0  0  0  0  0  0  0  0  0  0
    4.5180    0.5210   -0.4820 C   0  0  2  0  0  0  0  0  0  0  0  0
    4.2850   -0.2050   -1.8090 C   0  0  0  0  0  0  0  0  0  0  0  0
    3.6410    1.0870   -1.5680 C   0  0  1  0  0  0  0  0  0  0  0  0
    2.1630    1.0760   -1.3590 C   0  0  0  0  0  0  0  0  0  0  0  0
    1.3450    2.0680   -1.6990 N   0  0  0  0  0  0  0  0  0  0  0  0
    0.1250    1.7330   -1.3770 N   0  0  0  0  0  0  0  0  0  0  0  0
    0.1520    0.4910   -0.8140 C   0  0  0  0  0  0  0  0  0  0  0  0
   -0.9890   -0.2490   -0.3180 C   0  0  0  0  0  0  0  0  0  0  0  0
   -0.7730   -1.5880    0.2590 C   0  0  0  0  0  0  0  0  0  0  0  0
   -2.0890   -2.2120    0.7260 C   0  0  0  0  0  0  0  0  0  0  0  0
   -1.8760   -3.5210    1.2880 N   0  0  0  0  0  0  0  0  0  0  0  0
   -1.6050   -3.7190    2.7090 C   0  0  0  0  0  0  0  0  0  0  0  0
   -1.7340   -5.2130    2.9150 C   0  0  1  0  0  0  0  0  0  0  0  0
   -3.0350   -5.5530    3.3310 O   0  0  0  0  0  0  0  0  0  0  0  0
   -1.4400   -5.8100    1.5670 C   0  0  1  0  0  0  0  0  0  0  0  0
   -2.1830   -6.9840    1.4610 O   0  0  0  0  0  0  0  0  0  0  0  0
   -1.8910   -4.7680    0.6120 C   0  0  0  0  0  0  0  0  0  0  0  0
   -2.2220   -4.9630   -0.5750 O   0  0  0  0  0  0  0  0  0  0  0  0
   -2.1420    0.2350   -0.3780 N   0  0  0  0  0  0  0  0  0  0  0  0
   -2.5040    1.5040   -0.9030 C   0  0  0  0  0  0  0  0  0  0  0  0
   -2.8330    1.6150   -2.1460 N   0  0  0  0  0  0  0  0  0  0  0  0
   -3.2020    2.8020   -2.7600 N   0  0  0  0  0  0  0  0  0  0  0  0
   -3.2300    3.9970   -1.9970 C   0  0  0  0  0  0  0  0  0  0  0  0
   -3.5920    5.2000   -2.5700 C   0  0  0  0  0  0  0  0  0  0  0  0
   -3.6070    6.3420   -1.7940 C   0  0  0  0  0  0  0  0  0  0  0  0
   -3.2610    6.2720   -0.4580 C   0  0  0  0  0  0  0  0  0  0  0  0
   -2.9040    5.0520    0.0840 C   0  0  0  0  0  0  0  0  0  0  0  0
   -2.8800    3.9010   -0.6630 C   0  0  0  0  0  0  0  0  0  0  0  0
   -2.5250    2.6630   -0.1390 O   0  0  0  0  0  0  0  0  0  0  0  0
    1.4190    0.1460   -0.8310 O   0  0  0  0  0  0  0  0  0  0  0  0
  1  2  2  0
  2  3  1  0
  2  4  1  0
  5  4  1  6
  5  6  1  0
  5  7  1  0
  6  7  1  0
  7  8  1  1
  8  9  2  0
  8 34  1  0
  9 10  1  0
 10 11  2  0
 11 12  1  0
 11 34  1  0
 12 13  1  0
 12 23  2  3
 13 14  1  0
 14 15  1  0
 15 16  1  0
 15 21  1  0
 16 17  1  0
 17 18  1  6
 17 19  1  0
 19 20  1  6
 19 21  1  0
 21 22  2  0
 23 24  1  0
 24 25  2  0
 24 33  1  0
 25 26  1  0
 26 27  1  0
 27 28  2  0
 27 32  1  0
 28 29  1  0
 29 30  2  0
 30 31  1  0
 31 32  2  0
 32 33  1  0
M  END
