
     RDKit          3D

 34 37  0  0  0  0  0  0  0  0999 V2000
    6.7210    3.5230    0.7130 C   0  0  0  0  0  0  0  0  0  0  0  0
    6.9590    2.0550    0.9500 C   0  0  0  0  0  0  0  0  0  0  0  0
    5.6520    1.3190    0.8940 C   0  0  0  0  0  0  0  0  0  0  0  0
    4.5930    1.9630    0.6770 O   0  0  0  0  0  0  0  0  0  0  0  0
    5.5980   -0.0840    1.0830 N   0  0  0  0  0  0  0  0  0  0  0  0
    4.3540   -0.7890    1.0310 C   0  0  0  0  0  0  0  0  0  0  0  0
    3.2020   -0.1130    0.7990 N   0  0  0  0  0  0  0  0  0  0  0  0
    2.0400   -0.7700    0.7510 C   0  0  0  0  0  0  0  0  0  0  0  0
    2.0210   -2.0880    0.9320 N   0  0  0  0  0  0  0  0  0  0  0  0
    0.9550   -2.8750    0.9150 C   0  0  0  0  0  0  0  0  0  0  0  0
    1.4210   -4.1710    1.1510 C   0  0  0  0  0  0  0  0  0  0  0  0
    2.7830   -4.1270    1.3070 C   0  0  0  0  0  0  0  0  0  0  0  0
    3.1450   -2.8110    1.1670 C   0  0  0  0  0  0  0  0  0  0  0  0
    4.3010   -2.1200    1.2100 N   0  0  0  0  0  0  0  0  0  0  0  0
   -0.3750   -2.2800    0.6850 C   0  0  0  0  0  0  0  0  0  0  0  0
   -0.2180   -1.0480   -0.1840 C   0  0  2  0  0  0  0  0  0  0  0  0
   -1.4690   -0.4070   -0.3130 N   0  0  0  0  0  0  0  0  0  0  0  0
   -2.6380   -0.8030   -0.9830 C   0  0  0  0  0  0  0  0  0  0  0  0
   -2.6490   -1.9300   -1.7580 C   0  0  0  0  0  0  0  0  0  0  0  0
   -3.8200   -2.2970   -2.4330 C   0  0  0  0  0  0  0  0  0  0  0  0
   -4.9250   -1.5430   -2.3200 N   0  0  0  0  0  0  0  0  0  0  0  0
   -4.9470   -0.4320   -1.5690 C   0  0  0  0  0  0  0  0  0  0  0  0
   -3.8170   -0.0560   -0.9020 C   0  0  0  0  0  0  0  0  0  0  0  0
   -3.8010    1.0570   -0.1360 O   0  0  0  0  0  0  0  0  0  0  0  0
   -4.7330    2.0060    0.1740 C   0  0  2  0  0  0  0  0  0  0  0  0
   -4.3680    3.4090   -0.3140 C   0  0  0  0  0  0  0  0  0  0  0  0
   -5.4680    4.2700    0.1050 N   0  0  0  0  0  0  0  0  0  0  0  0
   -5.0320    2.1440    1.6190 C   0  0  0  0  0  0  0  0  0  0  0  0
   -5.8770    2.9860    2.0160 O   0  0  0  0  0  0  0  0  0  0  0  0
   -4.4040    1.3620    2.5820 O   0  0  0  0  0  0  0  0  0  0  0  0
    0.5790   -1.5920   -1.7540 P   0  0  0  0  0  0  0  0  0  0  0  0
    0.8420   -3.2710   -1.8580 O   0  0  0  0  0  0  0  0  0  0  0  0
   -0.0470   -0.8570   -3.1500 O   0  0  0  0  0  0  0  0  0  0  0  0
    0.7520   -0.0650    0.4850 C   0  0  0  0  0  0  0  0  0  0  0  0
  1  2  1  0
  2  3  1  0
  3  4  2  0
  3  5  1  0
  5  6  1  0
  6  7  1  0
  6 14  2  0
  7  8  2  0
  8  9  1  0
  8 34  1  0
  9 10  1  0
  9 13  1  0
 10 11  2  0
 10 15  1  0
 11 12  1  0
 12 13  2  0
 13 14  1  0
 15 16  1  0
 16 17  1  6
 16 31  1  0
 16 34  1  0
 17 18  1  0
 18 19  2  0
 18 23  1  0
 19 20  1  0
 20 21  2  0
 21 22  1  0
 22 23  2  0
 23 24  1  0
 24 25  1  0
 25 26  1  1
 25 28  1  0
 26 27  1  0
 28 29  2  0
 28 30  1  0
 31 32  1  0
 31 33  1  0
M  END
