
     RDKit          3D

 23 25  0  0  0  0  0  0  0  0999 V2000
   -2.4160    3.3720   -0.3480 C   0  0  0  0  0  0  0  0  0  0  0  0
   -2.0070    2.0260    0.0950 C   0  0  0  0  0  0  0  0  0  0  0  0
   -2.6010    0.9480   -0.3270 C   0  0  0  0  0  0  0  0  0  0  0  0
   -3.7110    0.9810   -1.2660 C   0  0  0  0  0  0  0  0  0  0  0  0
   -4.1400    2.1040   -1.7060 N   0  0  0  0  0  0  0  0  0  0  0  0
   -4.3030   -0.2200   -1.6810 O   0  0  0  0  0  0  0  0  0  0  0  0
   -3.5160   -1.4180   -1.6740 C   0  0  0  0  0  0  0  0  0  0  0  0
   -2.8540   -1.5090   -0.3560 N   0  0  0  0  0  0  0  0  0  0  0  0
   -2.9320   -2.7220    0.4070 C   0  0  0  0  0  0  0  0  0  0  0  0
   -2.2650   -2.6780    1.7510 C   0  0  0  0  0  0  0  0  0  0  0  0
   -2.1300   -0.3730    0.1660 C   0  0  0  0  0  0  0  0  0  0  0  0
   -1.1970   -0.5870    0.9480 N   0  0  0  0  0  0  0  0  0  0  0  0
   -0.2700    0.0550    1.6560 N   0  0  0  0  0  0  0  0  0  0  0  0
    1.0770    0.1760    1.2180 C   0  0  0  0  0  0  0  0  0  0  0  0
    2.0160    0.8230    1.9220 N   0  0  0  0  0  0  0  0  0  0  0  0
    3.2940    0.9330    1.5020 C   0  0  0  0  0  0  0  0  0  0  0  0
    4.2790    1.6260    2.2660 N   0  0  0  0  0  0  0  0  0  0  0  0
    3.6630    0.3670    0.3100 C   0  0  0  0  0  0  0  0  0  0  0  0
    2.7290   -0.2940   -0.4220 C   0  0  0  0  0  0  0  0  0  0  0  0
    1.4630   -0.3740    0.0480 N   0  0  0  0  0  0  0  0  0  0  0  0
    3.2870   -0.8460   -1.6790 C   0  0  0  0  0  0  0  0  0  0  0  0
    4.7790   -0.7500   -1.4580 C   0  0  0  0  0  0  0  0  0  0  0  0
    4.9700    0.3240   -0.3980 C   0  0  0  0  0  0  0  0  0  0  0  0
  1  2  1  0
  2  3  2  3
  3  4  1  0
  3 11  1  0
  4  5  2  0
  4  6  1  0
  6  7  1  0
  7  8  1  0
  8  9  1  0
  8 11  1  0
  9 10  1  0
 11 12  2  3
 12 13  1  0
 13 14  1  0
 14 15  2  0
 14 20  1  0
 15 16  1  0
 16 17  1  0
 16 18  2  0
 18 19  1  0
 18 23  1  0
 19 20  2  0
 19 21  1  0
 21 22  1  0
 22 23  1  0
M  END
