
     RDKit          3D

 23 25  0  0  0  0  0  0  0  0999 V2000
    4.4110   -2.0320   -0.4640 C   0  0  0  0  0  0  0  0  0  0  0  0
    4.6490   -0.7280   -0.3180 C   0  0  0  0  0  0  0  0  0  0  0  0
    5.9640   -0.2280   -0.0360 C   0  0  0  0  0  0  0  0  0  0  0  0
    6.1970    1.2310    0.1800 C   0  0  0  0  0  0  0  0  0  0  0  0
    6.9690   -1.0200    0.0650 N   0  0  0  0  0  0  0  0  0  0  0  0
    3.4930    0.1700   -0.4430 C   0  0  0  0  0  0  0  0  0  0  0  0
    2.2250   -0.2630   -0.1530 N   0  0  0  0  0  0  0  0  0  0  0  0
    1.3770    0.7270   -0.3760 C   0  0  0  0  0  0  0  0  0  0  0  0
   -0.1010    0.7110   -0.1970 C   0  0  0  0  0  0  0  0  0  0  0  0
   -0.7380    1.7320   -0.4550 O   0  0  0  0  0  0  0  0  0  0  0  0
   -0.7600   -0.4420    0.2560 N   0  0  0  0  0  0  0  0  0  0  0  0
   -2.1400   -0.5980    0.4660 C   0  0  0  0  0  0  0  0  0  0  0  0
   -2.5810   -1.7990    1.0820 C   0  0  0  0  0  0  0  0  0  0  0  0
   -3.9180   -2.0160    1.3070 C   0  0  0  0  0  0  0  0  0  0  0  0
   -4.8470   -1.0920    0.9480 C   0  0  0  0  0  0  0  0  0  0  0  0
   -6.1750   -1.0190    1.0330 N   0  0  0  0  0  0  0  0  0  0  0  0
   -6.6080    0.1210    0.5260 N   0  0  0  0  0  0  0  0  0  0  0  0
   -5.5270    0.8220    0.0930 C   0  0  0  0  0  0  0  0  0  0  0  0
   -5.5840    2.1490   -0.5380 C   0  0  0  0  0  0  0  0  0  0  0  0
   -4.4020    0.0810    0.3460 C   0  0  0  0  0  0  0  0  0  0  0  0
   -3.0760    0.3310    0.1060 C   0  0  0  0  0  0  0  0  0  0  0  0
    2.0800    1.7640   -0.7960 N   0  0  0  0  0  0  0  0  0  0  0  0
    3.3690    1.4230   -0.8370 N   0  0  0  0  0  0  0  0  0  0  0  0
  1  2  2  0
  2  3  1  0
  2  6  1  0
  3  4  1  0
  3  5  2  0
  6  7  2  0
  6 23  1  0
  7  8  1  0
  8  9  1  0
  8 22  2  0
  9 10  2  0
  9 11  1  0
 11 12  1  0
 12 13  2  0
 12 21  1  0
 13 14  1  0
 14 15  2  0
 15 16  1  0
 15 20  1  0
 16 17  1  0
 17 18  2  0
 18 19  1  0
 18 20  1  0
 20 21  2  0
 22 23  1  0
M  END
