
     RDKit          3D

 23 25  0  0  0  0  0  0  0  0999 V2000
    5.9950   -1.6230   -0.7040 N   0  0  0  0  0  0  0  0  0  0  0  0
    5.1080   -0.8670   -1.2100 C   0  0  0  0  0  0  0  0  0  0  0  0
    4.1700   -1.2200   -2.2970 C   0  0  0  0  0  0  0  0  0  0  0  0
    2.7650   -1.1400   -1.7560 C   0  0  0  0  0  0  0  0  0  0  0  0
    2.6300    0.0250   -0.8670 C   0  0  0  0  0  0  0  0  0  0  0  0
    1.4470    0.2720   -0.3250 C   0  0  0  0  0  0  0  0  0  0  0  0
    0.2750   -0.5460   -0.5600 C   0  0  0  0  0  0  0  0  0  0  0  0
    0.3270   -1.5740   -1.3200 O   0  0  0  0  0  0  0  0  0  0  0  0
   -0.9380   -0.1860    0.0700 N   0  0  0  0  0  0  0  0  0  0  0  0
   -2.1140   -0.9520   -0.1260 C   0  0  0  0  0  0  0  0  0  0  0  0
   -2.3360   -2.0680   -0.8670 C   0  0  0  0  0  0  0  0  0  0  0  0
   -3.6480   -2.4460   -0.7410 N   0  0  0  0  0  0  0  0  0  0  0  0
   -4.2490   -1.5730    0.0740 C   0  0  0  0  0  0  0  0  0  0  0  0
   -3.3320   -0.6730    0.4470 N   0  0  0  0  0  0  0  0  0  0  0  0
   -3.5870    0.4230    1.3180 C   0  0  0  0  0  0  0  0  0  0  0  0
   -3.4590    1.7430    0.9260 C   0  0  0  0  0  0  0  0  0  0  0  0
   -3.7110    2.7950    1.7870 C   0  0  0  0  0  0  0  0  0  0  0  0
   -4.0920    2.5050    3.0440 N   0  0  0  0  0  0  0  0  0  0  0  0
   -4.2370    1.2570    3.4930 C   0  0  0  0  0  0  0  0  0  0  0  0
   -3.9830    0.2100    2.6270 C   0  0  0  0  0  0  0  0  0  0  0  0
    3.7570    0.9280   -0.5470 C   0  0  0  0  0  0  0  0  0  0  0  0
    3.4930    2.2410   -0.0680 N   0  0  0  0  0  0  0  0  0  0  0  0
    4.9560    0.4810   -0.7170 N   0  0  0  0  0  0  0  0  0  0  0  0
  1  2  2  0
  2  3  1  0
  2 23  1  0
  3  4  1  0
  4  5  1  0
  5  6  2  3
  5 21  1  0
  6  7  1  0
  7  8  2  0
  7  9  1  0
  9 10  1  0
 10 11  2  0
 10 14  1  0
 11 12  1  0
 12 13  2  0
 13 14  1  0
 14 15  1  0
 15 16  2  0
 15 20  1  0
 16 17  1  0
 17 18  2  0
 18 19  1  0
 19 20  2  0
 21 22  1  0
 21 23  2  0
M  END
