
     RDKit          3D

 23 25  0  0  0  0  0  0  0  0999 V2000
   -4.6250    2.4060    1.8560 C   0  0  0  0  0  0  0  0  0  0  0  0
   -3.5210    1.8290    1.0400 C   0  0  0  0  0  0  0  0  0  0  0  0
   -3.4940    1.8840   -0.3670 N   0  0  0  0  0  0  0  0  0  0  0  0
   -2.5570    1.2590    1.6740 N   0  0  0  0  0  0  0  0  0  0  0  0
   -1.4920    0.6990    0.9570 C   0  0  0  0  0  0  0  0  0  0  0  0
   -0.2520    1.2150    1.0370 N   0  0  0  0  0  0  0  0  0  0  0  0
    0.8090    0.7340    0.3830 C   0  0  0  0  0  0  0  0  0  0  0  0
    2.0860    1.3370    0.5200 N   0  0  0  0  0  0  0  0  0  0  0  0
    3.2160    0.8410   -0.1640 C   0  0  0  0  0  0  0  0  0  0  0  0
    3.6000    1.2650   -1.4260 C   0  0  0  0  0  0  0  0  0  0  0  0
    2.9600    2.2770   -2.3080 C   0  0  0  0  0  0  0  0  0  0  0  0
    4.7080    0.5590   -1.7130 N   0  0  0  0  0  0  0  0  0  0  0  0
    5.0020   -0.2540   -0.7020 N   0  0  0  0  0  0  0  0  0  0  0  0
    4.1010   -0.1160    0.2890 C   0  0  0  0  0  0  0  0  0  0  0  0
    4.0630   -0.8440    1.6050 C   0  0  0  0  0  0  0  0  0  0  0  0
    5.1240   -1.7160    1.6700 O   0  0  0  0  0  0  0  0  0  0  0  0
    0.6390   -0.3470   -0.4180 N   0  0  0  0  0  0  0  0  0  0  0  0
   -0.5560   -0.9330   -0.5640 C   0  0  0  0  0  0  0  0  0  0  0  0
   -1.6180   -0.4030    0.1290 C   0  0  0  0  0  0  0  0  0  0  0  0
   -2.9360   -1.0600   -0.0400 C   0  0  0  0  0  0  0  0  0  0  0  0
   -2.7290   -2.5450    0.1660 C   0  0  0  0  0  0  0  0  0  0  0  0
   -1.5700   -3.1170   -0.5820 C   0  0  0  0  0  0  0  0  0  0  0  0
   -0.8110   -2.1120   -1.4180 C   0  0  0  0  0  0  0  0  0  0  0  0
  1  2  1  0
  2  3  1  0
  2  4  2  3
  4  5  1  0
  5  6  2  0
  5 19  1  0
  6  7  1  0
  7  8  1  0
  7 17  2  0
  8  9  1  0
  9 10  1  0
  9 14  2  0
 10 11  1  0
 10 12  2  0
 12 13  1  0
 13 14  1  0
 14 15  1  0
 15 16  1  0
 17 18  1  0
 18 19  2  0
 18 23  1  0
 19 20  1  0
 20 21  1  0
 21 22  1  0
 22 23  1  0
M  END
