
     RDKit          3D

 23 25  0  0  0  0  0  0  0  0999 V2000
    7.1440    0.9450   -0.8010 C   0  0  0  0  0  0  0  0  0  0  0  0
    5.6880    1.1010   -0.4950 C   0  0  0  0  0  0  0  0  0  0  0  0
    5.0270    2.2150   -0.0040 C   0  0  0  0  0  0  0  0  0  0  0  0
    3.7000    1.8300    0.0970 C   0  0  0  0  0  0  0  0  0  0  0  0
    3.6020    0.5210   -0.3270 C   0  0  0  0  0  0  0  0  0  0  0  0
    2.4300   -0.3380   -0.4130 C   0  0  0  0  0  0  0  0  0  0  0  0
    2.4530   -1.6230   -0.8360 N   0  0  0  0  0  0  0  0  0  0  0  0
    1.2020   -2.0960   -0.7870 C   0  0  0  0  0  0  0  0  0  0  0  0
    0.3810   -1.1250   -0.3350 N   0  0  0  0  0  0  0  0  0  0  0  0
   -1.0210   -1.1850   -0.1280 C   0  0  0  0  0  0  0  0  0  0  0  0
   -1.6390   -2.4460   -0.3940 N   0  0  0  0  0  0  0  0  0  0  0  0
   -1.7420   -0.1430    0.2800 C   0  0  0  0  0  0  0  0  0  0  0  0
   -1.1460    1.0990    0.5300 C   0  0  0  0  0  0  0  0  0  0  0  0
   -0.6300    2.1880    0.7280 N   0  0  0  0  0  0  0  0  0  0  0  0
   -3.1940   -0.2700    0.4900 C   0  0  0  0  0  0  0  0  0  0  0  0
   -3.7030   -1.3940    1.1020 C   0  0  0  0  0  0  0  0  0  0  0  0
   -5.0740   -1.5690    1.3100 C   0  0  0  0  0  0  0  0  0  0  0  0
   -5.8740   -0.5890    0.8860 N   0  0  0  0  0  0  0  0  0  0  0  0
   -5.4700    0.5290    0.2870 C   0  0  0  0  0  0  0  0  0  0  0  0
   -6.4040    1.5130   -0.1300 N   0  0  0  0  0  0  0  0  0  0  0  0
   -4.0990    0.6880    0.0870 C   0  0  0  0  0  0  0  0  0  0  0  0
    1.1580   -0.0690   -0.1170 N   0  0  0  0  0  0  0  0  0  0  0  0
    4.8160    0.1640   -0.6580 O   0  0  0  0  0  0  0  0  0  0  0  0
  1  2  1  0
  2  3  2  0
  2 23  1  0
  3  4  1  0
  4  5  2  0
  5  6  1  0
  5 23  1  0
  6  7  1  0
  6 22  2  0
  7  8  2  0
  8  9  1  0
  9 10  1  0
  9 22  1  0
 10 11  1  0
 10 12  2  3
 12 13  1  0
 12 15  1  0
 13 14  3  0
 15 16  2  0
 15 21  1  0
 16 17  1  0
 17 18  2  0
 18 19  1  0
 19 20  1  0
 19 21  2  0
M  END
