
     RDKit          3D

 21 23  0  0  0  0  0  0  0  0999 V2000
    6.6110   -0.0530   -0.9250 C   0  0  0  0  0  0  0  0  0  0  0  0
    5.1810   -0.0270   -0.4690 C   0  0  0  0  0  0  0  0  0  0  0  0
    4.2910    0.6500   -0.4320 N   0  0  0  0  0  0  0  0  0  0  0  0
    3.0730    0.4690    0.0320 C   0  0  0  0  0  0  0  0  0  0  0  0
    2.0330    1.5460   -0.0280 C   0  0  0  0  0  0  0  0  0  0  0  0
    0.7400    1.0840    0.5400 C   0  0  0  0  0  0  0  0  0  0  0  0
    0.0690   -0.3430   -0.3540 S   0  0  0  0  0  0  0  0  0  0  0  0
   -1.5010   -0.8490    0.3920 C   0  0  0  0  0  0  0  0  0  0  0  0
   -1.5170   -1.7440    1.3850 N   0  0  0  0  0  0  0  0  0  0  0  0
   -2.6690   -2.1240    1.9410 C   0  0  0  0  0  0  0  0  0  0  0  0
   -2.7000   -2.9720    2.8830 O   0  0  0  0  0  0  0  0  0  0  0  0
   -3.8410   -1.6420    1.5460 N   0  0  0  0  0  0  0  0  0  0  0  0
   -3.8520   -0.7400    0.5500 C   0  0  0  0  0  0  0  0  0  0  0  0
   -5.0430   -0.1920    0.0840 C   0  0  0  0  0  0  0  0  0  0  0  0
   -4.9880    0.7200   -0.9320 C   0  0  0  0  0  0  0  0  0  0  0  0
   -3.8390    1.1080   -1.4970 N   0  0  0  0  0  0  0  0  0  0  0  0
   -2.6600    0.6000   -1.0740 C   0  0  0  0  0  0  0  0  0  0  0  0
   -1.5750    0.9380   -1.5770 O   0  0  0  0  0  0  0  0  0  0  0  0
   -2.6870   -0.3220   -0.0510 C   0  0  0  0  0  0  0  0  0  0  0  0
    2.8470   -0.7630    0.5660 C   0  0  0  0  0  0  0  0  0  0  0  0
    4.4710   -1.5960    0.3480 S   0  0  0  0  0  0  0  0  0  0  0  0
  1  2  1  0
  2  3  2  0
  2 21  1  0
  3  4  1  0
  4  5  1  0
  4 20  2  0
  5  6  1  0
  6  7  1  0
  7  8  1  0
  8  9  2  0
  8 19  1  0
  9 10  1  0
 10 11  2  0
 10 12  1  0
 12 13  1  0
 13 14  1  0
 13 19  2  0
 14 15  2  0
 15 16  1  0
 16 17  1  0
 17 18  2  0
 17 19  1  0
 20 21  1  0
M  END
