
     RDKit          3D

 25 28  0  0  0  0  0  0  0  0999 V2000
    6.0860    1.1020    2.2350 C   0  0  0  0  0  0  0  0  0  0  0  0
    5.2400    0.2980    1.2800 C   0  0  0  0  0  0  0  0  0  0  0  0
    3.9810    0.7330    0.9830 C   0  0  0  0  0  0  0  0  0  0  0  0
    3.4060    2.2030    1.7210 Cl  0  0  0  0  0  0  0  0  0  0  0  0
    3.1980   -0.0240    0.0890 C   0  0  0  0  0  0  0  0  0  0  0  0
    1.9900    0.1800   -0.3440 N   0  0  0  0  0  0  0  0  0  0  0  0
    1.3490   -0.4930   -1.1120 C   0  0  0  0  0  0  0  0  0  0  0  0
    0.0680   -0.5580   -1.7650 C   0  0  0  0  0  0  0  0  0  0  0  0
   -0.4520   -1.5260   -2.6780 C   0  0  0  0  0  0  0  0  0  0  0  0
   -1.6360   -1.3250   -3.1010 N   0  0  0  0  0  0  0  0  0  0  0  0
   -2.4140   -0.3340   -2.7890 C   0  0  0  0  0  0  0  0  0  0  0  0
   -4.0230    0.2440   -3.1540 S   0  0  0  0  0  0  0  0  0  0  0  0
   -5.2430   -0.4380   -2.0040 C   0  0  0  0  0  0  0  0  0  0  0  0
   -4.9750    0.0980   -0.6430 C   0  0  0  0  0  0  0  0  0  0  0  0
   -5.5660    1.2680   -0.2180 C   0  0  0  0  0  0  0  0  0  0  0  0
   -5.2810    1.7220    1.0610 C   0  0  0  0  0  0  0  0  0  0  0  0
   -4.4260    1.0210    1.8900 C   0  0  0  0  0  0  0  0  0  0  0  0
   -3.8600   -0.1380    1.4260 C   0  0  0  0  0  0  0  0  0  0  0  0
   -4.1380   -0.5740    0.1900 N   0  0  0  0  0  0  0  0  0  0  0  0
   -1.2190    0.5330   -1.6240 S   0  0  0  0  0  0  0  0  0  0  0  0
    2.5400   -1.8290   -1.4660 S   0  0  0  0  0  0  0  0  0  0  0  0
    3.8470   -1.1480   -0.3760 C   0  0  0  0  0  0  0  0  0  0  0  0
    5.0700   -1.5570   -0.0770 N   0  0  0  0  0  0  0  0  0  0  0  0
    5.8440   -0.8340    0.7880 C   0  0  0  0  0  0  0  0  0  0  0  0
    6.9950   -1.1770    1.0980 O   0  0  0  0  0  0  0  0  0  0  0  0
  1  2  1  0
  2  3  2  0
  2 24  1  0
  3  4  1  0
  3  5  1  0
  5  6  1  0
  5 22  2  0
  6  7  2  0
  7  8  1  0
  7 21  1  0
  8  9  2  0
  8 20  1  0
  9 10  1  0
 10 11  2  0
 11 12  1  0
 11 20  1  0
 12 13  1  0
 13 14  1  0
 14 15  2  0
 14 19  1  0
 15 16  1  0
 16 17  2  0
 17 18  1  0
 18 19  2  0
 21 22  1  0
 22 23  1  0
 23 24  1  0
 24 25  2  0
M  END
