
     RDKit          3D

 25 28  0  0  0  0  0  0  0  0999 V2000
   -5.6410   -1.4400   -0.0230 C   0  0  0  0  0  0  0  0  0  0  0  0
   -5.0990   -0.0210    0.1080 C   0  0  1  0  0  0  0  0  0  0  0  0
   -6.2840    0.8490    0.5410 C   0  0  0  0  0  0  0  0  0  0  0  0
   -4.0600   -0.0140    1.1750 C   0  0  0  0  0  0  0  0  0  0  0  0
   -2.6930   -0.1200    0.6880 C   0  0  0  0  0  0  0  0  0  0  0  0
   -1.1850   -0.8230    1.2680 S   0  0  0  0  0  0  0  0  0  0  0  0
   -0.1970   -0.3170   -0.1790 C   0  0  0  0  0  0  0  0  0  0  0  0
    1.2710   -0.6800   -0.2210 C   0  0  0  0  0  0  0  0  0  0  0  0
    2.1410    0.6820    0.5420 S   0  0  0  0  0  0  0  0  0  0  0  0
    3.8990    0.3030    0.5200 C   0  0  0  0  0  0  0  0  0  0  0  0
    4.7930    0.6030   -0.4360 N   0  0  0  0  0  0  0  0  0  0  0  0
    6.0130    0.1540   -0.0950 C   0  0  0  0  0  0  0  0  0  0  0  0
    7.2470    0.1930   -0.6950 C   0  0  0  0  0  0  0  0  0  0  0  0
    8.3470   -0.3640   -0.0920 C   0  0  0  0  0  0  0  0  0  0  0  0
    8.1950   -0.9740    1.1440 C   0  0  0  0  0  0  0  0  0  0  0  0
    9.5880   -1.6800    1.9070 Cl  0  0  0  0  0  0  0  0  0  0  0  0
    6.9770   -1.0310    1.7720 C   0  0  0  0  0  0  0  0  0  0  0  0
    5.8880   -0.4680    1.1550 C   0  0  0  0  0  0  0  0  0  0  0  0
    4.5810   -0.3470    1.4780 N   0  0  0  0  0  0  0  0  0  0  0  0
   -1.0300    0.2470   -0.8310 N   0  0  0  0  0  0  0  0  0  0  0  0
   -2.2910    0.4210   -0.5350 C   0  0  0  0  0  0  0  0  0  0  0  0
   -3.3580    1.0850   -1.2630 N   0  0  0  0  0  0  0  0  0  0  0  0
   -3.0200    2.5760   -2.1320 S   0  0  0  0  0  0  0  0  0  0  0  0
   -1.5530    2.6300   -2.5060 O   0  0  0  0  0  0  0  0  0  0  0  0
   -4.6510    0.4560   -1.2270 C   0  0  0  0  0  0  0  0  0  0  0  0
  2  1  1  6
  2  3  1  0
  2  4  1  0
  2 25  1  0
  4  5  1  0
  5  6  1  0
  5 21  2  0
  6  7  1  0
  7  8  1  0
  7 20  2  0
  8  9  1  0
  9 10  1  0
 10 11  2  0
 10 19  1  0
 11 12  1  0
 12 13  2  0
 12 18  1  0
 13 14  1  0
 14 15  2  0
 15 16  1  0
 15 17  1  0
 17 18  2  0
 18 19  1  0
 20 21  1  0
 21 22  1  0
 22 23  1  0
 22 25  1  0
 23 24  2  0
M  END
