
     RDKit          3D

 25 28  0  0  0  0  0  0  0  0999 V2000
   -4.9330   -2.2850    0.8610 C   0  0  0  0  0  0  0  0  0  0  0  0
   -4.1710   -1.1610    0.5520 O   0  0  0  0  0  0  0  0  0  0  0  0
   -4.6230    0.1390    0.5650 C   0  0  0  0  0  0  0  0  0  0  0  0
   -5.8920    0.5040    0.8850 C   0  0  0  0  0  0  0  0  0  0  0  0
   -6.3090    1.8010    0.8890 C   0  0  0  0  0  0  0  0  0  0  0  0
   -5.4160    2.8010    0.5540 C   0  0  0  0  0  0  0  0  0  0  0  0
   -4.1360    2.4450    0.2300 C   0  0  0  0  0  0  0  0  0  0  0  0
   -3.7120    1.1390    0.2250 C   0  0  0  0  0  0  0  0  0  0  0  0
   -2.3280    0.8570   -0.1340 C   0  0  0  0  0  0  0  0  0  0  0  0
   -1.3190    1.4200   -0.4630 N   0  0  0  0  0  0  0  0  0  0  0  0
   -0.1970    0.8130   -0.7210 N   0  0  0  0  0  0  0  0  0  0  0  0
   -0.0070   -0.3200   -0.6750 C   0  0  0  0  0  0  0  0  0  0  0  0
    1.0060   -1.3870   -0.8530 N   0  0  0  0  0  0  0  0  0  0  0  0
    2.3160   -1.0120   -1.2120 C   0  0  0  0  0  0  0  0  0  0  0  0
    2.9070    0.0470   -0.8960 N   0  0  0  0  0  0  0  0  0  0  0  0
    4.2160    0.2790   -1.3290 C   0  0  1  0  0  0  0  0  0  0  0  0
    5.2380   -0.0820   -0.3190 C   0  0  0  0  0  0  0  0  0  0  0  0
    6.4220   -1.3320   -0.4850 S   0  0  0  0  0  0  0  0  0  0  0  0
    7.2150   -1.1070    1.1370 C   0  0  0  0  0  0  0  0  0  0  0  0
    6.4690   -0.0710    1.6470 C   0  0  0  0  0  0  0  0  0  0  0  0
    5.4850    0.4370    0.9190 C   0  0  0  0  0  0  0  0  0  0  0  0
    4.4490    1.7940    1.4890 Cl  0  0  0  0  0  0  0  0  0  0  0  0
    4.5290   -0.5050   -2.5910 C   0  0  0  0  0  0  0  0  0  0  0  0
    3.4430   -1.9580   -2.2250 S   0  0  0  0  0  0  0  0  0  0  0  0
   -1.7180   -0.9240   -0.1470 S   0  0  0  0  0  0  0  0  0  0  0  0
  1  2  1  0
  2  3  1  0
  3  4  2  0
  3  8  1  0
  4  5  1  0
  5  6  2  0
  6  7  1  0
  7  8  2  0
  8  9  1  0
  9 10  2  0
  9 25  1  0
 10 11  1  0
 11 12  2  0
 12 13  1  0
 12 25  1  0
 13 14  1  0
 14 15  2  0
 14 24  1  0
 15 16  1  0
 16 17  1  1
 16 23  1  0
 17 18  1  0
 17 21  2  0
 18 19  1  0
 19 20  2  0
 20 21  1  0
 21 22  1  0
 23 24  1  0
M  END
