
     RDKit          3D

 32 35  0  0  0  0  0  0  0  0999 V2000
    7.1510    0.8370   -0.3740 O   0  0  0  0  0  0  0  0  0  0  0  0
    5.9830    0.6700    0.0670 C   0  0  0  0  0  0  0  0  0  0  0  0
    5.3000   -0.6590   -0.1880 C   0  0  0  0  0  0  0  0  0  0  0  0
    3.9610   -0.5480    0.4450 C   0  0  0  0  0  0  0  0  0  0  0  0
    3.0560   -1.7370    0.3160 C   0  0  1  0  0  0  0  0  0  0  0  0
    3.6730   -2.9330    0.9360 C   0  0  0  0  0  0  0  0  0  0  0  0
    4.8240   -3.4090    0.3820 O   0  0  0  0  0  0  0  0  0  0  0  0
    1.8130   -1.3750    1.1410 C   0  0  0  0  0  0  0  0  0  0  0  0
    0.5700   -2.0480    0.6540 C   0  0  2  0  0  0  0  0  0  0  0  0
    0.7740   -3.1340   -0.3450 C   0  0  0  0  0  0  0  0  0  0  0  0
    1.8940   -2.9410   -1.2920 C   0  0  0  0  0  0  0  0  0  0  0  0
    2.7310   -1.8860   -1.0180 O   0  0  0  0  0  0  0  0  0  0  0  0
   -0.3390   -0.9630    0.0870 C   0  0  0  0  0  0  0  0  0  0  0  0
   -1.7030   -1.4760   -0.2560 C   0  0  2  0  0  0  0  0  0  0  0  0
   -2.5810   -0.3800   -0.1800 O   0  0  0  0  0  0  0  0  0  0  0  0
   -3.0900   -0.0060   -1.3990 C   0  0  1  0  0  0  0  0  0  0  0  0
   -4.5970   -0.1480   -1.3700 C   0  0  0  0  0  0  0  0  0  0  0  0
   -5.1700    1.1990   -1.7440 C   0  0  1  0  0  0  0  0  0  0  0  0
   -6.4930    1.4590   -1.0630 C   0  0  0  0  0  0  0  0  0  0  0  0
   -6.5030    2.7600   -0.2950 C   0  0  0  0  0  0  0  0  0  0  0  0
   -5.4410    2.6710    0.7660 C   0  0  0  0  0  0  0  0  0  0  0  0
   -4.0920    2.3230    0.2270 C   0  0  0  0  0  0  0  0  0  0  0  0
   -4.0950    2.1500   -1.2720 C   0  0  2  0  0  0  0  0  0  0  0  0
   -4.2550    3.3900   -1.8890 O   0  0  0  0  0  0  0  0  0  0  0  0
   -2.8350    1.4500   -1.7320 C   0  0  0  0  0  0  0  0  0  0  0  0
   -2.1790   -2.6240    0.5300 C   0  0  0  0  0  0  0  0  0  0  0  0
   -1.2400   -3.2290    1.4940 C   0  0  0  0  0  0  0  0  0  0  0  0
   -0.1020   -2.5320    1.7780 O   0  0  0  0  0  0  0  0  0  0  0  0
    5.4000    1.7000    0.7510 O   0  0  0  0  0  0  0  0  0  0  0  0
    6.0140    2.9340    0.9960 C   0  0  0  0  0  0  0  0  0  0  0  0
    6.3950    3.6780   -0.2510 C   0  0  0  0  0  0  0  0  0  0  0  0
    6.9950    4.8860    0.1710 O   0  0  0  0  0  0  0  0  0  0  0  0
  1  2  2  0
  2  3  1  0
  2 29  1  0
  3  4  1  0
  5  4  1  6
  5  6  1  0
  5  8  1  0
  5 12  1  0
  6  7  1  0
  9  8  1  1
  9 10  1  0
  9 13  1  0
  9 28  1  0
 10 11  1  0
 11 12  1  0
 13 14  1  0
 14 15  1  1
 14 26  1  0
 16 15  1  1
 16 17  1  0
 16 25  1  0
 18 17  1  1
 18 19  1  0
 18 23  1  0
 19 20  1  0
 20 21  1  0
 21 22  1  0
 22 23  1  0
 23 24  1  6
 23 25  1  0
 26 27  1  0
 27 28  1  0
 29 30  1  0
 30 31  1  0
 31 32  1  0
M  END
