
     RDKit          3D

 17 18  0  0  0  0  0  0  0  0999 V2000
   -4.8800    1.3440    0.3140 C   0  0  0  0  0  0  0  0  0  0  0  0
   -3.4870    1.5460   -0.0840 C   0  0  0  0  0  0  0  0  0  0  0  0
   -3.1300    2.6050   -0.6320 O   0  0  0  0  0  0  0  0  0  0  0  0
   -2.4940    0.4780    0.1700 C   0  0  0  0  0  0  0  0  0  0  0  0
   -2.8710   -0.6330    0.7460 C   0  0  0  0  0  0  0  0  0  0  0  0
   -1.9570   -1.7530    1.0380 C   0  0  0  0  0  0  0  0  0  0  0  0
   -0.5350   -1.5350    0.6740 C   0  0  0  0  0  0  0  0  0  0  0  0
   -0.2110   -0.2640    0.0300 C   0  0  0  0  0  0  0  0  0  0  0  0
    1.1550    0.0190   -0.3870 C   0  0  0  0  0  0  0  0  0  0  0  0
    2.1180   -0.8240   -0.2120 C   0  0  0  0  0  0  0  0  0  0  0  0
    1.9690   -2.0450    0.3670 O   0  0  0  0  0  0  0  0  0  0  0  0
    3.4910   -0.4280   -0.6810 C   0  0  2  0  0  0  0  0  0  0  0  0
    4.1610    0.3280    0.4290 C   0  0  0  0  0  0  0  0  0  0  0  0
    3.4420    0.3140   -1.8540 O   0  0  0  0  0  0  0  0  0  0  0  0
    2.6630    1.4540   -1.7280 C   0  0  0  0  0  0  0  0  0  0  0  0
    1.4860    1.2400   -1.0050 O   0  0  0  0  0  0  0  0  0  0  0  0
   -1.1090    0.6720   -0.2050 C   0  0  0  0  0  0  0  0  0  0  0  0
  1  2  1  0
  2  3  2  0
  2  4  1  0
  4  5  2  0
  4 17  1  0
  5  6  1  0
  6  7  1  0
  7  8  1  0
  8  9  1  0
  8 17  2  0
  9 10  2  0
  9 16  1  0
 10 11  1  0
 10 12  1  0
 12 13  1  1
 12 14  1  0
 14 15  1  0
 15 16  1  0
M  END
