
     RDKit          3D

 25 27  0  0  0  0  0  0  0  0999 V2000
   -0.1440    2.0560   -2.1500 N   0  0  0  0  0  0  0  0  0  0  0  0
   -0.2920    1.0770   -1.0830 C   0  0  0  0  0  0  0  0  0  0  0  0
   -1.4580    0.6730   -0.6990 N   0  0  0  0  0  0  0  0  0  0  0  0
   -1.6160   -0.2080    0.2550 C   0  0  0  0  0  0  0  0  0  0  0  0
   -2.7520   -0.8220    0.8700 N   0  0  0  0  0  0  0  0  0  0  0  0
   -4.0620   -0.5140    0.4800 C   0  0  0  0  0  0  0  0  0  0  0  0
   -4.4170    0.4200   -0.4480 C   0  0  0  0  0  0  0  0  0  0  0  0
   -5.7220    0.6990   -0.8150 C   0  0  0  0  0  0  0  0  0  0  0  0
   -6.7450   -0.0010   -0.2170 C   0  0  0  0  0  0  0  0  0  0  0  0
   -8.4000    0.3690   -0.6990 Cl  0  0  0  0  0  0  0  0  0  0  0  0
   -6.4420   -0.9500    0.7230 C   0  0  0  0  0  0  0  0  0  0  0  0
   -5.1410   -1.2110    1.0720 C   0  0  0  0  0  0  0  0  0  0  0  0
    0.0720   -0.5460    0.7050 S   0  0  0  0  0  0  0  0  0  0  0  0
    0.8120    0.5750   -0.4830 C   0  0  0  0  0  0  0  0  0  0  0  0
    2.2120    0.8100   -0.6940 C   0  0  0  0  0  0  0  0  0  0  0  0
    2.5000    1.6340   -1.6250 O   0  0  0  0  0  0  0  0  0  0  0  0
    3.3010    0.2010    0.0460 C   0  0  0  0  0  0  0  0  0  0  0  0
    3.2060   -0.3340    1.3010 C   0  0  0  0  0  0  0  0  0  0  0  0
    4.3180   -0.9130    1.9220 C   0  0  0  0  0  0  0  0  0  0  0  0
    5.5360   -0.9610    1.2880 C   0  0  0  0  0  0  0  0  0  0  0  0
    5.6620   -0.4290    0.0230 C   0  0  0  0  0  0  0  0  0  0  0  0
    6.9150   -0.4730   -0.6370 N   0  0  0  0  0  0  0  0  0  0  0  0
    7.0720   -0.0050   -1.7750 O   0  0  0  0  0  0  0  0  0  0  0  0
    7.9860   -1.0440   -0.0110 O   0  0  0  0  0  0  0  0  0  0  0  0
    4.5520    0.1310   -0.5570 C   0  0  0  0  0  0  0  0  0  0  0  0
  1  2  1  0
  2  3  1  0
  2 14  2  0
  3  4  2  0
  4  5  1  0
  4 13  1  0
  5  6  1  0
  6  7  2  0
  6 12  1  0
  7  8  1  0
  8  9  2  0
  9 10  1  0
  9 11  1  0
 11 12  2  0
 13 14  1  0
 14 15  1  0
 15 16  2  0
 15 17  1  0
 17 18  2  0
 17 25  1  0
 18 19  1  0
 19 20  2  0
 20 21  1  0
 21 22  1  0
 21 25  2  0
 22 23  2  0
 22 24  1  0
M  CHG  2  22   1  24  -1
M  END
