
     RDKit          3D

 17 18  0  0  0  0  0  0  0  0999 V2000
   -0.7540   -1.3040    0.9330 O   0  0  0  0  0  0  0  0  0  0  0  0
   -1.8680   -0.5050    0.5810 C   0  0  2  0  0  0  0  0  0  0  0  0
   -2.9160   -1.4610    0.0820 C   0  0  0  0  0  0  0  0  0  0  0  0
   -4.2440   -0.8300   -0.1710 C   0  0  0  0  0  0  0  0  0  0  0  0
   -4.4300    0.3800    0.4360 O   0  0  0  0  0  0  0  0  0  0  0  0
   -3.7500    1.4330   -0.0770 C   0  0  0  0  0  0  0  0  0  0  0  0
   -2.7040    1.0880   -1.1010 C   0  0  0  0  0  0  0  0  0  0  0  0
   -1.4610    0.4900   -0.4730 C   0  0  2  0  0  0  0  0  0  0  0  0
   -0.7600   -0.2010   -1.4570 O   0  0  0  0  0  0  0  0  0  0  0  0
   -0.6400    1.5970    0.0760 C   0  0  0  0  0  0  0  0  0  0  0  0
    0.6480    1.1600    0.7200 C   0  0  0  0  0  0  0  0  0  0  0  0
    1.4700    0.4920   -0.1870 O   0  0  0  0  0  0  0  0  0  0  0  0
    2.6410    0.0990    0.4180 C   0  0  1  0  0  0  0  0  0  0  0  0
    2.8340   -1.3770    0.1900 C   0  0  0  0  0  0  0  0  0  0  0  0
    4.3270   -1.5400    0.4010 C   0  0  0  0  0  0  0  0  0  0  0  0
    4.8950   -0.3290   -0.2960 C   0  0  0  0  0  0  0  0  0  0  0  0
    3.7950    0.6930   -0.3840 C   0  0  0  0  0  0  0  0  0  0  0  0
  2  1  1  6
  2  3  1  0
  2  8  1  0
  3  4  1  0
  4  5  1  0
  5  6  1  0
  6  7  1  0
  7  8  1  0
  8  9  1  6
  8 10  1  0
 10 11  1  0
 11 12  1  0
 13 12  1  6
 13 14  1  0
 13 17  1  0
 14 15  1  0
 15 16  1  0
 16 17  1  0
M  END
