
     RDKit          3D

 17 18  0  0  0  0  0  0  0  0999 V2000
    6.1210    1.0810   -1.5920 C   0  0  0  0  0  0  0  0  0  0  0  0
    4.8590    0.2650   -1.4520 C   0  0  2  0  0  0  0  0  0  0  0  0
    3.8070    0.7510   -2.2560 O   0  0  0  0  0  0  0  0  0  0  0  0
    2.6420    0.6430   -1.5010 C   0  0  0  0  0  0  0  0  0  0  0  0
    2.9850    0.4750   -0.2360 C   0  0  0  0  0  0  0  0  0  0  0  0
    2.0770    0.3140    0.9250 C   0  0  2  0  0  0  0  0  0  0  0  0
    2.3260   -0.9040    1.5150 O   0  0  0  0  0  0  0  0  0  0  0  0
    0.6400    0.3770    0.4380 C   0  0  0  0  0  0  0  0  0  0  0  0
   -0.2820    0.2140    1.6170 C   0  0  0  0  0  0  0  0  0  0  0  0
   -1.5800    0.2690    1.2120 O   0  0  0  0  0  0  0  0  0  0  0  0
   -2.0210   -0.6900    0.3480 C   0  0  2  0  0  0  0  0  0  0  0  0
   -2.4710   -0.1750   -0.9760 C   0  0  0  0  0  0  0  0  0  0  0  0
   -3.9760   -0.1670   -1.0410 C   0  0  0  0  0  0  0  0  0  0  0  0
   -4.5180    0.3460    0.2820 C   0  0  0  0  0  0  0  0  0  0  0  0
   -4.3050   -0.7100    1.3610 C   0  0  0  0  0  0  0  0  0  0  0  0
   -3.1040   -1.5680    0.9500 C   0  0  0  0  0  0  0  0  0  0  0  0
    4.3680    0.4700   -0.1420 O   0  0  0  0  0  0  0  0  0  0  0  0
  2  1  1  1
  2  3  1  0
  2 17  1  0
  3  4  1  0
  4  5  2  0
  5  6  1  0
  5 17  1  0
  6  7  1  6
  6  8  1  0
  8  9  1  0
  9 10  1  0
 11 10  1  1
 11 12  1  0
 11 16  1  0
 12 13  1  0
 13 14  1  0
 14 15  1  0
 15 16  1  0
M  END
