
     RDKit          3D

 17 18  0  0  0  0  0  0  0  0999 V2000
   -2.0870    2.9770   -0.7220 C   0  0  0  0  0  0  0  0  0  0  0  0
   -1.6320    1.8220   -1.3800 O   0  0  0  0  0  0  0  0  0  0  0  0
   -0.6650    0.9720   -0.8680 C   0  0  0  0  0  0  0  0  0  0  0  0
    0.5830    1.3000   -0.6200 C   0  0  0  0  0  0  0  0  0  0  0  0
    1.5600    0.3720   -0.0810 C   0  0  0  0  0  0  0  0  0  0  0  0
    2.8010    0.8540    0.1290 C   0  0  0  0  0  0  0  0  0  0  0  0
    3.8870    0.0650    0.6580 C   0  0  0  0  0  0  0  0  0  0  0  0
    3.6970   -1.1280    0.9480 O   0  0  0  0  0  0  0  0  0  0  0  0
    5.1860    0.6530    0.8520 C   0  0  0  0  0  0  0  0  0  0  0  0
    5.4080    1.8470    0.5710 O   0  0  0  0  0  0  0  0  0  0  0  0
    1.2040   -1.0100    0.2140 C   0  0  0  0  0  0  0  0  0  0  0  0
   -0.2210   -1.3040   -0.0890 C   0  0  0  0  0  0  0  0  0  0  0  0
   -1.0570   -0.4050   -0.5770 C   0  0  0  0  0  0  0  0  0  0  0  0
   -2.4620   -0.8630   -0.8430 C   0  0  0  0  0  0  0  0  0  0  0  0
   -2.9160   -1.5340    0.4570 C   0  0  0  0  0  0  0  0  0  0  0  0
   -2.0450   -2.7430    0.7230 C   0  0  0  0  0  0  0  0  0  0  0  0
   -0.7530   -2.5810    0.1350 O   0  0  0  0  0  0  0  0  0  0  0  0
  1  2  1  0
  2  3  1  0
  3  4  2  0
  3 13  1  0
  4  5  1  0
  5  6  2  3
  5 11  1  0
  6  7  1  0
  7  8  2  0
  7  9  1  0
  9 10  2  0
 11 12  1  0
 12 13  2  0
 12 17  1  0
 13 14  1  0
 14 15  1  0
 15 16  1  0
 16 17  1  0
M  END
