
     RDKit          3D

 30 33  0  0  0  0  0  0  0  0999 V2000
    7.0870    1.0090    1.0020 C   0  0  0  0  0  0  0  0  0  0  0  0
    7.1490   -0.3070    0.4850 O   0  0  0  0  0  0  0  0  0  0  0  0
    5.9990   -0.9680    0.0330 C   0  0  0  0  0  0  0  0  0  0  0  0
    6.0290   -2.2350   -0.4680 C   0  0  0  0  0  0  0  0  0  0  0  0
    4.8460   -2.8040   -0.8890 C   0  0  0  0  0  0  0  0  0  0  0  0
    3.6420   -2.1360   -0.8180 C   0  0  0  0  0  0  0  0  0  0  0  0
    2.4460   -2.6990   -1.2380 O   0  0  0  0  0  0  0  0  0  0  0  0
    2.4930   -4.0260   -1.7610 C   0  0  0  0  0  0  0  0  0  0  0  0
    3.5870   -0.8400   -0.3080 C   0  0  0  0  0  0  0  0  0  0  0  0
    2.3790   -0.1210   -0.2140 N   0  0  0  0  0  0  0  0  0  0  0  0
    1.3030   -0.6150    0.5880 C   0  0  0  0  0  0  0  0  0  0  0  0
   -0.0600   -0.1500    0.2070 C   0  0  0  0  0  0  0  0  0  0  0  0
   -0.1840    1.1640   -0.3040 N   0  0  1  0  0  0  0  0  0  0  0  0
   -1.0500    1.9380    0.5720 C   0  0  0  0  0  0  0  0  0  0  0  0
   -2.4780    1.8510    0.1760 C   0  0  0  0  0  0  0  0  0  0  0  0
   -2.9870    2.7180   -0.7700 C   0  0  0  0  0  0  0  0  0  0  0  0
   -4.3090    2.6670   -1.1610 C   0  0  0  0  0  0  0  0  0  0  0  0
   -5.1880    1.7470   -0.6250 C   0  0  0  0  0  0  0  0  0  0  0  0
   -6.5220    1.7000   -1.0250 C   0  0  0  0  0  0  0  0  0  0  0  0
   -7.4050    0.7850   -0.4960 C   0  0  0  0  0  0  0  0  0  0  0  0
   -6.9130   -0.0870    0.4490 C   0  0  0  0  0  0  0  0  0  0  0  0
   -5.5880   -0.0460    0.8510 C   0  0  0  0  0  0  0  0  0  0  0  0
   -5.0900   -1.0000    1.8740 C   0  0  0  0  0  0  0  0  0  0  0  0
   -4.2990   -2.0540    1.2570 C   0  0  0  0  0  0  0  0  0  0  0  0
   -3.6570   -2.9200    0.7600 N   0  0  0  0  0  0  0  0  0  0  0  0
   -4.6980    0.8740    0.3200 C   0  0  0  0  0  0  0  0  0  0  0  0
   -3.3660    0.9360    0.7040 C   0  0  0  0  0  0  0  0  0  0  0  0
    1.0430    1.9190   -0.4190 C   0  0  0  0  0  0  0  0  0  0  0  0
    2.2110    1.1190   -0.9220 C   0  0  0  0  0  0  0  0  0  0  0  0
    4.8080   -0.2980    0.1080 C   0  0  0  0  0  0  0  0  0  0  0  0
  1  2  1  0
  2  3  1  0
  3  4  2  0
  3 30  1  0
  4  5  1  0
  5  6  2  0
  6  7  1  0
  6  9  1  0
  7  8  1  0
  9 10  1  0
  9 30  2  0
 10 11  1  0
 10 29  1  0
 11 12  1  0
 12 13  1  0
 13 14  1  1
 13 28  1  0
 14 15  1  0
 15 16  2  0
 15 27  1  0
 16 17  1  0
 17 18  2  0
 18 19  1  0
 18 26  1  0
 19 20  2  0
 20 21  1  0
 21 22  2  0
 22 23  1  0
 22 26  1  0
 23 24  1  0
 24 25  3  0
 26 27  2  0
 28 29  1  0
M  CHG  1  13   1
M  END
