
     RDKit          3D

 30 33  0  0  0  0  0  0  0  0999 V2000
    1.2570    4.5570   -0.6420 C   0  0  0  0  0  0  0  0  0  0  0  0
    1.9750    3.5340    0.1650 C   0  0  0  0  0  0  0  0  0  0  0  0
    1.9320    2.1850   -0.4330 C   0  0  0  0  0  0  0  0  0  0  0  0
    3.0890    1.6410   -0.9750 C   0  0  0  0  0  0  0  0  0  0  0  0
    3.0220    0.3960   -1.5130 C   0  0  0  0  0  0  0  0  0  0  0  0
    4.1240   -0.0320   -2.0010 O   0  0  0  0  0  0  0  0  0  0  0  0
    1.8850   -0.3570   -1.5480 N   0  0  0  0  0  0  0  0  0  0  0  0
    2.0000   -1.6610   -2.0840 C   0  0  0  0  0  0  0  0  0  0  0  0
    2.3060   -2.6780   -1.0110 C   0  0  0  0  0  0  0  0  0  0  0  0
    1.3130   -3.3830   -0.3700 C   0  0  0  0  0  0  0  0  0  0  0  0
    1.6590   -4.3090    0.6110 C   0  0  0  0  0  0  0  0  0  0  0  0
    2.9210   -4.5640    0.9800 N   0  0  0  0  0  0  0  0  0  0  0  0
    3.9030   -3.8890    0.3680 C   0  0  0  0  0  0  0  0  0  0  0  0
    3.6120   -2.9590   -0.6130 C   0  0  0  0  0  0  0  0  0  0  0  0
    0.7260    0.1550   -1.0170 C   0  0  0  0  0  0  0  0  0  0  0  0
   -0.4580   -0.6260   -1.1100 C   0  0  0  0  0  0  0  0  0  0  0  0
   -0.6490   -1.2880   -2.2360 O   0  0  0  0  0  0  0  0  0  0  0  0
   -1.4940   -0.8670   -0.2050 N   0  0  0  0  0  0  0  0  0  0  0  0
   -2.6430   -1.6460   -0.6150 C   0  0  0  0  0  0  0  0  0  0  0  0
   -3.8740   -1.2660    0.1790 C   0  0  0  0  0  0  0  0  0  0  0  0
   -3.6980   -1.5450    1.6560 C   0  0  0  0  0  0  0  0  0  0  0  0
   -2.2440   -1.6430    1.9760 C   0  0  0  0  0  0  0  0  0  0  0  0
   -1.4550   -0.5310    1.1870 C   0  0  1  0  0  0  0  0  0  0  0  0
   -0.0820   -0.5860    1.8130 C   0  0  0  0  0  0  0  0  0  0  0  0
    0.7800    1.4180   -0.4810 C   0  0  0  0  0  0  0  0  0  0  0  0
   -0.5030    2.0770   -0.1040 C   0  0  0  0  0  0  0  0  0  0  0  0
   -0.7600    2.8750    0.8910 C   0  0  0  0  0  0  0  0  0  0  0  0
   -2.2240    3.3110    0.8540 C   0  0  0  0  0  0  0  0  0  0  0  0
   -2.3520    3.4200   -0.6960 C   0  0  0  0  0  0  0  0  0  0  0  0
   -1.7330    2.0230   -0.9910 C   0  0  0  0  0  0  0  0  0  0  0  0
  1  2  1  0
  2  3  1  0
  3  4  2  0
  3 25  1  0
  4  5  1  0
  5  6  2  0
  5  7  1  0
  7  8  1  0
  7 15  1  0
  8  9  1  0
  9 10  2  0
  9 14  1  0
 10 11  1  0
 11 12  2  0
 12 13  1  0
 13 14  2  0
 15 16  1  0
 15 25  2  0
 16 17  2  0
 16 18  1  0
 18 19  1  0
 18 23  1  0
 19 20  1  0
 20 21  1  0
 21 22  1  0
 22 23  1  0
 23 24  1  1
 25 26  1  0
 26 27  2  0
 26 30  1  0
 27 28  1  0
 28 29  1  0
 29 30  1  0
M  CHG  1  12   1
M  END
