
     RDKit          3D

 30 33  0  0  0  0  0  0  0  0999 V2000
    2.0040   -2.5730   -0.0580 C   0  0  0  0  0  0  0  0  0  0  0  0
    1.0210   -1.4590   -0.2600 C   0  0  0  0  0  0  0  0  0  0  0  0
   -0.3000   -1.8150   -0.6070 C   0  0  0  0  0  0  0  0  0  0  0  0
   -1.3010   -0.8900   -0.7640 C   0  0  0  0  0  0  0  0  0  0  0  0
   -0.9940    0.4410   -0.5730 C   0  0  0  0  0  0  0  0  0  0  0  0
   -2.0180    1.4790   -0.7240 C   0  0  0  0  0  0  0  0  0  0  0  0
   -1.6780    2.6940   -0.5420 O   0  0  0  0  0  0  0  0  0  0  0  0
   -3.4130    1.2380   -1.0700 C   0  0  0  0  0  0  0  0  0  0  0  0
   -4.3750    1.2180    0.1160 C   0  0  1  0  0  0  0  0  0  0  0  0
   -5.7550    0.9770   -0.3690 C   0  0  0  0  0  0  0  0  0  0  0  0
   -6.3410    1.9430   -1.1920 C   0  0  0  0  0  0  0  0  0  0  0  0
   -7.5990    1.7370   -1.7250 C   0  0  0  0  0  0  0  0  0  0  0  0
   -8.3170    0.5870   -1.4700 C   0  0  0  0  0  0  0  0  0  0  0  0
   -7.7320   -0.3210   -0.6770 N   0  0  0  0  0  0  0  0  0  0  0  0
   -6.4940   -0.1490   -0.1350 C   0  0  0  0  0  0  0  0  0  0  0  0
   -5.9300   -1.1290    0.7780 C   0  0  0  0  0  0  0  0  0  0  0  0
   -4.7690   -0.9080    1.3450 C   0  0  0  0  0  0  0  0  0  0  0  0
   -4.0060    0.2670    1.1230 N   0  0  0  0  0  0  0  0  0  0  0  0
   -2.8150    0.5130    1.9820 C   0  0  0  0  0  0  0  0  0  0  0  0
    0.2930    0.7830   -0.2380 C   0  0  0  0  0  0  0  0  0  0  0  0
    1.3200   -0.1550   -0.0760 C   0  0  0  0  0  0  0  0  0  0  0  0
    2.6260    0.3620    0.2180 C   0  0  0  0  0  0  0  0  0  0  0  0
    2.7550    1.4510    0.8910 O   0  0  0  0  0  0  0  0  0  0  0  0
    3.8370   -0.2200   -0.1740 N   0  0  0  0  0  0  0  0  0  0  0  0
    5.1310    0.3650    0.1750 C   0  0  2  0  0  0  0  0  0  0  0  0
    5.9020    0.7050   -1.0580 C   0  0  0  0  0  0  0  0  0  0  0  0
    6.9440   -0.3410   -1.4000 C   0  0  0  0  0  0  0  0  0  0  0  0
    7.9070   -0.6100   -0.2840 C   0  0  0  0  0  0  0  0  0  0  0  0
    7.3650   -0.0540    1.0390 C   0  0  0  0  0  0  0  0  0  0  0  0
    5.9110   -0.5440    1.0930 C   0  0  0  0  0  0  0  0  0  0  0  0
  1  2  1  0
  2  3  2  0
  2 21  1  0
  3  4  1  0
  4  5  2  0
  5  6  1  0
  5 20  1  0
  6  7  2  0
  6  8  1  0
  9  8  1  6
  9 10  1  0
  9 18  1  0
 10 11  2  0
 10 15  1  0
 11 12  1  0
 12 13  2  0
 13 14  1  0
 14 15  2  0
 15 16  1  0
 16 17  2  0
 17 18  1  0
 18 19  1  0
 20 21  2  0
 21 22  1  0
 22 23  2  0
 22 24  1  0
 25 24  1  6
 25 26  1  0
 25 30  1  0
 26 27  1  0
 27 28  1  0
 28 29  1  0
 29 30  1  0
M  CHG  1  14   1
M  END
