
     RDKit          3D

 30 33  0  0  0  0  0  0  0  0999 V2000
   -2.9290   -4.1150   -3.0270 C   0  0  0  0  0  0  0  0  0  0  0  0
   -2.6050   -2.7600   -2.6490 N   0  0  0  0  0  0  0  0  0  0  0  0
   -1.3810   -2.5260   -1.9490 C   0  0  0  0  0  0  0  0  0  0  0  0
   -0.3160   -3.3060   -1.8940 C   0  0  0  0  0  0  0  0  0  0  0  0
    0.7260   -2.6780   -1.0570 C   0  0  0  0  0  0  0  0  0  0  0  0
    1.8640   -3.1460   -0.7960 O   0  0  0  0  0  0  0  0  0  0  0  0
    0.1900   -1.4080   -0.5900 C   0  0  0  0  0  0  0  0  0  0  0  0
    0.6820   -0.4730    0.1900 C   0  0  0  0  0  0  0  0  0  0  0  0
    1.9870   -0.5750    0.7810 C   0  0  0  0  0  0  0  0  0  0  0  0
    2.3230   -1.6810    1.5170 C   0  0  0  0  0  0  0  0  0  0  0  0
    3.5870   -1.7930    2.0590 C   0  0  0  0  0  0  0  0  0  0  0  0
    4.5460   -0.8260    1.8920 C   0  0  0  0  0  0  0  0  0  0  0  0
    5.9140   -0.9800    2.4960 C   0  0  0  0  0  0  0  0  0  0  0  0
    4.2110    0.3020    1.1450 C   0  0  0  0  0  0  0  0  0  0  0  0
    2.9550    0.4050    0.6110 C   0  0  0  0  0  0  0  0  0  0  0  0
    2.6210    1.5850   -0.1710 C   0  0  0  0  0  0  0  0  0  0  0  0
    3.5360    2.5210   -0.3440 C   0  0  0  0  0  0  0  0  0  0  0  0
    4.8990    2.4640    0.2030 C   0  0  2  0  0  0  0  0  0  0  0  0
    5.9540    2.5430   -0.8870 C   0  0  0  0  0  0  0  0  0  0  0  0
    5.1470    1.2990    0.9540 O   0  0  0  0  0  0  0  0  0  0  0  0
   -1.1370   -1.3570   -1.1770 N   0  0  0  0  0  0  0  0  0  0  0  0
   -2.0430   -0.2730   -0.9870 C   0  0  0  0  0  0  0  0  0  0  0  0
   -2.0820    0.8310   -1.8210 C   0  0  0  0  0  0  0  0  0  0  0  0
   -2.9700    1.8680   -1.6220 C   0  0  0  0  0  0  0  0  0  0  0  0
   -3.8590    1.8280   -0.5660 C   0  0  0  0  0  0  0  0  0  0  0  0
   -3.8410    0.7370    0.2810 C   0  0  0  0  0  0  0  0  0  0  0  0
   -4.7560    0.6120    1.4260 C   0  0  0  0  0  0  0  0  0  0  0  0
   -5.7230    1.6660    1.5420 N   0  0  0  0  0  0  0  0  0  0  0  0
   -5.2820    2.8020    2.3020 C   0  0  0  0  0  0  0  0  0  0  0  0
   -2.9470   -0.2690    0.0510 C   0  0  0  0  0  0  0  0  0  0  0  0
  1  2  1  0
  2  3  1  0
  3  4  2  0
  3 21  1  0
  4  5  1  0
  5  6  2  0
  5  7  1  0
  7  8  2  3
  7 21  1  0
  8  9  1  0
  9 10  2  0
  9 15  1  0
 10 11  1  0
 11 12  2  0
 12 13  1  0
 12 14  1  0
 14 15  2  0
 14 20  1  0
 15 16  1  0
 16 17  2  0
 17 18  1  0
 18 19  1  6
 18 20  1  0
 21 22  1  0
 22 23  2  0
 22 30  1  0
 23 24  1  0
 24 25  2  0
 25 26  1  0
 26 27  1  0
 26 30  2  0
 27 28  1  0
 28 29  1  0
M  CHG  1  28   1
M  END
