
     RDKit          3D

 31 35  0  0  0  0  0  0  0  0999 V2000
   -5.4860   -4.2380   -1.8410 C   0  0  0  0  0  0  0  0  0  0  0  0
   -5.0280   -4.2230   -0.4150 C   0  0  0  0  0  0  0  0  0  0  0  0
   -4.6590   -2.9080    0.0570 N   0  0  0  0  0  0  0  0  0  0  0  0
   -5.4020   -1.9840    0.6380 N   0  0  0  0  0  0  0  0  0  0  0  0
   -4.6280   -0.8930    0.9130 C   0  0  0  0  0  0  0  0  0  0  0  0
   -3.3490   -1.1450    0.4860 C   0  0  0  0  0  0  0  0  0  0  0  0
   -2.1870   -0.3830    0.5250 C   0  0  0  0  0  0  0  0  0  0  0  0
   -2.1900    0.9180    1.0790 N   0  0  0  0  0  0  0  0  0  0  0  0
   -2.4580    2.1320    0.3760 C   0  0  1  0  0  0  0  0  0  0  0  0
   -3.8510    2.1570   -0.2380 C   0  0  0  0  0  0  0  0  0  0  0  0
   -3.9570    3.4180   -1.0770 C   0  0  0  0  0  0  0  0  0  0  0  0
   -3.2710    4.4850   -0.5490 O   0  0  0  0  0  0  0  0  0  0  0  0
   -3.2390    4.4480    0.8450 C   0  0  0  0  0  0  0  0  0  0  0  0
   -2.3380    3.3150    1.2740 C   0  0  0  0  0  0  0  0  0  0  0  0
   -1.0370   -0.9340    0.0050 C   0  0  0  0  0  0  0  0  0  0  0  0
    0.2380   -0.2300    0.0030 C   0  0  0  0  0  0  0  0  0  0  0  0
    1.4210   -0.6420   -0.4770 N   0  0  0  0  0  0  0  0  0  0  0  0
    2.3580    0.3200   -0.2800 C   0  0  0  0  0  0  0  0  0  0  0  0
    3.7980    0.2970   -0.6490 C   0  0  0  0  0  0  0  0  0  0  0  0
    4.5930   -0.2630    0.4610 C   0  0  0  0  0  0  0  0  0  0  0  0
    4.0210   -0.6310    1.5100 O   0  0  0  0  0  0  0  0  0  0  0  0
    5.9920   -0.3770    0.3230 N   0  0  0  0  0  0  0  0  0  0  0  0
    6.8810   -0.9070    1.3330 C   0  0  0  0  0  0  0  0  0  0  0  0
    8.2890   -0.6690    0.8130 C   0  0  0  0  0  0  0  0  0  0  0  0
    8.0730    0.4600   -0.1650 C   0  0  0  0  0  0  0  0  0  0  0  0
    6.7660    0.0120   -0.8350 C   0  0  0  0  0  0  0  0  0  0  0  0
    1.6780    1.3230    0.3390 N   0  0  0  0  0  0  0  0  0  0  0  0
    0.4370    0.9680    0.4890 O   0  0  0  0  0  0  0  0  0  0  0  0
   -1.1070   -2.2250   -0.5310 C   0  0  0  0  0  0  0  0  0  0  0  0
   -2.2530   -2.9250   -0.5480 N   0  0  0  0  0  0  0  0  0  0  0  0
   -3.3940   -2.4190   -0.0480 C   0  0  0  0  0  0  0  0  0  0  0  0
  1  2  1  0
  2  3  1  0
  3  4  1  0
  3 31  1  0
  4  5  2  0
  5  6  1  0
  6  7  2  0
  6 31  1  0
  7  8  1  0
  7 15  1  0
  9  8  1  1
  9 10  1  0
  9 14  1  0
 10 11  1  0
 11 12  1  0
 12 13  1  0
 13 14  1  0
 15 16  1  0
 15 29  2  0
 16 17  2  0
 16 28  1  0
 17 18  1  0
 18 19  1  0
 18 27  2  0
 19 20  1  0
 20 21  2  0
 20 22  1  0
 22 23  1  0
 22 26  1  0
 23 24  1  0
 24 25  1  0
 25 26  1  0
 27 28  1  0
 29 30  1  0
 30 31  2  0
M  END
