
     RDKit          3D

 30 33  0  0  0  0  0  0  0  0999 V2000
   -6.7290    2.8860   -0.3640 C   0  0  0  0  0  0  0  0  0  0  0  0
   -6.9590    1.7500    0.2090 C   0  0  0  0  0  0  0  0  0  0  0  0
   -6.1000    0.6330    0.3330 C   0  0  0  0  0  0  0  0  0  0  0  0
   -6.6100   -0.4900    0.8940 C   0  0  0  0  0  0  0  0  0  0  0  0
   -5.7620   -1.6760    1.0280 N   0  0  0  0  0  0  0  0  0  0  0  0
   -5.4070   -2.0990   -0.3160 C   0  0  0  0  0  0  0  0  0  0  0  0
   -4.1640   -1.5730   -0.9240 C   0  0  0  0  0  0  0  0  0  0  0  0
   -3.8670   -0.1760   -0.5890 C   0  0  0  0  0  0  0  0  0  0  0  0
   -2.5240    0.1260   -0.8620 C   0  0  0  0  0  0  0  0  0  0  0  0
   -2.0630    1.3740   -0.5410 C   0  0  0  0  0  0  0  0  0  0  0  0
   -0.6540    1.7390   -0.8100 C   0  0  0  0  0  0  0  0  0  0  0  0
    0.0940    1.5760    0.4120 N   0  0  0  0  0  0  0  0  0  0  0  0
    1.4600    1.9280    0.1920 C   0  0  0  0  0  0  0  0  0  0  0  0
    2.1470    0.8130   -0.5580 C   0  0  0  0  0  0  0  0  0  0  0  0
    2.0040   -0.3910    0.2190 N   0  0  0  0  0  0  0  0  0  0  0  0
    3.1460   -1.1340    0.5690 C   0  0  0  0  0  0  0  0  0  0  0  0
    3.0060   -2.1800    1.2450 O   0  0  0  0  0  0  0  0  0  0  0  0
    4.5260   -0.7430    0.1760 C   0  0  0  0  0  0  0  0  0  0  0  0
    5.4800   -1.6670    0.6620 O   0  0  0  0  0  0  0  0  0  0  0  0
    6.8170   -1.4910    0.4100 C   0  0  0  0  0  0  0  0  0  0  0  0
    7.2440   -0.4090   -0.3210 C   0  0  0  0  0  0  0  0  0  0  0  0
    8.5750   -0.1930   -0.5970 C   0  0  0  0  0  0  0  0  0  0  0  0
    9.5070   -1.0850   -0.1290 C   0  0  0  0  0  0  0  0  0  0  0  0
    9.1170   -2.2010    0.6190 C   0  0  0  0  0  0  0  0  0  0  0  0
    7.7510   -2.3820    0.8770 C   0  0  0  0  0  0  0  0  0  0  0  0
    0.6880   -0.8060    0.6200 C   0  0  0  0  0  0  0  0  0  0  0  0
   -0.1450    0.3650    1.1080 C   0  0  0  0  0  0  0  0  0  0  0  0
   -2.8810    2.3130    0.0340 C   0  0  0  0  0  0  0  0  0  0  0  0
   -4.1980    2.0280    0.3050 C   0  0  0  0  0  0  0  0  0  0  0  0
   -4.6870    0.7720   -0.0160 C   0  0  0  0  0  0  0  0  0  0  0  0
  1  2  2  0
  2  3  1  0
  3  4  2  0
  3 30  1  0
  4  5  1  0
  5  6  1  0
  6  7  1  0
  7  8  1  0
  8  9  2  0
  8 30  1  0
  9 10  1  0
 10 11  1  0
 10 28  2  0
 11 12  1  0
 12 13  1  0
 12 27  1  0
 13 14  1  0
 14 15  1  0
 15 16  1  0
 15 26  1  0
 16 17  2  0
 16 18  1  0
 18 19  1  0
 19 20  1  0
 20 21  2  0
 20 25  1  0
 21 22  1  0
 22 23  2  0
 23 24  1  0
 24 25  2  0
 26 27  1  0
 28 29  1  0
 29 30  2  0
M  CHG  1   5   1
M  END
