
     RDKit          3D

 30 33  0  0  0  0  0  0  0  0999 V2000
   -5.1160   -0.8980   -2.8750 C   0  0  0  0  0  0  0  0  0  0  0  0
   -4.9270   -0.5090   -1.4520 C   0  0  0  0  0  0  0  0  0  0  0  0
   -5.9300   -0.5450   -0.5390 C   0  0  0  0  0  0  0  0  0  0  0  0
   -5.7780   -0.1900    0.7850 C   0  0  0  0  0  0  0  0  0  0  0  0
   -4.5090    0.2310    1.1970 C   0  0  0  0  0  0  0  0  0  0  0  0
   -3.4750    0.2800    0.3060 C   0  0  0  0  0  0  0  0  0  0  0  0
   -3.6700   -0.0890   -1.0280 C   0  0  0  0  0  0  0  0  0  0  0  0
   -2.2630    0.7530    0.9460 N   0  0  0  0  0  0  0  0  0  0  0  0
   -0.9630    0.5690    0.3870 C   0  0  0  0  0  0  0  0  0  0  0  0
   -0.8660   -0.2400   -0.5670 O   0  0  0  0  0  0  0  0  0  0  0  0
    0.2100    1.2700    0.8730 C   0  0  0  0  0  0  0  0  0  0  0  0
    0.2420    2.2260    1.8360 N   0  0  0  0  0  0  0  0  0  0  0  0
    1.4720    2.6460    2.0700 N   0  0  0  0  0  0  0  0  0  0  0  0
    2.2680    1.9740    1.2650 C   0  0  0  0  0  0  0  0  0  0  0  0
    1.5040    1.0910    0.4900 C   0  0  0  0  0  0  0  0  0  0  0  0
    2.0580    0.1830   -0.5120 C   0  0  0  0  0  0  0  0  0  0  0  0
    1.4200   -0.6130   -1.2110 O   0  0  0  0  0  0  0  0  0  0  0  0
    3.4510    0.1690   -0.7480 O   0  0  0  0  0  0  0  0  0  0  0  0
    4.0270   -0.6950   -1.7080 C   0  0  0  0  0  0  0  0  0  0  0  0
    5.4910   -0.4510   -1.6960 C   0  0  0  0  0  0  0  0  0  0  0  0
    6.0630    0.4740   -0.8560 C   0  0  0  0  0  0  0  0  0  0  0  0
    7.4120    0.7380   -0.8050 C   0  0  0  0  0  0  0  0  0  0  0  0
    8.2570    0.0410   -1.6410 C   0  0  0  0  0  0  0  0  0  0  0  0
   10.1250    0.3710   -1.6060 Br  0  0  0  0  0  0  0  0  0  0  0  0
    7.7160   -0.9000   -2.5020 C   0  0  0  0  0  0  0  0  0  0  0  0
    6.3600   -1.1400   -2.5270 C   0  0  0  0  0  0  0  0  0  0  0  0
   -2.6880    1.3400    2.1920 C   0  0  0  0  0  0  0  0  0  0  0  0
   -4.0010    0.6680    2.4970 C   0  0  2  0  0  0  0  0  0  0  0  0
   -3.7450   -0.6000    3.3110 C   0  0  0  0  0  0  0  0  0  0  0  0
   -5.2460   -1.5580    3.5280 S   0  0  0  0  0  0  0  0  0  0  0  0
  1  2  1  0
  2  3  2  0
  2  7  1  0
  3  4  1  0
  4  5  2  0
  5  6  1  0
  5 28  1  0
  6  7  2  0
  6  8  1  0
  8  9  1  0
  8 27  1  0
  9 10  2  0
  9 11  1  0
 11 12  1  0
 11 15  2  0
 12 13  1  0
 13 14  2  0
 14 15  1  0
 15 16  1  0
 16 17  2  0
 16 18  1  0
 18 19  1  0
 19 20  1  0
 20 21  2  0
 20 26  1  0
 21 22  1  0
 22 23  2  0
 23 24  1  0
 23 25  1  0
 25 26  2  0
 27 28  1  0
 28 29  1  1
 29 30  1  0
M  END
