
     RDKit          3D

 21 23  0  0  0  0  0  0  0  0999 V2000
   -4.8450    2.1760   -1.2730 N   0  0  0  0  0  0  0  0  0  0  0  0
   -4.1060    1.2030   -0.5230 C   0  0  0  0  0  0  0  0  0  0  0  0
   -4.7340    0.3130    0.3100 C   0  0  0  0  0  0  0  0  0  0  0  0
   -4.0500   -0.6440    1.0540 C   0  0  0  0  0  0  0  0  0  0  0  0
   -2.6670   -0.6910    0.9380 C   0  0  0  0  0  0  0  0  0  0  0  0
   -2.0370    0.2060    0.0990 C   0  0  0  0  0  0  0  0  0  0  0  0
   -0.6630    0.1660   -0.0200 O   0  0  0  0  0  0  0  0  0  0  0  0
    0.0070    1.0600   -0.8610 C   0  0  0  0  0  0  0  0  0  0  0  0
    1.4650    0.8680   -0.8590 C   0  0  0  0  0  0  0  0  0  0  0  0
    2.1720    1.6160   -1.5800 O   0  0  0  0  0  0  0  0  0  0  0  0
    2.0580   -0.1330   -0.0680 N   0  0  0  0  0  0  0  0  0  0  0  0
    3.4910   -0.2800   -0.1030 C   0  0  0  0  0  0  0  0  0  0  0  0
    4.1950   -0.1370    1.0030 C   0  0  0  0  0  0  0  0  0  0  0  0
    5.6650   -0.2840    0.9820 C   0  0  0  0  0  0  0  0  0  0  0  0
    6.2240   -0.5770   -0.2590 O   0  0  0  0  0  0  0  0  0  0  0  0
    5.4820   -0.7210   -1.3890 C   0  0  0  0  0  0  0  0  0  0  0  0
    4.1670   -0.5860   -1.3550 C   0  0  0  0  0  0  0  0  0  0  0  0
   -2.7260    1.1490   -0.6310 C   0  0  0  0  0  0  0  0  0  0  0  0
   -2.2750   -1.7230    1.7780 O   0  0  0  0  0  0  0  0  0  0  0  0
   -3.4010   -2.5740    2.0400 C   0  0  0  0  0  0  0  0  0  0  0  0
   -4.4600   -1.6260    1.9400 O   0  0  0  0  0  0  0  0  0  0  0  0
  1  2  1  0
  2  3  2  0
  2 18  1  0
  3  4  1  0
  4  5  2  0
  4 21  1  0
  5  6  1  0
  5 19  1  0
  6  7  1  0
  6 18  2  0
  7  8  1  0
  8  9  1  0
  9 10  2  0
  9 11  1  0
 11 12  1  0
 12 13  2  0
 12 17  1  0
 13 14  1  0
 14 15  1  0
 15 16  1  0
 16 17  2  0
 19 20  1  0
 20 21  1  0
M  END
