
     RDKit          3D

 21 23  0  0  0  0  0  0  0  0999 V2000
   -6.3500    0.8640   -1.0930 N   0  0  0  0  0  0  0  0  0  0  0  0
   -4.9920    0.6870   -1.4440 C   0  0  0  0  0  0  0  0  0  0  0  0
   -4.7000    0.5640   -2.6590 O   0  0  0  0  0  0  0  0  0  0  0  0
   -3.9310    0.6440   -0.4430 C   0  0  1  0  0  0  0  0  0  0  0  0
   -4.2150   -0.4370    0.5950 C   0  0  0  0  0  0  0  0  0  0  0  0
   -3.1200   -0.5610    1.4690 O   0  0  0  0  0  0  0  0  0  0  0  0
   -1.8050   -0.3170    1.0750 C   0  0  0  0  0  0  0  0  0  0  0  0
   -0.7240   -0.5770    1.9120 C   0  0  0  0  0  0  0  0  0  0  0  0
    0.5870   -0.3310    1.5120 C   0  0  0  0  0  0  0  0  0  0  0  0
    0.8100    0.1840    0.2570 C   0  0  0  0  0  0  0  0  0  0  0  0
   -0.2500    0.4410   -0.5660 C   0  0  0  0  0  0  0  0  0  0  0  0
   -1.5740    0.1980   -0.1780 C   0  0  0  0  0  0  0  0  0  0  0  0
   -2.6490    0.4590   -1.0160 O   0  0  0  0  0  0  0  0  0  0  0  0
    2.2200    0.3290    0.1290 N   0  0  2  0  0  0  0  0  0  0  0  0
    2.5260    1.5720   -0.3640 O   0  0  0  0  0  0  0  0  0  0  0  0
    2.7910   -0.6650   -0.7320 C   0  0  0  0  0  0  0  0  0  0  0  0
    4.1980   -1.0210   -0.4050 C   0  0  0  0  0  0  0  0  0  0  0  0
    5.2140    0.0700   -0.5030 C   0  0  0  0  0  0  0  0  0  0  0  0
    4.9360    1.1000    0.3660 O   0  0  0  0  0  0  0  0  0  0  0  0
    2.7380    0.2250    1.3400 O   0  0  0  0  0  0  0  0  0  0  0  0
    1.9030   -0.5030    2.1680 C   0  0  0  0  0  0  0  0  0  0  0  0
  1  2  1  0
  2  3  2  0
  4  2  1  6
  4  5  1  0
  4 13  1  0
  5  6  1  0
  6  7  1  0
  7  8  2  0
  7 12  1  0
  8  9  1  0
  9 10  2  0
  9 21  1  0
 10 11  1  0
 10 14  1  0
 11 12  2  0
 12 13  1  0
 14 15  1  6
 14 16  1  0
 14 20  1  0
 16 17  1  0
 17 18  1  0
 18 19  1  0
 20 21  1  0
M  CHG  2  14   1  15  -1
M  END
