
     RDKit          3D

 22 24  0  0  0  0  0  0  0  0999 V2000
   -4.3820    1.7400    0.6370 C   0  0  0  0  0  0  0  0  0  0  0  0
   -4.5260    1.4530   -0.6980 O   0  0  0  0  0  0  0  0  0  0  0  0
   -4.1040    0.2390   -1.1420 C   0  0  0  0  0  0  0  0  0  0  0  0
   -2.7200   -0.0690   -0.7490 C   0  0  0  0  0  0  0  0  0  0  0  0
   -1.6920    0.8270   -0.9990 C   0  0  0  0  0  0  0  0  0  0  0  0
   -1.8980    2.0560   -1.5650 O   0  0  0  0  0  0  0  0  0  0  0  0
   -0.3980    0.4620   -0.6590 C   0  0  0  0  0  0  0  0  0  0  0  0
    0.7820    1.0990   -0.7530 O   0  0  0  0  0  0  0  0  0  0  0  0
    1.7280    0.2740   -0.2790 C   0  0  0  0  0  0  0  0  0  0  0  0
    3.1950    0.5730   -0.2200 C   0  0  1  0  0  0  0  0  0  0  0  0
    3.6020    0.8620   -1.5770 O   0  0  0  0  0  0  0  0  0  0  0  0
    3.3210    1.9400    0.5160 C   0  0  0  0  0  0  0  0  0  0  0  0
    4.6160    2.5220    0.4180 N   0  0  0  0  0  0  0  0  0  0  0  0
    5.5850    1.6070    0.1060 O   0  0  0  0  0  0  0  0  0  0  0  0
    1.1370   -0.8850    0.1250 C   0  0  0  0  0  0  0  0  0  0  0  0
   -0.2020   -0.7570   -0.1090 C   0  0  0  0  0  0  0  0  0  0  0  0
   -1.1670   -1.6260    0.1400 N   0  0  0  0  0  0  0  0  0  0  0  0
   -2.4360   -1.3020   -0.1740 C   0  0  0  0  0  0  0  0  0  0  0  0
   -3.3510   -2.1270    0.0690 O   0  0  0  0  0  0  0  0  0  0  0  0
   -0.8420   -2.8480    0.7980 C   0  0  0  0  0  0  0  0  0  0  0  0
    0.6130   -3.2620    0.6380 C   0  0  0  0  0  0  0  0  0  0  0  0
    1.6030   -2.1590    0.7350 C   0  0  0  0  0  0  0  0  0  0  0  0
  1  2  1  0
  2  3  1  0
  3  4  1  0
  4  5  2  0
  4 18  1  0
  5  6  1  0
  5  7  1  0
  7  8  1  0
  7 16  2  0
  8  9  1  0
  9 10  1  0
  9 15  2  0
 10 11  1  6
 10 12  1  0
 12 13  1  0
 13 14  1  0
 15 16  1  0
 15 22  1  0
 16 17  1  0
 17 18  1  0
 17 20  1  0
 18 19  2  0
 20 21  1  0
 21 22  1  0
M  CHG  2  13   1  14  -1
M  END
