
     RDKit          3D

 21 23  0  0  0  0  0  0  0  0999 V2000
    3.5250    0.2650    1.7690 N   0  0  0  0  0  0  0  0  0  0  0  0
    2.7960    0.1290    0.5580 C   0  0  0  0  0  0  0  0  0  0  0  0
    1.3960    0.1380    0.5600 C   0  0  0  0  0  0  0  0  0  0  0  0
    0.6420    0.0110   -0.5770 C   0  0  0  0  0  0  0  0  0  0  0  0
   -0.8210    0.0200   -0.5640 C   0  0  0  0  0  0  0  0  0  0  0  0
   -1.5140    0.5260   -1.6540 C   0  0  0  0  0  0  0  0  0  0  0  0
   -2.8990    0.5540   -1.6830 C   0  0  0  0  0  0  0  0  0  0  0  0
   -3.6190    0.0720   -0.6130 C   0  0  0  0  0  0  0  0  0  0  0  0
   -2.9420   -0.4410    0.4950 C   0  0  0  0  0  0  0  0  0  0  0  0
   -1.5760   -0.4500    0.4820 C   0  0  0  0  0  0  0  0  0  0  0  0
   -3.7200   -0.9110    1.5420 O   0  0  0  0  0  0  0  0  0  0  0  0
   -5.1050   -0.8720    1.4880 C   0  0  0  0  0  0  0  0  0  0  0  0
   -5.8200   -1.6450    2.2020 O   0  0  0  0  0  0  0  0  0  0  0  0
   -5.7510    0.0960    0.5750 C   0  0  0  0  0  0  0  0  0  0  0  0
   -5.0080    0.0980   -0.6360 O   0  0  0  0  0  0  0  0  0  0  0  0
    1.2760   -0.1320   -1.7810 C   0  0  0  0  0  0  0  0  0  0  0  0
    2.6540   -0.1450   -1.8200 C   0  0  0  0  0  0  0  0  0  0  0  0
    3.4140   -0.0160   -0.6660 C   0  0  0  0  0  0  0  0  0  0  0  0
    4.7660   -0.0400   -0.8010 O   0  0  0  0  0  0  0  0  0  0  0  0
    5.7220    0.0630    0.1460 N   0  0  0  0  0  0  0  0  0  0  0  0
    6.9650   -0.1440   -0.3530 O   0  0  0  0  0  0  0  0  0  0  0  0
  1  2  1  0
  2  3  2  0
  2 18  1  0
  3  4  1  0
  4  5  1  0
  4 16  2  0
  5  6  2  0
  5 10  1  0
  6  7  1  0
  7  8  2  0
  8  9  1  0
  8 15  1  0
  9 10  2  0
  9 11  1  0
 11 12  1  0
 12 13  2  0
 12 14  1  0
 14 15  1  0
 16 17  1  0
 17 18  2  0
 18 19  1  0
 19 20  1  0
 20 21  1  0
M  CHG  2  20   1  21  -1
M  END
