
     RDKit          3D

 42 46  0  0  0  0  0  0  0  0999 V2000
   -4.8200    0.5410    4.2770 C   0  0  0  0  0  0  0  0  0  0  0  0
   -3.7850    0.2060    3.1900 C   0  0  0  0  0  0  0  0  0  0  0  0
   -4.0280   -1.1340    2.8010 N   0  0  0  0  0  0  0  0  0  0  0  0
   -3.2060   -1.6640    1.7440 C   0  0  2  0  0  0  0  0  0  0  0  0
   -1.7500   -1.6760    2.0530 C   0  0  0  0  0  0  0  0  0  0  0  0
   -0.9560   -1.8990    0.7780 C   0  0  2  0  0  0  0  0  0  0  0  0
    0.3860   -1.9550    1.1380 O   0  0  0  0  0  0  0  0  0  0  0  0
   -1.1460   -0.6010   -0.0250 C   0  0  1  0  0  0  0  0  0  0  0  0
   -0.6560    0.4170    0.8790 C   0  0  0  0  0  0  0  0  0  0  0  0
   -0.2280    1.2580    1.6270 N   0  0  0  0  0  0  0  0  0  0  0  0
   -0.4130   -0.6550   -1.3090 C   0  0  1  0  0  0  0  0  0  0  0  0
   -0.5660    0.5250   -2.1780 C   0  0  0  0  0  0  0  0  0  0  0  0
   -1.0880    0.4120   -3.4760 C   0  0  0  0  0  0  0  0  0  0  0  0
   -1.2460    1.4680   -4.3350 C   0  0  0  0  0  0  0  0  0  0  0  0
   -0.8860    2.7240   -3.9450 C   0  0  0  0  0  0  0  0  0  0  0  0
   -1.0820    3.8310   -4.9160 C   0  0  0  0  0  0  0  0  0  0  0  0
   -0.3600    4.9420   -4.5380 O   0  0  0  0  0  0  0  0  0  0  0  0
   -0.3700    2.8860   -2.6840 C   0  0  0  0  0  0  0  0  0  0  0  0
   -0.2110    1.7990   -1.8070 C   0  0  0  0  0  0  0  0  0  0  0  0
    0.9250   -1.2620   -1.3070 C   0  0  0  0  0  0  0  0  0  0  0  0
    1.0930   -2.6220   -1.4390 C   0  0  0  0  0  0  0  0  0  0  0  0
    2.3650   -3.1550   -1.4470 C   0  0  0  0  0  0  0  0  0  0  0  0
    3.4710   -2.3490   -1.3240 C   0  0  0  0  0  0  0  0  0  0  0  0
    3.3420   -0.9520   -1.1870 C   0  0  0  0  0  0  0  0  0  0  0  0
    4.4890   -0.2450   -1.0760 O   0  0  0  0  0  0  0  0  0  0  0  0
    4.8430    1.0610   -0.9100 C   0  0  0  0  0  0  0  0  0  0  0  0
    4.3630    1.5970    0.4180 C   0  0  0  0  0  0  0  0  0  0  0  0
    4.8510    0.9450    1.5180 O   0  0  0  0  0  0  0  0  0  0  0  0
    6.1430    0.8960    1.9630 C   0  0  0  0  0  0  0  0  0  0  0  0
    7.2260    1.5260    1.4200 C   0  0  0  0  0  0  0  0  0  0  0  0
    8.4810    1.3740    1.9860 C   0  0  0  0  0  0  0  0  0  0  0  0
    8.6950    0.6060    3.0880 C   0  0  0  0  0  0  0  0  0  0  0  0
    7.6150   -0.0330    3.6470 C   0  0  0  0  0  0  0  0  0  0  0  0
    6.3830    0.1060    3.1040 C   0  0  0  0  0  0  0  0  0  0  0  0
    2.0420   -0.4640   -1.1860 C   0  0  0  0  0  0  0  0  0  0  0  0
   -2.6020   -0.3430   -0.3380 C   0  0  2  0  0  0  0  0  0  0  0  0
   -2.9340    0.9920   -0.1050 O   0  0  0  0  0  0  0  0  0  0  0  0
   -3.5900   -1.2110    0.3730 C   0  0  1  0  0  0  0  0  0  0  0  0
   -3.8690   -2.4030   -0.5400 C   0  0  0  0  0  0  0  0  0  0  0  0
   -5.2870   -2.3450   -0.9900 C   0  0  0  0  0  0  0  0  0  0  0  0
   -5.7690   -0.9730   -0.6700 C   0  0  0  0  0  0  0  0  0  0  0  0
   -4.8940   -0.4500    0.4410 C   0  0  0  0  0  0  0  0  0  0  0  0
  1  2  1  0
  2  3  1  0
  4  3  1  1
  4  5  1  0
  4 38  1  0
  5  6  1  0
  6  7  1  1
  6  8  1  0
  8  9  1  1
  8 11  1  0
  8 36  1  0
  9 10  3  0
 11 12  1  1
 11 20  1  0
 12 13  2  0
 12 19  1  0
 13 14  1  0
 14 15  2  0
 15 16  1  0
 15 18  1  0
 16 17  1  0
 18 19  2  0
 20 21  2  0
 20 35  1  0
 21 22  1  0
 22 23  2  0
 23 24  1  0
 24 25  1  0
 24 35  2  0
 25 26  1  0
 26 27  1  0
 27 28  1  0
 28 29  1  0
 29 30  2  0
 29 34  1  0
 30 31  1  0
 31 32  2  0
 32 33  1  0
 33 34  2  0
 36 37  1  1
 36 38  1  0
 38 39  1  6
 38 42  1  0
 39 40  1  0
 40 41  1  0
 41 42  1  0
M  END
