
     RDKit          3D

 42 46  0  0  0  0  0  0  0  0999 V2000
    6.0380   -1.4880    2.8160 C   0  0  0  0  0  0  0  0  0  0  0  0
    6.3600   -1.2670    1.3950 N   0  0  0  0  0  0  0  0  0  0  0  0
    6.1050   -2.2820    0.4560 C   0  0  0  0  0  0  0  0  0  0  0  0
    5.1370   -2.2740   -0.4170 C   0  0  0  0  0  0  0  0  0  0  0  0
    4.0740   -1.2830   -0.6920 C   0  0  2  0  0  0  0  0  0  0  0  0
    4.2260   -0.9080   -2.1530 C   0  0  0  0  0  0  0  0  0  0  0  0
    4.0840   -0.0910    0.1440 C   0  0  0  0  0  0  0  0  0  0  0  0
    2.9120    0.8810   -0.1870 C   0  0  1  0  0  0  0  0  0  0  0  0
    3.1620    2.0110    0.8370 C   0  0  0  0  0  0  0  0  0  0  0  0
    3.0680    1.4050   -1.4370 O   0  0  0  0  0  0  0  0  0  0  0  0
    1.6390    0.2310    0.1450 C   0  0  1  0  0  0  0  0  0  0  0  0
    1.7530   -0.2680    1.4790 O   0  0  0  0  0  0  0  0  0  0  0  0
    0.3960    1.1330    0.1310 C   0  0  0  0  0  0  0  0  0  0  0  0
    0.4680    2.3150   -0.3240 C   0  0  0  0  0  0  0  0  0  0  0  0
   -0.4800    3.3990   -0.4610 C   0  0  0  0  0  0  0  0  0  0  0  0
   -0.8190    4.0180   -1.6280 C   0  0  0  0  0  0  0  0  0  0  0  0
   -1.6740    5.1130   -1.6220 C   0  0  0  0  0  0  0  0  0  0  0  0
   -2.1990    5.6000   -0.4410 C   0  0  0  0  0  0  0  0  0  0  0  0
   -1.8620    4.9810    0.7410 C   0  0  0  0  0  0  0  0  0  0  0  0
   -1.0140    3.8950    0.7350 C   0  0  0  0  0  0  0  0  0  0  0  0
   -0.7780    0.3870    0.5000 C   0  0  0  0  0  0  0  0  0  0  0  0
   -0.4640   -0.7860    1.0950 O   0  0  0  0  0  0  0  0  0  0  0  0
   -2.1520    0.5330    0.4100 N   0  0  0  0  0  0  0  0  0  0  0  0
   -2.8340    1.3740   -0.5340 C   0  0  0  0  0  0  0  0  0  0  0  0
   -4.2200    0.8950   -0.9360 C   0  0  0  0  0  0  0  0  0  0  0  0
   -4.4330   -0.5610   -0.6980 C   0  0  2  0  0  0  0  0  0  0  0  0
   -5.7360   -1.0470   -1.1930 C   0  0  0  0  0  0  0  0  0  0  0  0
   -5.9030   -1.9370   -2.1590 C   0  0  0  0  0  0  0  0  0  0  0  0
   -7.3410   -2.1960   -2.4020 C   0  0  0  0  0  0  0  0  0  0  0  0
   -7.9630   -1.2920   -1.4000 C   0  0  0  0  0  0  0  0  0  0  0  0
   -7.0350   -0.6430   -0.7180 C   0  0  0  0  0  0  0  0  0  0  0  0
   -7.2510    0.2890    0.3030 O   0  0  0  0  0  0  0  0  0  0  0  0
   -4.2120   -0.8240    0.7270 C   0  0  0  0  0  0  0  0  0  0  0  0
   -5.0190   -1.5620    1.5360 C   0  0  0  0  0  0  0  0  0  0  0  0
   -4.6300   -1.7470    2.8590 C   0  0  0  0  0  0  0  0  0  0  0  0
   -3.4660   -1.2130    3.3700 C   0  0  0  0  0  0  0  0  0  0  0  0
   -2.6400   -0.4590    2.5470 C   0  0  0  0  0  0  0  0  0  0  0  0
   -3.0390   -0.2840    1.2410 C   0  0  0  0  0  0  0  0  0  0  0  0
    5.2310   -3.5180   -1.1930 C   0  0  0  0  0  0  0  0  0  0  0  0
    4.3780   -3.9930   -2.0010 O   0  0  0  0  0  0  0  0  0  0  0  0
    6.5120   -4.1660   -0.8860 C   0  0  0  0  0  0  0  0  0  0  0  0
    6.9440   -3.5040    0.3790 C   0  0  0  0  0  0  0  0  0  0  0  0
  1  2  1  0
  2  3  1  0
  3  4  2  0
  3 42  1  0
  4  5  1  0
  4 39  1  0
  5  6  1  6
  5  7  1  0
  7  8  1  0
  8  9  1  1
  8 10  1  0
  8 11  1  0
 11 12  1  1
 11 13  1  0
 13 14  2  3
 13 21  1  0
 14 15  1  0
 15 16  2  0
 15 20  1  0
 16 17  1  0
 17 18  2  0
 18 19  1  0
 19 20  2  0
 21 22  2  0
 21 23  1  0
 23 24  1  0
 23 38  1  0
 24 25  1  0
 25 26  1  0
 26 27  1  1
 26 33  1  0
 27 28  2  0
 27 31  1  0
 28 29  1  0
 29 30  1  0
 30 31  2  0
 31 32  1  0
 33 34  2  0
 33 38  1  0
 34 35  1  0
 35 36  2  0
 36 37  1  0
 37 38  2  0
 39 40  2  0
 39 41  1  0
 41 42  1  0
M  END
