
     RDKit          3D

 42 46  0  0  0  0  0  0  0  0999 V2000
    7.9530    1.4870   -0.4000 C   0  0  0  0  0  0  0  0  0  0  0  0
    6.6260    0.8410   -0.2140 C   0  0  0  0  0  0  0  0  0  0  0  0
    5.5240    1.4010   -0.8440 C   0  0  0  0  0  0  0  0  0  0  0  0
    4.2790    0.8500   -0.7120 C   0  0  0  0  0  0  0  0  0  0  0  0
    3.1450    1.3430   -1.3030 O   0  0  0  0  0  0  0  0  0  0  0  0
    3.0260    2.4390   -2.1390 C   0  0  1  0  0  0  0  0  0  0  0  0
    2.7260    2.0170   -3.5700 C   0  0  0  0  0  0  0  0  0  0  0  0
    2.0890    3.5360   -1.7020 C   0  0  0  0  0  0  0  0  0  0  0  0
    0.8490    3.4190   -1.5590 O   0  0  0  0  0  0  0  0  0  0  0  0
   -0.2310    2.9880   -1.0990 C   0  0  0  0  0  0  0  0  0  0  0  0
   -0.5320    1.4870   -1.2270 C   0  0  0  0  0  0  0  0  0  0  0  0
    0.2490    0.7320   -1.7180 O   0  0  0  0  0  0  0  0  0  0  0  0
   -1.7610    1.1040   -0.7300 N   0  0  0  0  0  0  0  0  0  0  0  0
   -2.5130   -0.0560   -0.5740 C   0  0  0  0  0  0  0  0  0  0  0  0
   -2.2560   -1.2850   -0.8800 C   0  0  0  0  0  0  0  0  0  0  0  0
   -1.0320   -1.8010   -1.5260 C   0  0  0  0  0  0  0  0  0  0  0  0
   -1.0730   -3.1440   -1.5390 C   0  0  0  0  0  0  0  0  0  0  0  0
   -2.2850   -3.5790   -0.9250 C   0  0  0  0  0  0  0  0  0  0  0  0
   -2.9920   -2.5120   -0.5330 C   0  0  0  0  0  0  0  0  0  0  0  0
   -4.3000   -2.6620    0.0870 C   0  0  2  0  0  0  0  0  0  0  0  0
   -4.3300   -4.0860    0.7460 C   0  0  0  0  0  0  0  0  0  0  0  0
   -5.3090   -2.7370   -0.9060 O   0  0  0  0  0  0  0  0  0  0  0  0
   -3.9190    0.2550   -0.0920 C   0  0  0  0  0  0  0  0  0  0  0  0
   -5.0010    0.1600   -0.9200 C   0  0  0  0  0  0  0  0  0  0  0  0
   -6.2650    0.5180   -0.4920 C   0  0  0  0  0  0  0  0  0  0  0  0
   -7.4410    0.4180   -1.3870 C   0  0  0  0  0  0  0  0  0  0  0  0
   -6.4510    0.9810    0.7880 C   0  0  0  0  0  0  0  0  0  0  0  0
   -7.8130    1.3830    1.2810 C   0  0  0  0  0  0  0  0  0  0  0  0
   -5.3750    1.0850    1.6410 C   0  0  0  0  0  0  0  0  0  0  0  0
   -5.6030    1.5550    2.9250 C   0  0  0  0  0  0  0  0  0  0  0  0
   -4.5370    1.6490    3.7420 N   0  0  0  0  0  0  0  0  0  0  0  0
   -3.3090    1.3010    3.3260 C   0  0  0  0  0  0  0  0  0  0  0  0
   -3.0520    0.8250    2.0380 C   0  0  0  0  0  0  0  0  0  0  0  0
   -4.1160    0.7210    1.1960 C   0  0  0  0  0  0  0  0  0  0  0  0
    4.1540   -0.2970    0.0800 C   0  0  0  0  0  0  0  0  0  0  0  0
    5.2680   -0.8520    0.7070 C   0  0  0  0  0  0  0  0  0  0  0  0
    6.5160   -0.2890    0.5680 C   0  0  0  0  0  0  0  0  0  0  0  0
    7.5180   -1.0770    1.3370 C   0  0  2  0  0  0  0  0  0  0  0  0
    8.6940   -1.2680    0.6160 O   0  0  0  0  0  0  0  0  0  0  0  0
    6.8530   -2.4190    1.5600 C   0  0  0  0  0  0  0  0  0  0  0  0
    5.4000   -2.0670    1.5870 C   0  0  1  0  0  0  0  0  0  0  0  0
    4.8900   -1.8060    2.9710 C   0  0  0  0  0  0  0  0  0  0  0  0
  1  2  1  0
  2  3  2  0
  2 37  1  0
  3  4  1  0
  4  5  1  0
  4 35  2  0
  5  6  1  0
  6  7  1  6
  6  8  1  0
  8  9  1  0
  9 10  1  0
 10 11  1  0
 11 12  2  0
 11 13  1  0
 13 14  1  0
 14 15  2  3
 14 23  1  0
 15 16  1  0
 15 19  1  0
 16 17  2  0
 17 18  1  0
 18 19  2  0
 19 20  1  0
 20 21  1  6
 20 22  1  0
 23 24  2  0
 23 34  1  0
 24 25  1  0
 25 26  1  0
 25 27  2  0
 27 28  1  0
 27 29  1  0
 29 30  2  0
 29 34  1  0
 30 31  1  0
 31 32  2  0
 32 33  1  0
 33 34  2  0
 35 36  1  0
 36 37  2  0
 36 41  1  0
 37 38  1  0
 38 39  1  6
 38 40  1  0
 40 41  1  0
 41 42  1  1
M  END
