
     RDKit          3D

 42 47  0  0  0  0  0  0  0  0999 V2000
   -7.4750   -0.6160    1.0640 C   0  0  0  0  0  0  0  0  0  0  0  0
   -6.3560   -0.2860    0.2130 N   0  0  0  0  0  0  0  0  0  0  0  0
   -5.3310    0.4820    0.6020 C   0  0  0  0  0  0  0  0  0  0  0  0
   -5.1380    1.1230    1.9120 C   0  0  0  0  0  0  0  0  0  0  0  0
   -5.1360    2.4940    2.0640 C   0  0  0  0  0  0  0  0  0  0  0  0
   -4.9510    3.0940    3.2920 C   0  0  0  0  0  0  0  0  0  0  0  0
   -4.7600    2.3270    4.4320 C   0  0  0  0  0  0  0  0  0  0  0  0
   -4.7600    0.9450    4.2970 C   0  0  0  0  0  0  0  0  0  0  0  0
   -4.9480    0.3710    3.0440 C   0  0  0  0  0  0  0  0  0  0  0  0
   -4.4690    0.5720   -0.4680 C   0  0  0  0  0  0  0  0  0  0  0  0
   -3.2080    1.2980   -0.5060 C   0  0  0  0  0  0  0  0  0  0  0  0
   -1.9740    0.7490   -0.7880 C   0  0  0  0  0  0  0  0  0  0  0  0
   -1.0440    1.7220   -0.7250 N   0  0  0  0  0  0  0  0  0  0  0  0
    0.3460    1.4660   -0.9770 C   0  0  0  0  0  0  0  0  0  0  0  0
    1.0580    1.0800    0.3020 C   0  0  0  0  0  0  0  0  0  0  0  0
    2.5080    0.8080   -0.0000 C   0  0  0  0  0  0  0  0  0  0  0  0
    2.8880    0.9640   -1.1670 O   0  0  0  0  0  0  0  0  0  0  0  0
    3.4070    0.3900    0.9990 N   0  0  0  0  0  0  0  0  0  0  0  0
    4.7710    0.1040    0.8510 C   0  0  0  0  0  0  0  0  0  0  0  0
    5.5120    0.2800   -0.2820 C   0  0  0  0  0  0  0  0  0  0  0  0
    6.8740   -0.0420   -0.3600 C   0  0  0  0  0  0  0  0  0  0  0  0
    7.5200   -0.5610    0.7350 C   0  0  0  0  0  0  0  0  0  0  0  0
    8.9360   -0.9140    0.6960 C   0  0  0  0  0  0  0  0  0  0  0  0
    9.5100   -1.3670   -0.4760 C   0  0  0  0  0  0  0  0  0  0  0  0
   10.8580   -1.7000   -0.4990 C   0  0  0  0  0  0  0  0  0  0  0  0
   11.6130   -1.5820    0.6320 C   0  0  0  0  0  0  0  0  0  0  0  0
   11.0520   -1.1290    1.8190 C   0  0  0  0  0  0  0  0  0  0  0  0
    9.7150   -0.8010    1.8270 C   0  0  0  0  0  0  0  0  0  0  0  0
    6.7860   -0.7470    1.8920 C   0  0  0  0  0  0  0  0  0  0  0  0
    5.4500   -0.4230    1.9460 C   0  0  0  0  0  0  0  0  0  0  0  0
   -1.6680    2.8460   -0.4140 N   0  0  0  0  0  0  0  0  0  0  0  0
   -2.9740    2.5970   -0.2810 N   0  0  0  0  0  0  0  0  0  0  0  0
   -4.9820   -0.1630   -1.5430 C   0  0  0  0  0  0  0  0  0  0  0  0
   -4.5390   -0.4040   -2.8080 C   0  0  0  0  0  0  0  0  0  0  0  0
   -5.3170   -1.2100   -3.6560 C   0  0  0  0  0  0  0  0  0  0  0  0
   -4.8120   -1.4550   -5.0150 C   0  0  0  0  0  0  0  0  0  0  0  0
   -3.7060   -0.9410   -5.3860 O   0  0  0  0  0  0  0  0  0  0  0  0
   -5.4610   -2.2180   -5.9390 O   0  0  0  0  0  0  0  0  0  0  0  0
   -6.5020   -1.7460   -3.2210 C   0  0  0  0  0  0  0  0  0  0  0  0
   -7.2930   -2.5380   -4.0150 O   0  0  0  0  0  0  0  0  0  0  0  0
   -6.9210   -1.4710   -1.9080 C   0  0  0  0  0  0  0  0  0  0  0  0
   -6.1760   -0.6900   -1.0720 C   0  0  0  0  0  0  0  0  0  0  0  0
  1  2  1  0
  2  3  1  0
  2 42  1  0
  3  4  1  0
  3 10  2  0
  4  5  2  0
  4  9  1  0
  5  6  1  0
  6  7  2  0
  7  8  1  0
  8  9  2  0
 10 11  1  0
 10 33  1  0
 11 12  2  0
 11 32  1  0
 12 13  1  0
 13 14  1  0
 13 31  1  0
 14 15  1  0
 15 16  1  0
 16 17  2  0
 16 18  1  0
 18 19  1  0
 19 20  2  0
 19 30  1  0
 20 21  1  0
 21 22  2  0
 22 23  1  0
 22 29  1  0
 23 24  2  0
 23 28  1  0
 24 25  1  0
 25 26  2  0
 26 27  1  0
 27 28  2  0
 29 30  2  0
 31 32  2  0
 33 34  2  0
 33 42  1  0
 34 35  1  0
 35 36  1  0
 35 39  2  0
 36 37  2  0
 36 38  1  0
 39 40  1  0
 39 41  1  0
 41 42  2  0
M  END
