
     RDKit          3D

 18 18  0  0  0  0  0  0  0  0999 V2000
   -5.1940    1.1760   -0.4580 C   0  0  0  0  0  0  0  0  0  0  0  0
   -4.9560   -0.3020   -0.6140 C   0  0  0  0  0  0  0  0  0  0  0  0
   -3.6570   -0.7240    0.0350 C   0  0  0  0  0  0  0  0  0  0  0  0
   -2.4640    0.0040   -0.5890 C   0  0  0  0  0  0  0  0  0  0  0  0
   -1.3360   -0.4560    0.0770 O   0  0  0  0  0  0  0  0  0  0  0  0
   -0.2980    0.1360   -0.4210 O   0  0  0  0  0  0  0  0  0  0  0  0
    0.8010   -0.6560   -0.4590 N   0  0  0  0  0  0  0  0  0  0  0  0
    1.7770    0.1120   -1.0490 O   0  0  0  0  0  0  0  0  0  0  0  0
    2.6790   -0.5790   -1.6580 O   0  0  0  0  0  0  0  0  0  0  0  0
    3.9950   -0.2100   -1.2840 C   0  0  0  0  0  0  0  0  0  0  0  0
    4.0000    0.1060    0.1700 C   0  0  0  0  0  0  0  0  0  0  0  0
    5.2080    0.6990    0.5680 O   0  0  0  0  0  0  0  0  0  0  0  0
    5.0630    1.8400    1.2930 O   0  0  0  0  0  0  0  0  0  0  0  0
    5.3420    2.9290    0.5580 N   0  0  0  0  0  0  0  0  0  0  0  0
    2.8000   -0.1570    1.2900 P   0  0  0  0  0  0  0  0  0  0  0  0
    1.1510   -0.9280    0.9250 C   0  0  1  0  0  0  0  0  0  0  0  0
    0.1070   -0.5010    1.8340 N   0  0  0  0  0  0  0  0  0  0  0  0
    1.3880   -2.3610    1.0250 N   0  0  0  0  0  0  0  0  0  0  0  0
  1  2  1  0
  2  3  1  0
  3  4  1  0
  4  5  1  0
  5  6  1  0
  6  7  1  0
  7  8  1  0
  7 16  1  0
  8  9  1  0
  9 10  1  0
 10 11  1  0
 11 12  1  0
 11 15  2  0
 12 13  1  0
 13 14  1  0
 15 16  1  0
 16 17  1  1
 16 18  1  0
M  END
