
     RDKit          3D

 17 17  0  0  0  0  0  0  0  0999 V2000
    5.1200   -0.4960   -0.4360 C   0  0  0  0  0  0  0  0  0  0  0  0
    4.1190   -1.3670   -0.8730 O   0  0  0  0  0  0  0  0  0  0  0  0
    3.2420   -0.7040   -1.6080 O   0  0  0  0  0  0  0  0  0  0  0  0
    2.0530   -1.2580   -1.4950 O   0  0  0  0  0  0  0  0  0  0  0  0
    1.1400   -0.2660   -1.4010 O   0  0  0  0  0  0  0  0  0  0  0  0
    0.8950    0.3980   -0.2180 C   0  0  0  0  0  0  0  0  0  0  0  0
    2.0050    1.1390    0.3350 N   0  0  0  0  0  0  0  0  0  0  0  0
   -0.2270    0.4050    0.4130 C   0  0  0  0  0  0  0  0  0  0  0  0
   -0.2750    1.3940    1.9970 P   0  0  0  0  0  0  0  0  0  0  0  0
   -1.4270   -0.2890   -0.0160 C   0  0  0  0  0  0  0  0  0  0  0  0
   -2.4790   -0.1860    0.7280 N   0  0  0  0  0  0  0  0  0  0  0  0
   -3.7490   -0.7580    0.5280 C   0  0  1  0  0  0  0  0  0  0  0  0
   -4.7780    0.2830    0.5360 N   0  0  0  0  0  0  0  0  0  0  0  0
   -3.8040   -1.5560   -0.6990 C   0  0  0  0  0  0  0  0  0  0  0  0
   -4.8890   -2.1480   -1.0310 O   0  0  0  0  0  0  0  0  0  0  0  0
   -2.7020   -1.6790   -1.5010 O   0  0  0  0  0  0  0  0  0  0  0  0
   -1.5120   -1.0640   -1.1910 N   0  0  0  0  0  0  0  0  0  0  0  0
  1  2  1  0
  2  3  1  0
  3  4  1  0
  4  5  1  0
  5  6  1  0
  6  7  1  0
  6  8  2  3
  8  9  1  0
  8 10  1  0
 10 11  2  0
 10 17  1  0
 11 12  1  0
 12 13  1  6
 12 14  1  0
 14 15  2  0
 14 16  1  0
 16 17  1  0
M  END
