
     RDKit          3D

 17 17  0  0  0  0  0  0  0  0999 V2000
    5.7450    0.2600   -0.5180 C   0  0  0  0  0  0  0  0  0  0  0  0
    4.4080   -0.2420   -0.6120 N   0  0  0  0  0  0  0  0  0  0  0  0
    3.4180    0.8220   -0.4100 C   0  0  0  0  0  0  0  0  0  0  0  0
    2.1460    0.3020   -0.5060 O   0  0  0  0  0  0  0  0  0  0  0  0
    1.9330   -0.6360    0.3980 O   0  0  0  0  0  0  0  0  0  0  0  0
    0.9670   -1.4810    0.0280 O   0  0  0  0  0  0  0  0  0  0  0  0
   -0.3270   -1.0360    0.0540 C   0  0  0  0  0  0  0  0  0  0  0  0
   -0.7000    0.0720    0.7070 C   0  0  0  0  0  0  0  0  0  0  0  0
    0.3070    0.7940    1.3870 O   0  0  0  0  0  0  0  0  0  0  0  0
   -1.9510    0.5450    0.7620 O   0  0  0  0  0  0  0  0  0  0  0  0
   -3.1680    0.1490    0.2430 C   0  0  1  0  0  0  0  0  0  0  0  0
   -4.1070   -0.0380    1.3670 N   0  0  0  0  0  0  0  0  0  0  0  0
   -3.7130    1.2450   -0.5980 N   0  0  0  0  0  0  0  0  0  0  0  0
   -3.1920   -1.0830   -0.5690 C   0  0  0  0  0  0  0  0  0  0  0  0
   -4.4670   -1.5700   -1.1480 C   0  0  0  0  0  0  0  0  0  0  0  0
   -5.5080   -0.9240   -0.9370 O   0  0  0  0  0  0  0  0  0  0  0  0
   -1.7440   -1.8450   -0.7700 P   0  0  0  0  0  0  0  0  0  0  0  0
  1  2  1  0
  2  3  1  0
  3  4  1  0
  4  5  1  0
  5  6  1  0
  6  7  1  0
  7  8  2  0
  7 17  1  0
  8  9  1  0
  8 10  1  0
 10 11  1  0
 11 12  1  1
 11 13  1  0
 11 14  1  0
 14 15  1  0
 14 17  2  0
 15 16  2  0
M  END
