
     RDKit          3D

 18 18  0  0  0  0  0  0  0  0999 V2000
    5.2640   -0.8140   -0.8290 C   0  0  0  0  0  0  0  0  0  0  0  0
    3.9510   -0.7140   -0.6690 C   0  0  0  0  0  0  0  0  0  0  0  0
    3.1990    0.5420   -0.8980 C   0  0  0  0  0  0  0  0  0  0  0  0
    2.5380    0.9360    0.3170 N   0  0  0  0  0  0  0  0  0  0  0  0
    3.2890    1.1800    1.4040 O   0  0  0  0  0  0  0  0  0  0  0  0
    1.1850    1.0620    0.3770 N   0  0  0  0  0  0  0  0  0  0  0  0
    0.3400    0.1140    0.5610 C   0  0  0  0  0  0  0  0  0  0  0  0
    0.8610   -1.1940    0.7170 N   0  0  0  0  0  0  0  0  0  0  0  0
   -1.0830    0.3110    0.6150 N   0  0  0  0  0  0  0  0  0  0  0  0
   -1.9080   -0.5640    0.2040 O   0  0  0  0  0  0  0  0  0  0  0  0
   -3.1880   -0.5790    0.1670 N   0  0  0  0  0  0  0  0  0  0  0  0
   -3.8570   -1.7040   -0.3510 O   0  0  0  0  0  0  0  0  0  0  0  0
   -4.6170   -1.5600   -1.5340 C   0  0  0  0  0  0  0  0  0  0  0  0
   -3.9740    0.3690    0.5710 O   0  0  0  0  0  0  0  0  0  0  0  0
   -3.1900    1.6970    1.1830 P   0  0  0  0  0  0  0  0  0  0  0  0
   -3.8800    2.9290    2.1920 O   0  0  0  0  0  0  0  0  0  0  0  0
   -1.4650    1.5130    1.1420 C   0  0  0  0  0  0  0  0  0  0  0  0
   -0.6540    2.3810    1.5490 O   0  0  0  0  0  0  0  0  0  0  0  0
  1  2  2  0
  2  3  1  0
  3  4  1  0
  4  5  1  0
  4  6  1  0
  6  7  2  3
  7  8  1  0
  7  9  1  0
  9 10  1  0
  9 17  1  0
 10 11  1  0
 11 12  1  0
 11 14  1  0
 12 13  1  0
 14 15  1  0
 15 16  1  0
 15 17  1  0
 17 18  2  0
M  END
