
     RDKit          3D

 18 18  0  0  0  0  0  0  0  0999 V2000
   -2.2260    2.5390    0.3250 C   0  0  0  0  0  0  0  0  0  0  0  0
   -2.6890    1.3650   -0.3420 N   0  0  0  0  0  0  0  0  0  0  0  0
   -1.9510    0.1690   -0.0660 C   0  0  1  0  0  0  0  0  0  0  0  0
   -0.4880    0.2510   -0.5240 C   0  0  0  0  0  0  0  0  0  0  0  0
    0.1240   -1.0680   -0.1650 C   0  0  0  0  0  0  0  0  0  0  0  0
    1.8810   -1.2630   -0.6070 P   0  0  0  0  0  0  0  0  0  0  0  0
    2.5420   -2.7670    0.1310 N   0  0  0  0  0  0  0  0  0  0  0  0
    2.9000   -2.7760    1.2810 O   0  0  0  0  0  0  0  0  0  0  0  0
    2.9010    0.0940   -0.1960 O   0  0  0  0  0  0  0  0  0  0  0  0
    4.2480   -0.1650   -0.0900 N   0  0  0  0  0  0  0  0  0  0  0  0
    5.1890    0.6400   -0.3660 C   0  0  0  0  0  0  0  0  0  0  0  0
    4.9550    1.9290   -0.8250 O   0  0  0  0  0  0  0  0  0  0  0  0
    6.5170    0.2330   -0.2070 O   0  0  0  0  0  0  0  0  0  0  0  0
   -1.9460   -0.0300    1.2990 O   0  0  0  0  0  0  0  0  0  0  0  0
   -2.3680   -1.2180    1.5690 O   0  0  0  0  0  0  0  0  0  0  0  0
   -2.9400   -1.7740    0.4490 C   0  0  0  0  0  0  0  0  0  0  0  0
   -2.5930   -0.9670   -0.6810 N   0  0  0  0  0  0  0  0  0  0  0  0
   -3.7190   -0.5800   -1.3000 O   0  0  0  0  0  0  0  0  0  0  0  0
  1  2  1  0
  2  3  1  0
  3  4  1  6
  3 14  1  0
  3 17  1  0
  4  5  1  0
  5  6  1  0
  6  7  1  0
  6  9  1  0
  7  8  2  0
  9 10  1  0
 10 11  2  3
 11 12  1  0
 11 13  1  0
 14 15  1  0
 15 16  1  0
 16 17  1  0
 17 18  1  0
M  END
