
     RDKit          3D

 18 18  0  0  0  0  0  0  0  0999 V2000
    5.5910   -1.3600   -0.9390 C   0  0  0  0  0  0  0  0  0  0  0  0
    5.1080   -0.1570   -0.6740 C   0  0  0  0  0  0  0  0  0  0  0  0
    5.7890    0.7600    0.2730 C   0  0  0  0  0  0  0  0  0  0  0  0
    3.9420    0.2960   -1.2730 O   0  0  0  0  0  0  0  0  0  0  0  0
    2.7680   -0.0760   -0.6490 O   0  0  0  0  0  0  0  0  0  0  0  0
    1.6050    0.6350   -0.7960 C   0  0  0  0  0  0  0  0  0  0  0  0
    1.5390    1.6500   -1.4970 O   0  0  0  0  0  0  0  0  0  0  0  0
    0.1080    0.0540    0.0760 P   0  0  0  0  0  0  0  0  0  0  0  0
   -0.4930   -1.0950    1.0770 O   0  0  0  0  0  0  0  0  0  0  0  0
   -1.7500   -0.7660    1.0500 N   0  0  0  0  0  0  0  0  0  0  0  0
   -2.8900   -1.3660    1.7220 C   0  0  0  0  0  0  0  0  0  0  0  0
   -1.5800    0.2720    0.2140 C   0  0  0  0  0  0  0  0  0  0  0  0
   -2.3300    1.1740   -0.3500 N   0  0  0  0  0  0  0  0  0  0  0  0
   -3.7080    1.2100   -0.1270 N   0  0  0  0  0  0  0  0  0  0  0  0
   -4.2090    2.2880    0.5120 O   0  0  0  0  0  0  0  0  0  0  0  0
   -4.5750    0.2070   -0.5250 N   0  0  0  0  0  0  0  0  0  0  0  0
   -5.7010    0.1600    0.1840 O   0  0  0  0  0  0  0  0  0  0  0  0
   -4.8000    0.2660   -1.8380 O   0  0  0  0  0  0  0  0  0  0  0  0
  1  2  2  0
  2  3  1  0
  2  4  1  0
  4  5  1  0
  5  6  1  0
  6  7  2  0
  6  8  1  0
  8  9  1  0
  8 12  1  0
  9 10  1  0
 10 11  1  0
 10 12  1  0
 12 13  2  3
 13 14  1  0
 14 15  1  0
 14 16  1  0
 16 17  1  0
 16 18  1  0
M  END
