
     RDKit          3D

  9  9  0  0  0  0  0  0  0  0999 V2000
   -2.4330    0.1290   -0.4400 N   0  0  0  0  0  0  0  0  0  0  0  0
   -0.9680    0.0020    0.5030 P   0  0  2  0  0  0  0  0  0  0  0  0
   -1.2990   -0.1240    1.9890 O   0  0  0  0  0  0  0  0  0  0  0  0
    0.0800    1.4050    0.2650 C   0  0  0  0  0  0  0  0  0  0  0  0
    1.3050    1.2440   -0.1580 C   0  0  0  0  0  0  0  0  0  0  0  0
    1.9410    0.0180   -0.4690 N   0  0  0  0  0  0  0  0  0  0  0  0
    1.2980   -1.2350   -0.3540 C   0  0  0  0  0  0  0  0  0  0  0  0
    1.9570   -2.3030   -0.6600 O   0  0  0  0  0  0  0  0  0  0  0  0
   -0.0340   -1.4020    0.0780 N   0  0  0  0  0  0  0  0  0  0  0  0
  2  1  1  6
  2  3  2  0
  2  4  1  0
  2  9  1  0
  4  5  2  0
  5  6  1  0
  6  7  1  0
  7  8  2  0
  7  9  1  0
M  END
