
     RDKit          3D

 21 21  0  0  0  0  0  0  0  0999 V2000
    5.9410    0.1860   -1.4450 O   0  0  0  0  0  0  0  0  0  0  0  0
    5.5940   -0.8350   -0.7780 C   0  0  0  0  0  0  0  0  0  0  0  0
    6.4340   -1.9610   -0.7180 O   0  0  0  0  0  0  0  0  0  0  0  0
    4.3830   -0.8320   -0.1120 O   0  0  0  0  0  0  0  0  0  0  0  0
    3.4840    0.2710   -0.1300 C   0  0  1  0  0  0  0  0  0  0  0  0
    2.2450   -0.1080   -0.6180 O   0  0  0  0  0  0  0  0  0  0  0  0
    1.3060   -0.3260    0.4090 C   0  0  1  0  0  0  0  0  0  0  0  0
    0.9480    0.8770    0.9930 O   0  0  0  0  0  0  0  0  0  0  0  0
    0.2370   -0.9570   -0.2090 O   0  0  0  0  0  0  0  0  0  0  0  0
   -0.2970   -0.1350   -1.2030 C   0  0  0  0  0  0  0  0  0  0  0  0
   -0.7730    1.0110   -0.6060 O   0  0  0  0  0  0  0  0  0  0  0  0
   -1.7680    0.7530    0.2870 C   0  0  0  0  0  0  0  0  0  0  0  0
   -2.9810    0.1710   -0.4300 C   0  0  0  0  0  0  0  0  0  0  0  0
   -3.9310   -0.0370    0.5870 O   0  0  0  0  0  0  0  0  0  0  0  0
   -5.1050   -0.5740    0.0620 C   0  0  0  0  0  0  0  0  0  0  0  0
   -5.9890   -0.7490    1.1250 O   0  0  0  0  0  0  0  0  0  0  0  0
   -6.2000    0.4230    1.6660 O   0  0  0  0  0  0  0  0  0  0  0  0
    1.8570   -1.1160    1.4210 O   0  0  0  0  0  0  0  0  0  0  0  0
    2.7000   -0.2870    2.0950 O   0  0  0  0  0  0  0  0  0  0  0  0
    3.2980    0.6830    1.2880 C   0  0  0  0  0  0  0  0  0  0  0  0
    3.6520    1.8110    1.7170 O   0  0  0  0  0  0  0  0  0  0  0  0
  1  2  2  0
  2  3  1  0
  2  4  1  0
  5  4  1  1
  5  6  1  0
  5 20  1  0
  6  7  1  0
  7  8  1  1
  7  9  1  0
  7 18  1  0
  9 10  1  0
 10 11  1  0
 11 12  1  0
 12 13  1  0
 13 14  1  0
 14 15  1  0
 15 16  1  0
 16 17  1  0
 18 19  1  0
 19 20  1  0
 20 21  2  0
M  END
