
     RDKit          3D

 21 22  0  0  0  0  0  0  0  0999 V2000
   -3.2340    0.0710   -1.6150 O   0  0  0  0  0  0  0  0  0  0  0  0
   -3.6720    0.4260   -0.4490 C   0  0  0  0  0  0  0  0  0  0  0  0
   -5.0610    1.0310   -0.2860 C   0  0  0  0  0  0  0  0  0  0  0  0
   -5.0000    1.4700    1.0450 O   0  0  0  0  0  0  0  0  0  0  0  0
   -5.3750    2.7560    1.0680 O   0  0  0  0  0  0  0  0  0  0  0  0
   -2.8790    0.2560    0.6570 O   0  0  0  0  0  0  0  0  0  0  0  0
   -1.6870   -0.3520    0.6780 C   0  0  1  0  0  0  0  0  0  0  0  0
   -1.8490   -1.9120    0.8540 C   0  0  0  0  0  0  0  0  0  0  0  0
   -0.8870   -2.4790    0.1270 O   0  0  0  0  0  0  0  0  0  0  0  0
    0.3740   -1.8870    0.3400 C   0  0  0  0  0  0  0  0  0  0  0  0
    0.4680   -0.4630    0.4500 C   0  0  1  0  0  0  0  0  0  0  0  0
    1.6860    0.0380    0.8190 O   0  0  0  0  0  0  0  0  0  0  0  0
    2.4410   -0.0510   -0.3650 C   0  0  0  0  0  0  0  0  0  0  0  0
    3.8630    0.2460   -0.3100 C   0  0  0  0  0  0  0  0  0  0  0  0
    4.7580   -0.5150    0.4170 O   0  0  0  0  0  0  0  0  0  0  0  0
    6.0350   -0.0950    0.1680 O   0  0  0  0  0  0  0  0  0  0  0  0
    6.0920    1.1530    0.2690 O   0  0  0  0  0  0  0  0  0  0  0  0
    6.2830    1.9200   -0.7120 O   0  0  0  0  0  0  0  0  0  0  0  0
   -0.0650    0.2640   -0.6810 O   0  0  0  0  0  0  0  0  0  0  0  0
   -1.2640   -0.2530   -0.7410 O   0  0  0  0  0  0  0  0  0  0  0  0
   -0.6030   -0.0380    1.3750 O   0  0  0  0  0  0  0  0  0  0  0  0
  1  2  2  0
  2  3  1  0
  2  6  1  0
  3  4  1  0
  4  5  1  0
  7  6  1  6
  7  8  1  0
  7 20  1  0
  7 21  1  0
  8  9  1  0
  9 10  1  0
 10 11  1  0
 11 12  1  1
 11 19  1  0
 11 21  1  0
 12 13  1  0
 13 14  1  0
 14 15  1  0
 15 16  1  0
 16 17  1  0
 17 18  1  0
 19 20  1  0
M  END
