
     RDKit          3D

 21 22  0  0  0  0  0  0  0  0999 V2000
    4.2970   -1.0140    0.5660 O   0  0  0  0  0  0  0  0  0  0  0  0
    4.6060    0.0200   -0.0750 C   0  0  0  0  0  0  0  0  0  0  0  0
    5.5450    0.8890    0.4790 O   0  0  0  0  0  0  0  0  0  0  0  0
    4.0100    0.2620   -1.3020 O   0  0  0  0  0  0  0  0  0  0  0  0
    3.0590   -0.6410   -1.8370 C   0  0  0  0  0  0  0  0  0  0  0  0
    1.9480   -0.7720   -0.9730 O   0  0  0  0  0  0  0  0  0  0  0  0
    1.1360    0.2700   -0.6050 C   0  0  0  0  0  0  0  0  0  0  0  0
    1.4190    1.4160   -1.0820 O   0  0  0  0  0  0  0  0  0  0  0  0
    0.0150    0.1090    0.2730 C   0  0  2  0  0  0  0  0  0  0  0  0
   -0.7020    1.2830    0.5400 O   0  0  0  0  0  0  0  0  0  0  0  0
   -2.0120    0.8770    0.8430 C   0  0  1  0  0  0  0  0  0  0  0  0
   -2.8420    1.1990   -0.3900 C   0  0  0  0  0  0  0  0  0  0  0  0
   -4.1760    0.8110   -0.1450 O   0  0  0  0  0  0  0  0  0  0  0  0
   -4.9130    1.0810   -1.1990 O   0  0  0  0  0  0  0  0  0  0  0  0
   -1.8600   -0.6060    0.8980 C   0  0  2  0  0  0  0  0  0  0  0  0
   -2.9900   -1.3350    0.8230 O   0  0  0  0  0  0  0  0  0  0  0  0
   -2.6820   -2.6130    0.8850 O   0  0  0  0  0  0  0  0  0  0  0  0
   -0.9660   -1.0100    1.9540 O   0  0  0  0  0  0  0  0  0  0  0  0
    0.2890   -0.5720    1.5620 C   0  0  0  0  0  0  0  0  0  0  0  0
    1.4100   -0.6770    2.0900 O   0  0  0  0  0  0  0  0  0  0  0  0
   -0.9880   -0.7740   -0.2110 O   0  0  0  0  0  0  0  0  0  0  0  0
  1  2  2  0
  2  3  1  0
  2  4  1  0
  4  5  1  0
  5  6  1  0
  6  7  1  0
  7  8  2  0
  9  7  1  6
  9 10  1  0
  9 19  1  0
  9 21  1  0
 10 11  1  0
 11 12  1  6
 11 15  1  0
 12 13  1  0
 13 14  1  0
 15 16  1  6
 15 18  1  0
 15 21  1  0
 16 17  1  0
 18 19  1  0
 19 20  2  0
M  END
