
     RDKit          3D

 24 24  0  0  0  0  0  0  0  0999 V2000
    7.7290   -0.7150    0.4630 C   0  0  0  0  0  0  0  0  0  0  0  0
    6.6450    0.3070    0.5840 C   0  0  0  0  0  0  0  0  0  0  0  0
    5.5200    0.0920   -0.4070 C   0  0  0  0  0  0  0  0  0  0  0  0
    4.5060    1.1660   -0.1910 C   0  0  0  0  0  0  0  0  0  0  0  0
    3.3220    1.0600   -1.1290 C   0  0  0  0  0  0  0  0  0  0  0  0
    2.5860   -0.2250   -0.9920 C   0  0  0  0  0  0  0  0  0  0  0  0
    1.4250   -0.2410   -1.9950 C   0  0  0  0  0  0  0  0  0  0  0  0
    0.4450    0.8590   -1.7880 C   0  0  0  0  0  0  0  0  0  0  0  0
   -0.1900    0.9330   -0.4850 C   0  0  0  0  0  0  0  0  0  0  0  0
   -1.1640   -0.0890    0.0280 C   0  0  1  0  0  0  0  0  0  0  0  0
   -1.5250    0.3000    1.3010 O   0  0  0  0  0  0  0  0  0  0  0  0
   -2.4370    0.2520   -0.8180 C   0  0  0  0  0  0  0  0  0  0  0  0
   -2.8300    1.4990   -0.8980 O   0  0  0  0  0  0  0  0  0  0  0  0
   -3.2770    2.3120    0.0500 C   0  0  2  0  0  0  0  0  0  0  0  0
   -4.8070    2.6010   -0.1610 C   0  0  0  0  0  0  0  0  0  0  0  0
   -5.0220    3.5670    0.9820 C   0  0  0  0  0  0  0  0  0  0  0  0
   -3.7800    4.4440    0.9600 C   0  0  0  0  0  0  0  0  0  0  0  0
   -2.8090    3.7490    0.0160 C   0  0  0  0  0  0  0  0  0  0  0  0
   -0.8600   -1.4960   -0.2120 C   0  0  0  0  0  0  0  0  0  0  0  0
   -1.6400   -2.6190    0.3060 C   0  0  2  0  0  0  0  0  0  0  0  0
   -0.8920   -3.8920   -0.2760 C   0  0  0  0  0  0  0  0  0  0  0  0
   -3.0460   -2.8380   -0.0700 C   0  0  0  0  0  0  0  0  0  0  0  0
   -1.4120   -2.8160    1.8020 C   0  0  0  0  0  0  0  0  0  0  0  0
   -2.2330   -3.9850    2.3070 C   0  0  0  0  0  0  0  0  0  0  0  0
  1  2  1  0
  2  3  1  0
  3  4  1  0
  4  5  1  0
  5  6  1  0
  6  7  1  0
  7  8  1  0
  8  9  1  0
  9 10  1  0
 10 11  1  1
 10 12  1  0
 10 19  1  0
 12 13  1  0
 14 13  1  6
 14 15  1  0
 14 18  1  0
 15 16  1  0
 16 17  1  0
 17 18  1  0
 19 20  1  0
 20 21  1  6
 20 22  1  0
 20 23  1  0
 23 24  1  0
M  END
