
     RDKit          3D

 25 28  0  0  0  0  0  0  0  0999 V2000
    1.7430   -3.0580    3.6200 O   0  0  0  0  0  0  0  0  0  0  0  0
    0.7160   -2.3470    3.4880 C   0  0  0  0  0  0  0  0  0  0  0  0
   -0.2920   -2.5150    4.4150 O   0  0  0  0  0  0  0  0  0  0  0  0
    0.6130   -1.3950    2.3990 C   0  0  0  0  0  0  0  0  0  0  0  0
    1.6780   -1.2830    1.4990 C   0  0  0  0  0  0  0  0  0  0  0  0
    1.5890   -0.3880    0.4700 C   0  0  0  0  0  0  0  0  0  0  0  0
    2.6880   -0.2560   -0.4780 C   0  0  0  0  0  0  0  0  0  0  0  0
    3.8440   -0.9690   -0.4370 C   0  0  0  0  0  0  0  0  0  0  0  0
    4.8200   -0.7440   -1.4100 C   0  0  0  0  0  0  0  0  0  0  0  0
    4.6700    0.1740   -2.4230 C   0  0  0  0  0  0  0  0  0  0  0  0
    3.5050    0.8880   -2.4600 C   0  0  0  0  0  0  0  0  0  0  0  0
    2.5490    0.6700   -1.5090 C   0  0  0  0  0  0  0  0  0  0  0  0
    0.4940    0.3910    0.3030 N   0  0  0  0  0  0  0  0  0  0  0  0
   -0.5480    0.3140    1.1450 C   0  0  0  0  0  0  0  0  0  0  0  0
   -0.4740   -0.5870    2.1910 C   0  0  0  0  0  0  0  0  0  0  0  0
   -1.6610   -0.4570    2.8830 C   0  0  0  0  0  0  0  0  0  0  0  0
   -2.3930    0.4960    2.2430 N   0  0  0  0  0  0  0  0  0  0  0  0
   -1.7380    0.9560    1.2130 N   0  0  0  0  0  0  0  0  0  0  0  0
   -2.1390    1.9680    0.2650 C   0  0  0  0  0  0  0  0  0  0  0  0
   -2.8560    1.4160   -0.8900 C   0  0  0  0  0  0  0  0  0  0  0  0
   -4.2270    1.3010   -0.8210 C   0  0  0  0  0  0  0  0  0  0  0  0
   -4.9810    0.7920   -1.8600 C   0  0  0  0  0  0  0  0  0  0  0  0
   -4.3500    0.3920   -2.9910 N   0  0  0  0  0  0  0  0  0  0  0  0
   -3.0250    0.5010   -3.0620 C   0  0  0  0  0  0  0  0  0  0  0  0
   -2.2320    1.0050   -2.0450 C   0  0  0  0  0  0  0  0  0  0  0  0
  1  2  2  0
  2  3  1  0
  2  4  1  0
  4  5  2  0
  4 15  1  0
  5  6  1  0
  6  7  1  0
  6 13  2  0
  7  8  2  0
  7 12  1  0
  8  9  1  0
  9 10  2  0
 10 11  1  0
 11 12  2  0
 13 14  1  0
 14 15  2  0
 14 18  1  0
 15 16  1  0
 16 17  2  0
 17 18  1  0
 18 19  1  0
 19 20  1  0
 20 21  2  0
 20 25  1  0
 21 22  1  0
 22 23  2  0
 23 24  1  0
 24 25  2  0
M  END
