
     RDKit          3D

 24 24  0  0  0  0  0  0  0  0999 V2000
    3.5760    2.6190   -0.1750 C   0  0  0  0  0  0  0  0  0  0  0  0
    3.9280    1.5030   -1.1630 C   0  0  0  0  0  0  0  0  0  0  0  0
    4.1750    0.2220   -0.4090 C   0  0  0  0  0  0  0  0  0  0  0  0
    3.1190   -0.3390    0.4580 C   0  0  0  0  0  0  0  0  0  0  0  0
    1.9250   -0.8200   -0.2730 C   0  0  0  0  0  0  0  0  0  0  0  0
    0.8490   -1.4160    0.5900 C   0  0  0  0  0  0  0  0  0  0  0  0
    0.2890   -0.4370    1.5980 C   0  0  0  0  0  0  0  0  0  0  0  0
   -0.3240    0.7650    0.9470 C   0  0  0  0  0  0  0  0  0  0  0  0
   -1.4420    0.6070    0.0440 C   0  0  0  0  0  0  0  0  0  0  0  0
   -2.7910    0.1530    0.3520 C   0  0  1  0  0  0  0  0  0  0  0  0
   -3.0990   -1.1510    0.9460 C   0  0  1  0  0  0  0  0  0  0  0  0
   -2.7230   -2.4200    0.3210 C   0  0  0  0  0  0  0  0  0  0  0  0
   -2.9880   -1.2580    2.4580 C   0  0  0  0  0  0  0  0  0  0  0  0
   -3.5230    1.1550    1.2900 C   0  0  0  0  0  0  0  0  0  0  0  0
   -3.5830    2.4290    0.4980 C   0  0  0  0  0  0  0  0  0  0  0  0
   -3.7900    1.9420   -0.8930 C   0  0  0  0  0  0  0  0  0  0  0  0
   -3.5890    0.4450   -0.9230 C   0  0  1  0  0  0  0  0  0  0  0  0
   -2.7260    0.2050   -2.1740 C   0  0  0  0  0  0  0  0  0  0  0  0
   -4.8570   -0.2150   -1.1410 C   0  0  0  0  0  0  0  0  0  0  0  0
   -4.8770   -1.5990   -1.2330 O   0  0  0  0  0  0  0  0  0  0  0  0
    5.3400   -0.3570   -0.5090 C   0  0  0  0  0  0  0  0  0  0  0  0
    6.3920    0.3110   -1.3910 C   0  0  0  0  0  0  0  0  0  0  0  0
    5.7390   -1.6320    0.1220 C   0  0  0  0  0  0  0  0  0  0  0  0
    6.1080   -2.5460   -0.8860 O   0  0  0  0  0  0  0  0  0  0  0  0
  1  2  1  0
  2  3  1  0
  3  4  1  0
  3 21  2  3
  4  5  1  0
  5  6  1  0
  6  7  1  0
  7  8  1  0
  8  9  1  0
 10  9  1  6
 10 11  1  0
 10 14  1  0
 10 17  1  0
 11 12  1  6
 11 13  1  0
 14 15  1  0
 15 16  1  0
 16 17  1  0
 17 18  1  6
 17 19  1  0
 19 20  1  0
 21 22  1  0
 21 23  1  0
 23 24  1  0
M  END
