
     RDKit          3D

 24 24  0  0  0  0  0  0  0  0999 V2000
   -2.6770    3.8760   -0.9430 C   0  0  0  0  0  0  0  0  0  0  0  0
   -3.2430    2.5030   -0.5590 C   0  0  0  0  0  0  0  0  0  0  0  0
   -2.2790    1.4070   -0.9990 C   0  0  2  0  0  0  0  0  0  0  0  0
   -2.1540    1.5260   -2.4790 C   0  0  0  0  0  0  0  0  0  0  0  0
   -2.5390    0.0810   -0.3990 C   0  0  1  0  0  0  0  0  0  0  0  0
   -2.4140    0.2550    1.1210 C   0  0  0  0  0  0  0  0  0  0  0  0
   -4.0520   -0.2790   -0.5490 C   0  0  0  0  0  0  0  0  0  0  0  0
   -1.7270   -1.0780   -0.8990 C   0  0  1  0  0  0  0  0  0  0  0  0
   -2.2430   -2.2940   -0.0380 C   0  0  0  0  0  0  0  0  0  0  0  0
   -2.1390   -1.4930   -2.3080 C   0  0  0  0  0  0  0  0  0  0  0  0
   -0.4640   -1.0340   -0.7890 O   0  0  0  0  0  0  0  0  0  0  0  0
    0.4950   -1.0120    0.0970 C   0  0  2  0  0  0  0  0  0  0  0  0
    1.2570    0.2570    0.1090 C   0  0  0  0  0  0  0  0  0  0  0  0
    2.4040    0.4110    1.0510 C   0  0  0  0  0  0  0  0  0  0  0  0
    2.9250    1.8590    0.7810 C   0  0  0  0  0  0  0  0  0  0  0  0
    4.0970    2.1040    1.6990 C   0  0  0  0  0  0  0  0  0  0  0  0
    4.6680    3.4760    1.5120 C   0  0  0  0  0  0  0  0  0  0  0  0
    3.7010    4.4670    1.7810 O   0  0  0  0  0  0  0  0  0  0  0  0
    1.2760   -2.2750    0.2730 C   0  0  0  0  0  0  0  0  0  0  0  0
    1.5000   -3.0270   -0.7800 C   0  0  0  0  0  0  0  0  0  0  0  0
    2.2350   -4.2620   -0.7470 C   0  0  0  0  0  0  0  0  0  0  0  0
    2.7380   -4.7190    0.3780 C   0  0  0  0  0  0  0  0  0  0  0  0
    2.5600   -3.9770    1.6230 C   0  0  0  0  0  0  0  0  0  0  0  0
    1.8010   -2.7150    1.5610 C   0  0  0  0  0  0  0  0  0  0  0  0
  1  2  1  0
  2  3  1  0
  3  4  1  6
  3  5  1  0
  5  6  1  1
  5  7  1  0
  5  8  1  0
  8  9  1  1
  8 10  1  0
  8 11  1  0
 11 12  1  0
 12 13  1  6
 12 19  1  0
 13 14  1  0
 14 15  1  0
 15 16  1  0
 16 17  1  0
 17 18  1  0
 19 20  2  0
 19 24  1  0
 20 21  1  0
 21 22  2  0
 22 23  1  0
 23 24  1  0
M  END
