
     RDKit          3D

 20 21  0  0  0  0  0  0  0  0999 V2000
   -3.8610   -2.8150    0.0210 C   0  0  0  0  0  0  0  0  0  0  0  0
   -3.1720   -1.5020    0.3290 C   0  0  0  0  0  0  0  0  0  0  0  0
   -3.6950   -0.7220    1.2610 C   0  0  0  0  0  0  0  0  0  0  0  0
   -2.9050    0.8180    1.6380 S   0  0  0  0  0  0  0  0  0  0  0  0
   -2.7210    1.0210    3.1590 N   0  0  0  0  0  0  0  0  0  0  0  0
   -1.3620    0.8980    0.7170 C   0  0  0  0  0  0  0  0  0  0  0  0
   -1.6330    0.2400   -0.6140 C   0  0  1  0  0  0  0  0  0  0  0  0
   -2.7560    0.8640   -1.1550 O   0  0  0  0  0  0  0  0  0  0  0  0
   -0.4560    0.3510   -1.5590 C   0  0  2  0  0  0  0  0  0  0  0  0
   -0.8080   -0.0240   -2.8330 O   0  0  0  0  0  0  0  0  0  0  0  0
    0.7280   -0.2740   -1.0550 N   0  0  0  0  0  0  0  0  0  0  0  0
    1.9170    0.4250   -0.7160 C   0  0  0  0  0  0  0  0  0  0  0  0
    1.8860    1.6810   -0.8860 O   0  0  0  0  0  0  0  0  0  0  0  0
    3.1330   -0.2480   -0.1940 C   0  0  0  0  0  0  0  0  0  0  0  0
    4.1980    0.6660    0.0730 N   0  0  0  0  0  0  0  0  0  0  0  0
    5.1510    1.0430   -0.7900 C   0  0  0  0  0  0  0  0  0  0  0  0
    6.0120    1.9480   -0.1570 C   0  0  0  0  0  0  0  0  0  0  0  0
    5.5290    2.0790    1.0890 N   0  0  0  0  0  0  0  0  0  0  0  0
    4.4410    1.3080    1.2240 C   0  0  0  0  0  0  0  0  0  0  0  0
   -1.9540   -1.2140   -0.4580 C   0  0  0  0  0  0  0  0  0  0  0  0
  1  2  1  0
  2  3  2  0
  2 20  1  0
  3  4  1  0
  4  5  2  0
  4  6  1  6
  6  7  1  0
  7  8  1  6
  7  9  1  0
  7 20  1  0
  9 10  1  6
  9 11  1  0
 11 12  1  0
 12 13  2  0
 12 14  1  0
 14 15  1  0
 15 16  1  0
 15 19  1  0
 16 17  2  0
 17 18  1  0
 18 19  2  0
M  CHG  1   5   1
M  END
