
     RDKit          3D

 20 22  0  0  0  0  0  0  0  0999 V2000
   -2.1560    2.3120   -0.5220 N   0  0  0  0  0  0  0  0  0  0  0  0
   -2.8650    1.1120   -0.8510 C   0  0  2  0  0  0  0  0  0  0  0  0
   -4.2340    1.1880   -0.1610 C   0  0  0  0  0  0  0  0  0  0  0  0
   -4.5660   -0.2550    0.1470 C   0  0  0  0  0  0  0  0  0  0  0  0
   -3.2680   -0.7940    0.4890 N   0  0  0  0  0  0  0  0  0  0  0  0
   -2.9230   -1.9110    1.2520 N   0  0  0  0  0  0  0  0  0  0  0  0
   -1.5760   -2.2440    1.4470 C   0  0  0  0  0  0  0  0  0  0  0  0
   -1.2870   -3.2920    2.1540 O   0  0  0  0  0  0  0  0  0  0  0  0
   -0.4890   -1.4350    0.8710 C   0  0  2  0  0  0  0  0  0  0  0  0
    0.4630   -1.0870    1.9150 N   0  0  0  0  0  0  0  0  0  0  0  0
    1.9370   -1.8830    1.5360 S   0  0  2  0  0  0  0  0  0  0  0  0
    1.7100   -3.3870    1.4560 O   0  0  0  0  0  0  0  0  0  0  0  0
    2.9450   -1.7000    2.6520 O   0  0  0  0  0  0  0  0  0  0  0  0
    2.6500   -1.3930    0.0110 C   0  0  0  0  0  0  0  0  0  0  0  0
    2.9570    0.0680    0.0610 C   0  0  0  0  0  0  0  0  0  0  0  0
    3.5720    0.5980   -1.2090 C   0  0  1  0  0  0  0  0  0  0  0  0
    3.8830    2.0830   -1.1550 C   0  0  0  0  0  0  0  0  0  0  0  0
    4.9810    1.0710   -1.1820 C   0  0  0  0  0  0  0  0  0  0  0  0
   -0.9570   -0.3190    0.1000 C   0  0  0  0  0  0  0  0  0  0  0  0
   -2.2230   -0.0240   -0.0720 C   0  0  0  0  0  0  0  0  0  0  0  0
  2  1  1  1
  2  3  1  0
  2 20  1  0
  3  4  1  0
  4  5  1  0
  5  6  1  0
  5 20  1  0
  6  7  1  0
  7  8  2  0
  7  9  1  0
  9 10  1  1
  9 19  1  0
 10 11  1  0
 11 12  2  0
 11 13  2  0
 11 14  1  6
 14 15  1  0
 16 15  1  1
 16 17  1  0
 16 18  1  0
 17 18  1  0
 19 20  2  0
M  CHG  1   1   1
M  END
