
     RDKit          3D

 20 21  0  0  0  0  0  0  0  0999 V2000
   -2.7170    3.3130   -0.4110 N   0  0  0  0  0  0  0  0  0  0  0  0
   -2.2200    2.1940    0.4030 C   0  0  1  0  0  0  0  0  0  0  0  0
   -3.4480    1.4700    0.9060 C   0  0  0  0  0  0  0  0  0  0  0  0
   -3.1790    0.2860    1.5400 O   0  0  0  0  0  0  0  0  0  0  0  0
   -1.8280    0.0600    1.5430 C   0  0  0  0  0  0  0  0  0  0  0  0
   -1.2970   -0.1070    0.0960 C   0  0  2  0  0  0  0  0  0  0  0  0
   -2.2370   -1.0280   -0.4960 N   0  0  0  0  0  0  0  0  0  0  0  0
    0.0900   -0.5900    0.2580 C   0  0  0  0  0  0  0  0  0  0  0  0
    0.8880   -0.8470   -0.8650 N   0  0  0  0  0  0  0  0  0  0  0  0
    0.4840   -1.9840   -1.6820 C   0  0  0  0  0  0  0  0  0  0  0  0
    0.8200   -3.1800   -0.8370 C   0  0  0  0  0  0  0  0  0  0  0  0
    1.9640   -2.6630    0.0490 C   0  0  0  0  0  0  0  0  0  0  0  0
    2.2160   -1.3160   -0.5960 C   0  0  2  0  0  0  0  0  0  0  0  0
    3.2070   -0.4780    0.0370 C   0  0  0  0  0  0  0  0  0  0  0  0
    3.0040    0.0750    1.3580 C   0  0  0  0  0  0  0  0  0  0  0  0
    2.7580   -0.7640    2.4370 O   0  0  0  0  0  0  0  0  0  0  0  0
    3.0350    1.3360    1.6220 N   0  0  0  0  0  0  0  0  0  0  0  0
    3.3440    2.4130    0.2810 S   0  0  0  0  0  0  0  0  0  0  0  0
    4.8030    2.2710   -0.2030 O   0  0  0  0  0  0  0  0  0  0  0  0
   -1.4090    1.2800   -0.4960 C   0  0  0  0  0  0  0  0  0  0  0  0
  2  1  1  6
  2  3  1  0
  2 20  1  0
  3  4  1  0
  4  5  1  0
  5  6  1  0
  6  7  1  6
  6  8  1  0
  6 20  1  0
  8  9  1  0
  9 10  1  0
  9 13  1  0
 10 11  1  0
 11 12  1  0
 12 13  1  0
 13 14  1  1
 14 15  1  0
 15 16  1  0
 15 17  2  3
 17 18  1  0
 18 19  2  0
M  CHG  2   1   1   7   1
M  END
