
     RDKit          3D

 39 42  0  0  0  0  0  0  0  0999 V2000
   -4.5470    3.5580    1.3490 N   0  0  0  0  0  0  0  0  0  0  0  0
   -4.6150    2.1930    0.9590 C   0  0  0  0  0  0  0  0  0  0  0  0
   -4.7960    1.8220   -0.3330 C   0  0  0  0  0  0  0  0  0  0  0  0
   -4.9370    3.1240   -1.4770 Cl  0  0  0  0  0  0  0  0  0  0  0  0
   -4.8610    0.4040   -0.6510 C   0  0  0  0  0  0  0  0  0  0  0  0
   -5.0320    0.0050   -1.8860 C   0  0  0  0  0  0  0  0  0  0  0  0
   -5.1800    0.8280   -3.0950 C   0  0  1  0  0  0  0  0  0  0  0  0
   -4.0100    1.4760   -3.4640 F   0  0  0  0  0  0  0  0  0  0  0  0
   -5.5950   -0.2570   -4.4690 Cl  0  0  0  0  0  0  0  0  0  0  0  0
   -4.7420   -0.5650    0.4180 N   0  0  0  0  0  0  0  0  0  0  0  0
   -5.8250   -1.2860    0.9750 C   0  0  0  0  0  0  0  0  0  0  0  0
   -5.8900   -0.9880    2.4610 C   0  0  0  0  0  0  0  0  0  0  0  0
   -4.5550   -1.2430    3.0400 C   0  0  0  0  0  0  0  0  0  0  0  0
   -4.2130   -1.6040    4.3510 C   0  0  0  0  0  0  0  0  0  0  0  0
   -2.9100   -1.7340    4.4140 O   0  0  0  0  0  0  0  0  0  0  0  0
   -2.3670   -1.4830    3.2310 C   0  0  0  0  0  0  0  0  0  0  0  0
   -3.3650   -1.1760    2.3660 C   0  0  0  0  0  0  0  0  0  0  0  0
   -3.3920   -0.8120    0.9330 C   0  0  0  0  0  0  0  0  0  0  0  0
   -2.4470   -0.7030    0.1950 N   0  0  0  0  0  0  0  0  0  0  0  0
   -0.8520   -0.7470   -0.1670 S   0  0  1  0  0  0  0  0  0  0  0  0
    0.1050   -0.6460    1.0180 O   0  0  0  0  0  0  0  0  0  0  0  0
   -0.4270   -2.0480   -0.8530 O   0  0  0  0  0  0  0  0  0  0  0  0
   -0.3540    0.5870   -1.2660 C   0  0  0  0  0  0  0  0  0  0  0  0
    1.0890    0.5600   -1.6160 C   0  0  0  0  0  0  0  0  0  0  0  0
    1.5650   -0.5970   -2.3730 C   0  0  0  0  0  0  0  0  0  0  0  0
    0.7460   -1.3670   -2.9890 O   0  0  0  0  0  0  0  0  0  0  0  0
    2.9580   -0.8640   -2.4260 N   0  0  0  0  0  0  0  0  0  0  0  0
    3.9000   -0.0180   -1.7350 C   0  0  0  0  0  0  0  0  0  0  0  0
    4.1470   -0.5020   -0.3470 C   0  0  0  0  0  0  0  0  0  0  0  0
    3.5500   -1.5330    0.0610 O   0  0  0  0  0  0  0  0  0  0  0  0
    5.0580    0.2150    0.4920 N   0  0  0  0  0  0  0  0  0  0  0  0
    5.7230    1.3900    0.0020 C   0  0  0  0  0  0  0  0  0  0  0  0
    5.7640    2.5120    1.0410 C   0  0  0  0  0  0  0  0  0  0  0  0
    6.8110    1.9220    2.4130 S   0  0  0  0  0  0  0  0  0  0  0  0
    6.6490    0.0900    2.3790 C   0  0  0  0  0  0  0  0  0  0  0  0
    5.2850   -0.2780    1.8280 C   0  0  0  0  0  0  0  0  0  0  0  0
    3.4400   -1.9950   -3.1720 C   0  0  2  0  0  0  0  0  0  0  0  0
    4.7290   -2.6460   -2.8310 C   0  0  0  0  0  0  0  0  0  0  0  0
    4.6870   -1.7770   -4.0420 C   0  0  0  0  0  0  0  0  0  0  0  0
  1  2  1  0
  2  3  2  3
  3  4  1  0
  3  5  1  0
  5  6  2  3
  5 10  1  0
  6  7  1  0
  7  8  1  6
  7  9  1  0
 10 11  1  0
 10 18  1  0
 11 12  1  0
 12 13  1  0
 13 14  2  0
 13 17  1  0
 14 15  1  0
 15 16  1  0
 16 17  2  0
 17 18  1  0
 18 19  2  3
 19 20  1  0
 20 21  2  0
 20 22  2  0
 20 23  1  6
 23 24  1  0
 24 25  1  0
 25 26  2  0
 25 27  1  0
 27 28  1  0
 37 27  1  1
 28 29  1  0
 29 30  2  0
 29 31  1  0
 31 32  1  0
 31 36  1  0
 32 33  1  0
 33 34  1  0
 34 35  1  0
 35 36  1  0
 37 38  1  0
 37 39  1  0
 38 39  1  0
M  CHG  1   1   1
M  END
