
     RDKit          3D

 39 41  0  0  0  0  0  0  0  0999 V2000
    7.8170   -3.8520   -1.1790 C   0  0  0  0  0  0  0  0  0  0  0  0
    6.7230   -3.3040   -2.0530 C   0  0  0  0  0  0  0  0  0  0  0  0
    7.1080   -2.7300   -3.1280 O   0  0  0  0  0  0  0  0  0  0  0  0
    5.3810   -3.3780   -1.7840 N   0  0  0  0  0  0  0  0  0  0  0  0
    4.5270   -2.6900   -1.2030 C   0  0  0  0  0  0  0  0  0  0  0  0
    2.8080   -3.1850   -1.0810 S   0  0  0  0  0  0  0  0  0  0  0  0
    2.2870   -1.7540   -0.1650 C   0  0  0  0  0  0  0  0  0  0  0  0
    0.8930   -1.5320    0.2810 C   0  0  0  0  0  0  0  0  0  0  0  0
    0.6000   -0.5100    0.9160 O   0  0  0  0  0  0  0  0  0  0  0  0
   -0.1110   -2.4890   -0.0190 N   0  0  0  0  0  0  0  0  0  0  0  0
   -1.4910   -2.3190    0.3930 C   0  0  0  0  0  0  0  0  0  0  0  0
   -2.0740   -1.0820   -0.2070 C   0  0  0  0  0  0  0  0  0  0  0  0
   -1.5180   -0.2430   -1.1230 C   0  0  0  0  0  0  0  0  0  0  0  0
   -2.4410    0.7440   -1.3560 C   0  0  0  0  0  0  0  0  0  0  0  0
   -3.5550    0.4570   -0.5470 C   0  0  0  0  0  0  0  0  0  0  0  0
   -4.7600    1.2700   -0.5020 C   0  0  0  0  0  0  0  0  0  0  0  0
   -4.7980    2.3090   -1.2510 O   0  0  0  0  0  0  0  0  0  0  0  0
   -5.8830    1.0140    0.2920 N   0  0  0  0  0  0  0  0  0  0  0  0
   -6.0250   -0.0970    1.1980 C   0  0  0  0  0  0  0  0  0  0  0  0
   -7.0310   -1.0950    0.5990 C   0  0  0  0  0  0  0  0  0  0  0  0
   -7.9780   -0.2920   -0.2900 C   0  0  1  0  0  0  0  0  0  0  0  0
   -7.4020   -0.0920   -1.5120 F   0  0  0  0  0  0  0  0  0  0  0  0
   -9.5090   -1.1970   -0.4720 Cl  0  0  0  0  0  0  0  0  0  0  0  0
   -8.2820    1.0410    0.3480 C   0  0  2  0  0  0  0  0  0  0  0  0
   -9.4240    1.6450   -0.3020 N   0  0  0  0  0  0  0  0  0  0  0  0
  -10.7080    2.0090    0.8210 S   0  0  0  0  0  0  0  0  0  0  0  0
  -11.6430    3.0450    0.2580 O   0  0  0  0  0  0  0  0  0  0  0  0
   -7.0400    1.9120    0.2290 C   0  0  0  0  0  0  0  0  0  0  0  0
   -3.2430   -0.6330    0.0890 O   0  0  0  0  0  0  0  0  0  0  0  0
    3.3290   -0.9990    0.0140 C   0  0  0  0  0  0  0  0  0  0  0  0
    4.5900   -1.4100   -0.5060 C   0  0  0  0  0  0  0  0  0  0  0  0
    5.7290   -0.7390   -0.3970 C   0  0  0  0  0  0  0  0  0  0  0  0
    6.0230    0.5120    0.2310 C   0  0  0  0  0  0  0  0  0  0  0  0
    5.0900    1.4010    0.9430 C   0  0  0  0  0  0  0  0  0  0  0  0
    7.3140    0.9070    0.1510 C   0  0  0  0  0  0  0  0  0  0  0  0
    8.5010   -0.0570   -0.6610 Cl  0  0  0  0  0  0  0  0  0  0  0  0
    7.6760    2.1240    0.7440 N   0  0  0  0  0  0  0  0  0  0  0  0
    7.5870    3.3340   -0.0470 C   0  0  0  0  0  0  0  0  0  0  0  0
    8.1280    2.1650    2.1200 C   0  0  0  0  0  0  0  0  0  0  0  0
  1  2  1  0
  2  3  2  0
  2  4  1  0
  4  5  2  3
  5  6  1  0
  5 31  1  0
  6  7  1  0
  7  8  1  0
  7 30  2  0
  8  9  2  0
  8 10  1  0
 10 11  1  0
 11 12  1  0
 12 13  2  0
 12 29  1  0
 13 14  1  0
 14 15  2  0
 15 16  1  0
 15 29  1  0
 16 17  2  0
 16 18  1  0
 18 19  1  0
 18 28  1  0
 19 20  1  0
 20 21  1  0
 21 22  1  6
 21 23  1  0
 21 24  1  0
 24 25  1  6
 24 28  1  0
 25 26  1  0
 26 27  2  0
 30 31  1  0
 31 32  2  3
 32 33  1  0
 33 34  1  0
 33 35  2  3
 35 36  1  0
 35 37  1  0
 37 38  1  0
 37 39  1  0
M  CHG  1  25   1
M  END
