
     RDKit          3D

 39 41  0  0  0  0  0  0  0  0999 V2000
    3.2420    1.6340    3.6020 C   0  0  0  0  0  0  0  0  0  0  0  0
    2.3980    0.6380    2.8880 C   0  0  2  0  0  0  0  0  0  0  0  0
    2.0820   -0.6080    3.7190 C   0  0  0  0  0  0  0  0  0  0  0  0
    2.6980    0.3490    1.4900 C   0  0  0  0  0  0  0  0  0  0  0  0
    3.7850    0.5320    0.8310 C   0  0  0  0  0  0  0  0  0  0  0  0
    5.0670    1.0690    1.2200 C   0  0  0  0  0  0  0  0  0  0  0  0
    6.0550    1.1570    0.3170 C   0  0  0  0  0  0  0  0  0  0  0  0
    5.7230    0.5960   -1.3410 S   0  0  0  0  0  0  0  0  0  0  0  0
    7.2550    0.8720   -2.2490 C   0  0  0  0  0  0  0  0  0  0  0  0
    7.2550    0.5230   -3.5560 C   0  0  0  0  0  0  0  0  0  0  0  0
    8.3640    0.6810   -4.3670 C   0  0  0  0  0  0  0  0  0  0  0  0
    8.3890    0.2370   -6.0550 Cl  0  0  0  0  0  0  0  0  0  0  0  0
    9.4880    1.2190   -3.7770 C   0  0  0  0  0  0  0  0  0  0  0  0
   10.9300    1.4490   -4.7410 Cl  0  0  0  0  0  0  0  0  0  0  0  0
    9.4720    1.5710   -2.4440 C   0  0  0  0  0  0  0  0  0  0  0  0
    8.3500    1.4090   -1.6300 C   0  0  0  0  0  0  0  0  0  0  0  0
    8.4270    1.7970   -0.2810 N   0  0  0  0  0  0  0  0  0  0  0  0
    7.3530    1.6810    0.6350 C   0  0  0  0  0  0  0  0  0  0  0  0
    7.5310    2.0620    1.8310 O   0  0  0  0  0  0  0  0  0  0  0  0
    1.5630   -0.2400    0.6880 C   0  0  0  0  0  0  0  0  0  0  0  0
    1.7020   -0.5190   -0.5080 O   0  0  0  0  0  0  0  0  0  0  0  0
    0.3450   -0.4750    1.2860 O   0  0  0  0  0  0  0  0  0  0  0  0
   -0.7440   -1.0240    0.5650 C   0  0  0  0  0  0  0  0  0  0  0  0
   -1.8800   -1.1370    1.5270 C   0  0  0  0  0  0  0  0  0  0  0  0
   -1.7930   -0.7890    2.7330 O   0  0  0  0  0  0  0  0  0  0  0  0
   -3.1200   -1.6430    1.1260 O   0  0  0  0  0  0  0  0  0  0  0  0
   -4.2220   -1.7710    1.9910 C   0  0  2  0  0  0  0  0  0  0  0  0
   -4.6540   -3.2020    2.1930 C   0  0  0  0  0  0  0  0  0  0  0  0
   -5.3790   -0.9640    1.5660 C   0  0  0  0  0  0  0  0  0  0  0  0
   -6.4280   -0.9950    2.2530 O   0  0  0  0  0  0  0  0  0  0  0  0
   -5.3540   -0.1510    0.4070 N   0  0  0  0  0  0  0  0  0  0  0  0
   -6.5060    0.6380    0.0020 C   0  0  1  0  0  0  0  0  0  0  0  0
   -6.1090    2.0940    0.1200 C   0  0  0  0  0  0  0  0  0  0  0  0
   -6.9100    0.2610   -1.4020 C   0  0  1  0  0  0  0  0  0  0  0  0
   -5.9110    0.7120   -2.4100 C   0  0  0  0  0  0  0  0  0  0  0  0
   -6.3900    0.3220   -3.6670 O   0  0  0  0  0  0  0  0  0  0  0  0
   -6.3610   -1.0470   -3.7090 C   0  0  0  0  0  0  0  0  0  0  0  0
   -6.8740   -1.7690   -2.5340 C   0  0  0  0  0  0  0  0  0  0  0  0
   -7.2300   -1.0630   -1.4430 O   0  0  0  0  0  0  0  0  0  0  0  0
  2  1  1  1
  2  3  1  0
  2  4  1  0
  4  5  2  3
  4 20  1  0
  5  6  1  0
  6  7  2  3
  7  8  1  0
  7 18  1  0
  8  9  1  0
  9 10  2  0
  9 16  1  0
 10 11  1  0
 11 12  1  0
 11 13  2  0
 13 14  1  0
 13 15  1  0
 15 16  2  0
 16 17  1  0
 17 18  1  0
 18 19  2  0
 20 21  2  0
 20 22  1  0
 22 23  1  0
 23 24  1  0
 24 25  2  0
 24 26  1  0
 26 27  1  0
 27 28  1  6
 27 29  1  0
 29 30  2  0
 29 31  1  0
 31 32  1  0
 32 33  1  6
 32 34  1  0
 34 35  1  6
 34 39  1  0
 35 36  1  0
 36 37  1  0
 37 38  1  0
 38 39  1  0
M  END
