
     RDKit          3D

 39 42  0  0  0  0  0  0  0  0999 V2000
    5.7450    2.4810   -1.5360 C   0  0  0  0  0  0  0  0  0  0  0  0
    5.7340    1.2820   -2.4370 C   0  0  0  0  0  0  0  0  0  0  0  0
    4.3230    0.8010   -2.6620 C   0  0  2  0  0  0  0  0  0  0  0  0
    3.5590    1.9360   -3.3020 C   0  0  0  0  0  0  0  0  0  0  0  0
    3.6940    0.3940   -1.3370 C   0  0  0  0  0  0  0  0  0  0  0  0
    2.3620   -0.0570   -1.5740 N   0  0  0  0  0  0  0  0  0  0  0  0
    1.3520    0.5230   -0.7330 C   0  0  0  0  0  0  0  0  0  0  0  0
    0.3200    1.1970   -1.5660 C   0  0  1  0  0  0  0  0  0  0  0  0
   -0.2710    0.2730   -2.4200 O   0  0  0  0  0  0  0  0  0  0  0  0
   -0.8100    1.8140   -0.7430 C   0  0  2  0  0  0  0  0  0  0  0  0
   -0.3110    2.9570    0.0570 C   0  0  0  0  0  0  0  0  0  0  0  0
   -1.3580    3.6060    0.8790 C   0  0  0  0  0  0  0  0  0  0  0  0
   -2.0970    4.6420    0.3850 C   0  0  0  0  0  0  0  0  0  0  0  0
   -3.0600    5.2250    1.1670 C   0  0  0  0  0  0  0  0  0  0  0  0
   -3.2980    4.7780    2.4630 C   0  0  0  0  0  0  0  0  0  0  0  0
   -2.5480    3.7310    2.9580 C   0  0  0  0  0  0  0  0  0  0  0  0
   -1.5790    3.1430    2.1730 C   0  0  0  0  0  0  0  0  0  0  0  0
   -1.4330    0.7510   -0.0180 N   0  0  0  0  0  0  0  0  0  0  0  0
   -2.7510    0.2850   -0.2370 C   0  0  0  0  0  0  0  0  0  0  0  0
   -3.4380    0.8290   -1.1240 O   0  0  0  0  0  0  0  0  0  0  0  0
   -3.3240   -0.7500    0.4850 O   0  0  0  0  0  0  0  0  0  0  0  0
   -4.6300   -1.1390    0.1970 C   0  0  1  0  0  0  0  0  0  0  0  0
   -4.6910   -2.6030   -0.2380 C   0  0  0  0  0  0  0  0  0  0  0  0
   -6.0130   -2.9210   -0.0670 O   0  0  0  0  0  0  0  0  0  0  0  0
   -6.5150   -2.2550    1.0190 C   0  0  1  0  0  0  0  0  0  0  0  0
   -6.7360   -3.0740    2.0860 O   0  0  0  0  0  0  0  0  0  0  0  0
   -5.7990   -2.8550    3.0550 C   0  0  0  0  0  0  0  0  0  0  0  0
   -4.7930   -1.8530    2.5590 C   0  0  0  0  0  0  0  0  0  0  0  0
   -5.5240   -1.1970    1.4320 C   0  0  1  0  0  0  0  0  0  0  0  0
    2.2040   -1.7170   -1.8910 S   0  0  1  0  0  0  0  0  0  0  0  0
    0.8080   -2.0580   -2.2870 O   0  0  0  0  0  0  0  0  0  0  0  0
    3.0750   -2.0370   -3.0860 O   0  0  0  0  0  0  0  0  0  0  0  0
    2.7470   -2.6940   -0.5410 C   0  0  0  0  0  0  0  0  0  0  0  0
    4.0700   -3.1040   -0.4680 C   0  0  0  0  0  0  0  0  0  0  0  0
    4.4890   -3.8830    0.6160 C   0  0  0  0  0  0  0  0  0  0  0  0
    3.6140   -4.2580    1.6240 C   0  0  0  0  0  0  0  0  0  0  0  0
    4.0630   -5.0480    2.7140 N   0  0  0  0  0  0  0  0  0  0  0  0
    2.3150   -3.8240    1.5010 C   0  0  0  0  0  0  0  0  0  0  0  0
    1.8750   -3.0600    0.4510 C   0  0  0  0  0  0  0  0  0  0  0  0
  1  2  1  0
  2  3  1  0
  3  4  1  1
  3  5  1  0
  5  6  1  0
  6  7  1  0
 30  6  1  1
  7  8  1  0
  8  9  1  6
  8 10  1  0
 10 11  1  1
 10 18  1  0
 11 12  1  0
 12 13  2  0
 12 17  1  0
 13 14  1  0
 14 15  2  0
 15 16  1  0
 16 17  2  0
 18 19  1  0
 19 20  2  0
 19 21  1  0
 22 21  1  1
 22 23  1  0
 22 29  1  0
 23 24  1  0
 25 24  1  6
 25 26  1  0
 25 29  1  0
 26 27  1  0
 27 28  1  0
 29 28  1  1
 30 31  2  0
 30 32  2  0
 30 33  1  0
 33 34  2  0
 33 39  1  0
 34 35  1  0
 35 36  2  0
 36 37  1  0
 36 38  1  0
 38 39  2  0
M  END
