
     RDKit          3D

 40 43  0  0  0  0  0  0  0  0999 V2000
    6.9530    5.2840   -0.0600 C   0  0  0  0  0  0  0  0  0  0  0  0
    6.3820    3.9600    0.3350 C   0  0  0  0  0  0  0  0  0  0  0  0
    5.6770    3.8620    1.3020 O   0  0  0  0  0  0  0  0  0  0  0  0
    6.7230    2.8030   -0.5120 C   0  0  0  0  0  0  0  0  0  0  0  0
    6.1710    1.6080   -0.1510 O   0  0  0  0  0  0  0  0  0  0  0  0
    4.8060    1.5460   -0.1640 C   0  0  0  0  0  0  0  0  0  0  0  0
    4.3770    0.1590    0.2430 C   0  0  0  0  0  0  0  0  0  0  0  0
    5.2860   -0.7900    0.6510 C   0  0  0  0  0  0  0  0  0  0  0  0
    4.8970   -2.0610    1.0150 C   0  0  0  0  0  0  0  0  0  0  0  0
    3.5410   -2.3610    0.9560 C   0  0  0  0  0  0  0  0  0  0  0  0
    2.6290   -1.4140    0.5480 C   0  0  0  0  0  0  0  0  0  0  0  0
    1.2840   -1.7920    0.5150 O   0  0  0  0  0  0  0  0  0  0  0  0
    0.2980   -0.8230    0.1000 C   0  0  0  0  0  0  0  0  0  0  0  0
   -1.0110   -1.4780    0.1440 C   0  0  0  0  0  0  0  0  0  0  0  0
   -1.0540   -2.7260    0.5100 O   0  0  0  0  0  0  0  0  0  0  0  0
   -2.2660   -0.9300   -0.1610 N   0  0  0  0  0  0  0  0  0  0  0  0
   -3.4250   -1.7840    0.0190 C   0  0  0  0  0  0  0  0  0  0  0  0
   -4.0050   -2.0230    1.2200 C   0  0  0  0  0  0  0  0  0  0  0  0
   -5.1230   -2.8660    1.2680 C   0  0  0  0  0  0  0  0  0  0  0  0
   -5.6330   -3.4490    0.1160 C   0  0  0  0  0  0  0  0  0  0  0  0
   -6.8150   -4.3380    0.1870 C   0  0  0  0  0  0  0  0  0  0  0  0
   -5.0290   -3.1950   -1.0950 C   0  0  0  0  0  0  0  0  0  0  0  0
   -5.5740   -3.8060   -2.2570 N   0  0  0  0  0  0  0  0  0  0  0  0
   -3.9270   -2.3590   -1.1170 C   0  0  0  0  0  0  0  0  0  0  0  0
   -2.5010    0.3780   -0.6460 C   0  0  2  0  0  0  0  0  0  0  0  0
   -2.0170    0.6460   -2.0420 C   0  0  0  0  0  0  0  0  0  0  0  0
   -1.8170    2.1030   -2.3300 C   0  0  2  0  0  0  0  0  0  0  0  0
   -0.4340    2.6150   -2.0840 C   0  0  0  0  0  0  0  0  0  0  0  0
   -3.0660    3.0840   -1.4850 S   0  0  0  0  0  0  0  0  0  0  0  0
   -4.4340    2.6510   -2.0370 O   0  0  0  0  0  0  0  0  0  0  0  0
   -3.0380    2.6180    0.2480 C   0  0  2  0  0  0  0  0  0  0  0  0
   -4.3890    2.1880    0.7440 C   0  0  0  0  0  0  0  0  0  0  0  0
   -2.5460    3.7690    1.0510 C   0  0  0  0  0  0  0  0  0  0  0  0
   -2.4990    3.4680    2.4240 O   0  0  0  0  0  0  0  0  0  0  0  0
   -2.1080    1.4140    0.3450 C   0  0  0  0  0  0  0  0  0  0  0  0
    3.0290   -0.1470    0.1870 C   0  0  0  0  0  0  0  0  0  0  0  0
    3.1590   -3.6380    1.3210 O   0  0  0  0  0  0  0  0  0  0  0  0
    4.0280   -4.7360    1.2870 C   0  0  0  0  0  0  0  0  0  0  0  0
    5.4540   -4.3860    1.5410 C   0  0  0  0  0  0  0  0  0  0  0  0
    5.7710   -3.0360    1.4280 O   0  0  0  0  0  0  0  0  0  0  0  0
  1  2  1  0
  2  3  2  0
  2  4  1  0
  4  5  1  0
  5  6  1  0
  6  7  1  0
  7  8  2  0
  7 36  1  0
  8  9  1  0
  9 10  2  0
  9 40  1  0
 10 11  1  0
 10 37  1  0
 11 12  1  0
 11 36  2  0
 12 13  1  0
 13 14  1  0
 14 15  2  0
 14 16  1  0
 16 17  1  0
 25 16  1  1
 17 18  2  0
 17 24  1  0
 18 19  1  0
 19 20  2  0
 20 21  1  0
 20 22  1  0
 22 23  1  0
 22 24  2  0
 25 26  1  0
 25 35  1  0
 26 27  1  0
 27 28  1  1
 29 27  1  6
 29 30  2  0
 29 31  1  0
 31 32  1  1
 31 33  1  0
 31 35  1  0
 33 34  1  0
 37 38  1  0
 38 39  1  0
 39 40  1  0
M  END
