
     RDKit          3D

 40 43  0  0  0  0  0  0  0  0999 V2000
   -6.4800   -3.1270    3.9620 C   0  0  0  0  0  0  0  0  0  0  0  0
   -5.2940   -3.6500    3.3600 O   0  0  0  0  0  0  0  0  0  0  0  0
   -4.7990   -3.0710    2.1940 C   0  0  0  0  0  0  0  0  0  0  0  0
   -5.4470   -2.0100    1.6340 C   0  0  0  0  0  0  0  0  0  0  0  0
   -4.9610   -1.4360    0.4850 C   0  0  0  0  0  0  0  0  0  0  0  0
   -3.8050   -1.9010   -0.1510 C   0  0  0  0  0  0  0  0  0  0  0  0
   -3.4010   -1.2190   -1.3900 C   0  0  0  0  0  0  0  0  0  0  0  0
   -2.6230    0.0390   -1.2160 C   0  0  1  0  0  0  0  0  0  0  0  0
   -3.4210    1.3190   -0.2880 S   0  0  0  0  0  0  0  0  0  0  0  0
   -4.7860    2.0820   -1.1220 C   0  0  0  0  0  0  0  0  0  0  0  0
   -5.0570    1.7590   -2.4230 C   0  0  0  0  0  0  0  0  0  0  0  0
   -6.1430    2.3560   -3.0550 C   0  0  0  0  0  0  0  0  0  0  0  0
   -6.9730    3.2650   -2.4420 C   0  0  0  0  0  0  0  0  0  0  0  0
   -8.1240    3.8830   -3.1450 C   0  0  0  0  0  0  0  0  0  0  0  0
   -8.1480    3.3840   -4.4400 O   0  0  0  0  0  0  0  0  0  0  0  0
   -6.6710    3.5700   -1.1260 C   0  0  0  0  0  0  0  0  0  0  0  0
   -5.6080    2.9960   -0.4820 C   0  0  0  0  0  0  0  0  0  0  0  0
   -1.2030   -0.2170   -0.9350 C   0  0  0  0  0  0  0  0  0  0  0  0
   -0.8590   -1.4110   -0.9740 O   0  0  0  0  0  0  0  0  0  0  0  0
   -0.2010    0.8150   -0.6250 C   0  0  1  0  0  0  0  0  0  0  0  0
   -0.4130    1.5820    0.6390 C   0  0  0  0  0  0  0  0  0  0  0  0
    0.5100    1.1070    1.5910 O   0  0  0  0  0  0  0  0  0  0  0  0
    0.7520   -0.2230    1.1700 C   0  0  2  0  0  0  0  0  0  0  0  0
    1.6840   -0.9790    1.9940 C   0  0  0  0  0  0  0  0  0  0  0  0
    2.9940   -0.5920    2.1340 O   0  0  0  0  0  0  0  0  0  0  0  0
    3.9890   -0.5970    1.1800 C   0  0  0  0  0  0  0  0  0  0  0  0
    3.7510   -1.0110    0.0230 O   0  0  0  0  0  0  0  0  0  0  0  0
    5.3180   -0.1390    1.4620 N   0  0  0  0  0  0  0  0  0  0  0  0
    6.2850   -0.1890    0.3870 C   0  0  1  0  0  0  0  0  0  0  0  0
    6.7890    1.2410    0.2080 C   0  0  0  0  0  0  0  0  0  0  0  0
    8.1190    0.9910   -0.4010 C   0  0  0  0  0  0  0  0  0  0  0  0
    8.7310    1.8520   -1.0960 O   0  0  0  0  0  0  0  0  0  0  0  0
    8.5480   -0.3160   -0.0760 N   0  0  0  0  0  0  0  0  0  0  0  0
    9.7880   -0.9240   -0.5520 C   0  0  0  0  0  0  0  0  0  0  0  0
   10.8820   -0.6070    0.4440 C   0  0  0  0  0  0  0  0  0  0  0  0
   12.0720   -1.1880   -0.0080 O   0  0  0  0  0  0  0  0  0  0  0  0
    7.5500   -0.8990    0.7870 C   0  0  0  0  0  0  0  0  0  0  0  0
    1.1190    0.0730   -0.2630 C   0  0  0  0  0  0  0  0  0  0  0  0
   -3.1760   -2.9600    0.4240 C   0  0  0  0  0  0  0  0  0  0  0  0
   -3.6670   -3.5550    1.6030 C   0  0  0  0  0  0  0  0  0  0  0  0
  1  2  1  0
  2  3  1  0
  3  4  2  0
  3 40  1  0
  4  5  1  0
  5  6  2  0
  6  7  1  0
  6 39  1  0
  8  7  1  1
  8  9  1  0
  8 18  1  0
  9 10  1  0
 10 11  2  0
 10 17  1  0
 11 12  1  0
 12 13  2  0
 13 14  1  0
 13 16  1  0
 14 15  1  0
 16 17  2  0
 18 19  2  0
 20 18  1  1
 20 21  1  0
 20 38  1  0
 21 22  1  0
 22 23  1  0
 23 24  1  1
 23 38  1  0
 24 25  1  0
 25 26  1  0
 26 27  2  0
 26 28  1  0
 29 28  1  1
 29 30  1  0
 29 37  1  0
 30 31  1  0
 31 32  2  0
 31 33  1  0
 33 34  1  0
 33 37  1  0
 34 35  1  0
 35 36  1  0
 39 40  2  0
M  END
