
     RDKit          3D

 40 43  0  0  0  0  0  0  0  0999 V2000
    1.7110    4.0130   -1.8360 C   0  0  0  0  0  0  0  0  0  0  0  0
    2.7940    3.5590   -0.8830 C   0  0  0  0  0  0  0  0  0  0  0  0
    2.4420    2.2710   -0.1880 C   0  0  2  0  0  0  0  0  0  0  0  0
    3.5530    1.8790    0.7380 C   0  0  0  0  0  0  0  0  0  0  0  0
    1.9250    1.2190   -1.0940 C   0  0  0  0  0  0  0  0  0  0  0  0
    1.5920   -0.0400   -0.4610 N   0  0  0  0  0  0  0  0  0  0  0  0
    0.2430   -0.4380   -0.7160 C   0  0  0  0  0  0  0  0  0  0  0  0
   -0.4000   -1.2610    0.3620 C   0  0  1  0  0  0  0  0  0  0  0  0
   -0.3840   -0.5840    1.5960 O   0  0  0  0  0  0  0  0  0  0  0  0
   -1.8450   -1.5130    0.0700 C   0  0  2  0  0  0  0  0  0  0  0  0
   -2.1480   -2.4080   -1.0830 C   0  0  0  0  0  0  0  0  0  0  0  0
   -1.6150   -3.7680   -0.9750 C   0  0  0  0  0  0  0  0  0  0  0  0
   -2.3410   -4.7400   -0.3110 C   0  0  0  0  0  0  0  0  0  0  0  0
   -1.9180   -6.0400   -0.1810 C   0  0  0  0  0  0  0  0  0  0  0  0
   -0.7050   -6.3730   -0.7510 C   0  0  0  0  0  0  0  0  0  0  0  0
    0.0630   -5.4440   -1.4260 C   0  0  0  0  0  0  0  0  0  0  0  0
   -0.4220   -4.1450   -1.5220 C   0  0  0  0  0  0  0  0  0  0  0  0
   -2.6170   -0.2860   -0.0180 N   0  0  0  0  0  0  0  0  0  0  0  0
   -3.6390    0.0760    0.9010 C   0  0  0  0  0  0  0  0  0  0  0  0
   -3.9030   -0.7010    1.8540 O   0  0  0  0  0  0  0  0  0  0  0  0
   -4.3620    1.2500    0.7980 O   0  0  0  0  0  0  0  0  0  0  0  0
   -5.3730    1.6520    1.6710 C   0  0  1  0  0  0  0  0  0  0  0  0
   -5.0140    3.0320    2.1830 C   0  0  0  0  0  0  0  0  0  0  0  0
   -6.2580    3.4940    2.6260 O   0  0  0  0  0  0  0  0  0  0  0  0
   -7.1680    3.1730    1.6380 C   0  0  1  0  0  0  0  0  0  0  0  0
   -7.1400    4.1860    0.6820 O   0  0  0  0  0  0  0  0  0  0  0  0
   -7.3910    3.5740   -0.5460 C   0  0  0  0  0  0  0  0  0  0  0  0
   -6.5040    2.3420   -0.4600 C   0  0  0  0  0  0  0  0  0  0  0  0
   -6.6840    1.9250    0.9650 C   0  0  1  0  0  0  0  0  0  0  0  0
    2.6710   -1.2640   -0.9820 S   0  0  2  0  0  0  0  0  0  0  0  0
    2.5570   -1.3350   -2.4980 O   0  0  0  0  0  0  0  0  0  0  0  0
    2.2160   -2.6180   -0.4830 O   0  0  0  0  0  0  0  0  0  0  0  0
    4.3350   -0.9860   -0.6080 C   0  0  0  0  0  0  0  0  0  0  0  0
    4.9090   -1.3650    0.5850 C   0  0  0  0  0  0  0  0  0  0  0  0
    6.2430   -1.1440    0.8470 C   0  0  0  0  0  0  0  0  0  0  0  0
    7.0840   -0.5340   -0.0600 C   0  0  0  0  0  0  0  0  0  0  0  0
    8.4280   -0.3130    0.2090 O   0  0  0  0  0  0  0  0  0  0  0  0
    8.9350   -0.7300    1.4510 C   0  0  0  0  0  0  0  0  0  0  0  0
    6.5220   -0.1420   -1.2760 C   0  0  0  0  0  0  0  0  0  0  0  0
    5.1880   -0.3670   -1.5290 C   0  0  0  0  0  0  0  0  0  0  0  0
  1  2  1  0
  2  3  1  0
  3  4  1  6
  3  5  1  0
  5  6  1  0
  6  7  1  0
 30  6  1  1
  7  8  1  0
  8  9  1  1
  8 10  1  0
 10 11  1  6
 10 18  1  0
 11 12  1  0
 12 13  2  0
 12 17  1  0
 13 14  1  0
 14 15  2  0
 15 16  1  0
 16 17  2  0
 18 19  1  0
 19 20  2  0
 19 21  1  0
 22 21  1  6
 22 23  1  0
 22 29  1  0
 23 24  1  0
 25 24  1  1
 25 26  1  0
 25 29  1  0
 26 27  1  0
 27 28  1  0
 29 28  1  6
 30 31  2  0
 30 32  2  0
 30 33  1  0
 33 34  2  0
 33 40  1  0
 34 35  1  0
 35 36  2  0
 36 37  1  0
 36 39  1  0
 37 38  1  0
 39 40  2  0
M  END
