
     RDKit          3D

 39 43  0  0  0  0  0  0  0  0999 V2000
    6.6080   -4.6320   -0.2560 C   0  0  0  0  0  0  0  0  0  0  0  0
    6.5300   -3.7390    0.7380 C   0  0  0  0  0  0  0  0  0  0  0  0
    6.6940   -2.2700    0.4520 C   0  0  0  0  0  0  0  0  0  0  0  0
    5.4640   -1.6400    0.8690 N   0  0  0  0  0  0  0  0  0  0  0  0
    5.4310   -0.2240    0.6570 C   0  0  2  0  0  0  0  0  0  0  0  0
    6.4880    0.4500    1.4650 C   0  0  0  0  0  0  0  0  0  0  0  0
    5.9010    1.7270    1.9510 C   0  0  0  0  0  0  0  0  0  0  0  0
    4.4790    1.6720    1.6020 N   0  0  0  0  0  0  0  0  0  0  0  0
    3.5900    2.7690    1.5450 C   0  0  0  0  0  0  0  0  0  0  0  0
    4.0940    3.9210    1.8120 O   0  0  0  0  0  0  0  0  0  0  0  0
    2.1780    2.6600    1.2090 C   0  0  0  0  0  0  0  0  0  0  0  0
    1.3940    3.8210    1.1420 C   0  0  0  0  0  0  0  0  0  0  0  0
    0.0580    3.7310    0.8050 C   0  0  0  0  0  0  0  0  0  0  0  0
   -0.5500    2.5270    0.5260 C   0  0  0  0  0  0  0  0  0  0  0  0
    0.2550    1.3830    0.6010 C   0  0  0  0  0  0  0  0  0  0  0  0
    1.5470    1.5270    0.9330 N   0  0  0  0  0  0  0  0  0  0  0  0
   -0.3260    0.1350    0.3210 N   0  0  0  0  0  0  0  0  0  0  0  0
   -1.5810   -0.0490   -0.0120 C   0  0  0  0  0  0  0  0  0  0  0  0
   -2.0490   -1.4030   -0.2740 C   0  0  0  0  0  0  0  0  0  0  0  0
   -1.1550   -2.4450   -0.0310 C   0  0  0  0  0  0  0  0  0  0  0  0
   -1.5230   -3.7600   -0.1950 C   0  0  0  0  0  0  0  0  0  0  0  0
   -2.7950   -4.0640   -0.6080 C   0  0  0  0  0  0  0  0  0  0  0  0
   -3.1250   -5.3850   -0.7540 F   0  0  0  0  0  0  0  0  0  0  0  0
   -3.6840   -3.0610   -0.8540 C   0  0  0  0  0  0  0  0  0  0  0  0
   -4.9830   -3.3690   -1.2760 O   0  0  0  0  0  0  0  0  0  0  0  0
   -5.2890   -3.4800   -2.6430 C   0  0  0  0  0  0  0  0  0  0  0  0
   -4.4800   -4.5620   -3.3150 C   0  0  0  0  0  0  0  0  0  0  0  0
   -3.3100   -1.7150   -0.6860 C   0  0  0  0  0  0  0  0  0  0  0  0
   -4.2720   -0.7770   -0.9620 O   0  0  0  0  0  0  0  0  0  0  0  0
   -2.3770    1.0710   -0.0880 O   0  0  0  0  0  0  0  0  0  0  0  0
   -1.9550    2.3800    0.1610 C   0  0  0  0  0  0  0  0  0  0  0  0
   -2.7320    3.4370    0.0830 C   0  0  0  0  0  0  0  0  0  0  0  0
   -4.1490    3.4340   -0.2680 C   0  0  0  0  0  0  0  0  0  0  0  0
   -5.1300    2.5930    0.1690 C   0  0  0  0  0  0  0  0  0  0  0  0
   -6.3010    2.9860   -0.4450 C   0  0  0  0  0  0  0  0  0  0  0  0
   -5.9540    4.0570   -1.2270 C   0  0  0  0  0  0  0  0  0  0  0  0
   -6.8770    4.8570   -2.1080 C   0  0  0  0  0  0  0  0  0  0  0  0
   -4.6780    4.2850   -1.0920 O   0  0  0  0  0  0  0  0  0  0  0  0
    4.1450    0.3070    1.3070 C   0  0  0  0  0  0  0  0  0  0  0  0
  1  2  2  0
  2  3  1  0
  3  4  1  0
  5  4  1  1
  5  6  1  0
  5 39  1  0
  6  7  1  0
  7  8  1  0
  8  9  1  0
  8 39  1  0
  9 10  2  0
  9 11  1  0
 11 12  2  0
 11 16  1  0
 12 13  1  0
 13 14  2  0
 14 15  1  0
 14 31  1  0
 15 16  2  0
 15 17  1  0
 17 18  2  0
 18 19  1  0
 18 30  1  0
 19 20  2  0
 19 28  1  0
 20 21  1  0
 21 22  2  0
 22 23  1  0
 22 24  1  0
 24 25  1  0
 24 28  2  0
 25 26  1  0
 26 27  1  0
 28 29  1  0
 30 31  1  0
 31 32  2  3
 32 33  1  0
 33 34  2  0
 33 38  1  0
 34 35  1  0
 35 36  2  0
 36 37  1  0
 36 38  1  0
M  END
