
     RDKit          3D

 41 44  0  0  0  0  0  0  0  0999 V2000
    9.0680    3.9820   -0.1400 C   0  0  0  0  0  0  0  0  0  0  0  0
    9.9550    2.7400   -0.2100 C   0  0  0  0  0  0  0  0  0  0  0  0
    9.7090    2.0710   -1.5290 C   0  0  0  0  0  0  0  0  0  0  0  0
   10.5150    0.8330   -1.7380 C   0  0  1  0  0  0  0  0  0  0  0  0
   11.8730    1.0440   -1.6970 O   0  0  0  0  0  0  0  0  0  0  0  0
   10.1320   -0.2830   -0.7960 C   0  0  0  0  0  0  0  0  0  0  0  0
    8.6720   -0.5750   -1.0660 C   0  0  0  0  0  0  0  0  0  0  0  0
    7.9270   -1.1960   -1.6920 N   0  0  0  0  0  0  0  0  0  0  0  0
    6.6200   -1.2080   -1.6690 C   0  0  0  0  0  0  0  0  0  0  0  0
    6.0300   -0.3600   -0.7730 C   0  0  0  0  0  0  0  0  0  0  0  0
    4.5990   -0.0840   -0.4500 C   0  0  0  0  0  0  0  0  0  0  0  0
    4.1840   -1.0250    0.6230 C   0  0  0  0  0  0  0  0  0  0  0  0
    2.7860   -0.9170    1.0910 C   0  0  2  0  0  0  0  0  0  0  0  0
    1.8160   -1.1680   -0.0730 C   0  0  0  0  0  0  0  0  0  0  0  0
    0.5570   -1.4910    0.5620 N   0  0  0  0  0  0  0  0  0  0  0  0
   -0.2840   -2.4490   -0.0370 C   0  0  0  0  0  0  0  0  0  0  0  0
    0.1070   -3.0210   -1.1130 O   0  0  0  0  0  0  0  0  0  0  0  0
   -1.6080   -2.8710    0.4640 C   0  0  2  0  0  0  0  0  0  0  0  0
   -2.0220   -4.1780   -0.2340 C   0  0  0  0  0  0  0  0  0  0  0  0
   -3.0250   -5.1140    0.9210 S   0  0  0  0  0  0  0  0  0  0  0  0
   -3.6450   -4.0230    2.2300 C   0  0  0  0  0  0  0  0  0  0  0  0
   -4.3280   -2.8430    1.6810 C   0  0  0  0  0  0  0  0  0  0  0  0
   -5.5580   -2.4330    2.0340 N   0  0  0  0  0  0  0  0  0  0  0  0
   -5.8750   -1.3300    1.3440 C   0  0  0  0  0  0  0  0  0  0  0  0
   -7.1410   -0.5700    1.4420 C   0  0  0  0  0  0  0  0  0  0  0  0
   -8.1820   -1.0470    2.3810 C   0  0  0  0  0  0  0  0  0  0  0  0
   -7.3620    0.5000    0.7270 C   0  0  0  0  0  0  0  0  0  0  0  0
   -8.5530    1.1940    0.8350 O   0  0  0  0  0  0  0  0  0  0  0  0
   -8.6610    2.6030    0.6740 C   0  0  0  0  0  0  0  0  0  0  0  0
   -8.2170    3.0510   -0.6730 C   0  0  2  0  0  0  0  0  0  0  0  0
   -8.3400    4.4100   -0.9140 O   0  0  0  0  0  0  0  0  0  0  0  0
   -8.6640    2.2590   -1.8430 C   0  0  0  0  0  0  0  0  0  0  0  0
   -9.9070    2.4390   -2.3290 O   0  0  0  0  0  0  0  0  0  0  0  0
  -11.0110    2.2080   -1.5740 C   0  0  0  0  0  0  0  0  0  0  0  0
   -4.8450   -1.0680    0.5750 O   0  0  0  0  0  0  0  0  0  0  0  0
   -3.8900   -1.9360    0.7300 C   0  0  0  0  0  0  0  0  0  0  0  0
   -2.6250   -1.8510   -0.0290 C   0  0  0  0  0  0  0  0  0  0  0  0
    0.2540   -0.8140    1.7930 C   0  0  0  0  0  0  0  0  0  0  0  0
    1.0880    0.4620    1.8370 C   0  0  0  0  0  0  0  0  0  0  0  0
    2.4330    0.2580    1.6940 O   0  0  0  0  0  0  0  0  0  0  0  0
    7.4260    0.4050   -0.0150 S   0  0  0  0  0  0  0  0  0  0  0  0
  1  2  1  0
  2  3  1  0
  3  4  1  0
  4  5  1  1
  4  6  1  0
  6  7  1  0
  7  8  2  0
  7 41  1  0
  8  9  1  0
  9 10  2  0
 10 11  1  0
 10 41  1  0
 11 12  1  0
 13 12  1  6
 13 14  1  0
 13 40  1  0
 14 15  1  0
 15 16  1  0
 15 38  1  0
 16 17  2  0
 18 16  1  6
 18 19  1  0
 18 37  1  0
 19 20  1  0
 20 21  1  0
 21 22  1  0
 22 23  1  0
 22 36  2  0
 23 24  2  0
 24 25  1  0
 24 35  1  0
 25 26  1  0
 25 27  2  3
 27 28  1  0
 28 29  1  0
 29 30  1  0
 30 31  1  6
 30 32  1  0
 32 33  1  0
 33 34  1  0
 35 36  1  0
 36 37  1  0
 38 39  1  0
 39 40  1  0
M  END
