
     RDKit          3D

 41 44  0  0  0  0  0  0  0  0999 V2000
    5.0940   -0.0730    4.8190 C   0  0  0  0  0  0  0  0  0  0  0  0
    5.0120    0.7420    3.6240 O   0  0  0  0  0  0  0  0  0  0  0  0
    4.3440    0.2520    2.5270 C   0  0  0  0  0  0  0  0  0  0  0  0
    3.8130   -0.9170    2.6360 O   0  0  0  0  0  0  0  0  0  0  0  0
    4.1730    0.9410    1.2150 C   0  0  0  0  0  0  0  0  0  0  0  0
    3.6370   -0.0910    0.2610 N   0  0  0  0  0  0  0  0  0  0  0  0
    2.2430   -0.2150    0.2220 C   0  0  0  0  0  0  0  0  0  0  0  0
    1.7340   -1.1430   -0.4470 O   0  0  0  0  0  0  0  0  0  0  0  0
    1.3770    0.7620    0.9680 C   0  0  0  0  0  0  0  0  0  0  0  0
    0.0570    0.3580    0.9810 O   0  0  0  0  0  0  0  0  0  0  0  0
   -0.7470    0.0640   -0.0640 C   0  0  0  0  0  0  0  0  0  0  0  0
   -0.3010    0.1400   -1.2370 O   0  0  0  0  0  0  0  0  0  0  0  0
   -2.1140   -0.3470    0.0980 N   0  0  0  0  0  0  0  0  0  0  0  0
   -2.7770   -0.3480    1.3730 C   0  0  0  0  0  0  0  0  0  0  0  0
   -3.9690    0.5520    1.2680 C   0  0  0  0  0  0  0  0  0  0  0  0
   -4.3790    0.8290   -0.1740 C   0  0  2  0  0  0  0  0  0  0  0  0
   -5.5340    1.6320   -0.1350 N   0  0  0  0  0  0  0  0  0  0  0  0
   -6.8470    1.4430    0.2450 C   0  0  0  0  0  0  0  0  0  0  0  0
   -7.3130    0.2090    0.6360 C   0  0  0  0  0  0  0  0  0  0  0  0
   -8.6470   -0.0030    0.9870 C   0  0  0  0  0  0  0  0  0  0  0  0
   -9.1150   -1.2290    1.3790 O   0  0  0  0  0  0  0  0  0  0  0  0
   -9.5360    1.0480    0.9440 C   0  0  0  0  0  0  0  0  0  0  0  0
   -9.1140    2.2750    0.5640 C   0  0  0  0  0  0  0  0  0  0  0  0
   -7.7740    2.4570    0.2190 C   0  0  0  0  0  0  0  0  0  0  0  0
   -7.4350    3.7270   -0.1490 O   0  0  0  0  0  0  0  0  0  0  0  0
   -4.3460   -0.4500   -0.9030 C   0  0  1  0  0  0  0  0  0  0  0  0
   -4.8260   -0.5050   -2.2970 C   0  0  0  0  0  0  0  0  0  0  0  0
   -4.7040   -1.9610   -2.7530 C   0  0  0  0  0  0  0  0  0  0  0  0
   -5.7210   -3.0180   -1.6550 S   0  0  0  0  0  0  0  0  0  0  0  0
   -2.8420   -0.8120   -1.0300 C   0  0  0  0  0  0  0  0  0  0  0  0
    4.6300   -0.8470   -0.4240 C   0  0  1  0  0  0  0  0  0  0  0  0
    5.8440   -0.0060   -0.5810 C   0  0  0  0  0  0  0  0  0  0  0  0
    7.1230   -0.0730   -0.2330 C   0  0  0  0  0  0  0  0  0  0  0  0
    7.9760    0.9070   -0.5740 C   0  0  0  0  0  0  0  0  0  0  0  0
    7.4950    1.9710   -1.2850 C   0  0  0  0  0  0  0  0  0  0  0  0
    8.1430    3.2150   -1.8160 C   0  0  0  0  0  0  0  0  0  0  0  0
    5.7520    1.5390   -1.4690 S   0  0  0  0  0  0  0  0  0  0  0  0
    4.9480   -2.1650    0.1630 C   0  0  0  0  0  0  0  0  0  0  0  0
    5.5760   -2.9890   -0.9410 C   0  0  0  0  0  0  0  0  0  0  0  0
    5.3880   -2.1660   -2.2040 C   0  0  0  0  0  0  0  0  0  0  0  0
    4.2070   -1.2290   -1.8600 C   0  0  0  0  0  0  0  0  0  0  0  0
  1  2  1  0
  2  3  1  0
  3  4  2  0
  3  5  1  0
  5  6  1  0
  6  7  1  0
 31  6  1  1
  7  8  2  0
  7  9  1  0
  9 10  1  0
 10 11  1  0
 11 12  2  0
 11 13  1  0
 13 14  1  0
 13 30  1  0
 14 15  1  0
 15 16  1  0
 16 17  1  1
 16 26  1  0
 17 18  1  0
 18 19  2  0
 18 24  1  0
 19 20  1  0
 20 21  1  0
 20 22  2  0
 22 23  1  0
 23 24  2  0
 24 25  1  0
 26 27  1  6
 26 30  1  0
 27 28  1  0
 28 29  1  0
 31 32  1  0
 31 38  1  0
 31 41  1  0
 32 33  2  0
 32 37  1  0
 33 34  1  0
 34 35  2  0
 35 36  1  0
 35 37  1  0
 38 39  1  0
 39 40  1  0
 40 41  1  0
M  END
