
     RDKit          3D

 41 45  0  0  0  0  0  0  0  0999 V2000
   -3.7910    0.3920   -3.5930 C   0  0  0  0  0  0  0  0  0  0  0  0
   -3.8770   -0.0330   -2.1340 C   0  0  0  0  0  0  0  0  0  0  0  0
   -3.1340   -1.3280   -1.9750 C   0  0  2  0  0  0  0  0  0  0  0  0
   -3.8010   -2.3510   -2.8890 C   0  0  0  0  0  0  0  0  0  0  0  0
   -3.0150   -1.8380   -0.5810 C   0  0  0  0  0  0  0  0  0  0  0  0
   -2.3490   -0.9770    0.3540 N   0  0  0  0  0  0  0  0  0  0  0  0
   -1.0410   -1.4520    0.6430 C   0  0  0  0  0  0  0  0  0  0  0  0
    0.0850   -0.5000    0.4860 C   0  0  1  0  0  0  0  0  0  0  0  0
   -0.0350    0.5720    1.3240 O   0  0  0  0  0  0  0  0  0  0  0  0
    1.4020   -1.1990    0.6750 C   0  0  2  0  0  0  0  0  0  0  0  0
    1.5400   -1.7560    2.0410 C   0  0  0  0  0  0  0  0  0  0  0  0
    1.5140   -0.8950    3.1860 C   0  0  0  0  0  0  0  0  0  0  0  0
    0.3870   -0.6670    3.9310 C   0  0  0  0  0  0  0  0  0  0  0  0
    0.3980    0.1940    5.0310 C   0  0  0  0  0  0  0  0  0  0  0  0
    1.5560    0.8390    5.3950 C   0  0  0  0  0  0  0  0  0  0  0  0
    2.6910    0.6290    4.6690 C   0  0  0  0  0  0  0  0  0  0  0  0
    2.6510   -0.2240    3.5910 C   0  0  0  0  0  0  0  0  0  0  0  0
    2.4980   -0.3000    0.3350 N   0  0  0  0  0  0  0  0  0  0  0  0
    3.3840   -0.5430   -0.7330 C   0  0  0  0  0  0  0  0  0  0  0  0
    3.2020   -1.5860   -1.4090 O   0  0  0  0  0  0  0  0  0  0  0  0
    4.4400    0.2840   -1.0910 O   0  0  0  0  0  0  0  0  0  0  0  0
    5.2970   -0.0080   -2.1690 C   0  0  1  0  0  0  0  0  0  0  0  0
    5.5520    1.1310   -3.0970 C   0  0  0  0  0  0  0  0  0  0  0  0
    6.8540    1.0180   -3.5550 O   0  0  0  0  0  0  0  0  0  0  0  0
    7.5670    0.2160   -2.7120 C   0  0  1  0  0  0  0  0  0  0  0  0
    8.6460    0.8650   -2.1120 O   0  0  0  0  0  0  0  0  0  0  0  0
    8.0940    1.6760   -1.1190 C   0  0  0  0  0  0  0  0  0  0  0  0
    6.9530    0.8490   -0.5270 C   0  0  0  0  0  0  0  0  0  0  0  0
    6.6970   -0.2000   -1.5670 C   0  0  1  0  0  0  0  0  0  0  0  0
   -3.2760   -0.3420    1.5990 S   0  0  2  0  0  0  0  0  0  0  0  0
   -2.3340    0.4770    2.4920 O   0  0  0  0  0  0  0  0  0  0  0  0
   -3.8790   -1.3970    2.5040 O   0  0  0  0  0  0  0  0  0  0  0  0
   -4.5930    0.6520    1.0710 C   0  0  0  0  0  0  0  0  0  0  0  0
   -4.5410    1.9960    0.8160 C   0  0  0  0  0  0  0  0  0  0  0  0
   -5.5820    2.7830    0.4090 C   0  0  0  0  0  0  0  0  0  0  0  0
   -6.8390    2.1640    0.2310 C   0  0  0  0  0  0  0  0  0  0  0  0
   -7.9810    2.7080   -0.1520 N   0  0  0  0  0  0  0  0  0  0  0  0
   -9.0130    2.2420   -0.3070 C   0  0  0  0  0  0  0  0  0  0  0  0
   -8.6280    0.4370    0.1450 S   0  0  0  0  0  0  0  0  0  0  0  0
   -6.9180    0.8080    0.4830 C   0  0  0  0  0  0  0  0  0  0  0  0
   -5.8370    0.0340    0.8960 C   0  0  0  0  0  0  0  0  0  0  0  0
  1  2  1  0
  2  3  1  0
  3  4  1  6
  3  5  1  0
  5  6  1  0
  6  7  1  0
 30  6  1  6
  7  8  1  0
  8  9  1  1
  8 10  1  0
 10 11  1  1
 10 18  1  0
 11 12  1  0
 12 13  2  0
 12 17  1  0
 13 14  1  0
 14 15  2  0
 15 16  1  0
 16 17  2  0
 18 19  1  0
 19 20  2  0
 19 21  1  0
 22 21  1  1
 22 23  1  0
 22 29  1  0
 23 24  1  0
 25 24  1  6
 25 26  1  0
 25 29  1  0
 26 27  1  0
 27 28  1  0
 29 28  1  1
 30 31  2  0
 30 32  2  0
 30 33  1  0
 33 34  2  0
 33 41  1  0
 34 35  1  0
 35 36  2  0
 36 37  1  0
 36 40  1  0
 37 38  2  0
 38 39  1  0
 39 40  1  0
 40 41  2  0
M  END
