
     RDKit          3D

 41 44  0  0  0  0  0  0  0  0999 V2000
    2.7410    2.6260    1.6090 C   0  0  0  0  0  0  0  0  0  0  0  0
    2.4910    1.3680    0.9510 O   0  0  0  0  0  0  0  0  0  0  0  0
    1.1440    1.0030    0.6830 C   0  0  0  0  0  0  0  0  0  0  0  0
    0.1200    1.7930    1.0030 C   0  0  0  0  0  0  0  0  0  0  0  0
   -1.2100    1.3950    0.7090 C   0  0  0  0  0  0  0  0  0  0  0  0
   -1.3900    0.1790    0.0870 C   0  0  0  0  0  0  0  0  0  0  0  0
   -2.7040   -0.2040   -0.3550 N   0  0  0  0  0  0  0  0  0  0  0  0
   -3.6740    0.7400   -0.6520 C   0  0  0  0  0  0  0  0  0  0  0  0
   -3.2860    1.9850   -0.5010 O   0  0  0  0  0  0  0  0  0  0  0  0
   -5.0300    0.6040   -1.0860 C   0  0  0  0  0  0  0  0  0  0  0  0
   -5.5320   -0.4560   -1.5000 O   0  0  0  0  0  0  0  0  0  0  0  0
   -5.9380    1.7810   -1.0490 N   0  0  0  0  0  0  0  0  0  0  0  0
   -5.4920    3.0510   -0.6220 C   0  0  0  0  0  0  0  0  0  0  0  0
   -7.0140    4.0660   -0.6410 S   0  0  0  0  0  0  0  0  0  0  0  0
   -8.1800    2.7040   -0.8680 C   0  0  0  0  0  0  0  0  0  0  0  0
   -7.3250    1.6130   -1.4080 C   0  0  2  0  0  0  0  0  0  0  0  0
   -7.7220    0.2930   -0.7970 C   0  0  0  0  0  0  0  0  0  0  0  0
   -8.0440   -0.6700   -1.4800 O   0  0  0  0  0  0  0  0  0  0  0  0
   -7.6910    0.2280    0.6200 O   0  0  0  0  0  0  0  0  0  0  0  0
   -7.9930   -0.9690    1.2580 C   0  0  0  0  0  0  0  0  0  0  0  0
   -6.7420   -1.8470    1.1610 C   0  0  2  0  0  0  0  0  0  0  0  0
   -7.0560   -3.1430    1.8690 C   0  0  0  0  0  0  0  0  0  0  0  0
   -5.6930   -1.0500    1.9400 C   0  0  0  0  0  0  0  0  0  0  0  0
   -0.3640   -0.5790   -0.2140 C   0  0  0  0  0  0  0  0  0  0  0  0
    1.0000   -0.2550    0.0500 C   0  0  0  0  0  0  0  0  0  0  0  0
    1.9780   -1.0230   -0.2510 O   0  0  0  0  0  0  0  0  0  0  0  0
    2.4530   -2.1570   -0.7400 C   0  0  0  0  0  0  0  0  0  0  0  0
    3.9540   -2.1240   -0.7250 C   0  0  0  0  0  0  0  0  0  0  0  0
    4.8780   -1.7010    0.0420 C   0  0  0  0  0  0  0  0  0  0  0  0
    6.1910   -1.7680   -0.2140 C   0  0  0  0  0  0  0  0  0  0  0  0
    6.5090   -2.3630   -1.4540 C   0  0  0  0  0  0  0  0  0  0  0  0
    4.9460   -2.7740   -2.1260 S   0  0  0  0  0  0  0  0  0  0  0  0
    7.8880   -2.5000   -1.9830 C   0  0  0  0  0  0  0  0  0  0  0  0
    8.5660   -1.2060   -1.7540 C   0  0  0  0  0  0  0  0  0  0  0  0
    8.1170   -0.3620   -0.5980 C   0  0  1  0  0  0  0  0  0  0  0  0
    6.9900    0.5270   -1.1250 C   0  0  2  0  0  0  0  0  0  0  0  0
    7.5520    1.2340   -2.2450 O   0  0  0  0  0  0  0  0  0  0  0  0
    6.6520    1.6590   -0.1430 C   0  0  0  0  0  0  0  0  0  0  0  0
    7.7940    2.5360   -0.0030 C   0  0  0  0  0  0  0  0  0  0  0  0
    8.7700    3.2890    0.1380 N   0  0  0  0  0  0  0  0  0  0  0  0
    7.4720   -1.2850    0.4690 C   0  0  0  0  0  0  0  0  0  0  0  0
  1  2  1  0
  2  3  1  0
  3  4  2  0
  3 25  1  0
  4  5  1  0
  5  6  2  0
  6  7  1  0
  6 24  1  0
  7  8  1  0
  8  9  2  0
  8 10  1  0
 10 11  2  0
 10 12  1  0
 12 13  1  0
 12 16  1  0
 13 14  1  0
 14 15  1  0
 15 16  1  0
 16 17  1  1
 17 18  2  0
 17 19  1  0
 19 20  1  0
 20 21  1  0
 21 22  1  1
 21 23  1  0
 24 25  2  0
 25 26  1  0
 26 27  1  0
 27 28  1  0
 28 29  2  0
 28 32  1  0
 29 30  1  0
 30 31  2  0
 30 41  1  0
 31 32  1  0
 31 33  1  0
 33 34  1  0
 35 34  1  6
 35 36  1  0
 35 41  1  0
 36 37  1  6
 36 38  1  0
 38 39  1  0
 39 40  3  0
M  END
