
     RDKit          3D

 41 44  0  0  0  0  0  0  0  0999 V2000
   10.6070    2.0890   -0.6910 C   0  0  0  0  0  0  0  0  0  0  0  0
    9.7210    1.4690   -1.4500 C   0  0  0  0  0  0  0  0  0  0  0  0
    8.6510    2.2260   -2.1030 C   0  0  0  0  0  0  0  0  0  0  0  0
    7.3630    1.7980   -1.7080 O   0  0  0  0  0  0  0  0  0  0  0  0
    6.9090    1.8280   -0.4180 C   0  0  0  0  0  0  0  0  0  0  0  0
    7.6360    2.2480    0.4880 O   0  0  0  0  0  0  0  0  0  0  0  0
    5.5580    1.3690   -0.0560 C   0  0  0  0  0  0  0  0  0  0  0  0
    4.9670    1.3450    1.2150 C   0  0  0  0  0  0  0  0  0  0  0  0
    3.7130    0.8720    1.2710 C   0  0  0  0  0  0  0  0  0  0  0  0
    3.0870    0.4560    0.1740 C   0  0  0  0  0  0  0  0  0  0  0  0
    1.7320   -0.1060   -0.0610 C   0  0  2  0  0  0  0  0  0  0  0  0
    1.4040   -1.0970    0.9040 N   0  0  0  0  0  0  0  0  0  0  0  0
    0.4230   -0.7960    1.9180 C   0  0  0  0  0  0  0  0  0  0  0  0
   -0.0920    0.3360    1.8950 O   0  0  0  0  0  0  0  0  0  0  0  0
    0.1180   -1.8530    2.8920 C   0  0  0  0  0  0  0  0  0  0  0  0
   -0.9820   -1.4770    3.8050 C   0  0  2  0  0  0  0  0  0  0  0  0
   -1.0710   -2.6040    4.7240 O   0  0  0  0  0  0  0  0  0  0  0  0
   -1.5760   -3.6400    3.9520 C   0  0  0  0  0  0  0  0  0  0  0  0
   -2.4750   -3.0180    2.9180 C   0  0  0  0  0  0  0  0  0  0  0  0
   -2.3780   -1.5410    3.3130 C   0  0  2  0  0  0  0  0  0  0  0  0
   -2.8700   -0.6580    2.2950 C   0  0  0  0  0  0  0  0  0  0  0  0
   -3.5830    0.3420    2.6830 O   0  0  0  0  0  0  0  0  0  0  0  0
   -2.6950   -0.7130    0.8930 N   0  0  0  0  0  0  0  0  0  0  0  0
   -3.2580    0.2450   -0.0030 C   0  0  0  0  0  0  0  0  0  0  0  0
   -2.3690    0.9340   -0.7060 C   0  0  0  0  0  0  0  0  0  0  0  0
   -2.9440    1.9150   -1.6190 C   0  0  0  0  0  0  0  0  0  0  0  0
   -2.3790    2.1540   -2.7000 O   0  0  0  0  0  0  0  0  0  0  0  0
   -4.1960    2.5440   -1.1280 C   0  0  0  0  0  0  0  0  0  0  0  0
   -5.4990    1.4730   -1.2090 S   0  0  0  0  0  0  0  0  0  0  0  0
   -6.2120    2.1740   -1.9760 O   0  0  0  0  0  0  0  0  0  0  0  0
   -5.4390    0.1380   -2.2810 C   0  0  0  0  0  0  0  0  0  0  0  0
   -6.0320    0.3440   -3.6900 C   0  0  0  0  0  0  0  0  0  0  0  0
   -6.6290    1.4870    0.0840 C   0  0  0  0  0  0  0  0  0  0  0  0
   -6.7660    0.1750    0.6910 C   0  0  0  0  0  0  0  0  0  0  0  0
   -5.6270   -0.4290    0.5540 C   0  0  0  0  0  0  0  0  0  0  0  0
   -4.6530    0.3780   -0.1300 N   0  0  0  0  0  0  0  0  0  0  0  0
    1.7080   -0.6870   -1.4570 C   0  0  2  0  0  0  0  0  0  0  0  0
    2.7540   -1.7750   -1.6180 C   0  0  0  0  0  0  0  0  0  0  0  0
    1.9560    0.4500   -2.4510 C   0  0  0  0  0  0  0  0  0  0  0  0
    0.3510   -1.2950   -1.7330 C   0  0  0  0  0  0  0  0  0  0  0  0
    4.3240    0.7310   -1.0890 S   0  0  0  0  0  0  0  0  0  0  0  0
  1  2  2  0
  2  3  1  0
  3  4  1  0
  4  5  1  0
  5  6  2  0
  5  7  1  0
  7  8  2  0
  7 41  1  0
  8  9  1  0
  9 10  2  0
 10 11  1  0
 10 41  1  0
 11 12  1  1
 11 37  1  0
 12 13  1  0
 13 14  2  0
 13 15  1  0
 16 15  1  6
 16 17  1  0
 16 20  1  0
 17 18  1  0
 18 19  1  0
 19 20  1  0
 20 21  1  6
 21 22  2  0
 21 23  1  0
 23 24  1  0
 24 25  2  0
 24 36  1  0
 25 26  1  0
 26 27  2  0
 26 28  1  0
 28 29  1  0
 29 30  2  0
 29 31  1  0
 29 33  1  0
 29 36  1  0
 31 32  1  0
 33 34  1  0
 34 35  2  0
 35 36  1  0
 37 38  1  1
 37 39  1  0
 37 40  1  0
M  END
