
     RDKit          3D

 40 42  0  0  0  0  0  0  0  0999 V2000
    7.8270    1.5680    1.4100 C   0  0  0  0  0  0  0  0  0  0  0  0
    6.6520    1.7610    0.4730 C   0  0  2  0  0  0  0  0  0  0  0  0
    5.7400    2.6620    0.9240 O   0  0  0  0  0  0  0  0  0  0  0  0
    5.5000    3.7740    0.1800 C   0  0  0  0  0  0  0  0  0  0  0  0
    4.9610    3.3870   -1.1760 C   0  0  0  0  0  0  0  0  0  0  0  0
    4.6950    4.5730   -1.9920 N   0  0  0  0  0  0  0  0  0  0  0  0
    6.0510    0.3900    0.2870 C   0  0  0  0  0  0  0  0  0  0  0  0
    6.8140   -0.4880   -0.1130 O   0  0  0  0  0  0  0  0  0  0  0  0
    4.6910    0.1300    0.5590 N   0  0  0  0  0  0  0  0  0  0  0  0
    4.0210   -1.1140    0.4300 C   0  0  0  0  0  0  0  0  0  0  0  0
    4.7200   -2.2960    0.2470 C   0  0  0  0  0  0  0  0  0  0  0  0
    4.0710   -3.5350    0.1720 C   0  0  0  0  0  0  0  0  0  0  0  0
    2.7080   -3.6370    0.2780 C   0  0  0  0  0  0  0  0  0  0  0  0
    1.9160   -5.1990    0.1800 S   0  0  2  0  0  0  0  0  0  0  0  0
    1.8220   -5.8880    1.8100 C   0  0  0  0  0  0  0  0  0  0  0  0
    2.7430   -6.1610   -0.6550 O   0  0  0  0  0  0  0  0  0  0  0  0
    0.5560   -5.0950   -0.4130 O   0  0  0  0  0  0  0  0  0  0  0  0
    2.0080   -2.4810    0.4580 C   0  0  0  0  0  0  0  0  0  0  0  0
    2.6550   -1.2210    0.5340 C   0  0  0  0  0  0  0  0  0  0  0  0
    1.8020   -0.0810    0.6860 C   0  0  0  0  0  0  0  0  0  0  0  0
    2.1670    1.0980    0.7280 O   0  0  0  0  0  0  0  0  0  0  0  0
    0.3580   -0.2330    0.8110 N   0  0  0  0  0  0  0  0  0  0  0  0
   -0.3710   -0.5350   -0.1770 C   0  0  0  0  0  0  0  0  0  0  0  0
    0.2060   -0.7390   -1.4520 N   0  0  0  0  0  0  0  0  0  0  0  0
   -1.8100   -0.6750   -0.0370 C   0  0  0  0  0  0  0  0  0  0  0  0
   -2.4450   -0.4680    1.1920 C   0  0  0  0  0  0  0  0  0  0  0  0
   -3.8130   -0.6060    1.2710 C   0  0  0  0  0  0  0  0  0  0  0  0
   -4.6200   -0.9380    0.2110 C   0  0  0  0  0  0  0  0  0  0  0  0
   -6.0790   -1.0740    0.3110 C   0  0  0  0  0  0  0  0  0  0  0  0
   -6.8090   -0.4100   -0.8380 C   0  0  0  0  0  0  0  0  0  0  0  0
   -7.0210   -1.1880   -1.9230 C   0  0  0  0  0  0  0  0  0  0  0  0
   -7.8810   -0.1710   -3.0960 S   0  0  0  0  0  0  0  0  0  0  0  0
   -8.5800    0.9590   -1.8450 C   0  0  0  0  0  0  0  0  0  0  0  0
   -7.3600    0.8970   -0.8760 C   0  0  0  0  0  0  0  0  0  0  0  0
   -7.0960    2.0190   -0.2670 C   0  0  0  0  0  0  0  0  0  0  0  0
   -6.0840    2.3080    0.7170 C   0  0  0  0  0  0  0  0  0  0  0  0
   -6.7250    2.7870    1.9720 N   0  0  0  0  0  0  0  0  0  0  0  0
   -3.9640   -1.1310   -0.9670 N   0  0  0  0  0  0  0  0  0  0  0  0
   -2.6390   -1.0060   -1.0840 C   0  0  0  0  0  0  0  0  0  0  0  0
   -2.0740   -1.1990   -2.2150 O   0  0  0  0  0  0  0  0  0  0  0  0
  2  1  1  1
  2  3  1  0
  2  7  1  0
  3  4  1  0
  4  5  1  0
  5  6  1  0
  7  8  2  0
  7  9  1  0
  9 10  1  0
 10 11  2  0
 10 19  1  0
 11 12  1  0
 12 13  2  0
 13 14  1  0
 13 18  1  0
 14 15  1  1
 14 16  2  0
 14 17  2  0
 18 19  2  0
 19 20  1  0
 20 21  2  0
 20 22  1  0
 22 23  2  3
 23 24  1  0
 23 25  1  0
 25 26  2  0
 25 39  1  0
 26 27  1  0
 27 28  2  0
 28 29  1  0
 28 38  1  0
 29 30  1  0
 30 31  2  0
 30 34  1  0
 31 32  1  0
 32 33  1  0
 33 34  1  0
 34 35  2  3
 35 36  1  0
 36 37  1  0
 38 39  1  0
 39 40  2  0
M  CHG  2   6   1  37   1
M  END
