
     RDKit          3D

 40 43  0  0  0  0  0  0  0  0999 V2000
   -6.8490   -2.5690   -3.3110 C   0  0  0  0  0  0  0  0  0  0  0  0
   -7.4070   -2.0090   -2.2490 C   0  0  0  0  0  0  0  0  0  0  0  0
   -8.5910   -2.4790   -1.7490 O   0  0  0  0  0  0  0  0  0  0  0  0
   -6.6770   -0.8490   -1.6490 C   0  0  0  0  0  0  0  0  0  0  0  0
   -5.9170   -0.0350   -2.4260 C   0  0  0  0  0  0  0  0  0  0  0  0
   -5.2660    0.9940   -1.8620 C   0  0  0  0  0  0  0  0  0  0  0  0
   -4.3940    2.0480   -2.4070 C   0  0  1  0  0  0  0  0  0  0  0  0
   -4.7360    3.3610   -1.7700 C   0  0  0  0  0  0  0  0  0  0  0  0
   -6.1080    3.7500   -2.0180 N   0  0  0  0  0  0  0  0  0  0  0  0
   -2.9540    1.6840   -2.3170 C   0  0  0  0  0  0  0  0  0  0  0  0
   -2.2640    1.6630   -3.3730 O   0  0  0  0  0  0  0  0  0  0  0  0
   -2.3150    1.3580   -1.1060 N   0  0  0  0  0  0  0  0  0  0  0  0
   -0.9670    1.0080   -0.9200 C   0  0  0  0  0  0  0  0  0  0  0  0
    0.0610    1.1560   -1.8180 C   0  0  0  0  0  0  0  0  0  0  0  0
    1.3560    0.7770   -1.5960 C   0  0  0  0  0  0  0  0  0  0  0  0
    1.7190    0.1810   -0.3660 C   0  0  0  0  0  0  0  0  0  0  0  0
    2.9260   -0.2210   -0.0450 N   0  0  0  0  0  0  0  0  0  0  0  0
    3.1540   -0.7690    1.1420 C   0  0  0  0  0  0  0  0  0  0  0  0
    4.2030   -1.2450    1.7130 N   0  0  0  0  0  0  0  0  0  0  0  0
    5.4150   -1.2210    0.9890 C   0  0  0  0  0  0  0  0  0  0  0  0
    5.6380   -2.1170    0.1470 O   0  0  0  0  0  0  0  0  0  0  0  0
    6.3670   -0.1540    1.2440 C   0  0  0  0  0  0  0  0  0  0  0  0
    6.1470    0.7350    2.1010 O   0  0  0  0  0  0  0  0  0  0  0  0
    7.6040   -0.0900    0.5070 N   0  0  0  0  0  0  0  0  0  0  0  0
    8.5630    0.9410    0.7260 C   0  0  0  0  0  0  0  0  0  0  0  0
    9.1670    1.0010    2.1030 C   0  0  2  0  0  0  0  0  0  0  0  0
   10.0020    2.1680    2.0590 O   0  0  0  0  0  0  0  0  0  0  0  0
   10.0690   -0.1710    2.4110 C   0  0  0  0  0  0  0  0  0  0  0  0
    9.3970   -1.4170    2.5220 N   0  0  0  0  0  0  0  0  0  0  0  0
    9.6310   -2.3030    1.3750 C   0  0  0  0  0  0  0  0  0  0  0  0
    1.4910   -0.7160    1.9020 S   0  0  0  0  0  0  0  0  0  0  0  0
    0.7100    0.0360    0.5190 C   0  0  0  0  0  0  0  0  0  0  0  0
   -0.5990    0.4210    0.2920 C   0  0  0  0  0  0  0  0  0  0  0  0
   -5.7090    0.8510   -0.1770 S   0  0  0  0  0  0  0  0  0  0  0  0
   -6.7490   -0.5930   -0.3370 C   0  0  0  0  0  0  0  0  0  0  0  0
   -7.3810   -1.1970    0.8380 C   0  0  0  0  0  0  0  0  0  0  0  0
   -7.3480   -0.6390    2.0810 C   0  0  0  0  0  0  0  0  0  0  0  0
   -8.0840   -1.5160    3.0200 C   0  0  0  0  0  0  0  0  0  0  0  0
   -8.0740   -2.7670    2.4030 O   0  0  0  0  0  0  0  0  0  0  0  0
   -8.1210   -2.4390    1.0090 C   0  0  0  0  0  0  0  0  0  0  0  0
  1  2  2  0
  2  3  1  0
  2  4  1  0
  4  5  1  0
  4 35  2  0
  5  6  2  0
  6  7  1  0
  6 34  1  0
  7  8  1  1
  7 10  1  0
  8  9  1  0
 10 11  2  0
 10 12  1  0
 12 13  1  0
 13 14  2  0
 13 33  1  0
 14 15  1  0
 15 16  2  0
 16 17  1  0
 16 32  1  0
 17 18  1  0
 18 19  2  3
 18 31  1  0
 19 20  1  0
 20 21  2  0
 20 22  1  0
 22 23  2  0
 22 24  1  0
 24 25  1  0
 25 26  1  0
 26 27  1  6
 26 28  1  0
 28 29  1  0
 29 30  1  0
 31 32  1  0
 32 33  2  0
 34 35  1  0
 35 36  1  0
 36 37  2  0
 36 40  1  0
 37 38  1  0
 38 39  1  0
 39 40  1  0
M  CHG  2   9   1  29   1
M  END
