
     RDKit          3D

 40 42  0  0  0  0  0  0  0  0999 V2000
   -7.7450   -2.8920    0.4680 C   0  0  0  0  0  0  0  0  0  0  0  0
   -6.5950   -2.0740    0.2750 O   0  0  0  0  0  0  0  0  0  0  0  0
   -5.3850   -2.6820    0.0400 C   0  0  0  0  0  0  0  0  0  0  0  0
   -5.2810   -3.9290   -0.0040 O   0  0  0  0  0  0  0  0  0  0  0  0
   -4.2060   -1.8240   -0.1580 C   0  0  0  0  0  0  0  0  0  0  0  0
   -2.9740   -2.3830   -0.3950 C   0  0  0  0  0  0  0  0  0  0  0  0
   -2.8650   -4.1840   -0.4550 S   0  0  0  0  0  0  0  0  0  0  0  0
   -3.1530   -4.6650   -2.1830 C   0  0  0  0  0  0  0  0  0  0  0  0
   -3.0740   -6.1390   -2.2620 C   0  0  0  0  0  0  0  0  0  0  0  0
   -4.2810   -6.9940   -2.0760 C   0  0  0  0  0  0  0  0  0  0  0  0
   -1.9790   -6.6310   -2.4870 O   0  0  0  0  0  0  0  0  0  0  0  0
   -1.8820   -1.6370   -0.5800 N   0  0  0  0  0  0  0  0  0  0  0  0
   -1.9340   -0.2600   -0.5410 C   0  0  0  0  0  0  0  0  0  0  0  0
   -0.4090    0.6300   -0.7910 S   0  0  0  0  0  0  0  0  0  0  0  0
    0.3790    0.8340    0.8450 C   0  0  0  0  0  0  0  0  0  0  0  0
    1.6640    1.5920    0.6560 C   0  0  0  0  0  0  0  0  0  0  0  0
    2.5370    0.8520   -0.2290 N   0  0  0  0  0  0  0  0  0  0  0  0
    3.7640    0.5270    0.4260 C   0  0  0  0  0  0  0  0  0  0  0  0
    3.6850   -0.0860    1.6650 C   0  0  0  0  0  0  0  0  0  0  0  0
    4.8830   -0.4050    2.3090 C   0  0  0  0  0  0  0  0  0  0  0  0
    4.9150   -1.0570    3.6260 C   0  0  0  0  0  0  0  0  0  0  0  0
    6.0950   -0.1050    1.6990 C   0  0  0  0  0  0  0  0  0  0  0  0
    7.3090   -0.4220    2.3380 N   0  0  0  0  0  0  0  0  0  0  0  0
    6.1490    0.5030    0.4690 C   0  0  0  0  0  0  0  0  0  0  0  0
    7.4220    0.8240   -0.1830 C   0  0  0  0  0  0  0  0  0  0  0  0
    7.2510    1.4620   -1.4720 N   0  0  0  0  0  0  0  0  0  0  0  0
    4.9700    0.8220   -0.1730 C   0  0  0  0  0  0  0  0  0  0  0  0
   -3.1360    0.3360   -0.3090 C   0  0  0  0  0  0  0  0  0  0  0  0
   -3.3050    1.7710   -0.2490 C   0  0  0  0  0  0  0  0  0  0  0  0
   -4.5020    2.2010    0.0030 O   0  0  0  0  0  0  0  0  0  0  0  0
   -2.3420    2.7770   -0.4310 N   0  0  0  0  0  0  0  0  0  0  0  0
   -2.6760    4.1720   -0.3320 C   0  0  0  0  0  0  0  0  0  0  0  0
   -3.8550    4.4910   -0.0770 O   0  0  0  0  0  0  0  0  0  0  0  0
   -1.6260    5.1430   -0.5350 C   0  0  0  0  0  0  0  0  0  0  0  0
   -1.8120    6.5230   -0.4690 C   0  0  0  0  0  0  0  0  0  0  0  0
   -0.6000    7.1250   -0.7130 C   0  0  0  0  0  0  0  0  0  0  0  0
    0.2910    6.0730   -0.9210 C   0  0  0  0  0  0  0  0  0  0  0  0
   -0.3620    4.9420   -0.8050 O   0  0  0  0  0  0  0  0  0  0  0  0
   -4.2890   -0.4660   -0.1140 C   0  0  0  0  0  0  0  0  0  0  0  0
   -5.5330    0.1470    0.1260 N   0  0  0  0  0  0  0  0  0  0  0  0
  1  2  1  0
  2  3  1  0
  3  4  2  0
  3  5  1  0
  5  6  2  0
  5 39  1  0
  6  7  1  0
  6 12  1  0
  7  8  1  0
  8  9  1  0
  9 10  1  0
  9 11  2  0
 12 13  2  0
 13 14  1  0
 13 28  1  0
 14 15  1  0
 15 16  1  0
 16 17  1  0
 17 18  1  0
 18 19  2  0
 18 27  1  0
 19 20  1  0
 20 21  1  0
 20 22  2  0
 22 23  1  0
 22 24  1  0
 24 25  1  0
 24 27  2  0
 25 26  1  0
 28 29  1  0
 28 39  2  0
 29 30  2  0
 29 31  1  0
 31 32  1  0
 32 33  2  0
 32 34  1  0
 34 35  2  0
 34 38  1  0
 35 36  1  0
 36 37  2  0
 37 38  1  0
 39 40  1  0
M  CHG  2  17   1  26   1
M  END
