
     RDKit          3D

 40 42  0  0  0  0  0  0  0  0999 V2000
   -9.6360   -1.1380   -2.0390 C   0  0  0  0  0  0  0  0  0  0  0  0
   -7.8590   -1.0290   -2.0000 S   0  0  0  0  0  0  0  0  0  0  0  0
   -7.0220   -1.9530   -0.8150 C   0  0  0  0  0  0  0  0  0  0  0  0
   -7.8300   -3.0310   -0.1130 C   0  0  0  0  0  0  0  0  0  0  0  0
   -8.3270   -3.8770   -1.2020 N   0  0  0  0  0  0  0  0  0  0  0  0
   -5.7560   -1.8000   -0.4410 C   0  0  0  0  0  0  0  0  0  0  0  0
   -5.1190   -2.9230    0.8060 S   0  0  0  0  0  0  0  0  0  0  0  0
   -3.4090   -2.3890    0.7210 C   0  0  0  0  0  0  0  0  0  0  0  0
   -3.4650   -1.4090   -0.2340 C   0  0  0  0  0  0  0  0  0  0  0  0
   -2.2740   -0.8230   -0.6820 N   0  0  0  0  0  0  0  0  0  0  0  0
   -1.1420   -0.6430    0.2840 C   0  0  0  0  0  0  0  0  0  0  0  0
   -1.2570   -0.9460    1.4330 O   0  0  0  0  0  0  0  0  0  0  0  0
   -0.0710   -0.0890   -0.4500 N   0  0  0  0  0  0  0  0  0  0  0  0
    0.6180    0.8210    0.8920 C   0  0  0  0  0  0  0  0  0  0  0  0
    0.0700    0.7010    1.8900 O   0  0  0  0  0  0  0  0  0  0  0  0
    1.7500    1.5440    0.3750 C   0  0  0  0  0  0  0  0  0  0  0  0
    2.2040    2.4910    1.3120 N   0  0  0  0  0  0  0  0  0  0  0  0
    3.0890    2.1050    2.3530 C   0  0  2  0  0  0  0  0  0  0  0  0
    3.3570    3.4380    3.1160 C   0  0  0  0  0  0  0  0  0  0  0  0
    4.4190    1.6460    1.8500 C   0  0  0  0  0  0  0  0  0  0  0  0
    5.2660    2.5490    1.5590 O   0  0  0  0  0  0  0  0  0  0  0  0
    4.7900    0.3000    1.6730 N   0  0  0  0  0  0  0  0  0  0  0  0
    6.0290   -0.1920    1.2280 C   0  0  0  0  0  0  0  0  0  0  0  0
    6.0870   -1.5580    0.8840 C   0  0  0  0  0  0  0  0  0  0  0  0
    7.2800   -2.1180    0.4630 C   0  0  0  0  0  0  0  0  0  0  0  0
    8.4530   -1.4070    0.3520 C   0  0  0  0  0  0  0  0  0  0  0  0
    9.7450   -1.7160   -0.0180 C   0  0  0  0  0  0  0  0  0  0  0  0
   10.4790   -0.5560    0.0870 C   0  0  0  0  0  0  0  0  0  0  0  0
   11.9530   -0.4080   -0.2000 C   0  0  0  0  0  0  0  0  0  0  0  0
    9.6330    0.4090    0.5110 N   0  0  0  0  0  0  0  0  0  0  0  0
    8.4070   -0.0870    0.6800 C   0  0  0  0  0  0  0  0  0  0  0  0
    7.1980    0.4980    1.1130 C   0  0  0  0  0  0  0  0  0  0  0  0
   -4.6910   -1.0730   -0.8520 C   0  0  0  0  0  0  0  0  0  0  0  0
   -4.7170    0.1850   -1.3680 C   0  0  0  0  0  0  0  0  0  0  0  0
   -5.7360    1.1310   -1.6000 C   0  0  0  0  0  0  0  0  0  0  0  0
   -6.9370    1.1510   -1.3350 O   0  0  0  0  0  0  0  0  0  0  0  0
   -5.3620    2.3600   -2.2840 O   0  0  0  0  0  0  0  0  0  0  0  0
   -6.4340    3.2940   -2.4820 C   0  0  0  0  0  0  0  0  0  0  0  0
   -7.4680    2.6570   -3.3160 C   0  0  0  0  0  0  0  0  0  0  0  0
   -8.4310    3.2960   -3.6580 O   0  0  0  0  0  0  0  0  0  0  0  0
  1  2  1  0
  2  3  1  0
  3  4  1  0
  3  6  2  3
  4  5  1  0
  6  7  1  0
  6 33  1  0
  7  8  1  0
  8  9  2  0
  9 10  1  0
  9 33  1  0
 10 11  1  0
 11 12  2  0
 11 13  1  0
 13 14  1  0
 14 15  2  0
 14 16  1  0
 16 17  1  0
 17 18  1  0
 18 19  1  1
 18 20  1  0
 20 21  2  0
 20 22  1  0
 22 23  1  0
 23 24  2  0
 23 32  1  0
 24 25  1  0
 25 26  2  0
 26 27  1  0
 26 31  1  0
 27 28  2  0
 28 29  1  0
 28 30  1  0
 30 31  1  0
 31 32  2  0
 33 34  2  3
 34 35  1  0
 35 36  2  0
 35 37  1  0
 37 38  1  0
 38 39  1  0
 39 40  2  0
M  CHG  2   5   1  17   1
M  END
