
     RDKit          3D

 40 42  0  0  0  0  0  0  0  0999 V2000
   -4.4640    5.8240    1.5930 C   0  0  0  0  0  0  0  0  0  0  0  0
   -5.6640    5.4230    0.8790 N   0  0  0  0  0  0  0  0  0  0  0  0
   -5.8760    3.7150    1.0470 S   0  0  1  0  0  0  0  0  0  0  0  0
   -6.0170    3.3330    2.4770 O   0  0  0  0  0  0  0  0  0  0  0  0
   -7.1530    3.3500    0.3280 O   0  0  0  0  0  0  0  0  0  0  0  0
   -4.5210    2.8260    0.3460 C   0  0  0  0  0  0  0  0  0  0  0  0
   -3.3940    2.5460    1.0890 C   0  0  0  0  0  0  0  0  0  0  0  0
   -2.3270    1.8350    0.5310 C   0  0  0  0  0  0  0  0  0  0  0  0
   -2.3820    1.4020   -0.7650 C   0  0  0  0  0  0  0  0  0  0  0  0
   -1.3740    0.6970   -1.3810 O   0  0  0  0  0  0  0  0  0  0  0  0
   -0.2180    0.3680   -0.6910 C   0  0  0  0  0  0  0  0  0  0  0  0
    0.5710    1.2920   -0.2390 C   0  0  0  0  0  0  0  0  0  0  0  0
    1.8070    1.0380    0.5000 C   0  0  0  0  0  0  0  0  0  0  0  0
    1.8050    0.1920    1.5970 C   0  0  0  0  0  0  0  0  0  0  0  0
    2.9520   -0.1070    2.3000 C   0  0  0  0  0  0  0  0  0  0  0  0
    4.1730    0.4240    1.9460 C   0  0  0  0  0  0  0  0  0  0  0  0
    5.3640    0.1210    2.6670 N   0  0  0  0  0  0  0  0  0  0  0  0
    4.1810    1.2710    0.8500 C   0  0  0  0  0  0  0  0  0  0  0  0
    5.5350    1.8200    0.4760 C   0  0  0  0  0  0  0  0  0  0  0  0
    6.3060    0.7140   -0.2160 C   0  0  0  0  0  0  0  0  0  0  0  0
    7.6530    1.1000   -0.6290 C   0  0  0  0  0  0  0  0  0  0  0  0
    8.0910    2.2740   -0.3830 O   0  0  0  0  0  0  0  0  0  0  0  0
    8.5360    0.2250   -1.3100 N   0  0  0  0  0  0  0  0  0  0  0  0
   10.1420    0.6520   -1.8130 S   0  0  0  0  0  0  0  0  0  0  0  0
   11.0390    0.5310   -0.5640 O   0  0  0  0  0  0  0  0  0  0  0  0
    3.0340    1.5680    0.1520 C   0  0  0  0  0  0  0  0  0  0  0  0
    0.0130   -1.1010   -0.5350 C   0  0  0  0  0  0  0  0  0  0  0  0
   -1.1020   -1.6510    0.1780 N   0  0  0  0  0  0  0  0  0  0  0  0
   -1.1620   -3.0790    0.0410 C   0  0  0  0  0  0  0  0  0  0  0  0
   -2.1890   -3.7810    0.4680 C   0  0  0  0  0  0  0  0  0  0  0  0
   -3.2480   -3.0080    1.0850 N   0  0  0  0  0  0  0  0  0  0  0  0
   -2.3470   -5.2200    0.3670 C   0  0  1  0  0  0  0  0  0  0  0  0
   -3.5840   -5.5410   -0.3710 N   0  0  0  0  0  0  0  0  0  0  0  0
   -1.2240   -5.9720   -0.2300 C   0  0  0  0  0  0  0  0  0  0  0  0
   -0.1130   -5.1510   -0.6900 C   0  0  0  0  0  0  0  0  0  0  0  0
   -0.0870   -3.8440   -0.5660 C   0  0  0  0  0  0  0  0  0  0  0  0
   -3.5130    1.6770   -1.5270 C   0  0  0  0  0  0  0  0  0  0  0  0
   -3.5720    1.2350   -2.8500 O   0  0  0  0  0  0  0  0  0  0  0  0
   -4.6710    1.4590   -3.6950 C   0  0  0  0  0  0  0  0  0  0  0  0
   -4.5590    2.3820   -0.9590 C   0  0  0  0  0  0  0  0  0  0  0  0
  1  2  1  0
  3  2  1  1
  3  4  2  0
  3  5  2  0
  3  6  1  0
  6  7  2  0
  6 40  1  0
  7  8  1  0
  8  9  2  0
  9 10  1  0
  9 37  1  0
 10 11  1  0
 11 12  2  3
 11 27  1  0
 12 13  1  0
 13 14  2  0
 13 26  1  0
 14 15  1  0
 15 16  2  0
 16 17  1  0
 16 18  1  0
 18 19  1  0
 18 26  2  0
 19 20  1  0
 20 21  1  0
 21 22  2  0
 21 23  1  0
 23 24  1  0
 24 25  2  0
 27 28  1  0
 28 29  1  0
 29 30  2  0
 29 36  1  0
 30 31  1  0
 30 32  1  0
 32 33  1  6
 32 34  1  0
 34 35  1  0
 35 36  2  0
 37 38  1  0
 37 40  2  0
 38 39  1  0
M  CHG  2  28   1  33   1
M  END
