
     RDKit          3D

 42 46  0  0  0  0  0  0  0  0999 V2000
   -6.6450   -1.8740   -0.2600 C   0  0  0  0  0  0  0  0  0  0  0  0
   -5.6170   -2.5050    0.2370 C   0  0  0  0  0  0  0  0  0  0  0  0
   -5.5540   -3.2840    1.5120 C   0  0  0  0  0  0  0  0  0  0  0  0
   -4.1430   -3.2650    1.8070 N   0  0  0  0  0  0  0  0  0  0  0  0
   -3.4590   -3.0400    0.5980 C   0  0  0  0  0  0  0  0  0  0  0  0
   -4.2570   -2.6000   -0.3490 C   0  0  0  0  0  0  0  0  0  0  0  0
   -4.0080   -2.2320   -1.7490 C   0  0  0  0  0  0  0  0  0  0  0  0
   -4.3350   -0.9290   -2.0120 O   0  0  0  0  0  0  0  0  0  0  0  0
   -3.8040    0.2080   -1.5010 C   0  0  0  0  0  0  0  0  0  0  0  0
   -2.7740    0.2380   -0.5930 C   0  0  0  0  0  0  0  0  0  0  0  0
   -2.2600    1.4440   -0.0990 C   0  0  0  0  0  0  0  0  0  0  0  0
   -1.2310    1.3710    0.8300 N   0  0  0  0  0  0  0  0  0  0  0  0
   -0.3400    2.4000    1.1110 C   0  0  0  0  0  0  0  0  0  0  0  0
   -0.4020    3.5030    0.5370 O   0  0  0  0  0  0  0  0  0  0  0  0
    0.7390    2.2350    2.1120 C   0  0  1  0  0  0  0  0  0  0  0  0
    1.9080    1.5480    1.5060 C   0  0  0  0  0  0  0  0  0  0  0  0
    1.5580    0.1900    0.9680 C   0  0  0  0  0  0  0  0  0  0  0  0
    2.7920   -0.4420    0.4220 C   0  0  0  0  0  0  0  0  0  0  0  0
    3.8590    0.2030    0.4850 O   0  0  0  0  0  0  0  0  0  0  0  0
    2.7620   -1.7400   -0.1550 N   0  0  0  0  0  0  0  0  0  0  0  0
    1.5520   -2.5200   -0.2430 C   0  0  0  0  0  0  0  0  0  0  0  0
    3.9550   -2.3130   -0.6710 C   0  0  0  0  0  0  0  0  0  0  0  0
    4.9880   -2.6560    0.1960 C   0  0  0  0  0  0  0  0  0  0  0  0
    6.1350   -3.2110   -0.3410 C   0  0  0  0  0  0  0  0  0  0  0  0
    6.2780   -3.4290   -1.6980 C   0  0  0  0  0  0  0  0  0  0  0  0
    7.5330   -4.0320   -2.2720 C   0  0  0  0  0  0  0  0  0  0  0  0
    5.2500   -3.0830   -2.5280 C   0  0  0  0  0  0  0  0  0  0  0  0
    4.0800   -2.5240   -2.0370 C   0  0  0  0  0  0  0  0  0  0  0  0
    2.7670   -2.0860   -3.1230 Cl  0  0  0  0  0  0  0  0  0  0  0  0
    1.1060    3.5140    2.7050 N   0  0  0  0  0  0  0  0  0  0  0  0
    0.8750    3.9220    3.9590 C   0  0  0  0  0  0  0  0  0  0  0  0
    1.3930    5.1700    4.0710 N   0  0  0  0  0  0  0  0  0  0  0  0
    1.9420    5.5610    2.9200 C   0  0  0  0  0  0  0  0  0  0  0  0
    2.5700    6.6360    2.4570 N   0  0  0  0  0  0  0  0  0  0  0  0
    3.0040    6.6720    1.1790 C   0  0  0  0  0  0  0  0  0  0  0  0
    2.8280    5.6240    0.3000 C   0  0  0  0  0  0  0  0  0  0  0  0
    2.1910    4.5320    0.7670 N   0  0  0  0  0  0  0  0  0  0  0  0
    1.7540    4.4930    2.0510 C   0  0  0  0  0  0  0  0  0  0  0  0
   -2.8200    2.5980   -0.5530 C   0  0  0  0  0  0  0  0  0  0  0  0
   -3.8650    2.5960   -1.4740 C   0  0  0  0  0  0  0  0  0  0  0  0
   -4.3540    1.4310   -1.9440 C   0  0  0  0  0  0  0  0  0  0  0  0
   -5.4760    1.3820   -2.9390 C   0  0  0  0  0  0  0  0  0  0  0  0
  1  2  2  0
  2  3  1  0
  2  6  1  0
  3  4  1  0
  4  5  1  0
  5  6  2  0
  6  7  1  0
  7  8  1  0
  8  9  1  0
  9 10  2  0
  9 41  1  0
 10 11  1  0
 11 12  1  0
 11 39  2  0
 12 13  1  0
 13 14  2  0
 13 15  1  0
 15 16  1  6
 15 30  1  0
 16 17  1  0
 17 18  1  0
 18 19  2  0
 18 20  1  0
 20 21  1  0
 20 22  1  0
 22 23  2  0
 22 28  1  0
 23 24  1  0
 24 25  2  0
 25 26  1  0
 25 27  1  0
 27 28  2  0
 28 29  1  0
 30 31  1  0
 30 38  1  0
 31 32  2  0
 32 33  1  0
 33 34  2  0
 33 38  1  0
 34 35  1  0
 35 36  2  0
 36 37  1  0
 37 38  2  0
 39 40  1  0
 40 41  2  0
 41 42  1  0
M  END
