
     RDKit          3D

 42 46  0  0  0  0  0  0  0  0999 V2000
    7.0430   -0.6010    2.5210 C   0  0  0  0  0  0  0  0  0  0  0  0
    7.1860    0.5960    1.6210 C   0  0  0  0  0  0  0  0  0  0  0  0
    5.8880    0.9150    0.9690 C   0  0  1  0  0  0  0  0  0  0  0  0
    6.0780    2.1310    0.0650 C   0  0  0  0  0  0  0  0  0  0  0  0
    5.2660   -0.1180    0.3380 O   0  0  0  0  0  0  0  0  0  0  0  0
    4.0290   -0.4540    0.8170 C   0  0  0  0  0  0  0  0  0  0  0  0
    3.4020   -1.6020    0.0310 C   0  0  0  0  0  0  0  0  0  0  0  0
    2.0770   -1.9310    0.5970 C   0  0  0  0  0  0  0  0  0  0  0  0
    0.9540   -1.8630   -0.0680 C   0  0  0  0  0  0  0  0  0  0  0  0
    0.7320   -1.4600   -1.4830 C   0  0  0  0  0  0  0  0  0  0  0  0
   -0.2040   -0.2630   -1.3780 N   0  0  0  0  0  0  0  0  0  0  0  0
    0.4990    0.9590   -1.3460 C   0  0  0  0  0  0  0  0  0  0  0  0
    0.8870    1.4590   -2.6780 N   0  0  0  0  0  0  0  0  0  0  0  0
    1.2500    2.7420   -2.7800 C   0  0  0  0  0  0  0  0  0  0  0  0
    1.6290    2.8880   -4.0990 N   0  0  0  0  0  0  0  0  0  0  0  0
    1.4930    1.7580   -4.7450 N   0  0  0  0  0  0  0  0  0  0  0  0
    1.0220    0.8390   -3.8650 C   0  0  0  0  0  0  0  0  0  0  0  0
    0.7560   -0.3670   -4.1030 O   0  0  0  0  0  0  0  0  0  0  0  0
    1.1720    3.7520   -1.7570 N   0  0  0  0  0  0  0  0  0  0  0  0
    2.2570    4.3910   -1.2250 C   0  0  0  0  0  0  0  0  0  0  0  0
    1.7780    5.3090   -0.3280 C   0  0  0  0  0  0  0  0  0  0  0  0
    0.4760    5.2120   -0.3350 N   0  0  0  0  0  0  0  0  0  0  0  0
    0.0230    4.2420   -1.2220 C   0  0  0  0  0  0  0  0  0  0  0  0
   -1.3570    3.9470   -1.4810 C   0  0  0  0  0  0  0  0  0  0  0  0
   -2.2980    3.2000   -0.9470 C   0  0  0  0  0  0  0  0  0  0  0  0
   -2.4410    2.3230    0.1330 N   0  0  0  0  0  0  0  0  0  0  0  0
   -2.9080    0.9790    0.3310 C   0  0  0  0  0  0  0  0  0  0  0  0
   -3.9160    0.8750    1.3400 C   0  0  0  0  0  0  0  0  0  0  0  0
   -4.5950   -0.2700    1.6370 C   0  0  0  0  0  0  0  0  0  0  0  0
   -4.3280   -1.4180    0.9520 C   0  0  0  0  0  0  0  0  0  0  0  0
   -5.0350   -2.6820    1.2080 C   0  0  0  0  0  0  0  0  0  0  0  0
   -4.3700   -3.8730    1.3500 C   0  0  0  0  0  0  0  0  0  0  0  0
   -5.0840   -5.0400    1.5930 C   0  0  0  0  0  0  0  0  0  0  0  0
   -6.4460   -5.0180    1.6930 C   0  0  0  0  0  0  0  0  0  0  0  0
   -7.1360   -3.8390    1.5560 C   0  0  0  0  0  0  0  0  0  0  0  0
   -8.6330   -3.8130    1.6670 C   0  0  0  0  0  0  0  0  0  0  0  0
   -6.4030   -2.6850    1.3130 C   0  0  0  0  0  0  0  0  0  0  0  0
   -7.3380   -1.2150    1.1400 Cl  0  0  0  0  0  0  0  0  0  0  0  0
   -3.3770   -1.3560   -0.0050 C   0  0  0  0  0  0  0  0  0  0  0  0
   -2.6350   -0.1780   -0.3480 C   0  0  0  0  0  0  0  0  0  0  0  0
   -1.5870   -0.4420   -1.3460 C   0  0  0  0  0  0  0  0  0  0  0  0
   -2.0560   -0.9660   -2.4410 O   0  0  0  0  0  0  0  0  0  0  0  0
  1  2  1  0
  2  3  1  0
  3  4  1  6
  3  5  1  0
  5  6  1  0
  6  7  1  0
  7  8  1  0
  8  9  2  3
  9 10  1  0
 10 11  1  0
 11 12  1  0
 11 41  1  0
 12 13  1  0
 13 14  1  0
 13 17  1  0
 14 15  2  0
 14 19  1  0
 15 16  1  0
 16 17  1  0
 17 18  2  0
 19 20  1  0
 19 23  1  0
 20 21  2  0
 21 22  1  0
 22 23  2  0
 23 24  1  0
 24 25  2  0
 25 26  1  0
 26 27  1  0
 27 28  2  0
 27 40  1  0
 28 29  1  0
 29 30  2  0
 30 31  1  0
 30 39  1  0
 31 32  2  0
 31 37  1  0
 32 33  1  0
 33 34  2  0
 34 35  1  0
 35 36  1  0
 35 37  2  0
 37 38  1  0
 39 40  2  0
 40 41  1  0
 41 42  2  0
M  END
