
     RDKit          3D

 42 46  0  0  0  0  0  0  0  0999 V2000
   -5.5560   -0.6680   -0.0870 C   0  0  0  0  0  0  0  0  0  0  0  0
   -4.5520   -0.6790   -1.2010 C   0  0  0  0  0  0  0  0  0  0  0  0
   -3.8630    0.6250   -1.4310 C   0  0  2  0  0  0  0  0  0  0  0  0
   -2.9190    0.4450   -2.6630 C   0  0  0  0  0  0  0  0  0  0  0  0
   -3.8340    0.0730   -3.8110 C   0  0  0  0  0  0  0  0  0  0  0  0
   -3.0540    1.1790   -0.3100 C   0  0  0  0  0  0  0  0  0  0  0  0
   -1.9410    0.4220    0.1460 N   0  0  0  0  0  0  0  0  0  0  0  0
   -0.7350    1.2510   -0.0710 C   0  0  0  0  0  0  0  0  0  0  0  0
    0.4440    0.4760   -0.5200 C   0  0  1  0  0  0  0  0  0  0  0  0
    0.3110   -0.1990   -1.7230 O   0  0  0  0  0  0  0  0  0  0  0  0
    1.7680    1.1570   -0.4710 C   0  0  2  0  0  0  0  0  0  0  0  0
    2.1300    2.0480   -1.6110 C   0  0  0  0  0  0  0  0  0  0  0  0
    1.2770    3.1880   -1.9100 C   0  0  0  0  0  0  0  0  0  0  0  0
    0.2960    3.1880   -2.8970 C   0  0  0  0  0  0  0  0  0  0  0  0
   -0.4940    4.2600   -3.1670 C   0  0  0  0  0  0  0  0  0  0  0  0
   -0.3470    5.4270   -2.4480 C   0  0  0  0  0  0  0  0  0  0  0  0
    0.6120    5.4780   -1.4580 C   0  0  0  0  0  0  0  0  0  0  0  0
    1.4060    4.3810   -1.1970 C   0  0  0  0  0  0  0  0  0  0  0  0
    2.7660    0.0300   -0.4900 N   0  0  0  0  0  0  0  0  0  0  0  0
    3.7040   -0.1210    0.5440 C   0  0  0  0  0  0  0  0  0  0  0  0
    3.7260    0.6870    1.5070 O   0  0  0  0  0  0  0  0  0  0  0  0
    4.6490   -1.1510    0.5700 O   0  0  0  0  0  0  0  0  0  0  0  0
    5.5760   -1.2620    1.6330 C   0  0  1  0  0  0  0  0  0  0  0  0
    5.4170   -2.5750    2.3390 C   0  0  0  0  0  0  0  0  0  0  0  0
    6.4350   -3.3590    1.8530 O   0  0  0  0  0  0  0  0  0  0  0  0
    7.5770   -2.5300    1.7560 C   0  0  1  0  0  0  0  0  0  0  0  0
    8.3960   -3.0920    0.8200 O   0  0  0  0  0  0  0  0  0  0  0  0
    8.3920   -2.3740   -0.3400 C   0  0  0  0  0  0  0  0  0  0  0  0
    7.1110   -1.5690   -0.3200 C   0  0  0  0  0  0  0  0  0  0  0  0
    6.9940   -1.2630    1.1730 C   0  0  1  0  0  0  0  0  0  0  0  0
   -1.9560   -0.0630    1.7700 S   0  0  2  0  0  0  0  0  0  0  0  0
   -2.0430    1.2160    2.6370 O   0  0  0  0  0  0  0  0  0  0  0  0
   -0.6040   -0.6400    2.1730 O   0  0  0  0  0  0  0  0  0  0  0  0
   -3.2400   -1.0990    2.2720 C   0  0  0  0  0  0  0  0  0  0  0  0
   -3.2450   -2.4470    2.0270 C   0  0  0  0  0  0  0  0  0  0  0  0
   -4.2070   -3.3290    2.4240 C   0  0  0  0  0  0  0  0  0  0  0  0
   -5.3080   -2.8590    3.1490 C   0  0  0  0  0  0  0  0  0  0  0  0
   -6.3330   -3.5340    3.6200 N   0  0  0  0  0  0  0  0  0  0  0  0
   -7.2360   -3.1810    4.2080 C   0  0  0  0  0  0  0  0  0  0  0  0
   -6.8460   -1.3090    4.3260 S   0  0  0  0  0  0  0  0  0  0  0  0
   -5.3250   -1.5210    3.4040 C   0  0  0  0  0  0  0  0  0  0  0  0
   -4.3420   -0.6200    2.9990 C   0  0  0  0  0  0  0  0  0  0  0  0
  1  2  1  0
  3  2  1  1
  3  4  1  0
  3  6  1  0
  4  5  1  0
  6  7  1  0
  7  8  1  0
 31  7  1  6
  8  9  1  0
  9 10  1  6
  9 11  1  0
 11 12  1  6
 11 19  1  0
 12 13  1  0
 13 14  2  0
 13 18  1  0
 14 15  1  0
 15 16  2  0
 16 17  1  0
 17 18  2  0
 19 20  1  0
 20 21  2  0
 20 22  1  0
 23 22  1  6
 23 24  1  0
 23 30  1  0
 24 25  1  0
 26 25  1  6
 26 27  1  0
 26 30  1  0
 27 28  1  0
 28 29  1  0
 30 29  1  6
 31 32  2  0
 31 33  2  0
 31 34  1  0
 34 35  2  0
 34 42  1  0
 35 36  1  0
 36 37  2  0
 37 38  1  0
 37 41  1  0
 38 39  2  0
 39 40  1  0
 40 41  1  0
 41 42  2  0
M  END
