
     RDKit          3D

 42 43  0  0  0  0  0  0  0  0999 V2000
   -5.4170   -2.0800    1.9230 C   0  0  0  0  0  0  0  0  0  0  0  0
   -6.1170   -0.8090    1.7260 C   0  0  0  0  0  0  0  0  0  0  0  0
   -5.4420    0.3500    1.4670 C   0  0  0  0  0  0  0  0  0  0  0  0
   -6.2450    1.5550    1.2850 C   0  0  0  0  0  0  0  0  0  0  0  0
   -6.2260    2.5220    0.3980 C   0  0  0  0  0  0  0  0  0  0  0  0
   -7.2660    3.5810    0.5940 N   0  0  0  0  0  0  0  0  0  0  0  0
   -5.4230    2.7540   -0.7170 N   0  0  0  0  0  0  0  0  0  0  0  0
   -4.1290    3.2750   -0.9730 C   0  0  1  0  0  0  0  0  0  0  0  0
   -3.5260    4.0570    0.0980 N   0  0  0  0  0  0  0  0  0  0  0  0
   -3.0640    2.3280   -1.4360 C   0  0  0  0  0  0  0  0  0  0  0  0
   -3.4450    1.2540   -2.3690 C   0  0  0  0  0  0  0  0  0  0  0  0
   -4.0260    0.0750   -1.8500 N   0  0  1  0  0  0  0  0  0  0  0  0
   -4.7850   -0.6200   -2.9360 C   0  0  0  0  0  0  0  0  0  0  0  0
   -3.2300   -0.8780   -1.1920 C   0  0  0  0  0  0  0  0  0  0  0  0
   -1.9490   -0.5080   -0.6170 C   0  0  0  0  0  0  0  0  0  0  0  0
   -1.1260   -0.0230   -1.5130 O   0  0  0  0  0  0  0  0  0  0  0  0
   -1.3640   -0.5390    0.6450 N   0  0  0  0  0  0  0  0  0  0  0  0
   -0.0960   -1.2630    0.8970 C   0  0  1  0  0  0  0  0  0  0  0  0
   -0.5320   -2.7500    0.8820 C   0  0  0  0  0  0  0  0  0  0  0  0
    0.6630   -3.6320    1.1520 C   0  0  1  0  0  0  0  0  0  0  0  0
    0.4850   -4.0880    2.6190 C   0  0  0  0  0  0  0  0  0  0  0  0
    0.5910   -4.8990    0.3540 C   0  0  0  0  0  0  0  0  0  0  0  0
    1.8050   -2.9380    1.1250 O   0  0  0  0  0  0  0  0  0  0  0  0
    2.1290   -2.0520    0.1900 C   0  0  1  0  0  0  0  0  0  0  0  0
    3.2800   -1.1850    0.7400 C   0  0  0  0  0  0  0  0  0  0  0  0
    3.6590   -0.2370   -0.1890 O   0  0  0  0  0  0  0  0  0  0  0  0
    4.6890    0.5800    0.1670 C   0  0  1  0  0  0  0  0  0  0  0  0
    5.8270    0.4270   -0.8210 C   0  0  0  0  0  0  0  0  0  0  0  0
    4.1930    2.0090    0.2190 C   0  0  0  0  0  0  0  0  0  0  0  0
    5.3990    2.8550    0.6210 C   0  0  2  0  0  0  0  0  0  0  0  0
    5.8840    2.3980    1.9580 C   0  0  0  0  0  0  0  0  0  0  0  0
    5.0170    4.1750    0.5510 O   0  0  0  0  0  0  0  0  0  0  0  0
    5.6920    4.7820   -0.4960 C   0  0  0  0  0  0  0  0  0  0  0  0
    5.2780    6.2190   -0.5690 C   0  0  0  0  0  0  0  0  0  0  0  0
    2.5750   -2.5210   -1.1370 C   0  0  0  0  0  0  0  0  0  0  0  0
    3.7490   -3.3580   -1.3080 C   0  0  1  0  0  0  0  0  0  0  0  0
    3.8440   -4.6820   -0.6680 C   0  0  0  0  0  0  0  0  0  0  0  0
    4.0120   -3.5360   -2.7990 C   0  0  0  0  0  0  0  0  0  0  0  0
    0.9980   -1.0250   -0.0500 C   0  0  0  0  0  0  0  0  0  0  0  0
   -1.8010    0.0520    1.8940 C   0  0  0  0  0  0  0  0  0  0  0  0
   -3.0120    0.8590    1.9700 C   0  0  0  0  0  0  0  0  0  0  0  0
   -4.1000    0.2350    1.4080 O   0  0  0  0  0  0  0  0  0  0  0  0
  1  2  1  0
  2  3  2  3
  3  4  1  0
  3 42  1  0
  4  5  2  0
  5  6  1  0
  5  7  1  0
  7  8  1  0
  8  9  1  1
  8 10  1  0
 10 11  1  0
 11 12  1  0
 12 13  1  6
 12 14  1  0
 14 15  1  0
 15 16  2  0
 15 17  1  0
 18 17  1  6
 17 40  1  0
 18 19  1  0
 18 39  1  0
 19 20  1  0
 20 21  1  1
 20 22  1  0
 20 23  1  0
 23 24  1  0
 24 25  1  1
 24 35  1  0
 24 39  1  0
 25 26  1  0
 26 27  1  0
 27 28  1  6
 27 29  1  0
 29 30  1  0
 30 31  1  1
 30 32  1  0
 32 33  1  0
 33 34  1  0
 35 36  1  0
 36 37  1  6
 36 38  1  0
 40 41  1  0
 41 42  1  0
M  CHG  2   9   1  12   1
M  END
