
     RDKit          3D

  9  9  0  0  0  0  0  0  0  0999 V2000
    2.5960   -0.4870    0.0840 N   0  0  0  0  0  0  0  0  0  0  0  0
    1.3390   -0.4470    0.8080 C   0  0  0  0  0  0  0  0  0  0  0  0
    0.3500    0.4200    0.1150 C   0  0  0  0  0  0  0  0  0  0  0  0
   -0.8310    0.1600   -0.3840 C   0  0  0  0  0  0  0  0  0  0  0  0
   -1.5720   -1.1280   -0.4130 C   0  0  0  0  0  0  0  0  0  0  0  0
   -0.9310   -2.1890    0.1620 O   0  0  0  0  0  0  0  0  0  0  0  0
   -1.3370    1.3640   -0.9340 O   0  0  0  0  0  0  0  0  0  0  0  0
   -0.6340    2.3930   -0.2820 C   0  0  0  0  0  0  0  0  0  0  0  0
    0.6230    1.7950   -0.1020 O   0  0  0  0  0  0  0  0  0  0  0  0
  1  2  1  0
  2  3  1  0
  3  4  2  0
  3  9  1  0
  4  5  1  0
  4  7  1  0
  5  6  1  0
  7  8  1  0
  8  9  1  0
M  END
