
     RDKit          3D

  9  9  0  0  0  0  0  0  0  0999 V2000
    3.2210    0.6520    0.1000 C   0  0  0  0  0  0  0  0  0  0  0  0
    1.8330    0.7750    0.3550 O   0  0  0  0  0  0  0  0  0  0  0  0
    1.0210   -0.2710   -0.0610 C   0  0  0  0  0  0  0  0  0  0  0  0
    1.5220   -1.2680   -0.6340 O   0  0  0  0  0  0  0  0  0  0  0  0
   -0.4290   -0.2050    0.1720 C   0  0  0  0  0  0  0  0  0  0  0  0
   -1.3000   -1.1420   -0.1800 C   0  0  0  0  0  0  0  0  0  0  0  0
   -2.5920   -0.7010    0.2210 N   0  0  0  0  0  0  0  0  0  0  0  0
   -2.4710    0.7300    0.4230 C   0  0  0  0  0  0  0  0  0  0  0  0
   -1.0990    0.8400    0.7930 O   0  0  0  0  0  0  0  0  0  0  0  0
  1  2  1  0
  2  3  1  0
  3  4  2  0
  3  5  1  0
  5  6  2  0
  5  9  1  0
  6  7  1  0
  7  8  1  0
  8  9  1  0
M  END
