
     RDKit          3D

  9  9  0  0  0  0  0  0  0  0999 V2000
    3.3190   -0.5840   -0.4180 O   0  0  0  0  0  0  0  0  0  0  0  0
    2.2430   -1.0470    0.3350 C   0  0  0  0  0  0  0  0  0  0  0  0
    1.4440    0.1170    0.6680 N   0  0  0  0  0  0  0  0  0  0  0  0
    0.7420    0.5390   -0.5180 C   0  0  0  0  0  0  0  0  0  0  0  0
   -0.7240    0.5690   -0.4500 C   0  0  1  0  0  0  0  0  0  0  0  0
   -1.4410   -0.7490   -0.3850 C   0  0  0  0  0  0  0  0  0  0  0  0
   -2.7370   -0.2640   -0.1810 O   0  0  0  0  0  0  0  0  0  0  0  0
   -2.6110    0.9210    0.5400 C   0  0  0  0  0  0  0  0  0  0  0  0
   -1.2650    1.2480    0.6170 O   0  0  0  0  0  0  0  0  0  0  0  0
  1  2  1  0
  2  3  1  0
  3  4  1  0
  5  4  1  1
  5  6  1  0
  5  9  1  0
  6  7  1  0
  7  8  1  0
  8  9  1  0
M  END
