
     RDKit          3D

  9  9  0  0  0  0  0  0  0  0999 V2000
   -3.3310    0.2800    0.9590 O   0  0  0  0  0  0  0  0  0  0  0  0
   -2.6660   -0.5080    0.0060 C   0  0  0  0  0  0  0  0  0  0  0  0
   -1.2690   -0.0080   -0.1920 C   0  0  0  0  0  0  0  0  0  0  0  0
   -0.8090    0.4090   -1.3160 N   0  0  0  0  0  0  0  0  0  0  0  0
    0.5620    0.8170   -1.1640 C   0  0  0  0  0  0  0  0  0  0  0  0
    0.9050    0.5260    0.2880 C   0  0  2  0  0  0  0  0  0  0  0  0
    1.8920   -0.6320    0.3430 C   0  0  0  0  0  0  0  0  0  0  0  0
    3.1430   -0.2220   -0.1690 O   0  0  0  0  0  0  0  0  0  0  0  0
   -0.3190    0.0620    0.8080 O   0  0  0  0  0  0  0  0  0  0  0  0
  1  2  1  0
  2  3  1  0
  3  4  2  0
  3  9  1  0
  4  5  1  0
  5  6  1  0
  6  7  1  6
  6  9  1  0
  7  8  1  0
M  END
