
     RDKit          3D

  9  9  0  0  0  0  0  0  0  0999 V2000
    2.5400    0.3440    0.4580 N   0  0  0  0  0  0  0  0  0  0  0  0
    1.8290   -0.5660   -0.3770 C   0  0  0  0  0  0  0  0  0  0  0  0
    0.3380   -0.4180   -0.3370 C   0  0  2  0  0  0  0  0  0  0  0  0
   -0.1100    0.8160   -0.7270 O   0  0  0  0  0  0  0  0  0  0  0  0
   -1.4080    1.0640   -0.3810 C   0  0  0  0  0  0  0  0  0  0  0  0
   -2.2440   -0.1280   -0.0740 C   0  0  0  0  0  0  0  0  0  0  0  0
   -1.6220   -0.8340    1.0130 O   0  0  0  0  0  0  0  0  0  0  0  0
   -0.2220   -0.7150    1.0070 C   0  0  0  0  0  0  0  0  0  0  0  0
    0.4760   -0.8490    2.0440 O   0  0  0  0  0  0  0  0  0  0  0  0
  1  2  1  0
  3  2  1  1
  3  4  1  0
  3  8  1  0
  4  5  1  0
  5  6  1  0
  6  7  1  0
  7  8  1  0
  8  9  2  0
M  END
