
     RDKit          3D

 26 27  0  0  0  0  0  0  0  0999 V2000
   -4.7920    3.8800    0.0110 C   0  0  0  0  0  0  0  0  0  0  0  0
   -4.5280    2.3730    0.1180 C   0  0  0  0  0  0  0  0  0  0  0  0
   -3.6300    2.0520   -0.8680 O   0  0  0  0  0  0  0  0  0  0  0  0
   -3.1820    0.4160   -0.9440 P   0  0  0  0  0  0  0  0  0  0  0  0
   -2.8040   -0.3600    0.6650 C   0  0  0  0  0  0  0  0  0  0  0  0
   -1.3950   -0.1120    0.9920 N   0  0  0  0  0  0  0  0  0  0  0  0
   -1.0130    1.0770    1.7180 C   0  0  0  0  0  0  0  0  0  0  0  0
   -0.4020   -1.0290    0.5760 C   0  0  0  0  0  0  0  0  0  0  0  0
   -0.8730   -2.0240   -0.1120 O   0  0  0  0  0  0  0  0  0  0  0  0
    1.0240   -1.0090    0.8090 C   0  0  2  0  0  0  0  0  0  0  0  0
    1.5140   -1.4180    2.1630 C   0  0  0  0  0  0  0  0  0  0  0  0
    2.9620   -1.7860    2.0400 C   0  0  0  0  0  0  0  0  0  0  0  0
    3.7210   -1.0350    1.0200 C   0  0  0  0  0  0  0  0  0  0  0  0
    5.0820   -1.3680    0.8090 C   0  0  0  0  0  0  0  0  0  0  0  0
    5.7860   -0.6680   -0.1390 C   0  0  0  0  0  0  0  0  0  0  0  0
    5.1770    0.3290   -0.8620 C   0  0  0  0  0  0  0  0  0  0  0  0
    6.1550    1.1760   -2.0600 S   0  0  2  0  0  0  0  0  0  0  0  0
    7.5780    1.2730   -1.5880 O   0  0  0  0  0  0  0  0  0  0  0  0
    5.6450    2.5780   -2.2520 O   0  0  0  0  0  0  0  0  0  0  0  0
    6.0330    0.3840   -3.5330 O   0  0  0  0  0  0  0  0  0  0  0  0
    3.8490    0.6590   -0.6630 C   0  0  0  0  0  0  0  0  0  0  0  0
    3.1420   -0.0410    0.2880 C   0  0  0  0  0  0  0  0  0  0  0  0
    1.7230    0.3110    0.5000 C   0  0  0  0  0  0  0  0  0  0  0  0
   -4.0970   -0.5420   -2.0070 O   0  0  0  0  0  0  0  0  0  0  0  0
   -4.4800   -1.7690   -1.4710 C   0  0  0  0  0  0  0  0  0  0  0  0
   -5.2870   -2.5890   -2.4380 C   0  0  0  0  0  0  0  0  0  0  0  0
  1  2  1  0
  2  3  1  0
  3  4  1  0
  4  5  1  0
  4 24  1  0
  5  6  1  0
  6  7  1  0
  6  8  1  0
  8  9  2  0
 10  8  1  1
 10 11  1  0
 10 23  1  0
 11 12  1  0
 12 13  1  0
 13 14  2  0
 13 22  1  0
 14 15  1  0
 15 16  2  0
 16 17  1  0
 16 21  1  0
 17 18  2  0
 17 19  2  0
 17 20  1  6
 21 22  2  0
 22 23  1  0
 24 25  1  0
 25 26  1  0
M  END
