
     RDKit          3D

 26 28  0  0  0  0  0  0  0  0999 V2000
   -2.8750   -5.0550   -0.2420 C   0  0  0  0  0  0  0  0  0  0  0  0
   -1.6240   -4.2880    0.0000 C   0  0  0  0  0  0  0  0  0  0  0  0
   -0.4420   -4.9910   -0.0470 C   0  0  0  0  0  0  0  0  0  0  0  0
    0.7010   -4.2660    0.1790 C   0  0  0  0  0  0  0  0  0  0  0  0
    0.6150   -2.9110    0.4350 C   0  0  0  0  0  0  0  0  0  0  0  0
    1.8640   -1.7080    0.7620 S   0  0  0  0  0  0  0  0  0  0  0  0
    0.7820   -0.3200    0.9500 C   0  0  0  0  0  0  0  0  0  0  0  0
    1.1700    1.0750    1.2740 C   0  0  0  0  0  0  0  0  0  0  0  0
    2.5070    1.2750    1.3830 O   0  0  0  0  0  0  0  0  0  0  0  0
    3.2710    1.0870    0.2550 C   0  0  0  0  0  0  0  0  0  0  0  0
    4.7260    1.3780    0.6470 C   0  0  0  0  0  0  0  0  0  0  0  0
    5.6420    1.1930   -0.5460 C   0  0  0  0  0  0  0  0  0  0  0  0
    5.2960    2.0520   -1.5900 O   0  0  0  0  0  0  0  0  0  0  0  0
    6.1320    1.8310   -2.5810 O   0  0  0  0  0  0  0  0  0  0  0  0
   -0.4570   -0.8650    0.7510 C   0  0  0  0  0  0  0  0  0  0  0  0
   -1.5840    0.0170    0.8370 O   0  0  0  0  0  0  0  0  0  0  0  0
   -1.9840    0.6340   -0.3560 C   0  0  0  0  0  0  0  0  0  0  0  0
   -3.1690    1.5260   -0.1190 C   0  0  1  0  0  0  0  0  0  0  0  0
   -4.2290    0.7670    0.3740 O   0  0  0  0  0  0  0  0  0  0  0  0
   -2.7760    2.6230    0.8680 C   0  0  0  0  0  0  0  0  0  0  0  0
   -3.3360    3.8990    0.3010 C   0  0  0  0  0  0  0  0  0  0  0  0
   -3.5600    3.6230   -1.1080 N   0  0  0  0  0  0  0  0  0  0  0  0
   -3.5240    2.2340   -1.3650 C   0  0  0  0  0  0  0  0  0  0  0  0
   -3.7540    1.6940   -2.4630 O   0  0  0  0  0  0  0  0  0  0  0  0
   -0.5230   -2.1860    0.4900 C   0  0  0  0  0  0  0  0  0  0  0  0
   -1.7000   -2.9420    0.2550 C   0  0  0  0  0  0  0  0  0  0  0  0
  1  2  1  0
  2  3  2  0
  2 26  1  0
  3  4  1  0
  4  5  2  0
  5  6  1  0
  5 25  1  0
  6  7  1  0
  7  8  1  0
  7 15  2  0
  8  9  1  0
  9 10  1  0
 10 11  1  0
 11 12  1  0
 12 13  1  0
 13 14  1  0
 15 16  1  0
 15 25  1  0
 16 17  1  0
 17 18  1  0
 18 19  1  1
 18 20  1  0
 18 23  1  0
 20 21  1  0
 21 22  1  0
 22 23  1  0
 23 24  2  0
 25 26  2  0
M  END
