
     RDKit          3D

 26 27  0  0  0  0  0  0  0  0999 V2000
   -5.1060   -3.2670    0.3230 C   0  0  0  0  0  0  0  0  0  0  0  0
   -4.3960   -1.9530    0.0870 C   0  0  0  0  0  0  0  0  0  0  0  0
   -4.9060   -0.9360    0.8890 O   0  0  0  0  0  0  0  0  0  0  0  0
   -4.0970    0.5440    0.6160 P   0  0  0  0  0  0  0  0  0  0  0  0
   -4.7870    1.5210   -0.6060 O   0  0  0  0  0  0  0  0  0  0  0  0
   -6.0600    1.9830   -0.2810 C   0  0  0  0  0  0  0  0  0  0  0  0
   -6.6460    2.8400   -1.3670 C   0  0  0  0  0  0  0  0  0  0  0  0
   -2.3160    0.3740    0.3410 C   0  0  0  0  0  0  0  0  0  0  0  0
   -1.7720   -0.2720   -0.7490 C   0  0  0  0  0  0  0  0  0  0  0  0
   -0.4070   -0.3590   -0.8870 C   0  0  0  0  0  0  0  0  0  0  0  0
    0.4670    0.1710    0.0150 C   0  0  0  0  0  0  0  0  0  0  0  0
    1.9100    0.0950   -0.1050 C   0  0  0  0  0  0  0  0  0  0  0  0
    2.5710    0.0840   -1.2950 C   0  0  0  0  0  0  0  0  0  0  0  0
    3.9350    0.0120   -1.3770 C   0  0  0  0  0  0  0  0  0  0  0  0
    4.7340   -0.0550   -0.2290 C   0  0  0  0  0  0  0  0  0  0  0  0
    6.1670   -0.1280   -0.4220 C   0  0  0  0  0  0  0  0  0  0  0  0
    6.6520   -0.1290   -1.6180 O   0  0  0  0  0  0  0  0  0  0  0  0
    7.1100   -0.2000    0.6190 N   0  0  0  0  0  0  0  0  0  0  0  0
    8.5270   -0.2700    0.3030 C   0  0  0  0  0  0  0  0  0  0  0  0
    8.9200   -0.2670   -0.8740 O   0  0  0  0  0  0  0  0  0  0  0  0
    9.4260   -0.3410    1.3340 O   0  0  0  0  0  0  0  0  0  0  0  0
    4.0810   -0.0440    0.9790 C   0  0  0  0  0  0  0  0  0  0  0  0
    4.8080   -0.1080    2.1510 O   0  0  0  0  0  0  0  0  0  0  0  0
    2.6750    0.0310    1.0390 C   0  0  0  0  0  0  0  0  0  0  0  0
   -0.0750    0.8300    1.1260 C   0  0  0  0  0  0  0  0  0  0  0  0
   -1.4550    0.9210    1.2710 C   0  0  0  0  0  0  0  0  0  0  0  0
  1  2  1  0
  2  3  1  0
  3  4  1  0
  4  5  1  0
  4  8  1  0
  5  6  1  0
  6  7  1  0
  8  9  2  0
  8 26  1  0
  9 10  1  0
 10 11  2  0
 11 12  1  0
 11 25  1  0
 12 13  2  0
 12 24  1  0
 13 14  1  0
 14 15  2  0
 15 16  1  0
 15 22  1  0
 16 17  2  0
 16 18  1  0
 18 19  1  0
 19 20  2  0
 19 21  1  0
 22 23  1  0
 22 24  2  0
 25 26  2  0
M  END
