
     RDKit          3D

 26 27  0  0  0  0  0  0  0  0999 V2000
   -6.9650   -1.9440    0.1440 C   0  0  0  0  0  0  0  0  0  0  0  0
   -5.6360   -1.9670    0.7880 C   0  0  0  0  0  0  0  0  0  0  0  0
   -4.4620   -2.1500   -0.2360 C   0  0  0  0  0  0  0  0  0  0  0  0
   -4.8240   -1.2020   -1.1510 O   0  0  0  0  0  0  0  0  0  0  0  0
   -3.8370    0.1320   -1.2410 P   0  0  0  0  0  0  0  0  0  0  0  0
   -4.8520    1.5570   -0.9620 O   0  0  0  0  0  0  0  0  0  0  0  0
   -4.7340    1.9630    0.3450 C   0  0  0  0  0  0  0  0  0  0  0  0
   -5.7800    3.0770    0.6250 C   0  0  0  0  0  0  0  0  0  0  0  0
   -2.3840    0.2160   -0.3850 O   0  0  0  0  0  0  0  0  0  0  0  0
   -1.2660    0.3120   -1.2680 C   0  0  0  0  0  0  0  0  0  0  0  0
   -0.1130    0.7470   -0.4570 C   0  0  0  0  0  0  0  0  0  0  0  0
    0.4370   -0.0170    0.5590 O   0  0  0  0  0  0  0  0  0  0  0  0
    1.3030   -1.0900    0.2000 C   0  0  0  0  0  0  0  0  0  0  0  0
    0.8430   -2.5420   -0.1740 S   0  0  0  0  0  0  0  0  0  0  0  0
    2.6750   -0.6650    0.2300 N   0  0  0  0  0  0  0  0  0  0  0  0
    2.8790    0.7480    0.6470 C   0  0  0  0  0  0  0  0  0  0  0  0
    3.9220    1.4090   -0.2640 C   0  0  0  0  0  0  0  0  0  0  0  0
    5.1600    0.6640    0.0730 C   0  0  0  0  0  0  0  0  0  0  0  0
    6.3350    1.2980    0.3540 C   0  0  0  0  0  0  0  0  0  0  0  0
    6.4430    2.6830    0.3230 O   0  0  0  0  0  0  0  0  0  0  0  0
    7.4600    0.5610    0.6780 C   0  0  0  0  0  0  0  0  0  0  0  0
    7.4210   -0.7970    0.7200 C   0  0  0  0  0  0  0  0  0  0  0  0
    6.2440   -1.4540    0.4380 C   0  0  0  0  0  0  0  0  0  0  0  0
    6.2640   -2.8290    0.4940 O   0  0  0  0  0  0  0  0  0  0  0  0
    5.0820   -0.7230    0.1100 C   0  0  0  0  0  0  0  0  0  0  0  0
    3.8240   -1.4170   -0.1670 C   0  0  0  0  0  0  0  0  0  0  0  0
  1  2  1  0
  2  3  1  0
  3  4  1  0
  4  5  1  0
  5  6  1  0
  5  9  1  0
  6  7  1  0
  7  8  1  0
  9 10  1  0
 10 11  1  0
 11 12  1  0
 12 13  1  0
 13 14  2  0
 13 15  1  0
 15 16  1  0
 15 26  1  0
 16 17  1  0
 17 18  1  0
 18 19  2  0
 18 25  1  0
 19 20  1  0
 19 21  1  0
 21 22  2  0
 22 23  1  0
 23 24  1  0
 23 25  2  0
 25 26  1  0
M  END
