
     RDKit          3D

 26 27  0  0  0  0  0  0  0  0999 V2000
    6.6190    0.5080   -1.1160 C   0  0  0  0  0  0  0  0  0  0  0  0
    5.5810    0.4570   -0.2850 C   0  0  0  0  0  0  0  0  0  0  0  0
    5.8110    0.5820    1.1300 C   0  0  0  0  0  0  0  0  0  0  0  0
    4.9280    0.5570    2.0920 C   0  0  0  0  0  0  0  0  0  0  0  0
    5.3340    0.6950    3.4210 O   0  0  0  0  0  0  0  0  0  0  0  0
    4.2730    0.2780   -0.8460 C   0  0  0  0  0  0  0  0  0  0  0  0
    4.1840    0.1760   -2.1310 O   0  0  0  0  0  0  0  0  0  0  0  0
    3.0690    0.1970   -0.1890 O   0  0  0  0  0  0  0  0  0  0  0  0
    1.8460    0.0160   -0.9040 C   0  0  0  0  0  0  0  0  0  0  0  0
    0.7460   -0.0280    0.0990 C   0  0  0  0  0  0  0  0  0  0  0  0
    0.9380    0.1730    1.8130 S   0  0  0  0  0  0  0  0  0  0  0  0
   -0.8280    0.0490    2.2640 C   0  0  0  0  0  0  0  0  0  0  0  0
   -1.3830   -0.1360    1.0430 C   0  0  0  0  0  0  0  0  0  0  0  0
   -2.8830   -0.2920    0.9550 C   0  0  0  0  0  0  0  0  0  0  0  0
   -3.3930   -1.4350    1.0340 O   0  0  0  0  0  0  0  0  0  0  0  0
   -3.6860    0.8550    0.7830 N   0  0  0  0  0  0  0  0  0  0  0  0
   -5.1320    0.8460    0.6840 C   0  0  0  0  0  0  0  0  0  0  0  0
   -5.5930    2.2650    0.7280 C   0  0  0  0  0  0  0  0  0  0  0  0
   -4.4300    2.9610    0.0030 C   0  0  0  0  0  0  0  0  0  0  0  0
   -3.2660    2.2530    0.6720 C   0  0  0  0  0  0  0  0  0  0  0  0
   -0.6170   -0.1800   -0.0640 C   0  0  0  0  0  0  0  0  0  0  0  0
   -1.1310   -0.3760   -1.3690 O   0  0  0  0  0  0  0  0  0  0  0  0
   -1.4440   -1.5630   -1.9680 C   0  0  0  0  0  0  0  0  0  0  0  0
   -0.3420   -2.5630   -2.1110 C   0  0  1  0  0  0  0  0  0  0  0  0
    0.1290   -3.0630   -0.7540 C   0  0  0  0  0  0  0  0  0  0  0  0
   -0.8510   -3.7090   -2.8030 O   0  0  0  0  0  0  0  0  0  0  0  0
  1  2  2  0
  2  3  1  0
  2  6  1  0
  3  4  2  3
  4  5  1  0
  6  7  2  0
  6  8  1  0
  8  9  1  0
  9 10  1  0
 10 11  1  0
 10 21  2  0
 11 12  1  0
 12 13  2  0
 13 14  1  0
 13 21  1  0
 14 15  2  0
 14 16  1  0
 16 17  1  0
 16 20  1  0
 17 18  1  0
 18 19  1  0
 19 20  1  0
 21 22  1  0
 22 23  1  0
 23 24  1  0
 24 25  1  1
 24 26  1  0
M  END
