
     RDKit          3D

 26 27  0  0  0  0  0  0  0  0999 V2000
   -4.8560    2.7200   -0.8830 C   0  0  0  0  0  0  0  0  0  0  0  0
   -4.9290    1.5260   -1.4030 C   0  0  0  0  0  0  0  0  0  0  0  0
   -6.1920    1.0790   -2.8340 P   0  0  0  0  0  0  0  0  0  0  0  0
   -5.6330   -0.6180   -2.9110 C   0  0  0  0  0  0  0  0  0  0  0  0
   -4.6230   -0.7250   -1.9420 C   0  0  0  0  0  0  0  0  0  0  0  0
   -4.2690    0.2780   -1.2120 C   0  0  0  0  0  0  0  0  0  0  0  0
   -3.1860    0.1810   -0.1660 C   0  0  0  0  0  0  0  0  0  0  0  0
   -2.8560    1.1600    0.5300 O   0  0  0  0  0  0  0  0  0  0  0  0
   -2.4990   -0.9830    0.0830 O   0  0  0  0  0  0  0  0  0  0  0  0
   -1.4960   -1.1520    1.0210 C   0  0  0  0  0  0  0  0  0  0  0  0
   -0.2750   -0.3240    0.8930 C   0  0  1  0  0  0  0  0  0  0  0  0
    0.6070   -0.7320    2.0550 C   0  0  0  0  0  0  0  0  0  0  0  0
    0.9760    0.0930    2.9270 O   0  0  0  0  0  0  0  0  0  0  0  0
    1.0360   -2.0430    2.1880 O   0  0  0  0  0  0  0  0  0  0  0  0
    1.8580   -2.4860    3.2460 C   0  0  0  0  0  0  0  0  0  0  0  0
    0.5220   -0.5270   -0.3730 C   0  0  1  0  0  0  0  0  0  0  0  0
   -0.2270   -0.2330   -1.6320 C   0  0  0  0  0  0  0  0  0  0  0  0
    0.6430   -0.5920   -2.6940 O   0  0  0  0  0  0  0  0  0  0  0  0
    1.7710    0.2310   -0.2930 N   0  0  0  0  0  0  0  0  0  0  0  0
    3.0250   -0.4260   -0.2750 C   0  0  0  0  0  0  0  0  0  0  0  0
    3.0880   -1.6800   -0.3270 O   0  0  0  0  0  0  0  0  0  0  0  0
    4.2110    0.4140   -0.1940 C   0  0  0  0  0  0  0  0  0  0  0  0
    4.3390    1.7490   -0.1310 C   0  0  0  0  0  0  0  0  0  0  0  0
    5.5690    2.2810   -0.0620 C   0  0  0  0  0  0  0  0  0  0  0  0
    6.6530    1.4850   -0.0560 C   0  0  0  0  0  0  0  0  0  0  0  0
    5.8950   -0.1810   -0.1570 S   0  0  0  0  0  0  0  0  0  0  0  0
  1  2  2  0
  2  3  1  0
  2  6  1  0
  3  4  2  0
  4  5  1  0
  5  6  2  0
  6  7  1  0
  7  8  2  0
  7  9  1  0
  9 10  1  0
 11 10  1  6
 11 12  1  0
 11 16  1  0
 12 13  2  0
 12 14  1  0
 14 15  1  0
 16 17  1  6
 16 19  1  0
 17 18  1  0
 19 20  1  0
 20 21  2  0
 20 22  1  0
 22 23  2  0
 22 26  1  0
 23 24  1  0
 24 25  2  0
 25 26  1  0
M  END
