
     RDKit          3D

 26 27  0  0  0  0  0  0  0  0999 V2000
    6.8270    2.2280   -0.5630 C   0  0  0  0  0  0  0  0  0  0  0  0
    5.5390    1.7960   -0.9080 O   0  0  0  0  0  0  0  0  0  0  0  0
    4.9540    0.6740   -0.2940 C   0  0  0  0  0  0  0  0  0  0  0  0
    5.6220   -0.0340    0.6580 C   0  0  0  0  0  0  0  0  0  0  0  0
    5.0270   -1.1180    1.2340 C   0  0  0  0  0  0  0  0  0  0  0  0
    3.7560   -1.4930    0.8520 C   0  0  0  0  0  0  0  0  0  0  0  0
    3.0770   -0.7890   -0.1040 C   0  0  0  0  0  0  0  0  0  0  0  0
    1.4320   -1.1980   -0.6620 S   0  0  0  0  0  0  0  0  0  0  0  0
    0.2640   -0.3330    0.3570 C   0  0  0  0  0  0  0  0  0  0  0  0
    0.6220    0.4100    1.2810 O   0  0  0  0  0  0  0  0  0  0  0  0
   -1.1760   -0.5480    0.0420 N   0  0  0  0  0  0  0  0  0  0  0  0
   -1.3810   -1.4290   -1.0460 C   0  0  0  0  0  0  0  0  0  0  0  0
   -1.3340   -0.8490   -2.4190 C   0  0  0  0  0  0  0  0  0  0  0  0
   -2.3290    0.1810   -2.7030 C   0  0  0  0  0  0  0  0  0  0  0  0
   -3.1770    0.5390   -1.8880 O   0  0  0  0  0  0  0  0  0  0  0  0
   -2.2920    0.7800   -3.9870 O   0  0  0  0  0  0  0  0  0  0  0  0
   -2.0180    0.1100    0.9310 C   0  0  0  0  0  0  0  0  0  0  0  0
   -1.3830    0.9180    1.7430 O   0  0  0  0  0  0  0  0  0  0  0  0
   -3.4490    0.0930    1.1500 C   0  0  0  0  0  0  0  0  0  0  0  0
   -4.2540   -0.9570    0.7650 C   0  0  0  0  0  0  0  0  0  0  0  0
   -5.6240   -1.0200    1.0400 C   0  0  0  0  0  0  0  0  0  0  0  0
   -6.2450   -0.0130    1.7260 C   0  0  0  0  0  0  0  0  0  0  0  0
   -5.4690    1.0340    2.1170 C   0  0  0  0  0  0  0  0  0  0  0  0
   -4.0850    1.1270    1.8520 C   0  0  0  0  0  0  0  0  0  0  0  0
   -3.4300    2.2220    2.2890 O   0  0  0  0  0  0  0  0  0  0  0  0
    3.6830    0.3080   -0.6850 C   0  0  0  0  0  0  0  0  0  0  0  0
  1  2  1  0
  2  3  1  0
  3  4  2  0
  3 26  1  0
  4  5  1  0
  5  6  2  0
  6  7  1  0
  7  8  1  0
  7 26  2  0
  8  9  1  0
  9 10  2  0
  9 11  1  0
 11 12  1  0
 11 17  1  0
 12 13  1  0
 13 14  1  0
 14 15  2  0
 14 16  1  0
 17 18  2  0
 17 19  1  0
 19 20  2  0
 19 24  1  0
 20 21  1  0
 21 22  2  0
 22 23  1  0
 23 24  2  0
 24 25  1  0
M  END
