
     RDKit          3D

 15 15  0  0  0  0  0  0  0  0999 V2000
   -3.3960    0.9250    0.6250 C   0  0  0  0  0  0  0  0  0  0  0  0
   -2.6780   -0.3740    0.5900 C   0  0  0  0  0  0  0  0  0  0  0  0
   -2.1780   -0.7140   -0.8220 C   0  0  0  0  0  0  0  0  0  0  0  0
   -2.8600   -1.6240   -1.5390 C   0  0  0  0  0  0  0  0  0  0  0  0
   -1.9180   -1.6960   -3.1180 S   0  0  0  0  0  0  0  0  0  0  0  0
   -0.7130   -0.4790   -2.6070 C   0  0  0  0  0  0  0  0  0  0  0  0
   -1.0950   -0.1100   -1.3080 C   0  0  0  0  0  0  0  0  0  0  0  0
   -0.2910    0.8760   -0.6320 O   0  0  0  0  0  0  0  0  0  0  0  0
    0.8230    0.4220    0.1010 C   0  0  0  0  0  0  0  0  0  0  0  0
    1.0210   -0.8070    0.1050 O   0  0  0  0  0  0  0  0  0  0  0  0
    1.6790    1.2770    0.7980 N   0  0  0  0  0  0  0  0  0  0  0  0
    2.8330    0.9840    1.5630 C   0  0  0  0  0  0  0  0  0  0  0  0
    4.0110    0.3840    0.9100 C   0  0  0  0  0  0  0  0  0  0  0  0
    3.7960   -1.2540    0.1270 P   0  0  0  0  0  0  0  0  0  0  0  0
    3.9720   -1.4520   -1.3930 O   0  0  0  0  0  0  0  0  0  0  0  0
  1  2  1  0
  2  3  1  0
  3  4  2  0
  3  7  1  0
  4  5  1  0
  5  6  1  0
  6  7  2  0
  7  8  1  0
  8  9  1  0
  9 10  2  0
  9 11  1  0
 11 12  1  0
 12 13  1  0
 13 14  1  0
 14 15  2  0
M  END
