
     RDKit          3D

 23 25  0  0  0  0  0  0  0  0999 V2000
    5.5950   -1.4280   -2.4830 N   0  0  0  0  0  0  0  0  0  0  0  0
    4.8190   -1.1880   -1.3260 C   0  0  0  0  0  0  0  0  0  0  0  0
    5.2910   -1.6260   -0.1450 N   0  0  0  0  0  0  0  0  0  0  0  0
    4.6030   -1.4300    0.9940 C   0  0  0  0  0  0  0  0  0  0  0  0
    3.4210   -0.7910    0.9850 N   0  0  0  0  0  0  0  0  0  0  0  0
    2.8720   -0.3160   -0.1660 C   0  0  0  0  0  0  0  0  0  0  0  0
    3.6050   -0.5340   -1.3190 C   0  0  0  0  0  0  0  0  0  0  0  0
    2.8980    0.0020   -2.3120 N   0  0  0  0  0  0  0  0  0  0  0  0
    1.7570    0.5380   -1.7880 C   0  0  0  0  0  0  0  0  0  0  0  0
    1.7370    0.3430   -0.4640 N   0  0  0  0  0  0  0  0  0  0  0  0
    0.7410    0.7360    0.4750 C   0  0  2  0  0  0  0  0  0  0  0  0
   -0.3740   -0.0910    0.4680 O   0  0  0  0  0  0  0  0  0  0  0  0
   -1.3640    0.5740    1.1540 C   0  0  2  0  0  0  0  0  0  0  0  0
   -2.7150    0.3080    0.4750 C   0  0  0  0  0  0  0  0  0  0  0  0
   -3.0280   -1.0130    0.4540 O   0  0  0  0  0  0  0  0  0  0  0  0
   -4.3900   -1.5190   -0.2100 P   0  0  0  0  0  0  0  0  0  0  0  0
   -5.1490   -0.1950   -0.2010 O   0  0  0  0  0  0  0  0  0  0  0  0
   -4.5550   -1.6740   -1.8610 O   0  0  0  0  0  0  0  0  0  0  0  0
   -5.9310   -2.2820    1.0030 S   0  0  0  0  0  0  0  0  0  0  0  0
   -1.0910    2.0480    1.0420 C   0  0  1  0  0  0  0  0  0  0  0  0
   -0.6620    2.4980    2.2820 O   0  0  0  0  0  0  0  0  0  0  0  0
    0.0980    2.0780    0.1030 C   0  0  1  0  0  0  0  0  0  0  0  0
    0.9600    3.1300    0.3910 O   0  0  0  0  0  0  0  0  0  0  0  0
  1  2  1  0
  2  3  2  0
  2  7  1  0
  3  4  1  0
  4  5  2  0
  5  6  1  0
  6  7  2  0
  6 10  1  0
  7  8  1  0
  8  9  2  0
  9 10  1  0
 11 10  1  6
 11 12  1  0
 11 22  1  0
 12 13  1  0
 13 14  1  6
 13 20  1  0
 14 15  1  0
 15 16  1  0
 16 17  1  0
 16 18  1  0
 16 19  1  0
 20 21  1  1
 20 22  1  0
 22 23  1  1
M  END
