
     RDKit          3D

 16 16  0  0  0  0  0  0  0  0999 V2000
   -5.0950   -0.1870   -0.2340 C   0  0  0  0  0  0  0  0  0  0  0  0
   -4.0620   -1.0110   -0.7280 O   0  0  0  0  0  0  0  0  0  0  0  0
   -2.7510   -0.6370   -0.5190 C   0  0  0  0  0  0  0  0  0  0  0  0
   -1.6900   -1.3780   -0.9650 C   0  0  0  0  0  0  0  0  0  0  0  0
   -0.3780   -0.9500   -0.7250 C   0  0  0  0  0  0  0  0  0  0  0  0
   -0.0730    0.2050   -0.0480 C   0  0  0  0  0  0  0  0  0  0  0  0
    1.2210    0.6650    0.2050 N   0  0  0  0  0  0  0  0  0  0  0  0
    2.4790    0.1870   -0.0630 C   0  0  0  0  0  0  0  0  0  0  0  0
    3.7760    1.1080    0.4430 S   0  0  0  0  0  0  0  0  0  0  0  0
    2.8170   -1.0560   -0.7510 C   0  0  0  0  0  0  0  0  0  0  0  0
    4.6840   -1.2560   -0.9110 P   0  0  0  0  0  0  0  0  0  0  0  0
    5.4140   -1.4310    0.6450 O   0  0  0  0  0  0  0  0  0  0  0  0
    5.3490    0.1190   -1.6930 O   0  0  0  0  0  0  0  0  0  0  0  0
   -1.1830    0.9450    0.3970 C   0  0  0  0  0  0  0  0  0  0  0  0
   -0.8910    2.2020    1.1350 C   0  0  0  0  0  0  0  0  0  0  0  0
   -2.4680    0.5200    0.1590 C   0  0  0  0  0  0  0  0  0  0  0  0
  1  2  1  0
  2  3  1  0
  3  4  2  0
  3 16  1  0
  4  5  1  0
  5  6  2  0
  6  7  1  0
  6 14  1  0
  7  8  1  0
  8  9  2  0
  8 10  1  0
 10 11  1  0
 11 12  1  0
 11 13  1  0
 14 15  1  0
 14 16  2  0
M  END
