
     RDKit          3D

 15 15  0  0  0  0  0  0  0  0999 V2000
    4.0010    0.6330   -1.1370 C   0  0  0  0  0  0  0  0  0  0  0  0
    3.7660   -0.7070   -0.5770 C   0  0  0  0  0  0  0  0  0  0  0  0
    4.6700   -1.5610   -0.6650 O   0  0  0  0  0  0  0  0  0  0  0  0
    2.4600   -1.0450    0.0910 C   0  0  0  0  0  0  0  0  0  0  0  0
    2.2540   -2.3310    0.6200 C   0  0  0  0  0  0  0  0  0  0  0  0
    0.5910   -2.2130    1.2820 S   0  0  0  0  0  0  0  0  0  0  0  0
    0.2910   -0.5440    0.8340 C   0  0  0  0  0  0  0  0  0  0  0  0
   -0.9520    0.1340    1.1320 C   0  0  0  0  0  0  0  0  0  0  0  0
   -1.2280    1.2650    0.2660 N   0  0  0  0  0  0  0  0  0  0  0  0
   -2.4830    1.8320    0.7410 C   0  0  0  0  0  0  0  0  0  0  0  0
   -1.3530    0.8480   -1.1230 C   0  0  0  0  0  0  0  0  0  0  0  0
   -2.7360   -0.3650   -1.3460 P   0  0  0  0  0  0  0  0  0  0  0  0
   -4.2370    0.2320   -0.7810 O   0  0  0  0  0  0  0  0  0  0  0  0
   -2.3530   -1.9080   -0.6970 O   0  0  0  0  0  0  0  0  0  0  0  0
    1.4520   -0.1930    0.2230 C   0  0  0  0  0  0  0  0  0  0  0  0
  1  2  1  0
  2  3  2  0
  2  4  1  0
  4  5  2  0
  4 15  1  0
  5  6  1  0
  6  7  1  0
  7  8  1  0
  7 15  2  0
  8  9  1  0
  9 10  1  0
  9 11  1  0
 11 12  1  0
 12 13  1  0
 12 14  1  0
M  END
