
     RDKit          3D

 15 15  0  0  0  0  0  0  0  0999 V2000
   -2.9020    2.5640    0.7470 C   0  0  0  0  0  0  0  0  0  0  0  0
   -2.6030    1.1660    0.3080 C   0  0  0  0  0  0  0  0  0  0  0  0
   -3.5880    0.3790   -0.2540 C   0  0  0  0  0  0  0  0  0  0  0  0
   -3.3000   -0.9290   -0.6630 C   0  0  0  0  0  0  0  0  0  0  0  0
   -4.6000   -1.9340   -1.3910 S   0  0  0  0  0  0  0  0  0  0  0  0
   -2.0210   -1.4310   -0.5010 C   0  0  0  0  0  0  0  0  0  0  0  0
   -1.0230   -0.6500    0.0630 C   0  0  0  0  0  0  0  0  0  0  0  0
    0.3470   -1.2050    0.2330 C   0  0  0  0  0  0  0  0  0  0  0  0
    1.2130   -0.8340   -0.8260 N   0  0  0  0  0  0  0  0  0  0  0  0
    2.5440   -1.3280   -0.7500 C   0  0  0  0  0  0  0  0  0  0  0  0
    3.2840   -0.6930    0.3950 C   0  0  0  0  0  0  0  0  0  0  0  0
    3.3450    1.1350    0.1570 P   0  0  0  0  0  0  0  0  0  0  0  0
    3.5080    1.5590   -1.5170 O   0  0  0  0  0  0  0  0  0  0  0  0
    4.6190    1.8370    1.1120 O   0  0  0  0  0  0  0  0  0  0  0  0
   -1.3400    0.6320    0.4540 C   0  0  0  0  0  0  0  0  0  0  0  0
  1  2  1  0
  2  3  2  0
  2 15  1  0
  3  4  1  0
  4  5  1  0
  4  6  2  0
  6  7  1  0
  7  8  1  0
  7 15  2  0
  8  9  1  0
  9 10  1  0
 10 11  1  0
 11 12  1  0
 12 13  1  0
 12 14  1  0
M  END
