
     RDKit          3D

 16 16  0  0  0  0  0  0  0  0999 V2000
   -3.3100    2.9420   -0.5200 C   0  0  0  0  0  0  0  0  0  0  0  0
   -2.1730    1.9660   -0.4020 C   0  0  0  0  0  0  0  0  0  0  0  0
   -2.6810    0.6920   -0.1010 O   0  0  0  0  0  0  0  0  0  0  0  0
   -1.5680   -0.4760   -0.1070 P   0  0  0  0  0  0  0  0  0  0  0  0
   -1.5900   -1.9360   -0.9570 O   0  0  0  0  0  0  0  0  0  0  0  0
   -2.8470   -2.5520   -1.0350 C   0  0  0  0  0  0  0  0  0  0  0  0
   -2.5520   -3.9950   -0.5420 C   0  0  0  0  0  0  0  0  0  0  0  0
   -0.2120   -0.4570    0.9540 O   0  0  0  0  0  0  0  0  0  0  0  0
    1.0520    0.0050    0.5300 C   0  0  0  0  0  0  0  0  0  0  0  0
    1.4450    1.2650    0.9040 C   0  0  0  0  0  0  0  0  0  0  0  0
    2.7210    1.7130    0.5680 C   0  0  0  0  0  0  0  0  0  0  0  0
    3.6300    0.9480   -0.0920 C   0  0  0  0  0  0  0  0  0  0  0  0
    4.9740    1.3820   -0.0100 N   0  0  0  0  0  0  0  0  0  0  0  0
    3.1680   -0.3230   -0.4600 C   0  0  0  0  0  0  0  0  0  0  0  0
    4.3680   -1.3770   -1.3120 S   0  0  0  0  0  0  0  0  0  0  0  0
    1.8920   -0.7580   -0.1690 C   0  0  0  0  0  0  0  0  0  0  0  0
  1  2  1  0
  2  3  1  0
  3  4  1  0
  4  5  1  0
  4  8  1  0
  5  6  1  0
  6  7  1  0
  8  9  1  0
  9 10  2  0
  9 16  1  0
 10 11  1  0
 11 12  2  0
 12 13  1  0
 12 14  1  0
 14 15  1  0
 14 16  2  0
M  END
