
     RDKit          3D

 16 16  0  0  0  0  0  0  0  0999 V2000
   -5.0200    1.5510   -1.6960 O   0  0  0  0  0  0  0  0  0  0  0  0
   -4.2110    0.8320   -1.1840 C   0  0  0  0  0  0  0  0  0  0  0  0
   -4.2860    0.7140    0.2800 C   0  0  0  0  0  0  0  0  0  0  0  0
   -2.9190    0.4780    0.9340 C   0  0  0  0  0  0  0  0  0  0  0  0
   -2.3980   -0.8930    0.7730 C   0  0  0  0  0  0  0  0  0  0  0  0
   -1.5740   -1.1770   -0.4520 C   0  0  2  0  0  0  0  0  0  0  0  0
   -0.3680   -1.8840   -0.1820 N   0  0  0  0  0  0  0  0  0  0  0  0
    0.6290   -1.3380    0.6310 C   0  0  0  0  0  0  0  0  0  0  0  0
    1.4450   -0.1970    0.0850 C   0  0  0  0  0  0  0  0  0  0  0  0
    2.4390    0.2100    1.1830 C   0  0  0  0  0  0  0  0  0  0  0  0
    3.3120    1.3470    0.6960 C   0  0  0  0  0  0  0  0  0  0  0  0
    4.3090    0.8400   -0.7880 P   0  0  0  0  0  0  0  0  0  0  0  0
    5.8480    1.6970   -0.7770 O   0  0  0  0  0  0  0  0  0  0  0  0
    4.6100   -0.8670   -0.8180 O   0  0  0  0  0  0  0  0  0  0  0  0
   -1.4690   -0.0490   -1.4140 C   0  0  0  0  0  0  0  0  0  0  0  0
   -3.0710    0.0460   -2.2970 S   0  0  0  0  0  0  0  0  0  0  0  0
  1  2  2  0
  2  3  1  0
  2 16  1  0
  3  4  1  0
  4  5  1  0
  5  6  1  0
  6  7  1  1
  6 15  1  0
  7  8  1  0
  8  9  1  0
  9 10  1  0
 10 11  1  0
 11 12  1  0
 12 13  1  0
 12 14  1  0
 15 16  1  0
M  END
