
     RDKit          3D

 32 36  0  0  0  0  0  0  0  0999 V2000
    9.1560   -0.9020    0.9500 C   0  0  0  0  0  0  0  0  0  0  0  0
    8.5960   -0.9510   -0.4030 N   0  0  0  0  0  0  0  0  0  0  0  0
    7.9790    0.3510   -0.7000 C   0  0  0  0  0  0  0  0  0  0  0  0
    6.6960    0.4110    0.0580 C   0  0  0  0  0  0  0  0  0  0  0  0
    6.1400   -0.5420    0.8670 C   0  0  0  0  0  0  0  0  0  0  0  0
    4.9910   -0.0620    1.3360 N   0  0  0  0  0  0  0  0  0  0  0  0
    4.7870    1.1690    0.8570 N   0  0  0  0  0  0  0  0  0  0  0  0
    3.6510    2.0160    1.1380 C   0  0  0  0  0  0  0  0  0  0  0  0
    2.6140    1.7540    0.1380 C   0  0  0  0  0  0  0  0  0  0  0  0
    2.2920    2.5660   -0.9460 C   0  0  0  0  0  0  0  0  0  0  0  0
    1.3020    1.9700   -1.6010 N   0  0  0  0  0  0  0  0  0  0  0  0
    0.9590    0.8070   -0.9990 C   0  0  0  0  0  0  0  0  0  0  0  0
    0.0200   -0.1780   -1.2550 C   0  0  0  0  0  0  0  0  0  0  0  0
   -0.1240   -1.2890   -0.4630 C   0  0  0  0  0  0  0  0  0  0  0  0
   -1.1340   -2.2920   -0.7870 C   0  0  0  0  0  0  0  0  0  0  0  0
   -2.4280   -2.0170   -0.1400 N   0  0  0  0  0  0  0  0  0  0  0  0
   -2.8200   -2.4520    1.0650 C   0  0  0  0  0  0  0  0  0  0  0  0
   -4.0910   -1.9640    1.2760 C   0  0  0  0  0  0  0  0  0  0  0  0
   -4.4540   -1.2250    0.1720 C   0  0  0  0  0  0  0  0  0  0  0  0
   -5.7210   -0.5290   -0.0230 C   0  0  0  0  0  0  0  0  0  0  0  0
   -5.9970    0.1900   -1.1660 C   0  0  0  0  0  0  0  0  0  0  0  0
   -7.1960    0.8480   -1.3480 C   0  0  0  0  0  0  0  0  0  0  0  0
   -8.1860    0.8110   -0.3750 C   0  0  0  0  0  0  0  0  0  0  0  0
   -9.4830    1.5290   -0.5880 C   0  0  0  0  0  0  0  0  0  0  0  0
  -10.3140    1.3300    0.5770 N   0  0  0  0  0  0  0  0  0  0  0  0
   -7.9210    0.0970    0.7670 C   0  0  0  0  0  0  0  0  0  0  0  0
   -6.7020   -0.5660    0.9420 C   0  0  0  0  0  0  0  0  0  0  0  0
   -3.3970   -1.2980   -0.6510 N   0  0  0  0  0  0  0  0  0  0  0  0
    0.6890   -1.4440    0.6330 C   0  0  0  0  0  0  0  0  0  0  0  0
    1.6300   -0.4680    0.8990 C   0  0  0  0  0  0  0  0  0  0  0  0
    1.7750    0.6480    0.1040 C   0  0  0  0  0  0  0  0  0  0  0  0
    5.8270    1.4960    0.0580 C   0  0  0  0  0  0  0  0  0  0  0  0
  1  2  1  0
  2  3  1  0
  3  4  1  0
  4  5  1  0
  4 32  2  0
  5  6  2  0
  6  7  1  0
  7  8  1  0
  7 32  1  0
  8  9  1  0
  9 10  2  0
  9 31  1  0
 10 11  1  0
 11 12  1  0
 12 13  2  0
 12 31  1  0
 13 14  1  0
 14 15  1  0
 14 29  2  0
 15 16  1  0
 16 17  1  0
 16 28  1  0
 17 18  2  0
 18 19  1  0
 19 20  1  0
 19 28  2  0
 20 21  2  0
 20 27  1  0
 21 22  1  0
 22 23  2  0
 23 24  1  0
 23 26  1  0
 24 25  1  0
 26 27  2  0
 29 30  1  0
 30 31  2  0
M  CHG  1   2   1
M  END
