
     RDKit          3D

 32 36  0  0  0  0  0  0  0  0999 V2000
   -5.0930   -3.3540   -2.2640 C   0  0  0  0  0  0  0  0  0  0  0  0
   -4.4460   -2.8350   -1.0190 C   0  0  0  0  0  0  0  0  0  0  0  0
   -3.1770   -2.2860   -1.0390 C   0  0  0  0  0  0  0  0  0  0  0  0
   -2.5700   -1.8060    0.0950 C   0  0  0  0  0  0  0  0  0  0  0  0
   -1.2680   -1.2370    0.1040 N   0  0  0  0  0  0  0  0  0  0  0  0
   -0.1190   -1.8590    0.2500 N   0  0  0  0  0  0  0  0  0  0  0  0
    0.9300   -0.9850    0.2060 C   0  0  0  0  0  0  0  0  0  0  0  0
    2.3080   -1.3220    0.3310 N   0  0  0  0  0  0  0  0  0  0  0  0
    3.3810   -0.4400    0.2870 C   0  0  0  0  0  0  0  0  0  0  0  0
    3.2820    0.9130    0.1140 C   0  0  0  0  0  0  0  0  0  0  0  0
    4.3960    1.7540    0.0780 C   0  0  0  0  0  0  0  0  0  0  0  0
    5.6450    1.2450    0.2160 C   0  0  0  0  0  0  0  0  0  0  0  0
    5.7830   -0.1130    0.3930 C   0  0  0  0  0  0  0  0  0  0  0  0
    4.6770   -0.9360    0.4270 C   0  0  0  0  0  0  0  0  0  0  0  0
    7.1520   -0.6480    0.5430 C   0  0  0  0  0  0  0  0  0  0  0  0
    8.1210   -0.0400   -0.3070 N   0  0  0  0  0  0  0  0  0  0  0  0
    7.8830    1.3170   -0.6630 C   0  0  0  0  0  0  0  0  0  0  0  0
    6.9020    2.0440    0.1940 C   0  0  0  0  0  0  0  0  0  0  0  0
    0.3560    0.2170    0.0230 N   0  0  0  0  0  0  0  0  0  0  0  0
   -0.9770    0.0750   -0.0410 C   0  0  0  0  0  0  0  0  0  0  0  0
   -2.0120    1.1140   -0.2320 C   0  0  0  0  0  0  0  0  0  0  0  0
   -1.4150    2.4410   -0.3590 N   0  0  0  0  0  0  0  0  0  0  0  0
   -2.2150    3.6000   -0.5510 C   0  0  0  0  0  0  0  0  0  0  0  0
   -2.7430    4.3040    0.4460 C   0  0  0  0  0  0  0  0  0  0  0  0
   -3.4970    5.4190   -0.1460 C   0  0  0  0  0  0  0  0  0  0  0  0
   -3.3170    5.2380   -1.5580 N   0  0  0  0  0  0  0  0  0  0  0  0
   -2.5890    4.2070   -1.8140 C   0  0  0  0  0  0  0  0  0  0  0  0
   -3.2670   -1.8830    1.2800 C   0  0  0  0  0  0  0  0  0  0  0  0
   -4.5550   -2.4370    1.3160 C   0  0  0  0  0  0  0  0  0  0  0  0
   -5.3150   -2.5240    2.5930 C   0  0  0  0  0  0  0  0  0  0  0  0
   -5.1400   -2.9100    0.1720 C   0  0  0  0  0  0  0  0  0  0  0  0
   -6.5160   -3.4940    0.2490 C   0  0  0  0  0  0  0  0  0  0  0  0
  1  2  1  0
  2  3  2  0
  2 31  1  0
  3  4  1  0
  4  5  1  0
  4 28  2  0
  5  6  1  0
  5 20  1  0
  6  7  2  0
  7  8  1  0
  7 19  1  0
  8  9  1  0
  9 10  2  0
  9 14  1  0
 10 11  1  0
 11 12  2  0
 12 13  1  0
 12 18  1  0
 13 14  2  0
 13 15  1  0
 15 16  1  0
 16 17  1  0
 17 18  1  0
 19 20  2  0
 20 21  1  0
 21 22  1  0
 22 23  1  0
 23 24  2  0
 23 27  1  0
 24 25  1  0
 25 26  1  0
 26 27  2  0
 28 29  1  0
 29 30  1  0
 29 31  2  0
 31 32  1  0
M  CHG  1  16   1
M  END
