
     RDKit          3D

 32 36  0  0  0  0  0  0  0  0999 V2000
    6.5260   -1.6090   -2.0360 C   0  0  0  0  0  0  0  0  0  0  0  0
    5.4370   -1.1800   -1.1230 C   0  0  0  0  0  0  0  0  0  0  0  0
    5.6580   -0.5250   -0.0060 C   0  0  0  0  0  0  0  0  0  0  0  0
    6.9290   -0.0510    0.6460 C   0  0  0  0  0  0  0  0  0  0  0  0
    6.4630    0.6800    1.8580 C   0  0  0  0  0  0  0  0  0  0  0  0
    5.0370    0.5530    1.8780 N   0  0  0  0  0  0  0  0  0  0  0  0
    4.5900   -0.0920    0.8650 C   0  0  0  0  0  0  0  0  0  0  0  0
    3.2570   -0.4320    0.4230 N   0  0  0  0  0  0  0  0  0  0  0  0
    3.0980   -1.1310   -0.7760 C   0  0  0  0  0  0  0  0  0  0  0  0
    1.7290   -1.2560   -1.4380 C   0  0  0  0  0  0  0  0  0  0  0  0
    0.8490   -0.5120   -0.8900 C   0  0  0  0  0  0  0  0  0  0  0  0
   -0.3630   -0.0680   -0.8260 N   0  0  0  0  0  0  0  0  0  0  0  0
   -1.4850    0.0390   -0.5060 C   0  0  0  0  0  0  0  0  0  0  0  0
   -2.1440   -0.7580    0.4150 N   0  0  0  0  0  0  0  0  0  0  0  0
   -2.0010   -2.1490    0.7600 C   0  0  0  0  0  0  0  0  0  0  0  0
   -3.2010   -2.8600    0.2530 C   0  0  0  0  0  0  0  0  0  0  0  0
   -3.5950   -2.9890   -1.0280 C   0  0  0  0  0  0  0  0  0  0  0  0
   -4.6660   -3.7520   -1.3880 C   0  0  0  0  0  0  0  0  0  0  0  0
   -5.3750   -4.4270   -0.4370 N   0  0  0  0  0  0  0  0  0  0  0  0
   -5.0410   -4.3660    0.8920 C   0  0  0  0  0  0  0  0  0  0  0  0
   -3.9340   -3.5580    1.2060 C   0  0  0  0  0  0  0  0  0  0  0  0
   -3.5780   -3.4230    2.6160 C   0  0  0  0  0  0  0  0  0  0  0  0
   -2.1110    1.3920   -0.8460 C   0  0  0  0  0  0  0  0  0  0  0  0
   -1.7700    2.0010   -2.0070 C   0  0  0  0  0  0  0  0  0  0  0  0
   -2.0590    3.3570   -2.2050 C   0  0  0  0  0  0  0  0  0  0  0  0
   -2.6970    4.0680   -1.2000 C   0  0  0  0  0  0  0  0  0  0  0  0
   -3.0460    3.4450   -0.0280 C   0  0  0  0  0  0  0  0  0  0  0  0
   -2.7480    2.0900    0.1420 C   0  0  0  0  0  0  0  0  0  0  0  0
   -3.6490    4.4420    0.8630 C   0  0  0  0  0  0  0  0  0  0  0  0
   -3.1360    5.7520    0.2820 C   0  0  0  0  0  0  0  0  0  0  0  0
   -3.0210    5.4560   -1.1140 N   0  0  0  0  0  0  0  0  0  0  0  0
    4.0910   -1.4880   -1.4980 N   0  0  0  0  0  0  0  0  0  0  0  0
  1  2  1  0
  2  3  2  0
  2 32  1  0
  3  4  1  0
  3  7  1  0
  4  5  1  0
  5  6  1  0
  6  7  2  0
  7  8  1  0
  8  9  1  0
  9 10  1  0
  9 32  2  0
 10 11  2  3
 11 12  1  0
 12 13  2  3
 13 14  1  0
 13 23  1  0
 14 15  1  0
 15 16  1  0
 16 17  2  0
 16 21  1  0
 17 18  1  0
 18 19  2  0
 19 20  1  0
 20 21  2  0
 21 22  1  0
 23 24  2  0
 23 28  1  0
 24 25  1  0
 25 26  2  0
 26 27  1  0
 26 31  1  0
 27 28  2  0
 27 29  1  0
 29 30  1  0
 30 31  1  0
M  CHG  1   6   1
M  END
