
     RDKit          3D

 31 33  0  0  0  0  0  0  0  0999 V2000
   -5.2030    1.8250    1.6680 C   0  0  0  0  0  0  0  0  0  0  0  0
   -4.1420    1.1260    1.0930 O   0  0  0  0  0  0  0  0  0  0  0  0
   -3.1100    1.7110    0.4090 C   0  0  0  0  0  0  0  0  0  0  0  0
   -3.0980    3.0820    0.2660 C   0  0  0  0  0  0  0  0  0  0  0  0
   -2.0830    3.7020   -0.4110 C   0  0  0  0  0  0  0  0  0  0  0  0
   -1.0780    2.9310   -0.9450 C   0  0  0  0  0  0  0  0  0  0  0  0
   -1.1070    1.5420   -0.7900 C   0  0  0  0  0  0  0  0  0  0  0  0
   -0.0000    0.7930   -1.3980 C   0  0  0  0  0  0  0  0  0  0  0  0
    1.2320    1.0680   -0.5570 C   0  0  1  0  0  0  0  0  0  0  0  0
    1.1170    0.6860    0.8110 N   0  0  0  0  0  0  0  0  0  0  0  0
    2.3570    0.2820   -1.1480 C   0  0  0  0  0  0  0  0  0  0  0  0
    2.6220    0.4710   -2.3510 O   0  0  0  0  0  0  0  0  0  0  0  0
    3.0910   -0.6170   -0.4270 O   0  0  0  0  0  0  0  0  0  0  0  0
    4.1360   -1.3310   -1.0210 C   0  0  2  0  0  0  0  0  0  0  0  0
    3.9010   -2.8240   -1.0160 C   0  0  0  0  0  0  0  0  0  0  0  0
    3.7640   -3.3350    0.2730 O   0  0  0  0  0  0  0  0  0  0  0  0
    5.4770   -0.9860   -0.3900 C   0  0  1  0  0  0  0  0  0  0  0  0
    5.7230    0.3800   -0.5130 O   0  0  0  0  0  0  0  0  0  0  0  0
    5.4720   -1.2880    0.9640 O   0  0  0  0  0  0  0  0  0  0  0  0
   -2.1020    0.8940   -0.1230 C   0  0  0  0  0  0  0  0  0  0  0  0
   -2.1820   -0.4230    0.0500 O   0  0  0  0  0  0  0  0  0  0  0  0
   -1.7810   -1.3510    0.9590 C   0  0  1  0  0  0  0  0  0  0  0  0
   -2.9370   -2.0030    1.7170 C   0  0  0  0  0  0  0  0  0  0  0  0
   -2.3160   -3.1540    2.2050 O   0  0  0  0  0  0  0  0  0  0  0  0
   -1.6160   -3.6950    1.1360 C   0  0  0  0  0  0  0  0  0  0  0  0
   -1.1910   -2.5470    0.2610 C   0  0  2  0  0  0  0  0  0  0  0  0
    0.1780   -2.4910    0.0860 O   0  0  0  0  0  0  0  0  0  0  0  0
   -1.8390   -2.6410   -0.9930 O   0  0  0  0  0  0  0  0  0  0  0  0
   -0.2150    3.8310   -1.5580 O   0  0  0  0  0  0  0  0  0  0  0  0
   -0.6720    5.1450   -1.4360 C   0  0  0  0  0  0  0  0  0  0  0  0
   -1.8450    5.0500   -0.6890 O   0  0  0  0  0  0  0  0  0  0  0  0
  1  2  1  0
  2  3  1  0
  3  4  2  0
  3 20  1  0
  4  5  1  0
  5  6  2  0
  5 31  1  0
  6  7  1  0
  6 29  1  0
  7  8  1  0
  7 20  2  0
  8  9  1  0
  9 10  1  1
  9 11  1  0
 11 12  2  0
 11 13  1  0
 13 14  1  0
 14 15  1  1
 14 17  1  0
 15 16  1  0
 17 18  1  1
 17 19  1  0
 20 21  1  0
 22 21  1  6
 22 23  1  0
 22 26  1  0
 23 24  1  0
 24 25  1  0
 25 26  1  0
 26 27  1  6
 26 28  1  0
 29 30  1  0
 30 31  1  0
M  CHG  2  10   1  18  -1
M  END
