
     RDKit          3D

 31 31  0  0  0  0  0  0  0  0999 V2000
    6.0100    1.5330   -1.3140 C   0  0  0  0  0  0  0  0  0  0  0  0
    5.1100    1.0030   -0.2460 C   0  0  1  0  0  0  0  0  0  0  0  0
    3.8480    0.7060   -0.7800 O   0  0  0  0  0  0  0  0  0  0  0  0
    2.6780    1.3580   -0.3800 C   0  0  0  0  0  0  0  0  0  0  0  0
    2.8480    2.2350    0.5060 O   0  0  0  0  0  0  0  0  0  0  0  0
    1.3870    1.0430   -0.9440 C   0  0  0  0  0  0  0  0  0  0  0  0
    0.2280    1.5610   -0.6680 C   0  0  0  0  0  0  0  0  0  0  0  0
   -0.0420    2.6270    0.3220 C   0  0  0  0  0  0  0  0  0  0  0  0
   -0.8670    2.1510    1.3480 O   0  0  0  0  0  0  0  0  0  0  0  0
   -1.7500    1.1800    0.8690 C   0  0  0  0  0  0  0  0  0  0  0  0
   -2.1380    1.4390   -0.5690 C   0  0  2  0  0  0  0  0  0  0  0  0
   -3.2770    0.5100   -0.9240 C   0  0  0  0  0  0  0  0  0  0  0  0
   -4.3820    0.8440   -0.1700 O   0  0  0  0  0  0  0  0  0  0  0  0
   -5.4940    0.0650   -0.4270 C   0  0  2  0  0  0  0  0  0  0  0  0
   -6.5530    0.8400   -0.9440 O   0  0  0  0  0  0  0  0  0  0  0  0
   -5.9820   -0.6570    0.8150 C   0  0  1  0  0  0  0  0  0  0  0  0
   -6.3320    0.2170    1.8200 O   0  0  0  0  0  0  0  0  0  0  0  0
   -7.2010   -1.5040    0.5110 C   0  0  0  0  0  0  0  0  0  0  0  0
   -6.9400   -2.4670   -0.5420 N   0  0  0  0  0  0  0  0  0  0  0  0
   -7.5550   -3.7110   -0.2050 C   0  0  0  0  0  0  0  0  0  0  0  0
   -8.4840   -4.2080   -0.8950 O   0  0  0  0  0  0  0  0  0  0  0  0
   -7.1270   -4.3990    0.9080 O   0  0  0  0  0  0  0  0  0  0  0  0
   -0.9560    1.1240   -1.3310 O   0  0  0  0  0  0  0  0  0  0  0  0
    5.7480   -0.1820    0.4140 C   0  0  0  0  0  0  0  0  0  0  0  0
    6.1170   -0.0230    1.6580 C   0  0  0  0  0  0  0  0  0  0  0  0
    6.7480   -0.8920    2.6270 C   0  0  0  0  0  0  0  0  0  0  0  0
    5.8550   -1.0030    3.7230 O   0  0  0  0  0  0  0  0  0  0  0  0
    5.9730   -1.3970   -0.3180 C   0  0  0  0  0  0  0  0  0  0  0  0
    6.6490   -2.4560    0.3550 O   0  0  0  0  0  0  0  0  0  0  0  0
    5.6170   -1.6400   -1.5640 C   0  0  0  0  0  0  0  0  0  0  0  0
    4.9670   -0.8160   -2.4260 O   0  0  0  0  0  0  0  0  0  0  0  0
  2  1  1  6
  2  3  1  0
  2 24  1  0
  3  4  1  0
  4  5  2  0
  4  6  1  0
  6  7  2  3
  7  8  1  0
  7 23  1  0
  8  9  1  0
  9 10  1  0
 10 11  1  0
 11 12  1  6
 11 23  1  0
 12 13  1  0
 13 14  1  0
 14 15  1  1
 14 16  1  0
 16 17  1  1
 16 18  1  0
 18 19  1  0
 19 20  1  0
 20 21  2  0
 20 22  1  0
 24 25  2  3
 24 28  1  0
 25 26  1  0
 26 27  1  0
 28 29  1  0
 28 30  2  3
 30 31  1  0
M  CHG  2  19   1  22  -1
M  END
