
     RDKit          3D

 31 33  0  0  0  0  0  0  0  0999 V2000
   -4.7020    0.8090   -0.6400 C   0  0  0  0  0  0  0  0  0  0  0  0
   -4.6070   -0.5260   -0.0210 C   0  0  0  0  0  0  0  0  0  0  0  0
   -6.1180   -1.2720    0.6100 S   0  0  0  0  0  0  0  0  0  0  0  0
   -5.2900   -2.8090    1.1430 C   0  0  0  0  0  0  0  0  0  0  0  0
   -6.1410   -4.3060    1.9830 Br  0  0  0  0  0  0  0  0  0  0  0  0
   -3.9480   -2.6110    0.7940 C   0  0  0  0  0  0  0  0  0  0  0  0
   -2.9140   -3.7050    1.0980 C   0  0  0  0  0  0  0  0  0  0  0  0
   -3.6470   -1.4240    0.2000 C   0  0  0  0  0  0  0  0  0  0  0  0
   -2.2020   -1.1170   -0.1430 C   0  0  0  0  0  0  0  0  0  0  0  0
   -1.4290   -2.0490   -0.3900 O   0  0  0  0  0  0  0  0  0  0  0  0
   -1.7310    0.1970   -0.1740 N   0  0  0  0  0  0  0  0  0  0  0  0
   -0.4100    0.6110   -0.4770 C   0  0  0  0  0  0  0  0  0  0  0  0
    0.5900   -0.2730   -0.8070 C   0  0  0  0  0  0  0  0  0  0  0  0
    1.8680    0.1940   -1.0680 C   0  0  0  0  0  0  0  0  0  0  0  0
    2.9640   -0.7140   -1.4240 C   0  0  0  0  0  0  0  0  0  0  0  0
    3.1710   -0.9840   -2.6340 O   0  0  0  0  0  0  0  0  0  0  0  0
    3.8020   -1.3010   -0.4460 N   0  0  0  0  0  0  0  0  0  0  0  0
    4.8650   -2.1850   -0.8580 C   0  0  0  0  0  0  0  0  0  0  0  0
    5.9930   -2.1910    0.1080 C   0  0  0  0  0  0  0  0  0  0  0  0
    6.0230   -1.4060    1.1690 C   0  0  0  0  0  0  0  0  0  0  0  0
    7.1190   -1.4810    2.0170 O   0  0  0  0  0  0  0  0  0  0  0  0
    4.9300   -0.4540    1.4840 C   0  0  0  0  0  0  0  0  0  0  0  0
    3.6400   -1.0550    0.9720 C   0  0  0  0  0  0  0  0  0  0  0  0
    2.1440    1.5340   -0.9990 C   0  0  0  0  0  0  0  0  0  0  0  0
    3.3200    1.9750   -1.2380 O   0  0  0  0  0  0  0  0  0  0  0  0
    1.1600    2.3230   -0.6830 O   0  0  0  0  0  0  0  0  0  0  0  0
   -0.0650    1.9780   -0.4230 C   0  0  0  0  0  0  0  0  0  0  0  0
   -1.1020    2.9810   -0.0770 C   0  0  0  0  0  0  0  0  0  0  0  0
   -1.9080    3.2650   -1.3100 C   0  0  0  0  0  0  0  0  0  0  0  0
   -3.0140    4.2510   -1.0980 C   0  0  0  0  0  0  0  0  0  0  0  0
   -2.5630    5.4900   -0.6660 O   0  0  0  0  0  0  0  0  0  0  0  0
  1  2  1  0
  2  3  1  0
  2  8  2  0
  3  4  1  0
  4  5  1  0
  4  6  2  0
  6  7  1  0
  6  8  1  0
  8  9  1  0
  9 10  2  0
  9 11  1  0
 11 12  1  0
 12 13  1  0
 12 27  2  0
 13 14  2  0
 14 15  1  0
 14 24  1  0
 15 16  2  0
 15 17  1  0
 17 18  1  0
 17 23  1  0
 18 19  1  0
 19 20  2  0
 20 21  1  0
 20 22  1  0
 22 23  1  0
 24 25  2  0
 24 26  1  0
 26 27  1  0
 27 28  1  0
 28 29  1  0
 29 30  1  0
 30 31  1  0
M  END
