
     RDKit          3D

 12 12  0  0  0  0  0  0  0  0999 V2000
   -2.4920    0.7750    1.0590 C   0  0  0  0  0  0  0  0  0  0  0  0
   -2.5430    0.3490   -0.1750 C   0  0  0  0  0  0  0  0  0  0  0  0
   -1.5970   -0.6100   -0.7340 C   0  0  0  0  0  0  0  0  0  0  0  0
   -1.6680   -1.0190   -1.9670 C   0  0  0  0  0  0  0  0  0  0  0  0
   -0.5980   -1.0800    0.1140 O   0  0  0  0  0  0  0  0  0  0  0  0
    0.3060   -0.1640    0.5590 O   0  0  0  0  0  0  0  0  0  0  0  0
    1.6420   -0.4630    0.4530 C   0  0  0  0  0  0  0  0  0  0  0  0
    1.9930   -1.5530   -0.0420 O   0  0  0  0  0  0  0  0  0  0  0  0
    2.8650    0.7590    1.0470 P   0  0  0  0  0  0  0  0  0  0  0  0
    4.3860    0.0970    1.5010 O   0  0  0  0  0  0  0  0  0  0  0  0
    4.9610    1.2430    1.2250 O   0  0  0  0  0  0  0  0  0  0  0  0
    4.4200    1.1210   -0.4130 S   0  0  0  0  0  0  0  0  0  0  0  0
  1  2  2  0
  2  3  1  0
  3  4  2  0
  3  5  1  0
  5  6  1  0
  6  7  1  0
  7  8  2  0
  7  9  1  0
  9 10  1  0
  9 12  1  0
 10 11  1  0
 11 12  1  0
M  END
