
     RDKit          3D

 12 12  0  0  0  0  0  0  0  0999 V2000
   -0.6020   -2.6530   -1.8720 C   0  0  0  0  0  0  0  0  0  0  0  0
   -0.7910   -1.5290   -1.1850 C   0  0  0  0  0  0  0  0  0  0  0  0
    0.0830   -0.8510   -0.4620 O   0  0  0  0  0  0  0  0  0  0  0  0
   -0.1260    0.4620    0.3580 S   0  0  0  0  0  0  0  0  0  0  0  0
   -0.0520    1.3670    1.4600 O   0  0  0  0  0  0  0  0  0  0  0  0
    0.1370   -0.7670    1.7010 O   0  0  0  0  0  0  0  0  0  0  0  0
    1.1210    1.0170   -0.3080 O   0  0  0  0  0  0  0  0  0  0  0  0
    2.2070    1.3210    0.3000 O   0  0  0  0  0  0  0  0  0  0  0  0
    3.1640    0.3290    0.3300 C   0  0  0  0  0  0  0  0  0  0  0  0
   -1.7070    0.6990    0.0160 C   0  0  0  0  0  0  0  0  0  0  0  0
   -2.7330    1.7920    0.4110 C   0  0  0  0  0  0  0  0  0  0  0  0
   -2.2790   -0.5030   -0.9650 P   0  0  0  0  0  0  0  0  0  0  0  0
  1  2  2  0
  2  3  1  0
  2 12  1  0
  3  4  1  0
  4  5  2  0
  4  6  1  0
  4  7  1  0
  4 10  1  0
  7  8  1  0
  8  9  1  0
 10 11  1  0
 10 12  2  0
M  END
