
     RDKit          3D

 20 20  0  0  0  0  0  0  0  0999 V2000
   -2.0160   -0.8320   -2.2120 O   0  0  0  0  0  0  0  0  0  0  0  0
   -1.5170   -0.9270   -1.0530 C   0  0  0  0  0  0  0  0  0  0  0  0
   -0.1670   -1.1400   -0.8750 C   0  0  0  0  0  0  0  0  0  0  0  0
    0.6960   -1.2580   -1.9650 O   0  0  0  0  0  0  0  0  0  0  0  0
    0.3890   -1.2450    0.3840 C   0  0  0  0  0  0  0  0  0  0  0  0
    1.8580   -1.4770    0.5730 C   0  0  0  0  0  0  0  0  0  0  0  0
    2.6140   -0.2340    0.3280 C   0  0  0  0  0  0  0  0  0  0  0  0
    3.9560   -0.3160    0.4680 O   0  0  0  0  0  0  0  0  0  0  0  0
    4.9760    0.8040    0.2850 P   0  0  0  0  0  0  0  0  0  0  0  0
    5.6860    0.0020   -0.9740 O   0  0  0  0  0  0  0  0  0  0  0  0
    3.7230    1.8320   -0.0630 O   0  0  0  0  0  0  0  0  0  0  0  0
    5.9690    1.9700    0.2290 O   0  0  0  0  0  0  0  0  0  0  0  0
   -0.4760   -1.1270    1.4490 C   0  0  0  0  0  0  0  0  0  0  0  0
   -1.8200   -0.9140    1.2260 C   0  0  0  0  0  0  0  0  0  0  0  0
   -2.3480   -0.8130   -0.0030 N   0  0  0  0  0  0  0  0  0  0  0  0
   -3.7920   -0.5850   -0.1960 C   0  0  0  0  0  0  0  0  0  0  0  0
   -4.2950    1.0720   -0.2750 P   0  0  0  0  0  0  0  0  0  0  0  0
   -3.7780    2.2070    0.7630 O   0  0  0  0  0  0  0  0  0  0  0  0
   -5.6780    0.9190    0.3900 O   0  0  0  0  0  0  0  0  0  0  0  0
   -5.1970    1.6060   -1.6370 O   0  0  0  0  0  0  0  0  0  0  0  0
  1  2  2  0
  2  3  1  0
  2 15  1  0
  3  4  1  0
  3  5  2  0
  5  6  1  0
  5 13  1  0
  6  7  1  0
  7  8  1  0
  8  9  1  0
  9 10  1  0
  9 11  1  0
  9 12  1  0
 13 14  2  0
 14 15  1  0
 15 16  1  0
 16 17  1  0
 17 18  1  0
 17 19  1  0
 17 20  1  0
M  END
