
     RDKit          3D

 11 10  0  0  0  0  0  0  0  0999 V2000
   -0.8420    0.8050   -1.4470 C   0  0  0  0  0  0  0  0  0  0  0  0
   -0.5460    0.2640   -0.2990 C   0  0  0  0  0  0  0  0  0  0  0  0
   -1.4570    0.2540    0.7260 O   0  0  0  0  0  0  0  0  0  0  0  0
   -2.8220    0.5090    0.6230 C   0  0  0  0  0  0  0  0  0  0  0  0
    0.7580   -0.3580   -0.0280 C   0  0  2  0  0  0  0  0  0  0  0  0
    1.9280   -0.3100   -1.4360 P   0  0  0  0  0  0  0  0  0  0  0  0
    0.4990   -1.7890    0.3230 C   0  0  0  0  0  0  0  0  0  0  0  0
    0.7360   -2.1990    1.4320 O   0  0  0  0  0  0  0  0  0  0  0  0
    1.2790    0.2960    1.1140 O   0  0  0  0  0  0  0  0  0  0  0  0
    2.4530   -0.1980    1.4340 O   0  0  0  0  0  0  0  0  0  0  0  0
    3.1700    0.6510    2.1180 O   0  0  0  0  0  0  0  0  0  0  0  0
  1  2  2  0
  2  3  1  0
  2  5  1  0
  3  4  1  0
  5  6  1  6
  5  7  1  0
  5  9  1  0
  7  8  2  0
  9 10  1  0
 10 11  1  0
M  END
