
     RDKit          3D

 19 21  0  0  0  0  0  0  0  0999 V2000
    5.2270   -0.3700   -1.2410 C   0  0  0  0  0  0  0  0  0  0  0  0
    4.1660   -0.0260   -0.5480 C   0  0  0  0  0  0  0  0  0  0  0  0
    2.8030    0.0530   -1.1170 C   0  0  0  0  0  0  0  0  0  0  0  0
    1.8760    0.3880    0.0180 C   0  0  1  0  0  0  0  0  0  0  0  0
    1.3640   -0.8000    0.6570 N   0  0  0  0  0  0  0  0  0  0  0  0
    0.3190   -1.4410   -0.0850 C   0  0  0  0  0  0  0  0  0  0  0  0
   -0.6470   -0.4960   -0.6850 C   0  0  0  0  0  0  0  0  0  0  0  0
   -0.5500    0.0690   -1.9300 C   0  0  0  0  0  0  0  0  0  0  0  0
   -1.6130    0.8610   -2.1010 N   0  0  0  0  0  0  0  0  0  0  0  0
   -2.3560    0.7940   -0.9900 C   0  0  0  0  0  0  0  0  0  0  0  0
   -1.7670   -0.0380   -0.1190 N   0  0  0  0  0  0  0  0  0  0  0  0
   -2.2610   -0.3880    1.2210 C   0  0  0  0  0  0  0  0  0  0  0  0
   -3.6500   -0.9830    0.9920 C   0  0  0  0  0  0  0  0  0  0  0  0
   -4.6630    0.1350    0.9650 C   0  0  0  0  0  0  0  0  0  0  0  0
   -4.7740    0.6240   -0.4550 C   0  0  0  0  0  0  0  0  0  0  0  0
   -3.6280    1.5450   -0.8060 C   0  0  0  0  0  0  0  0  0  0  0  0
    2.8030    1.1010    0.9810 C   0  0  0  0  0  0  0  0  0  0  0  0
    4.0760    0.3390    0.8590 C   0  0  0  0  0  0  0  0  0  0  0  0
    4.9550    0.0370    1.7900 C   0  0  0  0  0  0  0  0  0  0  0  0
  1  2  2  0
  2  3  1  0
  2 18  1  0
  3  4  1  0
  4  5  1  1
  4 17  1  0
  5  6  1  0
  6  7  1  0
  7  8  2  0
  7 11  1  0
  8  9  1  0
  9 10  2  0
 10 11  1  0
 10 16  1  0
 11 12  1  0
 12 13  1  0
 13 14  1  0
 14 15  1  0
 15 16  1  0
 17 18  1  0
 18 19  2  0
M  CHG  1   5   1
M  END
