
     RDKit          3D

 18 20  0  0  0  0  0  0  0  0999 V2000
    3.3920    1.5710   -2.0140 C   0  0  0  0  0  0  0  0  0  0  0  0
    2.8710    1.0270   -0.7330 C   0  0  0  0  0  0  0  0  0  0  0  0
    1.8850    0.0460   -0.7000 C   0  0  0  0  0  0  0  0  0  0  0  0
    1.3870   -0.4690    0.4550 C   0  0  0  0  0  0  0  0  0  0  0  0
    0.3370   -1.4750    0.5580 C   0  0  0  0  0  0  0  0  0  0  0  0
    0.6110   -2.6980    1.1920 C   0  0  0  0  0  0  0  0  0  0  0  0
   -0.4020   -3.6140    1.2280 C   0  0  0  0  0  0  0  0  0  0  0  0
   -1.6160   -3.3700    0.6820 N   0  0  0  0  0  0  0  0  0  0  0  0
   -1.9050   -2.2200    0.0750 C   0  0  0  0  0  0  0  0  0  0  0  0
   -0.9030   -1.2400    0.0090 C   0  0  0  0  0  0  0  0  0  0  0  0
   -1.2730    0.0170   -0.6410 C   0  0  0  0  0  0  0  0  0  0  0  0
   -2.4450    0.5900   -0.5100 C   0  0  0  0  0  0  0  0  0  0  0  0
   -3.7020    0.3230    0.1980 C   0  0  0  0  0  0  0  0  0  0  0  0
   -4.0810    1.7310    0.0570 N   0  0  0  0  0  0  0  0  0  0  0  0
   -3.1130    1.8390   -1.0200 C   0  0  0  0  0  0  0  0  0  0  0  0
    1.8890    0.0070    1.6700 C   0  0  0  0  0  0  0  0  0  0  0  0
    2.8660    0.9770    1.6210 C   0  0  0  0  0  0  0  0  0  0  0  0
    3.3280    1.4580    0.4540 N   0  0  0  0  0  0  0  0  0  0  0  0
  1  2  1  0
  2  3  2  0
  2 18  1  0
  3  4  1  0
  4  5  1  0
  4 16  2  0
  5  6  2  0
  5 10  1  0
  6  7  1  0
  7  8  2  0
  8  9  1  0
  9 10  2  0
 10 11  1  0
 11 12  2  3
 12 13  1  0
 12 15  1  0
 13 14  1  0
 14 15  1  0
 16 17  1  0
 17 18  2  0
M  CHG  1  18   1
M  END
