
     RDKit          3D

 19 21  0  0  0  0  0  0  0  0999 V2000
    5.2010    0.0260    0.0850 C   0  0  0  0  0  0  0  0  0  0  0  0
    3.8220    0.0400    0.6810 C   0  0  0  0  0  0  0  0  0  0  0  0
    3.6460   -0.6630    1.8390 C   0  0  0  0  0  0  0  0  0  0  0  0
    2.4240   -0.6600    2.3820 N   0  0  0  0  0  0  0  0  0  0  0  0
    1.3820    0.0190    1.8050 C   0  0  0  0  0  0  0  0  0  0  0  0
    1.5400    0.7280    0.6470 C   0  0  0  0  0  0  0  0  0  0  0  0
    0.4360    1.4890   -0.0300 C   0  0  0  0  0  0  0  0  0  0  0  0
   -0.2230    0.6290   -0.9850 N   0  0  0  0  0  0  0  0  0  0  0  0
    0.3570    0.3900   -2.2130 C   0  0  0  0  0  0  0  0  0  0  0  0
   -0.4110   -0.5200   -2.8930 C   0  0  0  0  0  0  0  0  0  0  0  0
   -0.1530   -1.0650   -4.2620 C   0  0  0  0  0  0  0  0  0  0  0  0
   -1.4490   -0.8070   -2.0420 C   0  0  0  0  0  0  0  0  0  0  0  0
   -1.3260   -0.0800   -0.8470 C   0  0  0  0  0  0  0  0  0  0  0  0
   -2.3470   -0.1070    0.2310 C   0  0  0  0  0  0  0  0  0  0  0  0
   -3.3100   -1.0220    0.2590 C   0  0  0  0  0  0  0  0  0  0  0  0
   -4.1560   -0.7890    1.4390 C   0  0  0  0  0  0  0  0  0  0  0  0
   -3.8760    0.5460    1.8420 N   0  0  0  0  0  0  0  0  0  0  0  0
   -2.5280    0.8350    1.3450 C   0  0  0  0  0  0  0  0  0  0  0  0
    2.8140    0.7300    0.0740 C   0  0  0  0  0  0  0  0  0  0  0  0
  1  2  1  0
  2  3  2  0
  2 19  1  0
  3  4  1  0
  4  5  2  0
  5  6  1  0
  6  7  1  0
  6 19  2  0
  7  8  1  0
  8  9  1  0
  8 13  1  0
  9 10  2  0
 10 11  1  0
 10 12  1  0
 12 13  2  0
 13 14  1  0
 14 15  2  0
 14 18  1  0
 15 16  1  0
 16 17  1  0
 17 18  1  0
M  CHG  1  17   1
M  END
