
     RDKit          3D

 23 22  0  0  0  0  0  0  0  0999 V2000
   -2.4380    0.8980    0.9230 C   0  0  0  0  0  0  0  0  0  0  0  0
   -1.7800   -0.2940    0.2420 C   0  0  1  0  0  0  0  0  0  0  0  0
   -1.7960   -0.0960   -1.1350 O   0  0  0  0  0  0  0  0  0  0  0  0
   -0.5370   -0.5190    0.7540 O   0  0  0  0  0  0  0  0  0  0  0  0
    0.3850    0.4640    0.5750 C   0  0  2  0  0  0  0  0  0  0  0  0
    1.5050   -0.0090   -0.3550 C   0  0  0  0  0  0  0  0  0  0  0  0
    0.9950   -0.3520   -1.5790 O   0  0  0  0  0  0  0  0  0  0  0  0
    2.0330   -0.7770   -2.3990 C   0  0  2  0  0  0  0  0  0  0  0  0
    2.1220    0.0940   -3.6270 C   0  0  0  0  0  0  0  0  0  0  0  0
    0.9470    0.0380   -4.3450 O   0  0  0  0  0  0  0  0  0  0  0  0
    1.7220   -2.2180   -2.7840 C   0  0  0  0  0  0  0  0  0  0  0  0
    2.7230   -2.6990   -3.6040 O   0  0  0  0  0  0  0  0  0  0  0  0
    0.9340    1.0450    1.7970 C   0  0  0  0  0  0  0  0  0  0  0  0
    0.5440    0.6270    2.9160 O   0  0  0  0  0  0  0  0  0  0  0  0
    1.8800    2.0530    1.7790 O   0  0  0  0  0  0  0  0  0  0  0  0
    2.4340    2.6400    2.9250 C   0  0  0  0  0  0  0  0  0  0  0  0
    1.3680    3.2810    3.7750 C   0  0  0  0  0  0  0  0  0  0  0  0
    0.1670    3.2360    3.4080 O   0  0  0  0  0  0  0  0  0  0  0  0
    1.7340    3.9100    4.9470 O   0  0  0  0  0  0  0  0  0  0  0  0
   -2.6450   -1.5020    0.5870 C   0  0  1  0  0  0  0  0  0  0  0  0
   -2.5850   -1.6440    1.9780 O   0  0  0  0  0  0  0  0  0  0  0  0
   -4.0790   -1.2800    0.1560 C   0  0  0  0  0  0  0  0  0  0  0  0
   -4.8250   -2.3810    0.5520 O   0  0  0  0  0  0  0  0  0  0  0  0
  2  1  1  1
  2  3  1  0
  2  4  1  0
  2 20  1  0
  4  5  1  0
  5  6  1  6
  5 13  1  0
  6  7  1  0
  7  8  1  0
  8  9  1  6
  8 11  1  0
  9 10  1  0
 11 12  1  0
 13 14  2  0
 13 15  1  0
 15 16  1  0
 16 17  1  0
 17 18  2  0
 17 19  1  0
 20 21  1  1
 20 22  1  0
 22 23  1  0
M  END
