
     RDKit          3D

 26 29  0  0  0  0  0  0  0  0999 V2000
    4.8400    0.1560   -2.0440 C   0  0  0  0  0  0  0  0  0  0  0  0
    3.9770   -1.0730   -1.9500 C   0  0  0  0  0  0  0  0  0  0  0  0
    3.0530   -0.9280   -0.8000 C   0  0  0  0  0  0  0  0  0  0  0  0
    1.7230   -0.5270   -1.0540 C   0  0  0  0  0  0  0  0  0  0  0  0
    0.7990   -0.3630   -0.0490 C   0  0  0  0  0  0  0  0  0  0  0  0
    1.2000   -0.6040    1.2560 C   0  0  0  0  0  0  0  0  0  0  0  0
    2.5020   -0.9970    1.5080 C   0  0  0  0  0  0  0  0  0  0  0  0
    3.4250   -1.1590    0.4920 C   0  0  0  0  0  0  0  0  0  0  0  0
    4.6890   -1.5520    0.8150 O   0  0  0  0  0  0  0  0  0  0  0  0
    6.0090   -0.6180    1.2360 S   0  0  2  0  0  0  0  0  0  0  0  0
    5.6800    1.0390    1.4620 N   0  0  0  0  0  0  0  0  0  0  0  0
    7.0680   -0.7550    0.1570 O   0  0  0  0  0  0  0  0  0  0  0  0
    6.6470   -1.1580    2.5100 O   0  0  0  0  0  0  0  0  0  0  0  0
    0.2710   -0.4570    2.4060 C   0  0  0  0  0  0  0  0  0  0  0  0
   -0.7350    0.6140    2.0400 C   0  0  0  0  0  0  0  0  0  0  0  0
   -1.4750    0.1210    0.8250 C   0  0  2  0  0  0  0  0  0  0  0  0
   -0.5470    0.0660   -0.3960 C   0  0  2  0  0  0  0  0  0  0  0  0
   -1.2590   -0.7520   -1.4190 C   0  0  0  0  0  0  0  0  0  0  0  0
   -2.5910   -0.1370   -1.7610 C   0  0  0  0  0  0  0  0  0  0  0  0
   -3.4460    0.1080   -0.5700 C   0  0  2  0  0  0  0  0  0  0  0  0
   -3.9730   -1.1350    0.0730 C   0  0  0  0  0  0  0  0  0  0  0  0
   -4.5810    1.0510   -0.8000 C   0  0  1  0  0  0  0  0  0  0  0  0
   -5.7150    0.4280   -1.2610 O   0  0  0  0  0  0  0  0  0  0  0  0
   -4.8840    1.5310    0.6210 C   0  0  0  0  0  0  0  0  0  0  0  0
   -3.6310    1.3000    1.4340 C   0  0  0  0  0  0  0  0  0  0  0  0
   -2.6240    0.9550    0.4160 C   0  0  1  0  0  0  0  0  0  0  0  0
  1  2  1  0
  2  3  1  0
  3  4  2  0
  3  8  1  0
  4  5  1  0
  5  6  2  0
  5 17  1  0
  6  7  1  0
  6 14  1  0
  7  8  2  0
  8  9  1  0
  9 10  1  0
 10 11  1  1
 10 12  2  0
 10 13  2  0
 14 15  1  0
 16 15  1  1
 16 17  1  0
 16 26  1  0
 17 18  1  6
 18 19  1  0
 19 20  1  0
 20 21  1  1
 20 22  1  0
 20 26  1  0
 22 23  1  1
 22 24  1  0
 24 25  1  0
 26 25  1  1
M  END
