
     RDKit          3D

 19 21  0  0  0  0  0  0  0  0999 V2000
   -5.3510   -1.7150   -0.6730 C   0  0  0  0  0  0  0  0  0  0  0  0
   -4.4190   -0.8520   -0.3430 C   0  0  0  0  0  0  0  0  0  0  0  0
   -3.0160   -0.8730   -0.7800 C   0  0  0  0  0  0  0  0  0  0  0  0
   -2.2730    0.0960    0.1110 C   0  0  1  0  0  0  0  0  0  0  0  0
   -1.3180    0.8050   -0.6930 N   0  0  0  0  0  0  0  0  0  0  0  0
   -0.0790    1.0840   -0.0330 C   0  0  0  0  0  0  0  0  0  0  0  0
    0.8960   -0.0340   -0.1560 C   0  0  0  0  0  0  0  0  0  0  0  0
    0.6450   -1.2000   -0.8210 C   0  0  0  0  0  0  0  0  0  0  0  0
    1.7580   -1.9420   -0.7040 N   0  0  0  0  0  0  0  0  0  0  0  0
    2.6710   -1.2590    0.0100 C   0  0  0  0  0  0  0  0  0  0  0  0
    2.1220   -0.0780    0.3430 N   0  0  0  0  0  0  0  0  0  0  0  0
    2.7740    0.9610    1.1170 C   0  0  0  0  0  0  0  0  0  0  0  0
    3.8440    1.5630    0.2370 C   0  0  0  0  0  0  0  0  0  0  0  0
    4.6860    0.5250   -0.4440 C   0  0  0  0  0  0  0  0  0  0  0  0
    5.0360   -0.6410    0.4150 C   0  0  0  0  0  0  0  0  0  0  0  0
    4.0460   -1.7700    0.3480 C   0  0  0  0  0  0  0  0  0  0  0  0
   -3.3230    0.9730    0.7260 C   0  0  0  0  0  0  0  0  0  0  0  0
   -4.6310    0.2980    0.5330 C   0  0  0  0  0  0  0  0  0  0  0  0
   -5.7540    0.6840    1.0650 C   0  0  0  0  0  0  0  0  0  0  0  0
  1  2  2  0
  2  3  1  0
  2 18  1  0
  3  4  1  0
  4  5  1  6
  4 17  1  0
  5  6  1  0
  6  7  1  0
  7  8  2  0
  7 11  1  0
  8  9  1  0
  9 10  2  0
 10 11  1  0
 10 16  1  0
 11 12  1  0
 12 13  1  0
 13 14  1  0
 14 15  1  0
 15 16  1  0
 17 18  1  0
 18 19  2  0
M  CHG  1   5   1
M  END
