
     RDKit          3D

 23 22  0  0  0  0  0  0  0  0999 V2000
   -6.9200   -0.4200    0.9070 O   0  0  0  0  0  0  0  0  0  0  0  0
   -6.7600    0.4610   -0.1710 C   0  0  0  0  0  0  0  0  0  0  0  0
   -5.2920    0.7530   -0.3700 C   0  0  0  0  0  0  0  0  0  0  0  0
   -4.7920    1.3330    0.7940 O   0  0  0  0  0  0  0  0  0  0  0  0
   -3.4440    1.5940    0.5940 C   0  0  0  0  0  0  0  0  0  0  0  0
   -2.7410    0.4420    0.3220 O   0  0  0  0  0  0  0  0  0  0  0  0
   -2.7950   -0.5020    1.3160 C   0  0  0  0  0  0  0  0  0  0  0  0
   -2.0490   -1.6090    0.9180 O   0  0  0  0  0  0  0  0  0  0  0  0
   -0.7290   -1.3280    0.6770 C   0  0  1  0  0  0  0  0  0  0  0  0
    0.0040   -2.0110    1.6870 O   0  0  0  0  0  0  0  0  0  0  0  0
   -0.1830   -1.8480   -0.6200 C   0  0  1  0  0  0  0  0  0  0  0  0
   -0.8760   -1.3340   -1.8440 C   0  0  0  0  0  0  0  0  0  0  0  0
   -2.2370   -1.6690   -1.8630 O   0  0  0  0  0  0  0  0  0  0  0  0
    1.2680   -1.3390   -0.7060 C   0  0  0  0  0  0  0  0  0  0  0  0
    1.9580   -1.8380    0.3770 O   0  0  0  0  0  0  0  0  0  0  0  0
    3.2720   -1.4140    0.3220 C   0  0  0  0  0  0  0  0  0  0  0  0
    3.3540    0.0710    0.3540 C   0  0  1  0  0  0  0  0  0  0  0  0
    2.7670    0.5400    1.5310 O   0  0  0  0  0  0  0  0  0  0  0  0
    4.8560    0.4160    0.3540 C   0  0  0  0  0  0  0  0  0  0  0  0
    4.9360    1.8010    0.4330 O   0  0  0  0  0  0  0  0  0  0  0  0
    6.2960    2.1300    0.4340 C   0  0  1  0  0  0  0  0  0  0  0  0
    6.4950    2.9560   -0.6810 O   0  0  0  0  0  0  0  0  0  0  0  0
    6.5340    2.8900    1.5770 O   0  0  0  0  0  0  0  0  0  0  0  0
  1  2  1  0
  2  3  1  0
  3  4  1  0
  4  5  1  0
  5  6  1  0
  6  7  1  0
  7  8  1  0
  8  9  1  0
  9 10  1  1
  9 11  1  0
 11 12  1  6
 11 14  1  0
 12 13  1  0
 14 15  1  0
 15 16  1  0
 16 17  1  0
 17 18  1  1
 17 19  1  0
 19 20  1  0
 20 21  1  0
 21 22  1  6
 21 23  1  0
M  END
