
     RDKit          3D

 23 22  0  0  0  0  0  0  0  0999 V2000
   -7.0390   -1.6250    0.1580 O   0  0  0  0  0  0  0  0  0  0  0  0
   -5.9510   -1.1900    0.6580 C   0  0  0  0  0  0  0  0  0  0  0  0
   -5.9890   -0.8560    1.9820 O   0  0  0  0  0  0  0  0  0  0  0  0
   -4.7390   -1.0690   -0.1770 C   0  0  0  0  0  0  0  0  0  0  0  0
   -3.5890   -0.4400    0.5400 C   0  0  2  0  0  0  0  0  0  0  0  0
   -3.9420    0.9590    0.9860 C   0  0  0  0  0  0  0  0  0  0  0  0
   -4.2740    1.7490   -0.1400 O   0  0  0  0  0  0  0  0  0  0  0  0
   -2.4610   -0.2770   -0.3360 O   0  0  0  0  0  0  0  0  0  0  0  0
   -1.2200   -0.8460   -0.0550 C   0  0  0  0  0  0  0  0  0  0  0  0
   -1.1610   -1.5060    1.0080 O   0  0  0  0  0  0  0  0  0  0  0  0
   -0.0500   -0.7050   -0.9160 C   0  0  1  0  0  0  0  0  0  0  0  0
   -0.4340   -0.2070   -2.1950 O   0  0  0  0  0  0  0  0  0  0  0  0
    1.0750    0.1780   -0.3910 C   0  0  2  0  0  0  0  0  0  0  0  0
    2.1600    0.0880   -1.2760 O   0  0  0  0  0  0  0  0  0  0  0  0
    2.3930    1.2480   -1.9780 C   0  0  0  0  0  0  0  0  0  0  0  0
    1.3200    1.6520   -2.7670 O   0  0  0  0  0  0  0  0  0  0  0  0
    1.4730   -0.0760    1.0250 C   0  0  2  0  0  0  0  0  0  0  0  0
    0.3770    0.1800    1.8440 O   0  0  0  0  0  0  0  0  0  0  0  0
    2.6120    0.8370    1.3870 C   0  0  0  0  0  0  0  0  0  0  0  0
    3.7510    0.6410    0.6610 O   0  0  0  0  0  0  0  0  0  0  0  0
    4.3010   -0.6240    0.7740 C   0  0  0  0  0  0  0  0  0  0  0  0
    5.5410   -0.6570   -0.0970 C   0  0  0  0  0  0  0  0  0  0  0  0
    5.2220   -0.3970   -1.4350 O   0  0  0  0  0  0  0  0  0  0  0  0
  1  2  2  0
  2  3  1  0
  2  4  1  0
  5  4  1  6
  5  6  1  0
  5  8  1  0
  6  7  1  0
  8  9  1  0
  9 10  2  0
  9 11  1  0
 11 12  1  6
 11 13  1  0
 13 14  1  6
 13 17  1  0
 14 15  1  0
 15 16  1  0
 17 18  1  1
 17 19  1  0
 19 20  1  0
 20 21  1  0
 21 22  1  0
 22 23  1  0
M  END
