
     RDKit          3D

 23 22  0  0  0  0  0  0  0  0999 V2000
    0.1780    1.0570   -1.8160 O   0  0  0  0  0  0  0  0  0  0  0  0
    0.3450    0.9470   -0.5810 C   0  0  0  0  0  0  0  0  0  0  0  0
    1.3350    0.0400   -0.1620 O   0  0  0  0  0  0  0  0  0  0  0  0
    2.0540   -0.6650   -1.1240 C   0  0  0  0  0  0  0  0  0  0  0  0
    3.0810   -1.6010   -0.5440 C   0  0  0  0  0  0  0  0  0  0  0  0
    2.5590   -2.5610    0.2750 O   0  0  0  0  0  0  0  0  0  0  0  0
    3.5430   -3.3800    0.7560 C   0  0  0  0  0  0  0  0  0  0  0  0
    4.6130   -2.7310    1.5650 C   0  0  0  0  0  0  0  0  0  0  0  0
    4.1180   -2.0940    2.7040 O   0  0  0  0  0  0  0  0  0  0  0  0
   -0.4500    1.7240    0.4070 C   0  0  2  0  0  0  0  0  0  0  0  0
   -0.0280    1.3410    1.6970 O   0  0  0  0  0  0  0  0  0  0  0  0
   -1.9070    1.3760    0.2340 C   0  0  0  0  0  0  0  0  0  0  0  0
   -2.0110   -0.0090    0.4040 O   0  0  0  0  0  0  0  0  0  0  0  0
   -3.3270   -0.4420    0.2640 C   0  0  0  0  0  0  0  0  0  0  0  0
   -3.2960   -1.9580    0.4710 C   0  0  2  0  0  0  0  0  0  0  0  0
   -2.8140   -2.2710    1.7200 O   0  0  0  0  0  0  0  0  0  0  0  0
   -2.5260   -2.5810   -0.6580 C   0  0  0  0  0  0  0  0  0  0  0  0
   -3.1460   -2.1620   -1.8510 O   0  0  0  0  0  0  0  0  0  0  0  0
   -0.3010    3.0930    0.3030 O   0  0  0  0  0  0  0  0  0  0  0  0
   -0.6780    3.6330   -0.8950 C   0  0  2  0  0  0  0  0  0  0  0  0
    0.4700    4.2430   -1.4530 O   0  0  0  0  0  0  0  0  0  0  0  0
   -1.6850    4.7590   -0.7420 C   0  0  0  0  0  0  0  0  0  0  0  0
   -1.1110    5.7530    0.0220 O   0  0  0  0  0  0  0  0  0  0  0  0
  1  2  2  0
  2  3  1  0
  2 10  1  0
  3  4  1  0
  4  5  1  0
  5  6  1  0
  6  7  1  0
  7  8  1  0
  8  9  1  0
 10 11  1  1
 10 12  1  0
 10 19  1  0
 12 13  1  0
 13 14  1  0
 14 15  1  0
 15 16  1  1
 15 17  1  0
 17 18  1  0
 19 20  1  0
 20 21  1  1
 20 22  1  0
 22 23  1  0
M  END
