
     RDKit          3D

 23 22  0  0  0  0  0  0  0  0999 V2000
    1.7170   -3.2340    1.3840 C   0  0  0  0  0  0  0  0  0  0  0  0
    1.9130   -1.9000    1.1120 O   0  0  0  0  0  0  0  0  0  0  0  0
    2.6700   -1.3020    2.0830 C   0  0  0  0  0  0  0  0  0  0  0  0
    2.9140    0.1560    1.8310 C   0  0  1  0  0  0  0  0  0  0  0  0
    1.7820    0.8470    1.7860 O   0  0  0  0  0  0  0  0  0  0  0  0
    1.4230    1.6910    0.8180 C   0  0  2  0  0  0  0  0  0  0  0  0
    1.4930    3.1790    1.2770 C   0  0  0  0  0  0  0  0  0  0  0  0
    0.6400    3.3970    2.3550 O   0  0  0  0  0  0  0  0  0  0  0  0
    0.1270    1.5690    0.4690 O   0  0  0  0  0  0  0  0  0  0  0  0
   -0.2970    1.5430   -0.7980 C   0  0  2  0  0  0  0  0  0  0  0  0
   -1.1680    2.6950   -1.2310 C   0  0  0  0  0  0  0  0  0  0  0  0
   -2.3360    2.8250   -0.5290 O   0  0  0  0  0  0  0  0  0  0  0  0
   -0.9560    0.2090   -1.0780 C   0  0  2  0  0  0  0  0  0  0  0  0
   -0.0110   -0.8040   -0.9010 O   0  0  0  0  0  0  0  0  0  0  0  0
   -1.4530    0.0800   -2.4890 C   0  0  0  0  0  0  0  0  0  0  0  0
   -2.0010   -1.1840   -2.6450 O   0  0  0  0  0  0  0  0  0  0  0  0
   -3.0890   -1.4580   -1.8570 C   0  0  2  0  0  0  0  0  0  0  0  0
   -2.8910   -2.5560   -1.0200 O   0  0  0  0  0  0  0  0  0  0  0  0
   -4.2530   -1.7420   -2.8190 C   0  0  0  0  0  0  0  0  0  0  0  0
   -4.4220   -0.5880   -3.5770 O   0  0  0  0  0  0  0  0  0  0  0  0
    3.6710    0.6210    3.0720 C   0  0  0  0  0  0  0  0  0  0  0  0
    3.2060    1.4990    3.8230 O   0  0  0  0  0  0  0  0  0  0  0  0
    4.8970    0.0790    3.3960 O   0  0  0  0  0  0  0  0  0  0  0  0
  1  2  1  0
  2  3  1  0
  4  3  1  1
  4  5  1  0
  4 21  1  0
  5  6  1  0
  6  7  1  1
  6  9  1  0
  7  8  1  0
  9 10  1  0
 10 11  1  1
 10 13  1  0
 11 12  1  0
 13 14  1  6
 13 15  1  0
 15 16  1  0
 16 17  1  0
 17 18  1  6
 17 19  1  0
 19 20  1  0
 21 22  2  0
 21 23  1  0
M  END
