
     RDKit          3D

 29 29  0  0  0  0  0  0  0  0999 V2000
    6.2500   -2.0860    1.7930 C   0  0  0  0  0  0  0  0  0  0  0  0
    5.9940   -0.6920    1.4070 C   0  0  0  0  0  0  0  0  0  0  0  0
    4.7630   -0.2960    1.1290 C   0  0  0  0  0  0  0  0  0  0  0  0
    4.5100    1.0860    0.7460 C   0  0  0  0  0  0  0  0  0  0  0  0
    5.6170    1.9020    0.7000 F   0  0  0  0  0  0  0  0  0  0  0  0
    3.3140    1.5650    0.4550 C   0  0  0  0  0  0  0  0  0  0  0  0
    2.1780    0.6660    0.5180 C   0  0  0  0  0  0  0  0  0  0  0  0
    0.8810    1.1300    0.2160 O   0  0  0  0  0  0  0  0  0  0  0  0
    0.7840    1.9480   -0.9440 C   0  0  0  0  0  0  0  0  0  0  0  0
   -0.5910    2.4090   -1.2230 C   0  0  0  0  0  0  0  0  0  0  0  0
   -1.5750    1.3420   -1.4520 N   0  0  0  0  0  0  0  0  0  0  0  0
   -2.1500    0.7920   -0.3130 C   0  0  0  0  0  0  0  0  0  0  0  0
   -1.7840    1.2590    0.8390 O   0  0  0  0  0  0  0  0  0  0  0  0
   -3.1220   -0.2560   -0.2700 C   0  0  0  0  0  0  0  0  0  0  0  0
   -3.5580   -0.7990   -1.3100 O   0  0  0  0  0  0  0  0  0  0  0  0
   -3.6440   -0.7320    1.0090 N   0  0  0  0  0  0  0  0  0  0  0  0
   -4.6270   -1.7970    0.9840 C   0  0  0  0  0  0  0  0  0  0  0  0
   -5.0500   -2.1610    2.3680 C   0  0  0  0  0  0  0  0  0  0  0  0
   -3.9730   -2.6200    3.2000 N   0  0  0  0  0  0  0  0  0  0  0  0
   -1.9100    0.9740   -2.7670 C   0  0  1  0  0  0  0  0  0  0  0  0
   -2.5620    2.1940   -3.5010 C   0  0  0  0  0  0  0  0  0  0  0  0
   -0.7320    0.6330   -3.6460 C   0  0  1  0  0  0  0  0  0  0  0  0
    0.0320   -0.3880   -3.1660 F   0  0  0  0  0  0  0  0  0  0  0  0
   -1.2690    0.1590   -4.8690 F   0  0  0  0  0  0  0  0  0  0  0  0
    0.0220    1.7230   -3.9710 F   0  0  0  0  0  0  0  0  0  0  0  0
    2.3620   -0.5900    0.8580 C   0  0  0  0  0  0  0  0  0  0  0  0
    3.6390   -1.2390    1.2030 C   0  0  2  0  0  0  0  0  0  0  0  0
    3.5420   -1.8210    2.4640 F   0  0  0  0  0  0  0  0  0  0  0  0
    3.9010   -2.2790    0.3180 F   0  0  0  0  0  0  0  0  0  0  0  0
  1  2  1  0
  2  3  2  3
  3  4  1  0
  3 27  1  0
  4  5  1  0
  4  6  2  0
  6  7  1  0
  7  8  1  0
  7 26  2  0
  8  9  1  0
  9 10  1  0
 10 11  1  0
 11 12  1  0
 11 20  1  0
 12 13  2  0
 12 14  1  0
 14 15  2  0
 14 16  1  0
 16 17  1  0
 17 18  1  0
 18 19  1  0
 20 21  1  6
 20 22  1  0
 22 23  1  1
 22 24  1  0
 22 25  1  0
 26 27  1  0
 27 28  1  1
 27 29  1  0
M  END
