
     RDKit          3D

 29 32  0  0  0  0  0  0  0  0999 V2000
    5.1860   -2.8260   -0.6880 C   0  0  0  0  0  0  0  0  0  0  0  0
    4.7560   -1.4830   -0.2520 C   0  0  0  0  0  0  0  0  0  0  0  0
    3.4500   -0.9880   -0.4840 C   0  0  0  0  0  0  0  0  0  0  0  0
    2.4090   -1.7370   -1.1630 C   0  0  0  0  0  0  0  0  0  0  0  0
    1.1150   -1.1240   -1.3410 N   0  0  0  0  0  0  0  0  0  0  0  0
    0.8870   -0.3900   -2.5610 C   0  0  0  0  0  0  0  0  0  0  0  0
    0.1450   -1.3040   -0.3490 C   0  0  0  0  0  0  0  0  0  0  0  0
    0.5550   -2.0460    0.6640 O   0  0  0  0  0  0  0  0  0  0  0  0
   -1.1980   -0.8290   -0.2440 C   0  0  0  0  0  0  0  0  0  0  0  0
   -1.8890   -0.0850   -1.0650 C   0  0  0  0  0  0  0  0  0  0  0  0
   -3.2650    0.3040   -0.7870 C   0  0  0  0  0  0  0  0  0  0  0  0
   -3.9590    1.1090   -1.7110 C   0  0  0  0  0  0  0  0  0  0  0  0
   -5.2250    1.4890   -1.4950 N   0  0  0  0  0  0  0  0  0  0  0  0
   -5.9050    1.1250   -0.3850 C   0  0  0  0  0  0  0  0  0  0  0  0
   -5.3040    0.3430    0.5640 C   0  0  0  0  0  0  0  0  0  0  0  0
   -3.9820   -0.0470    0.3250 C   0  0  0  0  0  0  0  0  0  0  0  0
   -6.0000   -0.1020    1.8060 C   0  0  0  0  0  0  0  0  0  0  0  0
   -7.0280    0.9050    2.2070 C   0  0  0  0  0  0  0  0  0  0  0  0
   -7.9110    1.1360    1.0360 C   0  0  0  0  0  0  0  0  0  0  0  0
   -9.1450    0.9970    1.0340 O   0  0  0  0  0  0  0  0  0  0  0  0
   -7.2530    1.5480   -0.1650 N   0  0  0  0  0  0  0  0  0  0  0  0
    3.4300    0.2760    0.0570 C   0  0  0  0  0  0  0  0  0  0  0  0
    2.4930    1.2810    0.1740 C   0  0  0  0  0  0  0  0  0  0  0  0
    2.7620    2.5010    0.7950 C   0  0  0  0  0  0  0  0  0  0  0  0
    4.0040    2.7540    1.3280 C   0  0  0  0  0  0  0  0  0  0  0  0
    4.9500    1.7610    1.2200 C   0  0  0  0  0  0  0  0  0  0  0  0
    4.6830    0.5550    0.6060 C   0  0  0  0  0  0  0  0  0  0  0  0
    5.4350   -0.5370    0.3890 N   0  0  0  0  0  0  0  0  0  0  0  0
    6.8180   -0.6650    0.8060 C   0  0  0  0  0  0  0  0  0  0  0  0
  1  2  1  0
  2  3  2  0
  2 28  1  0
  3  4  1  0
  3 22  1  0
  4  5  1  0
  5  6  1  0
  5  7  1  0
  7  8  2  0
  7  9  1  0
  9 10  2  3
 10 11  1  0
 11 12  2  0
 11 16  1  0
 12 13  1  0
 13 14  2  0
 14 15  1  0
 14 21  1  0
 15 16  2  0
 15 17  1  0
 17 18  1  0
 18 19  1  0
 19 20  2  0
 19 21  1  0
 22 23  2  0
 22 27  1  0
 23 24  1  0
 24 25  2  0
 25 26  1  0
 26 27  2  0
 27 28  1  0
 28 29  1  0
M  END
