
     RDKit          3D

 31 32  0  0  0  0  0  0  0  0999 V2000
   -7.1860    3.7900   -0.3540 C   0  0  0  0  0  0  0  0  0  0  0  0
   -7.8330    2.6810   -0.4320 C   0  0  0  0  0  0  0  0  0  0  0  0
   -7.2490    1.3440   -0.5010 C   0  0  0  0  0  0  0  0  0  0  0  0
   -8.1350    0.4000   -0.5450 N   0  0  0  0  0  0  0  0  0  0  0  0
   -5.8030    1.0880   -0.4650 C   0  0  0  0  0  0  0  0  0  0  0  0
   -4.6280    2.3700   -1.0650 S   0  0  0  0  0  0  0  0  0  0  0  0
   -3.1790    1.1760   -0.9820 C   0  0  0  0  0  0  0  0  0  0  0  0
   -1.8740    1.7250   -1.3940 N   0  0  0  0  0  0  0  0  0  0  0  0
   -0.7460    0.8730   -1.3520 C   0  0  0  0  0  0  0  0  0  0  0  0
   -0.9350   -0.3080   -0.9630 O   0  0  0  0  0  0  0  0  0  0  0  0
    0.6170    1.3410   -1.7510 C   0  0  0  0  0  0  0  0  0  0  0  0
    1.5880    0.2840   -1.6180 N   0  0  0  0  0  0  0  0  0  0  0  0
    1.8130   -0.3150   -0.3450 C   0  0  0  0  0  0  0  0  0  0  0  0
    1.1530    0.0920    0.6560 O   0  0  0  0  0  0  0  0  0  0  0  0
    2.7540   -1.3460   -0.1910 N   0  0  0  0  0  0  0  0  0  0  0  0
    3.0520   -2.0040    1.0510 C   0  0  0  0  0  0  0  0  0  0  0  0
    3.5760   -0.9950    2.0390 C   0  0  0  0  0  0  0  0  0  0  0  0
    4.8170   -0.3940    1.4430 C   0  0  0  0  0  0  0  0  0  0  0  0
    5.4660    0.4920    2.0710 O   0  0  0  0  0  0  0  0  0  0  0  0
    5.2630   -0.7940    0.2180 O   0  0  0  0  0  0  0  0  0  0  0  0
    6.4030   -0.3100   -0.4370 C   0  0  0  0  0  0  0  0  0  0  0  0
    7.6210   -0.6050    0.3790 C   0  0  0  0  0  0  0  0  0  0  0  0
    8.8350   -0.0710   -0.3660 C   0  0  0  0  0  0  0  0  0  0  0  0
    8.6580    1.3000   -0.5210 O   0  0  0  0  0  0  0  0  0  0  0  0
   -3.7070    0.2380   -0.6010 N   0  0  0  0  0  0  0  0  0  0  0  0
   -5.0050    0.0490   -0.2980 C   0  0  0  0  0  0  0  0  0  0  0  0
   -5.4390   -1.2500    0.3800 C   0  0  0  0  0  0  0  0  0  0  0  0
   -6.3830   -1.4510    1.3190 C   0  0  0  0  0  0  0  0  0  0  0  0
   -6.5290   -2.6660    1.8610 C   0  0  0  0  0  0  0  0  0  0  0  0
   -5.6820   -3.6720    1.4170 C   0  0  0  0  0  0  0  0  0  0  0  0
   -4.6880   -2.7780    0.2010 S   0  0  0  0  0  0  0  0  0  0  0  0
  1  2  2  0
  2  3  1  0
  3  4  2  0
  3  5  1  0
  5  6  1  0
  5 26  2  0
  6  7  1  0
  7  8  1  0
  7 25  2  0
  8  9  1  0
  9 10  2  0
  9 11  1  0
 11 12  1  0
 12 13  1  0
 13 14  2  0
 13 15  1  0
 15 16  1  0
 16 17  1  0
 17 18  1  0
 18 19  2  0
 18 20  1  0
 20 21  1  0
 21 22  1  0
 22 23  1  0
 23 24  1  0
 25 26  1  0
 26 27  1  0
 27 28  2  0
 27 31  1  0
 28 29  1  0
 29 30  2  0
 30 31  1  0
M  END
