
     RDKit          3D

 31 32  0  0  0  0  0  0  0  0999 V2000
    8.3390   -2.5090    0.2090 C   0  0  0  0  0  0  0  0  0  0  0  0
    8.5220   -0.7280    0.2860 S   0  0  0  0  0  0  0  0  0  0  0  0
    6.9990    0.1230   -0.2600 C   0  0  0  0  0  0  0  0  0  0  0  0
    5.9460   -0.1940    0.7440 C   0  0  0  0  0  0  0  0  0  0  0  0
    4.6320    0.3970    0.4440 N   0  0  0  0  0  0  0  0  0  0  0  0
    4.3740    1.6860    1.0330 C   0  0  0  0  0  0  0  0  0  0  0  0
    4.6420    2.8170    0.1180 C   0  0  0  0  0  0  0  0  0  0  0  0
    5.0900    2.6260   -1.2070 N   0  0  0  0  0  0  0  0  0  0  0  0
    4.4660    3.9960    0.5200 O   0  0  0  0  0  0  0  0  0  0  0  0
    3.7460   -0.3630   -0.3270 C   0  0  0  0  0  0  0  0  0  0  0  0
    4.1770   -1.5450   -0.6630 O   0  0  0  0  0  0  0  0  0  0  0  0
    2.4130   -0.0420   -0.8180 C   0  0  0  0  0  0  0  0  0  0  0  0
    1.9190    1.6170   -0.4190 S   0  0  0  0  0  0  0  0  0  0  0  0
    0.2810    2.0440   -1.0420 C   0  0  0  0  0  0  0  0  0  0  0  0
   -0.7240    1.1820   -0.2940 C   0  0  0  0  0  0  0  0  0  0  0  0
   -0.3160    0.3820    0.5790 O   0  0  0  0  0  0  0  0  0  0  0  0
   -2.0970    1.2870   -0.5850 N   0  0  0  0  0  0  0  0  0  0  0  0
   -3.1300    0.5440    0.0450 C   0  0  0  0  0  0  0  0  0  0  0  0
   -3.0020   -0.2090    1.1780 C   0  0  0  0  0  0  0  0  0  0  0  0
   -4.0700   -0.9250    1.7250 C   0  0  0  0  0  0  0  0  0  0  0  0
   -3.8830   -1.7330    2.9600 C   0  0  0  0  0  0  0  0  0  0  0  0
   -5.3160   -0.9060    1.1420 C   0  0  0  0  0  0  0  0  0  0  0  0
   -6.3540   -1.5940    1.6600 N   0  0  0  0  0  0  0  0  0  0  0  0
   -7.5620   -1.5640    1.0800 C   0  0  0  0  0  0  0  0  0  0  0  0
   -8.5600   -2.2000    1.5400 O   0  0  0  0  0  0  0  0  0  0  0  0
   -7.7030   -0.8260   -0.0360 N   0  0  0  0  0  0  0  0  0  0  0  0
   -9.0190   -0.7890   -0.6780 C   0  0  0  0  0  0  0  0  0  0  0  0
   -6.7170   -0.1310   -0.5870 C   0  0  0  0  0  0  0  0  0  0  0  0
   -6.8340    0.5630   -1.6290 O   0  0  0  0  0  0  0  0  0  0  0  0
   -5.4440   -0.1440   -0.0000 C   0  0  0  0  0  0  0  0  0  0  0  0
   -4.4070    0.5620   -0.5470 C   0  0  0  0  0  0  0  0  0  0  0  0
  1  2  1  0
  2  3  1  0
  3  4  1  0
  4  5  1  0
  5  6  1  0
  5 10  1  0
  6  7  1  0
  7  8  1  0
  7  9  2  0
 10 11  2  0
 10 12  1  0
 12 13  1  0
 13 14  1  0
 14 15  1  0
 15 16  2  0
 15 17  1  0
 17 18  1  0
 18 19  2  0
 18 31  1  0
 19 20  1  0
 20 21  1  0
 20 22  2  0
 22 23  1  0
 22 30  1  0
 23 24  1  0
 24 25  2  0
 24 26  1  0
 26 27  1  0
 26 28  1  0
 28 29  2  0
 28 30  1  0
 30 31  2  0
M  END
