
     RDKit          3D

 31 32  0  0  0  0  0  0  0  0999 V2000
    8.4020    2.9050   -0.8010 N   0  0  0  0  0  0  0  0  0  0  0  0
    7.2300    2.5600   -1.5090 C   0  0  0  0  0  0  0  0  0  0  0  0
    7.0760    2.9620   -2.7030 O   0  0  0  0  0  0  0  0  0  0  0  0
    6.1520    1.7350   -0.9080 C   0  0  0  0  0  0  0  0  0  0  0  0
    6.4170    1.3050    0.3610 O   0  0  0  0  0  0  0  0  0  0  0  0
    7.4710    0.4550    0.5270 C   0  0  0  0  0  0  0  0  0  0  0  0
    7.2990   -0.9020   -0.1340 C   0  0  0  0  0  0  0  0  0  0  0  0
    6.1520   -1.6330    0.5090 C   0  0  0  0  0  0  0  0  0  0  0  0
    4.6360   -0.6790    0.3400 S   0  0  0  0  0  0  0  0  0  0  0  0
    3.2250   -1.4990    1.0900 C   0  0  0  0  0  0  0  0  0  0  0  0
    2.9020   -2.7640    0.3460 C   0  0  0  0  0  0  0  0  0  0  0  0
    2.5650   -2.5090   -1.0980 C   0  0  0  0  0  0  0  0  0  0  0  0
    1.4310   -1.6470   -1.2760 N   0  0  0  0  0  0  0  0  0  0  0  0
    0.1560   -2.0620   -0.7430 C   0  0  0  0  0  0  0  0  0  0  0  0
    0.1090   -3.1550   -0.1530 O   0  0  0  0  0  0  0  0  0  0  0  0
   -0.9740   -1.2390   -0.8990 N   0  0  0  0  0  0  0  0  0  0  0  0
   -2.2550   -1.5270   -0.4310 C   0  0  0  0  0  0  0  0  0  0  0  0
   -2.6540   -2.6400    0.2550 C   0  0  0  0  0  0  0  0  0  0  0  0
   -3.9370   -2.8350    0.6740 N   0  0  0  0  0  0  0  0  0  0  0  0
   -4.8500   -1.9050    0.4070 C   0  0  0  0  0  0  0  0  0  0  0  0
   -6.0660   -2.0110    0.7630 O   0  0  0  0  0  0  0  0  0  0  0  0
   -4.5360   -0.7760   -0.2660 N   0  0  0  0  0  0  0  0  0  0  0  0
   -5.5160    0.2440   -0.5620 C   0  0  0  0  0  0  0  0  0  0  0  0
   -5.5490    1.2470    0.5680 C   0  0  0  0  0  0  0  0  0  0  0  0
   -6.5330    2.3430    0.3510 C   0  0  1  0  0  0  0  0  0  0  0  0
   -7.9250    1.7910    0.2160 C   0  0  0  0  0  0  0  0  0  0  0  0
   -8.8230    3.0220    0.0330 C   0  0  0  0  0  0  0  0  0  0  0  0
   -8.1210    4.1050    1.3430 S   0  0  0  0  0  0  0  0  0  0  0  0
   -6.5490    3.1960    1.6280 C   0  0  0  0  0  0  0  0  0  0  0  0
   -3.2710   -0.5900   -0.6750 C   0  0  0  0  0  0  0  0  0  0  0  0
   -3.0130    0.4710   -1.2990 O   0  0  0  0  0  0  0  0  0  0  0  0
  1  2  1  0
  2  3  2  0
  2  4  1  0
  4  5  1  0
  5  6  1  0
  6  7  1  0
  7  8  1  0
  8  9  1  0
  9 10  1  0
 10 11  1  0
 11 12  1  0
 12 13  1  0
 13 14  1  0
 14 15  2  0
 14 16  1  0
 16 17  1  0
 17 18  2  0
 17 30  1  0
 18 19  1  0
 19 20  1  0
 20 21  2  0
 20 22  1  0
 22 23  1  0
 22 30  1  0
 23 24  1  0
 25 24  1  1
 25 26  1  0
 25 29  1  0
 26 27  1  0
 27 28  1  0
 28 29  1  0
 30 31  2  0
M  END
