
     RDKit          3D

 31 32  0  0  0  0  0  0  0  0999 V2000
    6.6220    1.0720   -1.6470 C   0  0  0  0  0  0  0  0  0  0  0  0
    7.5950    0.8300   -0.6250 N   0  0  0  0  0  0  0  0  0  0  0  0
    8.7850    1.6820   -0.6050 C   0  0  0  0  0  0  0  0  0  0  0  0
    7.4440   -0.1700    0.3550 C   0  0  0  0  0  0  0  0  0  0  0  0
    8.3070   -0.3620    1.2310 O   0  0  0  0  0  0  0  0  0  0  0  0
    6.2000   -1.0090    0.3210 C   0  0  0  0  0  0  0  0  0  0  0  0
    4.8730    0.0300    0.9190 S   0  0  0  0  0  0  0  0  0  0  0  0
    3.3340   -0.8600    1.0290 C   0  0  0  0  0  0  0  0  0  0  0  0
    3.2480   -2.1940    0.7040 C   0  0  0  0  0  0  0  0  0  0  0  0
    2.0650   -2.8560    0.8110 C   0  0  0  0  0  0  0  0  0  0  0  0
    0.9000   -2.2200    1.2510 C   0  0  0  0  0  0  0  0  0  0  0  0
   -0.3020   -2.9860    1.3570 N   0  0  0  0  0  0  0  0  0  0  0  0
    0.9600   -0.8940    1.5800 C   0  0  0  0  0  0  0  0  0  0  0  0
   -0.4220   -0.0120    2.1680 S   0  0  0  0  0  0  0  0  0  0  0  0
   -1.3970    0.8820    0.9970 C   0  0  1  0  0  0  0  0  0  0  0  0
   -0.6610    1.9890    0.2670 C   0  0  0  0  0  0  0  0  0  0  0  0
   -1.6970    2.9510   -0.2690 C   0  0  0  0  0  0  0  0  0  0  0  0
   -2.8210    2.2730   -0.9660 C   0  0  0  0  0  0  0  0  0  0  0  0
   -3.5180    2.9520   -1.7630 O   0  0  0  0  0  0  0  0  0  0  0  0
   -3.1210    0.9000   -0.7590 N   0  0  0  0  0  0  0  0  0  0  0  0
   -4.2980    0.2300   -1.3090 C   0  0  0  0  0  0  0  0  0  0  0  0
   -5.3710    0.3770   -0.2310 C   0  0  0  0  0  0  0  0  0  0  0  0
   -6.6280   -0.2640   -0.6090 C   0  0  0  0  0  0  0  0  0  0  0  0
   -6.7670   -0.8120   -1.7150 O   0  0  0  0  0  0  0  0  0  0  0  0
   -7.7140   -0.2630    0.3140 N   0  0  0  0  0  0  0  0  0  0  0  0
   -8.9440   -0.8820   -0.0100 N   0  0  0  0  0  0  0  0  0  0  0  0
   -9.3630   -1.9700    0.7890 C   0  0  0  0  0  0  0  0  0  0  0  0
   -8.6270   -2.3300    1.7420 O   0  0  0  0  0  0  0  0  0  0  0  0
   -2.2090    0.1330    0.0530 C   0  0  0  0  0  0  0  0  0  0  0  0
   -2.2170   -1.1040   -0.1470 O   0  0  0  0  0  0  0  0  0  0  0  0
    2.1730   -0.2500    1.4610 C   0  0  0  0  0  0  0  0  0  0  0  0
  1  2  1  0
  2  3  1  0
  2  4  1  0
  4  5  2  0
  4  6  1  0
  6  7  1  0
  7  8  1  0
  8  9  2  0
  8 31  1  0
  9 10  1  0
 10 11  2  0
 11 12  1  0
 11 13  1  0
 13 14  1  0
 13 31  2  0
 15 14  1  6
 15 16  1  0
 15 29  1  0
 16 17  1  0
 17 18  1  0
 18 19  2  0
 18 20  1  0
 20 21  1  0
 20 29  1  0
 21 22  1  0
 22 23  1  0
 23 24  2  0
 23 25  1  0
 25 26  1  0
 26 27  1  0
 27 28  2  0
 29 30  2  0
M  END
