
     RDKit          3D

 29 29  0  0  0  0  0  0  0  0999 V2000
    6.8160   -0.1960    1.2600 C   0  0  0  0  0  0  0  0  0  0  0  0
    5.6600   -1.0480    1.6390 C   0  0  0  0  0  0  0  0  0  0  0  0
    4.3620   -0.5660    1.4110 N   0  0  0  0  0  0  0  0  0  0  0  0
    3.8610   -0.4340    0.1020 C   0  0  2  0  0  0  0  0  0  0  0  0
    4.6470    0.5520   -0.6970 C   0  0  0  0  0  0  0  0  0  0  0  0
    3.7710    1.3740   -1.6290 C   0  0  0  0  0  0  0  0  0  0  0  0
    2.7070    0.4200   -2.1930 C   0  0  0  0  0  0  0  0  0  0  0  0
    1.8090    0.1850   -1.0810 N   0  0  0  0  0  0  0  0  0  0  0  0
    0.4300    0.0730   -1.3630 C   0  0  0  0  0  0  0  0  0  0  0  0
   -0.0130    0.1930   -2.5270 O   0  0  0  0  0  0  0  0  0  0  0  0
   -0.6020   -0.2000   -0.2860 C   0  0  1  0  0  0  0  0  0  0  0  0
   -1.9220    0.2420   -0.8690 C   0  0  0  0  0  0  0  0  0  0  0  0
   -3.0780    0.1130    0.0120 C   0  0  0  0  0  0  0  0  0  0  0  0
   -2.9420   -0.2070    1.2090 O   0  0  0  0  0  0  0  0  0  0  0  0
   -4.3970    0.3630   -0.5250 N   0  0  0  0  0  0  0  0  0  0  0  0
   -5.4920    0.2270    0.4160 C   0  0  0  0  0  0  0  0  0  0  0  0
   -6.2380   -0.8240    0.2280 C   0  0  0  0  0  0  0  0  0  0  0  0
   -7.4150   -1.2690    0.9800 C   0  0  0  0  0  0  0  0  0  0  0  0
   -8.4760   -1.3120    0.0540 F   0  0  0  0  0  0  0  0  0  0  0  0
   -5.6180    1.2390    1.4280 C   0  0  0  0  0  0  0  0  0  0  0  0
   -6.6220    1.1240    2.3840 O   0  0  0  0  0  0  0  0  0  0  0  0
   -4.8330    2.2780    1.5070 C   0  0  0  0  0  0  0  0  0  0  0  0
   -5.0570    3.1740    2.5310 F   0  0  0  0  0  0  0  0  0  0  0  0
   -3.8550    2.5320    0.6260 F   0  0  0  0  0  0  0  0  0  0  0  0
   -0.6910   -1.7420   -0.2550 C   0  0  1  0  0  0  0  0  0  0  0  0
   -1.5740   -2.2090    0.6750 F   0  0  0  0  0  0  0  0  0  0  0  0
   -1.2280   -2.0560   -1.5190 F   0  0  0  0  0  0  0  0  0  0  0  0
    0.5260   -2.3430   -0.2180 F   0  0  0  0  0  0  0  0  0  0  0  0
    2.4190    0.1090    0.2190 C   0  0  0  0  0  0  0  0  0  0  0  0
  1  2  1  0
  2  3  1  0
  4  3  1  1
  4  5  1  0
  4 29  1  0
  5  6  1  0
  6  7  1  0
  7  8  1  0
  8  9  1  0
  8 29  1  0
  9 10  2  0
  9 11  1  0
 11 12  1  6
 11 25  1  0
 12 13  1  0
 13 14  2  0
 13 15  1  0
 15 16  1  0
 16 17  2  3
 16 20  1  0
 17 18  1  0
 18 19  1  0
 20 21  1  0
 20 22  2  3
 22 23  1  0
 22 24  1  0
 25 26  1  1
 25 27  1  0
 25 28  1  0
M  END
