
     RDKit          3D

 31 32  0  0  0  0  0  0  0  0999 V2000
   10.1260    2.0230    0.6630 C   0  0  0  0  0  0  0  0  0  0  0  0
    8.8790    1.2820    0.5900 N   0  0  0  0  0  0  0  0  0  0  0  0
    8.8620   -0.1360    0.6750 C   0  0  0  0  0  0  0  0  0  0  0  0
    9.9930   -0.6940    0.8130 O   0  0  0  0  0  0  0  0  0  0  0  0
    7.6030   -0.8930    0.6060 C   0  0  0  0  0  0  0  0  0  0  0  0
    7.0290   -1.0920   -1.1300 S   0  0  0  0  0  0  0  0  0  0  0  0
    5.5650   -2.1280   -1.0440 C   0  0  0  0  0  0  0  0  0  0  0  0
    4.2960   -1.6180   -0.8420 C   0  0  0  0  0  0  0  0  0  0  0  0
    3.2550   -2.5140   -0.7760 C   0  0  0  0  0  0  0  0  0  0  0  0
    1.9410   -2.0440   -0.5750 N   0  0  0  0  0  0  0  0  0  0  0  0
    1.1900   -1.2320   -1.4320 C   0  0  0  0  0  0  0  0  0  0  0  0
    1.7240   -0.8570   -2.5420 O   0  0  0  0  0  0  0  0  0  0  0  0
   -0.1660   -0.7820   -1.1430 C   0  0  0  0  0  0  0  0  0  0  0  0
   -0.9230   -0.9880   -0.0330 C   0  0  0  0  0  0  0  0  0  0  0  0
   -2.1080   -0.4470   -0.0420 N   0  0  0  0  0  0  0  0  0  0  0  0
   -2.6530    0.1820   -0.8200 C   0  0  0  0  0  0  0  0  0  0  0  0
   -3.8510    0.9620   -1.1880 C   0  0  0  0  0  0  0  0  0  0  0  0
   -3.9730    1.4470   -2.3280 O   0  0  0  0  0  0  0  0  0  0  0  0
   -4.8710    1.1570   -0.2140 N   0  0  0  0  0  0  0  0  0  0  0  0
   -4.6300    0.5450    1.0670 C   0  0  0  0  0  0  0  0  0  0  0  0
   -5.0220   -0.9000    1.1800 C   0  0  0  0  0  0  0  0  0  0  0  0
   -4.6890   -1.3000    2.4940 O   0  0  0  0  0  0  0  0  0  0  0  0
   -6.0100    1.9430   -0.5330 C   0  0  2  0  0  0  0  0  0  0  0  0
   -5.8290    2.7720   -1.8200 C   0  0  0  0  0  0  0  0  0  0  0  0
   -6.1530    3.0640    0.5580 C   0  0  0  0  0  0  0  0  0  0  0  0
   -7.3070    1.2580   -0.6410 C   0  0  0  0  0  0  0  0  0  0  0  0
   -7.8140    0.6650    0.4870 O   0  0  0  0  0  0  0  0  0  0  0  0
   -1.2390    0.1960   -2.1410 S   0  0  0  0  0  0  0  0  0  0  0  0
    3.5430   -3.8680   -0.9170 C   0  0  0  0  0  0  0  0  0  0  0  0
    4.8050   -4.3540   -1.1160 C   0  0  0  0  0  0  0  0  0  0  0  0
    5.7960   -3.4650   -1.1750 N   0  0  0  0  0  0  0  0  0  0  0  0
  1  2  1  0
  2  3  1  0
  3  4  2  0
  3  5  1  0
  5  6  1  0
  6  7  1  0
  7  8  2  0
  7 31  1  0
  8  9  1  0
  9 10  1  0
  9 29  2  0
 10 11  1  0
 11 12  2  0
 11 13  1  0
 13 14  2  0
 13 28  1  0
 14 15  1  0
 15 16  2  0
 16 17  1  0
 16 28  1  0
 17 18  2  0
 17 19  1  0
 19 20  1  0
 19 23  1  0
 20 21  1  0
 21 22  1  0
 23 24  1  6
 23 25  1  0
 23 26  1  0
 26 27  1  0
 29 30  1  0
 30 31  2  0
M  END
