
     RDKit          3D

 41 43  0  0  0  0  0  0  0  0999 V2000
    7.1410   -4.0210    1.1090 C   0  0  0  0  0  0  0  0  0  0  0  0
    6.9450   -2.7530    1.8410 N   0  0  0  0  0  0  0  0  0  0  0  0
    5.9640   -1.8620    1.3960 C   0  0  0  0  0  0  0  0  0  0  0  0
    6.0770   -0.7800    0.7190 C   0  0  0  0  0  0  0  0  0  0  0  0
    7.3330   -0.2030    0.2260 C   0  0  0  0  0  0  0  0  0  0  0  0
    7.3440    0.9510   -0.4460 C   0  0  0  0  0  0  0  0  0  0  0  0
    8.5690    1.5990   -0.9810 C   0  0  0  0  0  0  0  0  0  0  0  0
    9.7350    0.8900   -0.6950 O   0  0  0  0  0  0  0  0  0  0  0  0
    9.7790   -0.2910   -0.0150 C   0  0  0  0  0  0  0  0  0  0  0  0
    8.6190   -0.8200    0.4300 C   0  0  0  0  0  0  0  0  0  0  0  0
    4.8130    0.0330    0.4580 C   0  0  1  0  0  0  0  0  0  0  0  0
    4.5920   -0.2030   -1.0420 C   0  0  0  0  0  0  0  0  0  0  0  0
    3.5760    0.8050   -1.5130 C   0  0  0  0  0  0  0  0  0  0  0  0
    2.2730    0.0920   -1.6020 C   0  0  0  0  0  0  0  0  0  0  0  0
    1.5900   -0.2630   -0.3490 C   0  0  2  0  0  0  0  0  0  0  0  0
    0.7900    0.7470    0.2930 N   0  0  1  0  0  0  0  0  0  0  0  0
    0.6670    1.9980   -0.3750 C   0  0  0  0  0  0  0  0  0  0  0  0
    0.9770    3.1910    0.5510 C   0  0  0  0  0  0  0  0  0  0  0  0
    2.2670    3.1210    1.0430 O   0  0  0  0  0  0  0  0  0  0  0  0
   -0.3950    0.1660    0.7960 C   0  0  0  0  0  0  0  0  0  0  0  0
   -1.7250    0.6520    0.3930 C   0  0  1  0  0  0  0  0  0  0  0  0
   -2.0180    1.9810    0.6700 O   0  0  0  0  0  0  0  0  0  0  0  0
   -2.2340    0.2150   -0.9570 C   0  0  0  0  0  0  0  0  0  0  0  0
   -3.7240    0.3890   -0.9470 N   0  0  0  0  0  0  0  0  0  0  0  0
   -4.2100    1.6590   -1.4040 C   0  0  0  0  0  0  0  0  0  0  0  0
   -4.4690   -0.7110   -0.4990 C   0  0  0  0  0  0  0  0  0  0  0  0
   -3.7950   -1.7710   -0.1740 O   0  0  0  0  0  0  0  0  0  0  0  0
   -5.8640   -0.7420   -0.3800 N   0  0  0  0  0  0  0  0  0  0  0  0
   -6.3920   -2.0540    0.1040 C   0  0  0  0  0  0  0  0  0  0  0  0
   -6.4710   -2.0630    1.5890 C   0  0  0  0  0  0  0  0  0  0  0  0
   -6.9580   -3.2830    2.0240 O   0  0  0  0  0  0  0  0  0  0  0  0
   -6.1360   -4.3090    1.6270 C   0  0  0  0  0  0  0  0  0  0  0  0
   -6.7740    0.2870   -0.6440 C   0  0  0  0  0  0  0  0  0  0  0  0
   -7.1090    1.1640    0.4040 C   0  0  0  0  0  0  0  0  0  0  0  0
   -8.0370    2.1750    0.2130 C   0  0  0  0  0  0  0  0  0  0  0  0
   -8.6570    2.3550   -0.9970 C   0  0  0  0  0  0  0  0  0  0  0  0
   -9.6180    3.4070   -1.1660 N   0  0  0  0  0  0  0  0  0  0  0  0
   -8.3460    1.5120   -2.0320 C   0  0  0  0  0  0  0  0  0  0  0  0
   -7.4220    0.5070   -1.8370 C   0  0  0  0  0  0  0  0  0  0  0  0
    2.5010   -1.0340    0.5530 C   0  0  0  0  0  0  0  0  0  0  0  0
    3.6150   -0.3480    1.2150 C   0  0  0  0  0  0  0  0  0  0  0  0
  1  2  1  0
  2  3  1  0
  3  4  2  3
  4  5  1  0
 11  4  1  1
  5  6  2  0
  5 10  1  0
  6  7  1  0
  7  8  1  0
  8  9  1  0
  9 10  2  0
 11 12  1  0
 11 41  1  0
 12 13  1  0
 13 14  1  0
 15 14  1  6
 15 16  1  0
 15 40  1  0
 16 17  1  6
 16 20  1  0
 17 18  1  0
 18 19  1  0
 20 21  1  0
 21 22  1  6
 21 23  1  0
 23 24  1  0
 24 25  1  0
 24 26  1  0
 26 27  2  0
 26 28  1  0
 28 29  1  0
 28 33  1  0
 29 30  1  0
 30 31  1  0
 31 32  1  0
 33 34  2  0
 33 39  1  0
 34 35  1  0
 35 36  2  0
 36 37  1  0
 36 38  1  0
 38 39  2  0
 40 41  1  0
M  CHG  1  16   1
M  END
