
     RDKit          3D

 41 42  0  0  0  0  0  0  0  0999 V2000
   -5.8770    1.8300   -1.7520 C   0  0  0  0  0  0  0  0  0  0  0  0
   -5.8410    2.3180   -0.3220 C   0  0  0  0  0  0  0  0  0  0  0  0
   -6.6340    1.4830    0.5600 N   0  0  1  0  0  0  0  0  0  0  0  0
   -8.0280    1.9160    0.5810 C   0  0  0  0  0  0  0  0  0  0  0  0
   -8.1280    3.1090    1.5070 C   0  0  0  0  0  0  0  0  0  0  0  0
   -7.7310    2.7980    2.7970 O   0  0  0  0  0  0  0  0  0  0  0  0
   -6.5760    0.0980    0.2190 C   0  0  0  0  0  0  0  0  0  0  0  0
   -5.4690   -0.6550    0.9430 C   0  0  2  0  0  0  0  0  0  0  0  0
   -5.6580   -0.5090    2.4610 C   0  0  0  0  0  0  0  0  0  0  0  0
   -4.2110   -0.1430    0.6550 O   0  0  0  0  0  0  0  0  0  0  0  0
   -3.2510   -0.8430   -0.0370 C   0  0  0  0  0  0  0  0  0  0  0  0
   -3.4610   -2.1020   -0.5380 C   0  0  0  0  0  0  0  0  0  0  0  0
   -2.4500   -2.7520   -1.2270 C   0  0  0  0  0  0  0  0  0  0  0  0
   -1.1970   -2.1840   -1.4450 C   0  0  0  0  0  0  0  0  0  0  0  0
   -0.2380   -2.9960   -2.1860 C   0  0  2  0  0  0  0  0  0  0  0  0
   -0.8620   -4.1990   -2.8600 C   0  0  0  0  0  0  0  0  0  0  0  0
    0.7830   -3.5410   -1.2520 C   0  0  0  0  0  0  0  0  0  0  0  0
    0.3130   -4.2940   -0.0580 C   0  0  0  0  0  0  0  0  0  0  0  0
    1.9820   -3.4180   -1.3860 O   0  0  0  0  0  0  0  0  0  0  0  0
   -0.9830   -0.9110   -0.9380 C   0  0  0  0  0  0  0  0  0  0  0  0
    0.2900   -0.3500   -1.1710 N   0  0  0  0  0  0  0  0  0  0  0  0
    0.7250    0.9450   -0.8160 C   0  0  0  0  0  0  0  0  0  0  0  0
   -0.0710    1.7500   -0.2210 O   0  0  0  0  0  0  0  0  0  0  0  0
    2.0380    1.3890   -1.1140 N   0  0  0  0  0  0  0  0  0  0  0  0
    2.3260    2.8120   -0.8240 C   0  0  0  0  0  0  0  0  0  0  0  0
    3.1110    0.6030   -1.5720 C   0  0  0  0  0  0  0  0  0  0  0  0
    4.0790    0.2280   -0.4880 C   0  0  0  0  0  0  0  0  0  0  0  0
    5.3560    0.5690   -0.6870 C   0  0  0  0  0  0  0  0  0  0  0  0
    6.4670    0.3230    0.1750 C   0  0  0  0  0  0  0  0  0  0  0  0
    6.8320   -0.9250    0.5910 C   0  0  0  0  0  0  0  0  0  0  0  0
    7.8970   -1.1240    1.4370 C   0  0  0  0  0  0  0  0  0  0  0  0
    8.2800   -2.4800    1.8820 C   0  0  0  0  0  0  0  0  0  0  0  0
    8.6240   -0.0420    1.8830 C   0  0  0  0  0  0  0  0  0  0  0  0
    8.2670    1.2290    1.4690 C   0  0  0  0  0  0  0  0  0  0  0  0
    7.2120    1.4190    0.6330 C   0  0  0  0  0  0  0  0  0  0  0  0
    6.8450    2.7330    0.2050 N   0  0  0  0  0  0  0  0  0  0  0  0
    7.6160    3.8620    0.6820 C   0  0  0  0  0  0  0  0  0  0  0  0
    3.6150   -0.3620    0.7370 C   0  0  0  0  0  0  0  0  0  0  0  0
    2.2960   -0.7770    1.0360 N   0  0  0  0  0  0  0  0  0  0  0  0
    4.4740   -0.5380    1.6860 O   0  0  0  0  0  0  0  0  0  0  0  0
   -1.9830   -0.2780   -0.2620 C   0  0  0  0  0  0  0  0  0  0  0  0
  1  2  1  0
  3  2  1  6
  3  4  1  0
  3  7  1  0
  4  5  1  0
  5  6  1  0
  7  8  1  0
  8  9  1  1
  8 10  1  0
 10 11  1  0
 11 12  2  0
 11 41  1  0
 12 13  1  0
 13 14  2  0
 14 15  1  0
 14 20  1  0
 15 16  1  1
 15 17  1  0
 17 18  1  0
 17 19  2  0
 20 21  1  0
 20 41  2  0
 21 22  1  0
 22 23  2  0
 22 24  1  0
 24 25  1  0
 24 26  1  0
 26 27  1  0
 27 28  2  3
 27 38  1  0
 28 29  1  0
 29 30  2  0
 29 35  1  0
 30 31  1  0
 31 32  1  0
 31 33  2  0
 33 34  1  0
 34 35  2  0
 35 36  1  0
 36 37  1  0
 38 39  1  0
 38 40  2  0
M  CHG  1   3   1
M  END
