
     RDKit          3D

 41 42  0  0  0  0  0  0  0  0999 V2000
  -10.3640    3.0560    2.6250 C   0  0  0  0  0  0  0  0  0  0  0  0
  -10.3040    2.2650    1.4110 C   0  0  0  0  0  0  0  0  0  0  0  0
   -9.2750    1.3800    1.3360 C   0  0  0  0  0  0  0  0  0  0  0  0
   -8.3750    1.3810    2.5620 C   0  0  0  0  0  0  0  0  0  0  0  0
   -7.4250    0.5520    2.4640 C   0  0  0  0  0  0  0  0  0  0  0  0
   -6.3090    0.0310    3.2070 C   0  0  0  0  0  0  0  0  0  0  0  0
   -5.5950   -1.0380    2.5500 N   0  0  0  0  0  0  0  0  0  0  0  0
   -5.9600    0.4430    4.3200 O   0  0  0  0  0  0  0  0  0  0  0  0
   -7.0590    0.3380    0.9310 C   0  0  0  0  0  0  0  0  0  0  0  0
   -6.3610    1.3640    0.4610 C   0  0  0  0  0  0  0  0  0  0  0  0
   -5.6790    1.1620   -0.7770 C   0  0  0  0  0  0  0  0  0  0  0  0
   -5.8000   -0.0520   -1.3540 C   0  0  0  0  0  0  0  0  0  0  0  0
   -4.9210   -0.4540   -2.3800 N   0  0  0  0  0  0  0  0  0  0  0  0
   -3.6730   -1.0760   -1.7130 C   0  0  0  0  0  0  0  0  0  0  0  0
   -3.6770   -1.0490   -0.5200 O   0  0  0  0  0  0  0  0  0  0  0  0
   -2.7440   -1.5660   -2.6510 N   0  0  0  0  0  0  0  0  0  0  0  0
   -1.4690   -1.8410   -1.5280 C   0  0  0  0  0  0  0  0  0  0  0  0
   -1.7630   -1.6440   -0.4000 O   0  0  0  0  0  0  0  0  0  0  0  0
   -0.1850   -2.2770   -2.0190 C   0  0  1  0  0  0  0  0  0  0  0  0
    0.1940   -1.4190   -3.2520 C   0  0  0  0  0  0  0  0  0  0  0  0
    0.7250   -1.7420   -0.8510 C   0  0  0  0  0  0  0  0  0  0  0  0
    2.0770   -2.0610   -0.8400 C   0  0  0  0  0  0  0  0  0  0  0  0
    2.2050   -3.4440   -1.0660 O   0  0  0  0  0  0  0  0  0  0  0  0
    3.3280   -1.5370   -0.6830 N   0  0  0  0  0  0  0  0  0  0  0  0
    4.4950   -2.4390   -0.5590 C   0  0  0  0  0  0  0  0  0  0  0  0
    4.7150   -2.7010    0.9120 C   0  0  2  0  0  0  0  0  0  0  0  0
    5.9560   -3.5880    1.0290 C   0  0  0  0  0  0  0  0  0  0  0  0
    3.5590   -3.4270    1.5660 C   0  0  0  0  0  0  0  0  0  0  0  0
    3.8970   -3.5950    2.9310 O   0  0  0  0  0  0  0  0  0  0  0  0
    3.6850   -0.1220   -0.6610 C   0  0  2  0  0  0  0  0  0  0  0  0
    2.9090    0.6530    0.3160 C   0  0  0  0  0  0  0  0  0  0  0  0
    3.7980    1.7980    0.8010 C   0  0  0  0  0  0  0  0  0  0  0  0
    4.2310    2.7030   -0.2640 C   0  0  0  0  0  0  0  0  0  0  0  0
    5.1930    2.2650   -1.2080 N   0  0  1  0  0  0  0  0  0  0  0  0
    6.4390    1.7710   -0.7180 C   0  0  0  0  0  0  0  0  0  0  0  0
    7.6100    2.7190   -0.8440 C   0  0  0  0  0  0  0  0  0  0  0  0
    7.4400    3.9770   -0.0020 C   0  0  0  0  0  0  0  0  0  0  0  0
    4.7190    1.4610   -2.3010 C   0  0  0  0  0  0  0  0  0  0  0  0
    3.5710    0.5480   -2.0160 C   0  0  0  0  0  0  0  0  0  0  0  0
   -6.5720   -1.1460   -0.8220 C   0  0  0  0  0  0  0  0  0  0  0  0
   -7.2290   -0.8820    0.4100 C   0  0  0  0  0  0  0  0  0  0  0  0
  1  2  1  0
  2  3  2  3
  3  4  1  0
  4  5  2  3
  5  6  1  0
  5  9  1  0
  6  7  1  0
  6  8  2  0
  9 10  2  0
  9 41  1  0
 10 11  1  0
 11 12  2  0
 12 13  1  0
 12 40  1  0
 13 14  1  0
 14 15  2  0
 14 16  1  0
 16 17  1  0
 17 18  2  0
 17 19  1  0
 19 20  1  6
 19 21  1  0
 21 22  1  0
 22 23  2  0
 22 24  1  0
 24 25  1  0
 30 24  1  6
 25 26  1  0
 26 27  1  6
 26 28  1  0
 28 29  1  0
 30 31  1  0
 30 39  1  0
 31 32  1  0
 32 33  1  0
 33 34  1  0
 34 35  1  1
 34 38  1  0
 35 36  1  0
 36 37  1  0
 38 39  1  0
 40 41  2  0
M  CHG  1  34   1
M  END
