
     RDKit          3D

 41 43  0  0  0  0  0  0  0  0999 V2000
   -5.7140    2.6950    0.3740 C   0  0  0  0  0  0  0  0  0  0  0  0
   -5.7190    1.3960    1.2050 C   0  0  0  0  0  0  0  0  0  0  0  0
   -6.5860    0.3960    0.6120 C   0  0  0  0  0  0  0  0  0  0  0  0
   -6.4600   -0.7960    0.1630 C   0  0  0  0  0  0  0  0  0  0  0  0
   -7.6110   -1.5500   -0.4010 C   0  0  0  0  0  0  0  0  0  0  0  0
   -8.9340   -0.9570   -0.5070 C   0  0  2  0  0  0  0  0  0  0  0  0
   -9.1170    0.2580   -1.3530 C   0  0  0  0  0  0  0  0  0  0  0  0
  -10.1020    1.2640   -0.7970 C   0  0  0  0  0  0  0  0  0  0  0  0
  -11.3210    0.6110   -0.2200 C   0  0  0  0  0  0  0  0  0  0  0  0
  -11.1210   -0.7860    0.2640 C   0  0  0  0  0  0  0  0  0  0  0  0
   -9.7320   -0.9350    0.7210 N   0  0  0  0  0  0  0  0  0  0  0  0
   -5.2340   -1.5510    0.1800 C   0  0  0  0  0  0  0  0  0  0  0  0
   -5.3420   -2.7400   -0.3790 O   0  0  0  0  0  0  0  0  0  0  0  0
   -3.9120   -1.2630    0.6870 C   0  0  1  0  0  0  0  0  0  0  0  0
   -3.8290   -1.2640    2.2060 C   0  0  0  0  0  0  0  0  0  0  0  0
   -2.9350   -2.2950    0.2770 N   0  0  0  0  0  0  0  0  0  0  0  0
   -1.7680   -2.0080   -0.4380 C   0  0  0  0  0  0  0  0  0  0  0  0
   -1.5190   -0.8180   -0.7600 O   0  0  0  0  0  0  0  0  0  0  0  0
   -0.7920   -3.0710   -0.8430 C   0  0  0  0  0  0  0  0  0  0  0  0
    0.3230   -2.4860   -1.5730 N   0  0  0  0  0  0  0  0  0  0  0  0
    1.1750   -1.5100   -1.0080 C   0  0  0  0  0  0  0  0  0  0  0  0
    0.9240   -1.1560    0.1930 O   0  0  0  0  0  0  0  0  0  0  0  0
    2.2670   -0.9310   -1.7200 N   0  0  0  0  0  0  0  0  0  0  0  0
    3.0900    0.0650   -1.0580 C   0  0  2  0  0  0  0  0  0  0  0  0
    2.9990    1.4060   -1.7590 C   0  0  0  0  0  0  0  0  0  0  0  0
    3.8950    2.3700   -1.0320 C   0  0  0  0  0  0  0  0  0  0  0  0
    4.4580    1.8110    0.2330 C   0  0  0  0  0  0  0  0  0  0  0  0
    5.2300    0.5230    0.0290 C   0  0  2  0  0  0  0  0  0  0  0  0
    6.5710    0.7300   -0.2360 O   0  0  0  0  0  0  0  0  0  0  0  0
    7.6800    0.3240    0.4400 C   0  0  0  0  0  0  0  0  0  0  0  0
    7.6210   -0.4280    1.5850 C   0  0  0  0  0  0  0  0  0  0  0  0
    8.7490   -0.8400    2.2710 C   0  0  0  0  0  0  0  0  0  0  0  0
   10.0090   -0.4970    1.8110 C   0  0  0  0  0  0  0  0  0  0  0  0
   11.1310   -0.9260    2.5220 O   0  0  0  0  0  0  0  0  0  0  0  0
   12.4560   -0.6680    2.1940 C   0  0  0  0  0  0  0  0  0  0  0  0
   10.0840    0.2580    0.6590 C   0  0  0  0  0  0  0  0  0  0  0  0
    8.9380    0.6620   -0.0150 C   0  0  0  0  0  0  0  0  0  0  0  0
    9.0510    1.4430   -1.2010 N   0  0  0  0  0  0  0  0  0  0  0  0
    8.5270    0.9590   -2.4470 C   0  0  0  0  0  0  0  0  0  0  0  0
    9.7000    2.7320   -1.1280 C   0  0  0  0  0  0  0  0  0  0  0  0
    4.5470   -0.3290   -1.0380 C   0  0  0  0  0  0  0  0  0  0  0  0
  1  2  1  0
  2  3  1  0
  3  4  2  3
  4  5  1  0
  4 12  1  0
  6  5  1  1
  6  7  1  0
  6 11  1  0
  7  8  1  0
  8  9  1  0
  9 10  1  0
 10 11  1  0
 12 13  2  0
 12 14  1  0
 14 15  1  1
 14 16  1  0
 16 17  1  0
 17 18  2  0
 17 19  1  0
 19 20  1  0
 20 21  1  0
 21 22  2  0
 21 23  1  0
 24 23  1  6
 24 25  1  0
 24 41  1  0
 25 26  1  0
 26 27  1  0
 27 28  1  0
 28 29  1  6
 28 41  1  0
 29 30  1  0
 30 31  2  0
 30 37  1  0
 31 32  1  0
 32 33  2  0
 33 34  1  0
 33 36  1  0
 34 35  1  0
 36 37  2  0
 37 38  1  0
 38 39  1  0
 38 40  1  0
M  CHG  1  11   1
M  END
