
     RDKit          3D

 33 33  0  0  0  0  0  0  0  0999 V2000
    6.0700    2.4820    1.2490 C   0  0  0  0  0  0  0  0  0  0  0  0
    7.0230    1.8900    0.2570 C   0  0  0  0  0  0  0  0  0  0  0  0
    6.3470    1.2800   -0.9370 C   0  0  0  0  0  0  0  0  0  0  0  0
    5.4290    0.1860   -0.5420 C   0  0  0  0  0  0  0  0  0  0  0  0
    5.9670   -1.0200   -0.1910 C   0  0  0  0  0  0  0  0  0  0  0  0
    7.3000   -1.2690   -0.1850 F   0  0  0  0  0  0  0  0  0  0  0  0
    5.1230   -2.0220    0.1710 C   0  0  0  0  0  0  0  0  0  0  0  0
    3.7270   -1.8430    0.1910 C   0  0  0  0  0  0  0  0  0  0  0  0
    3.1660   -0.6500   -0.1550 C   0  0  0  0  0  0  0  0  0  0  0  0
    1.7620   -0.3450   -0.1760 N   0  0  0  0  0  0  0  0  0  0  0  0
    0.7460   -1.2330    0.1700 C   0  0  0  0  0  0  0  0  0  0  0  0
    1.0230   -2.4090    0.5300 O   0  0  0  0  0  0  0  0  0  0  0  0
   -0.6650   -0.8250    0.1230 N   0  0  0  0  0  0  0  0  0  0  0  0
   -1.5360   -1.9470    0.4420 C   0  0  0  0  0  0  0  0  0  0  0  0
   -1.7420   -2.8270   -0.7640 C   0  0  1  0  0  0  0  0  0  0  0  0
   -0.5440   -3.4320   -1.2050 O   0  0  0  0  0  0  0  0  0  0  0  0
   -2.8140   -3.8170   -0.6280 C   0  0  0  0  0  0  0  0  0  0  0  0
   -2.7840   -4.8510    0.1700 C   0  0  0  0  0  0  0  0  0  0  0  0
   -1.6500   -5.1780    1.0640 C   0  0  0  0  0  0  0  0  0  0  0  0
   -3.8430   -5.7340    0.2310 F   0  0  0  0  0  0  0  0  0  0  0  0
   -1.0440    0.5300   -0.0880 C   0  0  2  0  0  0  0  0  0  0  0  0
   -1.3620    1.0290    1.3930 C   0  0  0  0  0  0  0  0  0  0  0  0
   -1.7390    2.3860    1.4020 N   0  0  0  0  0  0  0  0  0  0  0  0
   -2.9920    2.6490    2.0970 C   0  0  0  0  0  0  0  0  0  0  0  0
   -3.6750    3.7510    1.3690 C   0  0  0  0  0  0  0  0  0  0  0  0
   -4.9410    4.2620    1.7880 N   0  0  0  0  0  0  0  0  0  0  0  0
   -3.1730    4.2960    0.3380 O   0  0  0  0  0  0  0  0  0  0  0  0
   -2.0200    1.0430   -1.0020 C   0  0  0  0  0  0  0  0  0  0  0  0
   -3.4460    0.8970   -1.0810 C   0  0  1  0  0  0  0  0  0  0  0  0
   -3.9030    1.7970   -2.3180 C   0  0  0  0  0  0  0  0  0  0  0  0
   -4.0910   -0.3970   -1.4600 C   0  0  0  0  0  0  0  0  0  0  0  0
    4.0540    0.3620   -0.5230 C   0  0  0  0  0  0  0  0  0  0  0  0
    3.5470    1.5790   -0.8800 F   0  0  0  0  0  0  0  0  0  0  0  0
  1  2  1  0
  2  3  1  0
  3  4  1  0
  4  5  2  0
  4 32  1  0
  5  6  1  0
  5  7  1  0
  7  8  2  0
  8  9  1  0
  9 10  1  0
  9 32  2  0
 10 11  1  0
 11 12  2  0
 11 13  1  0
 13 14  1  0
 13 21  1  0
 14 15  1  0
 15 16  1  1
 15 17  1  0
 17 18  2  3
 18 19  1  0
 18 20  1  0
 21 22  1  1
 21 28  1  0
 22 23  1  0
 23 24  1  0
 24 25  1  0
 25 26  1  0
 25 27  2  0
 28 29  1  0
 29 30  1  6
 29 31  1  0
 32 33  1  0
M  CHG  1  23   1
M  END
