
     RDKit          3D

 33 33  0  0  0  0  0  0  0  0999 V2000
   -4.5220   -1.5650    2.8980 C   0  0  0  0  0  0  0  0  0  0  0  0
   -3.2910   -2.4510    2.9040 C   0  0  0  0  0  0  0  0  0  0  0  0
   -2.0240   -1.7770    2.6300 C   0  0  0  0  0  0  0  0  0  0  0  0
   -1.6820   -1.0610    1.4460 C   0  0  0  0  0  0  0  0  0  0  0  0
   -2.1600   -0.8820    0.2310 C   0  0  0  0  0  0  0  0  0  0  0  0
   -3.3920   -1.5660   -0.1350 C   0  0  0  0  0  0  0  0  0  0  0  0
   -1.4210   -0.0530   -0.7490 C   0  0  0  0  0  0  0  0  0  0  0  0
   -1.8940    0.2040   -1.9330 C   0  0  0  0  0  0  0  0  0  0  0  0
   -3.1820   -0.2980   -2.3860 N   0  0  0  0  0  0  0  0  0  0  0  0
   -1.2340    1.0490   -2.9550 C   0  0  0  0  0  0  0  0  0  0  0  0
   -1.8950    1.1480   -4.0680 O   0  0  0  0  0  0  0  0  0  0  0  0
   -0.0800    1.7250   -2.9290 O   0  0  0  0  0  0  0  0  0  0  0  0
    0.4570    2.5070   -3.9700 C   0  0  0  0  0  0  0  0  0  0  0  0
   -0.0630    0.4410   -0.3530 C   0  0  2  0  0  0  0  0  0  0  0  0
    0.9000   -0.6780   -0.0890 C   0  0  0  0  0  0  0  0  0  0  0  0
    1.7710   -0.5930    0.8010 O   0  0  0  0  0  0  0  0  0  0  0  0
    0.8390   -1.8790   -0.8610 N   0  0  0  0  0  0  0  0  0  0  0  0
    1.7170   -2.9860   -0.6710 C   0  0  0  0  0  0  0  0  0  0  0  0
    3.1490   -2.6390   -0.8700 C   0  0  0  0  0  0  0  0  0  0  0  0
    3.9890   -2.8080    0.1330 C   0  0  0  0  0  0  0  0  0  0  0  0
    5.4260   -2.5150    0.0960 C   0  0  1  0  0  0  0  0  0  0  0  0
    6.1120   -3.2070   -0.8980 F   0  0  0  0  0  0  0  0  0  0  0  0
    5.7220   -1.1700    0.0430 F   0  0  0  0  0  0  0  0  0  0  0  0
    3.5240   -2.1220   -2.2080 C   0  0  2  0  0  0  0  0  0  0  0  0
    3.2610   -3.0930   -3.2560 N   0  0  0  0  0  0  0  0  0  0  0  0
    4.7660   -1.5640   -2.2740 F   0  0  0  0  0  0  0  0  0  0  0  0
   -0.0610    1.4690    0.6480 N   0  0  0  0  0  0  0  0  0  0  0  0
    1.2500    1.9790    0.8050 C   0  0  0  0  0  0  0  0  0  0  0  0
    1.3820    3.4630    0.8900 C   0  0  0  0  0  0  0  0  0  0  0  0
    0.2590    4.1620    1.5820 C   0  0  2  0  0  0  0  0  0  0  0  0
    0.5230    4.3160    3.0670 C   0  0  0  0  0  0  0  0  0  0  0  0
   -1.0730    3.4780    1.4360 C   0  0  0  0  0  0  0  0  0  0  0  0
   -1.0660    2.4310    0.3470 C   0  0  0  0  0  0  0  0  0  0  0  0
  1  2  1  0
  2  3  1  0
  3  4  1  0
  4  5  2  3
  5  6  1  0
  5  7  1  0
  7  8  2  3
  7 14  1  0
  8  9  1  0
  8 10  1  0
 10 11  2  0
 10 12  1  0
 12 13  1  0
 14 15  1  0
 14 27  1  1
 15 16  2  0
 15 17  1  0
 17 18  1  0
 18 19  1  0
 19 20  2  3
 19 24  1  0
 20 21  1  0
 21 22  1  6
 21 23  1  0
 24 25  1  6
 24 26  1  0
 27 28  1  0
 27 33  1  0
 28 29  1  0
 29 30  1  0
 30 31  1  1
 30 32  1  0
 32 33  1  0
M  END
