
     RDKit          3D

 33 33  0  0  0  0  0  0  0  0999 V2000
    6.4110   -1.1030   -3.4800 C   0  0  0  0  0  0  0  0  0  0  0  0
    6.5160   -1.7470   -2.2330 O   0  0  0  0  0  0  0  0  0  0  0  0
    5.8380   -2.9680   -2.2810 C   0  0  1  0  0  0  0  0  0  0  0  0
    6.7870   -4.1280   -2.0260 C   0  0  0  0  0  0  0  0  0  0  0  0
    4.8160   -2.9430   -1.2020 C   0  0  0  0  0  0  0  0  0  0  0  0
    4.6430   -4.0630   -0.4140 C   0  0  0  0  0  0  0  0  0  0  0  0
    3.6990   -4.0310    0.5800 C   0  0  0  0  0  0  0  0  0  0  0  0
    3.4570   -5.0770    1.4030 F   0  0  0  0  0  0  0  0  0  0  0  0
    2.9510   -2.8730    0.7540 C   0  0  0  0  0  0  0  0  0  0  0  0
    3.0990   -1.7510   -0.0090 C   0  0  0  0  0  0  0  0  0  0  0  0
    2.3210   -0.5810    0.1700 N   0  0  0  0  0  0  0  0  0  0  0  0
    1.1700   -0.4300    0.9530 C   0  0  0  0  0  0  0  0  0  0  0  0
    0.6940   -1.3730    1.5990 O   0  0  0  0  0  0  0  0  0  0  0  0
    0.4640    0.9250    1.0310 C   0  0  2  0  0  0  0  0  0  0  0  0
    1.3970    1.8910    1.7490 C   0  0  0  0  0  0  0  0  0  0  0  0
   -0.6600    0.7190    1.8820 N   0  0  0  0  0  0  0  0  0  0  0  0
   -0.2660    0.1950    3.2660 C   0  0  0  0  0  0  0  0  0  0  0  0
   -2.0300    0.9000    1.7330 C   0  0  0  0  0  0  0  0  0  0  0  0
   -2.7050    0.2400    2.7010 O   0  0  0  0  0  0  0  0  0  0  0  0
   -2.8610    1.5840    0.8250 C   0  0  0  0  0  0  0  0  0  0  0  0
   -2.5610    2.5780    0.0300 C   0  0  0  0  0  0  0  0  0  0  0  0
   -1.4200    3.3350   -0.2300 C   0  0  0  0  0  0  0  0  0  0  0  0
   -1.4640    4.3080   -1.1820 C   0  0  0  0  0  0  0  0  0  0  0  0
   -2.7350    4.5150   -1.9010 C   0  0  0  0  0  0  0  0  0  0  0  0
   -0.3560    5.0480   -1.4400 F   0  0  0  0  0  0  0  0  0  0  0  0
   -4.3120    1.2110    0.6870 C   0  0  0  0  0  0  0  0  0  0  0  0
   -5.0400    2.1930   -0.2010 N   0  0  0  0  0  0  0  0  0  0  0  0
   -5.0440    0.3010    1.1320 C   0  0  0  0  0  0  0  0  0  0  0  0
   -6.5510    0.4150    0.6690 C   0  0  0  0  0  0  0  0  0  0  0  0
   -6.8950   -0.7610   -0.0630 N   0  0  0  0  0  0  0  0  0  0  0  0
   -4.7990   -0.9550    1.8340 C   0  0  0  0  0  0  0  0  0  0  0  0
   -5.3430   -0.9240    3.0900 F   0  0  0  0  0  0  0  0  0  0  0  0
    4.0620   -1.8100   -1.0080 C   0  0  0  0  0  0  0  0  0  0  0  0
  1  2  1  0
  2  3  1  0
  3  4  1  1
  3  5  1  0
  5  6  2  0
  5 33  1  0
  6  7  1  0
  7  8  1  0
  7  9  2  0
  9 10  1  0
 10 11  1  0
 10 33  2  0
 11 12  1  0
 12 13  2  0
 12 14  1  0
 14 15  1  1
 14 16  1  0
 16 17  1  0
 16 18  1  0
 18 19  2  0
 18 20  1  0
 20 21  2  3
 20 26  1  0
 21 22  1  0
 22 23  2  3
 23 24  1  0
 23 25  1  0
 26 27  1  0
 26 28  2  3
 28 29  1  0
 28 31  1  0
 29 30  1  0
 31 32  1  0
M  CHG  1  30   1
M  END
