
     RDKit          3D

 25 27  0  0  0  0  0  0  0  0999 V2000
    2.4240    0.6910   -3.3750 C   0  0  0  0  0  0  0  0  0  0  0  0
    2.3590    0.4270   -1.9570 N   0  0  0  0  0  0  0  0  0  0  0  0
    1.2130   -0.1600   -1.3820 C   0  0  0  0  0  0  0  0  0  0  0  0
    0.2860   -0.4490   -2.2170 O   0  0  0  0  0  0  0  0  0  0  0  0
    1.0510   -0.4320    0.0520 C   0  0  0  0  0  0  0  0  0  0  0  0
   -0.2680   -0.9970    0.4750 C   0  0  2  0  0  0  0  0  0  0  0  0
   -0.1840   -1.1730    1.8740 O   0  0  0  0  0  0  0  0  0  0  0  0
   -0.6530   -2.2910   -0.1550 C   0  0  0  0  0  0  0  0  0  0  0  0
   -1.9140   -2.7860    0.5000 C   0  0  0  0  0  0  0  0  0  0  0  0
   -2.6800   -1.8010    1.2910 C   0  0  0  0  0  0  0  0  0  0  0  0
   -2.6560   -0.3880    0.8900 C   0  0  2  0  0  0  0  0  0  0  0  0
   -3.7750    0.0780    0.0120 C   0  0  1  0  0  0  0  0  0  0  0  0
   -5.1320   -0.0490    0.5440 C   0  0  0  0  0  0  0  0  0  0  0  0
   -5.4270    1.2780    1.2010 C   0  0  0  0  0  0  0  0  0  0  0  0
   -4.9130    2.2220    0.1040 C   0  0  0  0  0  0  0  0  0  0  0  0
   -3.5740    1.5760   -0.2040 C   0  0  0  0  0  0  0  0  0  0  0  0
   -1.3630   -0.0090    0.1400 C   0  0  0  0  0  0  0  0  0  0  0  0
    3.5510    0.7900   -1.2220 C   0  0  0  0  0  0  0  0  0  0  0  0
    4.2750   -0.1170   -0.6420 C   0  0  0  0  0  0  0  0  0  0  0  0
    5.5050    0.0000    0.1500 C   0  0  2  0  0  0  0  0  0  0  0  0
    5.2420   -0.5750    1.5340 C   0  0  0  0  0  0  0  0  0  0  0  0
    6.3910   -0.4680    2.2820 O   0  0  0  0  0  0  0  0  0  0  0  0
    6.0300    1.7090    0.2820 S   0  0  0  0  0  0  0  0  0  0  0  0
    4.8780    2.7340   -0.5920 C   0  0  0  0  0  0  0  0  0  0  0  0
    3.8340    2.2230   -1.2100 C   0  0  0  0  0  0  0  0  0  0  0  0
  1  2  1  0
  2  3  1  0
  2 18  1  0
  3  4  2  0
  3  5  1  0
  5  6  1  0
  6  7  1  1
  6  8  1  0
  6 17  1  0
  8  9  1  0
  9 10  1  0
 11 10  1  6
 11 12  1  0
 11 17  1  0
 12 13  1  1
 12 16  1  0
 13 14  1  0
 14 15  1  0
 15 16  1  0
 18 19  2  0
 18 25  1  0
 19 20  1  0
 20 21  1  1
 20 23  1  0
 21 22  1  0
 23 24  1  0
 24 25  2  0
M  END
