
     RDKit          3D

 25 27  0  0  0  0  0  0  0  0999 V2000
   -1.4840    1.4810    2.0950 C   0  0  0  0  0  0  0  0  0  0  0  0
   -1.9820    1.6450    0.6740 C   0  0  1  0  0  0  0  0  0  0  0  0
   -2.2050    3.1210    0.3980 C   0  0  0  0  0  0  0  0  0  0  0  0
   -0.9240    1.1760   -0.2610 C   0  0  0  0  0  0  0  0  0  0  0  0
   -0.5790   -0.2760   -0.0150 C   0  0  2  0  0  0  0  0  0  0  0  0
    0.3130   -0.7050   -1.1580 C   0  0  0  0  0  0  0  0  0  0  0  0
    1.4990    0.0230   -1.2680 O   0  0  0  0  0  0  0  0  0  0  0  0
    2.4960    0.1140   -0.3110 C   0  0  0  0  0  0  0  0  0  0  0  0
    2.3380   -0.5080    0.7550 O   0  0  0  0  0  0  0  0  0  0  0  0
    3.6770    0.8950   -0.5290 N   0  0  0  0  0  0  0  0  0  0  0  0
    4.7230    1.0010    0.4520 C   0  0  0  0  0  0  0  0  0  0  0  0
    5.3190   -0.3340    0.7710 C   0  0  1  0  0  0  0  0  0  0  0  0
    5.9220   -0.9030   -0.4880 C   0  0  0  0  0  0  0  0  0  0  0  0
    7.4030   -0.9400   -0.2210 C   0  0  0  0  0  0  0  0  0  0  0  0
    7.5300   -0.1580    1.0540 C   0  0  0  0  0  0  0  0  0  0  0  0
    6.3320   -0.2610    1.7160 O   0  0  0  0  0  0  0  0  0  0  0  0
   -1.7910   -1.1500    0.0730 C   0  0  0  0  0  0  0  0  0  0  0  0
   -3.0790   -0.4550   -0.2340 C   0  0  1  0  0  0  0  0  0  0  0  0
   -4.2910   -1.2920    0.1230 C   0  0  2  0  0  0  0  0  0  0  0  0
   -4.3050   -2.5930   -0.5760 C   0  0  0  0  0  0  0  0  0  0  0  0
   -4.9900   -2.9020   -1.6610 C   0  0  0  0  0  0  0  0  0  0  0  0
   -6.0380   -1.6860   -2.4410 S   0  0  0  0  0  0  0  0  0  0  0  0
   -5.7990   -0.1370   -1.5250 C   0  0  0  0  0  0  0  0  0  0  0  0
   -5.5690   -0.5110   -0.0910 C   0  0  0  0  0  0  0  0  0  0  0  0
   -3.2260    0.8900    0.4000 C   0  0  0  0  0  0  0  0  0  0  0  0
  2  1  1  1
  2  3  1  0
  2  4  1  0
  2 25  1  0
  4  5  1  0
  5  6  1  6
  5 17  1  0
  6  7  1  0
  7  8  1  0
  8  9  2  0
  8 10  1  0
 10 11  1  0
 12 11  1  6
 12 13  1  0
 12 16  1  0
 13 14  1  0
 14 15  1  0
 15 16  1  0
 18 17  1  1
 18 19  1  0
 18 25  1  0
 19 20  1  0
 19 24  1  6
 20 21  2  0
 21 22  1  0
 22 23  1  0
 23 24  1  0
M  END
