
     RDKit          3D

 26 28  0  0  0  0  0  0  0  0999 V2000
    4.8850    1.7420    1.2020 C   0  0  0  0  0  0  0  0  0  0  0  0
    4.0590    0.5930    1.7880 C   0  0  1  0  0  0  0  0  0  0  0  0
    2.9670    1.2080    2.6450 C   0  0  0  0  0  0  0  0  0  0  0  0
    3.4530   -0.0500    0.7370 O   0  0  0  0  0  0  0  0  0  0  0  0
    3.8440   -1.3730    0.7200 C   0  0  0  0  0  0  0  0  0  0  0  0
    3.2130   -2.1130   -0.4030 C   0  0  0  0  0  0  0  0  0  0  0  0
    1.7890   -2.1700   -0.4220 N   0  0  0  0  0  0  0  0  0  0  0  0
    0.8770   -1.1040   -0.5230 C   0  0  0  0  0  0  0  0  0  0  0  0
    1.3200    0.0630   -0.6170 O   0  0  0  0  0  0  0  0  0  0  0  0
   -0.6000   -1.2840   -0.5240 C   0  0  1  0  0  0  0  0  0  0  0  0
   -0.8930   -2.1970   -1.7120 C   0  0  0  0  0  0  0  0  0  0  0  0
   -2.0240   -3.0870   -1.3180 C   0  0  0  0  0  0  0  0  0  0  0  0
   -2.3530   -2.7890    0.1290 C   0  0  0  0  0  0  0  0  0  0  0  0
   -1.0860   -2.1330    0.6130 C   0  0  2  0  0  0  0  0  0  0  0  0
   -1.3300   -1.4070    1.8870 C   0  0  0  0  0  0  0  0  0  0  0  0
   -2.1920   -0.2030    1.6740 C   0  0  0  0  0  0  0  0  0  0  0  0
   -1.4650    0.7080    0.7110 C   0  0  2  0  0  0  0  0  0  0  0  0
   -2.3910    1.9130    0.5040 C   0  0  0  0  0  0  0  0  0  0  0  0
   -2.3080    2.4370   -0.8640 C   0  0  0  0  0  0  0  0  0  0  0  0
   -1.9180    3.6690   -1.0960 C   0  0  0  0  0  0  0  0  0  0  0  0
   -1.7960    4.3600   -2.7010 S   0  0  1  0  0  0  0  0  0  0  0  0
   -2.6180    5.6140   -2.8060 O   0  0  0  0  0  0  0  0  0  0  0  0
   -0.3450    4.7900   -2.8690 O   0  0  0  0  0  0  0  0  0  0  0  0
   -2.6920    1.4920   -1.9760 C   0  0  0  0  0  0  0  0  0  0  0  0
   -2.5520    0.0900   -1.3580 C   0  0  0  0  0  0  0  0  0  0  0  0
   -1.2600    0.0370   -0.6380 C   0  0  2  0  0  0  0  0  0  0  0  0
  2  1  1  6
  2  3  1  0
  2  4  1  0
  4  5  1  0
  5  6  1  0
  6  7  1  0
  7  8  1  0
  8  9  2  0
 10  8  1  1
 10 11  1  0
 10 14  1  0
 10 26  1  0
 11 12  1  0
 12 13  1  0
 14 13  1  6
 14 15  1  0
 15 16  1  0
 17 16  1  1
 17 18  1  0
 17 26  1  0
 18 19  1  0
 19 20  2  3
 19 24  1  0
 21 20  1  1
 21 22  2  0
 21 23  2  0
 24 25  1  0
 26 25  1  1
M  END
