
     RDKit          3D

 26 28  0  0  0  0  0  0  0  0999 V2000
    5.0770   -0.3410   -0.0890 C   0  0  0  0  0  0  0  0  0  0  0  0
    3.6740   -0.8870   -0.3020 C   0  0  2  0  0  0  0  0  0  0  0  0
    2.6700    0.5440   -0.8720 S   0  0  0  0  0  0  0  0  0  0  0  0
    1.9680    1.3800    0.5750 C   0  0  0  0  0  0  0  0  0  0  0  0
    0.6690    2.0570    0.3070 C   0  0  2  0  0  0  0  0  0  0  0  0
    0.6560    2.7820   -0.9950 C   0  0  0  0  0  0  0  0  0  0  0  0
    0.5570    3.1530    1.3860 C   0  0  0  0  0  0  0  0  0  0  0  0
   -0.5350    1.1490    0.5270 C   0  0  0  0  0  0  0  0  0  0  0  0
   -0.9830    0.4070   -0.6700 C   0  0  2  0  0  0  0  0  0  0  0  0
   -2.1130    1.2300   -1.3200 C   0  0  0  0  0  0  0  0  0  0  0  0
   -3.2180    1.5590   -0.3400 C   0  0  0  0  0  0  0  0  0  0  0  0
   -3.4110    0.5520    0.7240 C   0  0  1  0  0  0  0  0  0  0  0  0
   -4.8150    0.3230    0.8620 O   0  0  0  0  0  0  0  0  0  0  0  0
   -4.8620   -0.9420    1.4800 C   0  0  0  0  0  0  0  0  0  0  0  0
   -3.7450   -1.6830    0.7920 C   0  0  0  0  0  0  0  0  0  0  0  0
   -2.8790   -0.8030    0.3360 C   0  0  0  0  0  0  0  0  0  0  0  0
   -1.6140   -0.9170   -0.4440 C   0  0  0  0  0  0  0  0  0  0  0  0
   -1.2170   -2.1020   -0.8580 C   0  0  0  0  0  0  0  0  0  0  0  0
   -0.0880   -2.5310   -1.6360 C   0  0  0  0  0  0  0  0  0  0  0  0
    1.1150   -2.9820   -1.3190 C   0  0  0  0  0  0  0  0  0  0  0  0
    2.0120   -3.3250   -2.4100 O   0  0  0  0  0  0  0  0  0  0  0  0
    1.7000   -3.2020   -0.0120 C   0  0  0  0  0  0  0  0  0  0  0  0
    1.9340   -4.4800    0.2450 O   0  0  0  0  0  0  0  0  0  0  0  0
    2.0460   -2.2720    1.0000 N   0  0  0  0  0  0  0  0  0  0  0  0
    3.0600   -1.2900    0.9910 C   0  0  0  0  0  0  0  0  0  0  0  0
    3.5170   -0.6960    2.0240 O   0  0  0  0  0  0  0  0  0  0  0  0
  2  1  1  1
  2  3  1  0
  2 25  1  0
  3  4  1  0
  4  5  1  0
  5  6  1  6
  5  7  1  0
  5  8  1  0
  9  8  1  1
  9 10  1  0
  9 17  1  0
 10 11  1  0
 12 11  1  6
 12 13  1  0
 12 16  1  0
 13 14  1  0
 14 15  1  0
 15 16  2  0
 16 17  1  0
 17 18  2  0
 18 19  1  0
 19 20  2  0
 20 21  1  0
 20 22  1  0
 22 23  2  0
 22 24  1  0
 24 25  1  0
 25 26  2  0
M  END
