
     RDKit          3D

 26 28  0  0  0  0  0  0  0  0999 V2000
   -3.7540    2.4120    0.2250 C   0  0  0  0  0  0  0  0  0  0  0  0
   -4.9330    1.6000    0.5500 C   0  0  2  0  0  0  0  0  0  0  0  0
   -5.5710    1.9250    1.8880 C   0  0  0  0  0  0  0  0  0  0  0  0
   -4.7910    0.1220    0.4160 C   0  0  0  0  0  0  0  0  0  0  0  0
   -3.6780   -0.5230    0.3030 C   0  0  0  0  0  0  0  0  0  0  0  0
   -2.3090   -0.1520    0.2670 N   0  0  0  0  0  0  0  0  0  0  0  0
   -1.2960   -1.1560    0.1230 C   0  0  0  0  0  0  0  0  0  0  0  0
   -1.5410   -2.3830    0.0240 O   0  0  0  0  0  0  0  0  0  0  0  0
    0.1410   -0.7310    0.0880 C   0  0  1  0  0  0  0  0  0  0  0  0
    0.5650   -0.0560    1.3470 C   0  0  0  0  0  0  0  0  0  0  0  0
    2.0230   -0.0640    1.6150 C   0  0  0  0  0  0  0  0  0  0  0  0
    2.7290   -0.2900    0.2920 C   0  0  1  0  0  0  0  0  0  0  0  0
    4.0850    0.0150    0.3300 O   0  0  0  0  0  0  0  0  0  0  0  0
    4.6850    0.9760   -0.4550 C   0  0  0  0  0  0  0  0  0  0  0  0
    3.9420    1.6060   -1.2500 O   0  0  0  0  0  0  0  0  0  0  0  0
    6.1230    1.3000   -0.4170 C   0  0  1  0  0  0  0  0  0  0  0  0
    6.9680    0.9960    0.7470 C   0  0  0  0  0  0  0  0  0  0  0  0
    7.0180    0.0320   -0.3770 C   0  0  2  0  0  0  0  0  0  0  0  0
    8.1540    0.0210   -1.3500 C   0  0  0  0  0  0  0  0  0  0  0  0
    2.4450   -1.7430   -0.0720 C   0  0  0  0  0  0  0  0  0  0  0  0
    0.9950   -1.8400   -0.3970 C   0  0  0  0  0  0  0  0  0  0  0  0
   -4.1260   -2.2900    0.1690 S   0  0  0  0  0  0  0  0  0  0  0  0
   -5.8620   -1.9690   -0.3140 C   0  0  2  0  0  0  0  0  0  0  0  0
   -5.9660   -1.6730   -1.7820 C   0  0  0  0  0  0  0  0  0  0  0  0
   -6.0150   -0.6890    0.4210 C   0  0  0  0  0  0  0  0  0  0  0  0
   -7.1170   -0.4030    0.9660 O   0  0  0  0  0  0  0  0  0  0  0  0
  2  1  1  1
  2  3  1  0
  2  4  1  0
  4  5  2  0
  4 25  1  0
  5  6  1  0
  5 22  1  0
  6  7  1  0
  7  8  2  0
  9  7  1  1
  9 10  1  0
  9 21  1  0
 10 11  1  0
 11 12  1  0
 12 13  1  1
 12 20  1  0
 13 14  1  0
 14 15  2  0
 16 14  1  1
 16 17  1  0
 16 18  1  0
 17 18  1  0
 18 19  1  6
 20 21  1  0
 22 23  1  0
 23 24  1  6
 23 25  1  0
 25 26  2  0
M  END
