
     RDKit          3D

 26 28  0  0  0  0  0  0  0  0999 V2000
    5.4050   -2.0870    0.4050 C   0  0  0  0  0  0  0  0  0  0  0  0
    4.3490   -1.0040    0.6310 C   0  0  0  0  0  0  0  0  0  0  0  0
    3.7110   -0.6830   -0.7000 C   0  0  1  0  0  0  0  0  0  0  0  0
    3.0530   -1.8960   -1.3040 C   0  0  0  0  0  0  0  0  0  0  0  0
    2.8320    0.5190   -0.6590 C   0  0  0  0  0  0  0  0  0  0  0  0
    1.6890    0.4160    0.2940 C   0  0  0  0  0  0  0  0  0  0  0  0
    0.8630    1.6100    0.3080 C   0  0  0  0  0  0  0  0  0  0  0  0
   -0.4120    1.7060   -0.0660 C   0  0  0  0  0  0  0  0  0  0  0  0
   -1.0070    0.4730   -0.5410 C   0  0  0  0  0  0  0  0  0  0  0  0
   -0.5380   -0.5410   -1.2240 C   0  0  0  0  0  0  0  0  0  0  0  0
   -1.6840   -1.4580   -1.3630 C   0  0  0  0  0  0  0  0  0  0  0  0
   -1.7390   -2.5680   -1.9360 O   0  0  0  0  0  0  0  0  0  0  0  0
   -2.8630   -0.8630   -0.6910 C   0  0  0  0  0  0  0  0  0  0  0  0
   -4.2310   -1.4140   -0.5640 C   0  0  0  0  0  0  0  0  0  0  0  0
   -4.0670   -2.9990    0.3180 S   0  0  0  0  0  0  0  0  0  0  0  0
   -5.7100   -3.7250    0.5060 C   0  0  0  0  0  0  0  0  0  0  0  0
   -3.4300   -2.8030    1.6650 O   0  0  0  0  0  0  0  0  0  0  0  0
   -2.4270    0.2830   -0.2150 C   0  0  0  0  0  0  0  0  0  0  0  0
   -3.1100    1.3430    0.5270 C   0  0  0  0  0  0  0  0  0  0  0  0
   -4.0500    1.0660    1.3120 O   0  0  0  0  0  0  0  0  0  0  0  0
   -2.6640    2.7340    0.3240 C   0  0  0  0  0  0  0  0  0  0  0  0
   -1.2270    2.9410    0.0030 C   0  0  1  0  0  0  0  0  0  0  0  0
   -0.6800    3.9350    1.0110 C   0  0  0  0  0  0  0  0  0  0  0  0
    0.7750    4.0590    0.7620 C   0  0  0  0  0  0  0  0  0  0  0  0
    1.3330    5.1760    0.5770 O   0  0  0  0  0  0  0  0  0  0  0  0
    1.5000    2.8360    0.7460 N   0  0  0  0  0  0  0  0  0  0  0  0
  1  2  1  0
  2  3  1  0
  3  4  1  1
  3  5  1  0
  5  6  1  0
  6  7  1  0
  7  8  2  0
  7 26  1  0
  8  9  1  0
  8 22  1  0
  9 10  2  0
  9 18  1  0
 10 11  1  0
 11 12  2  0
 11 13  1  0
 13 14  1  0
 13 18  2  0
 14 15  1  0
 15 16  1  1
 15 17  2  0
 18 19  1  0
 19 20  2  0
 19 21  1  0
 22 21  1  1
 22 23  1  0
 23 24  1  0
 24 25  2  0
 24 26  1  0
M  END
