
     RDKit          3D

 12 12  0  0  0  0  0  0  0  0999 V2000
    3.2180    1.4820    0.6200 O   0  0  0  0  0  0  0  0  0  0  0  0
    2.7110    0.3550    0.0080 C   0  0  0  0  0  0  0  0  0  0  0  0
    1.2270    0.5190   -0.3520 C   0  0  1  0  0  0  0  0  0  0  0  0
    0.8470   -0.6720   -0.9540 O   0  0  0  0  0  0  0  0  0  0  0  0
   -0.5300   -0.7930   -1.0910 C   0  0  0  0  0  0  0  0  0  0  0  0
   -1.2420   -0.5960    0.2380 C   0  0  2  0  0  0  0  0  0  0  0  0
   -1.9270   -1.7200    0.6370 O   0  0  0  0  0  0  0  0  0  0  0  0
   -2.2090    0.5610    0.1130 C   0  0  0  0  0  0  0  0  0  0  0  0
   -1.6110    1.7340   -0.2830 O   0  0  0  0  0  0  0  0  0  0  0  0
   -0.1590   -0.3140    1.2590 C   0  0  1  0  0  0  0  0  0  0  0  0
    0.7330   -1.4090    1.1820 O   0  0  0  0  0  0  0  0  0  0  0  0
    0.5440    0.8010    0.8090 O   0  0  0  0  0  0  0  0  0  0  0  0
  1  2  1  0
  3  2  1  1
  3  4  1  0
  3 12  1  0
  4  5  1  0
  5  6  1  0
  6  7  1  1
  6  8  1  0
  6 10  1  0
  8  9  1  0
 10 11  1  6
 10 12  1  0
M  END
