
     RDKit          3D

 12 12  0  0  0  0  0  0  0  0999 V2000
    3.3180   -0.3620    0.0090 O   0  0  0  0  0  0  0  0  0  0  0  0
    2.3650    0.4070   -0.6290 C   0  0  0  0  0  0  0  0  0  0  0  0
    1.0150    0.3680    0.0550 C   0  0  1  0  0  0  0  0  0  0  0  0
    0.1660    1.1900   -0.7060 O   0  0  0  0  0  0  0  0  0  0  0  0
   -1.0310    1.4180   -0.0220 C   0  0  1  0  0  0  0  0  0  0  0  0
   -1.8010    2.2850   -0.7850 O   0  0  0  0  0  0  0  0  0  0  0  0
   -1.7630    0.1150    0.0800 C   0  0  2  0  0  0  0  0  0  0  0  0
   -2.9730    0.2520    0.7600 O   0  0  0  0  0  0  0  0  0  0  0  0
   -0.9210   -0.9750    0.7110 C   0  0  1  0  0  0  0  0  0  0  0  0
   -1.6140   -2.1840    0.4620 O   0  0  0  0  0  0  0  0  0  0  0  0
    0.4230   -1.0060    0.0420 C   0  0  1  0  0  0  0  0  0  0  0  0
    0.2700   -1.3950   -1.2860 O   0  0  0  0  0  0  0  0  0  0  0  0
  1  2  1  0
  3  2  1  6
  3  4  1  0
  3 11  1  0
  4  5  1  0
  5  6  1  6
  5  7  1  0
  7  8  1  1
  7  9  1  0
  9 10  1  6
  9 11  1  0
 11 12  1  6
M  END
