
     RDKit          3D

 12 12  0  0  0  0  0  0  0  0999 V2000
    2.8140    1.8480   -0.5560 O   0  0  0  0  0  0  0  0  0  0  0  0
    2.5650    0.7130   -0.0840 C   0  0  0  0  0  0  0  0  0  0  0  0
    3.6290   -0.1450    0.1420 O   0  0  0  0  0  0  0  0  0  0  0  0
    1.2130    0.2830    0.2250 C   0  0  1  0  0  0  0  0  0  0  0  0
    0.3100    0.1860   -0.9860 C   0  0  0  0  0  0  0  0  0  0  0  0
   -0.8720   -0.5200   -0.3590 C   0  0  2  0  0  0  0  0  0  0  0  0
   -1.5000   -1.3500   -1.2790 O   0  0  0  0  0  0  0  0  0  0  0  0
   -1.8170    0.5560    0.1540 C   0  0  0  0  0  0  0  0  0  0  0  0
   -2.2190    1.2950   -0.9560 O   0  0  0  0  0  0  0  0  0  0  0  0
   -0.2220   -1.2910    0.7620 C   0  0  2  0  0  0  0  0  0  0  0  0
   -0.7420   -0.9310    2.0170 O   0  0  0  0  0  0  0  0  0  0  0  0
    1.1290   -0.9990    0.7370 O   0  0  0  0  0  0  0  0  0  0  0  0
  1  2  2  0
  2  3  1  0
  4  2  1  6
  4  5  1  0
  4 12  1  0
  5  6  1  0
  6  7  1  6
  6  8  1  0
  6 10  1  0
  8  9  1  0
 10 11  1  1
 10 12  1  0
M  END
