
     RDKit          3D

 11 11  0  0  0  0  0  0  0  0999 V2000
    3.1950    0.8790   -0.3270 O   0  0  0  0  0  0  0  0  0  0  0  0
    2.3510   -0.0900   -0.8580 C   0  0  0  0  0  0  0  0  0  0  0  0
    1.0650   -0.1240   -0.0870 C   0  0  2  0  0  0  0  0  0  0  0  0
    0.1340   -1.1620   -0.6390 C   0  0  0  0  0  0  0  0  0  0  0  0
   -1.2580   -1.0660   -0.1240 C   0  0  2  0  0  0  0  0  0  0  0  0
   -2.1270   -1.5770   -1.1050 O   0  0  0  0  0  0  0  0  0  0  0  0
   -1.6960    0.3010    0.2690 C   0  0  1  0  0  0  0  0  0  0  0  0
   -2.7300    0.2360    1.2330 O   0  0  0  0  0  0  0  0  0  0  0  0
   -0.7000    1.0810    0.8330 O   0  0  0  0  0  0  0  0  0  0  0  0
    0.3920    1.2300   -0.0210 C   0  0  2  0  0  0  0  0  0  0  0  0
   -0.0300    1.6300   -1.3010 O   0  0  0  0  0  0  0  0  0  0  0  0
  1  2  1  0
  3  2  1  6
  3  4  1  0
  3 10  1  0
  4  5  1  0
  5  6  1  6
  5  7  1  0
  7  8  1  1
  7  9  1  0
  9 10  1  0
 10 11  1  6
M  END
