
     RDKit          3D

 11 11  0  0  0  0  0  0  0  0999 V2000
    3.2770    1.0590    0.1940 O   0  0  0  0  0  0  0  0  0  0  0  0
    2.2060    0.4440    0.8350 C   0  0  0  0  0  0  0  0  0  0  0  0
    1.1860    0.0120   -0.2020 C   0  0  1  0  0  0  0  0  0  0  0  0
    1.7550   -0.8760   -1.0880 O   0  0  0  0  0  0  0  0  0  0  0  0
   -0.0460   -0.5640    0.4240 C   0  0  2  0  0  0  0  0  0  0  0  0
    0.2570   -1.7410    1.1250 O   0  0  0  0  0  0  0  0  0  0  0  0
   -1.0480   -0.8590   -0.6490 C   0  0  0  0  0  0  0  0  0  0  0  0
   -2.2460   -0.0460   -0.2030 C   0  0  0  0  0  0  0  0  0  0  0  0
   -1.5480    1.0760    0.5530 C   0  0  1  0  0  0  0  0  0  0  0  0
   -2.3930    1.7930    1.3570 O   0  0  0  0  0  0  0  0  0  0  0  0
   -0.6240    0.3320    1.3120 O   0  0  0  0  0  0  0  0  0  0  0  0
  1  2  1  0
  2  3  1  0
  3  4  1  6
  3  5  1  0
  5  6  1  1
  5  7  1  0
  5 11  1  0
  7  8  1  0
  8  9  1  0
  9 10  1  1
  9 11  1  0
M  END
