
     RDKit          3D

 12 12  0  0  0  0  0  0  0  0999 V2000
   -2.3650   -0.5960   -1.2300 O   0  0  0  0  0  0  0  0  0  0  0  0
   -2.5120    0.0440   -0.0020 C   0  0  0  0  0  0  0  0  0  0  0  0
   -1.2250    0.6630    0.4180 C   0  0  1  0  0  0  0  0  0  0  0  0
   -1.4750    1.2900    1.6670 O   0  0  0  0  0  0  0  0  0  0  0  0
   -0.0720   -0.2320    0.5950 C   0  0  1  0  0  0  0  0  0  0  0  0
   -0.3930   -1.1960    1.5790 O   0  0  0  0  0  0  0  0  0  0  0  0
    0.4990   -0.9240   -0.5630 C   0  0  0  0  0  0  0  0  0  0  0  0
    1.5880    0.0190   -1.0330 C   0  0  2  0  0  0  0  0  0  0  0  0
    2.6680   -0.7290   -1.4950 O   0  0  0  0  0  0  0  0  0  0  0  0
    1.8910    0.7790    0.2060 C   0  0  2  0  0  0  0  0  0  0  0  0
    3.1770    0.4660    0.6930 O   0  0  0  0  0  0  0  0  0  0  0  0
    0.9670    0.5150    1.1650 O   0  0  0  0  0  0  0  0  0  0  0  0
  1  2  1  0
  2  3  1  0
  3  4  1  1
  3  5  1  0
  5  6  1  1
  5  7  1  0
  5 12  1  0
  7  8  1  0
  8  9  1  1
  8 10  1  0
 10 11  1  1
 10 12  1  0
M  END
