
     RDKit          3D

 15 14  0  0  0  0  0  0  0  0999 V2000
   -4.8180    1.3560   -0.2830 C   0  0  0  0  0  0  0  0  0  0  0  0
   -4.4120    0.0280   -0.6470 O   0  0  0  0  0  0  0  0  0  0  0  0
   -3.2510   -0.4680   -0.0510 C   0  0  0  0  0  0  0  0  0  0  0  0
   -3.3280   -1.4020    1.2800 S   0  0  0  0  0  0  0  0  0  0  0  0
   -1.9970   -0.1160   -0.6670 C   0  0  0  0  0  0  0  0  0  0  0  0
   -1.9540    0.6010   -1.7120 O   0  0  0  0  0  0  0  0  0  0  0  0
   -0.7180   -0.5650   -0.1250 C   0  0  0  0  0  0  0  0  0  0  0  0
   -0.7390   -1.0460    1.2300 N   0  0  0  0  0  0  0  0  0  0  0  0
   -1.0820    0.0030    2.0310 O   0  0  0  0  0  0  0  0  0  0  0  0
    0.7910   -1.7600    1.6690 S   0  0  0  0  0  0  0  0  0  0  0  0
    1.8590   -2.3060   -0.0790 S   0  0  0  0  0  0  0  0  0  0  0  0
    3.0530   -0.6420   -0.6560 S   0  0  0  0  0  0  0  0  0  0  0  0
    4.6270   -0.8040    0.1500 C   0  0  0  0  0  0  0  0  0  0  0  0
    5.3170    0.2700    0.4800 C   0  0  0  0  0  0  0  0  0  0  0  0
    4.6450    1.8760    0.1040 S   0  0  0  0  0  0  0  0  0  0  0  0
  1  2  1  0
  2  3  1  0
  3  4  2  0
  3  5  1  0
  5  6  2  0
  5  7  1  0
  7  8  1  0
  8  9  1  0
  8 10  1  0
 10 11  1  0
 11 12  1  0
 12 13  1  0
 13 14  2  3
 14 15  1  0
M  CHG  1   9  -1
M  END
