
     RDKit          3D

 14 13  0  0  0  0  0  0  0  0999 V2000
    4.6740    0.0040   -0.1230 C   0  0  0  0  0  0  0  0  0  0  0  0
    3.2210   -1.0570   -0.3560 S   0  0  0  0  0  0  0  0  0  0  0  0
    1.8620   -0.0100   -1.6090 S   0  0  0  0  0  0  0  0  0  0  0  0
    0.5710    1.1410   -0.3870 S   0  0  0  0  0  0  0  0  0  0  0  0
   -0.8880    0.1660    0.0110 C   0  0  2  0  0  0  0  0  0  0  0  0
   -1.6450   -0.0870   -1.2710 C   0  0  0  0  0  0  0  0  0  0  0  0
   -1.2280    0.3670   -2.3730 N   0  0  0  0  0  0  0  0  0  0  0  0
   -3.1420   -1.0530   -1.1120 S   0  0  0  0  0  0  0  0  0  0  0  0
   -1.7960    0.8970    0.9460 C   0  0  0  0  0  0  0  0  0  0  0  0
   -1.3510    1.2940    2.2930 C   0  0  0  0  0  0  0  0  0  0  0  0
   -2.9220    1.1690    0.5890 O   0  0  0  0  0  0  0  0  0  0  0  0
   -0.5290   -1.1670    0.5500 C   0  0  0  0  0  0  0  0  0  0  0  0
    0.6820   -1.4350    0.7120 O   0  0  0  0  0  0  0  0  0  0  0  0
   -1.4930   -2.1150    0.8770 O   0  0  0  0  0  0  0  0  0  0  0  0
  1  2  1  0
  2  3  1  0
  3  4  1  0
  5  4  1  6
  5  6  1  0
  5  9  1  0
  5 12  1  0
  6  7  2  0
  6  8  1  0
  9 10  1  0
  9 11  2  0
 12 13  2  0
 12 14  1  0
M  CHG  1   7   1
M  END
