
     RDKit          3D

 15 14  0  0  0  0  0  0  0  0999 V2000
   -4.2350   -0.3000    1.3300 N   0  0  0  0  0  0  0  0  0  0  0  0
   -3.4770   -0.6000    0.1260 C   0  0  0  0  0  0  0  0  0  0  0  0
   -2.7470    0.6690   -0.3440 C   0  0  0  0  0  0  0  0  0  0  0  0
   -1.6660    1.1420    1.0160 S   0  0  0  0  0  0  0  0  0  0  0  0
   -0.3380   -0.0290    1.3050 C   0  0  0  0  0  0  0  0  0  0  0  0
    0.6330   -0.0460    0.1820 C   0  0  0  0  0  0  0  0  0  0  0  0
    1.7560   -0.9880    0.3450 C   0  0  0  0  0  0  0  0  0  0  0  0
    1.8550   -1.7310    1.3430 O   0  0  0  0  0  0  0  0  0  0  0  0
    2.7720   -1.0170   -0.7300 C   0  0  0  0  0  0  0  0  0  0  0  0
    2.6410   -0.0460   -2.0330 S   0  0  0  0  0  0  0  0  0  0  0  0
    4.1690   -2.1140   -0.6340 S   0  0  0  0  0  0  0  0  0  0  0  0
    5.3680   -1.7940   -2.3520 S   0  0  0  0  0  0  0  0  0  0  0  0
    6.7860   -0.2890   -1.9060 S   0  0  0  0  0  0  0  0  0  0  0  0
    6.2210    1.2870   -2.2620 O   0  0  0  0  0  0  0  0  0  0  0  0
    5.4210    1.6460   -1.2690 O   0  0  0  0  0  0  0  0  0  0  0  0
  1  2  1  0
  2  3  1  0
  3  4  1  0
  4  5  1  0
  5  6  1  0
  6  7  1  0
  7  8  2  0
  7  9  1  0
  9 10  2  0
  9 11  1  0
 11 12  1  0
 12 13  1  0
 13 14  1  0
 14 15  1  0
M  CHG  2   1   1  15  -1
M  END
