
     RDKit          3D

 22 24  0  0  0  0  0  0  0  0999 V2000
   -5.1620   -1.2220    0.6610 N   0  0  0  0  0  0  0  0  0  0  0  0
   -3.8160   -0.9750    0.2750 C   0  0  0  0  0  0  0  0  0  0  0  0
   -2.8990   -1.9550    0.1240 C   0  0  0  0  0  0  0  0  0  0  0  0
   -1.5870   -1.6420   -0.2600 C   0  0  0  0  0  0  0  0  0  0  0  0
   -1.1570   -0.3610   -0.5030 C   0  0  0  0  0  0  0  0  0  0  0  0
    0.1680   -0.0450   -0.9130 N   0  0  0  0  0  0  0  0  0  0  0  0
    1.2470   -0.9410   -1.0150 C   0  0  0  0  0  0  0  0  0  0  0  0
    1.1210   -2.1470   -0.7330 O   0  0  0  0  0  0  0  0  0  0  0  0
    2.5770   -0.3950   -1.4800 C   0  0  0  0  0  0  0  0  0  0  0  0
    3.6320   -0.6630   -0.4950 C   0  0  0  0  0  0  0  0  0  0  0  0
    4.0140    0.2040    0.5380 C   0  0  0  0  0  0  0  0  0  0  0  0
    5.0270   -0.3960    1.2480 C   0  0  0  0  0  0  0  0  0  0  0  0
    5.8280    0.3190    2.6410 S   0  0  0  0  0  0  0  0  0  0  0  0
    7.1470   -0.3610    2.9610 O   0  0  0  0  0  0  0  0  0  0  0  0
    5.2380   -1.5720    0.6600 N   0  0  0  0  0  0  0  0  0  0  0  0
    4.4120   -1.7450   -0.3820 N   0  0  0  0  0  0  0  0  0  0  0  0
   -2.1090    0.6550   -0.3460 C   0  0  0  0  0  0  0  0  0  0  0  0
   -1.7690    1.9730   -0.5620 C   0  0  0  0  0  0  0  0  0  0  0  0
   -2.7010    2.9720   -0.4040 C   0  0  0  0  0  0  0  0  0  0  0  0
   -3.9750    2.6460   -0.0290 C   0  0  0  0  0  0  0  0  0  0  0  0
   -4.3370    1.3450    0.1910 C   0  0  0  0  0  0  0  0  0  0  0  0
   -3.4070    0.3450    0.0340 C   0  0  0  0  0  0  0  0  0  0  0  0
  1  2  1  0
  2  3  2  0
  2 22  1  0
  3  4  1  0
  4  5  2  0
  5  6  1  0
  5 17  1  0
  6  7  1  0
  7  8  2  0
  7  9  1  0
  9 10  1  0
 10 11  1  0
 10 16  2  0
 11 12  2  0
 12 13  1  0
 12 15  1  0
 13 14  2  0
 15 16  1  0
 17 18  2  0
 17 22  1  0
 18 19  1  0
 19 20  2  0
 20 21  1  0
 21 22  2  0
M  END
