
     RDKit          3D

 22 24  0  0  0  0  0  0  0  0999 V2000
    8.0100   -0.4990    1.2060 N   0  0  0  0  0  0  0  0  0  0  0  0
    6.8900   -1.1500    1.7340 C   0  0  0  0  0  0  0  0  0  0  0  0
    6.9470   -2.0480    2.6050 O   0  0  0  0  0  0  0  0  0  0  0  0
    5.5790   -0.7620    1.2450 C   0  0  0  0  0  0  0  0  0  0  0  0
    5.2170    0.1700    0.3140 C   0  0  0  0  0  0  0  0  0  0  0  0
    3.9180    0.3310    0.0430 C   0  0  0  0  0  0  0  0  0  0  0  0
    3.0050   -0.4440    0.7100 C   0  0  0  0  0  0  0  0  0  0  0  0
    1.5570   -0.4750    0.6120 C   0  0  0  0  0  0  0  0  0  0  0  0
    0.9080   -1.2770    1.3270 O   0  0  0  0  0  0  0  0  0  0  0  0
    0.8660    0.3810   -0.2750 N   0  0  0  0  0  0  0  0  0  0  0  0
   -0.5560    0.3290   -0.3500 C   0  0  0  0  0  0  0  0  0  0  0  0
   -1.2530    1.1600   -1.2130 C   0  0  0  0  0  0  0  0  0  0  0  0
   -2.6500    1.1140   -1.2920 C   0  0  0  0  0  0  0  0  0  0  0  0
   -3.3510    0.2290   -0.5020 C   0  0  0  0  0  0  0  0  0  0  0  0
   -4.8040    0.1820   -0.5850 C   0  0  0  0  0  0  0  0  0  0  0  0
   -5.6280    0.9400   -1.3890 C   0  0  0  0  0  0  0  0  0  0  0  0
   -6.9520    0.6100   -1.1880 C   0  0  0  0  0  0  0  0  0  0  0  0
   -6.9190   -0.3880   -0.2230 C   0  0  0  0  0  0  0  0  0  0  0  0
   -5.6380   -0.6190    0.1130 N   0  0  0  0  0  0  0  0  0  0  0  0
   -2.6190   -0.5740    0.3380 C   0  0  0  0  0  0  0  0  0  0  0  0
   -1.2790   -0.5200    0.4040 N   0  0  0  0  0  0  0  0  0  0  0  0
    4.0270   -1.4320    1.7530 S   0  0  0  0  0  0  0  0  0  0  0  0
  1  2  1  0
  2  3  2  0
  2  4  1  0
  4  5  2  0
  4 22  1  0
  5  6  1  0
  6  7  2  0
  7  8  1  0
  7 22  1  0
  8  9  2  0
  8 10  1  0
 10 11  1  0
 11 12  2  0
 11 21  1  0
 12 13  1  0
 13 14  2  0
 14 15  1  0
 14 20  1  0
 15 16  2  0
 15 19  1  0
 16 17  1  0
 17 18  2  0
 18 19  1  0
 20 21  2  0
M  END
