
     RDKit          3D

 22 23  0  0  0  0  0  0  0  0999 V2000
    1.7510    3.4960    0.4380 C   0  0  0  0  0  0  0  0  0  0  0  0
    0.2610    3.7630    0.5500 C   0  0  0  0  0  0  0  0  0  0  0  0
   -0.4720    3.6360   -1.0560 S   0  0  2  0  0  0  0  0  0  0  0  0
    0.1470    4.6540   -1.9570 O   0  0  0  0  0  0  0  0  0  0  0  0
   -1.9400    3.9480   -0.9060 O   0  0  0  0  0  0  0  0  0  0  0  0
   -0.2330    2.0660   -1.7100 N   0  0  0  0  0  0  0  0  0  0  0  0
   -0.7850    0.9210   -1.0290 C   0  0  0  0  0  0  0  0  0  0  0  0
   -1.9980    0.5550   -1.2890 C   0  0  0  0  0  0  0  0  0  0  0  0
   -2.6830   -0.5820   -0.6750 C   0  0  0  0  0  0  0  0  0  0  0  0
   -3.9110   -0.8260   -1.0420 C   0  0  0  0  0  0  0  0  0  0  0  0
   -4.6810   -1.9470   -0.4810 C   0  0  0  0  0  0  0  0  0  0  0  0
   -3.7000   -3.0670   -0.1580 C   0  0  0  0  0  0  0  0  0  0  0  0
   -2.7040   -2.5670    0.8610 C   0  0  0  0  0  0  0  0  0  0  0  0
   -1.9630   -1.3870    0.3180 C   0  0  0  0  0  0  0  0  0  0  0  0
    0.0330    0.2640   -0.1140 N   0  0  0  0  0  0  0  0  0  0  0  0
    1.2380   -0.0560   -0.4380 C   0  0  0  0  0  0  0  0  0  0  0  0
    1.7180    0.2700   -1.7390 N   0  0  0  0  0  0  0  0  0  0  0  0
    2.1300   -0.7190    0.4200 N   0  0  0  0  0  0  0  0  0  0  0  0
    2.3210   -0.4420    1.8190 C   0  0  0  0  0  0  0  0  0  0  0  0
    3.8050   -0.6410    1.9960 C   0  0  0  0  0  0  0  0  0  0  0  0
    4.0240   -1.9220    1.1920 C   0  0  0  0  0  0  0  0  0  0  0  0
    3.0220   -1.7970    0.0750 C   0  0  0  0  0  0  0  0  0  0  0  0
  1  2  1  0
  3  2  1  1
  3  4  2  0
  3  5  2  0
  3  6  1  0
  6  7  1  0
  7  8  2  3
  7 15  1  0
  8  9  1  0
  9 10  2  0
  9 14  1  0
 10 11  1  0
 11 12  1  0
 12 13  1  0
 13 14  1  0
 15 16  2  3
 16 17  1  0
 16 18  1  0
 18 19  1  0
 18 22  1  0
 19 20  1  0
 20 21  1  0
 21 22  1  0
M  END
