
     RDKit          3D

 28 31  0  0  0  0  0  0  0  0999 V2000
   -4.3770    0.6760    1.1500 C   0  0  0  0  0  0  0  0  0  0  0  0
   -3.4670    0.9180    0.2350 C   0  0  0  0  0  0  0  0  0  0  0  0
   -2.6910   -0.1120   -0.2890 C   0  0  0  0  0  0  0  0  0  0  0  0
   -1.7150    0.1040   -1.2580 C   0  0  0  0  0  0  0  0  0  0  0  0
   -1.5730    1.4110   -1.6620 C   0  0  0  0  0  0  0  0  0  0  0  0
   -2.3150    2.3980   -1.1610 N   0  0  0  0  0  0  0  0  0  0  0  0
   -3.2790    2.2070   -0.2090 C   0  0  0  0  0  0  0  0  0  0  0  0
   -3.9480    3.2560    0.2100 C   0  0  0  0  0  0  0  0  0  0  0  0
   -3.6570    4.5040   -0.3220 O   0  0  0  0  0  0  0  0  0  0  0  0
   -1.0880   -1.1700   -1.5920 C   0  0  0  0  0  0  0  0  0  0  0  0
    0.0040   -1.3150   -2.2330 N   0  0  0  0  0  0  0  0  0  0  0  0
    0.8020   -0.2970   -2.7340 N   0  0  0  0  0  0  0  0  0  0  0  0
    1.9120    0.1440   -1.9810 C   0  0  0  0  0  0  0  0  0  0  0  0
    1.9260   -0.0820   -0.7200 N   0  0  0  0  0  0  0  0  0  0  0  0
    3.0380    0.3590    0.0420 C   0  0  0  0  0  0  0  0  0  0  0  0
    3.5980    1.5970   -0.2150 C   0  0  0  0  0  0  0  0  0  0  0  0
    4.6790    2.0480    0.5130 C   0  0  0  0  0  0  0  0  0  0  0  0
    5.2490    3.2530    0.2860 F   0  0  0  0  0  0  0  0  0  0  0  0
    5.1740    1.2220    1.4970 C   0  0  0  0  0  0  0  0  0  0  0  0
    6.2330    1.6230    2.2350 F   0  0  0  0  0  0  0  0  0  0  0  0
    4.6210   -0.0220    1.7640 C   0  0  0  0  0  0  0  0  0  0  0  0
    3.5350   -0.4650    1.0260 C   0  0  0  0  0  0  0  0  0  0  0  0
    2.9360   -1.7890    1.2990 C   0  0  0  0  0  0  0  0  0  0  0  0
   -1.9540   -2.2120   -1.0510 C   0  0  1  0  0  0  0  0  0  0  0  0
   -1.2520   -3.2350   -0.1780 C   0  0  0  0  0  0  0  0  0  0  0  0
   -2.3220   -3.4990    0.8190 C   0  0  0  0  0  0  0  0  0  0  0  0
   -3.1120   -2.4740    0.8790 N   0  0  0  0  0  0  0  0  0  0  0  0
   -2.7010   -1.4890    0.0080 N   0  0  0  0  0  0  0  0  0  0  0  0
  1  2  2  0
  2  3  1  0
  2  7  1  0
  3  4  2  0
  3 28  1  0
  4  5  1  0
  4 10  1  0
  5  6  2  0
  6  7  1  0
  7  8  2  3
  8  9  1  0
 10 11  2  3
 10 24  1  0
 11 12  1  0
 12 13  1  0
 13 14  2  3
 14 15  1  0
 15 16  2  0
 15 22  1  0
 16 17  1  0
 17 18  1  0
 17 19  2  0
 19 20  1  0
 19 21  1  0
 21 22  2  0
 22 23  1  0
 24 25  1  1
 24 28  1  0
 25 26  1  0
 26 27  2  0
 27 28  1  0
M  END
