
     RDKit          3D

 28 31  0  0  0  0  0  0  0  0999 V2000
   -5.1740    0.4540   -2.6610 C   0  0  0  0  0  0  0  0  0  0  0  0
   -4.7670    0.1260   -1.4210 C   0  0  0  0  0  0  0  0  0  0  0  0
   -3.3510    0.0980   -1.1500 C   0  0  0  0  0  0  0  0  0  0  0  0
   -2.9010   -0.2180    0.0520 C   0  0  0  0  0  0  0  0  0  0  0  0
   -1.5050   -0.2320    0.2730 N   0  0  0  0  0  0  0  0  0  0  0  0
   -0.6640   -0.8020   -0.7920 C   0  0  0  0  0  0  0  0  0  0  0  0
    0.2590    0.3220   -1.2090 C   0  0  0  0  0  0  0  0  0  0  0  0
    1.0770    0.8660   -0.0860 C   0  0  2  0  0  0  0  0  0  0  0  0
    2.2170   -0.0760    0.1370 C   0  0  0  0  0  0  0  0  0  0  0  0
    2.0790   -1.3270    0.5530 N   0  0  0  0  0  0  0  0  0  0  0  0
    3.2790   -1.8890    0.6480 C   0  0  0  0  0  0  0  0  0  0  0  0
    3.7520   -3.1070    1.0090 N   0  0  0  0  0  0  0  0  0  0  0  0
    5.0610   -3.4080    1.0120 C   0  0  0  0  0  0  0  0  0  0  0  0
    5.9800   -2.4970    0.6490 N   0  0  0  0  0  0  0  0  0  0  0  0
    5.5310   -1.2860    0.2890 C   0  0  0  0  0  0  0  0  0  0  0  0
    4.1890   -0.9450    0.2760 C   0  0  0  0  0  0  0  0  0  0  0  0
    3.5110    0.1740   -0.0380 N   0  0  0  0  0  0  0  0  0  0  0  0
    4.1350    1.3840   -0.4760 C   0  0  0  0  0  0  0  0  0  0  0  0
    4.4800    2.3000    0.7030 C   0  0  0  0  0  0  0  0  0  0  0  0
    5.0860    3.4680    0.2530 O   0  0  0  0  0  0  0  0  0  0  0  0
    0.3350    1.1230    1.1720 C   0  0  0  0  0  0  0  0  0  0  0  0
   -0.8350    0.2530    1.4300 C   0  0  0  0  0  0  0  0  0  0  0  0
   -3.8680   -0.5200    1.0310 N   0  0  0  0  0  0  0  0  0  0  0  0
   -5.1300   -0.5210    0.8830 C   0  0  0  0  0  0  0  0  0  0  0  0
   -6.0700   -0.8620    2.0070 C   0  0  0  0  0  0  0  0  0  0  0  0
   -5.7640   -0.1890   -0.3970 C   0  0  2  0  0  0  0  0  0  0  0  0
   -6.4700   -1.3150   -0.8820 F   0  0  0  0  0  0  0  0  0  0  0  0
   -6.6790    0.8600   -0.2520 F   0  0  0  0  0  0  0  0  0  0  0  0
  1  2  2  0
  2  3  1  0
  2 26  1  0
  3  4  2  0
  4  5  1  0
  4 23  1  0
  5  6  1  0
  5 22  1  0
  6  7  1  0
  7  8  1  0
  8  9  1  1
  8 21  1  0
  9 10  2  0
  9 17  1  0
 10 11  1  0
 11 12  2  0
 11 16  1  0
 12 13  1  0
 13 14  2  0
 14 15  1  0
 15 16  2  0
 16 17  1  0
 17 18  1  0
 18 19  1  0
 19 20  1  0
 21 22  1  0
 23 24  2  0
 24 25  1  0
 24 26  1  0
 26 27  1  6
 26 28  1  0
M  END
