
     RDKit          3D

  6  5  0  0  0  0  0  0  0  0999 V2000
    2.0800   -0.2070    0.5840 O   0  0  0  0  0  0  0  0  0  0  0  0
    0.9160   -0.7810    0.6970 O   0  0  0  0  0  0  0  0  0  0  0  0
    0.0720   -0.5060   -0.3920 C   0  0  0  0  0  0  0  0  0  0  0  0
   -0.9340    0.4800    0.1230 C   0  0  1  0  0  0  0  0  0  0  0  0
   -1.9480    1.1910   -1.1300 Cl  0  0  0  0  0  0  0  0  0  0  0  0
   -1.9930   -0.4240    1.2440 Cl  0  0  0  0  0  0  0  0  0  0  0  0
  1  2  1  0
  2  3  1  0
  3  4  1  0
  4  5  1  6
  4  6  1  0
M  END
