
     RDKit          3D

 37 41  0  0  0  0  0  0  0  0999 V2000
    0.4180   -2.8710    0.8160 C   0  0  0  0  0  0  0  0  0  0  0  0
   -0.5580   -1.8930   -0.0590 C   0  0  2  0  0  0  0  0  0  0  0  0
   -0.8610   -2.9200   -1.1730 C   0  0  0  0  0  0  0  0  0  0  0  0
    0.3450   -3.3780   -1.9260 C   0  0  0  0  0  0  0  0  0  0  0  0
    1.3110   -4.0130   -1.2070 O   0  0  0  0  0  0  0  0  0  0  0  0
    0.3040   -0.8350   -0.5460 C   0  0  0  0  0  0  0  0  0  0  0  0
    1.6160   -1.2340   -0.7870 N   0  0  0  0  0  0  0  0  0  0  0  0
    2.3730   -0.2560   -1.1780 N   0  0  0  0  0  0  0  0  0  0  0  0
    3.7490   -0.3100   -1.5700 C   0  0  0  0  0  0  0  0  0  0  0  0
    4.8030   -0.0560   -0.5820 C   0  0  0  0  0  0  0  0  0  0  0  0
    4.8780   -0.9260    0.6180 C   0  0  0  0  0  0  0  0  0  0  0  0
    6.0900   -0.5450    1.4260 C   0  0  0  0  0  0  0  0  0  0  0  0
    6.1540    0.8610    1.8930 C   0  0  0  0  0  0  0  0  0  0  0  0
    7.3590    0.9770    2.6280 O   0  0  0  0  0  0  0  0  0  0  0  0
    1.6010    0.8620   -1.2150 C   0  0  0  0  0  0  0  0  0  0  0  0
    1.9900    2.1420   -1.3140 N   0  0  0  0  0  0  0  0  0  0  0  0
    1.1400    3.1220   -1.0380 C   0  0  0  0  0  0  0  0  0  0  0  0
    1.5010    4.3080   -1.1190 O   0  0  0  0  0  0  0  0  0  0  0  0
   -0.1420    2.8240   -0.6640 C   0  0  0  0  0  0  0  0  0  0  0  0
   -1.0130    3.8150   -0.2660 C   0  0  0  0  0  0  0  0  0  0  0  0
   -0.4040    5.4640   -0.3680 Cl  0  0  0  0  0  0  0  0  0  0  0  0
   -2.2670    3.5440    0.1830 C   0  0  0  0  0  0  0  0  0  0  0  0
   -2.7120    2.2180    0.2360 C   0  0  0  0  0  0  0  0  0  0  0  0
   -4.0440    1.9580    0.4650 C   0  0  0  0  0  0  0  0  0  0  0  0
   -4.7630    2.9420    0.8480 O   0  0  0  0  0  0  0  0  0  0  0  0
   -4.5730    0.7240    0.2960 N   0  0  0  0  0  0  0  0  0  0  0  0
   -5.9450    0.5370    0.5670 C   0  0  0  0  0  0  0  0  0  0  0  0
   -6.4330   -0.1750    1.6440 C   0  0  0  0  0  0  0  0  0  0  0  0
   -7.7710   -0.3390    1.8950 C   0  0  0  0  0  0  0  0  0  0  0  0
   -8.6700    0.2280    1.0410 N   0  0  0  0  0  0  0  0  0  0  0  0
   -8.2570    0.9290   -0.0180 C   0  0  0  0  0  0  0  0  0  0  0  0
   -6.8860    1.0930   -0.2700 C   0  0  0  0  0  0  0  0  0  0  0  0
   -3.7680   -0.2140   -0.1030 N   0  0  0  0  0  0  0  0  0  0  0  0
   -2.4670   -0.0060   -0.3310 C   0  0  0  0  0  0  0  0  0  0  0  0
   -1.8490    1.2090   -0.1580 C   0  0  0  0  0  0  0  0  0  0  0  0
   -0.6050    1.4950   -0.5650 C   0  0  0  0  0  0  0  0  0  0  0  0
    0.3130    0.4900   -0.8330 C   0  0  0  0  0  0  0  0  0  0  0  0
  2  1  1  1
  2  3  1  0
  2  6  1  0
  3  4  1  0
  4  5  1  0
  6  7  2  0
  6 37  1  0
  7  8  1  0
  8  9  1  0
  8 15  1  0
  9 10  1  0
 10 11  1  0
 11 12  1  0
 12 13  1  0
 13 14  1  0
 15 16  1  0
 15 37  2  0
 16 17  1  0
 17 18  2  0
 17 19  1  0
 19 20  2  0
 19 36  1  0
 20 21  1  0
 20 22  1  0
 22 23  2  0
 23 24  1  0
 23 35  1  0
 24 25  2  0
 24 26  1  0
 26 27  1  0
 26 33  1  0
 27 28  2  0
 27 32  1  0
 28 29  1  0
 29 30  2  0
 30 31  1  0
 31 32  2  0
 33 34  2  0
 34 35  1  0
 35 36  2  0
 36 37  1  0
M  END
